1:0
     RDKit          3D

 39 40  0  0  0  0  0  0  0  0999 V2000
  141.7920  159.8320  134.5430 C   0  0  0  0  0  0  0  0  0  0  0  0
  143.0830  159.5420  134.6980 C   0  0  0  0  0  0  0  0  0  0  0  0
  143.9350  159.0760  133.5880 C   0  0  0  0  0  0  0  0  0  0  0  0
  143.4210  158.3780  132.6740 O   0  0  0  0  0  0  0  0  0  0  0  0
  145.3350  159.3910  133.5290 N   0  0  0  0  0  0  0  0  0  0  0  0
  145.9230  160.6070  133.6980 C   0  0  0  0  0  0  0  0  0  0  0  0
  145.2370  161.8520  134.1070 C   0  0  0  0  0  0  0  0  0  0  0  0
  145.9020  162.8300  134.9020 N   0  0  0  0  0  0  0  0  0  0  0  0
  144.0540  162.0650  133.7300 O   0  0  0  0  0  0  0  0  0  0  0  0
  147.2970  160.5190  133.4690 C   0  0  0  0  0  0  0  0  0  0  0  0
  147.5290  159.2020  133.1460 C   0  0  0  0  0  0  0  0  0  0  0  0
  148.7140  158.5550  132.8110 C   0  0  0  0  0  0  0  0  0  0  0  0
  148.6520  157.1870  132.4970 C   0  0  0  0  0  0  0  0  0  0  0  0
  147.4120  156.4930  132.5030 C   0  0  0  0  0  0  0  0  0  0  0  0
  147.3600  155.0820  132.1790 N   0  0  0  0  0  0  0  0  0  0  0  0
  147.5090  154.1710  133.3520 C   0  0  0  0  0  0  0  0  0  0  0  0
  146.3130  153.1970  133.4540 C   0  0  0  0  0  0  0  0  0  0  0  0
  147.6300  154.9750  134.6680 C   0  0  0  0  0  0  0  0  0  0  0  0
  148.7770  153.3450  133.1900 C   0  0  0  0  0  0  0  0  0  0  0  0
  149.0280  152.4020  133.9890 O   0  0  0  0  0  0  0  0  0  0  0  0
  149.6800  153.6120  132.1670 O   0  0  0  0  0  0  0  0  0  0  0  0
  146.2320  157.1870  132.8640 C   0  0  0  0  0  0  0  0  0  0  0  0
  146.3290  158.5440  133.1840 C   0  0  0  0  0  0  0  0  0  0  0  0
  141.1985  160.1762  135.4028 H   0  0  0  0  0  0  0  0  0  0  0  0
  141.3195  159.7272  133.5552 H   0  0  0  0  0  0  0  0  0  0  0  0
  143.5323  159.6549  135.6957 H   0  0  0  0  0  0  0  0  0  0  0  0
  146.9420  162.9280  134.8720 H   0  0  0  0  0  0  0  0  0  0  0  0
  148.0371  161.3303  133.5331 H   0  0  0  0  0  0  0  0  0  0  0  0
  149.6705  159.0979  132.7925 H   0  0  0  0  0  0  0  0  0  0  0  0
  149.5755  156.6460  132.2431 H   0  0  0  0  0  0  0  0  0  0  0  0
  148.1120  154.8750  131.4790 H   0  0  0  0  0  0  0  0  0  0  0  0
  146.4490  154.8860  131.6990 H   0  0  0  0  0  0  0  0  0  0  0  0
  146.0824  153.0092  134.5130 H   0  0  0  0  0  0  0  0  0  0  0  0
  145.4356  153.6408  132.9608 H   0  0  0  0  0  0  0  0  0  0  0  0
  146.5699  152.2479  132.9608 H   0  0  0  0  0  0  0  0  0  0  0  0
  147.5274  154.2931  135.5250 H   0  0  0  0  0  0  0  0  0  0  0  0
  148.6125  155.4681  134.7074 H   0  0  0  0  0  0  0  0  0  0  0  0
  146.8362  155.7355  134.7074 H   0  0  0  0  0  0  0  0  0  0  0  0
  145.2614  156.6702  132.8920 H   0  0  0  0  0  0  0  0  0  0  0  0
  1  2  2  0
  2  3  1  0
  3  4  2  0
  3  5  1  0
  5  6  1  0
  6  7  1  0
  7  8  1  0
  7  9  2  0
  6 10  2  0
 10 11  1  0
 11 12  2  0
 12 13  1  0
 13 14  2  0
 14 15  1  0
 15 16  1  0
 16 17  1  0
 16 18  1  0
 16 19  1  0
 19 20  2  0
 19 21  1  0
 14 22  1  0
 22 23  2  0
 23  5  1  0
 23 11  1  0
  1 24  1  0
  1 25  1  0
  2 26  1  0
  8 27  1  0
 10 28  1  0
 12 29  1  0
 13 30  1  0
 15 31  1  0
 15 32  1  0
 17 33  1  0
 17 34  1  0
 17 35  1  0
 18 36  1  0
 18 37  1  0
 18 38  1  0
 22 39  1  0
M  CHG  3   8  -1  15   1  21  -1
M  END
>  <UniqueID>  (1) 
1

>  <SMILES>  (1) 
C=CC(=O)n1c(C([NH-])=O)cc2ccc([NH2+]C(C)(C)C(=O)[O-])cc21

>  <Energy>  (1) 
81.39140824404649

>  <Genealogy>  (1) 
C=CC(=O)n1c(C([NH-])=O)cc2ccc([NH2+]C(C)(C)C(=O)[O-])cc21 (protonated)
C=CC(=O)n1c(C([NH-])=O)cc2ccc([NH2+]C(C)(C)C(=O)[O-])cc21 (3D coordinates assigned)
C=CC(=O)n1c(C([NH-])=O)cc2ccc([NH2+]C(C)(C)C(=O)[O-])cc21 (optimized conformer: 81.39140824404649 kcal/mol)

>  <smiles>  (1) 
C=CC(=O)n1c(C(N)=O)cc2ccc(NC(C)(C)C(=O)O)cc21

>  <score_type>  (1) 
oracle

>  <origin>  (1) 
adg

>  <m_score__min__energy>  (1) 
-6.9800000000000004

>  <m_primary>  (1) 
energy

$$$$
2:0
     RDKit          3D

 45 46  0  0  0  0  0  0  0  0999 V2000
  140.4690  151.8450  131.4100 H   0  0  0  0  0  0  0  0  0  0  0  0
  141.2990  151.7310  131.9430 O   0  0  0  0  0  0  0  0  0  0  0  0
  141.0450  152.2690  133.2140 C   0  0  0  0  0  0  0  0  0  0  0  0
  140.8982  151.4483  133.9316 H   0  0  0  0  0  0  0  0  0  0  0  0
  140.1410  152.8935  133.1615 H   0  0  0  0  0  0  0  0  0  0  0  0
  142.2190  153.1360  133.6740 C   0  0  0  0  0  0  0  0  0  0  0  0
  142.8204  152.5677  134.3988 H   0  0  0  0  0  0  0  0  0  0  0  0
  141.8136  154.0502  134.1321 H   0  0  0  0  0  0  0  0  0  0  0  0
  143.0730  153.5260  132.5490 N   0  0  0  0  0  0  0  0  0  0  0  0
  142.8290  153.1930  131.5880 H   0  0  0  0  0  0  0  0  0  0  0  0
  144.2510  154.3410  132.7000 C   0  0  0  0  0  0  0  0  0  0  0  0
  145.5270  153.7250  132.6510 C   0  0  0  0  0  0  0  0  0  0  0  0
  145.5992  152.6389  132.4926 H   0  0  0  0  0  0  0  0  0  0  0  0
  146.7010  154.4830  132.8020 C   0  0  0  0  0  0  0  0  0  0  0  0
  147.6917  154.0061  132.7693 H   0  0  0  0  0  0  0  0  0  0  0  0
  146.5720  155.8540  132.9940 C   0  0  0  0  0  0  0  0  0  0  0  0
  147.5360  156.8170  133.1860 C   0  0  0  0  0  0  0  0  0  0  0  0
  148.6260  156.6723  133.2176 H   0  0  0  0  0  0  0  0  0  0  0  0
  146.8380  158.0150  133.3320 C   0  0  0  0  0  0  0  0  0  0  0  0
  147.4840  159.3400  133.4680 C   0  0  0  0  0  0  0  0  0  0  0  0
  148.5420  159.4610  134.1400 O   0  0  0  0  0  0  0  0  0  0  0  0
  146.9060  160.4990  132.8640 N   0  0  0  0  0  0  0  0  0  0  0  0
  146.0670  160.4290  132.2470 H   0  0  0  0  0  0  0  0  0  0  0  0
  147.3520  161.4350  132.9950 H   0  0  0  0  0  0  0  0  0  0  0  0
  145.4960  157.7970  133.2410 N   0  0  0  0  0  0  0  0  0  0  0  0
  144.4330  158.7530  133.3940 C   0  0  0  0  0  0  0  0  0  0  0  0
  144.4080  159.7780  132.6570 O   0  0  0  0  0  0  0  0  0  0  0  0
  143.3570  158.5140  134.3760 C   0  0  0  0  0  0  0  0  0  0  0  0
  143.4524  157.6666  135.0708 H   0  0  0  0  0  0  0  0  0  0  0  0
  142.2690  159.2910  134.4520 C   0  0  0  0  0  0  0  0  0  0  0  0
  142.1636  160.1244  133.7418 H   0  0  0  0  0  0  0  0  0  0  0  0
  141.2060  159.0720  135.4520 C   0  0  0  0  0  0  0  0  0  0  0  0
  140.9380  160.0070  136.2540 O   0  0  0  0  0  0  0  0  0  0  0  0
  140.4760  157.8340  135.5420 N   0  0  0  0  0  0  0  0  0  0  0  0
  139.9690  157.1610  134.3440 C   0  0  0  0  0  0  0  0  0  0  0  0
  139.3317  156.3150  134.6407 H   0  0  0  0  0  0  0  0  0  0  0  0
  139.3799  157.8717  133.7458 H   0  0  0  0  0  0  0  0  0  0  0  0
  140.8146  156.7909  133.7458 H   0  0  0  0  0  0  0  0  0  0  0  0
  140.1670  157.2820  136.8610 C   0  0  0  0  0  0  0  0  0  0  0  0
  140.5463  157.9596  137.6401 H   0  0  0  0  0  0  0  0  0  0  0  0
  139.0775  157.1743  136.9674 H   0  0  0  0  0  0  0  0  0  0  0  0
  140.6449  156.2970  136.9674 H   0  0  0  0  0  0  0  0  0  0  0  0
  145.3490  156.4710  133.0310 C   0  0  0  0  0  0  0  0  0  0  0  0
  144.1630  155.7420  132.8990 C   0  0  0  0  0  0  0  0  0  0  0  0
  143.1852  156.2435  132.9484 H   0  0  0  0  0  0  0  0  0  0  0  0
  1  2  1  0
  2  3  1  0
  3  4  1  0
  3  5  1  0
  3  6  1  0
  6  7  1  0
  6  8  1  0
  6  9  1  0
  9 10  1  0
  9 11  1  0
 11 12  2  0
 12 13  1  0
 12 14  1  0
 14 15  1  0
 14 16  2  0
 16 17  1  0
 17 18  1  0
 17 19  2  0
 19 20  1  0
 20 21  2  0
 20 22  1  0
 22 23  1  0
 22 24  1  0
 19 25  1  0
 25 26  1  0
 26 27  2  0
 26 28  1  0
 28 29  1  0
 28 30  2  0
 30 31  1  0
 30 32  1  0
 32 33  2  0
 32 34  1  0
 34 35  1  0
 35 36  1  0
 35 37  1  0
 35 38  1  0
 34 39  1  0
 39 40  1  0
 39 41  1  0
 39 42  1  0
 25 43  1  0
 43 44  2  0
 44 45  1  0
 44 11  1  0
 43 16  1  0
M  END
>  <UniqueID>  (2) 
2

>  <SMILES>  (2) 
CN(C)C(=O)/C=C/C(=O)n1c(C(N)=O)cc2ccc(NCCO)cc21

>  <Energy>  (2) 
82.09562837897991

>  <Genealogy>  (2) 
CN(C)C(=O)/C=C/C(=O)n1c(C(N)=O)cc2ccc(NCCO)cc21 (cis-trans isomerization)
CN(C)C(=O)/C=C/C(=O)n1c(C(N)=O)cc2ccc(NCCO)cc21 (3D coordinates assigned)
CN(C)C(=O)/C=C/C(=O)n1c(C(N)=O)cc2ccc(NCCO)cc21 (optimized conformer: 82.09562837897991 kcal/mol)

>  <smiles>  (2) 
CN(C)C(=O)/C=C/C(=O)n1c(C(N)=O)cc2ccc(NCCO)cc21

>  <score_type>  (2) 
oracle

>  <origin>  (2) 
adg

>  <m_score__min__energy>  (2) 
-7.4100000000000001

>  <m_primary>  (2) 
energy

$$$$
3:0
     RDKit          3D

 45 46  0  0  0  0  0  0  0  0999 V2000
  141.8080  155.8750  133.7590 C   0  0  0  0  0  0  0  0  0  0  0  0
  142.8940  155.2150  134.5530 C   0  0  0  0  0  0  0  0  0  0  0  0
  142.7570  155.1320  135.8030 O   0  0  0  0  0  0  0  0  0  0  0  0
  144.0670  154.6600  133.9190 N   0  0  0  0  0  0  0  0  0  0  0  0
  143.9270  154.0810  132.5720 C   0  0  0  0  0  0  0  0  0  0  0  0
  143.9450  152.5720  132.6060 C   0  0  0  0  0  0  0  0  0  0  0  0
  145.0660  151.9920  132.6270 O   0  0  0  0  0  0  0  0  0  0  0  0
  142.7350  151.7820  132.6260 N   0  0  0  0  0  0  0  0  0  0  0  0
  142.8460  150.3180  132.6580 C   0  0  0  0  0  0  0  0  0  0  0  0
  141.4110  152.4130  132.6230 C   0  0  0  0  0  0  0  0  0  0  0  0
  145.3840  154.9310  134.4490 C   0  0  0  0  0  0  0  0  0  0  0  0
  145.7450  154.4020  135.5360 O   0  0  0  0  0  0  0  0  0  0  0  0
  146.3080  155.7790  133.7450 N   0  0  0  0  0  0  0  0  0  0  0  0
  147.5500  155.4610  133.2870 C   0  0  0  0  0  0  0  0  0  0  0  0
  148.1370  154.1100  133.2620 C   0  0  0  0  0  0  0  0  0  0  0  0
  147.3890  152.9780  133.7010 N   0  0  0  0  0  0  0  0  0  0  0  0
  149.2930  153.9420  132.7890 O   0  0  0  0  0  0  0  0  0  0  0  0
  148.1910  156.5890  132.7800 C   0  0  0  0  0  0  0  0  0  0  0  0
  147.2850  157.6150  132.9270 C   0  0  0  0  0  0  0  0  0  0  0  0
  147.3950  158.9620  132.5960 C   0  0  0  0  0  0  0  0  0  0  0  0
  146.3090  159.8030  132.8900 C   0  0  0  0  0  0  0  0  0  0  0  0
  145.1490  159.2950  133.5320 C   0  0  0  0  0  0  0  0  0  0  0  0
  143.9770  160.2010  133.8100 C   0  0  0  0  0  0  0  0  0  0  0  0
  142.9160  159.8950  132.9770 F   0  0  0  0  0  0  0  0  0  0  0  0
  143.5520  160.0650  135.1200 F   0  0  0  0  0  0  0  0  0  0  0  0
  144.3550  161.5130  133.5940 F   0  0  0  0  0  0  0  0  0  0  0  0
  145.0680  157.9150  133.8320 C   0  0  0  0  0  0  0  0  0  0  0  0
  146.1580  157.0990  133.5100 C   0  0  0  0  0  0  0  0  0  0  0  0
  141.0727  156.3219  134.4443 H   0  0  0  0  0  0  0  0  0  0  0  0
  142.2435  156.6613  133.1249 H   0  0  0  0  0  0  0  0  0  0  0  0
  141.3106  155.1263  133.1249 H   0  0  0  0  0  0  0  0  0  0  0  0
  142.9735  154.4160  132.1377 H   0  0  0  0  0  0  0  0  0  0  0  0
  144.7789  154.4195  131.9640 H   0  0  0  0  0  0  0  0  0  0  0  0
  142.8720  149.9750  133.7028 H   0  0  0  0  0  0  0  0  0  0  0  0
  141.9790  149.8733  132.1476 H   0  0  0  0  0  0  0  0  0  0  0  0
  143.7701  150.0091  132.1476 H   0  0  0  0  0  0  0  0  0  0  0  0
  141.0781  152.5717  133.6593 H   0  0  0  0  0  0  0  0  0  0  0  0
  141.4674  153.3811  132.1037 H   0  0  0  0  0  0  0  0  0  0  0  0
  140.6946  151.7595  132.1037 H   0  0  0  0  0  0  0  0  0  0  0  0
  147.8150  152.0250  133.6720 H   0  0  0  0  0  0  0  0  0  0  0  0
  146.3830  153.0670  133.9660 H   0  0  0  0  0  0  0  0  0  0  0  0
  149.2034  156.6474  132.3538 H   0  0  0  0  0  0  0  0  0  0  0  0
  148.3044  159.3561  132.1188 H   0  0  0  0  0  0  0  0  0  0  0  0
  146.3579  160.8681  132.6196 H   0  0  0  0  0  0  0  0  0  0  0  0
  144.1698  157.4936  134.3070 H   0  0  0  0  0  0  0  0  0  0  0  0
  1  2  1  0
  2  3  2  0
  2  4  1  0
  4  5  1  0
  5  6  1  0
  6  7  2  0
  6  8  1  0
  8  9  1  0
  8 10  1  0
  4 11  1  0
 11 12  2  0
 11 13  1  0
 13 14  1  0
 14 15  1  0
 15 16  1  0
 15 17  2  0
 14 18  2  0
 18 19  1  0
 19 20  2  0
 20 21  1  0
 21 22  2  0
 22 23  1  0
 23 24  1  0
 23 25  1  0
 23 26  1  0
 22 27  1  0
 27 28  2  0
 28 13  1  0
 28 19  1  0
  1 29  1  0
  1 30  1  0
  1 31  1  0
  5 32  1  0
  5 33  1  0
  9 34  1  0
  9 35  1  0
  9 36  1  0
 10 37  1  0
 10 38  1  0
 10 39  1  0
 16 40  1  0
 16 41  1  0
 18 42  1  0
 20 43  1  0
 21 44  1  0
 27 45  1  0
M  END
>  <UniqueID>  (3) 
3

>  <SMILES>  (3) 
CC(=O)N(CC(=O)N(C)C)C(=O)n1c(C(N)=O)cc2ccc(C(F)(F)F)cc21

>  <Energy>  (3) 
83.87636039917989

>  <Genealogy>  (3) 
CC(=O)N(CC(=O)N(C)C)C(=O)n1c(C(N)=O)cc2ccc(C(F)(F)F)cc21 (3D coordinates assigned)
CC(=O)N(CC(=O)N(C)C)C(=O)n1c(C(N)=O)cc2ccc(C(F)(F)F)cc21 (optimized conformer: 83.87636039917989 kcal/mol)

>  <smiles>  (3) 
CC(=O)N(CC(=O)N(C)C)C(=O)n1c(C(N)=O)cc2ccc(C(F)(F)F)cc21

>  <score_type>  (3) 
oracle

>  <origin>  (3) 
adg

>  <m_score__min__energy>  (3) 
-6.2999999999999998

>  <m_primary>  (3) 
energy

$$$$
4:0
     RDKit          3D

 39 40  0  0  1  0  0  0  0  0999 V2000
  149.2560  157.1530  132.4000 N   0  0  0  0  0  0  0  0  0  0  0  0
  148.6860  158.5010  132.3630 C   0  0  0  0  0  0  0  0  0  0  0  0
  149.5050  159.3460  131.9510 O   0  0  0  0  0  0  0  0  0  0  0  0
  147.3190  158.7080  132.7800 C   0  0  0  0  0  0  0  0  0  0  0  0
  146.8450  160.0060  133.0270 C   0  0  0  0  0  0  0  0  0  0  0  0
  145.5420  159.9330  133.4070 C   0  0  0  0  0  0  0  0  0  0  0  0
  144.6580  160.9390  133.7280 C   0  0  0  0  0  0  0  0  0  0  0  0
  143.3550  160.6450  134.0580 C   0  0  0  0  0  0  0  0  0  0  0  0
  142.9900  159.3200  134.0510 C   0  0  0  0  0  0  0  0  0  0  0  0
  141.5790  159.0070  134.4070 C   0  0  0  0  0  0  0  0  0  0  0  0
  141.2990  157.6680  134.2870 F   0  0  0  0  0  0  0  0  0  0  0  0
  140.7660  159.7100  133.5450 F   0  0  0  0  0  0  0  0  0  0  0  0
  141.2630  159.3930  135.6810 F   0  0  0  0  0  0  0  0  0  0  0  0
  143.9020  158.3130  133.7230 C   0  0  0  0  0  0  0  0  0  0  0  0
  145.2150  158.5950  133.3940 C   0  0  0  0  0  0  0  0  0  0  0  0
  146.2860  157.8350  133.0160 N   0  0  0  0  0  0  0  0  0  0  0  0
  146.4190  156.4520  132.9840 C   0  0  0  0  0  0  0  0  0  0  0  0
  146.9150  155.9760  131.8790 O   0  0  0  0  0  0  0  0  0  0  0  0
  146.1260  155.4230  133.9390 C   0  0  0  0  0  0  0  0  0  0  0  0
  146.8750  154.5980  134.4830 O   0  0  0  0  0  0  0  0  0  0  0  0
  144.7290  155.2960  134.3610 N   0  0  0  0  0  0  0  0  0  0  0  0
  144.3610  155.6240  135.6160 F   0  0  0  0  0  0  0  0  0  0  0  0
  143.7350  154.8320  133.4770 C   0  0  0  0  0  0  0  0  0  0  0  0
  142.5070  155.0460  133.7350 O   0  0  0  0  0  0  0  0  0  0  0  0
  144.0530  154.1000  132.2530 C   0  0  1  0  0  0  0  0  0  0  0  0
  144.7750  154.8350  131.2600 N   0  0  0  0  0  0  0  0  0  0  0  0
  144.8850  152.9000  132.6130 C   0  0  0  0  0  0  0  0  0  0  0  0
  144.3380  151.8360  133.0500 O   0  0  0  0  0  0  0  0  0  0  0  0
  146.2650  152.8950  132.4860 O   0  0  0  0  0  0  0  0  0  0  0  0
  149.8860  156.9130  133.1960 H   0  0  0  0  0  0  0  0  0  0  0  0
  149.0160  156.4780  131.6320 H   0  0  0  0  0  0  0  0  0  0  0  0
  147.4321  160.9310  132.9290 H   0  0  0  0  0  0  0  0  0  0  0  0
  144.9962  161.9857  133.7205 H   0  0  0  0  0  0  0  0  0  0  0  0
  142.6362  161.4366  134.3164 H   0  0  0  0  0  0  0  0  0  0  0  0
  143.5654  157.2658  133.7267 H   0  0  0  0  0  0  0  0  0  0  0  0
  143.0786  153.8487  131.8087 H   0  0  0  0  0  0  0  0  0  0  0  0
  145.6830  154.4250  131.0080 H   0  0  0  0  0  0  0  0  0  0  0  0
  144.7390  155.8530  131.3670 H   0  0  0  0  0  0  0  0  0  0  0  0
  146.7320  153.7600  132.2640 H   0  0  0  0  0  0  0  0  0  0  0  0
  1  2  1  0
  2  3  2  0
  2  4  1  0
  4  5  2  0
  5  6  1  0
  6  7  2  0
  7  8  1  0
  8  9  2  0
  9 10  1  0
 10 11  1  0
 10 12  1  0
 10 13  1  0
  9 14  1  0
 14 15  2  0
 15 16  1  0
 16 17  1  0
 17 18  2  0
 17 19  1  0
 19 20  2  0
 19 21  1  0
 21 22  1  0
 21 23  1  0
 23 24  2  0
 23 25  1  0
 25 26  1  0
 25 27  1  0
 27 28  2  0
 27 29  1  0
 16  4  1  0
 15  6  1  0
  1 30  1  0
  1 31  1  0
  5 32  1  0
  7 33  1  0
  8 34  1  0
 14 35  1  0
 25 36  1  6
 26 37  1  0
 26 38  1  0
 29 39  1  0
M  END
>  <smiles>  (4) 
NC(=O)c1cc2ccc(C(F)(F)F)cc2n1C(=O)C(=O)N(F)C(=O)C(N)C(=O)O

>  <score_type>  (4) 
oracle

>  <origin>  (4) 
adg

>  <m_score__min__energy>  (4) 
-7.1600000000000001

>  <m_primary>  (4) 
energy

$$$$
5:0
     RDKit          3D

 42 43  0  0  0  0  0  0  0  0999 V2000
  144.0290  160.5870  134.0650 C   0  0  0  0  0  0  0  0  0  0  0  0
  143.2310  159.3590  134.0980 N   0  0  0  0  0  0  0  0  0  0  0  0
  143.6960  158.2010  133.3790 C   0  0  0  0  0  0  0  0  0  0  0  0
  143.0050  157.7270  132.4360 O   0  0  0  0  0  0  0  0  0  0  0  0
  144.9410  157.5710  133.7230 N   0  0  0  0  0  0  0  0  0  0  0  0
  145.1330  156.4070  134.4040 C   0  0  0  0  0  0  0  0  0  0  0  0
  144.0800  155.5900  135.0410 C   0  0  0  0  0  0  0  0  0  0  0  0
  142.7010  155.8990  134.8610 N   0  0  0  0  0  0  0  0  0  0  0  0
  144.4030  154.6240  135.7830 O   0  0  0  0  0  0  0  0  0  0  0  0
  146.4910  156.1000  134.4670 C   0  0  0  0  0  0  0  0  0  0  0  0
  147.1300  157.1250  133.8070 C   0  0  0  0  0  0  0  0  0  0  0  0
  148.4830  157.3260  133.5540 C   0  0  0  0  0  0  0  0  0  0  0  0
  148.8540  158.4640  132.8180 C   0  0  0  0  0  0  0  0  0  0  0  0
  147.8700  159.3650  132.3380 C   0  0  0  0  0  0  0  0  0  0  0  0
  148.2810  160.5880  131.5720 C   0  0  0  0  0  0  0  0  0  0  0  0
  148.9610  160.1100  129.9980 Cl  0  0  0  0  0  0  0  0  0  0  0  0
  146.5070  159.1360  132.6260 C   0  0  0  0  0  0  0  0  0  0  0  0
  146.1710  158.0020  133.3720 C   0  0  0  0  0  0  0  0  0  0  0  0
  141.9340  159.3760  134.7240 C   0  0  0  0  0  0  0  0  0  0  0  0
  141.4530  160.4770  135.1120 O   0  0  0  0  0  0  0  0  0  0  0  0
  141.1370  158.1680  134.8120 N   0  0  1  0  0  0  0  0  0  0  0  0
  140.8580  157.8420  136.2220 C   0  0  0  0  0  0  0  0  0  0  0  0
  139.8730  158.3240  134.0630 C   0  0  0  0  0  0  0  0  0  0  0  0
  139.7740  157.3330  132.9380 C   0  0  0  0  0  0  0  0  0  0  0  0
  140.4160  156.2500  132.9890 O   0  0  0  0  0  0  0  0  0  0  0  0
  138.9490  157.5940  131.8520 O   0  0  0  0  0  0  0  0  0  0  0  0
  144.2415  160.9140  135.0936 H   0  0  0  0  0  0  0  0  0  0  0  0
  144.9755  160.3952  133.5383 H   0  0  0  0  0  0  0  0  0  0  0  0
  143.4693  161.3740  133.5383 H   0  0  0  0  0  0  0  0  0  0  0  0
  142.3580  156.3260  133.9720 H   0  0  0  0  0  0  0  0  0  0  0  0
  146.9544  155.2235  134.9436 H   0  0  0  0  0  0  0  0  0  0  0  0
  149.2395  156.6157  133.9190 H   0  0  0  0  0  0  0  0  0  0  0  0
  149.9171  158.6576  132.6124 H   0  0  0  0  0  0  0  0  0  0  0  0
  147.4030  161.2308  131.4109 H   0  0  0  0  0  0  0  0  0  0  0  0
  149.0416  161.1383  132.1453 H   0  0  0  0  0  0  0  0  0  0  0  0
  145.7305  159.8307  132.2732 H   0  0  0  0  0  0  0  0  0  0  0  0
  141.6600  157.3600  134.4040 H   0  0  0  0  0  0  0  0  0  0  0  0
  141.4337  158.5147  136.8747 H   0  0  0  0  0  0  0  0  0  0  0  0
  139.7837  157.9680  136.4218 H   0  0  0  0  0  0  0  0  0  0  0  0
  141.1484  156.8000  136.4218 H   0  0  0  0  0  0  0  0  0  0  0  0
  139.0285  158.1696  134.7508 H   0  0  0  0  0  0  0  0  0  0  0  0
  139.8485  159.3367  133.6342 H   0  0  0  0  0  0  0  0  0  0  0  0
  1  2  1  0
  2  3  1  0
  3  4  2  0
  3  5  1  0
  5  6  1  0
  6  7  1  0
  7  8  1  0
  7  9  2  0
  6 10  2  0
 10 11  1  0
 11 12  2  0
 12 13  1  0
 13 14  2  0
 14 15  1  0
 15 16  1  0
 14 17  1  0
 17 18  2  0
  2 19  1  0
 19 20  2  0
 19 21  1  0
 21 22  1  0
 21 23  1  0
 23 24  1  0
 24 25  2  0
 24 26  1  0
 18  5  1  0
 18 11  1  0
  1 27  1  0
  1 28  1  0
  1 29  1  0
  8 30  1  0
 10 31  1  0
 12 32  1  0
 13 33  1  0
 15 34  1  0
 15 35  1  0
 17 36  1  0
 21 37  1  6
 22 38  1  0
 22 39  1  0
 22 40  1  0
 23 41  1  0
 23 42  1  0
M  CHG  3   8  -1  21   1  26  -1
M  END
>  <UniqueID>  (5) 
4

>  <SMILES>  (5) 
CN(C(=O)n1c(C([NH-])=O)cc2ccc(CCl)cc21)C(=O)[N@@H+](C)CC(=O)[O-]

>  <Energy>  (5) 
83.25359815287965

>  <Genealogy>  (5) 
CN(C(=O)n1c(C([NH-])=O)cc2ccc(CCl)cc21)C(=O)[NH+](C)CC(=O)[O-] (protonated)
CN(C(=O)n1c(C([NH-])=O)cc2ccc(CCl)cc21)C(=O)[N@@H+](C)CC(=O)[O-] (chirality)
CN(C(=O)n1c(C([NH-])=O)cc2ccc(CCl)cc21)C(=O)[N@@H+](C)CC(=O)[O-] (3D coordinates assigned)
CN(C(=O)n1c(C([NH-])=O)cc2ccc(CCl)cc21)C(=O)[N@@H+](C)CC(=O)[O-] (optimized conformer: 83.25359815287965 kcal/mol)

>  <smiles>  (5) 
CN(CC(=O)O)C(=O)N(C)C(=O)n1c(C(N)=O)cc2ccc(CCl)cc21

>  <score_type>  (5) 
oracle

>  <origin>  (5) 
adg

>  <m_score__min__energy>  (5) 
-5.4100000000000001

>  <m_primary>  (5) 
energy

$$$$
6:0
     RDKit          3D

 44 45  0  0  0  0  0  0  0  0999 V2000
  144.6840  152.7190  138.9530 C   0  0  0  0  0  0  0  0  0  0  0  0
  145.9520  152.6690  138.2150 N   0  0  0  0  0  0  0  0  0  0  0  0
  147.0840  151.9070  138.7520 C   0  0  0  0  0  0  0  0  0  0  0  0
  146.1080  153.3680  136.9610 C   0  0  0  0  0  0  0  0  0  0  0  0
  147.2240  153.3530  136.3710 O   0  0  0  0  0  0  0  0  0  0  0  0
  144.9660  154.1030  136.3130 C   0  0  0  0  0  0  0  0  0  0  0  0
  145.4540  155.1190  135.4410 O   0  0  0  0  0  0  0  0  0  0  0  0
  145.7770  154.8910  134.0970 C   0  0  0  0  0  0  0  0  0  0  0  0
  145.1760  153.9980  133.4420 O   0  0  0  0  0  0  0  0  0  0  0  0
  146.7940  155.6850  133.4680 N   0  0  0  0  0  0  0  0  0  0  0  0
  148.0200  155.2670  133.0410 C   0  0  0  0  0  0  0  0  0  0  0  0
  148.4830  153.8660  132.9840 C   0  0  0  0  0  0  0  0  0  0  0  0
  147.8320  152.8380  133.7340 N   0  0  0  0  0  0  0  0  0  0  0  0
  149.4360  153.5610  132.2190 O   0  0  0  0  0  0  0  0  0  0  0  0
  148.7880  156.3470  132.6180 C   0  0  0  0  0  0  0  0  0  0  0  0
  147.9860  157.4520  132.7900 C   0  0  0  0  0  0  0  0  0  0  0  0
  148.2530  158.7930  132.5490 C   0  0  0  0  0  0  0  0  0  0  0  0
  147.2580  159.7330  132.8620 C   0  0  0  0  0  0  0  0  0  0  0  0
  146.0140  159.3250  133.4220 C   0  0  0  0  0  0  0  0  0  0  0  0
  144.9970  160.3070  133.7580 N   0  0  0  0  0  0  0  0  0  0  0  0
  143.5750  159.9410  133.7490 C   0  0  0  0  0  0  0  0  0  0  0  0
  145.3740  161.6800  134.1100 C   0  0  0  0  0  0  0  0  0  0  0  0
  145.7880  157.9420  133.6510 C   0  0  0  0  0  0  0  0  0  0  0  0
  146.7900  157.0280  133.3070 C   0  0  0  0  0  0  0  0  0  0  0  0
  144.8883  152.7109  140.0338 H   0  0  0  0  0  0  0  0  0  0  0  0
  144.1422  153.6392  138.6891 H   0  0  0  0  0  0  0  0  0  0  0  0
  144.0714  151.8443  138.6891 H   0  0  0  0  0  0  0  0  0  0  0  0
  147.0520  151.9285  139.8513 H   0  0  0  0  0  0  0  0  0  0  0  0
  147.0230  150.8654  138.4037 H   0  0  0  0  0  0  0  0  0  0  0  0
  148.0261  152.3555  138.4037 H   0  0  0  0  0  0  0  0  0  0  0  0
  144.3595  153.3907  135.7345 H   0  0  0  0  0  0  0  0  0  0  0  0
  144.3554  154.5727  137.0982 H   0  0  0  0  0  0  0  0  0  0  0  0
  148.2000  151.8620  133.7130 H   0  0  0  0  0  0  0  0  0  0  0  0
  146.9400  153.0250  134.2420 H   0  0  0  0  0  0  0  0  0  0  0  0
  149.8167  156.3229  132.2291 H   0  0  0  0  0  0  0  0  0  0  0  0
  149.2171  159.1102  132.1247 H   0  0  0  0  0  0  0  0  0  0  0  0
  147.4423  160.8006  132.6717 H   0  0  0  0  0  0  0  0  0  0  0  0
  143.2138  159.8480  134.7838 H   0  0  0  0  0  0  0  0  0  0  0  0
  142.9991  160.7202  133.2282 H   0  0  0  0  0  0  0  0  0  0  0  0
  143.4469  158.9806  133.2282 H   0  0  0  0  0  0  0  0  0  0  0  0
  145.4023  161.7832  135.2048 H   0  0  0  0  0  0  0  0  0  0  0  0
  146.3673  161.9054  133.6946 H   0  0  0  0  0  0  0  0  0  0  0  0
  144.6351  162.3811  133.6946 H   0  0  0  0  0  0  0  0  0  0  0  0
  144.8415  157.5952  134.0913 H   0  0  0  0  0  0  0  0  0  0  0  0
  1  2  1  0
  2  3  1  0
  2  4  1  0
  4  5  2  0
  4  6  1  0
  6  7  1  0
  7  8  1  0
  8  9  2  0
  8 10  1  0
 10 11  1  0
 11 12  1  0
 12 13  1  0
 12 14  2  0
 11 15  2  0
 15 16  1  0
 16 17  2  0
 17 18  1  0
 18 19  2  0
 19 20  1  0
 20 21  1  0
 20 22  1  0
 19 23  1  0
 23 24  2  0
 24 10  1  0
 24 16  1  0
  1 25  1  0
  1 26  1  0
  1 27  1  0
  3 28  1  0
  3 29  1  0
  3 30  1  0
  6 31  1  0
  6 32  1  0
 13 33  1  0
 13 34  1  0
 15 35  1  0
 17 36  1  0
 18 37  1  0
 21 38  1  0
 21 39  1  0
 21 40  1  0
 22 41  1  0
 22 42  1  0
 22 43  1  0
 23 44  1  0
M  END
>  <UniqueID>  (6) 
5

>  <SMILES>  (6) 
CN(C)C(=O)COC(=O)n1c(C(N)=O)cc2ccc(N(C)C)cc21

>  <Energy>  (6) 
79.32389951256081

>  <Genealogy>  (6) 
CN(C)C(=O)COC(=O)n1c(C(N)=O)cc2ccc(N(C)C)cc21 (3D coordinates assigned)
CN(C)C(=O)COC(=O)n1c(C(N)=O)cc2ccc(N(C)C)cc21 (optimized conformer: 79.32389951256081 kcal/mol)

>  <smiles>  (6) 
CN(C)C(=O)COC(=O)n1c(C(N)=O)cc2ccc(N(C)C)cc21

>  <score_type>  (6) 
oracle

>  <origin>  (6) 
adg

>  <m_score__min__energy>  (6) 
-6.5899999999999999

>  <m_primary>  (6) 
energy

$$$$
7:0
     RDKit          3D

 38 40  0  0  0  0  0  0  0  0999 V2000
  148.2690  155.0480  132.7030 C   0  0  0  0  0  0  0  0  0  0  0  0
  147.9910  156.5180  132.7900 C   0  0  0  0  0  0  0  0  0  0  0  0
  149.0380  157.4540  132.5990 C   0  0  0  0  0  0  0  0  0  0  0  0
  148.7990  158.8320  132.7360 C   0  0  0  0  0  0  0  0  0  0  0  0
  147.5120  159.2410  133.0790 C   0  0  0  0  0  0  0  0  0  0  0  0
  147.0110  160.5040  133.3080 C   0  0  0  0  0  0  0  0  0  0  0  0
  145.6670  160.3180  133.6310 C   0  0  0  0  0  0  0  0  0  0  0  0
  144.7260  161.4310  133.8840 C   0  0  0  0  0  0  0  0  0  0  0  0
  145.1910  162.7070  134.3160 N   0  0  0  0  0  0  0  0  0  0  0  0
  143.4880  161.2400  133.7510 O   0  0  0  0  0  0  0  0  0  0  0  0
  145.3550  158.9920  133.6060 N   0  0  0  0  0  0  0  0  0  0  0  0
  144.0930  158.3740  133.8930 C   0  0  0  0  0  0  0  0  0  0  0  0
  143.9940  157.5690  134.8590 O   0  0  0  0  0  0  0  0  0  0  0  0
  142.9450  158.7080  133.1000 N   0  0  0  0  0  0  0  0  0  0  0  0
  141.6700  158.0560  133.2370 C   0  0  0  0  0  0  0  0  0  0  0  0
  140.5140  158.8220  133.4580 C   0  0  0  0  0  0  0  0  0  0  0  0
  139.2830  158.2040  133.6500 C   0  0  0  0  0  0  0  0  0  0  0  0
  139.1850  156.8150  133.6250 C   0  0  0  0  0  0  0  0  0  0  0  0
  140.3210  156.0140  133.4000 C   0  0  0  0  0  0  0  0  0  0  0  0
  140.1420  154.5400  133.3640 C   0  0  0  0  0  0  0  0  0  0  0  0
  139.1300  154.0160  132.8300 O   0  0  0  0  0  0  0  0  0  0  0  0
  141.0900  153.7080  133.9480 O   0  0  0  0  0  0  0  0  0  0  0  0
  141.5800  156.6460  133.2180 C   0  0  0  0  0  0  0  0  0  0  0  0
  143.0590  155.7050  132.9810 Cl  0  0  0  0  0  0  0  0  0  0  0  0
  146.4900  158.3480  133.2620 C   0  0  0  0  0  0  0  0  0  0  0  0
  146.6990  156.9710  133.1400 C   0  0  0  0  0  0  0  0  0  0  0  0
  148.3482  154.6292  133.7171 H   0  0  0  0  0  0  0  0  0  0  0  0
  147.4489  154.5510  132.1640 H   0  0  0  0  0  0  0  0  0  0  0  0
  149.2139  154.8848  132.1640 H   0  0  0  0  0  0  0  0  0  0  0  0
  150.0466  157.0986  132.3412 H   0  0  0  0  0  0  0  0  0  0  0  0
  149.6034  159.5653  132.5773 H   0  0  0  0  0  0  0  0  0  0  0  0
  147.5560  161.4577  133.2486 H   0  0  0  0  0  0  0  0  0  0  0  0
  145.9200  163.2250  133.7780 H   0  0  0  0  0  0  0  0  0  0  0  0
  143.0280  159.5320  132.4660 H   0  0  0  0  0  0  0  0  0  0  0  0
  140.5827  159.9197  133.4794 H   0  0  0  0  0  0  0  0  0  0  0  0
  138.3840  158.8141  133.8221 H   0  0  0  0  0  0  0  0  0  0  0  0
  138.2069  156.3372  133.7832 H   0  0  0  0  0  0  0  0  0  0  0  0
  145.8788  156.2585  133.3121 H   0  0  0  0  0  0  0  0  0  0  0  0
  1  2  1  0
  2  3  2  0
  3  4  1  0
  4  5  2  0
  5  6  1  0
  6  7  2  0
  7  8  1  0
  8  9  1  0
  8 10  2  0
  7 11  1  0
 11 12  1  0
 12 13  2  0
 12 14  1  0
 14 15  1  0
 15 16  2  0
 16 17  1  0
 17 18  2  0
 18 19  1  0
 19 20  1  0
 20 21  2  0
 20 22  1  0
 19 23  2  0
 23 24  1  0
 11 25  1  0
 25 26  2  0
 26  2  1  0
 25  5  1  0
 23 15  1  0
  1 27  1  0
  1 28  1  0
  1 29  1  0
  3 30  1  0
  4 31  1  0
  6 32  1  0
  9 33  1  0
 14 34  1  0
 16 35  1  0
 17 36  1  0
 18 37  1  0
 26 38  1  0
M  CHG  2   9  -1  22  -1
M  END
>  <UniqueID>  (7) 
6

>  <SMILES>  (7) 
Cc1ccc2cc(C([NH-])=O)n(C(=O)Nc3cccc(C(=O)[O-])c3Cl)c2c1

>  <Energy>  (7) 
89.0842914714594

>  <Genealogy>  (7) 
Cc1ccc2cc(C([NH-])=O)n(C(=O)Nc3cccc(C(=O)[O-])c3Cl)c2c1 (protonated)
Cc1ccc2cc(C([NH-])=O)n(C(=O)Nc3cccc(C(=O)[O-])c3Cl)c2c1 (3D coordinates assigned)
Cc1ccc2cc(C([NH-])=O)n(C(=O)Nc3cccc(C(=O)[O-])c3Cl)c2c1 (optimized conformer: 89.0842914714594 kcal/mol)

>  <smiles>  (7) 
Cc1ccc2cc(C(N)=O)n(C(=O)Nc3cccc(C(=O)O)c3Cl)c2c1

>  <score_type>  (7) 
oracle

>  <origin>  (7) 
adg

>  <m_score__min__energy>  (7) 
-8.3699999999999992

>  <m_primary>  (7) 
energy

$$$$
8:0
     RDKit          3D

 47 48  0  0  0  0  0  0  0  0999 V2000
  139.9330  157.6590  134.6520 C   0  0  0  0  0  0  0  0  0  0  0  0
  140.8670  156.8730  133.7330 C   0  0  2  0  0  0  0  0  0  0  0  0
  140.8520  155.4540  134.0880 N   0  0  0  0  0  0  0  0  0  0  0  0
  141.1550  154.3670  133.2000 C   0  0  0  0  0  0  0  0  0  0  0  0
  140.2050  153.7410  132.6590 O   0  0  0  0  0  0  0  0  0  0  0  0
  142.5670  153.9190  132.9450 C   0  0  0  0  0  0  0  0  0  0  0  0
  143.5170  154.8020  133.6200 N   0  0  0  0  0  0  0  0  0  0  0  0
  144.9190  154.5000  133.6530 C   0  0  0  0  0  0  0  0  0  0  0  0
  145.3590  153.4900  133.0390 O   0  0  0  0  0  0  0  0  0  0  0  0
  145.8570  155.3610  134.3910 C   0  0  0  0  0  0  0  0  0  0  0  0
  145.7730  155.4620  135.6440 O   0  0  0  0  0  0  0  0  0  0  0  0
  146.8640  156.1010  133.6850 N   0  0  0  0  0  0  0  0  0  0  0  0
  148.0410  155.6400  133.1790 C   0  0  0  0  0  0  0  0  0  0  0  0
  148.4980  154.2340  133.1890 C   0  0  0  0  0  0  0  0  0  0  0  0
  148.0780  153.3300  134.2080 N   0  0  0  0  0  0  0  0  0  0  0  0
  149.2580  153.8190  132.2730 O   0  0  0  0  0  0  0  0  0  0  0  0
  148.7610  156.6850  132.5990 C   0  0  0  0  0  0  0  0  0  0  0  0
  147.9800  157.8060  132.7740 C   0  0  0  0  0  0  0  0  0  0  0  0
  148.2130  159.1280  132.4100 C   0  0  0  0  0  0  0  0  0  0  0  0
  147.2440  160.0880  132.7530 C   0  0  0  0  0  0  0  0  0  0  0  0
  146.0600  159.7240  133.4600 C   0  0  0  0  0  0  0  0  0  0  0  0
  145.0690  160.7260  133.8250 N   0  0  0  0  0  0  0  0  0  0  0  0
  145.4890  162.0480  134.3090 C   0  0  0  0  0  0  0  0  0  0  0  0
  143.6310  160.4290  133.7270 C   0  0  0  0  0  0  0  0  0  0  0  0
  145.8700  158.3590  133.8070 C   0  0  0  0  0  0  0  0  0  0  0  0
  146.8440  157.4270  133.4350 C   0  0  0  0  0  0  0  0  0  0  0  0
  142.2650  157.4000  133.8630 C   0  0  0  0  0  0  0  0  0  0  0  0
  142.7380  157.6680  135.0020 O   0  0  0  0  0  0  0  0  0  0  0  0
  143.0660  157.5510  132.7340 O   0  0  0  0  0  0  0  0  0  0  0  0
  140.1861  157.4460  135.7011 H   0  0  0  0  0  0  0  0  0  0  0  0
  140.0485  158.7356  134.4583 H   0  0  0  0  0  0  0  0  0  0  0  0
  138.8919  157.3612  134.4583 H   0  0  0  0  0  0  0  0  0  0  0  0
  140.5207  156.9892  132.6954 H   0  0  0  0  0  0  0  0  0  0  0  0
  142.6949  152.8939  133.3230 H   0  0  0  0  0  0  0  0  0  0  0  0
  142.7595  153.9522  131.8625 H   0  0  0  0  0  0  0  0  0  0  0  0
  143.1740  155.6760  134.0840 H   0  0  0  0  0  0  0  0  0  0  0  0
  147.0930  152.9830  134.2430 H   0  0  0  0  0  0  0  0  0  0  0  0
  149.7430  156.6261  132.1069 H   0  0  0  0  0  0  0  0  0  0  0  0
  149.1277  159.4142  131.8701 H   0  0  0  0  0  0  0  0  0  0  0  0
  147.4023  161.1393  132.4707 H   0  0  0  0  0  0  0  0  0  0  0  0
  145.4904  162.0523  135.4090 H   0  0  0  0  0  0  0  0  0  0  0  0
  146.5015  162.2688  133.9402 H   0  0  0  0  0  0  0  0  0  0  0  0
  144.7896  162.8127  133.9402 H   0  0  0  0  0  0  0  0  0  0  0  0
  143.2051  160.3410  134.7374 H   0  0  0  0  0  0  0  0  0  0  0  0
  143.1249  161.2416  133.1852 H   0  0  0  0  0  0  0  0  0  0  0  0
  143.4882  159.4824  133.1852 H   0  0  0  0  0  0  0  0  0  0  0  0
  144.9728  158.0412  134.3584 H   0  0  0  0  0  0  0  0  0  0  0  0
  1  2  1  0
  2  3  1  0
  3  4  1  0
  4  5  2  0
  4  6  1  0
  6  7  1  0
  7  8  1  0
  8  9  2  0
  8 10  1  0
 10 11  2  0
 10 12  1  0
 12 13  1  0
 13 14  1  0
 14 15  1  0
 14 16  2  0
 13 17  2  0
 17 18  1  0
 18 19  2  0
 19 20  1  0
 20 21  2  0
 21 22  1  0
 22 23  1  0
 22 24  1  0
 21 25  1  0
 25 26  2  0
  2 27  1  0
 27 28  2  0
 27 29  1  0
 26 12  1  0
 26 18  1  0
  1 30  1  0
  1 31  1  0
  1 32  1  0
  2 33  1  6
  6 34  1  0
  6 35  1  0
  7 36  1  0
 15 37  1  0
 17 38  1  0
 19 39  1  0
 20 40  1  0
 23 41  1  0
 23 42  1  0
 23 43  1  0
 24 44  1  0
 24 45  1  0
 24 46  1  0
 25 47  1  0
M  CHG  3   3  -1  15  -1  29  -1
M  END
>  <UniqueID>  (8) 
7

>  <SMILES>  (8) 
C[C@H]([N-]C(=O)CNC(=O)C(=O)n1c(C([NH-])=O)cc2ccc(N(C)C)cc21)C(=O)[O-]

>  <Energy>  (8) 
80.26493668017056

>  <Genealogy>  (8) 
CC([N-]C(=O)CNC(=O)C(=O)n1c(C([NH-])=O)cc2ccc(N(C)C)cc21)C(=O)[O-] (protonated)
C[C@H]([N-]C(=O)CNC(=O)C(=O)n1c(C([NH-])=O)cc2ccc(N(C)C)cc21)C(=O)[O-] (chirality)
C[C@H]([N-]C(=O)CNC(=O)C(=O)n1c(C([NH-])=O)cc2ccc(N(C)C)cc21)C(=O)[O-] (3D coordinates assigned)
C[C@H]([N-]C(=O)CNC(=O)C(=O)n1c(C([NH-])=O)cc2ccc(N(C)C)cc21)C(=O)[O-] (optimized conformer: 80.26493668017056 kcal/mol)

>  <smiles>  (8) 
CC(NC(=O)CNC(=O)C(=O)n1c(C(N)=O)cc2ccc(N(C)C)cc21)C(=O)O

>  <score_type>  (8) 
oracle

>  <origin>  (8) 
adg

>  <m_score__min__energy>  (8) 
-8

>  <m_primary>  (8) 
energy

$$$$
9:0
     RDKit          3D

 43 45  0  0  0  0  0  0  0  0999 V2000
  143.9990  160.6630  133.7000 N   0  0  0  0  0  0  0  0  0  0  0  0
  145.4160  160.5270  133.7860 C   0  0  0  0  0  0  0  0  0  0  0  0
  146.1140  161.5240  134.1110 O   0  0  0  0  0  0  0  0  0  0  0  0
  146.0530  159.2320  133.4670 C   0  0  0  0  0  0  0  0  0  0  0  0
  147.4030  159.0880  133.1520 C   0  0  0  0  0  0  0  0  0  0  0  0
  147.6010  157.7320  133.0080 C   0  0  0  0  0  0  0  0  0  0  0  0
  148.7570  157.0220  132.7010 C   0  0  0  0  0  0  0  0  0  0  0  0
  148.6640  155.6230  132.6070 C   0  0  0  0  0  0  0  0  0  0  0  0
  147.4210  154.9600  132.7980 C   0  0  0  0  0  0  0  0  0  0  0  0
  147.3430  153.5170  132.7200 N   0  0  0  0  0  0  0  0  0  0  0  0
  148.6400  152.8000  132.7650 C   0  0  1  0  0  0  0  0  0  0  0  0
  149.0100  152.2070  134.0970 C   0  0  0  0  0  0  0  0  0  0  0  0
  149.9770  151.1060  133.6950 C   0  0  0  0  0  0  0  0  0  0  0  0
  149.7850  150.7750  132.3340 O   0  0  0  0  0  0  0  0  0  0  0  0
  148.7600  151.6020  131.8370 C   0  0  0  0  0  0  0  0  0  0  0  0
  146.2770  155.7200  133.1380 C   0  0  0  0  0  0  0  0  0  0  0  0
  146.4020  157.1100  133.2310 C   0  0  0  0  0  0  0  0  0  0  0  0
  145.4420  158.0150  133.5060 N   0  0  0  0  0  0  0  0  0  0  0  0
  144.0560  157.7250  133.7500 C   0  0  0  0  0  0  0  0  0  0  0  0
  143.5150  158.1300  134.8130 O   0  0  0  0  0  0  0  0  0  0  0  0
  143.2750  156.9220  132.8000 C   0  0  0  0  0  0  0  0  0  0  0  0
  142.2920  157.4350  132.1990 O   0  0  0  0  0  0  0  0  0  0  0  0
  143.6390  155.5930  132.5600 O   0  0  0  0  0  0  0  0  0  0  0  0
  143.2380  154.5230  133.4080 C   0  0  0  0  0  0  0  0  0  0  0  0
  144.3750  153.5720  133.5720 C   0  0  0  0  0  0  0  0  0  0  0  0
  144.9480  153.4580  134.6880 O   0  0  0  0  0  0  0  0  0  0  0  0
  144.8400  152.8490  132.4820 O   0  0  0  0  0  0  0  0  0  0  0  0
  143.3940  159.8400  133.4870 H   0  0  0  0  0  0  0  0  0  0  0  0
  148.1512  159.8868  133.0418 H   0  0  0  0  0  0  0  0  0  0  0  0
  149.7138  157.5393  132.5370 H   0  0  0  0  0  0  0  0  0  0  0  0
  149.5649  155.0331  132.3826 H   0  0  0  0  0  0  0  0  0  0  0  0
  146.7450  153.1630  133.5040 H   0  0  0  0  0  0  0  0  0  0  0  0
  146.8490  153.2470  131.8370 H   0  0  0  0  0  0  0  0  0  0  0  0
  149.2959  153.6335  132.4732 H   0  0  0  0  0  0  0  0  0  0  0  0
  149.4979  152.9509  134.7440 H   0  0  0  0  0  0  0  0  0  0  0  0
  148.1473  151.8492  134.6782 H   0  0  0  0  0  0  0  0  0  0  0  0
  151.0097  151.4542  133.8442 H   0  0  0  0  0  0  0  0  0  0  0  0
  149.7933  150.2162  134.3152 H   0  0  0  0  0  0  0  0  0  0  0  0
  149.0109  151.9394  130.8206 H   0  0  0  0  0  0  0  0  0  0  0  0
  147.8085  151.0517  131.7942 H   0  0  0  0  0  0  0  0  0  0  0  0
  145.3108  155.2286  133.3250 H   0  0  0  0  0  0  0  0  0  0  0  0
  142.9479  154.9221  134.3912 H   0  0  0  0  0  0  0  0  0  0  0  0
  142.3808  153.9990  132.9601 H   0  0  0  0  0  0  0  0  0  0  0  0
  1  2  1  0
  2  3  2  0
  2  4  1  0
  4  5  2  0
  5  6  1  0
  6  7  2  0
  7  8  1  0
  8  9  2  0
  9 10  1  0
 10 11  1  0
 11 12  1  0
 12 13  1  0
 13 14  1  0
 14 15  1  0
  9 16  1  0
 16 17  2  0
 17 18  1  0
 18 19  1  0
 19 20  2  0
 19 21  1  0
 21 22  2  0
 21 23  1  0
 23 24  1  0
 24 25  1  0
 25 26  2  0
 25 27  1  0
 18  4  1  0
 17  6  1  0
 15 11  1  0
  1 28  1  0
  5 29  1  0
  7 30  1  0
  8 31  1  0
 10 32  1  0
 10 33  1  0
 11 34  1  6
 12 35  1  0
 12 36  1  0
 13 37  1  0
 13 38  1  0
 15 39  1  0
 15 40  1  0
 16 41  1  0
 24 42  1  0
 24 43  1  0
M  CHG  3   1  -1  10   1  27  -1
M  END
>  <UniqueID>  (9) 
8

>  <SMILES>  (9) 
[NH-]C(=O)c1cc2ccc([NH2+][C@H]3CCOC3)cc2n1C(=O)C(=O)OCC(=O)[O-]

>  <Energy>  (9) 
87.65092839339601

>  <Genealogy>  (9) 
[NH-]C(=O)c1cc2ccc([NH2+]C3CCOC3)cc2n1C(=O)C(=O)OCC(=O)[O-] (protonated)
[NH-]C(=O)c1cc2ccc([NH2+][C@H]3CCOC3)cc2n1C(=O)C(=O)OCC(=O)[O-] (chirality)
[NH-]C(=O)c1cc2ccc([NH2+][C@H]3CCOC3)cc2n1C(=O)C(=O)OCC(=O)[O-] (3D coordinates assigned)
[NH-]C(=O)c1cc2ccc([NH2+][C@H]3CCOC3)cc2n1C(=O)C(=O)OCC(=O)[O-] (nonaromatic ring conformer: 87.65092839339601 kcal/mol)

>  <smiles>  (9) 
NC(=O)c1cc2ccc(NC3CCOC3)cc2n1C(=O)C(=O)OCC(=O)O

>  <score_type>  (9) 
oracle

>  <origin>  (9) 
adg

>  <m_score__min__energy>  (9) 
-6.1699999999999999

>  <m_primary>  (9) 
energy

$$$$
10:0
     RDKit          3D

 33 34  0  0  0  0  0  0  0  0999 V2000
  144.3600  154.4540  130.7750 C   0  0  0  0  0  0  0  0  0  0  0  0
  145.0320  154.0790  132.0290 N   0  0  2  0  0  0  0  0  0  0  0  0
  144.6210  152.7620  132.4550 C   0  0  0  0  0  0  0  0  0  0  0  0
  145.2530  151.7670  132.1300 O   0  0  0  0  0  0  0  0  0  0  0  0
  144.7620  155.0390  133.0800 C   0  0  0  0  0  0  0  0  0  0  0  0
  143.5790  155.4210  133.2970 O   0  0  0  0  0  0  0  0  0  0  0  0
  145.8460  155.5520  133.9460 C   0  0  0  0  0  0  0  0  0  0  0  0
  145.8410  155.3100  135.1820 O   0  0  0  0  0  0  0  0  0  0  0  0
  146.9410  156.2910  133.3810 N   0  0  0  0  0  0  0  0  0  0  0  0
  148.1290  155.8120  132.9170 C   0  0  0  0  0  0  0  0  0  0  0  0
  148.4940  154.3860  132.7800 C   0  0  0  0  0  0  0  0  0  0  0  0
  147.4990  153.3670  132.8210 N   0  0  0  0  0  0  0  0  0  0  0  0
  149.6990  154.0650  132.5930 O   0  0  0  0  0  0  0  0  0  0  0  0
  148.9510  156.8630  132.5110 C   0  0  0  0  0  0  0  0  0  0  0  0
  148.2180  158.0070  132.7340 C   0  0  0  0  0  0  0  0  0  0  0  0
  148.5450  159.3420  132.5140 C   0  0  0  0  0  0  0  0  0  0  0  0
  147.5910  160.3180  132.8530 C   0  0  0  0  0  0  0  0  0  0  0  0
  146.3410  159.9430  133.4020 C   0  0  0  0  0  0  0  0  0  0  0  0
  145.3820  160.9460  133.7480 N   0  0  0  0  0  0  0  0  0  0  0  0
  146.0430  158.5810  133.6110 C   0  0  0  0  0  0  0  0  0  0  0  0
  147.0070  157.6320  133.2560 C   0  0  0  0  0  0  0  0  0  0  0  0
  143.4207  154.9782  131.0049 H   0  0  0  0  0  0  0  0  0  0  0  0
  145.0161  155.1164  130.1913 H   0  0  0  0  0  0  0  0  0  0  0  0
  144.1408  153.5478  130.1913 H   0  0  0  0  0  0  0  0  0  0  0  0
  146.0590  154.0460  131.8300 H   0  0  0  0  0  0  0  0  0  0  0  0
  143.7242  152.6519  133.0825 H   0  0  0  0  0  0  0  0  0  0  0  0
  146.9730  153.0950  131.9610 H   0  0  0  0  0  0  0  0  0  0  0  0
  149.9689  156.7929  132.0999 H   0  0  0  0  0  0  0  0  0  0  0  0
  149.5191  159.6247  132.0883 H   0  0  0  0  0  0  0  0  0  0  0  0
  147.8179  161.3820  132.6902 H   0  0  0  0  0  0  0  0  0  0  0  0
  145.2940  161.8180  133.1810 H   0  0  0  0  0  0  0  0  0  0  0  0
  144.7550  160.8230  134.5740 H   0  0  0  0  0  0  0  0  0  0  0  0
  145.0787  158.2731  134.0415 H   0  0  0  0  0  0  0  0  0  0  0  0
  1  2  1  0
  2  3  1  0
  3  4  2  0
  2  5  1  0
  5  6  2  0
  5  7  1  0
  7  8  2  0
  7  9  1  0
  9 10  1  0
 10 11  1  0
 11 12  1  0
 11 13  2  0
 10 14  2  0
 14 15  1  0
 15 16  2  0
 16 17  1  0
 17 18  2  0
 18 19  1  0
 18 20  1  0
 20 21  2  0
 21  9  1  0
 21 15  1  0
  1 22  1  0
  1 23  1  0
  1 24  1  0
  2 25  1  6
  3 26  1  0
 12 27  1  0
 14 28  1  0
 16 29  1  0
 17 30  1  0
 19 31  1  0
 19 32  1  0
 20 33  1  0
M  CHG  2   2   1  12  -1
M  END
>  <UniqueID>  (10) 
9

>  <SMILES>  (10) 
C[NH+](C=O)C(=O)C(=O)n1c(C([NH-])=O)cc2ccc(N)cc21

>  <Energy>  (10) 
74.6295591979321

>  <Genealogy>  (10) 
C[NH+](C=O)C(=O)C(=O)n1c(C([NH-])=O)cc2ccc(N)cc21 (protonated)
C[NH+](C=O)C(=O)C(=O)n1c(C([NH-])=O)cc2ccc(N)cc21 (3D coordinates assigned)
C[NH+](C=O)C(=O)C(=O)n1c(C([NH-])=O)cc2ccc(N)cc21 (optimized conformer: 74.6295591979321 kcal/mol)

>  <smiles>  (10) 
CN(C=O)C(=O)C(=O)n1c(C(N)=O)cc2ccc(N)cc21

>  <score_type>  (10) 
oracle

>  <origin>  (10) 
adg

>  <m_score__min__energy>  (10) 
-5.4000000000000004

>  <m_primary>  (10) 
energy

$$$$
11:0
     RDKit          3D

 41 43  0  0  0  0  0  0  0  0999 V2000
  142.6190  161.2060  133.5920 N   0  0  0  0  0  0  0  0  0  0  0  0
  144.0200  161.4330  133.7320 C   0  0  0  0  0  0  0  0  0  0  0  0
  144.4430  162.6120  133.8720 O   0  0  0  0  0  0  0  0  0  0  0  0
  144.9840  160.3140  133.6620 C   0  0  0  0  0  0  0  0  0  0  0  0
  146.3650  160.4930  133.5870 C   0  0  0  0  0  0  0  0  0  0  0  0
  146.8900  159.2280  133.4470 C   0  0  0  0  0  0  0  0  0  0  0  0
  148.2130  158.8160  133.3250 C   0  0  0  0  0  0  0  0  0  0  0  0
  148.4680  157.4380  133.2150 C   0  0  0  0  0  0  0  0  0  0  0  0
  147.4020  156.4990  133.2520 C   0  0  0  0  0  0  0  0  0  0  0  0
  147.6730  155.0240  133.1030 C   0  0  0  0  0  0  0  0  0  0  0  0
  147.9550  154.4600  134.3370 F   0  0  0  0  0  0  0  0  0  0  0  0
  148.7530  154.7980  132.2660 F   0  0  0  0  0  0  0  0  0  0  0  0
  146.5540  154.4080  132.5700 F   0  0  0  0  0  0  0  0  0  0  0  0
  146.0700  156.9610  133.3540 C   0  0  0  0  0  0  0  0  0  0  0  0
  145.8480  158.3390  133.4460 C   0  0  0  0  0  0  0  0  0  0  0  0
  144.6710  158.9900  133.5790 N   0  0  0  0  0  0  0  0  0  0  0  0
  143.3760  158.3800  133.6750 C   0  0  0  0  0  0  0  0  0  0  0  0
  142.8130  157.9320  132.6370 O   0  0  0  0  0  0  0  0  0  0  0  0
  142.7370  158.3050  134.9170 O   0  0  0  0  0  0  0  0  0  0  0  0
  141.6300  159.1280  135.2810 C   0  0  0  0  0  0  0  0  0  0  0  0
  140.3330  158.4910  134.8790 C   0  0  0  0  0  0  0  0  0  0  0  0
  139.6370  157.8790  135.7320 O   0  0  0  0  0  0  0  0  0  0  0  0
  139.8510  158.6260  133.5430 N   0  0  0  0  0  0  0  0  0  0  0  0
  140.2710  159.2870  132.2940 C   0  0  0  0  0  0  0  0  0  0  0  0
  139.0830  158.8620  131.4840 C   0  0  0  0  0  0  0  0  0  0  0  0
  138.1900  160.0020  131.0720 C   0  0  0  0  0  0  0  0  0  0  0  0
  138.6970  161.1150  130.7780 O   0  0  0  0  0  0  0  0  0  0  0  0
  136.8080  159.8490  131.0380 O   0  0  0  0  0  0  0  0  0  0  0  0
  138.6810  158.1870  132.7610 C   0  0  0  0  0  0  0  0  0  0  0  0
  142.2390  160.2380  133.4960 H   0  0  0  0  0  0  0  0  0  0  0  0
  146.9175  161.4432  133.6305 H   0  0  0  0  0  0  0  0  0  0  0  0
  149.0351  159.5467  133.3149 H   0  0  0  0  0  0  0  0  0  0  0  0
  149.5027  157.0831  133.0992 H   0  0  0  0  0  0  0  0  0  0  0  0
  145.2278  156.2535  133.3609 H   0  0  0  0  0  0  0  0  0  0  0  0
  141.6353  159.2770  136.3709 H   0  0  0  0  0  0  0  0  0  0  0  0
  141.7236  160.0925  134.7603 H   0  0  0  0  0  0  0  0  0  0  0  0
  140.3467  160.3796  132.3962 H   0  0  0  0  0  0  0  0  0  0  0  0
  141.2651  159.0293  131.8998 H   0  0  0  0  0  0  0  0  0  0  0  0
  139.1428  158.3492  130.5127 H   0  0  0  0  0  0  0  0  0  0  0  0
  137.7322  158.5709  133.1641 H   0  0  0  0  0  0  0  0  0  0  0  0
  138.4846  157.1056  132.7165 H   0  0  0  0  0  0  0  0  0  0  0  0
  1  2  1  0
  2  3  2  0
  2  4  1  0
  4  5  2  0
  5  6  1  0
  6  7  2  0
  7  8  1  0
  8  9  2  0
  9 10  1  0
 10 11  1  0
 10 12  1  0
 10 13  1  0
  9 14  1  0
 14 15  2  0
 15 16  1  0
 16 17  1  0
 17 18  2  0
 17 19  1  0
 19 20  1  0
 20 21  1  0
 21 22  2  0
 21 23  1  0
 23 24  1  0
 24 25  1  0
 25 26  1  0
 26 27  2  0
 26 28  1  0
 25 29  1  0
 16  4  1  0
 29 23  1  0
 15  6  1  0
  1 30  1  0
  5 31  1  0
  7 32  1  0
  8 33  1  0
 14 34  1  0
 20 35  1  0
 20 36  1  0
 24 37  1  0
 24 38  1  0
 25 39  1  0
 29 40  1  0
 29 41  1  0
M  CHG  2   1  -1  28  -1
M  END
>  <UniqueID>  (11) 
10

>  <SMILES>  (11) 
[NH-]C(=O)c1cc2ccc(C(F)(F)F)cc2n1C(=O)OCC(=O)N1CC(C(=O)[O-])C1

>  <Energy>  (11) 
124.57631738408082

>  <Genealogy>  (11) 
[NH-]C(=O)c1cc2ccc(C(F)(F)F)cc2n1C(=O)OCC(=O)N1CC(C(=O)[O-])C1 (protonated)
[NH-]C(=O)c1cc2ccc(C(F)(F)F)cc2n1C(=O)OCC(=O)N1CC(C(=O)[O-])C1 (3D coordinates assigned)
[NH-]C(=O)c1cc2ccc(C(F)(F)F)cc2n1C(=O)OCC(=O)N1CC(C(=O)[O-])C1 (nonaromatic ring conformer: 124.57631738408082 kcal/mol)

>  <smiles>  (11) 
NC(=O)c1cc2ccc(C(F)(F)F)cc2n1C(=O)OCC(=O)N1CC(C(=O)O)C1

>  <score_type>  (11) 
oracle

>  <origin>  (11) 
adg

>  <m_score__min__energy>  (11) 
-7.6699999999999999

>  <m_primary>  (11) 
energy

$$$$
12:0
     RDKit          3D

 36 37  0  0  0  0  0  0  0  0999 V2000
  148.8140  155.1070  132.6410 C   0  0  0  0  0  0  0  0  0  0  0  0
  148.1080  156.4260  132.7580 C   0  0  0  0  0  0  0  0  0  0  0  0
  148.8540  157.6310  132.7740 C   0  0  0  0  0  0  0  0  0  0  0  0
  148.2080  158.8700  132.9290 C   0  0  0  0  0  0  0  0  0  0  0  0
  146.8240  158.8710  133.0700 C   0  0  0  0  0  0  0  0  0  0  0  0
  145.9510  159.9180  133.2680 C   0  0  0  0  0  0  0  0  0  0  0  0
  144.6890  159.3330  133.3680 C   0  0  0  0  0  0  0  0  0  0  0  0
  143.4400  160.1020  133.5530 C   0  0  0  0  0  0  0  0  0  0  0  0
  142.1910  159.5970  133.0910 N   0  0  0  0  0  0  0  0  0  0  0  0
  143.4800  161.2350  134.1050 O   0  0  0  0  0  0  0  0  0  0  0  0
  144.7800  157.9800  133.2340 N   0  0  0  0  0  0  0  0  0  0  0  0
  143.7260  157.0150  133.3520 C   0  0  0  0  0  0  0  0  0  0  0  0
  142.8820  156.9180  132.4230 O   0  0  0  0  0  0  0  0  0  0  0  0
  143.6310  156.1670  134.5680 C   0  0  0  0  0  0  0  0  0  0  0  0
  142.9200  156.5890  135.5220 O   0  0  0  0  0  0  0  0  0  0  0  0
  144.2980  154.8880  134.7060 N   0  0  0  0  0  0  0  0  0  0  0  0
  144.5430  154.1080  133.4870 C   0  0  0  0  0  0  0  0  0  0  0  0
  144.6670  154.3140  136.0130 C   0  0  0  0  0  0  0  0  0  0  0  0
  146.1480  154.1160  136.1160 C   0  0  0  0  0  0  0  0  0  0  0  0
  146.6140  153.0980  136.6910 O   0  0  0  0  0  0  0  0  0  0  0  0
  147.0130  155.0300  135.5280 O   0  0  0  0  0  0  0  0  0  0  0  0
  146.0900  157.7120  133.0570 C   0  0  0  0  0  0  0  0  0  0  0  0
  146.7060  156.4640  132.9210 C   0  0  0  0  0  0  0  0  0  0  0  0
  149.0247  154.7134  133.6464 H   0  0  0  0  0  0  0  0  0  0  0  0
  148.1756  154.3965  132.0955 H   0  0  0  0  0  0  0  0  0  0  0  0
  149.7593  155.2442  132.0955 H   0  0  0  0  0  0  0  0  0  0  0  0
  149.9480  157.5965  132.6642 H   0  0  0  0  0  0  0  0  0  0  0  0
  148.7794  159.8099  132.9385 H   0  0  0  0  0  0  0  0  0  0  0  0
  146.1970  160.9881  133.3334 H   0  0  0  0  0  0  0  0  0  0  0  0
  142.1400  158.9610  132.2650 H   0  0  0  0  0  0  0  0  0  0  0  0
  144.8623  153.0914  133.7602 H   0  0  0  0  0  0  0  0  0  0  0  0
  143.6183  154.0549  132.8936 H   0  0  0  0  0  0  0  0  0  0  0  0
  145.3320  154.5932  132.8936 H   0  0  0  0  0  0  0  0  0  0  0  0
  144.3395  154.9969  136.8107 H   0  0  0  0  0  0  0  0  0  0  0  0
  144.1756  153.3353  136.1161 H   0  0  0  0  0  0  0  0  0  0  0  0
  146.1143  155.5369  132.9405 H   0  0  0  0  0  0  0  0  0  0  0  0
  1  2  1  0
  2  3  2  0
  3  4  1  0
  4  5  2  0
  5  6  1  0
  6  7  2  0
  7  8  1  0
  8  9  1  0
  8 10  2  0
  7 11  1  0
 11 12  1  0
 12 13  2  0
 12 14  1  0
 14 15  2  0
 14 16  1  0
 16 17  1  0
 16 18  1  0
 18 19  1  0
 19 20  2  0
 19 21  1  0
 11 22  1  0
 22 23  2  0
 23  2  1  0
 22  5  1  0
  1 24  1  0
  1 25  1  0
  1 26  1  0
  3 27  1  0
  4 28  1  0
  6 29  1  0
  9 30  1  0
 17 31  1  0
 17 32  1  0
 17 33  1  0
 18 34  1  0
 18 35  1  0
 23 36  1  0
M  CHG  2   9  -1  21  -1
M  END
>  <UniqueID>  (12) 
11

>  <SMILES>  (12) 
Cc1ccc2cc(C([NH-])=O)n(C(=O)C(=O)N(C)CC(=O)[O-])c2c1

>  <Energy>  (12) 
76.31414334914625

>  <Genealogy>  (12) 
Cc1ccc2cc(C([NH-])=O)n(C(=O)C(=O)N(C)CC(=O)[O-])c2c1 (protonated)
Cc1ccc2cc(C([NH-])=O)n(C(=O)C(=O)N(C)CC(=O)[O-])c2c1 (3D coordinates assigned)
Cc1ccc2cc(C([NH-])=O)n(C(=O)C(=O)N(C)CC(=O)[O-])c2c1 (optimized conformer: 76.31414334914625 kcal/mol)

>  <smiles>  (12) 
Cc1ccc2cc(C(N)=O)n(C(=O)C(=O)N(C)CC(=O)O)c2c1

>  <score_type>  (12) 
oracle

>  <origin>  (12) 
adg

>  <m_score__min__energy>  (12) 
-6.4400000000000004

>  <m_primary>  (12) 
energy

$$$$
13:0
     RDKit          3D

 52 53  0  0  0  0  0  0  0  0999 V2000
  140.9850  160.2600  133.3510 C   0  0  0  0  0  0  0  0  0  0  0  0
  141.1060  158.8240  133.6380 N   0  0  0  0  0  0  0  0  0  0  0  0
  142.4210  158.2480  133.8070 C   0  0  0  0  0  0  0  0  0  0  0  0
  143.5720  158.9320  133.3350 C   0  0  0  0  0  0  0  0  0  0  0  0
  144.8540  158.3740  133.4830 C   0  0  0  0  0  0  0  0  0  0  0  0
  144.9600  157.1370  134.1090 C   0  0  0  0  0  0  0  0  0  0  0  0
  146.0670  156.3510  134.3370 C   0  0  0  0  0  0  0  0  0  0  0  0
  145.5820  155.2050  134.9650 C   0  0  0  0  0  0  0  0  0  0  0  0
  146.4480  154.1100  135.4500 C   0  0  0  0  0  0  0  0  0  0  0  0
  146.3150  153.6040  136.7760 N   0  0  0  0  0  0  0  0  0  0  0  0
  147.3450  153.6440  134.6980 O   0  0  0  0  0  0  0  0  0  0  0  0
  144.2300  155.2800  135.1170 N   0  0  0  0  0  0  0  0  0  0  0  0
  143.3380  154.2640  135.5980 C   0  0  0  0  0  0  0  0  0  0  0  0
  143.6770  153.5480  136.5780 O   0  0  0  0  0  0  0  0  0  0  0  0
  142.1170  154.0520  134.9390 O   0  0  0  0  0  0  0  0  0  0  0  0
  141.9360  153.4030  133.6720 C   0  0  0  0  0  0  0  0  0  0  0  0
  141.6860  151.8940  133.8600 C   0  0  0  0  0  0  0  0  0  0  0  0
  143.1610  153.6450  132.7690 C   0  0  0  0  0  0  0  0  0  0  0  0
  140.7000  154.0320  133.0140 C   0  0  0  0  0  0  0  0  0  0  0  0
  143.8650  156.4690  134.5900 C   0  0  0  0  0  0  0  0  0  0  0  0
  142.5770  156.9970  134.4530 C   0  0  0  0  0  0  0  0  0  0  0  0
  139.8930  157.9890  133.7690 C   0  0  1  0  0  0  0  0  0  0  0  0
  139.5590  157.7900  135.2260 C   0  0  0  0  0  0  0  0  0  0  0  0
  139.8820  158.6290  136.0510 O   0  0  0  0  0  0  0  0  0  0  0  0
  138.7170  158.6220  132.9900 C   0  0  0  0  0  0  0  0  0  0  0  0
  138.9160  158.5870  131.4650 C   0  0  0  0  0  0  0  0  0  0  0  0
  138.3500  159.8070  130.8040 C   0  0  0  0  0  0  0  0  0  0  0  0
  139.1000  160.5680  130.1370 O   0  0  0  0  0  0  0  0  0  0  0  0
  136.9950  160.0890  130.9010 O   0  0  0  0  0  0  0  0  0  0  0  0
  140.9378  160.8202  134.2965 H   0  0  0  0  0  0  0  0  0  0  0  0
  141.8583  160.5928  132.7708 H   0  0  0  0  0  0  0  0  0  0  0  0
  140.0683  160.4420  132.7708 H   0  0  0  0  0  0  0  0  0  0  0  0
  143.4594  159.9114  132.8471 H   0  0  0  0  0  0  0  0  0  0  0  0
  145.7467  158.9005  133.1144 H   0  0  0  0  0  0  0  0  0  0  0  0
  147.1117  156.5788  134.0787 H   0  0  0  0  0  0  0  0  0  0  0  0
  145.6190  154.0120  137.4390 H   0  0  0  0  0  0  0  0  0  0  0  0
  141.6472  151.6598  134.9341 H   0  0  0  0  0  0  0  0  0  0  0  0
  140.7301  151.6193  133.3901 H   0  0  0  0  0  0  0  0  0  0  0  0
  142.5023  151.3258  133.3901 H   0  0  0  0  0  0  0  0  0  0  0  0
  144.0487  153.8204  133.3945 H   0  0  0  0  0  0  0  0  0  0  0  0
  143.3284  152.7626  132.1339 H   0  0  0  0  0  0  0  0  0  0  0  0
  142.9803  154.5248  132.1339 H   0  0  0  0  0  0  0  0  0  0  0  0
  140.0086  154.3839  133.7938 H   0  0  0  0  0  0  0  0  0  0  0  0
  141.0102  154.8819  132.3883 H   0  0  0  0  0  0  0  0  0  0  0  0
  140.1955  153.2810  132.3883 H   0  0  0  0  0  0  0  0  0  0  0  0
  141.7030  156.4519  134.8390 H   0  0  0  0  0  0  0  0  0  0  0  0
  140.0831  156.9987  133.3295 H   0  0  0  0  0  0  0  0  0  0  0  0
  139.0221  156.8849  135.5463 H   0  0  0  0  0  0  0  0  0  0  0  0
  137.7972  158.0711  133.2359 H   0  0  0  0  0  0  0  0  0  0  0  0
  138.6561  159.6788  133.2890 H   0  0  0  0  0  0  0  0  0  0  0  0
  139.9928  158.5307  131.2472 H   0  0  0  0  0  0  0  0  0  0  0  0
  138.3874  157.7068  131.0703 H   0  0  0  0  0  0  0  0  0  0  0  0
  1  2  1  0
  2  3  1  0
  3  4  2  0
  4  5  1  0
  5  6  2  0
  6  7  1  0
  7  8  2  0
  8  9  1  0
  9 10  1  0
  9 11  2  0
  8 12  1  0
 12 13  1  0
 13 14  2  0
 13 15  1  0
 15 16  1  0
 16 17  1  0
 16 18  1  0
 16 19  1  0
 12 20  1  0
 20 21  2  0
  2 22  1  0
 22 23  1  0
 23 24  2  0
 22 25  1  0
 25 26  1  0
 26 27  1  0
 27 28  2  0
 27 29  1  0
 21  3  1  0
 20  6  1  0
  1 30  1  0
  1 31  1  0
  1 32  1  0
  4 33  1  0
  5 34  1  0
  7 35  1  0
 10 36  1  0
 17 37  1  0
 17 38  1  0
 17 39  1  0
 18 40  1  0
 18 41  1  0
 18 42  1  0
 19 43  1  0
 19 44  1  0
 19 45  1  0
 21 46  1  0
 22 47  1  6
 23 48  1  0
 25 49  1  0
 25 50  1  0
 26 51  1  0
 26 52  1  0
M  CHG  2  10  -1  29  -1
M  END
>  <UniqueID>  (13) 
12

>  <SMILES>  (13) 
CN(c1ccc2cc(C([NH-])=O)n(C(=O)OC(C)(C)C)c2c1)[C@@H](C=O)CCC(=O)[O-]

>  <Energy>  (13) 
84.75318775575407

>  <Genealogy>  (13) 
CN(c1ccc2cc(C([NH-])=O)n(C(=O)OC(C)(C)C)c2c1)C(C=O)CCC(=O)[O-] (protonated)
CN(c1ccc2cc(C([NH-])=O)n(C(=O)OC(C)(C)C)c2c1)[C@@H](C=O)CCC(=O)[O-] (chirality)
CN(c1ccc2cc(C([NH-])=O)n(C(=O)OC(C)(C)C)c2c1)[C@@H](C=O)CCC(=O)[O-] (3D coordinates assigned)
CN(c1ccc2cc(C([NH-])=O)n(C(=O)OC(C)(C)C)c2c1)[C@@H](C=O)CCC(=O)[O-] (optimized conformer: 84.75318775575407 kcal/mol)

>  <smiles>  (13) 
CN(c1ccc2cc(C(N)=O)n(C(=O)OC(C)(C)C)c2c1)C(C=O)CCC(=O)O

>  <score_type>  (13) 
oracle

>  <origin>  (13) 
adg

>  <m_score__min__energy>  (13) 
-7.6399999999999997

>  <m_primary>  (13) 
energy

$$$$
14:0
     RDKit          3D

 49 50  0  0  0  0  0  0  0  0999 V2000
  139.1040  157.5530  133.2150 C   0  0  0  0  0  0  0  0  0  0  0  0
  139.6380  157.0900  134.3460 C   0  0  0  0  0  0  0  0  0  0  0  0
  140.4210  155.8900  134.3640 N   0  0  0  0  0  0  0  0  0  0  0  0
  140.3840  154.8690  133.3620 C   0  0  0  0  0  0  0  0  0  0  0  0
  139.3840  154.7920  132.6010 O   0  0  0  0  0  0  0  0  0  0  0  0
  141.4900  153.9520  133.2120 N   0  0  0  0  0  0  0  0  0  0  0  0
  142.8100  154.1960  133.4680 C   0  0  0  0  0  0  0  0  0  0  0  0
  143.4080  155.5040  133.7880 C   0  0  0  0  0  0  0  0  0  0  0  0
  143.0150  156.2220  134.9570 N   0  0  0  0  0  0  0  0  0  0  0  0
  144.2350  156.0200  132.9910 O   0  0  0  0  0  0  0  0  0  0  0  0
  143.5620  153.0310  133.3620 C   0  0  0  0  0  0  0  0  0  0  0  0
  142.6640  152.0500  133.0210 C   0  0  0  0  0  0  0  0  0  0  0  0
  142.8750  150.6920  132.8010 C   0  0  0  0  0  0  0  0  0  0  0  0
  141.7620  149.8930  132.4970 C   0  0  0  0  0  0  0  0  0  0  0  0
  140.4650  150.4580  132.4380 C   0  0  0  0  0  0  0  0  0  0  0  0
  139.2820  149.6040  132.0940 C   0  0  0  0  0  0  0  0  0  0  0  0
  140.2890  151.8410  132.6590 C   0  0  0  0  0  0  0  0  0  0  0  0
  141.4190  152.6250  132.9400 C   0  0  0  0  0  0  0  0  0  0  0  0
  139.2370  157.8700  135.9120 S   0  0  0  0  0  0  0  0  0  0  0  0
  140.4940  159.1930  135.7890 C   0  0  0  0  0  0  0  0  0  0  0  0
  141.8860  158.6770  135.9820 C   0  0  0  0  0  0  0  0  0  0  0  0
  142.0780  157.6990  136.7550 O   0  0  0  0  0  0  0  0  0  0  0  0
  142.9440  159.2550  135.2660 O   0  0  0  0  0  0  0  0  0  0  0  0
  142.9110  159.6460  133.8830 C   0  0  0  0  0  0  0  0  0  0  0  0
  144.3400  159.8890  133.3640 C   0  0  0  0  0  0  0  0  0  0  0  0
  142.2890  158.4830  133.0960 C   0  0  0  0  0  0  0  0  0  0  0  0
  142.0450  160.9070  133.6850 C   0  0  0  0  0  0  0  0  0  0  0  0
  138.5066  158.4766  133.2266 H   0  0  0  0  0  0  0  0  0  0  0  0
  139.2610  157.0113  132.2706 H   0  0  0  0  0  0  0  0  0  0  0  0
  142.2340  155.8730  135.5530 H   0  0  0  0  0  0  0  0  0  0  0  0
  143.4620  157.1360  135.1910 H   0  0  0  0  0  0  0  0  0  0  0  0
  144.6451  152.9193  133.5181 H   0  0  0  0  0  0  0  0  0  0  0  0
  143.8838  150.2580  132.8635 H   0  0  0  0  0  0  0  0  0  0  0  0
  141.8984  148.8189  132.3029 H   0  0  0  0  0  0  0  0  0  0  0  0
  138.7997  149.2558  133.0193 H   0  0  0  0  0  0  0  0  0  0  0  0
  138.5634  150.1930  131.5051 H   0  0  0  0  0  0  0  0  0  0  0  0
  139.6148  148.7365  131.5051 H   0  0  0  0  0  0  0  0  0  0  0  0
  139.2880  152.2946  132.6120 H   0  0  0  0  0  0  0  0  0  0  0  0
  140.4236  159.6558  134.7936 H   0  0  0  0  0  0  0  0  0  0  0  0
  140.2928  159.9223  136.5876 H   0  0  0  0  0  0  0  0  0  0  0  0
  145.0250  160.0055  134.2168 H   0  0  0  0  0  0  0  0  0  0  0  0
  144.6586  159.0321  132.7522 H   0  0  0  0  0  0  0  0  0  0  0  0
  144.3574  160.8030  132.7522 H   0  0  0  0  0  0  0  0  0  0  0  0
  141.8899  157.7367  133.7987 H   0  0  0  0  0  0  0  0  0  0  0  0
  141.4738  158.8632  132.4628 H   0  0  0  0  0  0  0  0  0  0  0  0
  143.0578  158.0161  132.4628 H   0  0  0  0  0  0  0  0  0  0  0  0
  141.7638  161.3165  134.6664 H   0  0  0  0  0  0  0  0  0  0  0  0
  142.6172  161.6603  133.1237 H   0  0  0  0  0  0  0  0  0  0  0  0
  141.1365  160.6434  133.1237 H   0  0  0  0  0  0  0  0  0  0  0  0
  1  2  2  0
  2  3  1  0
  3  4  1  0
  4  5  2  0
  4  6  1  0
  6  7  1  0
  7  8  1  0
  8  9  1  0
  8 10  2  0
  7 11  2  0
 11 12  1  0
 12 13  2  0
 13 14  1  0
 14 15  2  0
 15 16  1  0
 15 17  1  0
 17 18  2  0
  2 19  1  0
 19 20  1  0
 20 21  1  0
 21 22  2  0
 21 23  1  0
 23 24  1  0
 24 25  1  0
 24 26  1  0
 24 27  1  0
 18  6  1  0
 18 12  1  0
  1 28  1  0
  1 29  1  0
  9 30  1  0
  9 31  1  0
 11 32  1  0
 13 33  1  0
 14 34  1  0
 16 35  1  0
 16 36  1  0
 16 37  1  0
 17 38  1  0
 20 39  1  0
 20 40  1  0
 25 41  1  0
 25 42  1  0
 25 43  1  0
 26 44  1  0
 26 45  1  0
 26 46  1  0
 27 47  1  0
 27 48  1  0
 27 49  1  0
M  CHG  1   3  -1
M  END
>  <UniqueID>  (14) 
13

>  <SMILES>  (14) 
C=C([N-]C(=O)n1c(C(N)=O)cc2ccc(C)cc21)SCC(=O)OC(C)(C)C

>  <Energy>  (14) 
81.77141670056433

>  <Genealogy>  (14) 
C=C([N-]C(=O)n1c(C(N)=O)cc2ccc(C)cc21)SCC(=O)OC(C)(C)C (protonated)
C=C([N-]C(=O)n1c(C(N)=O)cc2ccc(C)cc21)SCC(=O)OC(C)(C)C (3D coordinates assigned)
C=C([N-]C(=O)n1c(C(N)=O)cc2ccc(C)cc21)SCC(=O)OC(C)(C)C (optimized conformer: 81.77141670056433 kcal/mol)

>  <smiles>  (14) 
C=C(NC(=O)n1c(C(N)=O)cc2ccc(C)cc21)SCC(=O)OC(C)(C)C

>  <score_type>  (14) 
oracle

>  <origin>  (14) 
adg

>  <m_score__min__energy>  (14) 
-8.2599999999999998

>  <m_primary>  (14) 
energy

$$$$
15:0
     RDKit          3D

 25 26  0  0  0  0  0  0  0  0999 V2000
  138.2950  158.1080  131.3350 N   0  0  0  0  0  0  0  0  0  0  0  0
  139.5540  158.6080  131.7920 C   0  0  0  0  0  0  0  0  0  0  0  0
  140.3340  159.1540  130.9670 O   0  0  0  0  0  0  0  0  0  0  0  0
  139.9810  158.4490  133.1970 C   0  0  0  0  0  0  0  0  0  0  0  0
  140.2840  159.5190  134.0340 C   0  0  0  0  0  0  0  0  0  0  0  0
  140.6570  158.9490  135.2300 C   0  0  0  0  0  0  0  0  0  0  0  0
  141.0230  159.5510  136.4300 C   0  0  0  0  0  0  0  0  0  0  0  0
  141.2960  158.7190  137.5280 C   0  0  0  0  0  0  0  0  0  0  0  0
  141.2020  157.3080  137.4110 C   0  0  0  0  0  0  0  0  0  0  0  0
  141.4290  156.4310  138.6150 C   0  0  0  0  0  0  0  0  0  0  0  0
  142.4750  155.5530  138.3890 F   0  0  0  0  0  0  0  0  0  0  0  0
  140.2810  155.7050  138.8720 F   0  0  0  0  0  0  0  0  0  0  0  0
  141.7390  157.1950  139.7270 F   0  0  0  0  0  0  0  0  0  0  0  0
  140.7990  156.7370  136.1810 C   0  0  0  0  0  0  0  0  0  0  0  0
  140.5620  157.5880  135.0950 C   0  0  0  0  0  0  0  0  0  0  0  0
  140.1500  157.2640  133.8480 N   0  0  0  0  0  0  0  0  0  0  0  0
  139.8280  155.9520  133.3620 C   0  0  0  0  0  0  0  0  0  0  0  0
  138.7420  155.7540  132.7560 O   0  0  0  0  0  0  0  0  0  0  0  0
  140.9890  154.5860  133.5510 S   0  0  0  0  0  0  0  0  0  0  0  0
  137.9920  158.2770  130.3510 H   0  0  0  0  0  0  0  0  0  0  0  0
  137.7100  157.4890  131.9360 H   0  0  0  0  0  0  0  0  0  0  0  0
  140.2357  160.5909  133.7915 H   0  0  0  0  0  0  0  0  0  0  0  0
  141.0962  160.6452  136.5160 H   0  0  0  0  0  0  0  0  0  0  0  0
  141.5861  159.1665  138.4901 H   0  0  0  0  0  0  0  0  0  0  0  0
  140.6747  155.6487  136.0802 H   0  0  0  0  0  0  0  0  0  0  0  0
  1  2  1  0
  2  3  2  0
  2  4  1  0
  4  5  2  0
  5  6  1  0
  6  7  2  0
  7  8  1  0
  8  9  2  0
  9 10  1  0
 10 11  1  0
 10 12  1  0
 10 13  1  0
  9 14  1  0
 14 15  2  0
 15 16  1  0
 16 17  1  0
 17 18  2  0
 17 19  1  0
 16  4  1  0
 15  6  1  0
  1 20  1  0
  1 21  1  0
  5 22  1  0
  7 23  1  0
  8 24  1  0
 14 25  1  0
M  CHG  1  19  -1
M  END
>  <UniqueID>  (15) 
14

>  <SMILES>  (15) 
NC(=O)c1cc2ccc(C(F)(F)F)cc2n1C(=O)[S-]

>  <Energy>  (15) 
67.05678291554382

>  <Genealogy>  (15) 
NC(=O)c1cc2ccc(C(F)(F)F)cc2n1C(=O)[S-] (protonated)
NC(=O)c1cc2ccc(C(F)(F)F)cc2n1C(=O)[S-] (3D coordinates assigned)
NC(=O)c1cc2ccc(C(F)(F)F)cc2n1C(=O)[S-] (optimized conformer: 67.05678291554382 kcal/mol)

>  <smiles>  (15) 
NC(=O)c1cc2ccc(C(F)(F)F)cc2n1C(=O)S

>  <score_type>  (15) 
oracle

>  <origin>  (15) 
adg

>  <m_score__min__energy>  (15) 
-5.5300000000000002

>  <m_primary>  (15) 
energy

$$$$
16:0
     RDKit          3D

 35 37  0  0  0  0  0  0  0  0999 V2000
  140.8810  158.9500  136.7370 C   0  0  0  0  0  0  0  0  0  0  0  0
  140.4130  158.4370  135.4530 N   0  0  0  0  0  0  0  0  0  0  0  0
  139.2170  157.8940  135.2910 N   0  0  0  0  0  0  0  0  0  0  0  0
  139.1140  157.4950  134.0090 C   0  0  0  0  0  0  0  0  0  0  0  0
  140.2820  157.7940  133.3350 C   0  0  0  0  0  0  0  0  0  0  0  0
  141.0830  158.4070  134.2770 C   0  0  0  0  0  0  0  0  0  0  0  0
  142.4510  158.9170  134.0310 C   0  0  0  0  0  0  0  0  0  0  0  0
  142.6860  160.3150  134.0070 C   0  0  0  0  0  0  0  0  0  0  0  0
  143.9770  160.8240  133.7820 C   0  0  0  0  0  0  0  0  0  0  0  0
  145.0140  159.9140  133.6040 C   0  0  0  0  0  0  0  0  0  0  0  0
  146.3500  160.1270  133.3510 C   0  0  0  0  0  0  0  0  0  0  0  0
  146.9160  158.8560  133.2580 C   0  0  0  0  0  0  0  0  0  0  0  0
  148.3590  158.6140  133.0410 C   0  0  0  0  0  0  0  0  0  0  0  0
  148.8150  157.8440  131.9320 N   0  0  0  0  0  0  0  0  0  0  0  0
  149.1980  159.0690  133.8630 O   0  0  0  0  0  0  0  0  0  0  0  0
  145.9670  157.8980  133.4500 N   0  0  0  0  0  0  0  0  0  0  0  0
  146.1170  156.4740  133.3450 C   0  0  0  0  0  0  0  0  0  0  0  0
  146.4860  155.9730  132.2480 O   0  0  0  0  0  0  0  0  0  0  0  0
  145.8470  155.6240  134.4750 N   0  0  0  0  0  0  0  0  0  0  0  0
  144.2090  155.1590  134.8080 S   0  0  0  0  0  0  0  0  0  0  0  0
  146.8850  155.1840  135.3680 C   0  0  0  0  0  0  0  0  0  0  0  0
  147.8770  155.9190  135.6140 O   0  0  0  0  0  0  0  0  0  0  0  0
  146.8150  153.9270  135.9550 O   0  0  0  0  0  0  0  0  0  0  0  0
  144.8090  158.5600  133.6540 C   0  0  0  0  0  0  0  0  0  0  0  0
  143.5330  158.0250  133.8600 C   0  0  0  0  0  0  0  0  0  0  0  0
  140.3837  158.4049  137.5529 H   0  0  0  0  0  0  0  0  0  0  0  0
  141.9695  158.8105  136.8128 H   0  0  0  0  0  0  0  0  0  0  0  0
  140.6424  160.0211  136.8128 H   0  0  0  0  0  0  0  0  0  0  0  0
  138.2340  157.0056  133.5661 H   0  0  0  0  0  0  0  0  0  0  0  0
  140.5208  157.5890  132.2810 H   0  0  0  0  0  0  0  0  0  0  0  0
  141.8481  161.0097  134.1663 H   0  0  0  0  0  0  0  0  0  0  0  0
  144.1614  161.9079  133.7478 H   0  0  0  0  0  0  0  0  0  0  0  0
  146.8625  161.0945  133.2447 H   0  0  0  0  0  0  0  0  0  0  0  0
  148.2110  157.1060  131.5060 H   0  0  0  0  0  0  0  0  0  0  0  0
  143.3760  156.9366  133.8881 H   0  0  0  0  0  0  0  0  0  0  0  0
  1  2  1  0
  2  3  1  0
  3  4  2  0
  4  5  1  0
  5  6  2  0
  6  7  1  0
  7  8  2  0
  8  9  1  0
  9 10  2  0
 10 11  1  0
 11 12  2  0
 12 13  1  0
 13 14  1  0
 13 15  2  0
 12 16  1  0
 16 17  1  0
 17 18  2  0
 17 19  1  0
 19 20  1  0
 19 21  1  0
 21 22  2  0
 21 23  1  0
 16 24  1  0
 24 25  2  0
  6  2  1  0
 25  7  1  0
 24 10  1  0
  1 26  1  0
  1 27  1  0
  1 28  1  0
  4 29  1  0
  5 30  1  0
  8 31  1  0
  9 32  1  0
 11 33  1  0
 14 34  1  0
 25 35  1  0
M  CHG  3  14  -1  20  -1  23  -1
M  END
>  <UniqueID>  (16) 
15

>  <SMILES>  (16) 
Cn1nccc1-c1ccc2cc(C([NH-])=O)n(C(=O)N([S-])C(=O)[O-])c2c1

>  <Energy>  (16) 
112.72323986343953

>  <Genealogy>  (16) 
Cn1nccc1-c1ccc2cc(C([NH-])=O)n(C(=O)N([S-])C(=O)[O-])c2c1 (protonated)
Cn1nccc1-c1ccc2cc(C([NH-])=O)n(C(=O)N([S-])C(=O)[O-])c2c1 (3D coordinates assigned)
Cn1nccc1-c1ccc2cc(C([NH-])=O)n(C(=O)N([S-])C(=O)[O-])c2c1 (optimized conformer: 112.72323986343953 kcal/mol)

>  <smiles>  (16) 
Cn1nccc1-c1ccc2cc(C(N)=O)n(C(=O)N(S)C(=O)O)c2c1

>  <score_type>  (16) 
oracle

>  <origin>  (16) 
adg

>  <m_score__min__energy>  (16) 
-6.8700000000000001

>  <m_primary>  (16) 
energy

$$$$
17:0
     RDKit          3D

 35 36  0  0  0  0  0  0  0  0999 V2000
  146.8930  154.7520  132.9780 C   0  0  0  0  0  0  0  0  0  0  0  0
  146.8670  156.2480  133.0670 C   0  0  0  0  0  0  0  0  0  0  0  0
  148.0460  157.0060  132.8510 C   0  0  0  0  0  0  0  0  0  0  0  0
  148.0200  158.4090  132.9380 C   0  0  0  0  0  0  0  0  0  0  0  0
  146.8070  159.0220  133.2380 C   0  0  0  0  0  0  0  0  0  0  0  0
  146.5000  160.3550  133.3970 C   0  0  0  0  0  0  0  0  0  0  0  0
  145.1380  160.3870  133.6940 C   0  0  0  0  0  0  0  0  0  0  0  0
  144.3650  161.6320  133.8670 C   0  0  0  0  0  0  0  0  0  0  0  0
  142.9470  161.6150  133.7190 N   0  0  0  0  0  0  0  0  0  0  0  0
  144.9410  162.7090  134.1720 O   0  0  0  0  0  0  0  0  0  0  0  0
  144.6280  159.1240  133.7240 N   0  0  0  0  0  0  0  0  0  0  0  0
  143.2940  158.7130  134.0550 C   0  0  0  0  0  0  0  0  0  0  0  0
  142.8120  159.0330  135.1760 O   0  0  0  0  0  0  0  0  0  0  0  0
  142.4250  158.0740  133.0070 C   0  0  0  0  0  0  0  0  0  0  0  0
  140.7590  158.7300  132.9880 S   0  0  0  0  0  0  0  0  0  0  0  0
  140.7230  160.0380  133.7290 O   0  0  0  0  0  0  0  0  0  0  0  0
  140.3500  158.9650  131.5610 O   0  0  0  0  0  0  0  0  0  0  0  0
  139.6200  157.5800  133.7400 C   0  0  0  0  0  0  0  0  0  0  0  0
  140.0540  156.1760  133.4780 C   0  0  0  0  0  0  0  0  0  0  0  0
  139.4660  155.4820  132.6080 O   0  0  0  0  0  0  0  0  0  0  0  0
  141.0800  155.6140  134.2280 O   0  0  0  0  0  0  0  0  0  0  0  0
  145.6590  158.3020  133.4390 C   0  0  0  0  0  0  0  0  0  0  0  0
  145.6540  156.9060  133.3690 C   0  0  0  0  0  0  0  0  0  0  0  0
  146.9004  154.3245  133.9915 H   0  0  0  0  0  0  0  0  0  0  0  0
  146.0008  154.4012  132.4386 H   0  0  0  0  0  0  0  0  0  0  0  0
  147.7968  154.4324  132.4386 H   0  0  0  0  0  0  0  0  0  0  0  0
  148.9889  156.4918  132.6133 H   0  0  0  0  0  0  0  0  0  0  0  0
  148.9305  159.0040  132.7740 H   0  0  0  0  0  0  0  0  0  0  0  0
  147.1837  161.2121  133.3085 H   0  0  0  0  0  0  0  0  0  0  0  0
  142.3620  160.9290  134.2470 H   0  0  0  0  0  0  0  0  0  0  0  0
  142.8810  158.2455  132.0208 H   0  0  0  0  0  0  0  0  0  0  0  0
  142.3550  157.0024  133.2450 H   0  0  0  0  0  0  0  0  0  0  0  0
  139.5917  157.7546  134.8257 H   0  0  0  0  0  0  0  0  0  0  0  0
  138.6199  157.7322  133.3080 H   0  0  0  0  0  0  0  0  0  0  0  0
  144.7303  156.3351  133.5444 H   0  0  0  0  0  0  0  0  0  0  0  0
  1  2  1  0
  2  3  2  0
  3  4  1  0
  4  5  2  0
  5  6  1  0
  6  7  2  0
  7  8  1  0
  8  9  1  0
  8 10  2  0
  7 11  1  0
 11 12  1  0
 12 13  2  0
 12 14  1  0
 14 15  1  0
 15 16  2  0
 15 17  2  0
 15 18  1  0
 18 19  1  0
 19 20  2  0
 19 21  1  0
 11 22  1  0
 22 23  2  0
 23  2  1  0
 22  5  1  0
  1 24  1  0
  1 25  1  0
  1 26  1  0
  3 27  1  0
  4 28  1  0
  6 29  1  0
  9 30  1  0
 14 31  1  0
 14 32  1  0
 18 33  1  0
 18 34  1  0
 23 35  1  0
M  CHG  2   9  -1  21  -1
M  END
>  <UniqueID>  (17) 
16

>  <SMILES>  (17) 
Cc1ccc2cc(C([NH-])=O)n(C(=O)CS(=O)(=O)CC(=O)[O-])c2c1

>  <Energy>  (17) 
66.77632123140235

>  <Genealogy>  (17) 
Cc1ccc2cc(C([NH-])=O)n(C(=O)CS(=O)(=O)CC(=O)[O-])c2c1 (protonated)
Cc1ccc2cc(C([NH-])=O)n(C(=O)CS(=O)(=O)CC(=O)[O-])c2c1 (3D coordinates assigned)
Cc1ccc2cc(C([NH-])=O)n(C(=O)CS(=O)(=O)CC(=O)[O-])c2c1 (optimized conformer: 66.77632123140235 kcal/mol)

>  <smiles>  (17) 
Cc1ccc2cc(C(N)=O)n(C(=O)CS(=O)(=O)CC(=O)O)c2c1

>  <score_type>  (17) 
oracle

>  <origin>  (17) 
adg

>  <m_score__min__energy>  (17) 
-6.6500000000000004

>  <m_primary>  (17) 
energy

$$$$
18:0
     RDKit          3D

 52 53  0  0  0  0  0  0  0  0999 V2000
  141.2140  150.7900  138.5580 C   0  0  0  0  0  0  0  0  0  0  0  0
  141.1260  152.2800  138.7290 C   0  0  0  0  0  0  0  0  0  0  0  0
  140.8000  152.8180  139.9970 C   0  0  0  0  0  0  0  0  0  0  0  0
  140.7230  154.2080  140.1880 C   0  0  0  0  0  0  0  0  0  0  0  0
  140.9670  155.0320  139.0940 C   0  0  0  0  0  0  0  0  0  0  0  0
  140.9830  156.4060  139.0130 C   0  0  0  0  0  0  0  0  0  0  0  0
  141.2940  156.6900  137.6870 C   0  0  0  0  0  0  0  0  0  0  0  0
  141.3360  158.0600  137.1430 C   0  0  0  0  0  0  0  0  0  0  0  0
  140.6690  158.3880  135.9200 N   0  0  0  0  0  0  0  0  0  0  0  0
  141.9280  158.9680  137.7930 O   0  0  0  0  0  0  0  0  0  0  0  0
  141.4840  155.5410  136.9750 N   0  0  0  0  0  0  0  0  0  0  0  0
  141.9620  155.4250  135.6220 C   0  0  0  0  0  0  0  0  0  0  0  0
  142.7950  154.5240  135.3210 O   0  0  0  0  0  0  0  0  0  0  0  0
  141.4890  156.2960  134.6370 O   0  0  0  0  0  0  0  0  0  0  0  0
  140.3320  156.0140  133.8540 C   0  0  0  0  0  0  0  0  0  0  0  0
  140.4120  156.7280  132.6260 O   0  0  0  0  0  0  0  0  0  0  0  0
  139.6720  157.8900  132.3790 C   0  0  0  0  0  0  0  0  0  0  0  0
  138.8490  157.9370  131.4260 O   0  0  0  0  0  0  0  0  0  0  0  0
  139.8550  159.0990  133.2430 C   0  0  0  0  0  0  0  0  0  0  0  0
  141.1740  159.6950  133.0520 N   0  0  0  0  0  0  0  0  0  0  0  0
  142.3510  159.4360  133.8380 C   0  0  0  0  0  0  0  0  0  0  0  0
  142.5000  160.0710  134.9210 O   0  0  0  0  0  0  0  0  0  0  0  0
  143.3860  158.3960  133.4310 C   0  0  1  0  0  0  0  0  0  0  0  0
  142.8910  157.5370  132.3450 N   0  0  0  0  0  0  0  0  0  0  0  0
  144.7460  159.0500  133.0600 C   0  0  0  0  0  0  0  0  0  0  0  0
  144.8590  160.4510  133.6760 C   0  0  0  0  0  0  0  0  0  0  0  0
  145.9630  158.1970  133.4530 C   0  0  0  0  0  0  0  0  0  0  0  0
  141.2700  154.5300  137.8520 C   0  0  0  0  0  0  0  0  0  0  0  0
  141.3680  153.1460  137.6390 C   0  0  0  0  0  0  0  0  0  0  0  0
  141.2424  150.3085  139.5466 H   0  0  0  0  0  0  0  0  0  0  0  0
  140.3354  150.4323  138.0011 H   0  0  0  0  0  0  0  0  0  0  0  0
  142.1286  150.5382  138.0011 H   0  0  0  0  0  0  0  0  0  0  0  0
  140.6049  152.1409  140.8417 H   0  0  0  0  0  0  0  0  0  0  0  0
  140.4772  154.6318  141.1729 H   0  0  0  0  0  0  0  0  0  0  0  0
  140.7911  157.1252  139.8229 H   0  0  0  0  0  0  0  0  0  0  0  0
  140.0380  157.6970  135.4510 H   0  0  0  0  0  0  0  0  0  0  0  0
  140.7620  159.3440  135.5110 H   0  0  0  0  0  0  0  0  0  0  0  0
  140.2807  154.9345  133.6491 H   0  0  0  0  0  0  0  0  0  0  0  0
  139.4303  156.3232  134.4029 H   0  0  0  0  0  0  0  0  0  0  0  0
  139.0858  159.8422  132.9863 H   0  0  0  0  0  0  0  0  0  0  0  0
  139.7635  158.7902  134.2948 H   0  0  0  0  0  0  0  0  0  0  0  0
  143.5603  157.7545  134.3074 H   0  0  0  0  0  0  0  0  0  0  0  0
  142.0690  157.9810  131.8740 H   0  0  0  0  0  0  0  0  0  0  0  0
  142.5600  156.6330  132.7590 H   0  0  0  0  0  0  0  0  0  0  0  0
  144.7581  159.1269  131.9628 H   0  0  0  0  0  0  0  0  0  0  0  0
  144.8525  160.3708  134.7730 H   0  0  0  0  0  0  0  0  0  0  0  0
  145.7980  160.9210  133.3482 H   0  0  0  0  0  0  0  0  0  0  0  0
  144.0075  161.0654  133.3482 H   0  0  0  0  0  0  0  0  0  0  0  0
  146.0362  158.1457  134.5494 H   0  0  0  0  0  0  0  0  0  0  0  0
  145.8463  157.1820  133.0454 H   0  0  0  0  0  0  0  0  0  0  0  0
  146.8773  158.6529  133.0454 H   0  0  0  0  0  0  0  0  0  0  0  0
  141.6268  152.7454  136.6478 H   0  0  0  0  0  0  0  0  0  0  0  0
  1  2  1  0
  2  3  2  0
  3  4  1  0
  4  5  2  0
  5  6  1  0
  6  7  2  0
  7  8  1  0
  8  9  1  0
  8 10  2  0
  7 11  1  0
 11 12  1  0
 12 13  2  0
 12 14  1  0
 14 15  1  0
 15 16  1  0
 16 17  1  0
 17 18  2  0
 17 19  1  0
 19 20  1  0
 20 21  1  0
 21 22  2  0
 21 23  1  0
 23 24  1  0
 23 25  1  0
 25 26  1  0
 25 27  1  0
 11 28  1  0
 28 29  2  0
 29  2  1  0
 28  5  1  0
  1 30  1  0
  1 31  1  0
  1 32  1  0
  3 33  1  0
  4 34  1  0
  6 35  1  0
  9 36  1  0
  9 37  1  0
 15 38  1  0
 15 39  1  0
 19 40  1  0
 19 41  1  0
 23 42  1  1
 24 43  1  0
 24 44  1  0
 25 45  1  0
 26 46  1  0
 26 47  1  0
 26 48  1  0
 27 49  1  0
 27 50  1  0
 27 51  1  0
 29 52  1  0
M  CHG  1  20  -1
M  END
>  <UniqueID>  (18) 
17

>  <SMILES>  (18) 
Cc1ccc2cc(C(N)=O)n(C(=O)OCOC(=O)C[N-]C(=O)[C@@H](N)C(C)C)c2c1

>  <Energy>  (18) 
78.68690384728276

>  <Genealogy>  (18) 
Cc1ccc2cc(C(N)=O)n(C(=O)OCOC(=O)C[N-]C(=O)[C@@H](N)C(C)C)c2c1 (protonated)
Cc1ccc2cc(C(N)=O)n(C(=O)OCOC(=O)C[N-]C(=O)[C@@H](N)C(C)C)c2c1 (3D coordinates assigned)
Cc1ccc2cc(C(N)=O)n(C(=O)OCOC(=O)C[N-]C(=O)[C@@H](N)C(C)C)c2c1 (optimized conformer: 78.68690384728276 kcal/mol)

>  <smiles>  (18) 
Cc1ccc2cc(C(N)=O)n(C(=O)OCOC(=O)CNC(=O)[C@@H](N)C(C)C)c2c1

>  <score_type>  (18) 
oracle

>  <origin>  (18) 
adg

>  <m_score__min__energy>  (18) 
-7.7699999999999996

>  <m_primary>  (18) 
energy

$$$$
19:0
     RDKit          3D

 37 38  0  0  0  0  0  0  0  0999 V2000
  140.4380  159.0710  132.2450 C   0  0  0  0  0  0  0  0  0  0  0  0
  141.2140  158.6450  133.4240 N   0  0  1  0  0  0  0  0  0  0  0  0
  140.4320  157.7820  134.3380 C   0  0  0  0  0  0  0  0  0  0  0  0
  140.2530  158.3630  135.7150 C   0  0  0  0  0  0  0  0  0  0  0  0
  140.8000  159.4560  136.0170 O   0  0  0  0  0  0  0  0  0  0  0  0
  139.4740  157.7030  136.6560 O   0  0  0  0  0  0  0  0  0  0  0  0
  142.4620  158.0140  133.0380 C   0  0  0  0  0  0  0  0  0  0  0  0
  142.5790  157.4880  131.8950 O   0  0  0  0  0  0  0  0  0  0  0  0
  143.6040  157.9440  133.9740 C   0  0  0  0  0  0  0  0  0  0  0  0
  143.4960  157.3180  135.0620 O   0  0  0  0  0  0  0  0  0  0  0  0
  144.8420  158.5990  133.6610 N   0  0  0  0  0  0  0  0  0  0  0  0
  145.0850  159.9380  133.6220 C   0  0  0  0  0  0  0  0  0  0  0  0
  144.0790  161.0010  133.8240 C   0  0  0  0  0  0  0  0  0  0  0  0
  142.7280  160.6540  134.1190 N   0  0  0  0  0  0  0  0  0  0  0  0
  144.4020  162.2160  133.7540 O   0  0  0  0  0  0  0  0  0  0  0  0
  146.4260  160.1800  133.3250 C   0  0  0  0  0  0  0  0  0  0  0  0
  146.9990  158.9350  133.1870 C   0  0  0  0  0  0  0  0  0  0  0  0
  148.3170  158.5780  132.9230 C   0  0  0  0  0  0  0  0  0  0  0  0
  148.6330  157.2090  132.8780 C   0  0  0  0  0  0  0  0  0  0  0  0
  147.6310  156.2260  133.0860 C   0  0  0  0  0  0  0  0  0  0  0  0
  147.9960  154.7620  133.1000 C   0  0  0  0  0  0  0  0  0  0  0  0
  148.2990  154.3460  134.3850 F   0  0  0  0  0  0  0  0  0  0  0  0
  146.9280  154.0230  132.6270 F   0  0  0  0  0  0  0  0  0  0  0  0
  149.0990  154.5270  132.2980 F   0  0  0  0  0  0  0  0  0  0  0  0
  146.3070  156.6310  133.3760 C   0  0  0  0  0  0  0  0  0  0  0  0
  146.0220  157.9980  133.3970 C   0  0  0  0  0  0  0  0  0  0  0  0
  139.5180  159.5760  132.5745 H   0  0  0  0  0  0  0  0  0  0  0  0
  141.0407  159.7647  131.6404 H   0  0  0  0  0  0  0  0  0  0  0  0
  140.1763  158.1901  131.6404 H   0  0  0  0  0  0  0  0  0  0  0  0
  141.4320  159.5240  133.9520 H   0  0  0  0  0  0  0  0  0  0  0  0
  139.4371  157.6211  133.8971 H   0  0  0  0  0  0  0  0  0  0  0  0
  140.9960  156.8449  134.4557 H   0  0  0  0  0  0  0  0  0  0  0  0
  142.5040  159.8370  134.7300 H   0  0  0  0  0  0  0  0  0  0  0  0
  146.9208  161.1571  133.2227 H   0  0  0  0  0  0  0  0  0  0  0  0
  149.0887  159.3436  132.7545 H   0  0  0  0  0  0  0  0  0  0  0  0
  149.6687  156.8962  132.6793 H   0  0  0  0  0  0  0  0  0  0  0  0
  145.5218  155.8880  133.5798 H   0  0  0  0  0  0  0  0  0  0  0  0
  1  2  1  0
  2  3  1  0
  3  4  1  0
  4  5  2  0
  4  6  1  0
  2  7  1  0
  7  8  2  0
  7  9  1  0
  9 10  2  0
  9 11  1  0
 11 12  1  0
 12 13  1  0
 13 14  1  0
 13 15  2  0
 12 16  2  0
 16 17  1  0
 17 18  2  0
 18 19  1  0
 19 20  2  0
 20 21  1  0
 21 22  1  0
 21 23  1  0
 21 24  1  0
 20 25  1  0
 25 26  2  0
 26 11  1  0
 26 17  1  0
  1 27  1  0
  1 28  1  0
  1 29  1  0
  2 30  1  1
  3 31  1  0
  3 32  1  0
 14 33  1  0
 16 34  1  0
 18 35  1  0
 19 36  1  0
 25 37  1  0
M  CHG  3   2   1   6  -1  14  -1
M  END
>  <UniqueID>  (19) 
18

>  <SMILES>  (19) 
C[N@@H+](CC(=O)[O-])C(=O)C(=O)n1c(C([NH-])=O)cc2ccc(C(F)(F)F)cc21

>  <Energy>  (19) 
80.68866698563943

>  <Genealogy>  (19) 
C[NH+](CC(=O)[O-])C(=O)C(=O)n1c(C([NH-])=O)cc2ccc(C(F)(F)F)cc21 (protonated)
C[N@@H+](CC(=O)[O-])C(=O)C(=O)n1c(C([NH-])=O)cc2ccc(C(F)(F)F)cc21 (chirality)
C[N@@H+](CC(=O)[O-])C(=O)C(=O)n1c(C([NH-])=O)cc2ccc(C(F)(F)F)cc21 (3D coordinates assigned)
C[N@@H+](CC(=O)[O-])C(=O)C(=O)n1c(C([NH-])=O)cc2ccc(C(F)(F)F)cc21 (optimized conformer: 80.68866698563943 kcal/mol)

>  <smiles>  (19) 
CN(CC(=O)O)C(=O)C(=O)n1c(C(N)=O)cc2ccc(C(F)(F)F)cc21

>  <score_type>  (19) 
oracle

>  <origin>  (19) 
adg

>  <m_score__min__energy>  (19) 
-4.8600000000000003

>  <m_primary>  (19) 
energy

$$$$
20:0
     RDKit          3D

 31 33  0  0  0  0  0  0  0  0999 V2000
  146.4900  161.4160  133.9160 N   0  0  0  0  0  0  0  0  0  0  0  0
  145.4640  160.4570  133.6790 C   0  0  0  0  0  0  0  0  0  0  0  0
  144.2610  160.8320  133.6620 O   0  0  0  0  0  0  0  0  0  0  0  0
  145.7870  159.0270  133.4830 C   0  0  0  0  0  0  0  0  0  0  0  0
  144.8230  158.0290  133.3420 C   0  0  0  0  0  0  0  0  0  0  0  0
  145.5310  156.8520  133.2320 C   0  0  0  0  0  0  0  0  0  0  0  0
  145.0800  155.5460  133.0710 C   0  0  0  0  0  0  0  0  0  0  0  0
  146.0400  154.5250  132.9670 C   0  0  0  0  0  0  0  0  0  0  0  0
  147.4270  154.8270  133.0000 C   0  0  0  0  0  0  0  0  0  0  0  0
  148.4470  153.7190  132.9320 C   0  0  0  0  0  0  0  0  0  0  0  0
  148.7930  153.2940  134.2040 F   0  0  0  0  0  0  0  0  0  0  0  0
  149.5790  154.1820  132.2890 F   0  0  0  0  0  0  0  0  0  0  0  0
  147.9440  152.6330  132.2360 F   0  0  0  0  0  0  0  0  0  0  0  0
  147.8430  156.1650  133.1860 C   0  0  0  0  0  0  0  0  0  0  0  0
  146.8640  157.1570  133.3030 C   0  0  0  0  0  0  0  0  0  0  0  0
  147.0370  158.4860  133.4640 N   0  0  0  0  0  0  0  0  0  0  0  0
  148.2940  159.1780  133.5110 C   0  0  0  0  0  0  0  0  0  0  0  0
  148.9210  159.2530  134.6030 O   0  0  0  0  0  0  0  0  0  0  0  0
  148.8560  159.8000  132.3020 C   0  0  0  0  0  0  0  0  0  0  0  0
  149.8010  159.2480  131.4570 C   0  0  0  0  0  0  0  0  0  0  0  0
  150.0280  160.1100  130.4900 O   0  0  0  0  0  0  0  0  0  0  0  0
  149.2590  161.1500  130.7200 C   0  0  0  0  0  0  0  0  0  0  0  0
  149.2240  162.1670  129.9800 O   0  0  0  0  0  0  0  0  0  0  0  0
  148.5090  161.0120  131.8280 N   0  0  0  0  0  0  0  0  0  0  0  0
  147.4280  161.1240  134.2700 H   0  0  0  0  0  0  0  0  0  0  0  0
  143.7304  158.1547  133.3227 H   0  0  0  0  0  0  0  0  0  0  0  0
  144.0045  155.3193  133.0264 H   0  0  0  0  0  0  0  0  0  0  0  0
  145.7133  153.4802  132.8588 H   0  0  0  0  0  0  0  0  0  0  0  0
  148.9118  156.4201  133.2375 H   0  0  0  0  0  0  0  0  0  0  0  0
  150.2778  158.2635  131.5729 H   0  0  0  0  0  0  0  0  0  0  0  0
  147.8140  161.6870  132.2170 H   0  0  0  0  0  0  0  0  0  0  0  0
  1  2  1  0
  2  3  2  0
  2  4  1  0
  4  5  2  0
  5  6  1  0
  6  7  2  0
  7  8  1  0
  8  9  2  0
  9 10  1  0
 10 11  1  0
 10 12  1  0
 10 13  1  0
  9 14  1  0
 14 15  2  0
 15 16  1  0
 16 17  1  0
 17 18  2  0
 17 19  1  0
 19 20  2  0
 20 21  1  0
 21 22  1  0
 22 23  2  0
 22 24  1  0
 16  4  1  0
 24 19  1  0
 15  6  1  0
  1 25  1  0
  5 26  1  0
  7 27  1  0
  8 28  1  0
 14 29  1  0
 20 30  1  0
 24 31  1  0
M  CHG  1   1  -1
M  END
>  <UniqueID>  (20) 
19

>  <SMILES>  (20) 
[NH-]C(=O)c1cc2ccc(C(F)(F)F)cc2n1C(=O)c1coc(=O)[nH]1

>  <Energy>  (20) 
105.37816255385553

>  <Genealogy>  (20) 
[NH-]C(=O)c1cc2ccc(C(F)(F)F)cc2n1C(=O)c1coc(=O)[nH]1 (protonated)
[NH-]C(=O)c1cc2ccc(C(F)(F)F)cc2n1C(=O)c1coc(=O)[nH]1 (3D coordinates assigned)
[NH-]C(=O)c1cc2ccc(C(F)(F)F)cc2n1C(=O)c1coc(=O)[nH]1 (optimized conformer: 105.37816255385553 kcal/mol)

>  <smiles>  (20) 
NC(=O)c1cc2ccc(C(F)(F)F)cc2n1C(=O)c1coc(=O)[nH]1

>  <score_type>  (20) 
oracle

>  <origin>  (20) 
adg

>  <m_score__min__energy>  (20) 
-6.8300000000000001

>  <m_primary>  (20) 
energy

$$$$
21:0
     RDKit          3D

 45 46  0  0  0  0  0  0  0  0999 V2000
  138.8300  148.9130  130.3250 C   0  0  0  0  0  0  0  0  0  0  0  0
  140.2010  149.1470  130.5590 O   0  0  0  0  0  0  0  0  0  0  0  0
  140.4850  149.0770  131.9440 C   0  0  0  0  0  0  0  0  0  0  0  0
  141.9840  149.2600  132.1850 C   0  0  0  0  0  0  0  0  0  0  0  0
  142.2070  150.3450  133.0650 O   0  0  0  0  0  0  0  0  0  0  0  0
  141.5000  151.4880  132.6340 C   0  0  0  0  0  0  0  0  0  0  0  0
  141.9410  152.6610  133.4430 C   0  0  0  0  0  0  0  0  0  0  0  0
  141.9200  152.5980  134.7020 O   0  0  0  0  0  0  0  0  0  0  0  0
  142.3270  153.8370  132.7910 O   0  0  0  0  0  0  0  0  0  0  0  0
  143.6070  154.0040  132.1930 C   0  0  0  0  0  0  0  0  0  0  0  0
  144.5110  154.5560  133.1460 O   0  0  0  0  0  0  0  0  0  0  0  0
  144.0970  155.3980  134.1820 C   0  0  0  0  0  0  0  0  0  0  0  0
  143.9590  154.9450  135.3520 O   0  0  0  0  0  0  0  0  0  0  0  0
  143.8090  156.7790  133.9080 N   0  0  0  0  0  0  0  0  0  0  0  0
  142.5900  157.3880  133.9020 C   0  0  0  0  0  0  0  0  0  0  0  0
  141.2810  156.7130  134.0190 C   0  0  0  0  0  0  0  0  0  0  0  0
  141.1660  155.5130  134.7800 N   0  0  0  0  0  0  0  0  0  0  0  0
  140.2520  157.2050  133.4850 O   0  0  0  0  0  0  0  0  0  0  0  0
  142.7290  158.7590  133.6910 C   0  0  0  0  0  0  0  0  0  0  0  0
  144.0810  158.9710  133.5590 C   0  0  0  0  0  0  0  0  0  0  0  0
  144.7840  160.1550  133.3600 C   0  0  0  0  0  0  0  0  0  0  0  0
  146.1860  160.0890  133.3040 C   0  0  0  0  0  0  0  0  0  0  0  0
  146.8590  158.8470  133.4350 C   0  0  0  0  0  0  0  0  0  0  0  0
  148.3660  158.7970  133.4380 C   0  0  0  0  0  0  0  0  0  0  0  0
  148.8580  158.9710  134.7200 F   0  0  0  0  0  0  0  0  0  0  0  0
  148.8160  157.5770  132.9640 F   0  0  0  0  0  0  0  0  0  0  0  0
  148.8550  159.8040  132.6270 F   0  0  0  0  0  0  0  0  0  0  0  0
  146.1090  157.6690  133.6600 C   0  0  0  0  0  0  0  0  0  0  0  0
  144.7130  157.7620  133.6940 C   0  0  0  0  0  0  0  0  0  0  0  0
  138.3040  148.8232  131.2869 H   0  0  0  0  0  0  0  0  0  0  0  0
  138.4073  149.7520  129.7528 H   0  0  0  0  0  0  0  0  0  0  0  0
  138.7095  147.9813  129.7528 H   0  0  0  0  0  0  0  0  0  0  0  0
  139.9329  149.8706  132.4688 H   0  0  0  0  0  0  0  0  0  0  0  0
  140.1777  148.0916  132.3243 H   0  0  0  0  0  0  0  0  0  0  0  0
  142.3958  148.3415  132.6286 H   0  0  0  0  0  0  0  0  0  0  0  0
  142.4798  149.4676  131.2253 H   0  0  0  0  0  0  0  0  0  0  0  0
  141.7100  151.6730  131.5702 H   0  0  0  0  0  0  0  0  0  0  0  0
  140.4193  151.3296  132.7646 H   0  0  0  0  0  0  0  0  0  0  0  0
  143.9832  153.0274  131.8544 H   0  0  0  0  0  0  0  0  0  0  0  0
  143.5225  154.6842  131.3327 H   0  0  0  0  0  0  0  0  0  0  0  0
  141.8900  154.7640  134.7150 H   0  0  0  0  0  0  0  0  0  0  0  0
  141.9277  159.5110  133.6408 H   0  0  0  0  0  0  0  0  0  0  0  0
  144.2574  161.1145  133.2498 H   0  0  0  0  0  0  0  0  0  0  0  0
  146.7685  161.0105  133.1570 H   0  0  0  0  0  0  0  0  0  0  0  0
  146.6118  156.7014  133.8050 H   0  0  0  0  0  0  0  0  0  0  0  0
  1  2  1  0
  2  3  1  0
  3  4  1  0
  4  5  1  0
  5  6  1  0
  6  7  1  0
  7  8  2  0
  7  9  1  0
  9 10  1  0
 10 11  1  0
 11 12  1  0
 12 13  2  0
 12 14  1  0
 14 15  1  0
 15 16  1  0
 16 17  1  0
 16 18  2  0
 15 19  2  0
 19 20  1  0
 20 21  2  0
 21 22  1  0
 22 23  2  0
 23 24  1  0
 24 25  1  0
 24 26  1  0
 24 27  1  0
 23 28  1  0
 28 29  2  0
 29 14  1  0
 29 20  1  0
  1 30  1  0
  1 31  1  0
  1 32  1  0
  3 33  1  0
  3 34  1  0
  4 35  1  0
  4 36  1  0
  6 37  1  0
  6 38  1  0
 10 39  1  0
 10 40  1  0
 17 41  1  0
 19 42  1  0
 21 43  1  0
 22 44  1  0
 28 45  1  0
M  CHG  1  17  -1
M  END
>  <UniqueID>  (21) 
20

>  <SMILES>  (21) 
COCCOCC(=O)OCOC(=O)n1c(C([NH-])=O)cc2ccc(C(F)(F)F)cc21

>  <Energy>  (21) 
81.785204485789

>  <Genealogy>  (21) 
COCCOCC(=O)OCOC(=O)n1c(C([NH-])=O)cc2ccc(C(F)(F)F)cc21 (protonated)
COCCOCC(=O)OCOC(=O)n1c(C([NH-])=O)cc2ccc(C(F)(F)F)cc21 (3D coordinates assigned)
COCCOCC(=O)OCOC(=O)n1c(C([NH-])=O)cc2ccc(C(F)(F)F)cc21 (optimized conformer: 81.785204485789 kcal/mol)

>  <smiles>  (21) 
COCCOCC(=O)OCOC(=O)n1c(C(N)=O)cc2ccc(C(F)(F)F)cc21

>  <score_type>  (21) 
oracle

>  <origin>  (21) 
adg

>  <m_score__min__energy>  (21) 
-5.9100000000000001

>  <m_primary>  (21) 
energy

$$$$
22:0
     RDKit          3D

 31 32  0  0  0  0  0  0  0  0999 V2000
  145.0700  161.4910  134.1320 C   0  0  0  0  0  0  0  0  0  0  0  0
  144.7930  160.0650  133.9280 N   0  0  0  0  0  0  0  0  0  0  0  0
  145.8830  159.1900  133.5640 C   0  0  0  0  0  0  0  0  0  0  0  0
  147.0350  159.7060  132.9130 C   0  0  0  0  0  0  0  0  0  0  0  0
  148.0990  158.8600  132.5560 C   0  0  0  0  0  0  0  0  0  0  0  0
  147.9930  157.5100  132.8710 C   0  0  0  0  0  0  0  0  0  0  0  0
  148.8560  156.4680  132.6180 C   0  0  0  0  0  0  0  0  0  0  0  0
  148.2320  155.3340  133.1380 C   0  0  0  0  0  0  0  0  0  0  0  0
  148.8320  153.9850  133.1200 C   0  0  0  0  0  0  0  0  0  0  0  0
  148.2730  152.9470  133.9230 N   0  0  0  0  0  0  0  0  0  0  0  0
  149.8240  153.7300  132.3870 O   0  0  0  0  0  0  0  0  0  0  0  0
  147.0330  155.6650  133.6930 N   0  0  0  0  0  0  0  0  0  0  0  0
  146.0670  154.7810  134.2830 C   0  0  0  0  0  0  0  0  0  0  0  0
  145.2510  154.1670  133.5460 O   0  0  0  0  0  0  0  0  0  0  0  0
  146.0170  154.5740  135.7350 C   0  0  0  0  0  0  0  0  0  0  0  0
  146.6810  153.6510  136.2760 O   0  0  0  0  0  0  0  0  0  0  0  0
  146.8990  156.9970  133.5180 C   0  0  0  0  0  0  0  0  0  0  0  0
  145.8160  157.8120  133.8680 C   0  0  0  0  0  0  0  0  0  0  0  0
  143.4000  159.5940  133.9030 C   0  0  0  0  0  0  0  0  0  0  0  0
  143.2560  158.5740  132.9780 F   0  0  0  0  0  0  0  0  0  0  0  0
  143.0480  159.1220  135.1550 F   0  0  0  0  0  0  0  0  0  0  0  0
  142.5440  160.6220  133.5440 F   0  0  0  0  0  0  0  0  0  0  0  0
  145.1117  161.7058  135.2100 H   0  0  0  0  0  0  0  0  0  0  0  0
  146.0347  161.7470  133.6695 H   0  0  0  0  0  0  0  0  0  0  0  0
  144.2713  162.0895  133.6695 H   0  0  0  0  0  0  0  0  0  0  0  0
  147.0952  160.7805  132.6855 H   0  0  0  0  0  0  0  0  0  0  0  0
  148.9887  159.2540  132.0429 H   0  0  0  0  0  0  0  0  0  0  0  0
  149.8317  156.5188  132.1125 H   0  0  0  0  0  0  0  0  0  0  0  0
  147.2910  153.0090  134.2740 H   0  0  0  0  0  0  0  0  0  0  0  0
  145.3928  155.2321  136.3573 H   0  0  0  0  0  0  0  0  0  0  0  0
  144.9326  157.3889  134.3685 H   0  0  0  0  0  0  0  0  0  0  0  0
  1  2  1  0
  2  3  1  0
  3  4  2  0
  4  5  1  0
  5  6  2  0
  6  7  1  0
  7  8  2  0
  8  9  1  0
  9 10  1  0
  9 11  2  0
  8 12  1  0
 12 13  1  0
 13 14  2  0
 13 15  1  0
 15 16  2  0
 12 17  1  0
 17 18  2  0
  2 19  1  0
 19 20  1  0
 19 21  1  0
 19 22  1  0
 18  3  1  0
 17  6  1  0
  1 23  1  0
  1 24  1  0
  1 25  1  0
  4 26  1  0
  5 27  1  0
  7 28  1  0
 10 29  1  0
 15 30  1  0
 18 31  1  0
M  CHG  1  10  -1
M  END
>  <UniqueID>  (22) 
21

>  <SMILES>  (22) 
CN(c1ccc2cc(C([NH-])=O)n(C(=O)C=O)c2c1)C(F)(F)F

>  <Energy>  (22) 
73.76017163483472

>  <Genealogy>  (22) 
CN(c1ccc2cc(C([NH-])=O)n(C(=O)C=O)c2c1)C(F)(F)F (protonated)
CN(c1ccc2cc(C([NH-])=O)n(C(=O)C=O)c2c1)C(F)(F)F (3D coordinates assigned)
CN(c1ccc2cc(C([NH-])=O)n(C(=O)C=O)c2c1)C(F)(F)F (optimized conformer: 73.76017163483472 kcal/mol)

>  <smiles>  (22) 
CN(c1ccc2cc(C(N)=O)n(C(=O)C=O)c2c1)C(F)(F)F

>  <score_type>  (22) 
oracle

>  <origin>  (22) 
adg

>  <m_score__min__energy>  (22) 
-5.2699999999999996

>  <m_primary>  (22) 
energy

$$$$
23:0
     RDKit          3D

 38 40  0  0  0  0  0  0  0  0999 V2000
  146.1890  153.0000  134.2530 N   0  0  0  0  0  0  0  0  0  0  0  0
  146.7050  154.1160  134.9760 C   0  0  0  0  0  0  0  0  0  0  0  0
  146.9290  154.0010  136.2090 O   0  0  0  0  0  0  0  0  0  0  0  0
  146.9290  155.4010  134.2820 C   0  0  0  0  0  0  0  0  0  0  0  0
  146.2730  156.5810  134.6250 C   0  0  0  0  0  0  0  0  0  0  0  0
  146.8210  157.5510  133.8190 C   0  0  0  0  0  0  0  0  0  0  0  0
  146.5350  158.9090  133.7330 C   0  0  0  0  0  0  0  0  0  0  0  0
  147.2410  159.6750  132.7900 C   0  0  0  0  0  0  0  0  0  0  0  0
  148.2120  159.0740  131.9470 C   0  0  0  0  0  0  0  0  0  0  0  0
  148.9380  159.9050  130.9560 C   0  0  0  0  0  0  0  0  0  0  0  0
  149.1130  161.2360  131.0650 N   0  0  0  0  0  0  0  0  0  0  0  0
  149.8060  161.5840  129.9900 N   0  0  0  0  0  0  0  0  0  0  0  0
  150.0510  160.5160  129.2460 N   0  0  0  0  0  0  0  0  0  0  0  0
  149.5190  159.4570  129.8270 N   0  0  0  0  0  0  0  0  0  0  0  0
  148.4700  157.6880  132.0630 C   0  0  0  0  0  0  0  0  0  0  0  0
  147.7650  156.9540  133.0250 C   0  0  0  0  0  0  0  0  0  0  0  0
  147.8400  155.6310  133.2930 N   0  0  0  0  0  0  0  0  0  0  0  0
  148.6770  154.6760  132.6200 C   0  0  0  0  0  0  0  0  0  0  0  0
  149.8620  154.9790  132.3150 O   0  0  0  0  0  0  0  0  0  0  0  0
  148.1740  153.4030  132.3280 O   0  0  0  0  0  0  0  0  0  0  0  0
  148.9940  152.2540  132.1050 C   0  0  0  0  0  0  0  0  0  0  0  0
  149.7300  151.8510  133.3950 C   0  0  0  0  0  0  0  0  0  0  0  0
  148.8670  151.9240  134.4970 O   0  0  0  0  0  0  0  0  0  0  0  0
  148.1270  151.1090  131.5620 C   0  0  0  0  0  0  0  0  0  0  0  0
  147.1980  150.6710  132.5180 O   0  0  0  0  0  0  0  0  0  0  0  0
  146.8210  152.3800  133.6990 H   0  0  0  0  0  0  0  0  0  0  0  0
  145.4839  156.7096  135.3805 H   0  0  0  0  0  0  0  0  0  0  0  0
  145.7780  159.3703  134.3843 H   0  0  0  0  0  0  0  0  0  0  0  0
  147.0388  160.7528  132.7041 H   0  0  0  0  0  0  0  0  0  0  0  0
  149.5720  158.4850  129.4530 H   0  0  0  0  0  0  0  0  0  0  0  0
  149.2084  157.1974  131.4117 H   0  0  0  0  0  0  0  0  0  0  0  0
  149.7648  152.4917  131.3570 H   0  0  0  0  0  0  0  0  0  0  0  0
  150.1004  150.8203  133.2932 H   0  0  0  0  0  0  0  0  0  0  0  0
  150.5703  152.5425  133.5554 H   0  0  0  0  0  0  0  0  0  0  0  0
  147.9620  152.0960  134.1270 H   0  0  0  0  0  0  0  0  0  0  0  0
  147.5851  151.4617  130.6721 H   0  0  0  0  0  0  0  0  0  0  0  0
  148.7867  150.2658  131.3094 H   0  0  0  0  0  0  0  0  0  0  0  0
  147.1950  151.3470  133.2450 H   0  0  0  0  0  0  0  0  0  0  0  0
  1  2  1  0
  2  3  2  0
  2  4  1  0
  4  5  2  0
  5  6  1  0
  6  7  2  0
  7  8  1  0
  8  9  2  0
  9 10  1  0
 10 11  2  0
 11 12  1  0
 12 13  1  0
 13 14  2  0
  9 15  1  0
 15 16  2  0
 16 17  1  0
 17 18  1  0
 18 19  2  0
 18 20  1  0
 20 21  1  0
 21 22  1  0
 22 23  1  0
 21 24  1  0
 24 25  1  0
 17  4  1  0
 16  6  1  0
 14 10  1  0
  1 26  1  0
  5 27  1  0
  7 28  1  0
  8 29  1  0
 14 30  1  0
 15 31  1  0
 21 32  1  0
 22 33  1  0
 22 34  1  0
 23 35  1  0
 24 36  1  0
 24 37  1  0
 25 38  1  0
M  CHG  3   1  -1  12  -1  14   1
M  END
>  <UniqueID>  (23) 
22

>  <SMILES>  (23) 
[NH-]C(=O)c1cc2ccc(-c3n[n-]n[nH+]3)cc2n1C(=O)OC(CO)CO

>  <Energy>  (23) 
114.3140349061555

>  <Genealogy>  (23) 
[NH-]C(=O)c1cc2ccc(-c3n[n-]n[nH+]3)cc2n1C(=O)OC(CO)CO (protonated)
[NH-]C(=O)c1cc2ccc(-c3n[n-]n[nH+]3)cc2n1C(=O)OC(CO)CO (3D coordinates assigned)
[NH-]C(=O)c1cc2ccc(-c3n[n-]n[nH+]3)cc2n1C(=O)OC(CO)CO (optimized conformer: 114.3140349061555 kcal/mol)

>  <smiles>  (23) 
NC(=O)c1cc2ccc(-c3nn[nH]n3)cc2n1C(=O)OC(CO)CO

>  <score_type>  (23) 
oracle

>  <origin>  (23) 
adg

>  <m_score__min__energy>  (23) 
-7.0199999999999996

>  <m_primary>  (23) 
energy

$$$$
24:0
     RDKit          3D

 36 37  0  0  0  0  0  0  0  0999 V2000
  137.9430  160.4660  129.9710 C   0  0  0  0  0  0  0  0  0  0  0  0
  137.7330  159.5140  131.1420 C   0  0  0  0  0  0  0  0  0  0  0  0
  139.2910  159.0620  131.8880 S   0  0  0  0  0  0  0  0  0  0  0  0
  140.3470  158.9930  130.8240 O   0  0  0  0  0  0  0  0  0  0  0  0
  139.6910  160.0880  132.9130 O   0  0  0  0  0  0  0  0  0  0  0  0
  139.1250  157.4500  132.6460 C   0  0  0  0  0  0  0  0  0  0  0  0
  139.9950  157.2930  133.8620 C   0  0  0  0  0  0  0  0  0  0  0  0
  139.4930  157.3770  135.0140 O   0  0  0  0  0  0  0  0  0  0  0  0
  141.3700  156.9010  133.7200 N   0  0  0  0  0  0  0  0  0  0  0  0
  142.4770  157.6960  133.7350 C   0  0  0  0  0  0  0  0  0  0  0  0
  142.4990  159.1310  134.0720 C   0  0  0  0  0  0  0  0  0  0  0  0
  142.3280  160.1070  133.0490 N   0  0  0  0  0  0  0  0  0  0  0  0
  142.7120  159.5060  135.2560 O   0  0  0  0  0  0  0  0  0  0  0  0
  143.6210  156.9450  133.4740 C   0  0  0  0  0  0  0  0  0  0  0  0
  143.1760  155.6520  133.3130 C   0  0  0  0  0  0  0  0  0  0  0  0
  143.8920  154.4800  133.0790 C   0  0  0  0  0  0  0  0  0  0  0  0
  143.1720  153.2760  132.9820 C   0  0  0  0  0  0  0  0  0  0  0  0
  141.7560  153.2660  133.0890 C   0  0  0  0  0  0  0  0  0  0  0  0
  140.9980  151.9680  133.0120 C   0  0  0  0  0  0  0  0  0  0  0  0
  141.6090  151.1360  132.0940 F   0  0  0  0  0  0  0  0  0  0  0  0
  140.9820  151.3420  134.2460 F   0  0  0  0  0  0  0  0  0  0  0  0
  139.6890  152.1850  132.6200 F   0  0  0  0  0  0  0  0  0  0  0  0
  141.0680  154.4760  133.3500 C   0  0  0  0  0  0  0  0  0  0  0  0
  141.8150  155.6540  133.4620 C   0  0  0  0  0  0  0  0  0  0  0  0
  138.1652  161.4734  130.3527 H   0  0  0  0  0  0  0  0  0  0  0  0
  138.7847  160.1125  129.3574 H   0  0  0  0  0  0  0  0  0  0  0  0
  137.0306  160.4994  129.3574 H   0  0  0  0  0  0  0  0  0  0  0  0
  137.1023  160.0063  131.8969 H   0  0  0  0  0  0  0  0  0  0  0  0
  137.2461  158.6013  130.7681 H   0  0  0  0  0  0  0  0  0  0  0  0
  138.0755  157.3059  132.9422 H   0  0  0  0  0  0  0  0  0  0  0  0
  139.4438  156.6993  131.9079 H   0  0  0  0  0  0  0  0  0  0  0  0
  141.7400  159.9100  132.2110 H   0  0  0  0  0  0  0  0  0  0  0  0
  144.6576  157.3074  133.4102 H   0  0  0  0  0  0  0  0  0  0  0  0
  144.9868  154.4960  132.9734 H   0  0  0  0  0  0  0  0  0  0  0  0
  143.7118  152.3311  132.8214 H   0  0  0  0  0  0  0  0  0  0  0  0
  139.9738  154.4895  133.4619 H   0  0  0  0  0  0  0  0  0  0  0  0
  1  2  1  0
  2  3  1  0
  3  4  2  0
  3  5  2  0
  3  6  1  0
  6  7  1  0
  7  8  2  0
  7  9  1  0
  9 10  1  0
 10 11  1  0
 11 12  1  0
 11 13  2  0
 10 14  2  0
 14 15  1  0
 15 16  2  0
 16 17  1  0
 17 18  2  0
 18 19  1  0
 19 20  1  0
 19 21  1  0
 19 22  1  0
 18 23  1  0
 23 24  2  0
 24  9  1  0
 24 15  1  0
  1 25  1  0
  1 26  1  0
  1 27  1  0
  2 28  1  0
  2 29  1  0
  6 30  1  0
  6 31  1  0
 12 32  1  0
 14 33  1  0
 16 34  1  0
 17 35  1  0
 23 36  1  0
M  CHG  1  12  -1
M  END
>  <UniqueID>  (24) 
23

>  <SMILES>  (24) 
CCS(=O)(=O)CC(=O)n1c(C([NH-])=O)cc2ccc(C(F)(F)F)cc21

>  <Energy>  (24) 
67.83829309668434

>  <Genealogy>  (24) 
CCS(=O)(=O)CC(=O)n1c(C([NH-])=O)cc2ccc(C(F)(F)F)cc21 (protonated)
CCS(=O)(=O)CC(=O)n1c(C([NH-])=O)cc2ccc(C(F)(F)F)cc21 (3D coordinates assigned)
CCS(=O)(=O)CC(=O)n1c(C([NH-])=O)cc2ccc(C(F)(F)F)cc21 (optimized conformer: 67.83829309668434 kcal/mol)

>  <smiles>  (24) 
CCS(=O)(=O)CC(=O)n1c(C(N)=O)cc2ccc(C(F)(F)F)cc21

>  <score_type>  (24) 
oracle

>  <origin>  (24) 
adg

>  <m_score__min__energy>  (24) 
-6.3099999999999996

>  <m_primary>  (24) 
energy

$$$$
25:0
     RDKit          3D

 34 35  0  0  0  0  0  0  0  0999 V2000
  148.4830  161.2860  131.2870 C   0  0  0  0  0  0  0  0  0  0  0  0
  149.1050  159.9870  131.0070 N   0  0  0  0  0  0  0  0  0  0  0  0
  149.6610  159.7250  129.6750 C   0  0  0  0  0  0  0  0  0  0  0  0
  149.2660  158.9790  132.0330 C   0  0  0  0  0  0  0  0  0  0  0  0
  150.1260  158.0710  131.8680 O   0  0  0  0  0  0  0  0  0  0  0  0
  148.4640  158.9580  133.2820 C   0  0  0  0  0  0  0  0  0  0  0  0
  148.8340  159.5930  134.3040 O   0  0  0  0  0  0  0  0  0  0  0  0
  147.2380  158.2140  133.3360 N   0  0  0  0  0  0  0  0  0  0  0  0
  145.9700  158.7100  133.4050 C   0  0  0  0  0  0  0  0  0  0  0  0
  145.6110  160.1370  133.5320 C   0  0  0  0  0  0  0  0  0  0  0  0
  146.6300  161.1100  133.7530 N   0  0  0  0  0  0  0  0  0  0  0  0
  144.4130  160.5110  133.4310 O   0  0  0  0  0  0  0  0  0  0  0  0
  145.0410  157.6720  133.3780 C   0  0  0  0  0  0  0  0  0  0  0  0
  145.7850  156.5170  133.2830 C   0  0  0  0  0  0  0  0  0  0  0  0
  145.3760  155.1900  133.1890 C   0  0  0  0  0  0  0  0  0  0  0  0
  146.3690  154.2030  133.0620 C   0  0  0  0  0  0  0  0  0  0  0  0
  147.7440  154.5530  133.0410 C   0  0  0  0  0  0  0  0  0  0  0  0
  148.7940  153.4890  132.8430 C   0  0  0  0  0  0  0  0  0  0  0  0
  148.3880  152.5710  131.8900 F   0  0  0  0  0  0  0  0  0  0  0  0
  149.0060  152.8320  134.0400 F   0  0  0  0  0  0  0  0  0  0  0  0
  149.9850  154.0530  132.4200 F   0  0  0  0  0  0  0  0  0  0  0  0
  148.1160  155.9150  133.1120 C   0  0  0  0  0  0  0  0  0  0  0  0
  147.1080  156.8740  133.2560 C   0  0  0  0  0  0  0  0  0  0  0  0
  148.4130  161.4321  132.3750 H   0  0  0  0  0  0  0  0  0  0  0  0
  149.0949  162.0878  130.8480 H   0  0  0  0  0  0  0  0  0  0  0  0
  147.4748  161.3120  130.8480 H   0  0  0  0  0  0  0  0  0  0  0  0
  150.6518  159.2581  129.7766 H   0  0  0  0  0  0  0  0  0  0  0  0
  148.9912  159.0478  129.1248 H   0  0  0  0  0  0  0  0  0  0  0  0
  149.7569  160.6727  129.1248 H   0  0  0  0  0  0  0  0  0  0  0  0
  147.4520  160.8980  134.3610 H   0  0  0  0  0  0  0  0  0  0  0  0
  143.9452  157.7570  133.4230 H   0  0  0  0  0  0  0  0  0  0  0  0
  144.3094  154.9219  133.2133 H   0  0  0  0  0  0  0  0  0  0  0  0
  146.0764  153.1460  132.9778 H   0  0  0  0  0  0  0  0  0  0  0  0
  149.1732  156.2136  133.0553 H   0  0  0  0  0  0  0  0  0  0  0  0
  1  2  1  0
  2  3  1  0
  2  4  1  0
  4  5  2  0
  4  6  1  0
  6  7  2  0
  6  8  1  0
  8  9  1  0
  9 10  1  0
 10 11  1  0
 10 12  2  0
  9 13  2  0
 13 14  1  0
 14 15  2  0
 15 16  1  0
 16 17  2  0
 17 18  1  0
 18 19  1  0
 18 20  1  0
 18 21  1  0
 17 22  1  0
 22 23  2  0
 23  8  1  0
 23 14  1  0
  1 24  1  0
  1 25  1  0
  1 26  1  0
  3 27  1  0
  3 28  1  0
  3 29  1  0
 11 30  1  0
 13 31  1  0
 15 32  1  0
 16 33  1  0
 22 34  1  0
M  CHG  1  11  -1
M  END
>  <UniqueID>  (25) 
24

>  <SMILES>  (25) 
CN(C)C(=O)C(=O)n1c(C([NH-])=O)cc2ccc(C(F)(F)F)cc21

>  <Energy>  (25) 
74.64296889650878

>  <Genealogy>  (25) 
CN(C)C(=O)C(=O)n1c(C([NH-])=O)cc2ccc(C(F)(F)F)cc21 (protonated)
CN(C)C(=O)C(=O)n1c(C([NH-])=O)cc2ccc(C(F)(F)F)cc21 (3D coordinates assigned)
CN(C)C(=O)C(=O)n1c(C([NH-])=O)cc2ccc(C(F)(F)F)cc21 (optimized conformer: 74.64296889650878 kcal/mol)

>  <smiles>  (25) 
CN(C)C(=O)C(=O)n1c(C(N)=O)cc2ccc(C(F)(F)F)cc21

>  <score_type>  (25) 
oracle

>  <origin>  (25) 
adg

>  <m_score__min__energy>  (25) 
-6.1900000000000004

>  <m_primary>  (25) 
energy

$$$$
26:0
     RDKit          3D

 45 46  0  0  0  0  0  0  0  0999 V2000
  140.1820  158.0300  132.9760 C   0  0  0  0  0  0  0  0  0  0  0  0
  141.0370  158.3450  134.1360 N   0  0  2  0  0  0  0  0  0  0  0  0
  140.2960  158.2520  135.4160 C   0  0  0  0  0  0  0  0  0  0  0  0
  140.9760  157.3140  136.4230 C   0  0  0  0  0  0  0  0  0  0  0  0
  142.3600  157.3300  136.2120 O   0  0  0  0  0  0  0  0  0  0  0  0
  141.5770  159.6840  133.9840 C   0  0  0  0  0  0  0  0  0  0  0  0
  140.9540  160.5300  133.3550 O   0  0  0  0  0  0  0  0  0  0  0  0
  142.9000  160.0630  134.6010 C   0  0  0  0  0  0  0  0  0  0  0  0
  144.0320  159.9100  133.5830 C   0  0  0  0  0  0  0  0  0  0  0  0
  144.1350  158.4840  133.1340 C   0  0  0  0  0  0  0  0  0  0  0  0
  143.1390  157.9210  132.6070 O   0  0  0  0  0  0  0  0  0  0  0  0
  145.3180  157.7230  133.4090 N   0  0  0  0  0  0  0  0  0  0  0  0
  145.4160  156.5420  134.0810 C   0  0  0  0  0  0  0  0  0  0  0  0
  144.3090  155.8510  134.7730 C   0  0  0  0  0  0  0  0  0  0  0  0
  143.0160  155.8030  134.1740 N   0  0  0  0  0  0  0  0  0  0  0  0
  144.5000  155.2810  135.8810 O   0  0  0  0  0  0  0  0  0  0  0  0
  146.7360  156.0920  134.0790 C   0  0  0  0  0  0  0  0  0  0  0  0
  147.4450  157.0460  133.3810 C   0  0  0  0  0  0  0  0  0  0  0  0
  148.8000  157.1120  133.0720 C   0  0  0  0  0  0  0  0  0  0  0  0
  149.2520  158.2130  132.3240 C   0  0  0  0  0  0  0  0  0  0  0  0
  148.3460  159.2130  131.8820 C   0  0  0  0  0  0  0  0  0  0  0  0
  148.8500  160.4090  131.1160 C   0  0  0  0  0  0  0  0  0  0  0  0
  148.4490  161.5640  131.7610 F   0  0  0  0  0  0  0  0  0  0  0  0
  150.2310  160.3930  131.0380 F   0  0  0  0  0  0  0  0  0  0  0  0
  148.3430  160.4130  129.8280 F   0  0  0  0  0  0  0  0  0  0  0  0
  146.9800  159.1200  132.2380 C   0  0  0  0  0  0  0  0  0  0  0  0
  146.5640  158.0180  132.9900 C   0  0  0  0  0  0  0  0  0  0  0  0
  139.2042  157.6697  133.3283 H   0  0  0  0  0  0  0  0  0  0  0  0
  140.0416  158.9354  132.3673 H   0  0  0  0  0  0  0  0  0  0  0  0
  140.6626  157.2499  132.3673 H   0  0  0  0  0  0  0  0  0  0  0  0
  141.8230  157.6550  134.1490 H   0  0  0  0  0  0  0  0  0  0  0  0
  140.2299  159.2567  135.8590 H   0  0  0  0  0  0  0  0  0  0  0  0
  139.3000  157.8402  135.1960 H   0  0  0  0  0  0  0  0  0  0  0  0
  140.7568  157.6530  137.4463 H   0  0  0  0  0  0  0  0  0  0  0  0
  140.5954  156.2909  136.2872 H   0  0  0  0  0  0  0  0  0  0  0  0
  142.6160  156.3960  135.9960 H   0  0  0  0  0  0  0  0  0  0  0  0
  142.8555  161.1093  134.9377 H   0  0  0  0  0  0  0  0  0  0  0  0
  143.0975  159.3971  135.4540 H   0  0  0  0  0  0  0  0  0  0  0  0
  143.8272  160.5510  132.7128 H   0  0  0  0  0  0  0  0  0  0  0  0
  144.9806  160.2075  134.0537 H   0  0  0  0  0  0  0  0  0  0  0  0
  142.3810  156.6320  134.2040 H   0  0  0  0  0  0  0  0  0  0  0  0
  147.1279  155.1718  134.5369 H   0  0  0  0  0  0  0  0  0  0  0  0
  149.4960  156.3270  133.4028 H   0  0  0  0  0  0  0  0  0  0  0  0
  150.3205  158.3009  132.0781 H   0  0  0  0  0  0  0  0  0  0  0  0
  146.2632  159.8957  131.9306 H   0  0  0  0  0  0  0  0  0  0  0  0
  1  2  1  0
  2  3  1  0
  3  4  1  0
  4  5  1  0
  2  6  1  0
  6  7  2  0
  6  8  1  0
  8  9  1  0
  9 10  1  0
 10 11  2  0
 10 12  1  0
 12 13  1  0
 13 14  1  0
 14 15  1  0
 14 16  2  0
 13 17  2  0
 17 18  1  0
 18 19  2  0
 19 20  1  0
 20 21  2  0
 21 22  1  0
 22 23  1  0
 22 24  1  0
 22 25  1  0
 21 26  1  0
 26 27  2  0
 27 12  1  0
 27 18  1  0
  1 28  1  0
  1 29  1  0
  1 30  1  0
  2 31  1  1
  3 32  1  0
  3 33  1  0
  4 34  1  0
  4 35  1  0
  5 36  1  0
  8 37  1  0
  8 38  1  0
  9 39  1  0
  9 40  1  0
 15 41  1  0
 17 42  1  0
 19 43  1  0
 20 44  1  0
 26 45  1  0
M  CHG  2   2   1  15  -1
M  END
>  <UniqueID>  (26) 
25

>  <SMILES>  (26) 
C[N@H+](CCO)C(=O)CCC(=O)n1c(C([NH-])=O)cc2ccc(C(F)(F)F)cc21

>  <Energy>  (26) 
79.61848000835904

>  <Genealogy>  (26) 
C[NH+](CCO)C(=O)CCC(=O)n1c(C([NH-])=O)cc2ccc(C(F)(F)F)cc21 (protonated)
C[N@H+](CCO)C(=O)CCC(=O)n1c(C([NH-])=O)cc2ccc(C(F)(F)F)cc21 (chirality)
C[N@H+](CCO)C(=O)CCC(=O)n1c(C([NH-])=O)cc2ccc(C(F)(F)F)cc21 (3D coordinates assigned)
C[N@H+](CCO)C(=O)CCC(=O)n1c(C([NH-])=O)cc2ccc(C(F)(F)F)cc21 (optimized conformer: 79.61848000835904 kcal/mol)

>  <smiles>  (26) 
CN(CCO)C(=O)CCC(=O)n1c(C(N)=O)cc2ccc(C(F)(F)F)cc21

>  <score_type>  (26) 
oracle

>  <origin>  (26) 
adg

>  <m_score__min__energy>  (26) 
-4.9900000000000002

>  <m_primary>  (26) 
energy

$$$$
27:0
     RDKit          3D

 36 37  0  0  0  0  0  0  0  0999 V2000
  145.2750  161.5140  133.0620 H   0  0  0  0  0  0  0  0  0  0  0  0
  144.6520  160.7240  133.3340 N   0  0  0  0  0  0  0  0  0  0  0  0
  145.0310  159.4820  133.3910 C   0  0  0  0  0  0  0  0  0  0  0  0
  144.1200  158.4820  133.7690 O   0  0  0  0  0  0  0  0  0  0  0  0
  142.8690  158.6870  134.3690 C   0  0  0  0  0  0  0  0  0  0  0  0
  142.7730  159.2740  135.4810 O   0  0  0  0  0  0  0  0  0  0  0  0
  141.6880  158.1870  133.7230 N   0  0  0  0  0  0  0  0  0  0  0  0
  140.6660  158.9040  133.1720 C   0  0  0  0  0  0  0  0  0  0  0  0
  140.6320  160.3690  132.9850 C   0  0  0  0  0  0  0  0  0  0  0  0
  139.7310  160.8870  132.2720 O   0  0  0  0  0  0  0  0  0  0  0  0
  141.6370  161.2060  133.5540 N   0  0  0  0  0  0  0  0  0  0  0  0
  142.5320  160.8040  133.9090 H   0  0  0  0  0  0  0  0  0  0  0  0
  139.6630  158.0520  132.7160 C   0  0  0  0  0  0  0  0  0  0  0  0
  138.7153  158.3355  132.2349 H   0  0  0  0  0  0  0  0  0  0  0  0
  140.1090  156.7800  132.9950 C   0  0  0  0  0  0  0  0  0  0  0  0
  139.5010  155.5490  132.7700 C   0  0  0  0  0  0  0  0  0  0  0  0
  138.5200  155.4831  132.2767 H   0  0  0  0  0  0  0  0  0  0  0  0
  140.1780  154.3930  133.1920 C   0  0  0  0  0  0  0  0  0  0  0  0
  139.7181  153.4061  133.0353 H   0  0  0  0  0  0  0  0  0  0  0  0
  141.4480  154.4830  133.8180 C   0  0  0  0  0  0  0  0  0  0  0  0
  142.1370  153.2400  134.3200 C   0  0  0  0  0  0  0  0  0  0  0  0
  143.5120  153.4040  134.3090 F   0  0  0  0  0  0  0  0  0  0  0  0
  141.7470  152.9570  135.6180 F   0  0  0  0  0  0  0  0  0  0  0  0
  141.8020  152.1740  133.5060 F   0  0  0  0  0  0  0  0  0  0  0  0
  142.0200  155.7550  134.0520 C   0  0  0  0  0  0  0  0  0  0  0  0
  142.9826  155.8511  134.5755 H   0  0  0  0  0  0  0  0  0  0  0  0
  141.3330  156.8900  133.6020 C   0  0  0  0  0  0  0  0  0  0  0  0
  146.3860  159.0970  133.0650 N   0  0  0  0  0  0  0  0  0  0  0  0
  146.7580  157.6840  133.1880 C   0  0  0  0  0  0  0  0  0  0  0  0
  146.8289  157.4148  134.2522 H   0  0  0  0  0  0  0  0  0  0  0  0
  145.9935  157.0599  132.7020 H   0  0  0  0  0  0  0  0  0  0  0  0
  147.7306  157.5173  132.7020 H   0  0  0  0  0  0  0  0  0  0  0  0
  147.3800  160.0810  132.6210 C   0  0  0  0  0  0  0  0  0  0  0  0
  147.8514  160.5476  133.4985 H   0  0  0  0  0  0  0  0  0  0  0  0
  148.1487  159.5782  132.0158 H   0  0  0  0  0  0  0  0  0  0  0  0
  146.8850  160.8548  132.0158 H   0  0  0  0  0  0  0  0  0  0  0  0
  1  2  1  0
  2  3  2  0
  3  4  1  0
  4  5  1  0
  5  6  2  0
  5  7  1  0
  7  8  1  0
  8  9  1  0
  9 10  2  0
  9 11  1  0
 11 12  1  0
  8 13  2  0
 13 14  1  0
 13 15  1  0
 15 16  2  0
 16 17  1  0
 16 18  1  0
 18 19  1  0
 18 20  2  0
 20 21  1  0
 21 22  1  0
 21 23  1  0
 21 24  1  0
 20 25  1  0
 25 26  1  0
 25 27  2  0
  3 28  1  0
 28 29  1  0
 29 30  1  0
 29 31  1  0
 29 32  1  0
 28 33  1  0
 33 34  1  0
 33 35  1  0
 33 36  1  0
 27  7  1  0
 27 15  1  0
M  CHG  1  11  -1
M  END
>  <UniqueID>  (27) 
26

>  <SMILES>  (27) 
[H]/N=C(/OC(=O)n1c(C([NH-])=O)cc2ccc(C(F)(F)F)cc21)N(C)C

>  <Energy>  (27) 
75.1825041586407

>  <Genealogy>  (27) 
CN(C)C(=N)OC(=O)n1c(C([NH-])=O)cc2ccc(C(F)(F)F)cc21 (protonated)
[H]/N=C(/OC(=O)n1c(C([NH-])=O)cc2ccc(C(F)(F)F)cc21)N(C)C (cis-trans isomerization)
[H]/N=C(/OC(=O)n1c(C([NH-])=O)cc2ccc(C(F)(F)F)cc21)N(C)C (3D coordinates assigned)
[H]/N=C(/OC(=O)n1c(C([NH-])=O)cc2ccc(C(F)(F)F)cc21)N(C)C (optimized conformer: 75.1825041586407 kcal/mol)

>  <smiles>  (27) 
CN(C)C(=N)OC(=O)n1c(C(N)=O)cc2ccc(C(F)(F)F)cc21

>  <score_type>  (27) 
oracle

>  <origin>  (27) 
adg

>  <m_score__min__energy>  (27) 
-5.9400000000000004

>  <m_primary>  (27) 
energy

$$$$
28:0
     RDKit          3D

 56 57  0  0  0  0  0  0  0  0999 V2000
  140.5220  157.1920  137.2940 C   0  0  0  0  0  0  0  0  0  0  0  0
  139.9890  157.7390  135.9800 C   0  0  0  0  0  0  0  0  0  0  0  0
  140.9420  157.5100  134.9470 O   0  0  0  0  0  0  0  0  0  0  0  0
  140.5730  157.2530  133.6220 C   0  0  0  0  0  0  0  0  0  0  0  0
  140.5300  156.0690  133.1840 O   0  0  0  0  0  0  0  0  0  0  0  0
  140.1700  158.3870  132.7370 C   0  0  0  0  0  0  0  0  0  0  0  0
  140.5980  159.6190  133.3080 O   0  0  0  0  0  0  0  0  0  0  0  0
  141.9460  159.9680  133.4280 C   0  0  0  0  0  0  0  0  0  0  0  0
  142.2950  161.1790  133.3780 O   0  0  0  0  0  0  0  0  0  0  0  0
  142.9210  158.9310  133.5980 N   0  0  0  0  0  0  0  0  0  0  0  0
  144.3240  159.1700  133.7910 C   0  0  0  0  0  0  0  0  0  0  0  0
  144.7500  160.3350  134.0240 O   0  0  0  0  0  0  0  0  0  0  0  0
  145.2530  158.0760  133.7270 N   0  0  0  0  0  0  0  0  0  0  0  0
  146.5890  158.1360  133.4670 C   0  0  0  0  0  0  0  0  0  0  0  0
  147.3770  159.3810  133.3210 C   0  0  0  0  0  0  0  0  0  0  0  0
  146.8640  160.4880  132.5790 N   0  0  0  0  0  0  0  0  0  0  0  0
  148.5230  159.4670  133.8360 O   0  0  0  0  0  0  0  0  0  0  0  0
  147.1360  156.8530  133.4330 C   0  0  0  0  0  0  0  0  0  0  0  0
  146.0810  156.0020  133.6770 C   0  0  0  0  0  0  0  0  0  0  0  0
  146.0490  154.6130  133.7420 C   0  0  0  0  0  0  0  0  0  0  0  0
  144.8100  153.9920  133.9780 C   0  0  0  0  0  0  0  0  0  0  0  0
  143.6270  154.7650  134.1380 C   0  0  0  0  0  0  0  0  0  0  0  0
  142.3440  154.1520  134.3690 N   0  0  0  0  0  0  0  0  0  0  0  0
  141.9600  153.4780  135.6110 C   0  0  0  0  0  0  0  0  0  0  0  0
  141.5220  152.0740  135.3320 C   0  0  0  0  0  0  0  0  0  0  0  0
  140.9760  151.3960  136.2450 O   0  0  0  0  0  0  0  0  0  0  0  0
  141.7090  151.5170  134.0300 N   0  0  0  0  0  0  0  0  0  0  0  0
  140.9720  152.1910  132.6160 S   0  0  0  0  0  0  0  0  0  0  0  0
  141.9910  152.9870  131.8500 O   0  0  0  0  0  0  0  0  0  0  0  0
  139.8550  153.1060  133.0330 O   0  0  0  0  0  0  0  0  0  0  0  0
  140.3180  150.8900  131.5830 C   0  0  0  0  0  0  0  0  0  0  0  0
  140.2680  149.5680  132.3370 C   0  0  0  0  0  0  0  0  0  0  0  0
  143.7070  156.1730  134.0620 C   0  0  0  0  0  0  0  0  0  0  0  0
  144.9570  156.7640  133.8470 C   0  0  0  0  0  0  0  0  0  0  0  0
  140.0248  157.7022  138.1322 H   0  0  0  0  0  0  0  0  0  0  0  0
  140.3202  156.1121  137.3504 H   0  0  0  0  0  0  0  0  0  0  0  0
  141.6067  157.3658  137.3504 H   0  0  0  0  0  0  0  0  0  0  0  0
  139.0461  157.2317  135.7276 H   0  0  0  0  0  0  0  0  0  0  0  0
  139.8098  158.8197  136.0794 H   0  0  0  0  0  0  0  0  0  0  0  0
  140.6349  158.2616  131.7480 H   0  0  0  0  0  0  0  0  0  0  0  0
  139.0750  158.3955  132.6329 H   0  0  0  0  0  0  0  0  0  0  0  0
  142.5880  157.9420  133.5740 H   0  0  0  0  0  0  0  0  0  0  0  0
  145.8910  160.4870  132.2020 H   0  0  0  0  0  0  0  0  0  0  0  0
  147.4460  161.3460  132.4480 H   0  0  0  0  0  0  0  0  0  0  0  0
  148.1857  156.5795  133.2503 H   0  0  0  0  0  0  0  0  0  0  0  0
  146.9654  154.0184  133.6127 H   0  0  0  0  0  0  0  0  0  0  0  0
  144.7549  152.8951  134.0396 H   0  0  0  0  0  0  0  0  0  0  0  0
  141.6270  154.1950  133.6090 H   0  0  0  0  0  0  0  0  0  0  0  0
  142.8220  153.4593  136.2941 H   0  0  0  0  0  0  0  0  0  0  0  0
  141.1243  154.0268  136.0698 H   0  0  0  0  0  0  0  0  0  0  0  0
  139.3007  151.1609  131.2640 H   0  0  0  0  0  0  0  0  0  0  0  0
  140.9766  150.7710  130.7100 H   0  0  0  0  0  0  0  0  0  0  0  0
  140.2754  149.7628  133.4196 H   0  0  0  0  0  0  0  0  0  0  0  0
  139.3488  149.0270  132.0681 H   0  0  0  0  0  0  0  0  0  0  0  0
  141.1438  148.9591  132.0681 H   0  0  0  0  0  0  0  0  0  0  0  0
  142.8046  156.7927  134.1697 H   0  0  0  0  0  0  0  0  0  0  0  0
  1  2  1  0
  2  3  1  0
  3  4  1  0
  4  5  2  0
  4  6  1  0
  6  7  1  0
  7  8  1  0
  8  9  2  0
  8 10  1  0
 10 11  1  0
 11 12  2  0
 11 13  1  0
 13 14  1  0
 14 15  1  0
 15 16  1  0
 15 17  2  0
 14 18  2  0
 18 19  1  0
 19 20  2  0
 20 21  1  0
 21 22  2  0
 22 23  1  0
 23 24  1  0
 24 25  1  0
 25 26  2  0
 25 27  1  0
 27 28  1  0
 28 29  2  0
 28 30  2  0
 28 31  1  0
 31 32  1  0
 22 33  1  0
 33 34  2  0
 34 13  1  0
 34 19  1  0
  1 35  1  0
  1 36  1  0
  1 37  1  0
  2 38  1  0
  2 39  1  0
  6 40  1  0
  6 41  1  0
 10 42  1  0
 16 43  1  0
 16 44  1  0
 18 45  1  0
 20 46  1  0
 21 47  1  0
 23 48  1  0
 24 49  1  0
 24 50  1  0
 31 51  1  0
 31 52  1  0
 32 53  1  0
 32 54  1  0
 32 55  1  0
 33 56  1  0
M  CHG  1  27  -1
M  END
>  <UniqueID>  (28) 
27

>  <SMILES>  (28) 
CCOC(=O)COC(=O)NC(=O)n1c(C(N)=O)cc2ccc(NCC(=O)[N-]S(=O)(=O)CC)cc21

>  <Energy>  (28) 
79.2004514701753

>  <Genealogy>  (28) 
CCOC(=O)COC(=O)NC(=O)n1c(C(N)=O)cc2ccc(NCC(=O)[N-]S(=O)(=O)CC)cc21 (protonated)
CCOC(=O)COC(=O)NC(=O)n1c(C(N)=O)cc2ccc(NCC(=O)[N-]S(=O)(=O)CC)cc21 (3D coordinates assigned)
CCOC(=O)COC(=O)NC(=O)n1c(C(N)=O)cc2ccc(NCC(=O)[N-]S(=O)(=O)CC)cc21 (optimized conformer: 79.2004514701753 kcal/mol)

>  <smiles>  (28) 
CCOC(=O)COC(=O)NC(=O)n1c(C(N)=O)cc2ccc(NCC(=O)NS(=O)(=O)CC)cc21

>  <score_type>  (28) 
oracle

>  <origin>  (28) 
adg

>  <m_score__min__energy>  (28) 
-8.1999999999999993

>  <m_primary>  (28) 
energy

$$$$
29:0
     RDKit          3D

 49 50  0  0  0  0  0  0  0  0999 V2000
  141.0940  154.9080  133.4160 C   0  0  0  0  0  0  0  0  0  0  0  0
  141.4760  156.2990  133.1360 N   0  0  0  0  0  0  0  0  0  0  0  0
  140.4170  157.3130  132.9690 C   0  0  0  0  0  0  0  0  0  0  0  0
  139.3040  157.1680  134.0230 C   0  0  0  0  0  0  0  0  0  0  0  0
  139.3720  158.2450  135.1350 C   0  0  0  0  0  0  0  0  0  0  0  0
  140.6080  158.1620  135.9500 N   0  0  0  0  0  0  0  0  0  0  0  0
  140.6760  156.8540  136.6240 C   0  0  0  0  0  0  0  0  0  0  0  0
  140.6720  159.2390  136.9560 C   0  0  0  0  0  0  0  0  0  0  0  0
  142.8920  156.6090  133.0780 C   0  0  0  0  0  0  0  0  0  0  0  0
  143.5560  156.2360  132.0710 O   0  0  0  0  0  0  0  0  0  0  0  0
  143.6050  157.3820  134.1220 C   0  0  0  0  0  0  0  0  0  0  0  0
  143.2190  157.3530  135.3200 O   0  0  0  0  0  0  0  0  0  0  0  0
  144.6870  158.2600  133.7630 N   0  0  0  0  0  0  0  0  0  0  0  0
  144.6870  159.6220  133.7000 C   0  0  0  0  0  0  0  0  0  0  0  0
  143.5150  160.5000  133.8910 C   0  0  0  0  0  0  0  0  0  0  0  0
  142.2690  159.9430  134.3040 N   0  0  0  0  0  0  0  0  0  0  0  0
  143.6050  161.7430  133.7190 O   0  0  0  0  0  0  0  0  0  0  0  0
  145.9540  160.0920  133.3560 C   0  0  0  0  0  0  0  0  0  0  0  0
  146.7310  158.9680  133.1990 C   0  0  0  0  0  0  0  0  0  0  0  0
  148.0780  158.8480  132.8740 C   0  0  0  0  0  0  0  0  0  0  0  0
  148.6280  157.5570  132.8050 C   0  0  0  0  0  0  0  0  0  0  0  0
  147.8240  156.4120  133.0480 C   0  0  0  0  0  0  0  0  0  0  0  0
  148.4370  155.0350  133.0280 C   0  0  0  0  0  0  0  0  0  0  0  0
  147.6940  154.1810  132.2320 F   0  0  0  0  0  0  0  0  0  0  0  0
  149.7210  155.1170  132.5240 F   0  0  0  0  0  0  0  0  0  0  0  0
  148.4870  154.5040  134.3050 F   0  0  0  0  0  0  0  0  0  0  0  0
  146.4640  156.5790  133.3980 C   0  0  0  0  0  0  0  0  0  0  0  0
  145.9420  157.8760  133.4480 C   0  0  0  0  0  0  0  0  0  0  0  0
  141.0510  154.7515  134.5040 H   0  0  0  0  0  0  0  0  0  0  0  0
  140.1064  154.7035  132.9768 H   0  0  0  0  0  0  0  0  0  0  0  0
  141.8386  154.2278  132.9768 H   0  0  0  0  0  0  0  0  0  0  0  0
  140.8657  158.3130  133.0624 H   0  0  0  0  0  0  0  0  0  0  0  0
  139.9643  157.1694  131.9768 H   0  0  0  0  0  0  0  0  0  0  0  0
  138.3307  157.2490  133.5170 H   0  0  0  0  0  0  0  0  0  0  0  0
  139.4379  156.1894  134.5072 H   0  0  0  0  0  0  0  0  0  0  0  0
  139.3294  159.2380  134.6637 H   0  0  0  0  0  0  0  0  0  0  0  0
  138.5212  158.0731  135.8107 H   0  0  0  0  0  0  0  0  0  0  0  0
  141.4440  158.2380  135.3220 H   0  0  0  0  0  0  0  0  0  0  0  0
  140.6683  157.0023  137.7139 H   0  0  0  0  0  0  0  0  0  0  0  0
  139.8083  156.2448  136.3307 H   0  0  0  0  0  0  0  0  0  0  0  0
  141.6022  156.3381  136.3307 H   0  0  0  0  0  0  0  0  0  0  0  0
  140.6460  158.8007  137.9646 H   0  0  0  0  0  0  0  0  0  0  0  0
  141.6054  159.8064  136.8268 H   0  0  0  0  0  0  0  0  0  0  0  0
  139.8123  159.9130  136.8268 H   0  0  0  0  0  0  0  0  0  0  0  0
  142.2250  159.2480  135.0830 H   0  0  0  0  0  0  0  0  0  0  0  0
  146.2660  161.1399  133.2357 H   0  0  0  0  0  0  0  0  0  0  0  0
  148.6944  159.7375  132.6768 H   0  0  0  0  0  0  0  0  0  0  0  0
  149.6931  157.4318  132.5601 H   0  0  0  0  0  0  0  0  0  0  0  0
  145.8309  155.7088  133.6258 H   0  0  0  0  0  0  0  0  0  0  0  0
  1  2  1  0
  2  3  1  0
  3  4  1  0
  4  5  1  0
  5  6  1  0
  6  7  1  0
  6  8  1  0
  2  9  1  0
  9 10  2  0
  9 11  1  0
 11 12  2  0
 11 13  1  0
 13 14  1  0
 14 15  1  0
 15 16  1  0
 15 17  2  0
 14 18  2  0
 18 19  1  0
 19 20  2  0
 20 21  1  0
 21 22  2  0
 22 23  1  0
 23 24  1  0
 23 25  1  0
 23 26  1  0
 22 27  1  0
 27 28  2  0
 28 13  1  0
 28 19  1  0
  1 29  1  0
  1 30  1  0
  1 31  1  0
  3 32  1  0
  3 33  1  0
  4 34  1  0
  4 35  1  0
  5 36  1  0
  5 37  1  0
  6 38  1  0
  7 39  1  0
  7 40  1  0
  7 41  1  0
  8 42  1  0
  8 43  1  0
  8 44  1  0
 16 45  1  0
 18 46  1  0
 20 47  1  0
 21 48  1  0
 27 49  1  0
M  CHG  2   6   1  16  -1
M  END
>  <UniqueID>  (29) 
28

>  <SMILES>  (29) 
CN(CCC[NH+](C)C)C(=O)C(=O)n1c(C([NH-])=O)cc2ccc(C(F)(F)F)cc21

>  <Energy>  (29) 
90.18148126247091

>  <Genealogy>  (29) 
CN(CCC[NH+](C)C)C(=O)C(=O)n1c(C([NH-])=O)cc2ccc(C(F)(F)F)cc21 (protonated)
CN(CCC[NH+](C)C)C(=O)C(=O)n1c(C([NH-])=O)cc2ccc(C(F)(F)F)cc21 (3D coordinates assigned)
CN(CCC[NH+](C)C)C(=O)C(=O)n1c(C([NH-])=O)cc2ccc(C(F)(F)F)cc21 (optimized conformer: 90.18148126247091 kcal/mol)

>  <smiles>  (29) 
CN(C)CCCN(C)C(=O)C(=O)n1c(C(N)=O)cc2ccc(C(F)(F)F)cc21

>  <score_type>  (29) 
oracle

>  <origin>  (29) 
adg

>  <m_score__min__energy>  (29) 
-5.3200000000000003

>  <m_primary>  (29) 
energy

$$$$
30:0
     RDKit          3D

 32 33  0  0  0  0  0  0  0  0999 V2000
  141.1730  155.4980  141.1530 N   0  0  0  0  0  0  0  0  0  0  0  0
  142.0800  156.3020  140.4030 C   0  0  0  0  0  0  0  0  0  0  0  0
  143.2220  156.5470  140.8760 O   0  0  0  0  0  0  0  0  0  0  0  0
  141.6900  156.8760  139.0980 C   0  0  0  0  0  0  0  0  0  0  0  0
  141.7550  158.2370  138.8010 C   0  0  0  0  0  0  0  0  0  0  0  0
  141.2670  158.3560  137.5200 C   0  0  0  0  0  0  0  0  0  0  0  0
  141.1090  159.4830  136.7210 C   0  0  0  0  0  0  0  0  0  0  0  0
  140.6000  159.3060  135.4230 C   0  0  0  0  0  0  0  0  0  0  0  0
  140.2840  158.0110  134.9370 C   0  0  0  0  0  0  0  0  0  0  0  0
  139.7030  157.8370  133.5570 C   0  0  0  0  0  0  0  0  0  0  0  0
  138.3790  158.2390  133.5320 F   0  0  0  0  0  0  0  0  0  0  0  0
  139.7770  156.5050  133.1980 F   0  0  0  0  0  0  0  0  0  0  0  0
  140.4030  158.5940  132.6340 F   0  0  0  0  0  0  0  0  0  0  0  0
  140.4390  156.8920  135.7900 C   0  0  0  0  0  0  0  0  0  0  0  0
  140.9300  157.1020  137.0820 C   0  0  0  0  0  0  0  0  0  0  0  0
  141.1780  156.1850  138.0410 N   0  0  0  0  0  0  0  0  0  0  0  0
  141.0160  154.7630  137.9190 C   0  0  0  0  0  0  0  0  0  0  0  0
  141.5270  154.1600  136.9380 O   0  0  0  0  0  0  0  0  0  0  0  0
  140.2660  154.0010  138.9270 C   0  0  0  0  0  0  0  0  0  0  0  0
  139.1660  154.4420  139.3590 O   0  0  0  0  0  0  0  0  0  0  0  0
  140.7860  152.7970  139.4080 O   0  0  0  0  0  0  0  0  0  0  0  0
  141.4580  151.8620  138.5700 C   0  0  0  0  0  0  0  0  0  0  0  0
  140.4510  151.0340  137.8490 C   0  0  0  0  0  0  0  0  0  0  0  0
  139.4810  150.5290  138.4750 O   0  0  0  0  0  0  0  0  0  0  0  0
  140.6080  150.7700  136.4940 O   0  0  0  0  0  0  0  0  0  0  0  0
  140.8320  154.5840  140.7810 H   0  0  0  0  0  0  0  0  0  0  0  0
  142.1194  159.0446  139.4529 H   0  0  0  0  0  0  0  0  0  0  0  0
  141.3745  160.4833  137.0937 H   0  0  0  0  0  0  0  0  0  0  0  0
  140.4448  160.1820  134.7761 H   0  0  0  0  0  0  0  0  0  0  0  0
  140.1791  155.8806  135.4443 H   0  0  0  0  0  0  0  0  0  0  0  0
  142.0792  152.4026  137.8407 H   0  0  0  0  0  0  0  0  0  0  0  0
  142.0985  151.2114  139.1836 H   0  0  0  0  0  0  0  0  0  0  0  0
  1  2  1  0
  2  3  2  0
  2  4  1  0
  4  5  2  0
  5  6  1  0
  6  7  2  0
  7  8  1  0
  8  9  2  0
  9 10  1  0
 10 11  1  0
 10 12  1  0
 10 13  1  0
  9 14  1  0
 14 15  2  0
 15 16  1  0
 16 17  1  0
 17 18  2  0
 17 19  1  0
 19 20  2  0
 19 21  1  0
 21 22  1  0
 22 23  1  0
 23 24  2  0
 23 25  1  0
 16  4  1  0
 15  6  1  0
  1 26  1  0
  5 27  1  0
  7 28  1  0
  8 29  1  0
 14 30  1  0
 22 31  1  0
 22 32  1  0
M  CHG  2   1  -1  25  -1
M  END
>  <UniqueID>  (30) 
29

>  <SMILES>  (30) 
[NH-]C(=O)c1cc2ccc(C(F)(F)F)cc2n1C(=O)C(=O)OCC(=O)[O-]

>  <Energy>  (30) 
69.10078965253135

>  <Genealogy>  (30) 
[NH-]C(=O)c1cc2ccc(C(F)(F)F)cc2n1C(=O)C(=O)OCC(=O)[O-] (protonated)
[NH-]C(=O)c1cc2ccc(C(F)(F)F)cc2n1C(=O)C(=O)OCC(=O)[O-] (3D coordinates assigned)
[NH-]C(=O)c1cc2ccc(C(F)(F)F)cc2n1C(=O)C(=O)OCC(=O)[O-] (optimized conformer: 69.10078965253135 kcal/mol)

>  <smiles>  (30) 
NC(=O)c1cc2ccc(C(F)(F)F)cc2n1C(=O)C(=O)OCC(=O)O

>  <score_type>  (30) 
oracle

>  <origin>  (30) 
adg

>  <m_score__min__energy>  (30) 
-5.7599999999999998

>  <m_primary>  (30) 
energy

$$$$
31:0
     RDKit          3D

 38 39  0  0  0  0  0  0  0  0999 V2000
  146.3830  153.4400  137.4520 C   0  0  0  0  0  0  0  0  0  0  0  0
  147.3940  153.3570  136.4070 N   0  0  0  0  0  0  0  0  0  0  0  0
  147.7030  154.4250  135.5050 C   0  0  0  0  0  0  0  0  0  0  0  0
  148.0410  155.5410  135.9790 O   0  0  0  0  0  0  0  0  0  0  0  0
  147.5780  154.2540  134.0130 C   0  0  0  0  0  0  0  0  0  0  0  0
  147.6600  155.5000  133.3470 O   0  0  0  0  0  0  0  0  0  0  0  0
  146.3970  155.8630  132.8260 C   0  0  0  0  0  0  0  0  0  0  0  0
  145.6480  156.6290  133.8710 C   0  0  0  0  0  0  0  0  0  0  0  0
  145.2600  156.0340  134.9140 O   0  0  0  0  0  0  0  0  0  0  0  0
  145.4240  158.0420  133.7330 N   0  0  0  0  0  0  0  0  0  0  0  0
  146.3530  159.0380  133.6770 C   0  0  0  0  0  0  0  0  0  0  0  0
  147.8160  158.8550  133.5840 C   0  0  0  0  0  0  0  0  0  0  0  0
  148.4820  157.8140  134.3000 N   0  0  0  0  0  0  0  0  0  0  0  0
  148.4850  159.6050  132.8230 O   0  0  0  0  0  0  0  0  0  0  0  0
  145.7330  160.2850  133.6730 C   0  0  0  0  0  0  0  0  0  0  0  0
  144.3830  160.0200  133.7140 C   0  0  0  0  0  0  0  0  0  0  0  0
  143.2980  160.8890  133.7300 C   0  0  0  0  0  0  0  0  0  0  0  0
  142.0080  160.3340  133.7990 C   0  0  0  0  0  0  0  0  0  0  0  0
  141.8270  158.9290  133.8790 C   0  0  0  0  0  0  0  0  0  0  0  0
  140.4380  158.3440  133.9150 C   0  0  0  0  0  0  0  0  0  0  0  0
  140.4760  156.9770  133.7010 F   0  0  0  0  0  0  0  0  0  0  0  0
  139.8720  158.5890  135.1520 F   0  0  0  0  0  0  0  0  0  0  0  0
  139.6420  158.9120  132.9350 F   0  0  0  0  0  0  0  0  0  0  0  0
  142.9550  158.0780  133.8370 C   0  0  0  0  0  0  0  0  0  0  0  0
  144.2250  158.6580  133.7500 C   0  0  0  0  0  0  0  0  0  0  0  0
  146.8701  153.4000  138.4374 H   0  0  0  0  0  0  0  0  0  0  0  0
  145.8311  154.3865  137.3539 H   0  0  0  0  0  0  0  0  0  0  0  0
  145.6841  152.5962  137.3539 H   0  0  0  0  0  0  0  0  0  0  0  0
  148.3899  153.6027  133.6571 H   0  0  0  0  0  0  0  0  0  0  0  0
  146.5975  153.8058  133.7944 H   0  0  0  0  0  0  0  0  0  0  0  0
  146.5318  156.4906  131.9327 H   0  0  0  0  0  0  0  0  0  0  0  0
  145.8334  154.9604  132.5475 H   0  0  0  0  0  0  0  0  0  0  0  0
  149.5230  157.7380  134.2640 H   0  0  0  0  0  0  0  0  0  0  0  0
  147.9460  157.0650  134.7890 H   0  0  0  0  0  0  0  0  0  0  0  0
  146.2187  161.2715  133.6434 H   0  0  0  0  0  0  0  0  0  0  0  0
  143.4444  161.9785  133.6899 H   0  0  0  0  0  0  0  0  0  0  0  0
  141.1297  160.9962  133.7909 H   0  0  0  0  0  0  0  0  0  0  0  0
  142.8368  156.9849  133.8719 H   0  0  0  0  0  0  0  0  0  0  0  0
  1  2  1  0
  2  3  1  0
  3  4  2  0
  3  5  1  0
  5  6  1  0
  6  7  1  0
  7  8  1  0
  8  9  2  0
  8 10  1  0
 10 11  1  0
 11 12  1  0
 12 13  1  0
 12 14  2  0
 11 15  2  0
 15 16  1  0
 16 17  2  0
 17 18  1  0
 18 19  2  0
 19 20  1  0
 20 21  1  0
 20 22  1  0
 20 23  1  0
 19 24  1  0
 24 25  2  0
 25 10  1  0
 25 16  1  0
  1 26  1  0
  1 27  1  0
  1 28  1  0
  5 29  1  0
  5 30  1  0
  7 31  1  0
  7 32  1  0
 13 33  1  0
 13 34  1  0
 15 35  1  0
 17 36  1  0
 18 37  1  0
 24 38  1  0
M  CHG  1   2  -1
M  END
>  <UniqueID>  (31) 
30

>  <SMILES>  (31) 
C[N-]C(=O)COCC(=O)n1c(C(N)=O)cc2ccc(C(F)(F)F)cc21

>  <Energy>  (31) 
77.59840099416992

>  <Genealogy>  (31) 
C[N-]C(=O)COCC(=O)n1c(C(N)=O)cc2ccc(C(F)(F)F)cc21 (protonated)
C[N-]C(=O)COCC(=O)n1c(C(N)=O)cc2ccc(C(F)(F)F)cc21 (3D coordinates assigned)
C[N-]C(=O)COCC(=O)n1c(C(N)=O)cc2ccc(C(F)(F)F)cc21 (optimized conformer: 77.59840099416992 kcal/mol)

>  <smiles>  (31) 
CNC(=O)COCC(=O)n1c(C(N)=O)cc2ccc(C(F)(F)F)cc21

>  <score_type>  (31) 
oracle

>  <origin>  (31) 
adg

>  <m_score__min__energy>  (31) 
-6.1500000000000004

>  <m_primary>  (31) 
energy

$$$$
32:0
     RDKit          3D

 43 44  0  0  0  0  0  0  0  0999 V2000
  149.6300  157.8800  131.9640 N   0  0  0  0  0  0  0  0  0  0  0  0
  148.9370  159.1600  131.8530 C   0  0  0  0  0  0  0  0  0  0  0  0
  147.7320  159.1970  132.7400 C   0  0  0  0  0  0  0  0  0  0  0  0
  146.6670  159.7320  132.3280 O   0  0  0  0  0  0  0  0  0  0  0  0
  147.8150  158.6760  134.0360 O   0  0  0  0  0  0  0  0  0  0  0  0
  147.9900  157.2890  134.3020 C   0  0  0  0  0  0  0  0  0  0  0  0
  147.7520  156.5400  133.1150 O   0  0  0  0  0  0  0  0  0  0  0  0
  148.4370  155.3580  132.8200 C   0  0  0  0  0  0  0  0  0  0  0  0
  149.6630  155.3800  132.5210 O   0  0  0  0  0  0  0  0  0  0  0  0
  147.6970  154.0590  132.8160 C   0  0  0  0  0  0  0  0  0  0  0  0
  146.3010  154.2840  132.6430 O   0  0  0  0  0  0  0  0  0  0  0  0
  145.3410  153.9350  133.6000 C   0  0  0  0  0  0  0  0  0  0  0  0
  145.6800  153.3190  134.6480 O   0  0  0  0  0  0  0  0  0  0  0  0
  143.9640  154.2870  133.3880 N   0  0  0  0  0  0  0  0  0  0  0  0
  143.4060  155.5270  133.4840 C   0  0  0  0  0  0  0  0  0  0  0  0
  144.1440  156.7950  133.6490 C   0  0  0  0  0  0  0  0  0  0  0  0
  145.3880  157.0200  132.9840 N   0  0  0  0  0  0  0  0  0  0  0  0
  143.6430  157.7160  134.3480 O   0  0  0  0  0  0  0  0  0  0  0  0
  142.0220  155.4540  133.3540 C   0  0  0  0  0  0  0  0  0  0  0  0
  141.7440  154.1210  133.1600 C   0  0  0  0  0  0  0  0  0  0  0  0
  140.5210  153.4780  132.9910 C   0  0  0  0  0  0  0  0  0  0  0  0
  140.5260  152.0800  132.8520 C   0  0  0  0  0  0  0  0  0  0  0  0
  141.7430  151.3550  132.8950 C   0  0  0  0  0  0  0  0  0  0  0  0
  141.7420  149.8580  132.7620 C   0  0  0  0  0  0  0  0  0  0  0  0
  142.8210  149.4580  131.9960 F   0  0  0  0  0  0  0  0  0  0  0  0
  140.5700  149.4440  132.1560 F   0  0  0  0  0  0  0  0  0  0  0  0
  142.9640  152.0410  133.0730 C   0  0  0  0  0  0  0  0  0  0  0  0
  142.9320  153.4360  133.1870 C   0  0  0  0  0  0  0  0  0  0  0  0
  149.6550  157.5960  132.9700 H   0  0  0  0  0  0  0  0  0  0  0  0
  149.0840  157.1540  131.4430 H   0  0  0  0  0  0  0  0  0  0  0  0
  149.6241  159.9675  132.1460 H   0  0  0  0  0  0  0  0  0  0  0  0
  148.6091  159.2915  130.8113 H   0  0  0  0  0  0  0  0  0  0  0  0
  149.0188  157.1097  134.6476 H   0  0  0  0  0  0  0  0  0  0  0  0
  147.2793  156.9744  135.0804 H   0  0  0  0  0  0  0  0  0  0  0  0
  148.0683  153.4328  131.9914 H   0  0  0  0  0  0  0  0  0  0  0  0
  147.8604  153.5519  133.7784 H   0  0  0  0  0  0  0  0  0  0  0  0
  145.9200  157.9040  133.1490 H   0  0  0  0  0  0  0  0  0  0  0  0
  145.7440  156.3520  132.2650 H   0  0  0  0  0  0  0  0  0  0  0  0
  141.3034  156.2857  133.3972 H   0  0  0  0  0  0  0  0  0  0  0  0
  139.5798  154.0469  132.9670 H   0  0  0  0  0  0  0  0  0  0  0  0
  139.5767  151.5432  132.7085 H   0  0  0  0  0  0  0  0  0  0  0  0
  141.8155  149.4071  133.7626 H   0  0  0  0  0  0  0  0  0  0  0  0
  143.9167  151.4931  133.1209 H   0  0  0  0  0  0  0  0  0  0  0  0
  1  2  1  0
  2  3  1  0
  3  4  2  0
  3  5  1  0
  5  6  1  0
  6  7  1  0
  7  8  1  0
  8  9  2  0
  8 10  1  0
 10 11  1  0
 11 12  1  0
 12 13  2  0
 12 14  1  0
 14 15  1  0
 15 16  1  0
 16 17  1  0
 16 18  2  0
 15 19  2  0
 19 20  1  0
 20 21  2  0
 21 22  1  0
 22 23  2  0
 23 24  1  0
 24 25  1  0
 24 26  1  0
 23 27  1  0
 27 28  2  0
 28 14  1  0
 28 20  1  0
  1 29  1  0
  1 30  1  0
  2 31  1  0
  2 32  1  0
  6 33  1  0
  6 34  1  0
 10 35  1  0
 10 36  1  0
 17 37  1  0
 17 38  1  0
 19 39  1  0
 21 40  1  0
 22 41  1  0
 24 42  1  0
 27 43  1  0
M  END
>  <UniqueID>  (32) 
31

>  <SMILES>  (32) 
NCC(=O)OCOC(=O)COC(=O)n1c(C(N)=O)cc2ccc(C(F)F)cc21

>  <Energy>  (32) 
73.50625132997685

>  <Genealogy>  (32) 
NCC(=O)OCOC(=O)COC(=O)n1c(C(N)=O)cc2ccc(C(F)F)cc21 (3D coordinates assigned)
NCC(=O)OCOC(=O)COC(=O)n1c(C(N)=O)cc2ccc(C(F)F)cc21 (optimized conformer: 73.50625132997685 kcal/mol)

>  <smiles>  (32) 
NCC(=O)OCOC(=O)COC(=O)n1c(C(N)=O)cc2ccc(C(F)F)cc21

>  <score_type>  (32) 
oracle

>  <origin>  (32) 
adg

>  <m_score__min__energy>  (32) 
-5.5999999999999996

>  <m_primary>  (32) 
energy

$$$$
33:0
     RDKit          3D

 48 50  0  0  0  0  0  0  0  0999 V2000
  140.0210  155.9030  133.2990 C   0  0  0  0  0  0  0  0  0  0  0  0
  139.7800  157.3410  133.4650 N   0  0  0  0  0  0  0  0  0  0  0  0
  139.5280  157.8130  134.8100 C   0  0  0  0  0  0  0  0  0  0  0  0
  138.3750  158.2350  135.1040 O   0  0  0  0  0  0  0  0  0  0  0  0
  140.5900  157.8100  135.8790 C   0  0  0  0  0  0  0  0  0  0  0  0
  141.8550  158.3270  135.3640 N   0  0  0  0  0  0  0  0  0  0  0  0
  142.9070  157.5790  134.7310 C   0  0  0  0  0  0  0  0  0  0  0  0
  143.3020  156.5230  135.2910 O   0  0  0  0  0  0  0  0  0  0  0  0
  143.5510  157.9890  133.4600 C   0  0  0  0  0  0  0  0  0  0  0  0
  142.9910  157.7810  132.3510 O   0  0  0  0  0  0  0  0  0  0  0  0
  144.8270  158.6460  133.4800 N   0  0  0  0  0  0  0  0  0  0  0  0
  145.0680  159.9840  133.5510 C   0  0  0  0  0  0  0  0  0  0  0  0
  144.0440  161.0350  133.7290 C   0  0  0  0  0  0  0  0  0  0  0  0
  142.6610  160.6890  133.7080 N   0  0  0  0  0  0  0  0  0  0  0  0
  144.3770  162.2400  133.8810 O   0  0  0  0  0  0  0  0  0  0  0  0
  146.4380  160.2360  133.4770 C   0  0  0  0  0  0  0  0  0  0  0  0
  147.0290  158.9980  133.3520 C   0  0  0  0  0  0  0  0  0  0  0  0
  148.3710  158.6540  133.2310 C   0  0  0  0  0  0  0  0  0  0  0  0
  148.6920  157.2920  133.0940 C   0  0  0  0  0  0  0  0  0  0  0  0
  147.6720  156.3050  133.0530 C   0  0  0  0  0  0  0  0  0  0  0  0
  148.0360  154.8460  132.9440 C   0  0  0  0  0  0  0  0  0  0  0  0
  148.2760  154.3420  134.2090 F   0  0  0  0  0  0  0  0  0  0  0  0
  147.0100  154.1250  132.3590 F   0  0  0  0  0  0  0  0  0  0  0  0
  149.1720  154.6870  132.1700 F   0  0  0  0  0  0  0  0  0  0  0  0
  146.3200  156.6970  133.2010 C   0  0  0  0  0  0  0  0  0  0  0  0
  146.0340  158.0570  133.3520 C   0  0  0  0  0  0  0  0  0  0  0  0
  139.9140  158.2280  132.2830 C   0  0  2  0  0  0  0  0  0  0  0  0
  139.9920  159.6980  132.6400 C   0  0  0  0  0  0  0  0  0  0  0  0
  138.8390  160.3200  131.8690 C   0  0  0  0  0  0  0  0  0  0  0  0
  137.9560  159.3020  131.4640 O   0  0  0  0  0  0  0  0  0  0  0  0
  138.7250  158.1310  131.3400 C   0  0  0  0  0  0  0  0  0  0  0  0
  140.1006  155.4280  134.2880 H   0  0  0  0  0  0  0  0  0  0  0  0
  139.1857  155.4531  132.7423 H   0  0  0  0  0  0  0  0  0  0  0  0
  140.9573  155.7500  132.7423 H   0  0  0  0  0  0  0  0  0  0  0  0
  140.2583  158.4409  136.7168 H   0  0  0  0  0  0  0  0  0  0  0  0
  140.7461  156.7739  136.2138 H   0  0  0  0  0  0  0  0  0  0  0  0
  142.3580  159.6900  133.7050 H   0  0  0  0  0  0  0  0  0  0  0  0
  146.9394  161.2145  133.5112 H   0  0  0  0  0  0  0  0  0  0  0  0
  149.1569  159.4235  133.2421 H   0  0  0  0  0  0  0  0  0  0  0  0
  149.7462  156.9873  133.0176 H   0  0  0  0  0  0  0  0  0  0  0  0
  145.5134  155.9491  133.1973 H   0  0  0  0  0  0  0  0  0  0  0  0
  140.8457  157.8773  131.8151 H   0  0  0  0  0  0  0  0  0  0  0  0
  139.8644  159.8457  133.7226 H   0  0  0  0  0  0  0  0  0  0  0  0
  140.9641  160.1463  132.3867 H   0  0  0  0  0  0  0  0  0  0  0  0
  138.3069  161.0345  132.5143 H   0  0  0  0  0  0  0  0  0  0  0  0
  139.2256  160.8495  130.9857 H   0  0  0  0  0  0  0  0  0  0  0  0
  138.1129  157.2562  131.6045 H   0  0  0  0  0  0  0  0  0  0  0  0
  139.0761  158.0205  130.3034 H   0  0  0  0  0  0  0  0  0  0  0  0
  1  2  1  0
  2  3  1  0
  3  4  2  0
  3  5  1  0
  5  6  1  0
  6  7  1  0
  7  8  2  0
  7  9  1  0
  9 10  2  0
  9 11  1  0
 11 12  1  0
 12 13  1  0
 13 14  1  0
 13 15  2  0
 12 16  2  0
 16 17  1  0
 17 18  2  0
 18 19  1  0
 19 20  2  0
 20 21  1  0
 21 22  1  0
 21 23  1  0
 21 24  1  0
 20 25  1  0
 25 26  2  0
  2 27  1  0
 27 28  1  0
 28 29  1  0
 29 30  1  0
 30 31  1  0
 26 11  1  0
 31 27  1  0
 26 17  1  0
  1 32  1  0
  1 33  1  0
  1 34  1  0
  5 35  1  0
  5 36  1  0
 14 37  1  0
 16 38  1  0
 18 39  1  0
 19 40  1  0
 25 41  1  0
 27 42  1  6
 28 43  1  0
 28 44  1  0
 29 45  1  0
 29 46  1  0
 31 47  1  0
 31 48  1  0
M  CHG  2   6  -1  14  -1
M  END
>  <UniqueID>  (33) 
32

>  <SMILES>  (33) 
CN(C(=O)C[N-]C(=O)C(=O)n1c(C([NH-])=O)cc2ccc(C(F)(F)F)cc21)[C@@H]1CCOC1

>  <Energy>  (33) 
93.67881362443093

>  <Genealogy>  (33) 
CN(C(=O)C[N-]C(=O)C(=O)n1c(C([NH-])=O)cc2ccc(C(F)(F)F)cc21)C1CCOC1 (protonated)
CN(C(=O)C[N-]C(=O)C(=O)n1c(C([NH-])=O)cc2ccc(C(F)(F)F)cc21)[C@@H]1CCOC1 (chirality)
CN(C(=O)C[N-]C(=O)C(=O)n1c(C([NH-])=O)cc2ccc(C(F)(F)F)cc21)[C@@H]1CCOC1 (3D coordinates assigned)
CN(C(=O)C[N-]C(=O)C(=O)n1c(C([NH-])=O)cc2ccc(C(F)(F)F)cc21)[C@@H]1CCOC1 (nonaromatic ring conformer: 93.67881362443093 kcal/mol)

>  <smiles>  (33) 
CN(C(=O)CNC(=O)C(=O)n1c(C(N)=O)cc2ccc(C(F)(F)F)cc21)C1CCOC1

>  <score_type>  (33) 
oracle

>  <origin>  (33) 
adg

>  <m_score__min__energy>  (33) 
-8.0099999999999998

>  <m_primary>  (33) 
energy

$$$$
34:0
     RDKit          3D

 44 45  0  0  0  0  0  0  0  0999 V2000
  139.1060  146.2390  129.3880 C   0  0  0  0  0  0  0  0  0  0  0  0
  138.3820  147.0350  130.3180 O   0  0  0  0  0  0  0  0  0  0  0  0
  138.4860  148.4290  130.3610 C   0  0  0  0  0  0  0  0  0  0  0  0
  137.5890  149.1450  129.8330 O   0  0  0  0  0  0  0  0  0  0  0  0
  139.6150  149.0440  131.0070 N   0  0  0  0  0  0  0  0  0  0  0  0
  140.9540  148.8380  130.4480 C   0  0  0  0  0  0  0  0  0  0  0  0
  139.4330  149.8690  132.2110 C   0  0  0  0  0  0  0  0  0  0  0  0
  140.5930  149.6780  133.1960 C   0  0  0  0  0  0  0  0  0  0  0  0
  141.5340  150.8530  133.1710 C   0  0  0  0  0  0  0  0  0  0  0  0
  142.9250  150.6470  132.9920 C   0  0  0  0  0  0  0  0  0  0  0  0
  143.8040  151.7390  132.9000 C   0  0  0  0  0  0  0  0  0  0  0  0
  143.2660  153.0190  132.9940 C   0  0  0  0  0  0  0  0  0  0  0  0
  143.8820  154.2440  132.8920 C   0  0  0  0  0  0  0  0  0  0  0  0
  142.8610  155.1810  133.0330 C   0  0  0  0  0  0  0  0  0  0  0  0
  143.0930  156.6390  133.0390 C   0  0  0  0  0  0  0  0  0  0  0  0
  142.2420  157.5270  132.3120 N   0  0  0  0  0  0  0  0  0  0  0  0
  144.0240  157.1150  133.7420 O   0  0  0  0  0  0  0  0  0  0  0  0
  141.6590  154.5620  133.2030 N   0  0  0  0  0  0  0  0  0  0  0  0
  140.3630  155.1810  133.2510 C   0  0  0  0  0  0  0  0  0  0  0  0
  139.3330  154.5100  132.9630 O   0  0  0  0  0  0  0  0  0  0  0  0
  140.2490  156.5270  133.6150 O   0  0  0  0  0  0  0  0  0  0  0  0
  139.0270  157.2560  133.5440 C   0  0  0  0  0  0  0  0  0  0  0  0
  139.0770  158.4590  132.1230 P   0  0  0  0  0  0  0  0  0  0  0  0
  140.4160  159.1350  131.7240 O   0  0  0  0  0  0  0  0  0  0  0  0
  141.9250  153.2360  133.1800 C   0  0  0  0  0  0  0  0  0  0  0  0
  141.0240  152.1670  133.2540 C   0  0  0  0  0  0  0  0  0  0  0  0
  139.7490  145.5321  129.9329 H   0  0  0  0  0  0  0  0  0  0  0  0
  138.4001  145.6803  128.7559 H   0  0  0  0  0  0  0  0  0  0  0  0
  139.7289  146.8889  128.7559 H   0  0  0  0  0  0  0  0  0  0  0  0
  141.6800  148.7263  131.2668 H   0  0  0  0  0  0  0  0  0  0  0  0
  140.9569  147.9288  129.8288 H   0  0  0  0  0  0  0  0  0  0  0  0
  141.2301  149.7042  129.8288 H   0  0  0  0  0  0  0  0  0  0  0  0
  139.3834  150.9276  131.9162 H   0  0  0  0  0  0  0  0  0  0  0  0
  138.5010  149.5599  132.7069 H   0  0  0  0  0  0  0  0  0  0  0  0
  140.1855  149.5674  134.2117 H   0  0  0  0  0  0  0  0  0  0  0  0
  141.1538  148.7790  132.9003 H   0  0  0  0  0  0  0  0  0  0  0  0
  143.3199  149.6225  132.9245 H   0  0  0  0  0  0  0  0  0  0  0  0
  144.8842  151.5870  132.7580 H   0  0  0  0  0  0  0  0  0  0  0  0
  144.9523  154.4418  132.7330 H   0  0  0  0  0  0  0  0  0  0  0  0
  141.3670  157.1840  131.8570 H   0  0  0  0  0  0  0  0  0  0  0  0
  142.4460  158.5500  132.2940 H   0  0  0  0  0  0  0  0  0  0  0  0
  138.1931  156.5539  133.3965 H   0  0  0  0  0  0  0  0  0  0  0  0
  138.8870  157.8138  134.4817 H   0  0  0  0  0  0  0  0  0  0  0  0
  139.9454  152.3464  133.3738 H   0  0  0  0  0  0  0  0  0  0  0  0
  1  2  1  0
  2  3  1  0
  3  4  2  0
  3  5  1  0
  5  6  1  0
  5  7  1  0
  7  8  1  0
  8  9  1  0
  9 10  2  0
 10 11  1  0
 11 12  2  0
 12 13  1  0
 13 14  2  0
 14 15  1  0
 15 16  1  0
 15 17  2  0
 14 18  1  0
 18 19  1  0
 19 20  2  0
 19 21  1  0
 21 22  1  0
 22 23  1  0
 23 24  2  0
 18 25  1  0
 25 26  2  0
 26  9  1  0
 25 12  1  0
  1 27  1  0
  1 28  1  0
  1 29  1  0
  6 30  1  0
  6 31  1  0
  6 32  1  0
  7 33  1  0
  7 34  1  0
  8 35  1  0
  8 36  1  0
 10 37  1  0
 11 38  1  0
 13 39  1  0
 16 40  1  0
 16 41  1  0
 22 42  1  0
 22 43  1  0
 26 44  1  0
M  END
>  <UniqueID>  (34) 
33

>  <SMILES>  (34) 
COC(=O)N(C)CCc1ccc2cc(C(N)=O)n(C(=O)OCP=O)c2c1

>  <Energy>  (34) 
71.29829713754745

>  <Genealogy>  (34) 
COC(=O)N(C)CCc1ccc2cc(C(N)=O)n(C(=O)OCP=O)c2c1 (3D coordinates assigned)
COC(=O)N(C)CCc1ccc2cc(C(N)=O)n(C(=O)OCP=O)c2c1 (optimized conformer: 71.29829713754745 kcal/mol)

>  <smiles>  (34) 
COC(=O)N(C)CCc1ccc2cc(C(N)=O)n(C(=O)OCP=O)c2c1

>  <score_type>  (34) 
oracle

>  <origin>  (34) 
adg

>  <m_score__min__energy>  (34) 
-6.79

>  <m_primary>  (34) 
energy

$$$$
35:0
     RDKit          3D

 31 32  0  0  0  0  0  0  0  0999 V2000
  146.5780  160.5680  133.0450 N   0  0  0  0  0  0  0  0  0  0  0  0
  145.7160  159.4900  133.4110 C   0  0  0  0  0  0  0  0  0  0  0  0
  144.5380  159.7410  133.7790 O   0  0  0  0  0  0  0  0  0  0  0  0
  146.1590  158.0860  133.3040 C   0  0  0  0  0  0  0  0  0  0  0  0
  145.2950  157.0000  133.4170 C   0  0  0  0  0  0  0  0  0  0  0  0
  146.0780  155.8900  133.1960 C   0  0  0  0  0  0  0  0  0  0  0  0
  145.7380  154.5410  133.2140 C   0  0  0  0  0  0  0  0  0  0  0  0
  146.7580  153.6010  132.9960 C   0  0  0  0  0  0  0  0  0  0  0  0
  148.0930  154.0220  132.7580 C   0  0  0  0  0  0  0  0  0  0  0  0
  149.1910  153.0010  132.5920 C   0  0  0  0  0  0  0  0  0  0  0  0
  148.8380  152.1120  131.5950 F   0  0  0  0  0  0  0  0  0  0  0  0
  149.3910  152.3020  133.7710 F   0  0  0  0  0  0  0  0  0  0  0  0
  150.3810  153.6170  132.2480 F   0  0  0  0  0  0  0  0  0  0  0  0
  148.4020  155.4010  132.7750 C   0  0  0  0  0  0  0  0  0  0  0  0
  147.3610  156.3170  132.9710 C   0  0  0  0  0  0  0  0  0  0  0  0
  147.4280  157.6670  133.0380 N   0  0  0  0  0  0  0  0  0  0  0  0
  148.6170  158.4700  132.9600 C   0  0  0  0  0  0  0  0  0  0  0  0
  148.8740  159.3050  133.8710 O   0  0  0  0  0  0  0  0  0  0  0  0
  149.4890  158.3200  131.8780 O   0  0  0  0  0  0  0  0  0  0  0  0
  149.2690  158.9450  130.6200 C   0  0  0  0  0  0  0  0  0  0  0  0
  148.6140  160.2670  130.8360 C   0  0  0  0  0  0  0  0  0  0  0  0
  149.2110  161.1720  131.4750 O   0  0  0  0  0  0  0  0  0  0  0  0
  147.3190  160.4820  130.3840 O   0  0  0  0  0  0  0  0  0  0  0  0
  146.2630  161.5560  133.1640 H   0  0  0  0  0  0  0  0  0  0  0  0
  147.4950  160.3910  132.5780 H   0  0  0  0  0  0  0  0  0  0  0  0
  144.2173  157.0241  133.6360 H   0  0  0  0  0  0  0  0  0  0  0  0
  144.7012  154.2205  133.3936 H   0  0  0  0  0  0  0  0  0  0  0  0
  146.5203  152.5271  133.0097 H   0  0  0  0  0  0  0  0  0  0  0  0
  149.4370  155.7471  132.6373 H   0  0  0  0  0  0  0  0  0  0  0  0
  150.2318  159.0909  130.1085 H   0  0  0  0  0  0  0  0  0  0  0  0
  148.6204  158.3086  130.0001 H   0  0  0  0  0  0  0  0  0  0  0  0
  1  2  1  0
  2  3  2  0
  2  4  1  0
  4  5  2  0
  5  6  1  0
  6  7  2  0
  7  8  1  0
  8  9  2  0
  9 10  1  0
 10 11  1  0
 10 12  1  0
 10 13  1  0
  9 14  1  0
 14 15  2  0
 15 16  1  0
 16 17  1  0
 17 18  2  0
 17 19  1  0
 19 20  1  0
 20 21  1  0
 21 22  2  0
 21 23  1  0
 16  4  1  0
 15  6  1  0
  1 24  1  0
  1 25  1  0
  5 26  1  0
  7 27  1  0
  8 28  1  0
 14 29  1  0
 20 30  1  0
 20 31  1  0
M  CHG  1  23  -1
M  END
>  <UniqueID>  (35) 
34

>  <SMILES>  (35) 
NC(=O)c1cc2ccc(C(F)(F)F)cc2n1C(=O)OCC(=O)[O-]

>  <Energy>  (35) 
68.19829130346457

>  <Genealogy>  (35) 
NC(=O)c1cc2ccc(C(F)(F)F)cc2n1C(=O)OCC(=O)[O-] (protonated)
NC(=O)c1cc2ccc(C(F)(F)F)cc2n1C(=O)OCC(=O)[O-] (3D coordinates assigned)
NC(=O)c1cc2ccc(C(F)(F)F)cc2n1C(=O)OCC(=O)[O-] (optimized conformer: 68.19829130346457 kcal/mol)

>  <smiles>  (35) 
NC(=O)c1cc2ccc(C(F)(F)F)cc2n1C(=O)OCC(=O)O

>  <score_type>  (35) 
oracle

>  <origin>  (35) 
adg

>  <m_score__min__energy>  (35) 
-5.7699999999999996

>  <m_primary>  (35) 
energy

$$$$
36:0
     RDKit          3D

 34 35  0  0  0  0  0  0  0  0999 V2000
  139.7840  160.4570  131.7170 N   0  0  0  0  0  0  0  0  0  0  0  0
  138.6450  159.6520  131.4200 C   0  0  0  0  0  0  0  0  0  0  0  0
  137.7280  160.1060  130.6850 O   0  0  0  0  0  0  0  0  0  0  0  0
  138.5500  158.2600  131.9580 C   0  0  0  0  0  0  0  0  0  0  0  0
  139.7010  157.9660  132.8070 N   0  0  0  0  0  0  0  0  0  0  0  0
  139.8580  156.7070  133.4800 C   0  0  0  0  0  0  0  0  0  0  0  0
  138.9930  155.8010  133.3340 O   0  0  0  0  0  0  0  0  0  0  0  0
  141.0210  156.4630  134.3530 C   0  0  0  0  0  0  0  0  0  0  0  0
  141.8120  155.5150  134.0990 O   0  0  0  0  0  0  0  0  0  0  0  0
  141.2680  157.3020  135.4920 N   0  0  0  0  0  0  0  0  0  0  0  0
  141.6230  158.6170  135.4960 C   0  0  0  0  0  0  0  0  0  0  0  0
  141.7120  159.4940  134.3090 C   0  0  0  0  0  0  0  0  0  0  0  0
  142.1920  158.9980  133.0620 N   0  0  0  0  0  0  0  0  0  0  0  0
  141.3320  160.6930  134.3900 O   0  0  0  0  0  0  0  0  0  0  0  0
  141.8520  159.0550  136.8000 C   0  0  0  0  0  0  0  0  0  0  0  0
  141.6250  157.9560  137.5990 C   0  0  0  0  0  0  0  0  0  0  0  0
  141.7340  157.8140  138.9790 C   0  0  0  0  0  0  0  0  0  0  0  0
  141.4760  156.5480  139.5330 C   0  0  0  0  0  0  0  0  0  0  0  0
  141.1070  155.4550  138.7060 C   0  0  0  0  0  0  0  0  0  0  0  0
  140.8920  154.0890  139.3060 C   0  0  0  0  0  0  0  0  0  0  0  0
  140.6610  153.1520  138.3140 F   0  0  0  0  0  0  0  0  0  0  0  0
  142.0030  153.6910  140.0280 F   0  0  0  0  0  0  0  0  0  0  0  0
  139.7970  154.1310  140.1510 F   0  0  0  0  0  0  0  0  0  0  0  0
  141.0330  155.6360  137.3050 C   0  0  0  0  0  0  0  0  0  0  0  0
  141.2760  156.9120  136.7850 C   0  0  0  0  0  0  0  0  0  0  0  0
  140.4670  160.1670  132.4510 H   0  0  0  0  0  0  0  0  0  0  0  0
  137.6279  158.1616  132.5497 H   0  0  0  0  0  0  0  0  0  0  0  0
  138.5350  157.5512  131.1169 H   0  0  0  0  0  0  0  0  0  0  0  0
  140.4400  158.6990  132.9050 H   0  0  0  0  0  0  0  0  0  0  0  0
  141.7500  159.2890  132.1620 H   0  0  0  0  0  0  0  0  0  0  0  0
  142.1504  160.0636  137.1221 H   0  0  0  0  0  0  0  0  0  0  0  0
  142.0133  158.6658  139.6165 H   0  0  0  0  0  0  0  0  0  0  0  0
  141.5611  156.4027  140.6200 H   0  0  0  0  0  0  0  0  0  0  0  0
  140.7903  154.7938  136.6403 H   0  0  0  0  0  0  0  0  0  0  0  0
  1  2  1  0
  2  3  2  0
  2  4  1  0
  4  5  1  0
  5  6  1  0
  6  7  2  0
  6  8  1  0
  8  9  2  0
  8 10  1  0
 10 11  1  0
 11 12  1  0
 12 13  1  0
 12 14  2  0
 11 15  2  0
 15 16  1  0
 16 17  2  0
 17 18  1  0
 18 19  2  0
 19 20  1  0
 20 21  1  0
 20 22  1  0
 20 23  1  0
 19 24  1  0
 24 25  2  0
 25 10  1  0
 25 16  1  0
  1 26  1  0
  4 27  1  0
  4 28  1  0
  5 29  1  0
 13 30  1  0
 15 31  1  0
 17 32  1  0
 18 33  1  0
 24 34  1  0
M  CHG  2   1  -1  13  -1
M  END
>  <UniqueID>  (36) 
35

>  <SMILES>  (36) 
[NH-]C(=O)CNC(=O)C(=O)n1c(C([NH-])=O)cc2ccc(C(F)(F)F)cc21

>  <Energy>  (36) 
70.62457294532129

>  <Genealogy>  (36) 
[NH-]C(=O)CNC(=O)C(=O)n1c(C([NH-])=O)cc2ccc(C(F)(F)F)cc21 (protonated)
[NH-]C(=O)CNC(=O)C(=O)n1c(C([NH-])=O)cc2ccc(C(F)(F)F)cc21 (3D coordinates assigned)
[NH-]C(=O)CNC(=O)C(=O)n1c(C([NH-])=O)cc2ccc(C(F)(F)F)cc21 (optimized conformer: 70.62457294532129 kcal/mol)

>  <smiles>  (36) 
NC(=O)CNC(=O)C(=O)n1c(C(N)=O)cc2ccc(C(F)(F)F)cc21

>  <score_type>  (36) 
oracle

>  <origin>  (36) 
adg

>  <m_score__min__energy>  (36) 
-6.4500000000000002

>  <m_primary>  (36) 
energy

$$$$
37:0
     RDKit          3D

 70 72  0  0  0  0  0  0  0  0999 V2000
  139.5530  157.8220  135.1000 C   0  0  0  0  0  0  0  0  0  0  0  0
  140.4330  158.0710  136.0740 C   0  0  0  0  0  0  0  0  0  0  0  0
  141.0980  159.4080  136.2030 C   0  0  0  0  0  0  0  0  0  0  0  0
  142.4190  159.3400  135.6770 O   0  0  0  0  0  0  0  0  0  0  0  0
  142.7210  159.6660  134.3520 C   0  0  0  0  0  0  0  0  0  0  0  0
  141.7940  159.8850  133.5240 O   0  0  0  0  0  0  0  0  0  0  0  0
  144.0930  159.7250  133.9270 N   0  0  0  0  0  0  0  0  0  0  0  0
  144.8600  160.8380  133.7540 C   0  0  0  0  0  0  0  0  0  0  0  0
  144.3800  162.2350  133.7860 C   0  0  0  0  0  0  0  0  0  0  0  0
  143.0570  162.5610  133.3670 N   0  0  0  0  0  0  0  0  0  0  0  0
  145.1610  163.1570  134.1410 O   0  0  0  0  0  0  0  0  0  0  0  0
  146.1720  160.4890  133.4490 C   0  0  0  0  0  0  0  0  0  0  0  0
  146.1860  159.1140  133.4280 C   0  0  0  0  0  0  0  0  0  0  0  0
  147.2370  158.2350  133.1870 C   0  0  0  0  0  0  0  0  0  0  0  0
  146.9740  156.8580  133.2550 C   0  0  0  0  0  0  0  0  0  0  0  0
  145.6730  156.3820  133.5630 C   0  0  0  0  0  0  0  0  0  0  0  0
  145.4170  154.8930  133.6620 C   0  0  2  0  0  0  0  0  0  0  0  0
  146.7180  154.1270  133.7480 C   0  0  0  0  0  0  0  0  0  0  0  0
  146.9200  152.9400  133.1400 C   0  0  0  0  0  0  0  0  0  0  0  0
  148.1280  152.2330  133.2800 O   0  0  0  0  0  0  0  0  0  0  0  0
  149.2620  152.3710  132.4290 C   0  0  0  0  0  0  0  0  0  0  0  0
  145.8760  152.3400  132.2150 C   0  0  1  0  0  0  0  0  0  0  0  0
  145.8850  150.9360  132.2890 O   0  0  0  0  0  0  0  0  0  0  0  0
  144.4500  152.8900  132.4510 C   0  0  1  0  0  0  0  0  0  0  0  0
  143.9470  152.3890  133.6780 O   0  0  0  0  0  0  0  0  0  0  0  0
  142.2040  152.3140  133.7360 Si  0  0  0  0  0  4  0  0  0  0  0  0
  141.3480  153.8250  133.0150 C   0  0  0  0  0  0  0  0  0  0  0  0
  141.7390  152.2810  135.5480 C   0  0  0  0  0  0  0  0  0  0  0  0
  141.5790  150.7230  132.8880 C   0  0  0  0  0  0  0  0  0  0  0  0
  140.8800  149.8210  133.9200 C   0  0  0  0  0  0  0  0  0  0  0  0
  142.7720  149.9670  132.2790 C   0  0  0  0  0  0  0  0  0  0  0  0
  140.5810  151.0830  131.7740 C   0  0  0  0  0  0  0  0  0  0  0  0
  144.5300  154.4250  132.4930 C   0  0  0  0  0  0  0  0  0  0  0  0
  144.6340  157.3100  133.8180 C   0  0  0  0  0  0  0  0  0  0  0  0
  144.9200  158.6760  133.7210 C   0  0  0  0  0  0  0  0  0  0  0  0
  139.0787  156.8322  135.0271 H   0  0  0  0  0  0  0  0  0  0  0  0
  139.3028  158.6068  134.3710 H   0  0  0  0  0  0  0  0  0  0  0  0
  140.6746  157.2777  136.7967 H   0  0  0  0  0  0  0  0  0  0  0  0
  140.5203  160.1591  135.6443 H   0  0  0  0  0  0  0  0  0  0  0  0
  141.1431  159.6913  137.2649 H   0  0  0  0  0  0  0  0  0  0  0  0
  142.2550  161.9300  133.5890 H   0  0  0  0  0  0  0  0  0  0  0  0
  147.0175  161.1680  133.2642 H   0  0  0  0  0  0  0  0  0  0  0  0
  148.2443  158.6081  132.9502 H   0  0  0  0  0  0  0  0  0  0  0  0
  147.7856  156.1395  133.0674 H   0  0  0  0  0  0  0  0  0  0  0  0
  144.8676  154.6834  134.5917 H   0  0  0  0  0  0  0  0  0  0  0  0
  147.5410  154.5595  134.3359 H   0  0  0  0  0  0  0  0  0  0  0  0
  150.1689  152.4814  133.0416 H   0  0  0  0  0  0  0  0  0  0  0  0
  149.3549  151.4775  131.7941 H   0  0  0  0  0  0  0  0  0  0  0  0
  149.1379  153.2607  131.7941 H   0  0  0  0  0  0  0  0  0  0  0  0
  146.1607  152.6493  131.1985 H   0  0  0  0  0  0  0  0  0  0  0  0
  146.5480  150.6740  132.9800 H   0  0  0  0  0  0  0  0  0  0  0  0
  143.7739  152.5742  131.6428 H   0  0  0  0  0  0  0  0  0  0  0  0
  140.9851  154.4656  133.8322 H   0  0  0  0  0  0  0  0  0  0  0  0
  142.0606  154.3893  132.3955 H   0  0  0  0  0  0  0  0  0  0  0  0
  140.4976  153.5039  132.3955 H   0  0  0  0  0  0  0  0  0  0  0  0
  142.6497  152.3456  136.1615 H   0  0  0  0  0  0  0  0  0  0  0  0
  141.0834  153.1349  135.7739 H   0  0  0  0  0  0  0  0  0  0  0  0
  141.2105  151.3431  135.7739 H   0  0  0  0  0  0  0  0  0  0  0  0
  141.1395  150.1559  134.9351 H   0  0  0  0  0  0  0  0  0  0  0  0
  139.7904  149.8813  133.7813 H   0  0  0  0  0  0  0  0  0  0  0  0
  141.2103  148.7810  133.7813 H   0  0  0  0  0  0  0  0  0  0  0  0
  143.4033  149.5670  133.0862 H   0  0  0  0  0  0  0  0  0  0  0  0
  142.4022  149.1380  131.6577 H   0  0  0  0  0  0  0  0  0  0  0  0
  143.3637  150.6553  131.6577 H   0  0  0  0  0  0  0  0  0  0  0  0
  139.6367  151.4236  132.2237 H   0  0  0  0  0  0  0  0  0  0  0  0
  141.0011  151.8862  131.1509 H   0  0  0  0  0  0  0  0  0  0  0  0
  140.3916  150.1965  131.1509 H   0  0  0  0  0  0  0  0  0  0  0  0
  144.9569  154.7902  131.5473 H   0  0  0  0  0  0  0  0  0  0  0  0
  143.5164  154.8278  132.6353 H   0  0  0  0  0  0  0  0  0  0  0  0
  143.6247  156.9645  134.0863 H   0  0  0  0  0  0  0  0  0  0  0  0
  1  2  2  0
  2  3  1  0
  3  4  1  0
  4  5  1  0
  5  6  2  0
  5  7  1  0
  7  8  1  0
  8  9  1  0
  9 10  1  0
  9 11  2  0
  8 12  2  0
 12 13  1  0
 13 14  2  0
 14 15  1  0
 15 16  2  0
 16 17  1  0
 17 18  1  0
 18 19  2  0
 19 20  1  0
 20 21  1  0
 19 22  1  0
 22 23  1  0
 22 24  1  0
 24 25  1  0
 25 26  1  0
 26 27  1  0
 26 28  1  0
 26 29  1  0
 29 30  1  0
 29 31  1  0
 29 32  1  0
 24 33  1  0
 16 34  1  0
 34 35  2  0
 35  7  1  0
 35 13  1  0
 33 17  1  0
  1 36  1  0
  1 37  1  0
  2 38  1  0
  3 39  1  0
  3 40  1  0
 10 41  1  0
 12 42  1  0
 14 43  1  0
 15 44  1  0
 17 45  1  1
 18 46  1  0
 21 47  1  0
 21 48  1  0
 21 49  1  0
 22 50  1  6
 23 51  1  0
 24 52  1  6
 27 53  1  0
 27 54  1  0
 27 55  1  0
 28 56  1  0
 28 57  1  0
 28 58  1  0
 30 59  1  0
 30 60  1  0
 30 61  1  0
 31 62  1  0
 31 63  1  0
 31 64  1  0
 32 65  1  0
 32 66  1  0
 32 67  1  0
 33 68  1  0
 33 69  1  0
 34 70  1  0
M  CHG  1  10  -1
M  END
>  <UniqueID>  (37) 
36

>  <SMILES>  (37) 
C=CCOC(=O)n1c(C([NH-])=O)cc2ccc([C@@H]3C=C(OC)[C@@H](O)[C@@H](O[Si](C)(C)C(C)(C)C)C3)cc21

>  <Energy>  (37) 
91.13569874866987

>  <Genealogy>  (37) 
C=CCOC(=O)n1c(C([NH-])=O)cc2ccc([C@@H]3C=C(OC)[C@@H](O)C(O[Si](C)(C)C(C)(C)C)C3)cc21 (protonated)
C=CCOC(=O)n1c(C([NH-])=O)cc2ccc([C@@H]3C=C(OC)[C@@H](O)[C@@H](O[Si](C)(C)C(C)(C)C)C3)cc21 (chirality)
C=CCOC(=O)n1c(C([NH-])=O)cc2ccc([C@@H]3C=C(OC)[C@@H](O)[C@@H](O[Si](C)(C)C(C)(C)C)C3)cc21 (3D coordinates assigned)
C=CCOC(=O)n1c(C([NH-])=O)cc2ccc([C@@H]3C=C(OC)[C@@H](O)[C@@H](O[Si](C)(C)C(C)(C)C)C3)cc21 (nonaromatic ring conformer: 91.13569874866987 kcal/mol)

>  <smiles>  (37) 
C=CCOC(=O)n1c(C(N)=O)cc2ccc([C@@H]3C=C(OC)[C@@H](O)C(O[Si](C)(C)C(C)(C)C)C3)cc21

>  <score_type>  (37) 
oracle

>  <origin>  (37) 
adg

>  <m_score__min__energy>  (37) 
-9.6799999999999997

>  <m_primary>  (37) 
energy

$$$$
38:0
     RDKit          3D

 38 40  0  0  0  0  0  0  0  0999 V2000
  148.4930  161.2120  131.2420 C   0  0  0  0  0  0  0  0  0  0  0  0
  148.5820  159.8380  131.7430 N   0  0  0  0  0  0  0  0  0  0  0  0
  149.3950  158.8780  131.0380 C   0  0  0  0  0  0  0  0  0  0  0  0
  150.3020  158.2450  131.6420 O   0  0  0  0  0  0  0  0  0  0  0  0
  149.1750  158.6130  129.6920 O   0  0  0  0  0  0  0  0  0  0  0  0
  148.0100  159.5180  133.0260 C   0  0  0  0  0  0  0  0  0  0  0  0
  148.4040  160.1270  134.0580 O   0  0  0  0  0  0  0  0  0  0  0  0
  146.9940  158.5080  133.1540 N   0  0  0  0  0  0  0  0  0  0  0  0
  145.6550  158.6820  133.3380 C   0  0  0  0  0  0  0  0  0  0  0  0
  144.9710  159.9710  133.5710 C   0  0  0  0  0  0  0  0  0  0  0  0
  145.7120  161.1520  133.8640 N   0  0  0  0  0  0  0  0  0  0  0  0
  143.7110  160.0220  133.5500 O   0  0  0  0  0  0  0  0  0  0  0  0
  145.0010  157.4500  133.3460 C   0  0  0  0  0  0  0  0  0  0  0  0
  145.9910  156.5100  133.1730 C   0  0  0  0  0  0  0  0  0  0  0  0
  145.9090  155.1220  133.1070 C   0  0  0  0  0  0  0  0  0  0  0  0
  147.0990  154.4010  132.9080 C   0  0  0  0  0  0  0  0  0  0  0  0
  148.3360  155.0770  132.7620 C   0  0  0  0  0  0  0  0  0  0  0  0
  149.6060  154.2930  132.5850 C   0  0  0  0  0  0  0  0  0  0  0  0
  149.3180  152.8650  132.6390 N   0  0  0  0  0  0  0  0  0  0  0  0
  149.0020  152.1500  133.7320 C   0  0  0  0  0  0  0  0  0  0  0  0
  148.7250  150.8800  133.3910 N   0  0  0  0  0  0  0  0  0  0  0  0
  148.8780  150.8650  132.0510 C   0  0  0  0  0  0  0  0  0  0  0  0
  149.2320  152.0770  131.5780 N   0  0  0  0  0  0  0  0  0  0  0  0
  148.3820  156.4850  132.8480 C   0  0  0  0  0  0  0  0  0  0  0  0
  147.1840  157.1750  133.0620 C   0  0  0  0  0  0  0  0  0  0  0  0
  148.4478  161.9097  132.0912 H   0  0  0  0  0  0  0  0  0  0  0  0
  149.3785  161.4370  130.6293 H   0  0  0  0  0  0  0  0  0  0  0  0
  147.5859  161.3209  130.6293 H   0  0  0  0  0  0  0  0  0  0  0  0
  146.6350  161.3330  133.4110 H   0  0  0  0  0  0  0  0  0  0  0  0
  143.9227  157.2684  133.4653 H   0  0  0  0  0  0  0  0  0  0  0  0
  144.9430  154.6055  133.2074 H   0  0  0  0  0  0  0  0  0  0  0  0
  147.0699  153.3022  132.8652 H   0  0  0  0  0  0  0  0  0  0  0  0
  150.0536  154.5384  131.6106 H   0  0  0  0  0  0  0  0  0  0  0  0
  150.3075  154.5522  133.3917 H   0  0  0  0  0  0  0  0  0  0  0  0
  148.9741  152.5469  134.7575 H   0  0  0  0  0  0  0  0  0  0  0  0
  148.4470  150.0920  134.0150 H   0  0  0  0  0  0  0  0  0  0  0  0
  148.7321  149.9744  131.4220 H   0  0  0  0  0  0  0  0  0  0  0  0
  149.3349  157.0257  132.7494 H   0  0  0  0  0  0  0  0  0  0  0  0
  1  2  1  0
  2  3  1  0
  3  4  2  0
  3  5  1  0
  2  6  1  0
  6  7  2  0
  6  8  1  0
  8  9  1  0
  9 10  1  0
 10 11  1  0
 10 12  2  0
  9 13  2  0
 13 14  1  0
 14 15  2  0
 15 16  1  0
 16 17  2  0
 17 18  1  0
 18 19  1  0
 19 20  1  0
 20 21  2  0
 21 22  1  0
 22 23  2  0
 17 24  1  0
 24 25  2  0
 25  8  1  0
 25 14  1  0
 23 19  1  0
  1 26  1  0
  1 27  1  0
  1 28  1  0
 11 29  1  0
 13 30  1  0
 15 31  1  0
 16 32  1  0
 18 33  1  0
 18 34  1  0
 20 35  1  0
 21 36  1  0
 22 37  1  0
 24 38  1  0
M  CHG  3   5  -1  11  -1  21   1
M  END
>  <UniqueID>  (38) 
37

>  <SMILES>  (38) 
CN(C(=O)[O-])C(=O)n1c(C([NH-])=O)cc2ccc(Cn3c[nH+]cn3)cc21

>  <Energy>  (38) 
113.93223487570204

>  <Genealogy>  (38) 
CN(C(=O)[O-])C(=O)n1c(C([NH-])=O)cc2ccc(Cn3c[nH+]cn3)cc21 (protonated)
CN(C(=O)[O-])C(=O)n1c(C([NH-])=O)cc2ccc(Cn3c[nH+]cn3)cc21 (3D coordinates assigned)
CN(C(=O)[O-])C(=O)n1c(C([NH-])=O)cc2ccc(Cn3c[nH+]cn3)cc21 (optimized conformer: 113.93223487570204 kcal/mol)

>  <smiles>  (38) 
CN(C(=O)O)C(=O)n1c(C(N)=O)cc2ccc(Cn3cncn3)cc21

>  <score_type>  (38) 
oracle

>  <origin>  (38) 
adg

>  <m_score__min__energy>  (38) 
-6.71

>  <m_primary>  (38) 
energy

$$$$
39:0
     RDKit          3D

 45 46  0  0  0  0  0  0  0  0999 V2000
  138.8370  147.0220  130.0480 C   0  0  0  0  0  0  0  0  0  0  0  0
  139.2820  148.1620  130.8650 N   0  0  0  0  0  0  0  0  0  0  0  0
  138.2690  149.2300  130.8720 C   0  0  0  0  0  0  0  0  0  0  0  0
  140.6170  148.6550  130.4610 C   0  0  0  0  0  0  0  0  0  0  0  0
  141.4130  149.2390  131.5980 C   0  0  0  0  0  0  0  0  0  0  0  0
  142.6630  149.3690  131.4910 O   0  0  0  0  0  0  0  0  0  0  0  0
  140.7430  149.6520  132.7940 N   0  0  0  0  0  0  0  0  0  0  0  0
  140.9820  150.9380  133.4380 C   0  0  0  0  0  0  0  0  0  0  0  0
  142.0520  151.6530  132.7500 N   0  0  0  0  0  0  0  0  0  0  0  0
  142.9440  152.5390  133.4410 C   0  0  0  0  0  0  0  0  0  0  0  0
  142.8490  152.6930  134.6880 O   0  0  0  0  0  0  0  0  0  0  0  0
  143.9680  153.3200  132.6760 C   0  0  0  0  0  0  0  0  0  0  0  0
  143.9330  154.7640  133.0930 C   0  0  0  0  0  0  0  0  0  0  0  0
  145.1160  155.5440  133.0610 C   0  0  0  0  0  0  0  0  0  0  0  0
  145.0850  156.9050  133.4080 C   0  0  0  0  0  0  0  0  0  0  0  0
  143.8600  157.4560  133.7750 C   0  0  0  0  0  0  0  0  0  0  0  0
  143.5400  158.7530  134.1060 C   0  0  0  0  0  0  0  0  0  0  0  0
  142.1670  158.7450  134.3390 C   0  0  0  0  0  0  0  0  0  0  0  0
  141.4130  159.9310  134.7940 C   0  0  0  0  0  0  0  0  0  0  0  0
  140.7060  159.8910  136.0310 N   0  0  0  0  0  0  0  0  0  0  0  0
  141.3530  160.9690  134.0830 O   0  0  0  0  0  0  0  0  0  0  0  0
  141.6560  157.4940  134.1530 N   0  0  0  0  0  0  0  0  0  0  0  0
  140.2780  157.0920  134.2020 C   0  0  0  0  0  0  0  0  0  0  0  0
  139.8000  156.3470  133.3080 O   0  0  0  0  0  0  0  0  0  0  0  0
  139.4490  157.5470  135.2220 O   0  0  0  0  0  0  0  0  0  0  0  0
  142.7080  156.7160  133.8130 C   0  0  0  0  0  0  0  0  0  0  0  0
  142.7080  155.3600  133.4620 C   0  0  0  0  0  0  0  0  0  0  0  0
  138.5167  146.2015  130.7070 H   0  0  0  0  0  0  0  0  0  0  0  0
  137.9941  147.3327  129.4131 H   0  0  0  0  0  0  0  0  0  0  0  0
  139.6675  146.6795  129.4131 H   0  0  0  0  0  0  0  0  0  0  0  0
  138.0201  149.4924  131.9108 H   0  0  0  0  0  0  0  0  0  0  0  0
  138.6666  150.1159  130.3552 H   0  0  0  0  0  0  0  0  0  0  0  0
  137.3633  148.8797  130.3552 H   0  0  0  0  0  0  0  0  0  0  0  0
  141.1841  147.8141  130.0352 H   0  0  0  0  0  0  0  0  0  0  0  0
  140.4557  149.4625  129.7317 H   0  0  0  0  0  0  0  0  0  0  0  0
  140.0615  151.5392  133.4025 H   0  0  0  0  0  0  0  0  0  0  0  0
  141.2779  150.7672  134.4836 H   0  0  0  0  0  0  0  0  0  0  0  0
  142.1660  151.5150  131.7210 H   0  0  0  0  0  0  0  0  0  0  0  0
  144.9671  152.9068  132.8788 H   0  0  0  0  0  0  0  0  0  0  0  0
  143.7454  153.2499  131.6010 H   0  0  0  0  0  0  0  0  0  0  0  0
  146.0671  155.0794  132.7617 H   0  0  0  0  0  0  0  0  0  0  0  0
  145.9995  157.5160  133.3903 H   0  0  0  0  0  0  0  0  0  0  0  0
  144.2231  159.6127  134.1724 H   0  0  0  0  0  0  0  0  0  0  0  0
  139.7250  159.5370  136.0780 H   0  0  0  0  0  0  0  0  0  0  0  0
  141.7769  154.7745  133.4737 H   0  0  0  0  0  0  0  0  0  0  0  0
  1  2  1  0
  2  3  1  0
  2  4  1  0
  4  5  1  0
  5  6  2  0
  5  7  1  0
  7  8  1  0
  8  9  1  0
  9 10  1  0
 10 11  2  0
 10 12  1  0
 12 13  1  0
 13 14  2  0
 14 15  1  0
 15 16  2  0
 16 17  1  0
 17 18  2  0
 18 19  1  0
 19 20  1  0
 19 21  2  0
 18 22  1  0
 22 23  1  0
 23 24  2  0
 23 25  1  0
 22 26  1  0
 26 27  2  0
 27 13  1  0
 26 16  1  0
  1 28  1  0
  1 29  1  0
  1 30  1  0
  3 31  1  0
  3 32  1  0
  3 33  1  0
  4 34  1  0
  4 35  1  0
  8 36  1  0
  8 37  1  0
  9 38  1  0
 12 39  1  0
 12 40  1  0
 14 41  1  0
 15 42  1  0
 17 43  1  0
 20 44  1  0
 27 45  1  0
M  CHG  3   7  -1  20  -1  25  -1
M  END
>  <UniqueID>  (39) 
38

>  <SMILES>  (39) 
CN(C)CC(=O)[N-]CNC(=O)Cc1ccc2cc(C([NH-])=O)n(C(=O)[O-])c2c1

>  <Energy>  (39) 
72.94191532897665

>  <Genealogy>  (39) 
CN(C)CC(=O)[N-]CNC(=O)Cc1ccc2cc(C([NH-])=O)n(C(=O)[O-])c2c1 (protonated)
CN(C)CC(=O)[N-]CNC(=O)Cc1ccc2cc(C([NH-])=O)n(C(=O)[O-])c2c1 (3D coordinates assigned)
CN(C)CC(=O)[N-]CNC(=O)Cc1ccc2cc(C([NH-])=O)n(C(=O)[O-])c2c1 (optimized conformer: 72.94191532897665 kcal/mol)

>  <smiles>  (39) 
CN(C)CC(=O)NCNC(=O)Cc1ccc2cc(C(N)=O)n(C(=O)O)c2c1

>  <score_type>  (39) 
oracle

>  <origin>  (39) 
adg

>  <m_score__min__energy>  (39) 
-7.0800000000000001

>  <m_primary>  (39) 
energy

$$$$
40:0
     RDKit          3D

 49 51  0  0  0  0  0  0  0  0999 V2000
  144.1290  160.3510  134.0360 C   0  0  0  0  0  0  0  0  0  0  0  0
  145.3370  160.3710  133.2180 N   0  0  0  0  0  0  0  0  0  0  0  0
  146.2780  159.2840  133.1620 C   0  0  0  0  0  0  0  0  0  0  0  0
  147.6820  159.5120  133.1900 C   0  0  0  0  0  0  0  0  0  0  0  0
  148.5850  158.4380  133.1250 C   0  0  0  0  0  0  0  0  0  0  0  0
  148.0650  157.1510  133.0350 C   0  0  0  0  0  0  0  0  0  0  0  0
  148.7080  155.9350  132.9460 C   0  0  0  0  0  0  0  0  0  0  0  0
  147.6900  154.9830  132.8770 C   0  0  0  0  0  0  0  0  0  0  0  0
  147.9100  153.5180  132.8500 C   0  0  0  0  0  0  0  0  0  0  0  0
  146.8280  152.6080  133.0590 N   0  0  0  0  0  0  0  0  0  0  0  0
  149.0610  153.0570  132.6250 O   0  0  0  0  0  0  0  0  0  0  0  0
  146.4720  155.5920  132.9160 N   0  0  0  0  0  0  0  0  0  0  0  0
  145.1750  154.9810  132.8360 C   0  0  0  0  0  0  0  0  0  0  0  0
  144.9070  154.2370  131.8560 O   0  0  0  0  0  0  0  0  0  0  0  0
  144.1720  155.2110  133.8960 C   0  0  0  0  0  0  0  0  0  0  0  0
  143.3360  156.1440  133.7540 O   0  0  0  0  0  0  0  0  0  0  0  0
  144.1230  154.3890  135.0790 N   0  0  0  0  0  0  0  0  0  0  0  0
  145.3830  154.1490  135.7920 C   0  0  0  0  0  0  0  0  0  0  0  0
  143.0090  153.4330  135.2270 C   0  0  0  0  0  0  0  0  0  0  0  0
  142.6590  152.6770  133.9110 C   0  0  1  0  0  0  0  0  0  0  0  0
  143.8210  152.3220  133.1970 O   0  0  0  0  0  0  0  0  0  0  0  0
  141.8240  151.4420  134.1430 C   0  0  0  0  0  0  0  0  0  0  0  0
  141.0000  151.3390  132.8730 C   0  0  0  0  0  0  0  0  0  0  0  0
  140.9640  152.5950  132.2310 O   0  0  0  0  0  0  0  0  0  0  0  0
  141.7330  153.4870  133.0030 C   0  0  0  0  0  0  0  0  0  0  0  0
  146.7180  156.9140  133.0170 C   0  0  0  0  0  0  0  0  0  0  0  0
  145.7930  157.9600  133.0740 C   0  0  0  0  0  0  0  0  0  0  0  0
  144.4068  160.3556  135.1003 H   0  0  0  0  0  0  0  0  0  0  0  0
  143.5199  161.2392  133.8122 H   0  0  0  0  0  0  0  0  0  0  0  0
  143.5496  159.4431  133.8122 H   0  0  0  0  0  0  0  0  0  0  0  0
  145.5220  161.2280  132.6500 H   0  0  0  0  0  0  0  0  0  0  0  0
  148.0647  160.5407  133.2634 H   0  0  0  0  0  0  0  0  0  0  0  0
  149.6714  158.6097  133.1447 H   0  0  0  0  0  0  0  0  0  0  0  0
  149.7928  155.7536  132.9323 H   0  0  0  0  0  0  0  0  0  0  0  0
  145.8700  152.9420  133.3030 H   0  0  0  0  0  0  0  0  0  0  0  0
  146.9960  151.5780  133.0070 H   0  0  0  0  0  0  0  0  0  0  0  0
  145.2028  154.1833  136.8766 H   0  0  0  0  0  0  0  0  0  0  0  0
  145.7773  153.1596  135.5169 H   0  0  0  0  0  0  0  0  0  0  0  0
  146.1134  154.9242  135.5169 H   0  0  0  0  0  0  0  0  0  0  0  0
  143.2858  152.6917  135.9911 H   0  0  0  0  0  0  0  0  0  0  0  0
  142.1198  154.0145  135.5120 H   0  0  0  0  0  0  0  0  0  0  0  0
  143.6570  152.5100  132.2360 H   0  0  0  0  0  0  0  0  0  0  0  0
  142.4602  150.5542  134.2738 H   0  0  0  0  0  0  0  0  0  0  0  0
  141.2093  151.5009  135.0533 H   0  0  0  0  0  0  0  0  0  0  0  0
  141.4545  150.5966  132.2005 H   0  0  0  0  0  0  0  0  0  0  0  0
  139.9757  151.0274  133.1255 H   0  0  0  0  0  0  0  0  0  0  0  0
  142.3326  154.1281  132.3401 H   0  0  0  0  0  0  0  0  0  0  0  0
  141.0721  154.1214  133.6119 H   0  0  0  0  0  0  0  0  0  0  0  0
  144.7121  157.7571  133.0509 H   0  0  0  0  0  0  0  0  0  0  0  0
  1  2  1  0
  2  3  1  0
  3  4  2  0
  4  5  1  0
  5  6  2  0
  6  7  1  0
  7  8  2  0
  8  9  1  0
  9 10  1  0
  9 11  2  0
  8 12  1  0
 12 13  1  0
 13 14  2  0
 13 15  1  0
 15 16  2  0
 15 17  1  0
 17 18  1  0
 17 19  1  0
 19 20  1  0
 20 21  1  6
 20 22  1  0
 22 23  1  0
 23 24  1  0
 24 25  1  0
 12 26  1  0
 26 27  2  0
 27  3  1  0
 26  6  1  0
 25 20  1  0
  1 28  1  0
  1 29  1  0
  1 30  1  0
  2 31  1  0
  4 32  1  0
  5 33  1  0
  7 34  1  0
 10 35  1  0
 10 36  1  0
 18 37  1  0
 18 38  1  0
 18 39  1  0
 19 40  1  0
 19 41  1  0
 21 42  1  0
 22 43  1  0
 22 44  1  0
 23 45  1  0
 23 46  1  0
 25 47  1  0
 25 48  1  0
 27 49  1  0
M  END
>  <UniqueID>  (40) 
39

>  <SMILES>  (40) 
CNc1ccc2cc(C(N)=O)n(C(=O)C(=O)N(C)C[C@@]3(O)CCOC3)c2c1

>  <Energy>  (40) 
94.74732907928681

>  <Genealogy>  (40) 
CNc1ccc2cc(C(N)=O)n(C(=O)C(=O)N(C)C[C@@]3(O)CCOC3)c2c1 (3D coordinates assigned)
CNc1ccc2cc(C(N)=O)n(C(=O)C(=O)N(C)C[C@@]3(O)CCOC3)c2c1 (nonaromatic ring conformer: 94.74732907928681 kcal/mol)

>  <smiles>  (40) 
CNc1ccc2cc(C(N)=O)n(C(=O)C(=O)N(C)C[C@@]3(O)CCOC3)c2c1

>  <score_type>  (40) 
oracle

>  <origin>  (40) 
adg

>  <m_score__min__energy>  (40) 
-8.0700000000000003

>  <m_primary>  (40) 
energy

$$$$
41:0
     RDKit          3D

 48 49  0  0  0  0  0  0  0  0999 V2000
  148.4020  153.9430  137.1090 C   0  0  0  0  0  0  0  0  0  0  0  0
  147.5230  154.2140  136.3310 C   0  0  0  0  0  0  0  0  0  0  0  0
  146.4680  154.5370  135.4060 C   0  0  0  0  0  0  0  0  0  0  0  0
  146.7710  155.1600  134.1740 C   0  0  0  0  0  0  0  0  0  0  0  0
  145.7440  155.4990  133.2750 C   0  0  0  0  0  0  0  0  0  0  0  0
  144.4340  155.1970  133.6390 C   0  0  0  0  0  0  0  0  0  0  0  0
  143.2500  155.4480  132.9830 C   0  0  0  0  0  0  0  0  0  0  0  0
  142.2500  154.9620  133.8250 C   0  0  0  0  0  0  0  0  0  0  0  0
  140.8100  154.9940  133.4950 C   0  0  0  0  0  0  0  0  0  0  0  0
  139.9620  155.9600  134.1110 N   0  0  0  0  0  0  0  0  0  0  0  0
  140.3220  154.1890  132.6570 O   0  0  0  0  0  0  0  0  0  0  0  0
  142.7950  154.4240  134.9520 N   0  0  0  0  0  0  0  0  0  0  0  0
  142.1030  153.9070  136.1000 C   0  0  0  0  0  0  0  0  0  0  0  0
  141.8090  152.6830  136.1480 O   0  0  0  0  0  0  0  0  0  0  0  0
  141.7160  154.7980  137.2080 C   0  0  0  0  0  0  0  0  0  0  0  0
  141.7990  154.3830  138.3960 O   0  0  0  0  0  0  0  0  0  0  0  0
  141.2560  156.1310  136.9440 N   0  0  0  0  0  0  0  0  0  0  0  0
  141.1320  157.1420  137.9940 C   0  0  0  0  0  0  0  0  0  0  0  0
  140.9910  158.5490  137.3980 C   0  0  0  0  0  0  0  0  0  0  0  0
  140.7590  158.4880  135.9210 C   0  0  0  0  0  0  0  0  0  0  0  0
  139.5890  158.6010  135.4700 O   0  0  0  0  0  0  0  0  0  0  0  0
  141.8510  158.2450  135.0730 O   0  0  0  0  0  0  0  0  0  0  0  0
  142.1600  158.9480  133.8620 C   0  0  0  0  0  0  0  0  0  0  0  0
  141.8680  160.4530  134.0170 C   0  0  0  0  0  0  0  0  0  0  0  0
  141.3680  158.3580  132.6810 C   0  0  0  0  0  0  0  0  0  0  0  0
  143.6620  158.7580  133.5960 C   0  0  0  0  0  0  0  0  0  0  0  0
  144.1310  154.5780  134.8250 C   0  0  0  0  0  0  0  0  0  0  0  0
  145.1320  154.2410  135.7410 C   0  0  0  0  0  0  0  0  0  0  0  0
  149.2046  153.6955  137.8194 H   0  0  0  0  0  0  0  0  0  0  0  0
  147.8173  155.3812  133.9166 H   0  0  0  0  0  0  0  0  0  0  0  0
  145.9682  155.9870  132.3150 H   0  0  0  0  0  0  0  0  0  0  0  0
  143.1202  155.9297  132.0026 H   0  0  0  0  0  0  0  0  0  0  0  0
  140.3590  156.7270  134.6980 H   0  0  0  0  0  0  0  0  0  0  0  0
  141.0360  156.4140  135.9620 H   0  0  0  0  0  0  0  0  0  0  0  0
  140.2430  156.9197  138.6026 H   0  0  0  0  0  0  0  0  0  0  0  0
  142.0421  157.1155  138.6113 H   0  0  0  0  0  0  0  0  0  0  0  0
  140.1398  159.0573  137.8746 H   0  0  0  0  0  0  0  0  0  0  0  0
  141.9241  159.1015  137.5824 H   0  0  0  0  0  0  0  0  0  0  0  0
  141.8184  160.7087  135.0857 H   0  0  0  0  0  0  0  0  0  0  0  0
  142.6703  161.0334  133.5380 H   0  0  0  0  0  0  0  0  0  0  0  0
  140.9069  160.6913  133.5380 H   0  0  0  0  0  0  0  0  0  0  0  0
  140.5414  157.7422  133.0650 H   0  0  0  0  0  0  0  0  0  0  0  0
  140.9618  159.1754  132.0671 H   0  0  0  0  0  0  0  0  0  0  0  0
  142.0349  157.7349  132.0671 H   0  0  0  0  0  0  0  0  0  0  0  0
  144.1983  158.6902  134.5540 H   0  0  0  0  0  0  0  0  0  0  0  0
  143.8185  157.8329  133.0218 H   0  0  0  0  0  0  0  0  0  0  0  0
  144.0440  159.6150  133.0218 H   0  0  0  0  0  0  0  0  0  0  0  0
  144.8832  153.7578  136.6974 H   0  0  0  0  0  0  0  0  0  0  0  0
  1  2  3  0
  2  3  1  0
  3  4  2  0
  4  5  1  0
  5  6  2  0
  6  7  1  0
  7  8  2  0
  8  9  1  0
  9 10  1  0
  9 11  2  0
  8 12  1  0
 12 13  1  0
 13 14  2  0
 13 15  1  0
 15 16  2  0
 15 17  1  0
 17 18  1  0
 18 19  1  0
 19 20  1  0
 20 21  2  0
 20 22  1  0
 22 23  1  0
 23 24  1  0
 23 25  1  0
 23 26  1  0
 12 27  1  0
 27 28  2  0
 28  3  1  0
 27  6  1  0
  1 29  1  0
  4 30  1  0
  5 31  1  0
  7 32  1  0
 10 33  1  0
 17 34  1  0
 18 35  1  0
 18 36  1  0
 19 37  1  0
 19 38  1  0
 24 39  1  0
 24 40  1  0
 24 41  1  0
 25 42  1  0
 25 43  1  0
 25 44  1  0
 26 45  1  0
 26 46  1  0
 26 47  1  0
 28 48  1  0
M  CHG  1  10  -1
M  END
>  <UniqueID>  (41) 
40

>  <SMILES>  (41) 
C#Cc1ccc2cc(C([NH-])=O)n(C(=O)C(=O)NCCC(=O)OC(C)(C)C)c2c1

>  <Energy>  (41) 
71.17080341703445

>  <Genealogy>  (41) 
C#Cc1ccc2cc(C([NH-])=O)n(C(=O)C(=O)NCCC(=O)OC(C)(C)C)c2c1 (protonated)
C#Cc1ccc2cc(C([NH-])=O)n(C(=O)C(=O)NCCC(=O)OC(C)(C)C)c2c1 (3D coordinates assigned)
C#Cc1ccc2cc(C([NH-])=O)n(C(=O)C(=O)NCCC(=O)OC(C)(C)C)c2c1 (optimized conformer: 71.17080341703445 kcal/mol)

>  <smiles>  (41) 
C#Cc1ccc2cc(C(N)=O)n(C(=O)C(=O)NCCC(=O)OC(C)(C)C)c2c1

>  <score_type>  (41) 
oracle

>  <origin>  (41) 
adg

>  <m_score__min__energy>  (41) 
-8.3900000000000006

>  <m_primary>  (41) 
energy

$$$$
42:0
     RDKit          3D

 42 43  0  0  0  0  0  0  0  0999 V2000
  148.4700  155.0490  132.6560 C   0  0  0  0  0  0  0  0  0  0  0  0
  147.9560  156.4490  132.8260 C   0  0  0  0  0  0  0  0  0  0  0  0
  148.8550  157.5420  132.7600 C   0  0  0  0  0  0  0  0  0  0  0  0
  148.3950  158.8590  132.9330 C   0  0  0  0  0  0  0  0  0  0  0  0
  147.0410  159.0470  133.1950 C   0  0  0  0  0  0  0  0  0  0  0  0
  146.3190  160.2110  133.3500 C   0  0  0  0  0  0  0  0  0  0  0  0
  145.0020  159.8030  133.5520 C   0  0  0  0  0  0  0  0  0  0  0  0
  143.8740  160.7370  133.7380 C   0  0  0  0  0  0  0  0  0  0  0  0
  142.5460  160.2640  133.9690 N   0  0  0  0  0  0  0  0  0  0  0  0
  144.0900  161.9790  133.7310 O   0  0  0  0  0  0  0  0  0  0  0  0
  144.9120  158.4450  133.5290 N   0  0  0  0  0  0  0  0  0  0  0  0
  143.7120  157.6570  133.5170 C   0  0  0  0  0  0  0  0  0  0  0  0
  142.8550  157.8550  132.6150 O   0  0  0  0  0  0  0  0  0  0  0  0
  143.4920  156.6080  134.5340 C   0  0  0  0  0  0  0  0  0  0  0  0
  144.4870  156.0380  135.0570 O   0  0  0  0  0  0  0  0  0  0  0  0
  142.1630  156.2070  134.9170 N   0  0  0  0  0  0  0  0  0  0  0  0
  141.3360  155.4570  133.9610 C   0  0  0  0  0  0  0  0  0  0  0  0
  140.3110  156.3450  133.3220 C   0  0  0  0  0  0  0  0  0  0  0  0
  139.2350  155.8850  132.9770 O   0  0  0  0  0  0  0  0  0  0  0  0
  141.6790  156.4310  136.2880 C   0  0  0  0  0  0  0  0  0  0  0  0
  140.5150  157.4250  136.2950 C   0  0  0  0  0  0  0  0  0  0  0  0
  140.9570  158.7670  135.8030 C   0  0  0  0  0  0  0  0  0  0  0  0
  141.9250  159.3560  136.3520 O   0  0  0  0  0  0  0  0  0  0  0  0
  140.2820  159.3820  134.7540 O   0  0  0  0  0  0  0  0  0  0  0  0
  146.1650  157.9950  133.2960 C   0  0  0  0  0  0  0  0  0  0  0  0
  146.5900  156.6770  133.1020 C   0  0  0  0  0  0  0  0  0  0  0  0
  148.6360  154.5968  133.6449 H   0  0  0  0  0  0  0  0  0  0  0  0
  147.7322  154.4526  132.0993 H   0  0  0  0  0  0  0  0  0  0  0  0
  149.4184  155.0717  132.0993 H   0  0  0  0  0  0  0  0  0  0  0  0
  149.9231  157.3583  132.5716 H   0  0  0  0  0  0  0  0  0  0  0  0
  149.0835  159.7141  132.8635 H   0  0  0  0  0  0  0  0  0  0  0  0
  146.7010  161.2421  133.3205 H   0  0  0  0  0  0  0  0  0  0  0  0
  141.7510  160.9390  134.0190 H   0  0  0  0  0  0  0  0  0  0  0  0
  142.3600  159.2620  134.1940 H   0  0  0  0  0  0  0  0  0  0  0  0
  141.9841  155.0354  133.1786 H   0  0  0  0  0  0  0  0  0  0  0  0
  140.8142  154.6552  134.5039 H   0  0  0  0  0  0  0  0  0  0  0  0
  140.5291  157.4115  133.1642 H   0  0  0  0  0  0  0  0  0  0  0  0
  141.3396  155.4744  136.7119 H   0  0  0  0  0  0  0  0  0  0  0  0
  142.5012  156.8449  136.8902 H   0  0  0  0  0  0  0  0  0  0  0  0
  139.7148  157.0473  135.6416 H   0  0  0  0  0  0  0  0  0  0  0  0
  140.1496  157.5315  137.3270 H   0  0  0  0  0  0  0  0  0  0  0  0
  145.8790  155.8399  133.1628 H   0  0  0  0  0  0  0  0  0  0  0  0
  1  2  1  0
  2  3  2  0
  3  4  1  0
  4  5  2  0
  5  6  1  0
  6  7  2  0
  7  8  1  0
  8  9  1  0
  8 10  2  0
  7 11  1  0
 11 12  1  0
 12 13  2  0
 12 14  1  0
 14 15  2  0
 14 16  1  0
 16 17  1  0
 17 18  1  0
 18 19  2  0
 16 20  1  0
 20 21  1  0
 21 22  1  0
 22 23  2  0
 22 24  1  0
 11 25  1  0
 25 26  2  0
 26  2  1  0
 25  5  1  0
  1 27  1  0
  1 28  1  0
  1 29  1  0
  3 30  1  0
  4 31  1  0
  6 32  1  0
  9 33  1  0
  9 34  1  0
 17 35  1  0
 17 36  1  0
 18 37  1  0
 20 38  1  0
 20 39  1  0
 21 40  1  0
 21 41  1  0
 26 42  1  0
M  CHG  1  24  -1
M  END
>  <UniqueID>  (42) 
41

>  <SMILES>  (42) 
Cc1ccc2cc(C(N)=O)n(C(=O)C(=O)N(CC=O)CCC(=O)[O-])c2c1

>  <Energy>  (42) 
80.18210514556255

>  <Genealogy>  (42) 
Cc1ccc2cc(C(N)=O)n(C(=O)C(=O)N(CC=O)CCC(=O)[O-])c2c1 (protonated)
Cc1ccc2cc(C(N)=O)n(C(=O)C(=O)N(CC=O)CCC(=O)[O-])c2c1 (3D coordinates assigned)
Cc1ccc2cc(C(N)=O)n(C(=O)C(=O)N(CC=O)CCC(=O)[O-])c2c1 (optimized conformer: 80.18210514556255 kcal/mol)

>  <smiles>  (42) 
Cc1ccc2cc(C(N)=O)n(C(=O)C(=O)N(CC=O)CCC(=O)O)c2c1

>  <score_type>  (42) 
oracle

>  <origin>  (42) 
adg

>  <m_score__min__energy>  (42) 
-7.1299999999999999

>  <m_primary>  (42) 
energy

$$$$
43:0
     RDKit          3D

 49 50  0  0  0  0  0  0  0  0999 V2000
  139.8280  160.3340  132.4060 C   0  0  0  0  0  0  0  0  0  0  0  0
  139.6250  159.0550  132.0730 C   0  0  0  0  0  0  0  0  0  0  0  0
  138.5190  158.6990  131.1170 C   0  0  0  0  0  0  0  0  0  0  0  0
  140.5270  157.9950  132.5770 C   0  0  0  0  0  0  0  0  0  0  0  0
  141.7010  157.9040  132.1230 O   0  0  0  0  0  0  0  0  0  0  0  0
  140.0780  157.0940  133.5520 O   0  0  0  0  0  0  0  0  0  0  0  0
  139.1380  156.0540  133.2890 C   0  0  0  0  0  0  0  0  0  0  0  0
  139.8450  154.7010  133.1990 C   0  0  0  0  0  0  0  0  0  0  0  0
  141.2820  154.8830  133.0060 N   0  0  0  0  0  0  0  0  0  0  0  0
  142.2350  153.8480  133.2710 C   0  0  0  0  0  0  0  0  0  0  0  0
  141.8480  152.7070  133.6460 O   0  0  0  0  0  0  0  0  0  0  0  0
  143.5980  154.1170  133.1130 O   0  0  0  0  0  0  0  0  0  0  0  0
  144.0840  155.1970  132.3180 C   0  0  0  0  0  0  0  0  0  0  0  0
  143.7400  156.4420  132.9210 O   0  0  0  0  0  0  0  0  0  0  0  0
  143.9670  156.7190  134.2730 C   0  0  0  0  0  0  0  0  0  0  0  0
  145.0570  156.3890  134.8180 O   0  0  0  0  0  0  0  0  0  0  0  0
  142.9610  157.4010  135.0380 N   0  0  0  0  0  0  0  0  0  0  0  0
  142.5260  158.6850  134.8960 C   0  0  0  0  0  0  0  0  0  0  0  0
  143.1020  159.7010  133.9900 C   0  0  0  0  0  0  0  0  0  0  0  0
  144.0070  159.3050  132.9630 N   0  0  0  0  0  0  0  0  0  0  0  0
  142.7780  160.9140  134.0910 O   0  0  0  0  0  0  0  0  0  0  0  0
  141.4890  158.9490  135.7890 C   0  0  0  0  0  0  0  0  0  0  0  0
  141.3040  157.7790  136.4900 C   0  0  0  0  0  0  0  0  0  0  0  0
  140.3960  157.4740  137.4990 C   0  0  0  0  0  0  0  0  0  0  0  0
  140.4110  156.1710  138.0260 C   0  0  0  0  0  0  0  0  0  0  0  0
  141.3060  155.1940  137.5190 C   0  0  0  0  0  0  0  0  0  0  0  0
  141.3370  153.8060  138.1110 C   0  0  0  0  0  0  0  0  0  0  0  0
  141.5830  152.8640  137.1290 F   0  0  0  0  0  0  0  0  0  0  0  0
  142.3390  153.7400  139.0610 F   0  0  0  0  0  0  0  0  0  0  0  0
  140.1260  153.5020  138.7100 F   0  0  0  0  0  0  0  0  0  0  0  0
  142.2290  155.5530  136.5100 C   0  0  0  0  0  0  0  0  0  0  0  0
  142.2030  156.8620  136.0170 C   0  0  0  0  0  0  0  0  0  0  0  0
  140.6354  160.5990  133.1045 H   0  0  0  0  0  0  0  0  0  0  0  0
  139.1876  161.1212  131.9814 H   0  0  0  0  0  0  0  0  0  0  0  0
  137.6222  158.4104  131.6849 H   0  0  0  0  0  0  0  0  0  0  0  0
  138.2879  159.5681  130.4836 H   0  0  0  0  0  0  0  0  0  0  0  0
  138.8383  157.8582  130.4836 H   0  0  0  0  0  0  0  0  0  0  0  0
  138.3974  156.0218  134.1017 H   0  0  0  0  0  0  0  0  0  0  0  0
  138.6406  156.2592  132.3296 H   0  0  0  0  0  0  0  0  0  0  0  0
  139.6734  154.1409  134.1301 H   0  0  0  0  0  0  0  0  0  0  0  0
  139.4396  154.1456  132.3404 H   0  0  0  0  0  0  0  0  0  0  0  0
  141.6370  155.8300  132.7420 H   0  0  0  0  0  0  0  0  0  0  0  0
  145.1783  155.1234  132.2340 H   0  0  0  0  0  0  0  0  0  0  0  0
  143.6276  155.1425  131.3186 H   0  0  0  0  0  0  0  0  0  0  0  0
  143.7670  158.5300  132.3060 H   0  0  0  0  0  0  0  0  0  0  0  0
  140.9358  159.8923  135.9083 H   0  0  0  0  0  0  0  0  0  0  0  0
  139.6885  158.2289  137.8726 H   0  0  0  0  0  0  0  0  0  0  0  0
  139.7210  155.9059  138.8407 H   0  0  0  0  0  0  0  0  0  0  0  0
  142.9511  154.8198  136.1214 H   0  0  0  0  0  0  0  0  0  0  0  0
  1  2  2  0
  2  3  1  0
  2  4  1  0
  4  5  2  0
  4  6  1  0
  6  7  1  0
  7  8  1  0
  8  9  1  0
  9 10  1  0
 10 11  2  0
 10 12  1  0
 12 13  1  0
 13 14  1  0
 14 15  1  0
 15 16  2  0
 15 17  1  0
 17 18  1  0
 18 19  1  0
 19 20  1  0
 19 21  2  0
 18 22  2  0
 22 23  1  0
 23 24  2  0
 24 25  1  0
 25 26  2  0
 26 27  1  0
 27 28  1  0
 27 29  1  0
 27 30  1  0
 26 31  1  0
 31 32  2  0
 32 17  1  0
 32 23  1  0
  1 33  1  0
  1 34  1  0
  3 35  1  0
  3 36  1  0
  3 37  1  0
  7 38  1  0
  7 39  1  0
  8 40  1  0
  8 41  1  0
  9 42  1  0
 13 43  1  0
 13 44  1  0
 20 45  1  0
 22 46  1  0
 24 47  1  0
 25 48  1  0
 31 49  1  0
M  CHG  1  20  -1
M  END
>  <UniqueID>  (43) 
42

>  <SMILES>  (43) 
C=C(C)C(=O)OCCNC(=O)OCOC(=O)n1c(C([NH-])=O)cc2ccc(C(F)(F)F)cc21

>  <Energy>  (43) 
76.53536851710942

>  <Genealogy>  (43) 
C=C(C)C(=O)OCCNC(=O)OCOC(=O)n1c(C([NH-])=O)cc2ccc(C(F)(F)F)cc21 (protonated)
C=C(C)C(=O)OCCNC(=O)OCOC(=O)n1c(C([NH-])=O)cc2ccc(C(F)(F)F)cc21 (3D coordinates assigned)
C=C(C)C(=O)OCCNC(=O)OCOC(=O)n1c(C([NH-])=O)cc2ccc(C(F)(F)F)cc21 (optimized conformer: 76.53536851710942 kcal/mol)

>  <smiles>  (43) 
C=C(C)C(=O)OCCNC(=O)OCOC(=O)n1c(C(N)=O)cc2ccc(C(F)(F)F)cc21

>  <score_type>  (43) 
oracle

>  <origin>  (43) 
adg

>  <m_score__min__energy>  (43) 
-6.6500000000000004

>  <m_primary>  (43) 
energy

$$$$
44:0
     RDKit          3D

 57 58  0  0  0  0  0  0  0  0999 V2000
  139.5480  155.2120  132.9730 C   0  0  0  0  0  0  0  0  0  0  0  0
  140.2350  156.4930  133.1680 N   0  0  0  0  0  0  0  0  0  0  0  0
  141.6690  156.5230  133.4840 C   0  0  0  0  0  0  0  0  0  0  0  0
  141.9170  157.1100  134.8820 C   0  0  0  0  0  0  0  0  0  0  0  0
  142.1910  158.5580  134.8130 N   0  0  0  0  0  0  0  0  0  0  0  0
  141.1430  159.4740  135.2830 C   0  0  0  0  0  0  0  0  0  0  0  0
  143.4610  159.0810  134.3240 C   0  0  0  0  0  0  0  0  0  0  0  0
  143.6900  160.4850  134.2120 C   0  0  0  0  0  0  0  0  0  0  0  0
  144.9160  160.9910  133.7520 C   0  0  0  0  0  0  0  0  0  0  0  0
  145.9040  160.0850  133.3920 C   0  0  0  0  0  0  0  0  0  0  0  0
  147.1860  160.3070  132.9450 C   0  0  0  0  0  0  0  0  0  0  0  0
  147.7320  159.0400  132.7520 C   0  0  0  0  0  0  0  0  0  0  0  0
  149.0830  158.8120  132.1980 C   0  0  0  0  0  0  0  0  0  0  0  0
  149.6410  157.5010  132.1450 N   0  0  0  0  0  0  0  0  0  0  0  0
  149.7350  159.7810  131.7250 O   0  0  0  0  0  0  0  0  0  0  0  0
  146.8260  158.0750  133.0750 N   0  0  0  0  0  0  0  0  0  0  0  0
  147.0360  156.6550  133.1100 C   0  0  0  0  0  0  0  0  0  0  0  0
  147.0560  156.0010  132.0340 O   0  0  0  0  0  0  0  0  0  0  0  0
  147.1960  156.0140  134.3480 O   0  0  0  0  0  0  0  0  0  0  0  0
  146.8830  154.6450  134.6500 C   0  0  0  0  0  0  0  0  0  0  0  0
  145.3580  154.4270  134.6130 C   0  0  0  0  0  0  0  0  0  0  0  0
  147.5980  153.7000  133.6670 C   0  0  0  0  0  0  0  0  0  0  0  0
  147.3810  154.3570  136.0470 C   0  0  0  0  0  0  0  0  0  0  0  0
  148.1950  155.1400  136.6090 O   0  0  0  0  0  0  0  0  0  0  0  0
  146.9440  153.2270  136.7300 O   0  0  0  0  0  0  0  0  0  0  0  0
  145.7110  158.7340  133.4650 C   0  0  0  0  0  0  0  0  0  0  0  0
  144.5090  158.1990  133.9420 C   0  0  0  0  0  0  0  0  0  0  0  0
  139.4850  157.7210  133.0900 C   0  0  0  0  0  0  0  0  0  0  0  0
  138.3250  157.7800  133.5830 O   0  0  0  0  0  0  0  0  0  0  0  0
  140.0520  158.8410  132.4600 O   0  0  0  0  0  0  0  0  0  0  0  0
  139.3280  159.8720  131.8470 C   0  0  0  0  0  0  0  0  0  0  0  0
  139.4840  161.0740  132.1930 O   0  0  0  0  0  0  0  0  0  0  0  0
  138.4010  159.5440  130.7210 C   0  0  0  0  0  0  0  0  0  0  0  0
  137.1060  159.4770  131.1990 F   0  0  0  0  0  0  0  0  0  0  0  0
  138.4780  160.5210  129.7460 F   0  0  0  0  0  0  0  0  0  0  0  0
  138.7460  158.3260  130.1650 F   0  0  0  0  0  0  0  0  0  0  0  0
  139.3111  154.7702  133.9521 H   0  0  0  0  0  0  0  0  0  0  0  0
  138.6173  155.3770  132.4103 H   0  0  0  0  0  0  0  0  0  0  0  0
  140.2003  154.5280  132.4103 H   0  0  0  0  0  0  0  0  0  0  0  0
  142.0656  155.4976  133.4497 H   0  0  0  0  0  0  0  0  0  0  0  0
  142.1759  157.1595  132.7437 H   0  0  0  0  0  0  0  0  0  0  0  0
  141.0255  156.9430  135.5044 H   0  0  0  0  0  0  0  0  0  0  0  0
  142.7945  156.6104  135.3183 H   0  0  0  0  0  0  0  0  0  0  0  0
  141.1313  159.4843  136.3829 H   0  0  0  0  0  0  0  0  0  0  0  0
  141.3476  160.4880  134.9090 H   0  0  0  0  0  0  0  0  0  0  0  0
  140.1655  159.1356  134.9090 H   0  0  0  0  0  0  0  0  0  0  0  0
  142.8893  161.1853  134.4919 H   0  0  0  0  0  0  0  0  0  0  0  0
  145.0888  162.0749  133.6789 H   0  0  0  0  0  0  0  0  0  0  0  0
  147.6754  161.2776  132.7761 H   0  0  0  0  0  0  0  0  0  0  0  0
  149.0850  156.6940  131.7850 H   0  0  0  0  0  0  0  0  0  0  0  0
  144.9705  154.3716  135.6410 H   0  0  0  0  0  0  0  0  0  0  0  0
  144.8803  155.2660  134.0858 H   0  0  0  0  0  0  0  0  0  0  0  0
  145.1345  153.4878  134.0858 H   0  0  0  0  0  0  0  0  0  0  0  0
  148.1678  152.9469  134.2311 H   0  0  0  0  0  0  0  0  0  0  0  0
  146.8523  153.1970  133.0338 H   0  0  0  0  0  0  0  0  0  0  0  0
  148.2848  154.2809  133.0338 H   0  0  0  0  0  0  0  0  0  0  0  0
  144.3766  157.1098  134.0205 H   0  0  0  0  0  0  0  0  0  0  0  0
  1  2  1  0
  2  3  1  0
  3  4  1  0
  4  5  1  0
  5  6  1  0
  5  7  1  0
  7  8  2  0
  8  9  1  0
  9 10  2  0
 10 11  1  0
 11 12  2  0
 12 13  1  0
 13 14  1  0
 13 15  2  0
 12 16  1  0
 16 17  1  0
 17 18  2  0
 17 19  1  0
 19 20  1  0
 20 21  1  0
 20 22  1  0
 20 23  1  0
 23 24  2  0
 23 25  1  0
 16 26  1  0
 26 27  2  0
  2 28  1  0
 28 29  2  0
 28 30  1  0
 30 31  1  0
 31 32  2  0
 31 33  1  0
 33 34  1  0
 33 35  1  0
 33 36  1  0
 27  7  1  0
 26 10  1  0
  1 37  1  0
  1 38  1  0
  1 39  1  0
  3 40  1  0
  3 41  1  0
  4 42  1  0
  4 43  1  0
  6 44  1  0
  6 45  1  0
  6 46  1  0
  8 47  1  0
  9 48  1  0
 11 49  1  0
 14 50  1  0
 21 51  1  0
 21 52  1  0
 21 53  1  0
 22 54  1  0
 22 55  1  0
 22 56  1  0
 27 57  1  0
M  CHG  2  14  -1  25  -1
M  END
>  <UniqueID>  (44) 
43

>  <SMILES>  (44) 
CN(CCN(C)c1ccc2cc(C([NH-])=O)n(C(=O)OC(C)(C)C(=O)[O-])c2c1)C(=O)OC(=O)C(F)(F)F

>  <Energy>  (44) 
89.73922765763149

>  <Genealogy>  (44) 
CN(CCN(C)c1ccc2cc(C([NH-])=O)n(C(=O)OC(C)(C)C(=O)[O-])c2c1)C(=O)OC(=O)C(F)(F)F (protonated)
CN(CCN(C)c1ccc2cc(C([NH-])=O)n(C(=O)OC(C)(C)C(=O)[O-])c2c1)C(=O)OC(=O)C(F)(F)F (3D coordinates assigned)
CN(CCN(C)c1ccc2cc(C([NH-])=O)n(C(=O)OC(C)(C)C(=O)[O-])c2c1)C(=O)OC(=O)C(F)(F)F (optimized conformer: 89.73922765763149 kcal/mol)

>  <smiles>  (44) 
CN(CCN(C)c1ccc2cc(C(N)=O)n(C(=O)OC(C)(C)C(=O)O)c2c1)C(=O)OC(=O)C(F)(F)F

>  <score_type>  (44) 
oracle

>  <origin>  (44) 
adg

>  <m_score__min__energy>  (44) 
-8.1400000000000006

>  <m_primary>  (44) 
energy

$$$$
45:0
     RDKit          3D

 41 42  0  0  0  0  0  0  0  0999 V2000
  141.7440  158.5830  138.3760 C   0  0  0  0  0  0  0  0  0  0  0  0
  140.9110  157.8640  137.4080 N   0  0  0  0  0  0  0  0  0  0  0  0
  140.6350  156.4340  137.5950 C   0  0  0  0  0  0  0  0  0  0  0  0
  140.3750  158.5810  136.2740 C   0  0  0  0  0  0  0  0  0  0  0  0
  140.6580  159.8000  136.1140 O   0  0  0  0  0  0  0  0  0  0  0  0
  139.4570  157.9220  135.2800 C   0  0  0  0  0  0  0  0  0  0  0  0
  139.9400  158.1080  133.9520 O   0  0  0  0  0  0  0  0  0  0  0  0
  140.7870  157.2030  133.3060 C   0  0  0  0  0  0  0  0  0  0  0  0
  140.3640  156.0620  132.9710 O   0  0  0  0  0  0  0  0  0  0  0  0
  142.1050  157.5910  133.0370 O   0  0  0  0  0  0  0  0  0  0  0  0
  143.1040  157.7740  134.0030 C   0  0  0  0  0  0  0  0  0  0  0  0
  143.0020  157.2510  135.1460 O   0  0  0  0  0  0  0  0  0  0  0  0
  144.2470  158.5870  133.6930 N   0  0  0  0  0  0  0  0  0  0  0  0
  144.3120  159.9480  133.6510 C   0  0  0  0  0  0  0  0  0  0  0  0
  143.1670  160.8760  133.7450 C   0  0  0  0  0  0  0  0  0  0  0  0
  141.8310  160.3870  133.8250 N   0  0  0  0  0  0  0  0  0  0  0  0
  143.3670  162.1200  133.7050 O   0  0  0  0  0  0  0  0  0  0  0  0
  145.6210  160.3670  133.4220 C   0  0  0  0  0  0  0  0  0  0  0  0
  146.3610  159.2120  133.3140 C   0  0  0  0  0  0  0  0  0  0  0  0
  147.7250  159.0410  133.1080 C   0  0  0  0  0  0  0  0  0  0  0  0
  148.2280  157.7300  133.0790 C   0  0  0  0  0  0  0  0  0  0  0  0
  147.3640  156.6160  133.2440 C   0  0  0  0  0  0  0  0  0  0  0  0
  147.9230  155.2170  133.2750 C   0  0  0  0  0  0  0  0  0  0  0  0
  148.0760  154.7790  134.5800 F   0  0  0  0  0  0  0  0  0  0  0  0
  149.1610  155.1730  132.6570 F   0  0  0  0  0  0  0  0  0  0  0  0
  147.0580  154.3660  132.6130 F   0  0  0  0  0  0  0  0  0  0  0  0
  145.9850  156.8340  133.4750 C   0  0  0  0  0  0  0  0  0  0  0  0
  145.5090  158.1520  133.4810 C   0  0  0  0  0  0  0  0  0  0  0  0
  141.4339  158.3153  139.3969 H   0  0  0  0  0  0  0  0  0  0  0  0
  142.7985  158.3068  138.2289 H   0  0  0  0  0  0  0  0  0  0  0  0
  141.6248  159.6666  138.2289 H   0  0  0  0  0  0  0  0  0  0  0  0
  140.5911  156.2066  138.6703 H   0  0  0  0  0  0  0  0  0  0  0  0
  139.6717  156.1823  137.1274 H   0  0  0  0  0  0  0  0  0  0  0  0
  141.4354  155.8419  137.1274 H   0  0  0  0  0  0  0  0  0  0  0  0
  139.4020  156.8451  135.4973 H   0  0  0  0  0  0  0  0  0  0  0  0
  138.4593  158.3779  135.3619 H   0  0  0  0  0  0  0  0  0  0  0  0
  141.6310  159.4260  134.1800 H   0  0  0  0  0  0  0  0  0  0  0  0
  145.9856  161.4019  133.3441 H   0  0  0  0  0  0  0  0  0  0  0  0
  148.3904  159.9063  132.9718 H   0  0  0  0  0  0  0  0  0  0  0  0
  149.3047  157.5645  132.9265 H   0  0  0  0  0  0  0  0  0  0  0  0
  145.3025  155.9884  133.6459 H   0  0  0  0  0  0  0  0  0  0  0  0
  1  2  1  0
  2  3  1  0
  2  4  1  0
  4  5  2  0
  4  6  1  0
  6  7  1  0
  7  8  1  0
  8  9  2  0
  8 10  1  0
 10 11  1  0
 11 12  2  0
 11 13  1  0
 13 14  1  0
 14 15  1  0
 15 16  1  0
 15 17  2  0
 14 18  2  0
 18 19  1  0
 19 20  2  0
 20 21  1  0
 21 22  2  0
 22 23  1  0
 23 24  1  0
 23 25  1  0
 23 26  1  0
 22 27  1  0
 27 28  2  0
 28 13  1  0
 28 19  1  0
  1 29  1  0
  1 30  1  0
  1 31  1  0
  3 32  1  0
  3 33  1  0
  3 34  1  0
  6 35  1  0
  6 36  1  0
 16 37  1  0
 18 38  1  0
 20 39  1  0
 21 40  1  0
 27 41  1  0
M  CHG  1  16  -1
M  END
>  <UniqueID>  (45) 
44

>  <SMILES>  (45) 
CN(C)C(=O)COC(=O)OC(=O)n1c(C([NH-])=O)cc2ccc(C(F)(F)F)cc21

>  <Energy>  (45) 
77.47427289632176

>  <Genealogy>  (45) 
CN(C)C(=O)COC(=O)OC(=O)n1c(C([NH-])=O)cc2ccc(C(F)(F)F)cc21 (protonated)
CN(C)C(=O)COC(=O)OC(=O)n1c(C([NH-])=O)cc2ccc(C(F)(F)F)cc21 (3D coordinates assigned)
CN(C)C(=O)COC(=O)OC(=O)n1c(C([NH-])=O)cc2ccc(C(F)(F)F)cc21 (optimized conformer: 77.47427289632176 kcal/mol)

>  <smiles>  (45) 
CN(C)C(=O)COC(=O)OC(=O)n1c(C(N)=O)cc2ccc(C(F)(F)F)cc21

>  <score_type>  (45) 
oracle

>  <origin>  (45) 
adg

>  <m_score__min__energy>  (45) 
-6.3600000000000003

>  <m_primary>  (45) 
energy

$$$$
46:0
     RDKit          3D

 42 43  0  0  0  0  0  0  0  0999 V2000
  138.7180  159.4680  130.9320 C   0  0  0  0  0  0  0  0  0  0  0  0
  139.7700  158.6780  131.4720 O   0  0  0  0  0  0  0  0  0  0  0  0
  140.1910  158.7890  132.8020 C   0  0  0  0  0  0  0  0  0  0  0  0
  140.6140  159.8950  133.2430 O   0  0  0  0  0  0  0  0  0  0  0  0
  140.2040  157.5700  133.7000 C   0  0  0  0  0  0  0  0  0  0  0  0
  139.5430  157.8710  135.0580 C   0  0  0  0  0  0  0  0  0  0  0  0
  139.4330  156.4420  133.0030 C   0  0  0  0  0  0  0  0  0  0  0  0
  141.5810  157.1160  133.9160 N   0  0  0  0  0  0  0  0  0  0  0  0
  142.7600  157.7390  133.3870 C   0  0  0  0  0  0  0  0  0  0  0  0
  143.1740  157.4480  132.2320 O   0  0  0  0  0  0  0  0  0  0  0  0
  143.4950  158.7160  134.2020 C   0  0  0  0  0  0  0  0  0  0  0  0
  142.9810  159.1540  135.2660 O   0  0  0  0  0  0  0  0  0  0  0  0
  144.7970  159.1710  133.8040 N   0  0  0  0  0  0  0  0  0  0  0  0
  145.2350  160.4570  133.6960 C   0  0  0  0  0  0  0  0  0  0  0  0
  144.4050  161.6710  133.8540 C   0  0  0  0  0  0  0  0  0  0  0  0
  142.9930  161.6250  133.6790 N   0  0  0  0  0  0  0  0  0  0  0  0
  144.9570  162.7720  134.1210 O   0  0  0  0  0  0  0  0  0  0  0  0
  146.5860  160.4830  133.3530 C   0  0  0  0  0  0  0  0  0  0  0  0
  146.9650  159.1630  133.2580 C   0  0  0  0  0  0  0  0  0  0  0  0
  148.2010  158.6050  132.9470 C   0  0  0  0  0  0  0  0  0  0  0  0
  148.3070  157.2040  132.9410 C   0  0  0  0  0  0  0  0  0  0  0  0
  147.1930  156.3890  133.2690 C   0  0  0  0  0  0  0  0  0  0  0  0
  147.3080  154.8860  133.2180 C   0  0  0  0  0  0  0  0  0  0  0  0
  148.4410  154.5070  132.5200 F   0  0  0  0  0  0  0  0  0  0  0  0
  147.3890  154.3580  134.4960 F   0  0  0  0  0  0  0  0  0  0  0  0
  146.1940  154.3670  132.5860 F   0  0  0  0  0  0  0  0  0  0  0  0
  145.9490  156.9960  133.5600 C   0  0  0  0  0  0  0  0  0  0  0  0
  145.8680  158.3920  133.5390 C   0  0  0  0  0  0  0  0  0  0  0  0
  138.1319  159.9082  131.7522 H   0  0  0  0  0  0  0  0  0  0  0  0
  139.1435  160.2716  130.3131 H   0  0  0  0  0  0  0  0  0  0  0  0
  138.0649  158.8353  130.3131 H   0  0  0  0  0  0  0  0  0  0  0  0
  140.2179  157.5637  135.8704 H   0  0  0  0  0  0  0  0  0  0  0  0
  139.3417  158.9496  135.1368 H   0  0  0  0  0  0  0  0  0  0  0  0
  138.5973  157.3148  135.1368 H   0  0  0  0  0  0  0  0  0  0  0  0
  138.9828  155.7833  133.7602 H   0  0  0  0  0  0  0  0  0  0  0  0
  138.6402  156.8737  132.3745 H   0  0  0  0  0  0  0  0  0  0  0  0
  140.1231  155.8601  132.3745 H   0  0  0  0  0  0  0  0  0  0  0  0
  142.4420  160.7860  133.9700 H   0  0  0  0  0  0  0  0  0  0  0  0
  147.2158  161.3704  133.1923 H   0  0  0  0  0  0  0  0  0  0  0  0
  149.0678  159.2406  132.7132 H   0  0  0  0  0  0  0  0  0  0  0  0
  149.2659  156.7331  132.6787 H   0  0  0  0  0  0  0  0  0  0  0  0
  145.0660  156.3844  133.7972 H   0  0  0  0  0  0  0  0  0  0  0  0
  1  2  1  0
  2  3  1  0
  3  4  2  0
  3  5  1  0
  5  6  1  0
  5  7  1  0
  5  8  1  0
  8  9  1  0
  9 10  2  0
  9 11  1  0
 11 12  2  0
 11 13  1  0
 13 14  1  0
 14 15  1  0
 15 16  1  0
 15 17  2  0
 14 18  2  0
 18 19  1  0
 19 20  2  0
 20 21  1  0
 21 22  2  0
 22 23  1  0
 23 24  1  0
 23 25  1  0
 23 26  1  0
 22 27  1  0
 27 28  2  0
 28 13  1  0
 28 19  1  0
  1 29  1  0
  1 30  1  0
  1 31  1  0
  6 32  1  0
  6 33  1  0
  6 34  1  0
  7 35  1  0
  7 36  1  0
  7 37  1  0
 16 38  1  0
 18 39  1  0
 20 40  1  0
 21 41  1  0
 27 42  1  0
M  CHG  2   8  -1  16  -1
M  END
>  <UniqueID>  (46) 
45

>  <SMILES>  (46) 
COC(=O)C(C)(C)[N-]C(=O)C(=O)n1c(C([NH-])=O)cc2ccc(C(F)(F)F)cc21

>  <Energy>  (46) 
75.3620875334431

>  <Genealogy>  (46) 
COC(=O)C(C)(C)[N-]C(=O)C(=O)n1c(C([NH-])=O)cc2ccc(C(F)(F)F)cc21 (protonated)
COC(=O)C(C)(C)[N-]C(=O)C(=O)n1c(C([NH-])=O)cc2ccc(C(F)(F)F)cc21 (3D coordinates assigned)
COC(=O)C(C)(C)[N-]C(=O)C(=O)n1c(C([NH-])=O)cc2ccc(C(F)(F)F)cc21 (optimized conformer: 75.3620875334431 kcal/mol)

>  <smiles>  (46) 
COC(=O)C(C)(C)NC(=O)C(=O)n1c(C(N)=O)cc2ccc(C(F)(F)F)cc21

>  <score_type>  (46) 
oracle

>  <origin>  (46) 
adg

>  <m_score__min__energy>  (46) 
-7.0199999999999996

>  <m_primary>  (46) 
energy

$$$$
47:0
     RDKit          3D

 51 53  0  0  0  0  0  0  0  0999 V2000
  141.5750  151.3450  134.2400 C   0  0  0  0  0  0  0  0  0  0  0  0
  142.0240  152.7600  133.8210 C   0  0  0  0  0  0  0  0  0  0  0  0
  141.7780  152.9690  132.3130 C   0  0  0  0  0  0  0  0  0  0  0  0
  141.3000  153.7200  134.5530 O   0  0  0  0  0  0  0  0  0  0  0  0
  143.5180  152.9530  134.1410 C   0  0  0  0  0  0  0  0  0  0  0  0
  143.7060  154.0210  135.0680 O   0  0  0  0  0  0  0  0  0  0  0  0
  144.2020  155.2710  134.6890 C   0  0  0  0  0  0  0  0  0  0  0  0
  145.3290  155.6650  135.0970 O   0  0  0  0  0  0  0  0  0  0  0  0
  143.3920  156.1350  133.8190 C   0  0  0  0  0  0  0  0  0  0  0  0
  142.8300  155.6440  132.8060 O   0  0  0  0  0  0  0  0  0  0  0  0
  143.1960  157.5230  134.1360 N   0  0  0  0  0  0  0  0  0  0  0  0
  142.1040  158.1100  134.7000 C   0  0  0  0  0  0  0  0  0  0  0  0
  140.9120  157.4030  135.2130 C   0  0  0  0  0  0  0  0  0  0  0  0
  140.3760  156.2960  134.4910 N   0  0  0  0  0  0  0  0  0  0  0  0
  140.3440  157.7830  136.2700 O   0  0  0  0  0  0  0  0  0  0  0  0
  142.2920  159.4870  134.8030 C   0  0  0  0  0  0  0  0  0  0  0  0
  143.5480  159.7230  134.2900 C   0  0  0  0  0  0  0  0  0  0  0  0
  144.2490  160.9150  134.1440 C   0  0  0  0  0  0  0  0  0  0  0  0
  145.5290  160.8610  133.5670 C   0  0  0  0  0  0  0  0  0  0  0  0
  146.0880  159.6240  133.1420 C   0  0  0  0  0  0  0  0  0  0  0  0
  147.4060  159.5800  132.5470 N   0  0  0  0  0  0  0  0  0  0  0  0
  148.0620  158.2720  132.3520 C   0  0  0  0  0  0  0  0  0  0  0  0
  149.5700  158.4150  132.1320 C   0  0  0  0  0  0  0  0  0  0  0  0
  149.8620  159.3650  130.9700 C   0  0  0  0  0  0  0  0  0  0  0  0
  149.1080  160.6560  131.1260 C   0  0  0  0  0  0  0  0  0  0  0  0
  149.3350  161.5780  130.3580 O   0  0  0  0  0  0  0  0  0  0  0  0
  148.1070  160.8390  132.2370 C   0  0  0  0  0  0  0  0  0  0  0  0
  145.3390  158.4340  133.3130 C   0  0  0  0  0  0  0  0  0  0  0  0
  144.0720  158.5210  133.8990 C   0  0  0  0  0  0  0  0  0  0  0  0
  141.5535  151.2772  135.3377 H   0  0  0  0  0  0  0  0  0  0  0  0
  140.5696  151.1460  133.8406 H   0  0  0  0  0  0  0  0  0  0  0  0
  142.2817  150.6027  133.8406 H   0  0  0  0  0  0  0  0  0  0  0  0
  140.9467  153.6753  132.1715 H   0  0  0  0  0  0  0  0  0  0  0  0
  142.6875  153.3749  131.8459 H   0  0  0  0  0  0  0  0  0  0  0  0
  141.5244  152.0059  131.8459 H   0  0  0  0  0  0  0  0  0  0  0  0
  141.7200  154.6060  134.3960 H   0  0  0  0  0  0  0  0  0  0  0  0
  143.9161  152.0243  134.5759 H   0  0  0  0  0  0  0  0  0  0  0  0
  144.0482  153.1989  133.2091 H   0  0  0  0  0  0  0  0  0  0  0  0
  140.9930  155.6880  133.9080 H   0  0  0  0  0  0  0  0  0  0  0  0
  141.5870  160.2279  135.2080 H   0  0  0  0  0  0  0  0  0  0  0  0
  143.8145  161.8714  134.4704 H   0  0  0  0  0  0  0  0  0  0  0  0
  146.1070  161.7885  133.4422 H   0  0  0  0  0  0  0  0  0  0  0  0
  147.8903  157.6519  133.2442 H   0  0  0  0  0  0  0  0  0  0  0  0
  147.6300  157.8053  131.4545 H   0  0  0  0  0  0  0  0  0  0  0  0
  150.0318  158.8128  133.0477 H   0  0  0  0  0  0  0  0  0  0  0  0
  149.9864  157.4257  131.8915 H   0  0  0  0  0  0  0  0  0  0  0  0
  150.9406  159.5795  130.9433 H   0  0  0  0  0  0  0  0  0  0  0  0
  149.5412  158.8830  130.0347 H   0  0  0  0  0  0  0  0  0  0  0  0
  148.6333  161.1861  133.1384 H   0  0  0  0  0  0  0  0  0  0  0  0
  147.3603  161.5776  131.9099 H   0  0  0  0  0  0  0  0  0  0  0  0
  145.7447  157.4632  132.9921 H   0  0  0  0  0  0  0  0  0  0  0  0
  1  2  1  0
  2  3  1  0
  2  4  1  0
  2  5  1  0
  5  6  1  0
  6  7  1  0
  7  8  2  0
  7  9  1  0
  9 10  2  0
  9 11  1  0
 11 12  1  0
 12 13  1  0
 13 14  1  0
 13 15  2  0
 12 16  2  0
 16 17  1  0
 17 18  2  0
 18 19  1  0
 19 20  2  0
 20 21  1  0
 21 22  1  0
 22 23  1  0
 23 24  1  0
 24 25  1  0
 25 26  2  0
 25 27  1  0
 20 28  1  0
 28 29  2  0
 29 11  1  0
 29 17  1  0
 27 21  1  0
  1 30  1  0
  1 31  1  0
  1 32  1  0
  3 33  1  0
  3 34  1  0
  3 35  1  0
  4 36  1  0
  5 37  1  0
  5 38  1  0
 14 39  1  0
 16 40  1  0
 18 41  1  0
 19 42  1  0
 22 43  1  0
 22 44  1  0
 23 45  1  0
 23 46  1  0
 24 47  1  0
 24 48  1  0
 27 49  1  0
 27 50  1  0
 28 51  1  0
M  CHG  1  14  -1
M  END
>  <UniqueID>  (47) 
46

>  <SMILES>  (47) 
CC(C)(O)COC(=O)C(=O)n1c(C([NH-])=O)cc2ccc(N3CCCC(=O)C3)cc21

>  <Energy>  (47) 
86.7524419773305

>  <Genealogy>  (47) 
CC(C)(O)COC(=O)C(=O)n1c(C([NH-])=O)cc2ccc(N3CCCC(=O)C3)cc21 (protonated)
CC(C)(O)COC(=O)C(=O)n1c(C([NH-])=O)cc2ccc(N3CCCC(=O)C3)cc21 (3D coordinates assigned)
CC(C)(O)COC(=O)C(=O)n1c(C([NH-])=O)cc2ccc(N3CCCC(=O)C3)cc21 (nonaromatic ring conformer: 86.7524419773305 kcal/mol)

>  <smiles>  (47) 
CC(C)(O)COC(=O)C(=O)n1c(C(N)=O)cc2ccc(N3CCCC(=O)C3)cc21

>  <score_type>  (47) 
oracle

>  <origin>  (47) 
adg

>  <m_score__min__energy>  (47) 
-8.2100000000000009

>  <m_primary>  (47) 
energy

$$$$
48:0
     RDKit          3D

 46 48  0  0  0  0  0  0  0  0999 V2000
  146.7130  152.9450  132.6180 C   0  0  0  0  0  0  0  0  0  0  0  0
  147.9640  153.0740  133.3800 N   0  0  1  0  0  0  0  0  0  0  0  0
  148.9380  152.1110  132.9250 C   0  0  0  0  0  0  0  0  0  0  0  0
  149.6730  151.5030  133.7530 O   0  0  0  0  0  0  0  0  0  0  0  0
  149.0630  151.8590  131.5530 O   0  0  0  0  0  0  0  0  0  0  0  0
  149.3120  150.5660  131.0040 C   0  0  0  0  0  0  0  0  0  0  0  0
  150.8120  150.2990  130.9020 C   0  0  0  0  0  0  0  0  0  0  0  0
  151.4810  150.8590  131.9970 O   0  0  0  0  0  0  0  0  0  0  0  0
  148.4690  154.4240  133.2760 C   0  0  0  0  0  0  0  0  0  0  0  0
  149.5530  154.6610  132.6730 O   0  0  0  0  0  0  0  0  0  0  0  0
  147.6630  155.5260  133.7180 N   0  0  0  0  0  0  0  0  0  0  0  0
  146.6030  155.5020  134.5740 C   0  0  0  0  0  0  0  0  0  0  0  0
  146.1610  154.3370  135.3660 C   0  0  0  0  0  0  0  0  0  0  0  0
  147.1070  153.4180  135.9030 N   0  0  0  0  0  0  0  0  0  0  0  0
  144.9340  154.1720  135.6030 O   0  0  0  0  0  0  0  0  0  0  0  0
  146.0150  156.7630  134.6540 C   0  0  0  0  0  0  0  0  0  0  0  0
  146.7590  157.5670  133.8180 C   0  0  0  0  0  0  0  0  0  0  0  0
  146.6140  158.9130  133.5030 C   0  0  0  0  0  0  0  0  0  0  0  0
  147.5160  159.4750  132.5830 C   0  0  0  0  0  0  0  0  0  0  0  0
  148.5400  158.6840  131.9910 C   0  0  0  0  0  0  0  0  0  0  0  0
  149.5210  159.2620  130.9870 C   0  0  0  0  0  0  0  0  0  0  0  0
  149.8020  160.7490  131.1440 C   0  0  0  0  0  0  0  0  0  0  0  0
  149.1980  161.0810  129.8530 N   0  0  0  0  0  0  0  0  0  0  0  0
  148.9130  159.6590  129.6510 C   0  0  0  0  0  0  0  0  0  0  0  0
  148.6500  157.3200  132.3390 C   0  0  0  0  0  0  0  0  0  0  0  0
  147.7460  156.7940  133.2670 C   0  0  0  0  0  0  0  0  0  0  0  0
  145.8665  152.8577  133.3150 H   0  0  0  0  0  0  0  0  0  0  0  0
  146.5762  153.8338  131.9845 H   0  0  0  0  0  0  0  0  0  0  0  0
  146.7605  152.0470  131.9845 H   0  0  0  0  0  0  0  0  0  0  0  0
  147.7470  152.8720  134.3840 H   0  0  0  0  0  0  0  0  0  0  0  0
  148.8536  149.8047  131.6523 H   0  0  0  0  0  0  0  0  0  0  0  0
  148.8770  150.5222  129.9946 H   0  0  0  0  0  0  0  0  0  0  0  0
  150.9870  149.2131  130.8865 H   0  0  0  0  0  0  0  0  0  0  0  0
  151.1946  150.7557  129.9773 H   0  0  0  0  0  0  0  0  0  0  0  0
  151.1160  151.7760  132.1040 H   0  0  0  0  0  0  0  0  0  0  0  0
  148.0750  153.3570  135.5170 H   0  0  0  0  0  0  0  0  0  0  0  0
  145.1422  157.0546  135.2566 H   0  0  0  0  0  0  0  0  0  0  0  0
  145.8180  159.5196  133.9595 H   0  0  0  0  0  0  0  0  0  0  0  0
  147.4292  160.5390  132.3175 H   0  0  0  0  0  0  0  0  0  0  0  0
  150.2971  158.4892  131.0897 H   0  0  0  0  0  0  0  0  0  0  0  0
  149.2813  161.2038  131.9996 H   0  0  0  0  0  0  0  0  0  0  0  0
  150.8338  161.0737  131.3440 H   0  0  0  0  0  0  0  0  0  0  0  0
  148.2930  161.5790  130.0280 H   0  0  0  0  0  0  0  0  0  0  0  0
  147.8386  159.4353  129.5765 H   0  0  0  0  0  0  0  0  0  0  0  0
  149.2814  159.1708  128.7367 H   0  0  0  0  0  0  0  0  0  0  0  0
  149.4289  156.6859  131.8904 H   0  0  0  0  0  0  0  0  0  0  0  0
  1  2  1  0
  2  3  1  0
  3  4  2  0
  3  5  1  0
  5  6  1  0
  6  7  1  0
  7  8  1  0
  2  9  1  0
  9 10  2  0
  9 11  1  0
 11 12  1  0
 12 13  1  0
 13 14  1  0
 13 15  2  0
 12 16  2  0
 16 17  1  0
 17 18  2  0
 18 19  1  0
 19 20  2  0
 20 21  1  0
 21 22  1  0
 22 23  1  0
 23 24  1  0
 20 25  1  0
 25 26  2  0
 26 11  1  0
 26 17  1  0
 24 21  1  0
  1 27  1  0
  1 28  1  0
  1 29  1  0
  2 30  1  1
  6 31  1  0
  6 32  1  0
  7 33  1  0
  7 34  1  0
  8 35  1  0
 14 36  1  0
 16 37  1  0
 18 38  1  0
 19 39  1  0
 21 40  1  0
 22 41  1  0
 22 42  1  0
 23 43  1  0
 24 44  1  0
 24 45  1  0
 25 46  1  0
M  CHG  2   2   1  14  -1
M  END
>  <UniqueID>  (48) 
47

>  <SMILES>  (48) 
C[NH+](C(=O)OCCO)C(=O)n1c(C([NH-])=O)cc2ccc(C3CNC3)cc21

>  <Energy>  (48) 
154.09455815153385

>  <Genealogy>  (48) 
C[NH+](C(=O)OCCO)C(=O)n1c(C([NH-])=O)cc2ccc(C3CNC3)cc21 (protonated)
C[NH+](C(=O)OCCO)C(=O)n1c(C([NH-])=O)cc2ccc(C3CNC3)cc21 (3D coordinates assigned)
C[NH+](C(=O)OCCO)C(=O)n1c(C([NH-])=O)cc2ccc(C3CNC3)cc21 (nonaromatic ring conformer: 154.09455815153385 kcal/mol)

>  <smiles>  (48) 
CN(C(=O)OCCO)C(=O)n1c(C(N)=O)cc2ccc(C3CNC3)cc21

>  <score_type>  (48) 
oracle

>  <origin>  (48) 
adg

>  <m_score__min__energy>  (48) 
-7.0599999999999996

>  <m_primary>  (48) 
energy

$$$$
49:0
     RDKit          3D

 36 37  0  0  0  0  0  0  0  0999 V2000
  144.6620  152.7020  132.4490 C   0  0  0  0  0  0  0  0  0  0  0  0
  145.0640  154.0650  132.0650 N   0  0  0  0  0  0  0  0  0  0  0  0
  144.3560  154.4960  130.8510 C   0  0  0  0  0  0  0  0  0  0  0  0
  144.8000  154.9940  133.1430 C   0  0  0  0  0  0  0  0  0  0  0  0
  143.6210  155.3960  133.3550 O   0  0  0  0  0  0  0  0  0  0  0  0
  145.8960  155.5310  133.9780 C   0  0  0  0  0  0  0  0  0  0  0  0
  145.9630  155.2350  135.2020 O   0  0  0  0  0  0  0  0  0  0  0  0
  146.8950  156.3850  133.4030 N   0  0  0  0  0  0  0  0  0  0  0  0
  148.1140  156.0290  132.9100 C   0  0  0  0  0  0  0  0  0  0  0  0
  148.6140  154.6470  132.7520 C   0  0  0  0  0  0  0  0  0  0  0  0
  147.7180  153.5380  132.7390 N   0  0  0  0  0  0  0  0  0  0  0  0
  149.8480  154.4430  132.5960 O   0  0  0  0  0  0  0  0  0  0  0  0
  148.8270  157.1590  132.5130 C   0  0  0  0  0  0  0  0  0  0  0  0
  148.0010  158.2270  132.7820 C   0  0  0  0  0  0  0  0  0  0  0  0
  148.2040  159.5910  132.5940 C   0  0  0  0  0  0  0  0  0  0  0  0
  147.1810  160.4700  132.9880 C   0  0  0  0  0  0  0  0  0  0  0  0
  145.9890  159.9760  133.5740 C   0  0  0  0  0  0  0  0  0  0  0  0
  144.8940  160.9230  133.9740 C   0  0  0  0  0  0  0  0  0  0  0  0
  145.4730  162.1530  134.5240 C   0  0  0  0  0  0  0  0  0  0  0  0
  145.9300  163.1230  134.9580 N   0  0  0  0  0  0  0  0  0  0  0  0
  145.8150  158.5840  133.7430 C   0  0  0  0  0  0  0  0  0  0  0  0
  146.8420  157.7330  133.3230 C   0  0  0  0  0  0  0  0  0  0  0  0
  144.6384  152.6220  133.5458 H   0  0  0  0  0  0  0  0  0  0  0  0
  143.6621  152.4868  132.0441 H   0  0  0  0  0  0  0  0  0  0  0  0
  145.3851  151.9787  132.0441 H   0  0  0  0  0  0  0  0  0  0  0  0
  146.0900  154.0400  131.8540 H   0  0  0  0  0  0  0  0  0  0  0  0
  143.4478  155.0489  131.1330 H   0  0  0  0  0  0  0  0  0  0  0  0
  145.0122  155.1480  130.2558 H   0  0  0  0  0  0  0  0  0  0  0  0
  144.0782  153.6137  130.2558 H   0  0  0  0  0  0  0  0  0  0  0  0
  147.1940  153.2820  131.8730 H   0  0  0  0  0  0  0  0  0  0  0  0
  149.8364  157.1907  132.0769 H   0  0  0  0  0  0  0  0  0  0  0  0
  149.1368  159.9694  132.1505 H   0  0  0  0  0  0  0  0  0  0  0  0
  147.3067  161.5527  132.8401 H   0  0  0  0  0  0  0  0  0  0  0  0
  144.2849  161.1695  133.0918 H   0  0  0  0  0  0  0  0  0  0  0  0
  144.2645  160.4457  134.7394 H   0  0  0  0  0  0  0  0  0  0  0  0
  144.8960  158.1805  134.1930 H   0  0  0  0  0  0  0  0  0  0  0  0
  1  2  1  0
  2  3  1  0
  2  4  1  0
  4  5  2  0
  4  6  1  0
  6  7  2  0
  6  8  1  0
  8  9  1  0
  9 10  1  0
 10 11  1  0
 10 12  2  0
  9 13  2  0
 13 14  1  0
 14 15  2  0
 15 16  1  0
 16 17  2  0
 17 18  1  0
 18 19  1  0
 19 20  3  0
 17 21  1  0
 21 22  2  0
 22  8  1  0
 22 14  1  0
  1 23  1  0
  1 24  1  0
  1 25  1  0
  2 26  1  0
  3 27  1  0
  3 28  1  0
  3 29  1  0
 11 30  1  0
 13 31  1  0
 15 32  1  0
 16 33  1  0
 18 34  1  0
 18 35  1  0
 21 36  1  0
M  CHG  2   2   1  11  -1
M  END
>  <UniqueID>  (49) 
48

>  <SMILES>  (49) 
C[NH+](C)C(=O)C(=O)n1c(C([NH-])=O)cc2ccc(CC#N)cc21

>  <Energy>  (49) 
74.42984966934756

>  <Genealogy>  (49) 
C[NH+](C)C(=O)C(=O)n1c(C([NH-])=O)cc2ccc(CC#N)cc21 (protonated)
C[NH+](C)C(=O)C(=O)n1c(C([NH-])=O)cc2ccc(CC#N)cc21 (3D coordinates assigned)
C[NH+](C)C(=O)C(=O)n1c(C([NH-])=O)cc2ccc(CC#N)cc21 (optimized conformer: 74.42984966934756 kcal/mol)

>  <smiles>  (49) 
CN(C)C(=O)C(=O)n1c(C(N)=O)cc2ccc(CC#N)cc21

>  <score_type>  (49) 
oracle

>  <origin>  (49) 
adg

>  <m_score__min__energy>  (49) 
-6.3899999999999997

>  <m_primary>  (49) 
energy

$$$$
50:0
     RDKit          3D

 49 50  0  0  0  0  0  0  0  0999 V2000
  144.4410  154.6640  133.4690 C   0  0  0  0  0  0  0  0  0  0  0  0
  143.6290  155.5600  132.6520 N   0  0  0  0  0  0  0  0  0  0  0  0
  143.3560  156.9290  133.0050 C   0  0  0  0  0  0  0  0  0  0  0  0
  142.0370  157.3760  133.2850 C   0  0  0  0  0  0  0  0  0  0  0  0
  141.7930  158.7150  133.6370 C   0  0  0  0  0  0  0  0  0  0  0  0
  142.8780  159.5840  133.6930 C   0  0  0  0  0  0  0  0  0  0  0  0
  142.9250  160.9190  134.0230 C   0  0  0  0  0  0  0  0  0  0  0  0
  144.2670  161.2780  133.9160 C   0  0  0  0  0  0  0  0  0  0  0  0
  144.7560  162.6610  134.1020 C   0  0  0  0  0  0  0  0  0  0  0  0
  145.7620  162.9310  135.0760 N   0  0  0  0  0  0  0  0  0  0  0  0
  144.2730  163.6130  133.4350 O   0  0  0  0  0  0  0  0  0  0  0  0
  145.0210  160.2050  133.5430 N   0  0  0  0  0  0  0  0  0  0  0  0
  146.4450  160.1450  133.3680 C   0  0  0  0  0  0  0  0  0  0  0  0
  147.1730  161.0860  133.7870 O   0  0  0  0  0  0  0  0  0  0  0  0
  147.0350  159.0070  132.7310 N   0  0  0  0  0  0  0  0  0  0  0  0
  148.3180  158.4100  133.0970 C   0  0  2  0  0  0  0  0  0  0  0  0
  149.3090  158.6390  131.9750 C   0  0  0  0  0  0  0  0  0  0  0  0
  150.2670  157.8260  131.8560 O   0  0  0  0  0  0  0  0  0  0  0  0
  149.1580  159.6950  131.0000 N   0  0  0  0  0  0  0  0  0  0  0  0
  149.7060  159.4890  129.6560 C   0  0  0  0  0  0  0  0  0  0  0  0
  148.5650  160.9900  131.3550 C   0  0  0  0  0  0  0  0  0  0  0  0
  148.1690  156.8960  133.4270 C   0  0  0  0  0  0  0  0  0  0  0  0
  147.4580  156.6880  134.7750 C   0  0  0  0  0  0  0  0  0  0  0  0
  147.3970  156.1470  132.3300 C   0  0  0  0  0  0  0  0  0  0  0  0
  144.1540  159.1760  133.4080 C   0  0  0  0  0  0  0  0  0  0  0  0
  144.4290  157.8440  133.0770 C   0  0  0  0  0  0  0  0  0  0  0  0
  144.2551  154.8691  134.5336 H   0  0  0  0  0  0  0  0  0  0  0  0
  144.1744  153.6206  133.2446 H   0  0  0  0  0  0  0  0  0  0  0  0
  145.5055  154.8269  133.2446 H   0  0  0  0  0  0  0  0  0  0  0  0
  143.2260  155.1770  131.7680 H   0  0  0  0  0  0  0  0  0  0  0  0
  141.1979  156.6672  133.2258 H   0  0  0  0  0  0  0  0  0  0  0  0
  140.7747  159.0651  133.8614 H   0  0  0  0  0  0  0  0  0  0  0  0
  142.0824  161.5652  134.3101 H   0  0  0  0  0  0  0  0  0  0  0  0
  146.7730  162.9400  134.8140 H   0  0  0  0  0  0  0  0  0  0  0  0
  148.6922  158.8943  134.0110 H   0  0  0  0  0  0  0  0  0  0  0  0
  150.7330  159.1029  129.7340 H   0  0  0  0  0  0  0  0  0  0  0  0
  149.0820  158.7641  129.1128 H   0  0  0  0  0  0  0  0  0  0  0  0
  149.7141  160.4455  129.1128 H   0  0  0  0  0  0  0  0  0  0  0  0
  148.5213  161.0854  132.4500 H   0  0  0  0  0  0  0  0  0  0  0  0
  149.1813  161.8014  130.9405 H   0  0  0  0  0  0  0  0  0  0  0  0
  147.5481  161.0536  130.9405 H   0  0  0  0  0  0  0  0  0  0  0  0
  149.1880  156.4858  133.4852 H   0  0  0  0  0  0  0  0  0  0  0  0
  148.1608  156.8936  135.5958 H   0  0  0  0  0  0  0  0  0  0  0  0
  146.6002  157.3729  134.8466 H   0  0  0  0  0  0  0  0  0  0  0  0
  147.1045  155.6488  134.8466 H   0  0  0  0  0  0  0  0  0  0  0  0
  146.6813  155.4526  132.7943 H   0  0  0  0  0  0  0  0  0  0  0  0
  146.8531  156.8707  131.7051 H   0  0  0  0  0  0  0  0  0  0  0  0
  148.1039  155.5814  131.7051 H   0  0  0  0  0  0  0  0  0  0  0  0
  145.4600  157.5168  132.8770 H   0  0  0  0  0  0  0  0  0  0  0  0
  1  2  1  0
  2  3  1  0
  3  4  2  0
  4  5  1  0
  5  6  2  0
  6  7  1  0
  7  8  2  0
  8  9  1  0
  9 10  1  0
  9 11  2  0
  8 12  1  0
 12 13  1  0
 13 14  2  0
 13 15  1  0
 15 16  1  0
 16 17  1  0
 17 18  2  0
 17 19  1  0
 19 20  1  0
 19 21  1  0
 16 22  1  0
 22 23  1  0
 22 24  1  0
 12 25  1  0
 25 26  2  0
 26  3  1  0
 25  6  1  0
  1 27  1  0
  1 28  1  0
  1 29  1  0
  2 30  1  0
  4 31  1  0
  5 32  1  0
  7 33  1  0
 10 34  1  0
 16 35  1  1
 20 36  1  0
 20 37  1  0
 20 38  1  0
 21 39  1  0
 21 40  1  0
 21 41  1  0
 22 42  1  0
 23 43  1  0
 23 44  1  0
 23 45  1  0
 24 46  1  0
 24 47  1  0
 24 48  1  0
 26 49  1  0
M  CHG  2  10  -1  15  -1
M  END
>  <UniqueID>  (50) 
49

>  <SMILES>  (50) 
CNc1ccc2cc(C([NH-])=O)n(C(=O)[N-][C@H](C(=O)N(C)C)C(C)C)c2c1

>  <Energy>  (50) 
80.07318989464764

>  <Genealogy>  (50) 
CNc1ccc2cc(C([NH-])=O)n(C(=O)[N-][C@H](C(=O)N(C)C)C(C)C)c2c1 (protonated)
CNc1ccc2cc(C([NH-])=O)n(C(=O)[N-][C@H](C(=O)N(C)C)C(C)C)c2c1 (3D coordinates assigned)
CNc1ccc2cc(C([NH-])=O)n(C(=O)[N-][C@H](C(=O)N(C)C)C(C)C)c2c1 (optimized conformer: 80.07318989464764 kcal/mol)

>  <smiles>  (50) 
CNc1ccc2cc(C(N)=O)n(C(=O)N[C@H](C(=O)N(C)C)C(C)C)c2c1

>  <score_type>  (50) 
oracle

>  <origin>  (50) 
adg

>  <m_score__min__energy>  (50) 
-8.2899999999999991

>  <m_primary>  (50) 
energy

$$$$
51:0
     RDKit          3D

 45 46  0  0  0  0  0  0  0  0999 V2000
  142.8160  153.5580  132.5740 C   0  0  0  0  0  0  0  0  0  0  0  0
  141.8970  153.4100  133.7120 N   0  0  2  0  0  0  0  0  0  0  0  0
  141.3660  152.0700  133.7570 C   0  0  0  0  0  0  0  0  0  0  0  0
  141.3410  151.4330  134.8470 O   0  0  0  0  0  0  0  0  0  0  0  0
  140.8550  151.5010  132.5790 O   0  0  0  0  0  0  0  0  0  0  0  0
  140.8560  150.1070  132.2380 C   0  0  0  0  0  0  0  0  0  0  0  0
  139.9830  149.9480  130.9850 C   0  0  0  0  0  0  0  0  0  0  0  0
  140.2460  149.2670  133.3770 C   0  0  0  0  0  0  0  0  0  0  0  0
  142.2840  149.6310  131.9140 C   0  0  0  0  0  0  0  0  0  0  0  0
  140.8340  154.3880  133.6370 C   0  0  0  0  0  0  0  0  0  0  0  0
  139.8250  154.1820  132.9060 O   0  0  0  0  0  0  0  0  0  0  0  0
  140.9350  155.6260  134.3590 N   0  0  0  0  0  0  0  0  0  0  0  0
  141.4340  155.8220  135.6130 C   0  0  0  0  0  0  0  0  0  0  0  0
  141.8930  154.7660  136.5410 C   0  0  0  0  0  0  0  0  0  0  0  0
  142.8800  153.8160  136.1470 N   0  0  0  0  0  0  0  0  0  0  0  0
  141.3880  154.6870  137.6920 O   0  0  0  0  0  0  0  0  0  0  0  0
  141.4180  157.1780  135.9360 C   0  0  0  0  0  0  0  0  0  0  0  0
  140.8930  157.8120  134.8320 C   0  0  0  0  0  0  0  0  0  0  0  0
  140.6780  159.1670  134.5950 C   0  0  0  0  0  0  0  0  0  0  0  0
  140.1630  159.5410  133.3410 C   0  0  0  0  0  0  0  0  0  0  0  0
  139.8730  158.5620  132.3590 C   0  0  0  0  0  0  0  0  0  0  0  0
  139.3700  158.9730  131.0070 C   0  0  0  0  0  0  0  0  0  0  0  0
  137.6750  159.5050  131.1320 Cl  0  0  0  0  0  0  0  0  0  0  0  0
  140.1180  157.1980  132.6330 C   0  0  0  0  0  0  0  0  0  0  0  0
  140.6120  156.8530  133.8940 C   0  0  0  0  0  0  0  0  0  0  0  0
  143.8377  153.7225  132.9468 H   0  0  0  0  0  0  0  0  0  0  0  0
  142.7917  152.6444  131.9619 H   0  0  0  0  0  0  0  0  0  0  0  0
  142.5061  154.4178  131.9619 H   0  0  0  0  0  0  0  0  0  0  0  0
  142.4490  153.5780  134.5870 H   0  0  0  0  0  0  0  0  0  0  0  0
  138.9419  149.7584  131.2851 H   0  0  0  0  0  0  0  0  0  0  0  0
  140.0299  150.8695  130.3861 H   0  0  0  0  0  0  0  0  0  0  0  0
  140.3518  149.1022  130.3861 H   0  0  0  0  0  0  0  0  0  0  0  0
  140.5513  149.6874  134.3466 H   0  0  0  0  0  0  0  0  0  0  0  0
  139.1489  149.2848  133.2987 H   0  0  0  0  0  0  0  0  0  0  0  0
  140.6024  148.2293  133.2987 H   0  0  0  0  0  0  0  0  0  0  0  0
  142.8311  149.4486  132.8507 H   0  0  0  0  0  0  0  0  0  0  0  0
  142.2365  148.7001  131.3299 H   0  0  0  0  0  0  0  0  0  0  0  0
  142.8046  150.4042  131.3299 H   0  0  0  0  0  0  0  0  0  0  0  0
  142.6060  152.9050  135.7150 H   0  0  0  0  0  0  0  0  0  0  0  0
  141.7538  157.6433  136.8745 H   0  0  0  0  0  0  0  0  0  0  0  0
  140.9037  159.9207  135.3638 H   0  0  0  0  0  0  0  0  0  0  0  0
  139.9837  160.6037  133.1206 H   0  0  0  0  0  0  0  0  0  0  0  0
  139.9854  159.8004  130.6241 H   0  0  0  0  0  0  0  0  0  0  0  0
  139.4327  158.1165  130.3196 H   0  0  0  0  0  0  0  0  0  0  0  0
  139.9248  156.4267  131.8729 H   0  0  0  0  0  0  0  0  0  0  0  0
  1  2  1  0
  2  3  1  0
  3  4  2  0
  3  5  1  0
  5  6  1  0
  6  7  1  0
  6  8  1  0
  6  9  1  0
  2 10  1  0
 10 11  2  0
 10 12  1  0
 12 13  1  0
 13 14  1  0
 14 15  1  0
 14 16  2  0
 13 17  2  0
 17 18  1  0
 18 19  2  0
 19 20  1  0
 20 21  2  0
 21 22  1  0
 22 23  1  0
 21 24  1  0
 24 25  2  0
 25 12  1  0
 25 18  1  0
  1 26  1  0
  1 27  1  0
  1 28  1  0
  2 29  1  1
  7 30  1  0
  7 31  1  0
  7 32  1  0
  8 33  1  0
  8 34  1  0
  8 35  1  0
  9 36  1  0
  9 37  1  0
  9 38  1  0
 15 39  1  0
 17 40  1  0
 19 41  1  0
 20 42  1  0
 22 43  1  0
 22 44  1  0
 24 45  1  0
M  CHG  2   2   1  15  -1
M  END
>  <UniqueID>  (51) 
50

>  <SMILES>  (51) 
C[NH+](C(=O)OC(C)(C)C)C(=O)n1c(C([NH-])=O)cc2ccc(CCl)cc21

>  <Energy>  (51) 
79.25829960585538

>  <Genealogy>  (51) 
C[NH+](C(=O)OC(C)(C)C)C(=O)n1c(C([NH-])=O)cc2ccc(CCl)cc21 (protonated)
C[NH+](C(=O)OC(C)(C)C)C(=O)n1c(C([NH-])=O)cc2ccc(CCl)cc21 (3D coordinates assigned)
C[NH+](C(=O)OC(C)(C)C)C(=O)n1c(C([NH-])=O)cc2ccc(CCl)cc21 (optimized conformer: 79.25829960585538 kcal/mol)

>  <smiles>  (51) 
CN(C(=O)OC(C)(C)C)C(=O)n1c(C(N)=O)cc2ccc(CCl)cc21

>  <score_type>  (51) 
oracle

>  <origin>  (51) 
adg

>  <m_score__min__energy>  (51) 
-7.5

>  <m_primary>  (51) 
energy

$$$$
52:0
     RDKit          3D

 37 38  0  0  0  0  0  0  0  0999 V2000
  139.3640  157.8530  134.3170 C   0  0  0  0  0  0  0  0  0  0  0  0
  140.4750  158.7600  133.8700 C   0  0  0  0  0  0  0  0  0  0  0  0
  140.4130  159.2560  132.7520 O   0  0  0  0  0  0  0  0  0  0  0  0
  141.5870  159.0690  134.7470 N   0  0  1  0  0  0  0  0  0  0  0  0
  141.1350  159.1750  136.1430 C   0  0  0  0  0  0  0  0  0  0  0  0
  142.6120  158.0570  134.5940 C   0  0  0  0  0  0  0  0  0  0  0  0
  142.7370  157.1440  135.4580 O   0  0  0  0  0  0  0  0  0  0  0  0
  143.4870  158.0340  133.4010 C   0  0  0  0  0  0  0  0  0  0  0  0
  143.0810  157.5120  132.3280 O   0  0  0  0  0  0  0  0  0  0  0  0
  144.7880  158.6370  133.4410 N   0  0  0  0  0  0  0  0  0  0  0  0
  145.1000  159.9620  133.5000 C   0  0  0  0  0  0  0  0  0  0  0  0
  144.1350  161.0690  133.6660 C   0  0  0  0  0  0  0  0  0  0  0  0
  142.7550  160.8900  133.3600 N   0  0  0  0  0  0  0  0  0  0  0  0
  144.5300  162.1820  134.1080 O   0  0  0  0  0  0  0  0  0  0  0  0
  146.4820  160.1380  133.4450 C   0  0  0  0  0  0  0  0  0  0  0  0
  147.0080  158.8690  133.3590 C   0  0  0  0  0  0  0  0  0  0  0  0
  148.3330  158.4490  133.2820 C   0  0  0  0  0  0  0  0  0  0  0  0
  148.5820  157.0680  133.1880 C   0  0  0  0  0  0  0  0  0  0  0  0
  147.5110  156.1370  133.1520 C   0  0  0  0  0  0  0  0  0  0  0  0
  147.7920  154.6580  133.0830 C   0  0  0  0  0  0  0  0  0  0  0  0
  146.6710  154.0030  132.6080 F   0  0  0  0  0  0  0  0  0  0  0  0
  148.8560  154.4030  132.2360 F   0  0  0  0  0  0  0  0  0  0  0  0
  148.1070  154.1610  134.3350 F   0  0  0  0  0  0  0  0  0  0  0  0
  146.1790  156.6050  133.2580 C   0  0  0  0  0  0  0  0  0  0  0  0
  145.9650  157.9820  133.3600 C   0  0  0  0  0  0  0  0  0  0  0  0
  139.3319  157.8268  135.4162 H   0  0  0  0  0  0  0  0  0  0  0  0
  138.4053  158.2298  133.9310 H   0  0  0  0  0  0  0  0  0  0  0  0
  139.5413  156.8383  133.9310 H   0  0  0  0  0  0  0  0  0  0  0  0
  141.9870  160.0030  134.4960 H   0  0  0  0  0  0  0  0  0  0  0  0
  141.9804  158.9767  136.8182 H   0  0  0  0  0  0  0  0  0  0  0  0
  140.7484  160.1882  136.3273 H   0  0  0  0  0  0  0  0  0  0  0  0
  140.3382  158.4393  136.3273 H   0  0  0  0  0  0  0  0  0  0  0  0
  142.4340  160.0950  132.7630 H   0  0  0  0  0  0  0  0  0  0  0  0
  147.0345  161.0889  133.4659 H   0  0  0  0  0  0  0  0  0  0  0  0
  149.1595  159.1747  133.2943 H   0  0  0  0  0  0  0  0  0  0  0  0
  149.6193  156.7049  133.1418 H   0  0  0  0  0  0  0  0  0  0  0  0
  145.3332  155.9017  133.2600 H   0  0  0  0  0  0  0  0  0  0  0  0
  1  2  1  0
  2  3  2  0
  2  4  1  0
  4  5  1  0
  4  6  1  0
  6  7  2  0
  6  8  1  0
  8  9  2  0
  8 10  1  0
 10 11  1  0
 11 12  1  0
 12 13  1  0
 12 14  2  0
 11 15  2  0
 15 16  1  0
 16 17  2  0
 17 18  1  0
 18 19  2  0
 19 20  1  0
 20 21  1  0
 20 22  1  0
 20 23  1  0
 19 24  1  0
 24 25  2  0
 25 10  1  0
 25 16  1  0
  1 26  1  0
  1 27  1  0
  1 28  1  0
  4 29  1  6
  5 30  1  0
  5 31  1  0
  5 32  1  0
 13 33  1  0
 15 34  1  0
 17 35  1  0
 18 36  1  0
 24 37  1  0
M  CHG  2   4   1  13  -1
M  END
>  <UniqueID>  (52) 
51

>  <SMILES>  (52) 
CC(=O)[NH+](C)C(=O)C(=O)n1c(C([NH-])=O)cc2ccc(C(F)(F)F)cc21

>  <Energy>  (52) 
77.81735253369753

>  <Genealogy>  (52) 
CC(=O)[NH+](C)C(=O)C(=O)n1c(C([NH-])=O)cc2ccc(C(F)(F)F)cc21 (protonated)
CC(=O)[NH+](C)C(=O)C(=O)n1c(C([NH-])=O)cc2ccc(C(F)(F)F)cc21 (3D coordinates assigned)
CC(=O)[NH+](C)C(=O)C(=O)n1c(C([NH-])=O)cc2ccc(C(F)(F)F)cc21 (optimized conformer: 77.81735253369753 kcal/mol)

>  <smiles>  (52) 
CC(=O)N(C)C(=O)C(=O)n1c(C(N)=O)cc2ccc(C(F)(F)F)cc21

>  <score_type>  (52) 
oracle

>  <origin>  (52) 
adg

>  <m_score__min__energy>  (52) 
-5.6399999999999997

>  <m_primary>  (52) 
energy

$$$$
53:0
     RDKit          3D

 32 33  0  0  0  0  0  0  0  0999 V2000
  149.8800  157.6330  131.8520 N   0  0  0  0  0  0  0  0  0  0  0  0
  149.3040  158.9070  132.1240 C   0  0  0  0  0  0  0  0  0  0  0  0
  149.9590  159.9500  131.8560 O   0  0  0  0  0  0  0  0  0  0  0  0
  147.9330  159.0230  132.6620 C   0  0  0  0  0  0  0  0  0  0  0  0
  147.3240  160.2420  132.9530 C   0  0  0  0  0  0  0  0  0  0  0  0
  146.0410  159.9260  133.3390 C   0  0  0  0  0  0  0  0  0  0  0  0
  144.9980  160.7550  133.7400 C   0  0  0  0  0  0  0  0  0  0  0  0
  143.7840  160.1520  134.1080 C   0  0  0  0  0  0  0  0  0  0  0  0
  143.6390  158.7400  134.0940 C   0  0  0  0  0  0  0  0  0  0  0  0
  142.3190  158.1090  134.4560 C   0  0  0  0  0  0  0  0  0  0  0  0
  141.7220  157.6170  133.3110 F   0  0  0  0  0  0  0  0  0  0  0  0
  142.5030  157.0690  135.3510 F   0  0  0  0  0  0  0  0  0  0  0  0
  141.4760  159.0380  135.0400 F   0  0  0  0  0  0  0  0  0  0  0  0
  144.7170  157.9350  133.6580 C   0  0  0  0  0  0  0  0  0  0  0  0
  145.9090  158.5630  133.2800 C   0  0  0  0  0  0  0  0  0  0  0  0
  147.0630  157.9940  132.8660 N   0  0  0  0  0  0  0  0  0  0  0  0
  147.3330  156.5860  132.7730 C   0  0  0  0  0  0  0  0  0  0  0  0
  147.1670  155.9850  131.6770 O   0  0  0  0  0  0  0  0  0  0  0  0
  147.7610  155.8850  133.9070 O   0  0  0  0  0  0  0  0  0  0  0  0
  147.6890  154.4670  134.0240 C   0  0  0  0  0  0  0  0  0  0  0  0
  148.7870  153.8230  133.2330 C   0  0  0  0  0  0  0  0  0  0  0  0
  149.5000  154.5640  132.2430 N   0  0  0  0  0  0  0  0  0  0  0  0
  149.0650  152.6100  133.4270 O   0  0  0  0  0  0  0  0  0  0  0  0
  149.2780  156.7990  131.6640 H   0  0  0  0  0  0  0  0  0  0  0  0
  147.7731  161.2441  132.8881 H   0  0  0  0  0  0  0  0  0  0  0  0
  145.1203  161.8478  133.7679 H   0  0  0  0  0  0  0  0  0  0  0  0
  142.9347  160.7820  134.4109 H   0  0  0  0  0  0  0  0  0  0  0  0
  144.6206  156.8400  133.6170 H   0  0  0  0  0  0  0  0  0  0  0  0
  147.7906  154.1847  135.0823 H   0  0  0  0  0  0  0  0  0  0  0  0
  146.7191  154.1247  133.6339 H   0  0  0  0  0  0  0  0  0  0  0  0
  149.2770  155.5660  132.0600 H   0  0  0  0  0  0  0  0  0  0  0  0
  150.2550  154.1050  131.6860 H   0  0  0  0  0  0  0  0  0  0  0  0
  1  2  1  0
  2  3  2  0
  2  4  1  0
  4  5  2  0
  5  6  1  0
  6  7  2  0
  7  8  1  0
  8  9  2  0
  9 10  1  0
 10 11  1  0
 10 12  1  0
 10 13  1  0
  9 14  1  0
 14 15  2  0
 15 16  1  0
 16 17  1  0
 17 18  2  0
 17 19  1  0
 19 20  1  0
 20 21  1  0
 21 22  1  0
 21 23  2  0
 16  4  1  0
 15  6  1  0
  1 24  1  0
  5 25  1  0
  7 26  1  0
  8 27  1  0
 14 28  1  0
 20 29  1  0
 20 30  1  0
 22 31  1  0
 22 32  1  0
M  CHG  1   1  -1
M  END
>  <UniqueID>  (53) 
52

>  <SMILES>  (53) 
[NH-]C(=O)c1cc2ccc(C(F)(F)F)cc2n1C(=O)OCC(N)=O

>  <Energy>  (53) 
68.43539017220549

>  <Genealogy>  (53) 
[NH-]C(=O)c1cc2ccc(C(F)(F)F)cc2n1C(=O)OCC(N)=O (protonated)
[NH-]C(=O)c1cc2ccc(C(F)(F)F)cc2n1C(=O)OCC(N)=O (3D coordinates assigned)
[NH-]C(=O)c1cc2ccc(C(F)(F)F)cc2n1C(=O)OCC(N)=O (optimized conformer: 68.43539017220549 kcal/mol)

>  <smiles>  (53) 
NC(=O)COC(=O)n1c(C(N)=O)cc2ccc(C(F)(F)F)cc21

>  <score_type>  (53) 
oracle

>  <origin>  (53) 
adg

>  <m_score__min__energy>  (53) 
-6.1500000000000004

>  <m_primary>  (53) 
energy

$$$$
54:0
     RDKit          3D

 42 43  0  0  0  0  0  0  0  0999 V2000
  144.6250  154.2110  136.1510 C   0  0  0  0  0  0  0  0  0  0  0  0
  146.0000  154.6070  135.5930 C   0  0  1  0  0  0  0  0  0  0  0  0
  147.1020  154.1320  136.4980 C   0  0  0  0  0  0  0  0  0  0  0  0
  148.1390  154.8280  136.6660 O   0  0  0  0  0  0  0  0  0  0  0  0
  146.9990  152.8960  137.1230 O   0  0  0  0  0  0  0  0  0  0  0  0
  146.2090  154.1280  134.2100 N   0  0  0  0  0  0  0  0  0  0  0  0
  145.1590  153.3920  133.4940 C   0  0  0  0  0  0  0  0  0  0  0  0
  147.5270  154.2380  133.6210 C   0  0  0  0  0  0  0  0  0  0  0  0
  148.4560  153.4860  134.0210 O   0  0  0  0  0  0  0  0  0  0  0  0
  147.8530  155.2820  132.5800 C   0  0  0  0  0  0  0  0  0  0  0  0
  148.4710  156.5340  133.2150 C   0  0  0  0  0  0  0  0  0  0  0  0
  147.4660  157.6520  133.3330 C   0  0  0  0  0  0  0  0  0  0  0  0
  147.8990  158.9990  133.3030 C   0  0  0  0  0  0  0  0  0  0  0  0
  146.9690  160.0500  133.3650 C   0  0  0  0  0  0  0  0  0  0  0  0
  145.6190  159.7220  133.4440 C   0  0  0  0  0  0  0  0  0  0  0  0
  144.5140  160.5390  133.5150 C   0  0  0  0  0  0  0  0  0  0  0  0
  143.4190  159.6760  133.5570 C   0  0  0  0  0  0  0  0  0  0  0  0
  142.0180  160.1440  133.5430 C   0  0  0  0  0  0  0  0  0  0  0  0
  141.1460  159.7410  132.4880 N   0  0  0  0  0  0  0  0  0  0  0  0
  141.5690  160.8660  134.4730 O   0  0  0  0  0  0  0  0  0  0  0  0
  143.8320  158.3760  133.5250 N   0  0  0  0  0  0  0  0  0  0  0  0
  143.0240  157.1910  133.5970 C   0  0  0  0  0  0  0  0  0  0  0  0
  143.3120  156.2720  134.4090 O   0  0  0  0  0  0  0  0  0  0  0  0
  141.9270  157.0360  132.7580 O   0  0  0  0  0  0  0  0  0  0  0  0
  145.1820  158.4230  133.4550 C   0  0  0  0  0  0  0  0  0  0  0  0
  146.0870  157.3570  133.4120 C   0  0  0  0  0  0  0  0  0  0  0  0
  144.6588  154.2207  137.2504 H   0  0  0  0  0  0  0  0  0  0  0  0
  143.8671  154.9274  135.8011 H   0  0  0  0  0  0  0  0  0  0  0  0
  144.3643  153.2013  135.8011 H   0  0  0  0  0  0  0  0  0  0  0  0
  146.0254  155.7061  135.5563 H   0  0  0  0  0  0  0  0  0  0  0  0
  144.4828  152.9180  134.2207 H   0  0  0  0  0  0  0  0  0  0  0  0
  144.5883  154.0888  132.8625 H   0  0  0  0  0  0  0  0  0  0  0  0
  145.6194  152.6179  132.8625 H   0  0  0  0  0  0  0  0  0  0  0  0
  148.5669  154.8572  131.8589 H   0  0  0  0  0  0  0  0  0  0  0  0
  146.9182  155.5742  132.0792 H   0  0  0  0  0  0  0  0  0  0  0  0
  148.8407  156.2792  134.2192 H   0  0  0  0  0  0  0  0  0  0  0  0
  149.2922  156.8772  132.5686 H   0  0  0  0  0  0  0  0  0  0  0  0
  148.9731  159.2249  133.2305 H   0  0  0  0  0  0  0  0  0  0  0  0
  147.2977  161.0997  133.3515 H   0  0  0  0  0  0  0  0  0  0  0  0
  144.4977  161.6387  133.5345 H   0  0  0  0  0  0  0  0  0  0  0  0
  141.4100  158.9650  131.8420 H   0  0  0  0  0  0  0  0  0  0  0  0
  145.7336  156.3157  133.4390 H   0  0  0  0  0  0  0  0  0  0  0  0
  1  2  1  0
  2  3  1  0
  3  4  2  0
  3  5  1  0
  2  6  1  0
  6  7  1  0
  6  8  1  0
  8  9  2  0
  8 10  1  0
 10 11  1  0
 11 12  1  0
 12 13  2  0
 13 14  1  0
 14 15  2  0
 15 16  1  0
 16 17  2  0
 17 18  1  0
 18 19  1  0
 18 20  2  0
 17 21  1  0
 21 22  1  0
 22 23  2  0
 22 24  1  0
 21 25  1  0
 25 26  2  0
 26 12  1  0
 25 15  1  0
  1 27  1  0
  1 28  1  0
  1 29  1  0
  2 30  1  6
  7 31  1  0
  7 32  1  0
  7 33  1  0
 10 34  1  0
 10 35  1  0
 11 36  1  0
 11 37  1  0
 13 38  1  0
 14 39  1  0
 16 40  1  0
 19 41  1  0
 26 42  1  0
M  CHG  3   5  -1  19  -1  24  -1
M  END
>  <UniqueID>  (54) 
53

>  <SMILES>  (54) 
C[C@@H](C(=O)[O-])N(C)C(=O)CCc1ccc2cc(C([NH-])=O)n(C(=O)[O-])c2c1

>  <Energy>  (54) 
74.56167735149504

>  <Genealogy>  (54) 
CC(C(=O)[O-])N(C)C(=O)CCc1ccc2cc(C([NH-])=O)n(C(=O)[O-])c2c1 (protonated)
C[C@@H](C(=O)[O-])N(C)C(=O)CCc1ccc2cc(C([NH-])=O)n(C(=O)[O-])c2c1 (chirality)
C[C@@H](C(=O)[O-])N(C)C(=O)CCc1ccc2cc(C([NH-])=O)n(C(=O)[O-])c2c1 (3D coordinates assigned)
C[C@@H](C(=O)[O-])N(C)C(=O)CCc1ccc2cc(C([NH-])=O)n(C(=O)[O-])c2c1 (optimized conformer: 74.56167735149504 kcal/mol)

>  <smiles>  (54) 
CC(C(=O)O)N(C)C(=O)CCc1ccc2cc(C(N)=O)n(C(=O)O)c2c1

>  <score_type>  (54) 
oracle

>  <origin>  (54) 
adg

>  <m_score__min__energy>  (54) 
-7.5899999999999999

>  <m_primary>  (54) 
energy

$$$$
55:0
     RDKit          3D

 37 38  0  0  0  0  0  0  0  0999 V2000
  149.7340  160.6440  130.4840 C   0  0  0  0  0  0  0  0  0  0  0  0
  149.0700  159.9410  131.2030 C   0  0  0  0  0  0  0  0  0  0  0  0
  148.2780  159.1000  132.0610 C   0  0  0  0  0  0  0  0  0  0  0  0
  147.2210  159.6610  132.8170 C   0  0  0  0  0  0  0  0  0  0  0  0
  146.4480  158.8530  133.6680 C   0  0  0  0  0  0  0  0  0  0  0  0
  146.7530  157.4960  133.7330 C   0  0  0  0  0  0  0  0  0  0  0  0
  146.1830  156.4930  134.4860 C   0  0  0  0  0  0  0  0  0  0  0  0
  146.8900  155.3380  134.1580 C   0  0  0  0  0  0  0  0  0  0  0  0
  146.5480  153.9970  134.6780 C   0  0  0  0  0  0  0  0  0  0  0  0
  145.9730  153.0070  133.8300 N   0  0  0  0  0  0  0  0  0  0  0  0
  146.7260  153.7360  135.8970 O   0  0  0  0  0  0  0  0  0  0  0  0
  147.8660  155.6170  133.2480 N   0  0  0  0  0  0  0  0  0  0  0  0
  148.8610  154.7270  132.7190 C   0  0  0  0  0  0  0  0  0  0  0  0
  149.9270  155.1970  132.2380 O   0  0  0  0  0  0  0  0  0  0  0  0
  148.6570  153.3100  132.7660 N   0  0  0  0  0  0  0  0  0  0  0  0
  149.6100  152.3800  132.1640 C   0  0  0  0  0  0  0  0  0  0  0  0
  148.9690  151.0500  131.9320 C   0  0  0  0  0  0  0  0  0  0  0  0
  147.8490  150.7950  132.4520 O   0  0  0  0  0  0  0  0  0  0  0  0
  149.6430  150.0840  131.1800 O   0  0  0  0  0  0  0  0  0  0  0  0
  150.3640  150.3980  129.9940 C   0  0  0  0  0  0  0  0  0  0  0  0
  151.2010  149.2020  129.5720 C   0  0  0  0  0  0  0  0  0  0  0  0
  147.7650  156.9400  132.9940 C   0  0  0  0  0  0  0  0  0  0  0  0
  148.5620  157.7230  132.1510 C   0  0  0  0  0  0  0  0  0  0  0  0
  150.3401  161.2857  129.8276 H   0  0  0  0  0  0  0  0  0  0  0  0
  147.0033  160.7363  132.7378 H   0  0  0  0  0  0  0  0  0  0  0  0
  145.6276  159.2792  134.2641 H   0  0  0  0  0  0  0  0  0  0  0  0
  145.3473  156.5845  135.1954 H   0  0  0  0  0  0  0  0  0  0  0  0
  146.5440  152.2110  133.4680 H   0  0  0  0  0  0  0  0  0  0  0  0
  147.8070  152.9450  133.2560 H   0  0  0  0  0  0  0  0  0  0  0  0
  149.9556  152.7878  131.2026 H   0  0  0  0  0  0  0  0  0  0  0  0
  150.4609  152.2500  132.8489 H   0  0  0  0  0  0  0  0  0  0  0  0
  149.6555  150.6500  129.1912 H   0  0  0  0  0  0  0  0  0  0  0  0
  151.0251  151.2560  130.1858 H   0  0  0  0  0  0  0  0  0  0  0  0
  151.5681  148.6774  130.4665 H   0  0  0  0  0  0  0  0  0  0  0  0
  150.5846  148.5164  128.9720 H   0  0  0  0  0  0  0  0  0  0  0  0
  152.0562  149.5464  128.9720 H   0  0  0  0  0  0  0  0  0  0  0  0
  149.3861  157.2763  131.5755 H   0  0  0  0  0  0  0  0  0  0  0  0
  1  2  3  0
  2  3  1  0
  3  4  2  0
  4  5  1  0
  5  6  2  0
  6  7  1  0
  7  8  2  0
  8  9  1  0
  9 10  1  0
  9 11  2  0
  8 12  1  0
 12 13  1  0
 13 14  2  0
 13 15  1  0
 15 16  1  0
 16 17  1  0
 17 18  2  0
 17 19  1  0
 19 20  1  0
 20 21  1  0
 12 22  1  0
 22 23  2  0
 23  3  1  0
 22  6  1  0
  1 24  1  0
  4 25  1  0
  5 26  1  0
  7 27  1  0
 10 28  1  0
 15 29  1  0
 16 30  1  0
 16 31  1  0
 20 32  1  0
 20 33  1  0
 21 34  1  0
 21 35  1  0
 21 36  1  0
 23 37  1  0
M  CHG  1  10  -1
M  END
>  <UniqueID>  (55) 
54

>  <SMILES>  (55) 
C#Cc1ccc2cc(C([NH-])=O)n(C(=O)NCC(=O)OCC)c2c1

>  <Energy>  (55) 
66.59579119933805

>  <Genealogy>  (55) 
C#Cc1ccc2cc(C([NH-])=O)n(C(=O)NCC(=O)OCC)c2c1 (protonated)
C#Cc1ccc2cc(C([NH-])=O)n(C(=O)NCC(=O)OCC)c2c1 (3D coordinates assigned)
C#Cc1ccc2cc(C([NH-])=O)n(C(=O)NCC(=O)OCC)c2c1 (optimized conformer: 66.59579119933805 kcal/mol)

>  <smiles>  (55) 
C#Cc1ccc2cc(C(N)=O)n(C(=O)NCC(=O)OCC)c2c1

>  <score_type>  (55) 
oracle

>  <origin>  (55) 
adg

>  <m_score__min__energy>  (55) 
-7.0999999999999996

>  <m_primary>  (55) 
energy

$$$$
56:0
     RDKit          3D

 41 42  0  0  0  0  0  0  0  0999 V2000
  141.9830  149.9730  132.3470 C   0  0  0  0  0  0  0  0  0  0  0  0
  141.0070  151.0680  132.3550 N   0  0  0  0  0  0  0  0  0  0  0  0
  139.6030  150.8020  132.0250 C   0  0  0  0  0  0  0  0  0  0  0  0
  141.4050  152.4200  132.6780 C   0  0  0  0  0  0  0  0  0  0  0  0
  140.5600  153.3540  132.6050 O   0  0  0  0  0  0  0  0  0  0  0  0
  142.8070  152.7570  133.1120 C   0  0  0  0  0  0  0  0  0  0  0  0
  142.8010  153.7340  134.1510 O   0  0  0  0  0  0  0  0  0  0  0  0
  143.7410  154.7660  134.2420 C   0  0  0  0  0  0  0  0  0  0  0  0
  144.4990  154.8590  135.2470 O   0  0  0  0  0  0  0  0  0  0  0  0
  143.8550  155.7380  133.1490 C   0  0  0  0  0  0  0  0  0  0  0  0
  144.1480  155.3390  131.9900 O   0  0  0  0  0  0  0  0  0  0  0  0
  143.6400  157.1390  133.3860 N   0  0  0  0  0  0  0  0  0  0  0  0
  142.4470  157.7930  133.4580 C   0  0  0  0  0  0  0  0  0  0  0  0
  141.1130  157.1590  133.4520 C   0  0  0  0  0  0  0  0  0  0  0  0
  140.9280  155.8170  132.9970 N   0  0  0  0  0  0  0  0  0  0  0  0
  140.1230  157.8000  133.8950 O   0  0  0  0  0  0  0  0  0  0  0  0
  142.6490  159.1680  133.5480 C   0  0  0  0  0  0  0  0  0  0  0  0
  144.0160  159.3370  133.5270 C   0  0  0  0  0  0  0  0  0  0  0  0
  144.7750  160.5030  133.5640 C   0  0  0  0  0  0  0  0  0  0  0  0
  146.1720  160.3830  133.4720 C   0  0  0  0  0  0  0  0  0  0  0  0
  146.7830  159.1100  133.3130 C   0  0  0  0  0  0  0  0  0  0  0  0
  148.2820  158.9770  133.2300 C   0  0  0  0  0  0  0  0  0  0  0  0
  148.6450  157.7620  132.6730 F   0  0  0  0  0  0  0  0  0  0  0  0
  148.8380  159.0580  134.4940 F   0  0  0  0  0  0  0  0  0  0  0  0
  148.7870  159.9980  132.4470 F   0  0  0  0  0  0  0  0  0  0  0  0
  145.9760  157.9500  133.2970 C   0  0  0  0  0  0  0  0  0  0  0  0
  144.5900  158.0980  133.4200 C   0  0  0  0  0  0  0  0  0  0  0  0
  142.2307  149.6951  133.3821 H   0  0  0  0  0  0  0  0  0  0  0  0
  141.5546  149.1038  131.8265 H   0  0  0  0  0  0  0  0  0  0  0  0
  142.8956  150.2990  131.8265 H   0  0  0  0  0  0  0  0  0  0  0  0
  139.0227  150.6921  132.9530 H   0  0  0  0  0  0  0  0  0  0  0  0
  139.1994  151.6397  131.4372 H   0  0  0  0  0  0  0  0  0  0  0  0
  139.5338  149.8748  131.4372 H   0  0  0  0  0  0  0  0  0  0  0  0
  143.2986  151.8443  133.4797 H   0  0  0  0  0  0  0  0  0  0  0  0
  143.3512  153.1677  132.2488 H   0  0  0  0  0  0  0  0  0  0  0  0
  139.9670  155.4120  132.9450 H   0  0  0  0  0  0  0  0  0  0  0  0
  141.7410  155.1920  132.8100 H   0  0  0  0  0  0  0  0  0  0  0  0
  141.8808  159.9520  133.6204 H   0  0  0  0  0  0  0  0  0  0  0  0
  144.2959  161.4883  133.6622 H   0  0  0  0  0  0  0  0  0  0  0  0
  146.7998  161.2848  133.5237 H   0  0  0  0  0  0  0  0  0  0  0  0
  146.4275  156.9526  133.1902 H   0  0  0  0  0  0  0  0  0  0  0  0
  1  2  1  0
  2  3  1  0
  2  4  1  0
  4  5  2  0
  4  6  1  0
  6  7  1  0
  7  8  1  0
  8  9  2  0
  8 10  1  0
 10 11  2  0
 10 12  1  0
 12 13  1  0
 13 14  1  0
 14 15  1  0
 14 16  2  0
 13 17  2  0
 17 18  1  0
 18 19  2  0
 19 20  1  0
 20 21  2  0
 21 22  1  0
 22 23  1  0
 22 24  1  0
 22 25  1  0
 21 26  1  0
 26 27  2  0
 27 12  1  0
 27 18  1  0
  1 28  1  0
  1 29  1  0
  1 30  1  0
  3 31  1  0
  3 32  1  0
  3 33  1  0
  6 34  1  0
  6 35  1  0
 15 36  1  0
 15 37  1  0
 17 38  1  0
 19 39  1  0
 20 40  1  0
 26 41  1  0
M  END
>  <UniqueID>  (56) 
55

>  <SMILES>  (56) 
CN(C)C(=O)COC(=O)C(=O)n1c(C(N)=O)cc2ccc(C(F)(F)F)cc21

>  <Energy>  (56) 
75.64192075395603

>  <Genealogy>  (56) 
CN(C)C(=O)COC(=O)C(=O)n1c(C(N)=O)cc2ccc(C(F)(F)F)cc21 (3D coordinates assigned)
CN(C)C(=O)COC(=O)C(=O)n1c(C(N)=O)cc2ccc(C(F)(F)F)cc21 (optimized conformer: 75.64192075395603 kcal/mol)

>  <smiles>  (56) 
CN(C)C(=O)COC(=O)C(=O)n1c(C(N)=O)cc2ccc(C(F)(F)F)cc21

>  <score_type>  (56) 
oracle

>  <origin>  (56) 
adg

>  <m_score__min__energy>  (56) 
-6.1500000000000004

>  <m_primary>  (56) 
energy

$$$$
57:0
     RDKit          3D

 57 59  0  0  0  0  0  0  0  0999 V2000
  148.2080  153.3590  135.6960 C   0  0  0  0  0  0  0  0  0  0  0  0
  147.8020  153.7850  134.3400 N   0  0  2  0  0  0  0  0  0  0  0  0
  148.6200  153.0710  133.3880 C   0  0  0  0  0  0  0  0  0  0  0  0
  149.6750  153.5980  132.9380 O   0  0  0  0  0  0  0  0  0  0  0  0
  148.2090  151.8000  132.9580 O   0  0  0  0  0  0  0  0  0  0  0  0
  149.0060  150.6060  132.9410 C   0  0  0  0  0  0  0  0  0  0  0  0
  150.0910  150.6930  131.8510 C   0  0  0  0  0  0  0  0  0  0  0  0
  148.0630  149.4410  132.6100 C   0  0  0  0  0  0  0  0  0  0  0  0
  149.6420  150.3580  134.3240 C   0  0  0  0  0  0  0  0  0  0  0  0
  147.9100  155.2660  134.1650 C   0  0  1  0  0  0  0  0  0  0  0  0
  147.9140  155.7020  132.6770 C   0  0  0  0  0  0  0  0  0  0  0  0
  146.4650  155.9870  132.3220 C   0  0  0  0  0  0  0  0  0  0  0  0
  145.8070  156.2330  133.5930 N   0  0  0  0  0  0  0  0  0  0  0  0
  144.4480  156.6750  133.7130 C   0  0  0  0  0  0  0  0  0  0  0  0
  144.1950  157.9040  133.8290 O   0  0  0  0  0  0  0  0  0  0  0  0
  143.3740  155.7260  133.7390 N   0  0  0  0  0  0  0  0  0  0  0  0
  143.4440  154.3860  133.9760 C   0  0  0  0  0  0  0  0  0  0  0  0
  144.6570  153.6360  134.3610 C   0  0  0  0  0  0  0  0  0  0  0  0
  145.3920  152.8830  133.4000 N   0  0  0  0  0  0  0  0  0  0  0  0
  145.0670  153.6820  135.5510 O   0  0  0  0  0  0  0  0  0  0  0  0
  142.1790  153.8080  133.8590 C   0  0  0  0  0  0  0  0  0  0  0  0
  141.3300  154.8450  133.5400 C   0  0  0  0  0  0  0  0  0  0  0  0
  139.9590  154.8450  133.2990 C   0  0  0  0  0  0  0  0  0  0  0  0
  139.3440  156.0700  132.9850 C   0  0  0  0  0  0  0  0  0  0  0  0
  140.1030  157.2680  132.9190 C   0  0  0  0  0  0  0  0  0  0  0  0
  139.4460  158.5710  132.5470 C   0  0  0  0  0  0  0  0  0  0  0  0
  139.9010  159.5940  133.3640 F   0  0  0  0  0  0  0  0  0  0  0  0
  138.0720  158.4860  132.6850 F   0  0  0  0  0  0  0  0  0  0  0  0
  139.7500  158.8740  131.2340 F   0  0  0  0  0  0  0  0  0  0  0  0
  141.5000  157.2170  133.1300 C   0  0  0  0  0  0  0  0  0  0  0  0
  142.0780  155.9890  133.4710 C   0  0  0  0  0  0  0  0  0  0  0  0
  146.6750  155.9970  134.7320 C   0  0  0  0  0  0  0  0  0  0  0  0
  147.6524  153.9420  136.4452 H   0  0  0  0  0  0  0  0  0  0  0  0
  147.9867  152.2893  135.8259 H   0  0  0  0  0  0  0  0  0  0  0  0
  149.2870  153.5286  135.8259 H   0  0  0  0  0  0  0  0  0  0  0  0
  146.8060  153.4930  134.1940 H   0  0  0  0  0  0  0  0  0  0  0  0
  151.0808  150.7723  132.3244 H   0  0  0  0  0  0  0  0  0  0  0  0
  150.0553  149.7891  131.2251 H   0  0  0  0  0  0  0  0  0  0  0  0
  149.9117  151.5796  131.2251 H   0  0  0  0  0  0  0  0  0  0  0  0
  147.6970  148.9889  133.5436 H   0  0  0  0  0  0  0  0  0  0  0  0
  147.2100  149.8147  132.0246 H   0  0  0  0  0  0  0  0  0  0  0  0
  148.6062  148.6845  132.0246 H   0  0  0  0  0  0  0  0  0  0  0  0
  148.9268  150.6369  135.1118 H   0  0  0  0  0  0  0  0  0  0  0  0
  149.9001  149.2933  134.4233 H   0  0  0  0  0  0  0  0  0  0  0  0
  150.5527  150.9669  134.4233 H   0  0  0  0  0  0  0  0  0  0  0  0
  148.8492  155.5203  134.6780 H   0  0  0  0  0  0  0  0  0  0  0  0
  148.5252  156.6070  132.5453 H   0  0  0  0  0  0  0  0  0  0  0  0
  148.3424  154.9229  132.0294 H   0  0  0  0  0  0  0  0  0  0  0  0
  146.3931  156.8715  131.6721 H   0  0  0  0  0  0  0  0  0  0  0  0
  146.0030  155.1535  131.7725 H   0  0  0  0  0  0  0  0  0  0  0  0
  146.2270  152.3250  133.6810 H   0  0  0  0  0  0  0  0  0  0  0  0
  141.9156  152.7485  133.9931 H   0  0  0  0  0  0  0  0  0  0  0  0
  139.3743  153.9148  133.3526 H   0  0  0  0  0  0  0  0  0  0  0  0
  138.2622  156.1004  132.7882 H   0  0  0  0  0  0  0  0  0  0  0  0
  142.1181  158.1213  133.0285 H   0  0  0  0  0  0  0  0  0  0  0  0
  146.9711  156.9505  135.1937 H   0  0  0  0  0  0  0  0  0  0  0  0
  146.1731  155.4054  135.5118 H   0  0  0  0  0  0  0  0  0  0  0  0
  1  2  1  0
  2  3  1  0
  3  4  2  0
  3  5  1  0
  5  6  1  0
  6  7  1  0
  6  8  1  0
  6  9  1  0
  2 10  1  0
 10 11  1  0
 11 12  1  0
 12 13  1  0
 13 14  1  0
 14 15  2  0
 14 16  1  0
 16 17  1  0
 17 18  1  0
 18 19  1  0
 18 20  2  0
 17 21  2  0
 21 22  1  0
 22 23  2  0
 23 24  1  0
 24 25  2  0
 25 26  1  0
 26 27  1  0
 26 28  1  0
 26 29  1  0
 25 30  1  0
 30 31  2  0
 13 32  1  0
 32 10  1  0
 31 16  1  0
 31 22  1  0
  1 33  1  0
  1 34  1  0
  1 35  1  0
  2 36  1  6
  7 37  1  0
  7 38  1  0
  7 39  1  0
  8 40  1  0
  8 41  1  0
  8 42  1  0
  9 43  1  0
  9 44  1  0
  9 45  1  0
 10 46  1  1
 11 47  1  0
 11 48  1  0
 12 49  1  0
 12 50  1  0
 19 51  1  0
 21 52  1  0
 23 53  1  0
 24 54  1  0
 30 55  1  0
 32 56  1  0
 32 57  1  0
M  CHG  2   2   1  19  -1
M  END
>  <UniqueID>  (57) 
56

>  <SMILES>  (57) 
C[N@H+](C(=O)OC(C)(C)C)[C@H]1CCN(C(=O)n2c(C([NH-])=O)cc3ccc(C(F)(F)F)cc32)C1

>  <Energy>  (57) 
98.53223515992377

>  <Genealogy>  (57) 
C[NH+](C(=O)OC(C)(C)C)[C@H]1CCN(C(=O)n2c(C([NH-])=O)cc3ccc(C(F)(F)F)cc32)C1 (protonated)
C[N@H+](C(=O)OC(C)(C)C)[C@H]1CCN(C(=O)n2c(C([NH-])=O)cc3ccc(C(F)(F)F)cc32)C1 (chirality)
C[N@H+](C(=O)OC(C)(C)C)[C@H]1CCN(C(=O)n2c(C([NH-])=O)cc3ccc(C(F)(F)F)cc32)C1 (3D coordinates assigned)
C[N@H+](C(=O)OC(C)(C)C)[C@H]1CCN(C(=O)n2c(C([NH-])=O)cc3ccc(C(F)(F)F)cc32)C1 (nonaromatic ring conformer: 98.53223515992377 kcal/mol)

>  <smiles>  (57) 
CN(C(=O)OC(C)(C)C)[C@H]1CCN(C(=O)n2c(C(N)=O)cc3ccc(C(F)(F)F)cc32)C1

>  <score_type>  (57) 
oracle

>  <origin>  (57) 
adg

>  <m_score__min__energy>  (57) 
-7.6299999999999999

>  <m_primary>  (57) 
energy

$$$$
58:0
     RDKit          3D

 50 51  0  0  0  0  0  0  0  0999 V2000
  144.1470  160.4350  133.7940 C   0  0  0  0  0  0  0  0  0  0  0  0
  145.0460  159.7930  133.0510 C   0  0  0  0  0  0  0  0  0  0  0  0
  146.4990  159.9050  133.2810 C   0  0  0  0  0  0  0  0  0  0  0  0
  146.9650  160.9930  133.7120 O   0  0  0  0  0  0  0  0  0  0  0  0
  147.3910  158.8100  133.0200 N   0  0  0  0  0  0  0  0  0  0  0  0
  148.5300  158.8270  132.2750 C   0  0  0  0  0  0  0  0  0  0  0  0
  149.1380  160.0240  131.6580 C   0  0  0  0  0  0  0  0  0  0  0  0
  148.3110  161.1060  131.2390 N   0  0  0  0  0  0  0  0  0  0  0  0
  150.3840  160.0950  131.4820 O   0  0  0  0  0  0  0  0  0  0  0  0
  149.0800  157.5480  132.1980 C   0  0  0  0  0  0  0  0  0  0  0  0
  148.2310  156.7410  132.9230 C   0  0  0  0  0  0  0  0  0  0  0  0
  148.2800  155.3700  133.1610 C   0  0  0  0  0  0  0  0  0  0  0  0
  147.2450  154.7970  133.9210 C   0  0  0  0  0  0  0  0  0  0  0  0
  146.1900  155.5980  134.4250 C   0  0  0  0  0  0  0  0  0  0  0  0
  145.0640  154.9660  135.1970 C   0  0  0  0  0  0  0  0  0  0  0  0
  143.8270  155.8690  135.1830 C   0  0  0  0  0  0  0  0  0  0  0  0
  142.7010  155.2490  134.3490 C   0  0  0  0  0  0  0  0  0  0  0  0
  142.0940  156.2770  133.3890 C   0  0  0  0  0  0  0  0  0  0  0  0
  140.8960  156.8840  133.9820 N   0  0  0  0  0  0  0  0  0  0  0  0
  140.9150  157.3450  135.3730 C   0  0  0  0  0  0  0  0  0  0  0  0
  139.6880  157.0300  133.2130 C   0  0  0  0  0  0  0  0  0  0  0  0
  139.1530  156.0210  132.6760 O   0  0  0  0  0  0  0  0  0  0  0  0
  139.1090  158.2970  133.0620 O   0  0  0  0  0  0  0  0  0  0  0  0
  138.2040  158.6250  132.0090 C   0  0  0  0  0  0  0  0  0  0  0  0
  138.8530  159.5530  131.0340 C   0  0  0  0  0  0  0  0  0  0  0  0
  138.2210  160.5490  130.5940 O   0  0  0  0  0  0  0  0  0  0  0  0
  140.1640  159.3360  130.6290 O   0  0  0  0  0  0  0  0  0  0  0  0
  146.1670  156.9830  134.1490 C   0  0  0  0  0  0  0  0  0  0  0  0
  147.2180  157.5280  133.4040 C   0  0  0  0  0  0  0  0  0  0  0  0
  143.0740  160.3184  133.5819 H   0  0  0  0  0  0  0  0  0  0  0  0
  144.4773  161.0821  134.6200 H   0  0  0  0  0  0  0  0  0  0  0  0
  144.6904  159.1519  132.2309 H   0  0  0  0  0  0  0  0  0  0  0  0
  147.3490  161.2280  131.6250 H   0  0  0  0  0  0  0  0  0  0  0  0
  149.9971  157.2473  131.6703 H   0  0  0  0  0  0  0  0  0  0  0  0
  149.1023  154.7547  132.7670 H   0  0  0  0  0  0  0  0  0  0  0  0
  147.2542  153.7164  134.1264 H   0  0  0  0  0  0  0  0  0  0  0  0
  144.8104  153.9984  134.7394 H   0  0  0  0  0  0  0  0  0  0  0  0
  145.3857  154.8216  136.2389 H   0  0  0  0  0  0  0  0  0  0  0  0
  143.4736  156.0104  136.2151 H   0  0  0  0  0  0  0  0  0  0  0  0
  144.1039  156.8341  134.7336 H   0  0  0  0  0  0  0  0  0  0  0  0
  143.1067  154.4091  133.7660 H   0  0  0  0  0  0  0  0  0  0  0  0
  141.9120  154.9009  135.0319 H   0  0  0  0  0  0  0  0  0  0  0  0
  142.8352  157.0634  133.1836 H   0  0  0  0  0  0  0  0  0  0  0  0
  141.8125  155.7703  132.4541 H   0  0  0  0  0  0  0  0  0  0  0  0
  140.8792  156.4768  136.0475 H   0  0  0  0  0  0  0  0  0  0  0  0
  141.8374  157.9151  135.5578 H   0  0  0  0  0  0  0  0  0  0  0  0
  140.0426  157.9891  135.5578 H   0  0  0  0  0  0  0  0  0  0  0  0
  137.9048  157.7035  131.4881 H   0  0  0  0  0  0  0  0  0  0  0  0
  137.3209  159.1201  132.4390 H   0  0  0  0  0  0  0  0  0  0  0  0
  145.3438  157.6167  134.5106 H   0  0  0  0  0  0  0  0  0  0  0  0
  1  2  2  0
  2  3  1  0
  3  4  2  0
  3  5  1  0
  5  6  1  0
  6  7  1  0
  7  8  1  0
  7  9  2  0
  6 10  2  0
 10 11  1  0
 11 12  2  0
 12 13  1  0
 13 14  2  0
 14 15  1  0
 15 16  1  0
 16 17  1  0
 17 18  1  0
 18 19  1  0
 19 20  1  0
 19 21  1  0
 21 22  2  0
 21 23  1  0
 23 24  1  0
 24 25  1  0
 25 26  2  0
 25 27  1  0
 14 28  1  0
 28 29  2  0
 29  5  1  0
 29 11  1  0
  1 30  1  0
  1 31  1  0
  2 32  1  0
  8 33  1  0
 10 34  1  0
 12 35  1  0
 13 36  1  0
 15 37  1  0
 15 38  1  0
 16 39  1  0
 16 40  1  0
 17 41  1  0
 17 42  1  0
 18 43  1  0
 18 44  1  0
 20 45  1  0
 20 46  1  0
 20 47  1  0
 24 48  1  0
 24 49  1  0
 28 50  1  0
M  CHG  2   8  -1  27  -1
M  END
>  <UniqueID>  (58) 
57

>  <SMILES>  (58) 
C=CC(=O)n1c(C([NH-])=O)cc2ccc(CCCCN(C)C(=O)OCC(=O)[O-])cc21

>  <Energy>  (58) 
75.43745129600273

>  <Genealogy>  (58) 
C=CC(=O)n1c(C([NH-])=O)cc2ccc(CCCCN(C)C(=O)OCC(=O)[O-])cc21 (protonated)
C=CC(=O)n1c(C([NH-])=O)cc2ccc(CCCCN(C)C(=O)OCC(=O)[O-])cc21 (3D coordinates assigned)
C=CC(=O)n1c(C([NH-])=O)cc2ccc(CCCCN(C)C(=O)OCC(=O)[O-])cc21 (optimized conformer: 75.43745129600273 kcal/mol)

>  <smiles>  (58) 
C=CC(=O)n1c(C(N)=O)cc2ccc(CCCCN(C)C(=O)OCC(=O)O)cc21

>  <score_type>  (58) 
oracle

>  <origin>  (58) 
adg

>  <m_score__min__energy>  (58) 
-7.1399999999999997

>  <m_primary>  (58) 
energy

$$$$
59:0
     RDKit          3D

 44 45  0  0  0  0  0  0  0  0999 V2000
  139.4730  159.0050  133.1440 C   0  0  0  0  0  0  0  0  0  0  0  0
  140.0830  157.7610  133.6240 N   0  0  0  0  0  0  0  0  0  0  0  0
  139.7230  156.4830  132.9970 C   0  0  0  0  0  0  0  0  0  0  0  0
  141.0190  157.8250  134.7240 C   0  0  0  0  0  0  0  0  0  0  0  0
  141.1620  158.9090  135.3550 O   0  0  0  0  0  0  0  0  0  0  0  0
  141.8510  156.6440  135.1550 C   0  0  0  0  0  0  0  0  0  0  0  0
  143.2550  156.7910  134.6470 C   0  0  0  0  0  0  0  0  0  0  0  0
  144.1880  156.1690  135.2230 O   0  0  0  0  0  0  0  0  0  0  0  0
  143.5700  157.6850  133.5150 C   0  0  0  0  0  0  0  0  0  0  0  0
  142.7170  157.8790  132.6060 O   0  0  0  0  0  0  0  0  0  0  0  0
  144.8420  158.3460  133.4420 N   0  0  0  0  0  0  0  0  0  0  0  0
  145.0990  159.6790  133.5570 C   0  0  0  0  0  0  0  0  0  0  0  0
  144.0870  160.7420  133.7200 C   0  0  0  0  0  0  0  0  0  0  0  0
  142.7260  160.4890  133.3750 N   0  0  0  0  0  0  0  0  0  0  0  0
  144.4070  161.8690  134.1750 O   0  0  0  0  0  0  0  0  0  0  0  0
  146.4680  159.9200  133.4530 C   0  0  0  0  0  0  0  0  0  0  0  0
  147.0430  158.6810  133.2720 C   0  0  0  0  0  0  0  0  0  0  0  0
  148.3740  158.3250  133.1150 C   0  0  0  0  0  0  0  0  0  0  0  0
  148.6830  156.9630  132.9710 C   0  0  0  0  0  0  0  0  0  0  0  0
  147.6640  155.9660  132.9930 C   0  0  0  0  0  0  0  0  0  0  0  0
  147.9940  154.5550  132.8590 N   0  0  0  0  0  0  0  0  0  0  0  0
  149.3700  154.1320  132.5560 C   0  0  0  0  0  0  0  0  0  0  0  0
  146.9570  153.5240  133.0250 C   0  0  0  0  0  0  0  0  0  0  0  0
  146.3160  156.3850  133.1540 C   0  0  0  0  0  0  0  0  0  0  0  0
  146.0420  157.7500  133.2740 C   0  0  0  0  0  0  0  0  0  0  0  0
  139.1710  159.6209  134.0039 H   0  0  0  0  0  0  0  0  0  0  0  0
  140.2016  159.5591  132.5340 H   0  0  0  0  0  0  0  0  0  0  0  0
  138.5888  158.7683  132.5340 H   0  0  0  0  0  0  0  0  0  0  0  0
  139.5130  155.7376  133.7782 H   0  0  0  0  0  0  0  0  0  0  0  0
  138.8286  156.6205  132.3715 H   0  0  0  0  0  0  0  0  0  0  0  0
  140.5577  156.1335  132.3715 H   0  0  0  0  0  0  0  0  0  0  0  0
  141.8651  156.5902  136.2536 H   0  0  0  0  0  0  0  0  0  0  0  0
  141.4124  155.7239  134.7414 H   0  0  0  0  0  0  0  0  0  0  0  0
  142.2280  159.6460  133.7360 H   0  0  0  0  0  0  0  0  0  0  0  0
  146.9801  160.8921  133.5045 H   0  0  0  0  0  0  0  0  0  0  0  0
  149.1658  159.0885  133.1036 H   0  0  0  0  0  0  0  0  0  0  0  0
  149.7319  156.6591  132.8386 H   0  0  0  0  0  0  0  0  0  0  0  0
  149.9171  153.9638  133.4953 H   0  0  0  0  0  0  0  0  0  0  0  0
  149.3470  153.1995  131.9731 H   0  0  0  0  0  0  0  0  0  0  0  0
  149.8748  154.9165  131.9731 H   0  0  0  0  0  0  0  0  0  0  0  0
  146.7816  153.3496  134.0968 H   0  0  0  0  0  0  0  0  0  0  0  0
  146.0239  153.8628  132.5511 H   0  0  0  0  0  0  0  0  0  0  0  0
  147.2904  152.5890  132.5511 H   0  0  0  0  0  0  0  0  0  0  0  0
  145.5011  155.6467  133.1837 H   0  0  0  0  0  0  0  0  0  0  0  0
  1  2  1  0
  2  3  1  0
  2  4  1  0
  4  5  2  0
  4  6  1  0
  6  7  1  0
  7  8  2  0
  7  9  1  0
  9 10  2  0
  9 11  1  0
 11 12  1  0
 12 13  1  0
 13 14  1  0
 13 15  2  0
 12 16  2  0
 16 17  1  0
 17 18  2  0
 18 19  1  0
 19 20  2  0
 20 21  1  0
 21 22  1  0
 21 23  1  0
 20 24  1  0
 24 25  2  0
 25 11  1  0
 25 17  1  0
  1 26  1  0
  1 27  1  0
  1 28  1  0
  3 29  1  0
  3 30  1  0
  3 31  1  0
  6 32  1  0
  6 33  1  0
 14 34  1  0
 16 35  1  0
 18 36  1  0
 19 37  1  0
 22 38  1  0
 22 39  1  0
 22 40  1  0
 23 41  1  0
 23 42  1  0
 23 43  1  0
 24 44  1  0
M  CHG  1  14  -1
M  END
>  <UniqueID>  (59) 
58

>  <SMILES>  (59) 
CN(C)C(=O)CC(=O)C(=O)n1c(C([NH-])=O)cc2ccc(N(C)C)cc21

>  <Energy>  (59) 
80.26375822109878

>  <Genealogy>  (59) 
CN(C)C(=O)CC(=O)C(=O)n1c(C([NH-])=O)cc2ccc(N(C)C)cc21 (protonated)
CN(C)C(=O)CC(=O)C(=O)n1c(C([NH-])=O)cc2ccc(N(C)C)cc21 (3D coordinates assigned)
CN(C)C(=O)CC(=O)C(=O)n1c(C([NH-])=O)cc2ccc(N(C)C)cc21 (optimized conformer: 80.26375822109878 kcal/mol)

>  <smiles>  (59) 
CN(C)C(=O)CC(=O)C(=O)n1c(C(N)=O)cc2ccc(N(C)C)cc21

>  <score_type>  (59) 
oracle

>  <origin>  (59) 
adg

>  <m_score__min__energy>  (59) 
-6.6299999999999999

>  <m_primary>  (59) 
energy

$$$$
60:0
     RDKit          3D

 38 39  0  0  0  0  0  0  0  0999 V2000
  147.6700  154.2800  136.0290 C   0  0  0  0  0  0  0  0  0  0  0  0
  146.9220  155.0180  135.0060 N   0  0  0  0  0  0  0  0  0  0  0  0
  145.6050  154.5340  134.5780 C   0  0  0  0  0  0  0  0  0  0  0  0
  147.4610  156.2650  134.5150 C   0  0  0  0  0  0  0  0  0  0  0  0
  148.4010  156.8230  135.1450 O   0  0  0  0  0  0  0  0  0  0  0  0
  146.9530  156.9270  133.2910 C   0  0  0  0  0  0  0  0  0  0  0  0
  147.0670  156.3670  132.1690 O   0  0  0  0  0  0  0  0  0  0  0  0
  146.3650  158.2350  133.3680 N   0  0  0  0  0  0  0  0  0  0  0  0
  146.9350  159.4250  133.0250 C   0  0  0  0  0  0  0  0  0  0  0  0
  148.3440  159.6060  132.6050 C   0  0  0  0  0  0  0  0  0  0  0  0
  149.3970  158.8740  133.2360 N   0  0  0  0  0  0  0  0  0  0  0  0
  148.6280  160.4000  131.6700 O   0  0  0  0  0  0  0  0  0  0  0  0
  146.0230  160.4670  133.1940 C   0  0  0  0  0  0  0  0  0  0  0  0
  144.8680  159.8720  133.6480 C   0  0  0  0  0  0  0  0  0  0  0  0
  143.6380  160.4350  133.9790 C   0  0  0  0  0  0  0  0  0  0  0  0
  142.6130  159.5740  134.4030 C   0  0  0  0  0  0  0  0  0  0  0  0
  142.8240  158.1730  134.4700 C   0  0  0  0  0  0  0  0  0  0  0  0
  141.7220  157.2670  134.9510 C   0  0  1  0  0  0  0  0  0  0  0  0
  142.2360  156.0290  135.2970 F   0  0  0  0  0  0  0  0  0  0  0  0
  140.8930  158.0010  136.3950 P   0  0  0  0  0  0  0  0  0  0  0  0
  139.8000  158.9330  135.9250 O   0  0  0  0  0  0  0  0  0  0  0  0
  140.2160  156.7810  137.3510 O   0  0  0  0  0  0  0  0  0  0  0  0
  142.0170  158.8720  137.3100 O   0  0  0  0  0  0  0  0  0  0  0  0
  144.0890  157.6410  134.1330 C   0  0  0  0  0  0  0  0  0  0  0  0
  145.0990  158.5240  133.7380 C   0  0  0  0  0  0  0  0  0  0  0  0
  147.3420  154.6036  137.0279 H   0  0  0  0  0  0  0  0  0  0  0  0
  147.4837  153.2021  135.9132 H   0  0  0  0  0  0  0  0  0  0  0  0
  148.7453  154.4808  135.9132 H   0  0  0  0  0  0  0  0  0  0  0  0
  144.9918  154.3086  135.4630 H   0  0  0  0  0  0  0  0  0  0  0  0
  145.1080  155.3082  133.9750 H   0  0  0  0  0  0  0  0  0  0  0  0
  145.7276  153.6222  133.9750 H   0  0  0  0  0  0  0  0  0  0  0  0
  149.2160  158.2570  134.0580 H   0  0  0  0  0  0  0  0  0  0  0  0
  150.3810  158.9850  132.9050 H   0  0  0  0  0  0  0  0  0  0  0  0
  146.1913  161.5374  133.0045 H   0  0  0  0  0  0  0  0  0  0  0  0
  143.4745  161.5206  133.9104 H   0  0  0  0  0  0  0  0  0  0  0  0
  141.6353  159.9908  134.6864 H   0  0  0  0  0  0  0  0  0  0  0  0
  140.9933  157.1422  134.1365 H   0  0  0  0  0  0  0  0  0  0  0  0
  144.2749  156.5579  134.1802 H   0  0  0  0  0  0  0  0  0  0  0  0
  1  2  1  0
  2  3  1  0
  2  4  1  0
  4  5  2  0
  4  6  1  0
  6  7  2  0
  6  8  1  0
  8  9  1  0
  9 10  1  0
 10 11  1  0
 10 12  2  0
  9 13  2  0
 13 14  1  0
 14 15  2  0
 15 16  1  0
 16 17  2  0
 17 18  1  0
 18 19  1  0
 18 20  1  0
 20 21  2  0
 20 22  1  0
 20 23  1  0
 17 24  1  0
 24 25  2  0
 25  8  1  0
 25 14  1  0
  1 26  1  0
  1 27  1  0
  1 28  1  0
  3 29  1  0
  3 30  1  0
  3 31  1  0
 11 32  1  0
 11 33  1  0
 13 34  1  0
 15 35  1  0
 16 36  1  0
 18 37  1  6
 24 38  1  0
M  CHG  2  22  -1  23  -1
M  END
>  <UniqueID>  (60) 
59

>  <SMILES>  (60) 
CN(C)C(=O)C(=O)n1c(C(N)=O)cc2ccc([C@@H](F)P(=O)([O-])[O-])cc21

>  <Energy>  (60) 
72.6125921905596

>  <Genealogy>  (60) 
CN(C)C(=O)C(=O)n1c(C(N)=O)cc2ccc(C(F)P(=O)([O-])[O-])cc21 (protonated)
CN(C)C(=O)C(=O)n1c(C(N)=O)cc2ccc([C@@H](F)P(=O)([O-])[O-])cc21 (chirality)
CN(C)C(=O)C(=O)n1c(C(N)=O)cc2ccc([C@@H](F)P(=O)([O-])[O-])cc21 (3D coordinates assigned)
CN(C)C(=O)C(=O)n1c(C(N)=O)cc2ccc([C@@H](F)P(=O)([O-])[O-])cc21 (optimized conformer: 72.6125921905596 kcal/mol)

>  <smiles>  (60) 
CN(C)C(=O)C(=O)n1c(C(N)=O)cc2ccc(C(F)P(=O)(O)O)cc21

>  <score_type>  (60) 
oracle

>  <origin>  (60) 
adg

>  <m_score__min__energy>  (60) 
-6.9299999999999997

>  <m_primary>  (60) 
energy

$$$$
61:0
     RDKit          3D

 39 40  0  0  0  0  0  0  0  0999 V2000
  149.8040  158.9800  131.4810 C   0  0  0  0  0  0  0  0  0  0  0  0
  148.6050  159.7910  131.7160 N   0  0  0  0  0  0  0  0  0  0  0  0
  148.4890  161.1230  131.1100 C   0  0  0  0  0  0  0  0  0  0  0  0
  147.5500  159.2610  132.5480 C   0  0  0  0  0  0  0  0  0  0  0  0
  147.6690  158.1100  133.0520 O   0  0  0  0  0  0  0  0  0  0  0  0
  146.3190  160.0560  132.8670 C   0  0  0  0  0  0  0  0  0  0  0  0
  145.1670  159.2650  132.6030 O   0  0  0  0  0  0  0  0  0  0  0  0
  143.9980  159.3500  133.3630 C   0  0  0  0  0  0  0  0  0  0  0  0
  143.7720  160.3720  134.0670 O   0  0  0  0  0  0  0  0  0  0  0  0
  143.0540  158.2660  133.3390 N   0  0  0  0  0  0  0  0  0  0  0  0
  143.2610  156.9850  133.7550 C   0  0  0  0  0  0  0  0  0  0  0  0
  144.5580  156.4060  134.1590 C   0  0  0  0  0  0  0  0  0  0  0  0
  145.7500  156.6720  133.4170 N   0  0  0  0  0  0  0  0  0  0  0  0
  144.6050  155.6190  135.1410 O   0  0  0  0  0  0  0  0  0  0  0  0
  142.0790  156.2530  133.7100 C   0  0  0  0  0  0  0  0  0  0  0  0
  141.1290  157.1280  133.2360 C   0  0  0  0  0  0  0  0  0  0  0  0
  139.7710  156.9300  133.0010 C   0  0  0  0  0  0  0  0  0  0  0  0
  139.0160  158.0230  132.5420 C   0  0  0  0  0  0  0  0  0  0  0  0
  139.6240  159.2880  132.3470 C   0  0  0  0  0  0  0  0  0  0  0  0
  138.8100  160.4410  131.8370 C   0  0  0  0  0  0  0  0  0  0  0  0
  138.3550  160.1510  130.1410 Cl  0  0  0  0  0  0  0  0  0  0  0  0
  141.0060  159.4480  132.5860 C   0  0  0  0  0  0  0  0  0  0  0  0
  141.7390  158.3380  133.0220 C   0  0  0  0  0  0  0  0  0  0  0  0
  150.2414  158.6841  132.4459 H   0  0  0  0  0  0  0  0  0  0  0  0
  149.5318  158.0798  130.9104 H   0  0  0  0  0  0  0  0  0  0  0  0
  150.5382  159.5677  130.9104 H   0  0  0  0  0  0  0  0  0  0  0  0
  148.4229  161.8822  131.9032 H   0  0  0  0  0  0  0  0  0  0  0  0
  149.3734  161.3204  130.4863 H   0  0  0  0  0  0  0  0  0  0  0  0
  147.5838  161.1645  130.4863 H   0  0  0  0  0  0  0  0  0  0  0  0
  146.3320  160.3433  133.9288 H   0  0  0  0  0  0  0  0  0  0  0  0
  146.2942  160.9624  132.2443 H   0  0  0  0  0  0  0  0  0  0  0  0
  146.6660  156.2900  133.7430 H   0  0  0  0  0  0  0  0  0  0  0  0
  145.7170  157.1820  132.5080 H   0  0  0  0  0  0  0  0  0  0  0  0
  141.9347  155.1998  133.9929 H   0  0  0  0  0  0  0  0  0  0  0  0
  139.3035  155.9486  133.1694 H   0  0  0  0  0  0  0  0  0  0  0  0
  137.9438  157.8953  132.3323 H   0  0  0  0  0  0  0  0  0  0  0  0
  137.9005  160.5445  132.4469 H   0  0  0  0  0  0  0  0  0  0  0  0
  139.4053  161.3637  131.9016 H   0  0  0  0  0  0  0  0  0  0  0  0
  141.4951  160.4214  132.4333 H   0  0  0  0  0  0  0  0  0  0  0  0
  1  2  1  0
  2  3  1  0
  2  4  1  0
  4  5  2  0
  4  6  1  0
  6  7  1  0
  7  8  1  0
  8  9  2  0
  8 10  1  0
 10 11  1  0
 11 12  1  0
 12 13  1  0
 12 14  2  0
 11 15  2  0
 15 16  1  0
 16 17  2  0
 17 18  1  0
 18 19  2  0
 19 20  1  0
 20 21  1  0
 19 22  1  0
 22 23  2  0
 23 10  1  0
 23 16  1  0
  1 24  1  0
  1 25  1  0
  1 26  1  0
  3 27  1  0
  3 28  1  0
  3 29  1  0
  6 30  1  0
  6 31  1  0
 13 32  1  0
 13 33  1  0
 15 34  1  0
 17 35  1  0
 18 36  1  0
 20 37  1  0
 20 38  1  0
 22 39  1  0
M  END
>  <UniqueID>  (61) 
60

>  <SMILES>  (61) 
CN(C)C(=O)COC(=O)n1c(C(N)=O)cc2ccc(CCl)cc21

>  <Energy>  (61) 
71.33681945296094

>  <Genealogy>  (61) 
CN(C)C(=O)COC(=O)n1c(C(N)=O)cc2ccc(CCl)cc21 (3D coordinates assigned)
CN(C)C(=O)COC(=O)n1c(C(N)=O)cc2ccc(CCl)cc21 (optimized conformer: 71.33681945296094 kcal/mol)

>  <smiles>  (61) 
CN(C)C(=O)COC(=O)n1c(C(N)=O)cc2ccc(CCl)cc21

>  <score_type>  (61) 
oracle

>  <origin>  (61) 
adg

>  <m_score__min__energy>  (61) 
-7.0199999999999996

>  <m_primary>  (61) 
energy

$$$$
62:0
     RDKit          3D

 37 38  0  0  0  0  0  0  0  0999 V2000
  140.9440  154.1760  138.5420 C   0  0  0  0  0  0  0  0  0  0  0  0
  141.2410  155.5540  138.0270 C   0  0  0  0  0  0  0  0  0  0  0  0
  141.3540  156.6370  138.9320 C   0  0  0  0  0  0  0  0  0  0  0  0
  141.5800  157.9410  138.4600 C   0  0  0  0  0  0  0  0  0  0  0  0
  141.6870  158.1290  137.0860 C   0  0  0  0  0  0  0  0  0  0  0  0
  141.8670  159.2860  136.3640 C   0  0  0  0  0  0  0  0  0  0  0  0
  141.8780  158.8890  135.0300 C   0  0  0  0  0  0  0  0  0  0  0  0
  142.1120  159.8200  133.9080 C   0  0  0  0  0  0  0  0  0  0  0  0
  141.5720  159.5650  132.6100 N   0  0  0  0  0  0  0  0  0  0  0  0
  142.8480  160.8270  134.0830 O   0  0  0  0  0  0  0  0  0  0  0  0
  141.6970  157.5410  134.9260 N   0  0  0  0  0  0  0  0  0  0  0  0
  141.5440  156.7690  133.7240 C   0  0  0  0  0  0  0  0  0  0  0  0
  142.3620  156.9090  132.7740 O   0  0  0  0  0  0  0  0  0  0  0  0
  140.4830  155.8660  133.6090 O   0  0  0  0  0  0  0  0  0  0  0  0
  139.1400  156.2780  133.3840 C   0  0  0  0  0  0  0  0  0  0  0  0
  138.9730  157.6820  133.8570 C   0  0  0  0  0  0  0  0  0  0  0  0
  138.8090  157.9180  135.0850 O   0  0  0  0  0  0  0  0  0  0  0  0
  138.9670  158.7500  132.9080 N   0  0  0  0  0  0  0  0  0  0  0  0
  138.3370  158.6380  131.6000 C   0  0  0  0  0  0  0  0  0  0  0  0
  139.0730  159.4930  130.6220 C   0  0  0  0  0  0  0  0  0  0  0  0
  140.3130  159.3500  130.4630 O   0  0  0  0  0  0  0  0  0  0  0  0
  138.3790  160.4100  129.8440 O   0  0  0  0  0  0  0  0  0  0  0  0
  141.5850  157.0890  136.1950 C   0  0  0  0  0  0  0  0  0  0  0  0
  141.3360  155.7830  136.6380 C   0  0  0  0  0  0  0  0  0  0  0  0
  140.9464  154.1872  139.6419 H   0  0  0  0  0  0  0  0  0  0  0  0
  139.9560  153.8546  138.1808 H   0  0  0  0  0  0  0  0  0  0  0  0
  141.7119  153.4761  138.1808 H   0  0  0  0  0  0  0  0  0  0  0  0
  141.2642  156.4561  140.0133 H   0  0  0  0  0  0  0  0  0  0  0  0
  141.6696  158.7878  139.1563 H   0  0  0  0  0  0  0  0  0  0  0  0
  141.9785  160.3073  136.7571 H   0  0  0  0  0  0  0  0  0  0  0  0
  141.1050  158.6580  132.3890 H   0  0  0  0  0  0  0  0  0  0  0  0
  141.7140  160.2550  131.8390 H   0  0  0  0  0  0  0  0  0  0  0  0
  138.9131  156.2223  132.3091 H   0  0  0  0  0  0  0  0  0  0  0  0
  138.4535  155.6181  133.9346 H   0  0  0  0  0  0  0  0  0  0  0  0
  138.3664  157.5901  131.2667 H   0  0  0  0  0  0  0  0  0  0  0  0
  137.2907  158.9710  131.6657 H   0  0  0  0  0  0  0  0  0  0  0  0
  141.2176  154.9573  135.9210 H   0  0  0  0  0  0  0  0  0  0  0  0
  1  2  1  0
  2  3  2  0
  3  4  1  0
  4  5  2  0
  5  6  1  0
  6  7  2  0
  7  8  1  0
  8  9  1  0
  8 10  2  0
  7 11  1  0
 11 12  1  0
 12 13  2  0
 12 14  1  0
 14 15  1  0
 15 16  1  0
 16 17  2  0
 16 18  1  0
 18 19  1  0
 19 20  1  0
 20 21  2  0
 20 22  1  0
 11 23  1  0
 23 24  2  0
 24  2  1  0
 23  5  1  0
  1 25  1  0
  1 26  1  0
  1 27  1  0
  3 28  1  0
  4 29  1  0
  6 30  1  0
  9 31  1  0
  9 32  1  0
 15 33  1  0
 15 34  1  0
 19 35  1  0
 19 36  1  0
 24 37  1  0
M  CHG  2  18  -1  22  -1
M  END
>  <UniqueID>  (62) 
61

>  <SMILES>  (62) 
Cc1ccc2cc(C(N)=O)n(C(=O)OCC(=O)[N-]CC(=O)[O-])c2c1

>  <Energy>  (62) 
68.82859420500114

>  <Genealogy>  (62) 
Cc1ccc2cc(C(N)=O)n(C(=O)OCC(=O)[N-]CC(=O)[O-])c2c1 (protonated)
Cc1ccc2cc(C(N)=O)n(C(=O)OCC(=O)[N-]CC(=O)[O-])c2c1 (3D coordinates assigned)
Cc1ccc2cc(C(N)=O)n(C(=O)OCC(=O)[N-]CC(=O)[O-])c2c1 (optimized conformer: 68.82859420500114 kcal/mol)

>  <smiles>  (62) 
Cc1ccc2cc(C(N)=O)n(C(=O)OCC(=O)NCC(=O)O)c2c1

>  <score_type>  (62) 
oracle

>  <origin>  (62) 
adg

>  <m_score__min__energy>  (62) 
-6.2300000000000004

>  <m_primary>  (62) 
energy

$$$$
63:0
     RDKit          3D

 36 37  0  0  0  0  0  0  0  0999 V2000
  148.5240  153.7240  132.6220 C   0  0  0  0  0  0  0  0  0  0  0  0
  148.2020  154.8780  132.7560 C   0  0  0  0  0  0  0  0  0  0  0  0
  147.8180  156.2560  132.9170 C   0  0  0  0  0  0  0  0  0  0  0  0
  148.8080  157.2650  132.9460 C   0  0  0  0  0  0  0  0  0  0  0  0
  148.4460  158.6150  133.0950 C   0  0  0  0  0  0  0  0  0  0  0  0
  147.0920  158.9170  133.2150 C   0  0  0  0  0  0  0  0  0  0  0  0
  146.4610  160.1330  133.3550 C   0  0  0  0  0  0  0  0  0  0  0  0
  145.0990  159.8370  133.4230 C   0  0  0  0  0  0  0  0  0  0  0  0
  144.0510  160.8540  133.6530 C   0  0  0  0  0  0  0  0  0  0  0  0
  142.6830  160.5720  133.3740 N   0  0  0  0  0  0  0  0  0  0  0  0
  144.3650  161.9750  134.1360 O   0  0  0  0  0  0  0  0  0  0  0  0
  144.8990  158.4940  133.3190 N   0  0  0  0  0  0  0  0  0  0  0  0
  143.6520  157.7830  133.2780 C   0  0  0  0  0  0  0  0  0  0  0  0
  143.2560  157.2960  132.1850 O   0  0  0  0  0  0  0  0  0  0  0  0
  142.8100  157.6740  134.4880 C   0  0  0  0  0  0  0  0  0  0  0  0
  143.1170  156.8190  135.3670 O   0  0  0  0  0  0  0  0  0  0  0  0
  141.6900  158.5670  134.7060 N   0  0  2  0  0  0  0  0  0  0  0  0
  141.7380  159.0670  136.0920 C   0  0  0  0  0  0  0  0  0  0  0  0
  140.4150  157.8690  134.4220 C   0  0  0  0  0  0  0  0  0  0  0  0
  139.6620  158.5200  133.2980 C   0  0  0  0  0  0  0  0  0  0  0  0
  138.4650  158.2010  133.0700 O   0  0  0  0  0  0  0  0  0  0  0  0
  140.2910  159.4560  132.4880 O   0  0  0  0  0  0  0  0  0  0  0  0
  146.1260  157.9440  133.1990 C   0  0  0  0  0  0  0  0  0  0  0  0
  146.4550  156.5940  133.0410 C   0  0  0  0  0  0  0  0  0  0  0  0
  148.8178  152.6710  132.4997 H   0  0  0  0  0  0  0  0  0  0  0  0
  149.8692  156.9915  132.8513 H   0  0  0  0  0  0  0  0  0  0  0  0
  149.2082  159.4078  133.1161 H   0  0  0  0  0  0  0  0  0  0  0  0
  146.9308  161.1265  133.4030 H   0  0  0  0  0  0  0  0  0  0  0  0
  142.4160  159.8170  132.7030 H   0  0  0  0  0  0  0  0  0  0  0  0
  141.7670  159.3850  134.0580 H   0  0  0  0  0  0  0  0  0  0  0  0
  141.6568  158.2208  136.7901 H   0  0  0  0  0  0  0  0  0  0  0  0
  142.6906  159.5908  136.2600 H   0  0  0  0  0  0  0  0  0  0  0  0
  140.9025  159.7625  136.2600 H   0  0  0  0  0  0  0  0  0  0  0  0
  140.6332  156.8263  134.1477 H   0  0  0  0  0  0  0  0  0  0  0  0
  139.7898  157.9172  135.3258 H   0  0  0  0  0  0  0  0  0  0  0  0
  145.6742  155.8196  133.0143 H   0  0  0  0  0  0  0  0  0  0  0  0
  1  2  3  0
  2  3  1  0
  3  4  2  0
  4  5  1  0
  5  6  2  0
  6  7  1  0
  7  8  2  0
  8  9  1  0
  9 10  1  0
  9 11  2  0
  8 12  1  0
 12 13  1  0
 13 14  2  0
 13 15  1  0
 15 16  2  0
 15 17  1  0
 17 18  1  0
 17 19  1  0
 19 20  1  0
 20 21  2  0
 20 22  1  0
 12 23  1  0
 23 24  2  0
 24  3  1  0
 23  6  1  0
  1 25  1  0
  4 26  1  0
  5 27  1  0
  7 28  1  0
 10 29  1  0
 17 30  1  6
 18 31  1  0
 18 32  1  0
 18 33  1  0
 19 34  1  0
 19 35  1  0
 24 36  1  0
M  CHG  3  10  -1  17   1  22  -1
M  END
>  <UniqueID>  (63) 
62

>  <SMILES>  (63) 
C#Cc1ccc2cc(C([NH-])=O)n(C(=O)C(=O)[N@H+](C)CC(=O)[O-])c2c1

>  <Energy>  (63) 
76.20079932386042

>  <Genealogy>  (63) 
C#Cc1ccc2cc(C([NH-])=O)n(C(=O)C(=O)[NH+](C)CC(=O)[O-])c2c1 (protonated)
C#Cc1ccc2cc(C([NH-])=O)n(C(=O)C(=O)[N@H+](C)CC(=O)[O-])c2c1 (chirality)
C#Cc1ccc2cc(C([NH-])=O)n(C(=O)C(=O)[N@H+](C)CC(=O)[O-])c2c1 (3D coordinates assigned)
C#Cc1ccc2cc(C([NH-])=O)n(C(=O)C(=O)[N@H+](C)CC(=O)[O-])c2c1 (optimized conformer: 76.20079932386042 kcal/mol)

>  <smiles>  (63) 
C#Cc1ccc2cc(C(N)=O)n(C(=O)C(=O)N(C)CC(=O)O)c2c1

>  <score_type>  (63) 
oracle

>  <origin>  (63) 
adg

>  <m_score__min__energy>  (63) 
-5.7999999999999998

>  <m_primary>  (63) 
energy

$$$$
64:0
     RDKit          3D

 41 42  0  0  0  0  0  0  0  0999 V2000
  139.4860  160.2960  131.1790 C   0  0  0  0  0  0  0  0  0  0  0  0
  140.0830  159.1530  131.8580 N   0  0  0  0  0  0  0  0  0  0  0  0
  139.2820  158.1570  132.5060 C   0  0  0  0  0  0  0  0  0  0  0  0
  138.0270  158.2740  132.5290 O   0  0  0  0  0  0  0  0  0  0  0  0
  139.9390  156.9990  133.2010 C   0  0  0  0  0  0  0  0  0  0  0  0
  141.1470  157.4310  133.9180 N   0  0  0  0  0  0  0  0  0  0  0  0
  141.0590  157.7350  135.3490 C   0  0  0  0  0  0  0  0  0  0  0  0
  142.4440  157.4300  133.2870 C   0  0  0  0  0  0  0  0  0  0  0  0
  142.5150  157.4350  132.0280 O   0  0  0  0  0  0  0  0  0  0  0  0
  143.7010  157.4070  134.0690 C   0  0  0  0  0  0  0  0  0  0  0  0
  143.7870  156.7240  135.1220 O   0  0  0  0  0  0  0  0  0  0  0  0
  144.8480  158.1410  133.6160 N   0  0  0  0  0  0  0  0  0  0  0  0
  144.9530  159.4860  133.4330 C   0  0  0  0  0  0  0  0  0  0  0  0
  143.8570  160.4680  133.5730 C   0  0  0  0  0  0  0  0  0  0  0  0
  142.5470  160.1830  133.0890 N   0  0  0  0  0  0  0  0  0  0  0  0
  144.0830  161.5840  134.1130 O   0  0  0  0  0  0  0  0  0  0  0  0
  146.2510  159.8220  133.0490 C   0  0  0  0  0  0  0  0  0  0  0  0
  146.9400  158.6310  133.0090 C   0  0  0  0  0  0  0  0  0  0  0  0
  148.2700  158.3730  132.6920 C   0  0  0  0  0  0  0  0  0  0  0  0
  148.7160  157.0420  132.7530 C   0  0  0  0  0  0  0  0  0  0  0  0
  147.8400  155.9990  133.1540 C   0  0  0  0  0  0  0  0  0  0  0  0
  148.3170  154.5700  133.1770 C   0  0  0  0  0  0  0  0  0  0  0  0
  149.5340  154.4860  132.5290 F   0  0  0  0  0  0  0  0  0  0  0  0
  148.4680  154.1270  134.4800 F   0  0  0  0  0  0  0  0  0  0  0  0
  147.4090  153.7420  132.5420 F   0  0  0  0  0  0  0  0  0  0  0  0
  146.4890  156.3020  133.4470 C   0  0  0  0  0  0  0  0  0  0  0  0
  146.0710  157.6320  133.3600 C   0  0  0  0  0  0  0  0  0  0  0  0
  139.1121  161.0119  131.9258 H   0  0  0  0  0  0  0  0  0  0  0  0
  140.2437  160.7852  130.5493 H   0  0  0  0  0  0  0  0  0  0  0  0
  138.6515  159.9536  130.5493 H   0  0  0  0  0  0  0  0  0  0  0  0
  141.1240  159.0610  131.8650 H   0  0  0  0  0  0  0  0  0  0  0  0
  139.2306  156.5624  133.9204 H   0  0  0  0  0  0  0  0  0  0  0  0
  140.2281  156.2547  132.4444 H   0  0  0  0  0  0  0  0  0  0  0  0
  141.3185  156.8384  135.9310 H   0  0  0  0  0  0  0  0  0  0  0  0
  141.7589  158.5471  135.5950 H   0  0  0  0  0  0  0  0  0  0  0  0
  140.0335  158.0477  135.5950 H   0  0  0  0  0  0  0  0  0  0  0  0
  142.4040  159.5960  132.2370 H   0  0  0  0  0  0  0  0  0  0  0  0
  146.6414  160.8258  132.8255 H   0  0  0  0  0  0  0  0  0  0  0  0
  148.9516  159.1864  132.4024 H   0  0  0  0  0  0  0  0  0  0  0  0
  149.7567  156.8051  132.4868 H   0  0  0  0  0  0  0  0  0  0  0  0
  145.7844  155.5085  133.7366 H   0  0  0  0  0  0  0  0  0  0  0  0
  1  2  1  0
  2  3  1  0
  3  4  2  0
  3  5  1  0
  5  6  1  0
  6  7  1  0
  6  8  1  0
  8  9  2  0
  8 10  1  0
 10 11  2  0
 10 12  1  0
 12 13  1  0
 13 14  1  0
 14 15  1  0
 14 16  2  0
 13 17  2  0
 17 18  1  0
 18 19  2  0
 19 20  1  0
 20 21  2  0
 21 22  1  0
 22 23  1  0
 22 24  1  0
 22 25  1  0
 21 26  1  0
 26 27  2  0
 27 12  1  0
 27 18  1  0
  1 28  1  0
  1 29  1  0
  1 30  1  0
  2 31  1  0
  5 32  1  0
  5 33  1  0
  7 34  1  0
  7 35  1  0
  7 36  1  0
 15 37  1  0
 17 38  1  0
 19 39  1  0
 20 40  1  0
 26 41  1  0
M  CHG  1  15  -1
M  END
>  <UniqueID>  (64) 
63

>  <SMILES>  (64) 
CNC(=O)CN(C)C(=O)C(=O)n1c(C([NH-])=O)cc2ccc(C(F)(F)F)cc21

>  <Energy>  (64) 
79.14831848239706

>  <Genealogy>  (64) 
CNC(=O)CN(C)C(=O)C(=O)n1c(C([NH-])=O)cc2ccc(C(F)(F)F)cc21 (protonated)
CNC(=O)CN(C)C(=O)C(=O)n1c(C([NH-])=O)cc2ccc(C(F)(F)F)cc21 (3D coordinates assigned)
CNC(=O)CN(C)C(=O)C(=O)n1c(C([NH-])=O)cc2ccc(C(F)(F)F)cc21 (optimized conformer: 79.14831848239706 kcal/mol)

>  <smiles>  (64) 
CNC(=O)CN(C)C(=O)C(=O)n1c(C(N)=O)cc2ccc(C(F)(F)F)cc21

>  <score_type>  (64) 
oracle

>  <origin>  (64) 
adg

>  <m_score__min__energy>  (64) 
-6.4199999999999999

>  <m_primary>  (64) 
energy

$$$$
65:0
     RDKit          3D

 56 57  0  0  0  0  0  0  0  0999 V2000
  141.4380  154.7490  137.2690 C   0  0  0  0  0  0  0  0  0  0  0  0
  142.2240  153.5200  136.7970 C   0  0  1  0  0  0  0  0  0  0  0  0
  141.4640  152.2430  137.0280 C   0  0  0  0  0  0  0  0  0  0  0  0
  141.1120  151.5400  136.0450 O   0  0  0  0  0  0  0  0  0  0  0  0
  141.1340  151.8310  138.3150 O   0  0  0  0  0  0  0  0  0  0  0  0
  142.6120  153.6740  135.3790 N   0  0  0  0  0  0  0  0  0  0  0  0
  141.5970  153.9980  134.3550 C   0  0  0  0  0  0  0  0  0  0  0  0
  141.9060  155.3220  133.6270 C   0  0  0  0  0  0  0  0  0  0  0  0
  141.7800  156.5670  134.5220 C   0  0  0  0  0  0  0  0  0  0  0  0
  142.8110  157.6240  134.2050 C   0  0  0  0  0  0  0  0  0  0  0  0
  142.4380  158.9900  134.1440 C   0  0  0  0  0  0  0  0  0  0  0  0
  143.3890  159.9820  133.8560 C   0  0  0  0  0  0  0  0  0  0  0  0
  144.6980  159.5810  133.6090 C   0  0  0  0  0  0  0  0  0  0  0  0
  145.8130  160.3330  133.3240 C   0  0  0  0  0  0  0  0  0  0  0  0
  146.8480  159.4130  133.1650 C   0  0  0  0  0  0  0  0  0  0  0  0
  148.2230  159.7810  132.7580 C   0  0  0  0  0  0  0  0  0  0  0  0
  149.3430  159.0060  133.1900 N   0  0  0  0  0  0  0  0  0  0  0  0
  148.4220  160.8040  132.0510 O   0  0  0  0  0  0  0  0  0  0  0  0
  146.3890  158.1420  133.3450 N   0  0  0  0  0  0  0  0  0  0  0  0
  147.1510  156.9220  133.3260 C   0  0  0  0  0  0  0  0  0  0  0  0
  147.8170  156.5710  134.3350 O   0  0  0  0  0  0  0  0  0  0  0  0
  147.1500  156.1100  132.1980 O   0  0  0  0  0  0  0  0  0  0  0  0
  145.0700  158.2620  133.6170 C   0  0  0  0  0  0  0  0  0  0  0  0
  144.1470  157.2540  133.9200 C   0  0  0  0  0  0  0  0  0  0  0  0
  144.0050  153.8620  135.0540 C   0  0  0  0  0  0  0  0  0  0  0  0
  144.6220  154.8750  135.4850 O   0  0  0  0  0  0  0  0  0  0  0  0
  144.6660  152.9130  134.2570 O   0  0  0  0  0  0  0  0  0  0  0  0
  145.4060  153.1720  133.0560 C   0  0  0  0  0  0  0  0  0  0  0  0
  146.8780  153.4860  133.3840 C   0  0  0  0  0  0  0  0  0  0  0  0
  145.3490  151.8950  132.2040 C   0  0  0  0  0  0  0  0  0  0  0  0
  144.7660  154.3290  132.2630 C   0  0  0  0  0  0  0  0  0  0  0  0
  141.4221  154.7739  138.3686 H   0  0  0  0  0  0  0  0  0  0  0  0
  141.9207  155.6613  136.8885 H   0  0  0  0  0  0  0  0  0  0  0  0
  140.4074  154.6935  136.8885 H   0  0  0  0  0  0  0  0  0  0  0  0
  143.1407  153.4514  137.4011 H   0  0  0  0  0  0  0  0  0  0  0  0
  141.5686  153.1849  133.6147 H   0  0  0  0  0  0  0  0  0  0  0  0
  140.6281  154.1104  134.8636 H   0  0  0  0  0  0  0  0  0  0  0  0
  142.9355  155.2742  133.2424 H   0  0  0  0  0  0  0  0  0  0  0  0
  141.1611  155.4277  132.8245 H   0  0  0  0  0  0  0  0  0  0  0  0
  140.7786  157.0001  134.3822 H   0  0  0  0  0  0  0  0  0  0  0  0
  141.9449  156.2454  135.5609 H   0  0  0  0  0  0  0  0  0  0  0  0
  141.3913  159.2763  134.3244 H   0  0  0  0  0  0  0  0  0  0  0  0
  143.1073  161.0449  133.8266 H   0  0  0  0  0  0  0  0  0  0  0  0
  145.8752  161.4280  133.2394 H   0  0  0  0  0  0  0  0  0  0  0  0
  149.2170  158.1220  133.7300 H   0  0  0  0  0  0  0  0  0  0  0  0
  150.3120  159.2970  132.9300 H   0  0  0  0  0  0  0  0  0  0  0  0
  144.4534  156.1977  133.9362 H   0  0  0  0  0  0  0  0  0  0  0  0
  147.0124  153.5147  134.4754 H   0  0  0  0  0  0  0  0  0  0  0  0
  147.5237  152.7054  132.9554 H   0  0  0  0  0  0  0  0  0  0  0  0
  147.1490  154.4621  132.9554 H   0  0  0  0  0  0  0  0  0  0  0  0
  145.3097  151.0156  132.8636 H   0  0  0  0  0  0  0  0  0  0  0  0
  144.4510  151.9176  131.5691 H   0  0  0  0  0  0  0  0  0  0  0  0
  146.2455  151.8375  131.5691 H   0  0  0  0  0  0  0  0  0  0  0  0
  144.3556  155.0709  132.9638 H   0  0  0  0  0  0  0  0  0  0  0  0
  145.5288  154.8055  131.6297 H   0  0  0  0  0  0  0  0  0  0  0  0
  143.9570  153.9360  131.6297 H   0  0  0  0  0  0  0  0  0  0  0  0
  1  2  1  0
  2  3  1  0
  3  4  2  0
  3  5  1  0
  2  6  1  0
  6  7  1  0
  7  8  1  0
  8  9  1  0
  9 10  1  0
 10 11  2  0
 11 12  1  0
 12 13  2  0
 13 14  1  0
 14 15  2  0
 15 16  1  0
 16 17  1  0
 16 18  2  0
 15 19  1  0
 19 20  1  0
 20 21  2  0
 20 22  1  0
 19 23  1  0
 23 24  2  0
  6 25  1  0
 25 26  2  0
 25 27  1  0
 27 28  1  0
 28 29  1  0
 28 30  1  0
 28 31  1  0
 24 10  1  0
 23 13  1  0
  1 32  1  0
  1 33  1  0
  1 34  1  0
  2 35  1  1
  7 36  1  0
  7 37  1  0
  8 38  1  0
  8 39  1  0
  9 40  1  0
  9 41  1  0
 11 42  1  0
 12 43  1  0
 14 44  1  0
 17 45  1  0
 17 46  1  0
 24 47  1  0
 29 48  1  0
 29 49  1  0
 29 50  1  0
 30 51  1  0
 30 52  1  0
 30 53  1  0
 31 54  1  0
 31 55  1  0
 31 56  1  0
M  CHG  2   5  -1  22  -1
M  END
>  <UniqueID>  (65) 
64

>  <SMILES>  (65) 
C[C@@H](C(=O)[O-])N(CCCc1ccc2cc(C(N)=O)n(C(=O)[O-])c2c1)C(=O)OC(C)(C)C

>  <Energy>  (65) 
85.88276714815643

>  <Genealogy>  (65) 
CC(C(=O)[O-])N(CCCc1ccc2cc(C(N)=O)n(C(=O)[O-])c2c1)C(=O)OC(C)(C)C (protonated)
C[C@@H](C(=O)[O-])N(CCCc1ccc2cc(C(N)=O)n(C(=O)[O-])c2c1)C(=O)OC(C)(C)C (chirality)
C[C@@H](C(=O)[O-])N(CCCc1ccc2cc(C(N)=O)n(C(=O)[O-])c2c1)C(=O)OC(C)(C)C (3D coordinates assigned)
C[C@@H](C(=O)[O-])N(CCCc1ccc2cc(C(N)=O)n(C(=O)[O-])c2c1)C(=O)OC(C)(C)C (optimized conformer: 85.88276714815643 kcal/mol)

>  <smiles>  (65) 
CC(C(=O)O)N(CCCc1ccc2cc(C(N)=O)n(C(=O)O)c2c1)C(=O)OC(C)(C)C

>  <score_type>  (65) 
oracle

>  <origin>  (65) 
adg

>  <m_score__min__energy>  (65) 
-8.1099999999999994

>  <m_primary>  (65) 
energy

$$$$
66:0
     RDKit          3D

 39 40  0  0  0  0  0  0  0  0999 V2000
  138.3220  149.2150  130.0910 C   0  0  0  0  0  0  0  0  0  0  0  0
  139.4860  148.8990  130.9240 N   0  0  0  0  0  0  0  0  0  0  0  0
  140.2290  147.6530  130.7070 C   0  0  0  0  0  0  0  0  0  0  0  0
  139.8840  149.8300  131.9550 C   0  0  0  0  0  0  0  0  0  0  0  0
  139.2360  150.8990  132.1180 O   0  0  0  0  0  0  0  0  0  0  0  0
  141.0360  149.5460  132.8740 C   0  0  0  0  0  0  0  0  0  0  0  0
  141.7130  150.7620  133.1680 O   0  0  0  0  0  0  0  0  0  0  0  0
  142.9840  151.0610  132.6730 C   0  0  0  0  0  0  0  0  0  0  0  0
  143.6320  150.1950  132.0230 O   0  0  0  0  0  0  0  0  0  0  0  0
  143.5550  152.3600  132.9050 N   0  0  0  0  0  0  0  0  0  0  0  0
  142.9080  153.4910  133.3030 C   0  0  0  0  0  0  0  0  0  0  0  0
  141.4450  153.6540  133.4210 C   0  0  0  0  0  0  0  0  0  0  0  0
  140.5480  152.8940  132.6110 N   0  0  0  0  0  0  0  0  0  0  0  0
  140.9800  154.5200  134.2110 O   0  0  0  0  0  0  0  0  0  0  0  0
  143.8140  154.5220  133.5340 C   0  0  0  0  0  0  0  0  0  0  0  0
  145.0490  153.9890  133.2490 C   0  0  0  0  0  0  0  0  0  0  0  0
  146.3090  154.5760  133.3060 C   0  0  0  0  0  0  0  0  0  0  0  0
  147.4220  153.7810  132.9790 C   0  0  0  0  0  0  0  0  0  0  0  0
  147.2610  152.4160  132.6310 C   0  0  0  0  0  0  0  0  0  0  0  0
  148.4580  151.5830  132.2460 C   0  0  0  0  0  0  0  0  0  0  0  0
  148.0760  150.6500  131.3010 F   0  0  0  0  0  0  0  0  0  0  0  0
  148.9690  150.9230  133.3510 F   0  0  0  0  0  0  0  0  0  0  0  0
  149.4580  152.3780  131.7150 F   0  0  0  0  0  0  0  0  0  0  0  0
  145.9600  151.8620  132.5660 C   0  0  0  0  0  0  0  0  0  0  0  0
  144.8680  152.6820  132.8750 C   0  0  0  0  0  0  0  0  0  0  0  0
  137.4621  149.4484  130.7360 H   0  0  0  0  0  0  0  0  0  0  0  0
  138.5505  150.0836  129.4560 H   0  0  0  0  0  0  0  0  0  0  0  0
  138.0799  148.3501  129.4560 H   0  0  0  0  0  0  0  0  0  0  0  0
  140.4933  147.2098  131.6784 H   0  0  0  0  0  0  0  0  0  0  0  0
  139.6040  146.9474  130.1399 H   0  0  0  0  0  0  0  0  0  0  0  0
  141.1468  147.8674  130.1399 H   0  0  0  0  0  0  0  0  0  0  0  0
  140.6607  149.0995  133.8066 H   0  0  0  0  0  0  0  0  0  0  0  0
  141.7310  148.8452  132.3884 H   0  0  0  0  0  0  0  0  0  0  0  0
  139.5160  152.9940  132.7360 H   0  0  0  0  0  0  0  0  0  0  0  0
  140.9000  152.2960  131.8310 H   0  0  0  0  0  0  0  0  0  0  0  0
  143.5900  155.5445  133.8722 H   0  0  0  0  0  0  0  0  0  0  0  0
  146.4309  155.6295  133.5979 H   0  0  0  0  0  0  0  0  0  0  0  0
  148.4291  154.2233  132.9934 H   0  0  0  0  0  0  0  0  0  0  0  0
  145.8103  150.8107  132.2791 H   0  0  0  0  0  0  0  0  0  0  0  0
  1  2  1  0
  2  3  1  0
  2  4  1  0
  4  5  2  0
  4  6  1  0
  6  7  1  0
  7  8  1  0
  8  9  2  0
  8 10  1  0
 10 11  1  0
 11 12  1  0
 12 13  1  0
 12 14  2  0
 11 15  2  0
 15 16  1  0
 16 17  2  0
 17 18  1  0
 18 19  2  0
 19 20  1  0
 20 21  1  0
 20 22  1  0
 20 23  1  0
 19 24  1  0
 24 25  2  0
 25 10  1  0
 25 16  1  0
  1 26  1  0
  1 27  1  0
  1 28  1  0
  3 29  1  0
  3 30  1  0
  3 31  1  0
  6 32  1  0
  6 33  1  0
 13 34  1  0
 13 35  1  0
 15 36  1  0
 17 37  1  0
 18 38  1  0
 24 39  1  0
M  END
>  <UniqueID>  (66) 
65

>  <SMILES>  (66) 
CN(C)C(=O)COC(=O)n1c(C(N)=O)cc2ccc(C(F)(F)F)cc21

>  <Energy>  (66) 
73.24884101440955

>  <Genealogy>  (66) 
CN(C)C(=O)COC(=O)n1c(C(N)=O)cc2ccc(C(F)(F)F)cc21 (3D coordinates assigned)
CN(C)C(=O)COC(=O)n1c(C(N)=O)cc2ccc(C(F)(F)F)cc21 (optimized conformer: 73.24884101440955 kcal/mol)

>  <smiles>  (66) 
CN(C)C(=O)COC(=O)n1c(C(N)=O)cc2ccc(C(F)(F)F)cc21

>  <score_type>  (66) 
oracle

>  <origin>  (66) 
adg

>  <m_score__min__energy>  (66) 
-6.4299999999999997

>  <m_primary>  (66) 
energy

$$$$
67:0
     RDKit          3D

 45 47  0  0  0  0  0  0  0  0999 V2000
  144.7980  157.5130  132.3190 H   0  0  0  0  0  0  0  0  0  0  0  0
  144.1440  156.9200  132.8760 N   0  0  0  0  0  0  0  0  0  0  0  0
  144.6310  156.0350  133.8810 C   0  0  0  0  0  0  0  0  0  0  0  0
  144.2190  156.1620  135.0660 O   0  0  0  0  0  0  0  0  0  0  0  0
  145.5620  154.9400  133.5450 C   0  0  0  0  0  0  0  0  0  0  0  0
  145.1480  153.7190  133.0130 C   0  0  0  0  0  0  0  0  0  0  0  0
  144.1148  153.3833  132.8402 H   0  0  0  0  0  0  0  0  0  0  0  0
  146.3060  153.0230  132.7500 C   0  0  0  0  0  0  0  0  0  0  0  0
  146.4830  151.7500  132.2180 C   0  0  0  0  0  0  0  0  0  0  0  0
  145.6207  151.1374  131.9159 H   0  0  0  0  0  0  0  0  0  0  0  0
  147.7960  151.2700  132.0780 C   0  0  0  0  0  0  0  0  0  0  0  0
  147.9687  150.2683  131.6576 H   0  0  0  0  0  0  0  0  0  0  0  0
  148.9000  152.0660  132.4740 C   0  0  0  0  0  0  0  0  0  0  0  0
  150.3020  151.5430  132.3410 C   0  0  0  0  0  0  0  0  0  0  0  0
  151.0029  152.3907  132.3310 H   0  0  0  0  0  0  0  0  0  0  0  0
  150.4210  150.8280  131.1630 F   0  0  0  0  0  0  0  0  0  0  0  0
  150.5960  150.7150  133.4090 F   0  0  0  0  0  0  0  0  0  0  0  0
  148.6820  153.3510  133.0170 C   0  0  0  0  0  0  0  0  0  0  0  0
  149.5260  153.9750  133.3460 H   0  0  0  0  0  0  0  0  0  0  0  0
  147.3630  153.8110  133.1260 C   0  0  0  0  0  0  0  0  0  0  0  0
  146.9230  154.9900  133.6200 N   0  0  0  0  0  0  0  0  0  0  0  0
  147.7390  156.0350  134.1740 C   0  0  0  0  0  0  0  0  0  0  0  0
  147.9810  156.0510  135.4110 O   0  0  0  0  0  0  0  0  0  0  0  0
  148.2900  157.0010  133.3190 O   0  0  0  0  0  0  0  0  0  0  0  0
  147.6280  158.1310  132.8170 C   0  0  0  0  0  0  0  0  0  0  0  0
  146.3870  158.3650  133.1310 N   0  0  0  0  0  0  0  0  0  0  0  0
  145.6920  159.4580  132.6630 O   0  0  0  0  0  0  0  0  0  0  0  0
  145.1100  160.3710  133.5410 C   0  0  0  0  0  0  0  0  0  0  0  0
  145.8040  161.2970  134.0430 O   0  0  0  0  0  0  0  0  0  0  0  0
  143.6850  160.2550  133.8820 C   0  0  0  0  0  0  0  0  0  0  0  0
  142.9350  161.2620  133.7620 O   0  0  0  0  0  0  0  0  0  0  0  0
  143.1470  159.0100  134.3470 N   0  0  0  0  0  0  0  0  0  0  0  0
  143.7700  158.1780  134.4470 H   0  0  0  0  0  0  0  0  0  0  0  0
  141.7370  158.8650  134.6910 C   0  0  0  0  0  0  0  0  0  0  0  0
  141.6259  158.8536  135.7853 H   0  0  0  0  0  0  0  0  0  0  0  0
  141.1690  159.7095  134.2736 H   0  0  0  0  0  0  0  0  0  0  0  0
  141.3528  157.9226  134.2736 H   0  0  0  0  0  0  0  0  0  0  0  0
  148.3830  159.0310  131.9220 C   0  0  0  0  0  0  0  0  0  0  0  0
  149.1260  158.6420  130.9110 O   0  0  0  0  0  0  0  0  0  0  0  0
  149.6470  159.7010  130.3370 C   0  0  0  0  0  0  0  0  0  0  0  0
  150.3145  159.6841  129.4628 H   0  0  0  0  0  0  0  0  0  0  0  0
  149.2300  160.8390  130.9970 C   0  0  0  0  0  0  0  0  0  0  0  0
  149.4952  161.8787  130.7548 H   0  0  0  0  0  0  0  0  0  0  0  0
  148.4140  160.4090  132.0210 C   0  0  0  0  0  0  0  0  0  0  0  0
  147.8950  161.0333  132.7632 H   0  0  0  0  0  0  0  0  0  0  0  0
  1  2  1  0
  2  3  1  0
  3  4  2  0
  3  5  1  0
  5  6  2  0
  6  7  1  0
  6  8  1  0
  8  9  2  0
  9 10  1  0
  9 11  1  0
 11 12  1  0
 11 13  2  0
 13 14  1  0
 14 15  1  0
 14 16  1  0
 14 17  1  0
 13 18  1  0
 18 19  1  0
 18 20  2  0
 20 21  1  0
 21 22  1  0
 22 23  2  0
 22 24  1  0
 24 25  1  0
 25 26  2  0
 26 27  1  0
 27 28  1  0
 28 29  2  0
 28 30  1  0
 30 31  2  0
 30 32  1  0
 32 33  1  0
 32 34  1  0
 34 35  1  0
 34 36  1  0
 34 37  1  0
 25 38  1  0
 38 39  1  0
 39 40  1  0
 40 41  1  0
 40 42  2  0
 42 43  1  0
 42 44  1  0
 44 45  1  0
 21  5  1  0
 44 38  2  0
 20  8  1  0
M  CHG  1   2  -1
M  END
>  <UniqueID>  (67) 
66

>  <SMILES>  (67) 
CNC(=O)C(=O)O/N=C(/OC(=O)n1c(C([NH-])=O)cc2ccc(C(F)F)cc21)c1ccco1

>  <Energy>  (67) 
106.57577321865575

>  <Genealogy>  (67) 
CNC(=O)C(=O)O/N=C(/OC(=O)n1c(C([NH-])=O)cc2ccc(C(F)F)cc21)c1ccco1 (protonated)
CNC(=O)C(=O)O/N=C(/OC(=O)n1c(C([NH-])=O)cc2ccc(C(F)F)cc21)c1ccco1 (cis-trans isomerization)
CNC(=O)C(=O)O/N=C(/OC(=O)n1c(C([NH-])=O)cc2ccc(C(F)F)cc21)c1ccco1 (3D coordinates assigned)
CNC(=O)C(=O)O/N=C(/OC(=O)n1c(C([NH-])=O)cc2ccc(C(F)F)cc21)c1ccco1 (optimized conformer: 106.57577321865575 kcal/mol)

>  <smiles>  (67) 
CNC(=O)C(=O)O/N=C(/OC(=O)n1c(C(N)=O)cc2ccc(C(F)F)cc21)c1ccco1

>  <score_type>  (67) 
oracle

>  <origin>  (67) 
adg

>  <m_score__min__energy>  (67) 
-7.5099999999999998

>  <m_primary>  (67) 
energy

$$$$
68:0
     RDKit          3D

 30 31  0  0  0  0  0  0  0  0999 V2000
  147.8690  160.4420  130.8010 C   0  0  0  0  0  0  0  0  0  0  0  0
  148.5060  159.6810  131.7020 C   0  0  0  0  0  0  0  0  0  0  0  0
  149.8430  159.1180  131.3830 C   0  0  0  0  0  0  0  0  0  0  0  0
  150.6400  159.7380  130.6300 O   0  0  0  0  0  0  0  0  0  0  0  0
  150.2310  157.8870  131.9000 O   0  0  0  0  0  0  0  0  0  0  0  0
  147.8780  159.4170  133.0220 C   0  0  0  0  0  0  0  0  0  0  0  0
  148.3020  160.0100  134.0500 O   0  0  0  0  0  0  0  0  0  0  0  0
  146.7860  158.4910  133.1520 N   0  0  0  0  0  0  0  0  0  0  0  0
  145.4820  158.7740  133.4270 C   0  0  0  0  0  0  0  0  0  0  0  0
  144.8900  160.1250  133.5210 C   0  0  0  0  0  0  0  0  0  0  0  0
  145.7020  161.2670  133.7820 N   0  0  0  0  0  0  0  0  0  0  0  0
  143.6530  160.2790  133.3390 O   0  0  0  0  0  0  0  0  0  0  0  0
  144.7470  157.5970  133.5570 C   0  0  0  0  0  0  0  0  0  0  0  0
  145.6500  156.5770  133.3560 C   0  0  0  0  0  0  0  0  0  0  0  0
  145.4650  155.1980  133.3700 C   0  0  0  0  0  0  0  0  0  0  0  0
  146.5860  154.3810  133.1450 C   0  0  0  0  0  0  0  0  0  0  0  0
  147.8690  154.9500  132.9350 C   0  0  0  0  0  0  0  0  0  0  0  0
  149.0560  154.0650  132.6540 C   0  0  0  0  0  0  0  0  0  0  0  0
  149.2320  153.1920  133.7110 F   0  0  0  0  0  0  0  0  0  0  0  0
  148.8600  153.3350  131.4940 F   0  0  0  0  0  0  0  0  0  0  0  0
  150.2050  154.8220  132.4990 F   0  0  0  0  0  0  0  0  0  0  0  0
  148.0110  156.3570  132.9070 C   0  0  0  0  0  0  0  0  0  0  0  0
  146.8740  157.1440  133.1180 C   0  0  0  0  0  0  0  0  0  0  0  0
  146.8788  160.8597  131.0356 H   0  0  0  0  0  0  0  0  0  0  0  0
  148.3364  160.6488  129.8270 H   0  0  0  0  0  0  0  0  0  0  0  0
  146.6540  161.3560  133.3610 H   0  0  0  0  0  0  0  0  0  0  0  0
  143.6728  157.5028  133.7742 H   0  0  0  0  0  0  0  0  0  0  0  0
  144.4720  154.7609  133.5515 H   0  0  0  0  0  0  0  0  0  0  0  0
  146.4676  153.2875  133.1315 H   0  0  0  0  0  0  0  0  0  0  0  0
  148.9914  156.8209  132.7238 H   0  0  0  0  0  0  0  0  0  0  0  0
  1  2  2  0
  2  3  1  0
  3  4  2  0
  3  5  1  0
  2  6  1  0
  6  7  2  0
  6  8  1  0
  8  9  1  0
  9 10  1  0
 10 11  1  0
 10 12  2  0
  9 13  2  0
 13 14  1  0
 14 15  2  0
 15 16  1  0
 16 17  2  0
 17 18  1  0
 18 19  1  0
 18 20  1  0
 18 21  1  0
 17 22  1  0
 22 23  2  0
 23  8  1  0
 23 14  1  0
  1 24  1  0
  1 25  1  0
 11 26  1  0
 13 27  1  0
 15 28  1  0
 16 29  1  0
 22 30  1  0
M  CHG  2   5  -1  11  -1
M  END
>  <UniqueID>  (68) 
67

>  <SMILES>  (68) 
C=C(C(=O)[O-])C(=O)n1c(C([NH-])=O)cc2ccc(C(F)(F)F)cc21

>  <Energy>  (68) 
72.3322732475355

>  <Genealogy>  (68) 
C=C(C(=O)[O-])C(=O)n1c(C([NH-])=O)cc2ccc(C(F)(F)F)cc21 (protonated)
C=C(C(=O)[O-])C(=O)n1c(C([NH-])=O)cc2ccc(C(F)(F)F)cc21 (3D coordinates assigned)
C=C(C(=O)[O-])C(=O)n1c(C([NH-])=O)cc2ccc(C(F)(F)F)cc21 (optimized conformer: 72.3322732475355 kcal/mol)

>  <smiles>  (68) 
C=C(C(=O)O)C(=O)n1c(C(N)=O)cc2ccc(C(F)(F)F)cc21

>  <score_type>  (68) 
oracle

>  <origin>  (68) 
adg

>  <m_score__min__energy>  (68) 
-5.9299999999999997

>  <m_primary>  (68) 
energy

$$$$
69:0
     RDKit          3D

 46 48  0  0  0  0  0  0  0  0999 V2000
  147.1180  151.0870  131.8710 C   0  0  0  0  0  0  0  0  0  0  0  0
  148.1110  151.6620  132.7980 N   0  0  1  0  0  0  0  0  0  0  0  0
  149.4510  151.2680  132.4190 C   0  0  0  0  0  0  0  0  0  0  0  0
  150.3380  151.0610  133.2910 O   0  0  0  0  0  0  0  0  0  0  0  0
  149.7730  151.1080  131.0760 O   0  0  0  0  0  0  0  0  0  0  0  0
  147.9540  153.1380  132.9550 C   0  0  0  0  0  0  0  0  0  0  0  0
  149.2350  153.9510  132.6310 C   0  0  0  0  0  0  0  0  0  0  0  0
  148.9100  155.4520  132.6070 C   0  0  0  0  0  0  0  0  0  0  0  0
  147.9730  155.8160  133.6810 N   0  0  0  0  0  0  0  0  0  0  0  0
  147.2230  157.0430  133.5930 C   0  0  0  0  0  0  0  0  0  0  0  0
  147.8960  158.2860  133.4760 C   0  0  0  0  0  0  0  0  0  0  0  0
  147.1740  159.4890  133.3900 C   0  0  0  0  0  0  0  0  0  0  0  0
  145.7850  159.4180  133.4100 C   0  0  0  0  0  0  0  0  0  0  0  0
  144.8430  160.4190  133.3520 C   0  0  0  0  0  0  0  0  0  0  0  0
  143.6090  159.7720  133.4060 C   0  0  0  0  0  0  0  0  0  0  0  0
  142.3120  160.4710  133.2950 C   0  0  0  0  0  0  0  0  0  0  0  0
  141.2030  159.8630  132.6370 N   0  0  0  0  0  0  0  0  0  0  0  0
  142.1880  161.6350  133.7600 O   0  0  0  0  0  0  0  0  0  0  0  0
  143.7860  158.4240  133.5020 N   0  0  0  0  0  0  0  0  0  0  0  0
  142.7830  157.4040  133.6310 C   0  0  0  0  0  0  0  0  0  0  0  0
  141.9740  157.2050  132.6850 O   0  0  0  0  0  0  0  0  0  0  0  0
  142.7190  156.5550  134.8280 C   0  0  0  0  0  0  0  0  0  0  0  0
  141.8410  156.7600  135.7080 O   0  0  0  0  0  0  0  0  0  0  0  0
  143.6300  155.5220  134.9980 O   0  0  0  0  0  0  0  0  0  0  0  0
  145.1200  158.2240  133.5000 C   0  0  0  0  0  0  0  0  0  0  0  0
  145.8100  157.0130  133.5990 C   0  0  0  0  0  0  0  0  0  0  0  0
  147.8060  154.9160  134.8300 C   0  0  0  0  0  0  0  0  0  0  0  0
  147.4090  153.5030  134.3670 C   0  0  0  0  0  0  0  0  0  0  0  0
  146.3072  150.6175  132.4473 H   0  0  0  0  0  0  0  0  0  0  0  0
  146.7031  151.8846  131.2372 H   0  0  0  0  0  0  0  0  0  0  0  0
  147.6032  150.3301  131.2372 H   0  0  0  0  0  0  0  0  0  0  0  0
  147.9120  151.2220  133.7290 H   0  0  0  0  0  0  0  0  0  0  0  0
  147.2123  153.4322  132.1979 H   0  0  0  0  0  0  0  0  0  0  0  0
  149.9958  153.7549  133.4009 H   0  0  0  0  0  0  0  0  0  0  0  0
  149.6166  153.6475  131.6450 H   0  0  0  0  0  0  0  0  0  0  0  0
  149.8418  156.0220  132.7367 H   0  0  0  0  0  0  0  0  0  0  0  0
  148.4386  155.6885  131.6417 H   0  0  0  0  0  0  0  0  0  0  0  0
  148.9955  158.3089  133.4523 H   0  0  0  0  0  0  0  0  0  0  0  0
  147.6913  160.4564  133.3094 H   0  0  0  0  0  0  0  0  0  0  0  0
  145.0249  161.5014  133.2785 H   0  0  0  0  0  0  0  0  0  0  0  0
  141.3460  159.1470  131.8910 H   0  0  0  0  0  0  0  0  0  0  0  0
  145.2669  156.0598  133.6796 H   0  0  0  0  0  0  0  0  0  0  0  0
  148.7543  154.8602  135.3847 H   0  0  0  0  0  0  0  0  0  0  0  0
  147.0072  155.3124  135.4740 H   0  0  0  0  0  0  0  0  0  0  0  0
  147.8032  152.7753  135.0916 H   0  0  0  0  0  0  0  0  0  0  0  0
  146.3109  153.4779  134.3072 H   0  0  0  0  0  0  0  0  0  0  0  0
  1  2  1  0
  2  3  1  0
  3  4  2  0
  3  5  1  0
  2  6  1  0
  6  7  1  0
  7  8  1  0
  8  9  1  0
  9 10  1  0
 10 11  2  0
 11 12  1  0
 12 13  2  0
 13 14  1  0
 14 15  2  0
 15 16  1  0
 16 17  1  0
 16 18  2  0
 15 19  1  0
 19 20  1  0
 20 21  2  0
 20 22  1  0
 22 23  2  0
 22 24  1  0
 19 25  1  0
 25 26  2  0
  9 27  1  0
 27 28  1  0
 28  6  1  0
 26 10  1  0
 25 13  1  0
  1 29  1  0
  1 30  1  0
  1 31  1  0
  2 32  1  1
  6 33  1  0
  7 34  1  0
  7 35  1  0
  8 36  1  0
  8 37  1  0
 11 38  1  0
 12 39  1  0
 14 40  1  0
 17 41  1  0
 26 42  1  0
 27 43  1  0
 27 44  1  0
 28 45  1  0
 28 46  1  0
M  CHG  4   2   1   5  -1  17  -1  24  -1
M  END
>  <UniqueID>  (69) 
68

>  <SMILES>  (69) 
C[N@@H+](C(=O)[O-])C1CCN(c2ccc3cc(C([NH-])=O)n(C(=O)C(=O)[O-])c3c2)CC1

>  <Energy>  (69) 
100.70988802235331

>  <Genealogy>  (69) 
C[NH+](C(=O)[O-])C1CCN(c2ccc3cc(C([NH-])=O)n(C(=O)C(=O)[O-])c3c2)CC1 (protonated)
C[N@@H+](C(=O)[O-])C1CCN(c2ccc3cc(C([NH-])=O)n(C(=O)C(=O)[O-])c3c2)CC1 (chirality)
C[N@@H+](C(=O)[O-])C1CCN(c2ccc3cc(C([NH-])=O)n(C(=O)C(=O)[O-])c3c2)CC1 (3D coordinates assigned)
C[N@@H+](C(=O)[O-])C1CCN(c2ccc3cc(C([NH-])=O)n(C(=O)C(=O)[O-])c3c2)CC1 (nonaromatic ring conformer: 100.70988802235331 kcal/mol)

>  <smiles>  (69) 
CN(C(=O)O)C1CCN(c2ccc3cc(C(N)=O)n(C(=O)C(=O)O)c3c2)CC1

>  <score_type>  (69) 
oracle

>  <origin>  (69) 
adg

>  <m_score__min__energy>  (69) 
-7.04

>  <m_primary>  (69) 
energy

$$$$
70:0
     RDKit          3D

 32 34  0  0  0  0  0  0  0  0999 V2000
  140.9810  160.0720  132.6860 N   0  0  0  0  0  0  0  0  0  0  0  0
  141.8320  160.0950  133.8290 C   0  0  0  0  0  0  0  0  0  0  0  0
  141.3680  160.4850  134.9350 O   0  0  0  0  0  0  0  0  0  0  0  0
  143.2270  159.6140  133.7490 C   0  0  0  0  0  0  0  0  0  0  0  0
  143.5650  158.2720  133.6010 C   0  0  0  0  0  0  0  0  0  0  0  0
  144.9350  158.2530  133.4740 C   0  0  0  0  0  0  0  0  0  0  0  0
  145.8030  157.1780  133.3030 C   0  0  0  0  0  0  0  0  0  0  0  0
  147.1790  157.4490  133.2250 C   0  0  0  0  0  0  0  0  0  0  0  0
  147.6600  158.7770  133.3360 C   0  0  0  0  0  0  0  0  0  0  0  0
  149.1350  159.0570  133.2280 C   0  0  0  0  0  0  0  0  0  0  0  0
  149.6680  158.6070  131.8670 C   0  0  0  0  0  0  0  0  0  0  0  0
  149.6560  159.7450  130.8970 C   0  0  0  0  0  0  0  0  0  0  0  0
  149.7320  159.5890  129.5610 N   0  0  0  0  0  0  0  0  0  0  0  0
  149.6270  160.8610  129.1280 C   0  0  0  0  0  0  0  0  0  0  0  0
  149.4820  161.7350  130.1400 N   0  0  0  0  0  0  0  0  0  0  0  0
  149.4950  161.0310  131.2580 N   0  0  0  0  0  0  0  0  0  0  0  0
  146.7480  159.8450  133.4970 C   0  0  0  0  0  0  0  0  0  0  0  0
  145.3810  159.5470  133.5530 C   0  0  0  0  0  0  0  0  0  0  0  0
  144.3430  160.3970  133.7250 N   0  0  0  0  0  0  0  0  0  0  0  0
  144.4270  161.8140  133.9390 C   0  0  0  0  0  0  0  0  0  0  0  0
  143.6150  162.5920  133.3740 O   0  0  0  0  0  0  0  0  0  0  0  0
  145.4230  162.3430  134.7510 O   0  0  0  0  0  0  0  0  0  0  0  0
  141.3320  159.7370  131.7620 H   0  0  0  0  0  0  0  0  0  0  0  0
  142.8821  157.4098  133.5883 H   0  0  0  0  0  0  0  0  0  0  0  0
  145.4229  156.1482  133.2312 H   0  0  0  0  0  0  0  0  0  0  0  0
  147.8896  156.6226  133.0764 H   0  0  0  0  0  0  0  0  0  0  0  0
  149.3078  160.1370  133.3452 H   0  0  0  0  0  0  0  0  0  0  0  0
  149.6612  158.5005  134.0176 H   0  0  0  0  0  0  0  0  0  0  0  0
  150.6992  158.2426  131.9847 H   0  0  0  0  0  0  0  0  0  0  0  0
  149.0235  157.8037  131.4807 H   0  0  0  0  0  0  0  0  0  0  0  0
  149.6565  161.1514  128.0674 H   0  0  0  0  0  0  0  0  0  0  0  0
  147.1030  160.8831  133.5762 H   0  0  0  0  0  0  0  0  0  0  0  0
  1  2  1  0
  2  3  2  0
  2  4  1  0
  4  5  2  0
  5  6  1  0
  6  7  2  0
  7  8  1  0
  8  9  2  0
  9 10  1  0
 10 11  1  0
 11 12  1  0
 12 13  2  0
 13 14  1  0
 14 15  2  0
 15 16  1  0
  9 17  1  0
 17 18  2  0
 18 19  1  0
 19 20  1  0
 20 21  2  0
 20 22  1  0
 19  4  1  0
 18  6  1  0
 16 12  1  0
  1 23  1  0
  5 24  1  0
  7 25  1  0
  8 26  1  0
 10 27  1  0
 10 28  1  0
 11 29  1  0
 11 30  1  0
 14 31  1  0
 17 32  1  0
M  CHG  3   1  -1  16  -1  22  -1
M  END
>  <UniqueID>  (70) 
69

>  <SMILES>  (70) 
[NH-]C(=O)c1cc2ccc(CCc3ncn[n-]3)cc2n1C(=O)[O-]

>  <Energy>  (70) 
102.0990932664912

>  <Genealogy>  (70) 
[NH-]C(=O)c1cc2ccc(CCc3ncn[n-]3)cc2n1C(=O)[O-] (protonated)
[NH-]C(=O)c1cc2ccc(CCc3ncn[n-]3)cc2n1C(=O)[O-] (3D coordinates assigned)
[NH-]C(=O)c1cc2ccc(CCc3ncn[n-]3)cc2n1C(=O)[O-] (optimized conformer: 102.0990932664912 kcal/mol)

>  <smiles>  (70) 
NC(=O)c1cc2ccc(CCc3ncn[nH]3)cc2n1C(=O)O

>  <score_type>  (70) 
oracle

>  <origin>  (70) 
adg

>  <m_score__min__energy>  (70) 
-7.5199999999999996

>  <m_primary>  (70) 
energy

$$$$
71:0
     RDKit          3D

 35 37  0  0  0  0  0  0  0  0999 V2000
  148.5480  157.4770  131.8530 N   0  0  0  0  0  0  0  0  0  0  0  0
  148.1270  158.4140  132.8470 C   0  0  0  0  0  0  0  0  0  0  0  0
  148.9950  159.0240  133.5260 O   0  0  0  0  0  0  0  0  0  0  0  0
  146.6950  158.6300  133.1360 C   0  0  0  0  0  0  0  0  0  0  0  0
  146.1150  159.8920  133.2180 C   0  0  0  0  0  0  0  0  0  0  0  0
  144.8010  159.6640  133.5570 C   0  0  0  0  0  0  0  0  0  0  0  0
  143.7570  160.5660  133.7280 C   0  0  0  0  0  0  0  0  0  0  0  0
  142.4840  160.0530  134.0180 C   0  0  0  0  0  0  0  0  0  0  0  0
  142.2660  158.6510  134.1590 C   0  0  0  0  0  0  0  0  0  0  0  0
  140.8530  158.0860  134.3730 C   0  0  1  0  0  0  0  0  0  0  0  0
  140.8980  156.5810  134.5720 C   0  0  0  0  0  0  0  0  0  0  0  0
  140.3710  155.8250  133.7690 O   0  0  0  0  0  0  0  0  0  0  0  0
  140.2130  158.6260  135.6420 C   0  0  0  0  0  0  0  0  0  0  0  0
  139.0950  158.1980  136.0370 O   0  0  0  0  0  0  0  0  0  0  0  0
  140.9150  159.5160  136.4490 O   0  0  0  0  0  0  0  0  0  0  0  0
  140.0430  158.4540  133.1350 C   0  0  0  0  0  0  0  0  0  0  0  0
  138.6510  158.3530  133.0740 C   0  0  0  0  0  0  0  0  0  0  0  0
  138.1520  158.9760  131.5970 S   0  0  0  0  0  0  0  0  0  0  0  0
  139.7050  159.3710  131.0990 C   0  0  0  0  0  0  0  0  0  0  0  0
  140.6120  159.0410  132.0430 N   0  0  0  0  0  0  0  0  0  0  0  0
  143.3560  157.7710  133.9220 C   0  0  0  0  0  0  0  0  0  0  0  0
  144.6200  158.3110  133.6580 C   0  0  0  0  0  0  0  0  0  0  0  0
  145.7760  157.6580  133.3970 N   0  0  0  0  0  0  0  0  0  0  0  0
  145.9560  156.2350  133.2990 C   0  0  0  0  0  0  0  0  0  0  0  0
  146.4230  155.7250  132.2470 O   0  0  0  0  0  0  0  0  0  0  0  0
  145.6160  155.4080  134.3620 O   0  0  0  0  0  0  0  0  0  0  0  0
  147.8650  156.8350  131.3960 H   0  0  0  0  0  0  0  0  0  0  0  0
  149.5630  157.3660  131.6360 H   0  0  0  0  0  0  0  0  0  0  0  0
  146.6023  160.8635  133.0483 H   0  0  0  0  0  0  0  0  0  0  0  0
  143.9242  161.6495  133.6386 H   0  0  0  0  0  0  0  0  0  0  0  0
  141.6379  160.7455  134.1389 H   0  0  0  0  0  0  0  0  0  0  0  0
  141.4121  156.1654  135.4512 H   0  0  0  0  0  0  0  0  0  0  0  0
  137.9973  157.9385  133.8556 H   0  0  0  0  0  0  0  0  0  0  0  0
  139.9510  159.8363  130.1331 H   0  0  0  0  0  0  0  0  0  0  0  0
  143.2086  156.6812  133.9456 H   0  0  0  0  0  0  0  0  0  0  0  0
  1  2  1  0
  2  3  2  0
  2  4  1  0
  4  5  2  0
  5  6  1  0
  6  7  2  0
  7  8  1  0
  8  9  2  0
  9 10  1  0
 10 11  1  1
 11 12  2  0
 10 13  1  0
 13 14  2  0
 13 15  1  0
 10 16  1  0
 16 17  2  0
 17 18  1  0
 18 19  1  0
 19 20  2  0
  9 21  1  0
 21 22  2  0
 22 23  1  0
 23 24  1  0
 24 25  2  0
 24 26  1  0
 23  4  1  0
 22  6  1  0
 20 16  1  0
  1 27  1  0
  1 28  1  0
  5 29  1  0
  7 30  1  0
  8 31  1  0
 11 32  1  0
 17 33  1  0
 19 34  1  0
 21 35  1  0
M  CHG  2  15  -1  26  -1
M  END
>  <UniqueID>  (71) 
70

>  <SMILES>  (71) 
NC(=O)c1cc2ccc([C@@](C=O)(C(=O)[O-])c3cscn3)cc2n1C(=O)[O-]

>  <Energy>  (71) 
115.77985351665711

>  <Genealogy>  (71) 
NC(=O)c1cc2ccc(C(C=O)(C(=O)[O-])c3cscn3)cc2n1C(=O)[O-] (protonated)
NC(=O)c1cc2ccc([C@@](C=O)(C(=O)[O-])c3cscn3)cc2n1C(=O)[O-] (chirality)
NC(=O)c1cc2ccc([C@@](C=O)(C(=O)[O-])c3cscn3)cc2n1C(=O)[O-] (3D coordinates assigned)
NC(=O)c1cc2ccc([C@@](C=O)(C(=O)[O-])c3cscn3)cc2n1C(=O)[O-] (optimized conformer: 115.77985351665711 kcal/mol)

>  <smiles>  (71) 
NC(=O)c1cc2ccc(C(C=O)(C(=O)O)c3cscn3)cc2n1C(=O)O

>  <score_type>  (71) 
oracle

>  <origin>  (71) 
adg

>  <m_score__min__energy>  (71) 
-7.7999999999999998

>  <m_primary>  (71) 
energy

$$$$
72:0
     RDKit          3D

 44 46  0  0  0  0  0  0  0  0999 V2000
  138.8350  159.9420  131.1500 C   0  0  0  0  0  0  0  0  0  0  0  0
  139.4520  159.1730  132.1760 O   0  0  0  0  0  0  0  0  0  0  0  0
  140.5240  159.6510  132.9330 C   0  0  0  0  0  0  0  0  0  0  0  0
  140.7740  160.8880  132.9800 O   0  0  0  0  0  0  0  0  0  0  0  0
  141.2990  158.7390  133.6550 O   0  0  0  0  0  0  0  0  0  0  0  0
  141.7690  158.9630  134.9850 C   0  0  1  0  0  0  0  0  0  0  0  0
  141.0810  157.9750  135.9170 C   0  0  0  0  0  0  0  0  0  0  0  0
  143.1770  158.7370  135.0420 O   0  0  0  0  0  0  0  0  0  0  0  0
  143.9410  158.2690  133.9670 C   0  0  0  0  0  0  0  0  0  0  0  0
  143.4830  157.3880  133.1920 O   0  0  0  0  0  0  0  0  0  0  0  0
  145.2390  158.8330  133.7210 N   0  0  0  0  0  0  0  0  0  0  0  0
  145.5760  160.1530  133.6810 C   0  0  0  0  0  0  0  0  0  0  0  0
  144.6960  161.2830  134.0450 C   0  0  0  0  0  0  0  0  0  0  0  0
  143.3140  161.2470  133.6930 N   0  0  0  0  0  0  0  0  0  0  0  0
  145.1580  162.2980  134.6280 O   0  0  0  0  0  0  0  0  0  0  0  0
  146.9150  160.3060  133.3300 C   0  0  0  0  0  0  0  0  0  0  0  0
  147.3950  159.0270  133.1620 C   0  0  0  0  0  0  0  0  0  0  0  0
  148.6650  158.5890  132.8010 C   0  0  0  0  0  0  0  0  0  0  0  0
  148.8760  157.2060  132.6750 C   0  0  0  0  0  0  0  0  0  0  0  0
  147.8180  156.2870  132.9020 C   0  0  0  0  0  0  0  0  0  0  0  0
  148.0220  154.8260  132.7640 C   0  0  0  0  0  0  0  0  0  0  0  0
  147.0500  153.9020  132.6240 N   0  0  0  0  0  0  0  0  0  0  0  0
  147.6330  152.7190  132.5320 N   0  0  0  0  0  0  0  0  0  0  0  0
  148.9540  152.9630  132.6240 C   0  0  0  0  0  0  0  0  0  0  0  0
  150.0040  151.9080  132.5500 C   0  0  0  0  0  0  0  0  0  0  0  0
  149.2000  154.2460  132.7620 O   0  0  0  0  0  0  0  0  0  0  0  0
  146.5410  156.7750  133.2680 C   0  0  0  0  0  0  0  0  0  0  0  0
  146.3660  158.1560  133.4020 C   0  0  0  0  0  0  0  0  0  0  0  0
  138.2080  160.7234  131.6042 H   0  0  0  0  0  0  0  0  0  0  0  0
  139.6105  160.4106  130.5263 H   0  0  0  0  0  0  0  0  0  0  0  0
  138.2095  159.2865  130.5263 H   0  0  0  0  0  0  0  0  0  0  0  0
  141.5482  159.9981  135.2847 H   0  0  0  0  0  0  0  0  0  0  0  0
  141.2781  158.2580  136.9615 H   0  0  0  0  0  0  0  0  0  0  0  0
  139.9969  157.9898  135.7314 H   0  0  0  0  0  0  0  0  0  0  0  0
  141.4710  156.9633  135.7314 H   0  0  0  0  0  0  0  0  0  0  0  0
  142.8030  160.3390  133.6190 H   0  0  0  0  0  0  0  0  0  0  0  0
  147.4705  161.2481  133.2122 H   0  0  0  0  0  0  0  0  0  0  0  0
  149.4803  159.3048  132.6195 H   0  0  0  0  0  0  0  0  0  0  0  0
  149.8721  156.8309  132.3974 H   0  0  0  0  0  0  0  0  0  0  0  0
  146.0180  154.0480  132.5900 H   0  0  0  0  0  0  0  0  0  0  0  0
  150.2987  151.6119  133.5676 H   0  0  0  0  0  0  0  0  0  0  0  0
  149.6076  151.0331  132.0139 H   0  0  0  0  0  0  0  0  0  0  0  0
  150.8808  152.3003  132.0139 H   0  0  0  0  0  0  0  0  0  0  0  0
  145.7041  156.0830  133.4433 H   0  0  0  0  0  0  0  0  0  0  0  0
  1  2  1  0
  2  3  1  0
  3  4  2  0
  3  5  1  0
  5  6  1  0
  6  7  1  0
  6  8  1  0
  8  9  1  0
  9 10  2  0
  9 11  1  0
 11 12  1  0
 12 13  1  0
 13 14  1  0
 13 15  2  0
 12 16  2  0
 16 17  1  0
 17 18  2  0
 18 19  1  0
 19 20  2  0
 20 21  1  0
 21 22  2  0
 22 23  1  0
 23 24  2  0
 24 25  1  0
 24 26  1  0
 20 27  1  0
 27 28  2  0
 28 11  1  0
 28 17  1  0
 26 21  1  0
  1 29  1  0
  1 30  1  0
  1 31  1  0
  6 32  1  1
  7 33  1  0
  7 34  1  0
  7 35  1  0
 14 36  1  0
 16 37  1  0
 18 38  1  0
 19 39  1  0
 22 40  1  0
 25 41  1  0
 25 42  1  0
 25 43  1  0
 27 44  1  0
M  CHG  2  14  -1  22   1
M  END
>  <UniqueID>  (72) 
71

>  <SMILES>  (72) 
COC(=O)O[C@@H](C)OC(=O)n1c(C([NH-])=O)cc2ccc(-c3[nH+]nc(C)o3)cc21

>  <Energy>  (72) 
113.69546659362877

>  <Genealogy>  (72) 
COC(=O)OC(C)OC(=O)n1c(C([NH-])=O)cc2ccc(-c3[nH+]nc(C)o3)cc21 (protonated)
COC(=O)O[C@@H](C)OC(=O)n1c(C([NH-])=O)cc2ccc(-c3[nH+]nc(C)o3)cc21 (chirality)
COC(=O)O[C@@H](C)OC(=O)n1c(C([NH-])=O)cc2ccc(-c3[nH+]nc(C)o3)cc21 (3D coordinates assigned)
COC(=O)O[C@@H](C)OC(=O)n1c(C([NH-])=O)cc2ccc(-c3[nH+]nc(C)o3)cc21 (optimized conformer: 113.69546659362877 kcal/mol)

>  <smiles>  (72) 
COC(=O)OC(C)OC(=O)n1c(C(N)=O)cc2ccc(-c3nnc(C)o3)cc21

>  <score_type>  (72) 
oracle

>  <origin>  (72) 
adg

>  <m_score__min__energy>  (72) 
-6.7300000000000004

>  <m_primary>  (72) 
energy

$$$$
73:0
     RDKit          3D

 38 39  0  0  0  0  0  0  0  0999 V2000
  142.2060  156.7920  138.7170 N   0  0  0  0  0  0  0  0  0  0  0  0
  141.5230  156.9420  137.4750 C   0  0  0  0  0  0  0  0  0  0  0  0
  140.8640  157.9920  137.2570 O   0  0  0  0  0  0  0  0  0  0  0  0
  141.6240  155.8840  136.4470 C   0  0  0  0  0  0  0  0  0  0  0  0
  141.5530  156.1300  135.0770 C   0  0  0  0  0  0  0  0  0  0  0  0
  141.6320  154.8930  134.4810 C   0  0  0  0  0  0  0  0  0  0  0  0
  141.6360  154.5510  133.1320 C   0  0  0  0  0  0  0  0  0  0  0  0
  141.7750  153.1930  132.7980 C   0  0  0  0  0  0  0  0  0  0  0  0
  141.9070  152.2100  133.8090 C   0  0  0  0  0  0  0  0  0  0  0  0
  142.1090  150.7690  133.4380 C   0  0  0  0  0  0  0  0  0  0  0  0
  140.7900  150.1310  133.1450 C   0  0  0  0  0  0  0  0  0  0  0  0
  140.2330  149.4100  134.0190 O   0  0  0  0  0  0  0  0  0  0  0  0
  140.2080  150.3030  131.8850 O   0  0  0  0  0  0  0  0  0  0  0  0
  138.8550  149.9600  131.6020 C   0  0  0  0  0  0  0  0  0  0  0  0
  138.7740  149.4170  130.3080 O   0  0  0  0  0  0  0  0  0  0  0  0
  139.4990  147.8310  130.3690 P   0  0  0  0  0  0  0  0  0  0  0  0
  138.7130  146.5980  129.8510 O   0  0  0  0  0  0  0  0  0  0  0  0
  141.9150  152.5980  135.1680 C   0  0  0  0  0  0  0  0  0  0  0  0
  141.7500  153.9550  135.4730 C   0  0  0  0  0  0  0  0  0  0  0  0
  141.7360  154.5460  136.6890 N   0  0  0  0  0  0  0  0  0  0  0  0
  141.9130  153.9020  137.9640 C   0  0  0  0  0  0  0  0  0  0  0  0
  143.0800  153.6690  138.3800 O   0  0  0  0  0  0  0  0  0  0  0  0
  140.7730  153.4030  138.7630 C   0  0  0  0  0  0  0  0  0  0  0  0
  140.4200  152.1180  138.9190 C   0  0  0  0  0  0  0  0  0  0  0  0
  140.9630  150.9770  138.1610 C   0  0  0  0  0  0  0  0  0  0  0  0
  141.9070  150.2790  138.6160 O   0  0  0  0  0  0  0  0  0  0  0  0
  140.4840  150.7220  136.8830 O   0  0  0  0  0  0  0  0  0  0  0  0
  142.8670  155.9980  138.8730 H   0  0  0  0  0  0  0  0  0  0  0  0
  141.4547  157.1057  134.5786 H   0  0  0  0  0  0  0  0  0  0  0  0
  141.5336  155.3195  132.3517 H   0  0  0  0  0  0  0  0  0  0  0  0
  141.7813  152.8904  131.7405 H   0  0  0  0  0  0  0  0  0  0  0  0
  142.7500  150.7081  132.5462 H   0  0  0  0  0  0  0  0  0  0  0  0
  142.5884  150.2424  134.2763 H   0  0  0  0  0  0  0  0  0  0  0  0
  138.5031  149.2185  132.3343 H   0  0  0  0  0  0  0  0  0  0  0  0
  138.2261  150.8604  131.6637 H   0  0  0  0  0  0  0  0  0  0  0  0
  142.0475  151.8528  135.9662 H   0  0  0  0  0  0  0  0  0  0  0  0
  140.1571  154.1554  139.2773 H   0  0  0  0  0  0  0  0  0  0  0  0
  139.6576  151.8966  139.6804 H   0  0  0  0  0  0  0  0  0  0  0  0
  1  2  1  0
  2  3  2  0
  2  4  1  0
  4  5  2  0
  5  6  1  0
  6  7  2  0
  7  8  1  0
  8  9  2  0
  9 10  1  0
 10 11  1  0
 11 12  2  0
 11 13  1  0
 13 14  1  0
 14 15  1  0
 15 16  1  0
 16 17  2  0
  9 18  1  0
 18 19  2  0
 19 20  1  0
 20 21  1  0
 21 22  2  0
 21 23  1  0
 23 24  2  3
 24 25  1  0
 25 26  2  0
 25 27  1  0
 20  4  1  0
 19  6  1  0
  1 28  1  0
  5 29  1  0
  7 30  1  0
  8 31  1  0
 10 32  1  0
 10 33  1  0
 14 34  1  0
 14 35  1  0
 18 36  1  0
 23 37  1  0
 24 38  1  0
M  CHG  2   1  -1  27  -1
M  END
>  <UniqueID>  (73) 
72

>  <SMILES>  (73) 
[NH-]C(=O)c1cc2ccc(CC(=O)OCOP=O)cc2n1C(=O)C=CC(=O)[O-]

>  <Energy>  (73) 
78.65071628044879

>  <Genealogy>  (73) 
[NH-]C(=O)c1cc2ccc(CC(=O)OCOP=O)cc2n1C(=O)C=CC(=O)[O-] (protonated)
[NH-]C(=O)c1cc2ccc(CC(=O)OCOP=O)cc2n1C(=O)C=CC(=O)[O-] (3D coordinates assigned)
[NH-]C(=O)c1cc2ccc(CC(=O)OCOP=O)cc2n1C(=O)C=CC(=O)[O-] (optimized conformer: 78.65071628044879 kcal/mol)

>  <smiles>  (73) 
NC(=O)c1cc2ccc(CC(=O)OCOP=O)cc2n1C(=O)C=CC(=O)O

>  <score_type>  (73) 
oracle

>  <origin>  (73) 
adg

>  <m_score__min__energy>  (73) 
-6.9199999999999999

>  <m_primary>  (73) 
energy

$$$$
74:0
     RDKit          3D

 40 42  0  0  0  0  0  0  0  0999 V2000
  146.0940  159.3780  132.8570 C   0  0  0  0  0  0  0  0  0  0  0  0
  144.7970  158.8660  133.3130 N   0  0  0  0  0  0  0  0  0  0  0  0
  143.7550  159.8200  133.7140 C   0  0  0  0  0  0  0  0  0  0  0  0
  144.5480  157.4380  133.3750 C   0  0  0  0  0  0  0  0  0  0  0  0
  145.6280  156.5090  133.3550 C   0  0  0  0  0  0  0  0  0  0  0  0
  145.3960  155.1260  133.4240 C   0  0  0  0  0  0  0  0  0  0  0  0
  144.0810  154.6880  133.5220 C   0  0  0  0  0  0  0  0  0  0  0  0
  143.5730  153.4090  133.5900 C   0  0  0  0  0  0  0  0  0  0  0  0
  142.1890  153.5640  133.6690 C   0  0  0  0  0  0  0  0  0  0  0  0
  141.2250  152.4510  133.8160 C   0  0  0  0  0  0  0  0  0  0  0  0
  140.1490  152.2840  132.8900 N   0  0  0  0  0  0  0  0  0  0  0  0
  141.3540  151.6240  134.7570 O   0  0  0  0  0  0  0  0  0  0  0  0
  141.8620  154.8870  133.6640 N   0  0  0  0  0  0  0  0  0  0  0  0
  140.5460  155.4620  133.6680 C   0  0  0  0  0  0  0  0  0  0  0  0
  139.6500  154.9590  132.9400 O   0  0  0  0  0  0  0  0  0  0  0  0
  140.2350  156.6600  134.4710 C   0  0  0  0  0  0  0  0  0  0  0  0
  140.6800  156.8920  135.7570 C   0  0  0  0  0  0  0  0  0  0  0  0
  140.1490  158.1090  136.1300 C   0  0  0  0  0  0  0  0  0  0  0  0
  139.4410  158.6070  135.1420 O   0  0  0  0  0  0  0  0  0  0  0  0
  139.4750  157.7730  134.1270 C   0  0  0  0  0  0  0  0  0  0  0  0
  138.8000  158.0630  132.8230 C   0  0  0  0  0  0  0  0  0  0  0  0
  139.8390  159.0970  131.8150 Cl  0  0  0  0  0  0  0  0  0  0  0  0
  143.0280  155.5590  133.5600 C   0  0  0  0  0  0  0  0  0  0  0  0
  143.2230  156.9400  133.4680 C   0  0  0  0  0  0  0  0  0  0  0  0
  146.7180  159.6243  133.7287 H   0  0  0  0  0  0  0  0  0  0  0  0
  146.5980  158.6114  132.2502 H   0  0  0  0  0  0  0  0  0  0  0  0
  145.9384  160.2822  132.2502 H   0  0  0  0  0  0  0  0  0  0  0  0
  143.7037  159.8670  134.8118 H   0  0  0  0  0  0  0  0  0  0  0  0
  143.9969  160.8163  133.3153 H   0  0  0  0  0  0  0  0  0  0  0  0
  142.7839  159.4914  133.3153 H   0  0  0  0  0  0  0  0  0  0  0  0
  146.6606  156.8814  133.2843 H   0  0  0  0  0  0  0  0  0  0  0  0
  146.2309  154.4101  133.4011 H   0  0  0  0  0  0  0  0  0  0  0  0
  144.1389  152.4657  133.5834 H   0  0  0  0  0  0  0  0  0  0  0  0
  139.9640  152.9800  132.1350 H   0  0  0  0  0  0  0  0  0  0  0  0
  139.4980  151.4730  132.9860 H   0  0  0  0  0  0  0  0  0  0  0  0
  141.3267  156.2389  136.3614 H   0  0  0  0  0  0  0  0  0  0  0  0
  140.2963  158.5903  137.1081 H   0  0  0  0  0  0  0  0  0  0  0  0
  138.6058  157.1175  132.2954 H   0  0  0  0  0  0  0  0  0  0  0  0
  137.8511  158.5848  133.0164 H   0  0  0  0  0  0  0  0  0  0  0  0
  142.3648  157.6280  133.4677 H   0  0  0  0  0  0  0  0  0  0  0  0
  1  2  1  0
  2  3  1  0
  2  4  1  0
  4  5  2  0
  5  6  1  0
  6  7  2  0
  7  8  1  0
  8  9  2  0
  9 10  1  0
 10 11  1  0
 10 12  2  0
  9 13  1  0
 13 14  1  0
 14 15  2  0
 14 16  1  0
 16 17  1  0
 17 18  2  0
 18 19  1  0
 19 20  1  0
 20 21  1  0
 21 22  1  0
 13 23  1  0
 23 24  2  0
 24  4  1  0
 23  7  1  0
 20 16  2  0
  1 25  1  0
  1 26  1  0
  1 27  1  0
  3 28  1  0
  3 29  1  0
  3 30  1  0
  5 31  1  0
  6 32  1  0
  8 33  1  0
 11 34  1  0
 11 35  1  0
 17 36  1  0
 18 37  1  0
 21 38  1  0
 21 39  1  0
 24 40  1  0
M  END
>  <UniqueID>  (74) 
73

>  <SMILES>  (74) 
CN(C)c1ccc2cc(C(N)=O)n(C(=O)c3ccoc3CCl)c2c1

>  <Energy>  (74) 
107.72139890826836

>  <Genealogy>  (74) 
CN(C)c1ccc2cc(C(N)=O)n(C(=O)c3ccoc3CCl)c2c1 (3D coordinates assigned)
CN(C)c1ccc2cc(C(N)=O)n(C(=O)c3ccoc3CCl)c2c1 (optimized conformer: 107.72139890826836 kcal/mol)

>  <smiles>  (74) 
CN(C)c1ccc2cc(C(N)=O)n(C(=O)c3ccoc3CCl)c2c1

>  <score_type>  (74) 
oracle

>  <origin>  (74) 
adg

>  <m_score__min__energy>  (74) 
-7.1299999999999999

>  <m_primary>  (74) 
energy

$$$$
75:0
     RDKit          3D

 32 33  0  0  0  0  0  0  0  0999 V2000
  142.6920  160.7370  133.9650 N   0  0  0  0  0  0  0  0  0  0  0  0
  144.0450  161.1470  133.7510 C   0  0  0  0  0  0  0  0  0  0  0  0
  144.3140  162.3760  133.7170 O   0  0  0  0  0  0  0  0  0  0  0  0
  145.1240  160.1440  133.6080 C   0  0  0  0  0  0  0  0  0  0  0  0
  146.4660  160.4690  133.4100 C   0  0  0  0  0  0  0  0  0  0  0  0
  147.1090  159.2660  133.2310 C   0  0  0  0  0  0  0  0  0  0  0  0
  148.4570  158.9980  133.0170 C   0  0  0  0  0  0  0  0  0  0  0  0
  148.8510  157.6550  132.9000 C   0  0  0  0  0  0  0  0  0  0  0  0
  147.8980  156.6080  132.9880 C   0  0  0  0  0  0  0  0  0  0  0  0
  148.3420  155.1690  132.9250 C   0  0  0  0  0  0  0  0  0  0  0  0
  147.4210  154.4040  132.2310 F   0  0  0  0  0  0  0  0  0  0  0  0
  148.4640  154.6730  134.2100 F   0  0  0  0  0  0  0  0  0  0  0  0
  149.5640  155.0630  132.2830 F   0  0  0  0  0  0  0  0  0  0  0  0
  146.5400  156.9230  133.2310 C   0  0  0  0  0  0  0  0  0  0  0  0
  146.1730  158.2700  133.3240 C   0  0  0  0  0  0  0  0  0  0  0  0
  144.9490  158.7930  133.5560 N   0  0  0  0  0  0  0  0  0  0  0  0
  143.7310  158.0580  133.7630 C   0  0  0  0  0  0  0  0  0  0  0  0
  143.1860  157.4600  132.7960 O   0  0  0  0  0  0  0  0  0  0  0  0
  143.1460  158.0280  135.0340 O   0  0  0  0  0  0  0  0  0  0  0  0
  141.8490  157.4980  135.2920 C   0  0  0  0  0  0  0  0  0  0  0  0
  140.5710  158.7330  134.9020 P   0  0  0  0  0  0  0  0  0  0  0  0
  140.4770  158.9050  133.4040 O   0  0  0  0  0  0  0  0  0  0  0  0
  139.0810  158.1990  135.4980 O   0  0  0  0  0  0  0  0  0  0  0  0
  140.9570  160.2160  135.6140 O   0  0  0  0  0  0  0  0  0  0  0  0
  142.4200  159.7300  133.9450 H   0  0  0  0  0  0  0  0  0  0  0  0
  141.9440  161.4530  134.1050 H   0  0  0  0  0  0  0  0  0  0  0  0
  146.9146  161.4733  133.3993 H   0  0  0  0  0  0  0  0  0  0  0  0
  149.1920  159.8130  132.9417 H   0  0  0  0  0  0  0  0  0  0  0  0
  149.9116  157.4121  132.7381 H   0  0  0  0  0  0  0  0  0  0  0  0
  145.7896  156.1267  133.3443 H   0  0  0  0  0  0  0  0  0  0  0  0
  141.6919  156.6047  134.6696 H   0  0  0  0  0  0  0  0  0  0  0  0
  141.7767  157.2335  136.3573 H   0  0  0  0  0  0  0  0  0  0  0  0
  1  2  1  0
  2  3  2  0
  2  4  1  0
  4  5  2  0
  5  6  1  0
  6  7  2  0
  7  8  1  0
  8  9  2  0
  9 10  1  0
 10 11  1  0
 10 12  1  0
 10 13  1  0
  9 14  1  0
 14 15  2  0
 15 16  1  0
 16 17  1  0
 17 18  2  0
 17 19  1  0
 19 20  1  0
 20 21  1  0
 21 22  2  0
 21 23  1  0
 21 24  1  0
 16  4  1  0
 15  6  1  0
  1 25  1  0
  1 26  1  0
  5 27  1  0
  7 28  1  0
  8 29  1  0
 14 30  1  0
 20 31  1  0
 20 32  1  0
M  CHG  2  23  -1  24  -1
M  END
>  <UniqueID>  (75) 
74

>  <SMILES>  (75) 
NC(=O)c1cc2ccc(C(F)(F)F)cc2n1C(=O)OCP(=O)([O-])[O-]

>  <Energy>  (75) 
66.60162239859352

>  <Genealogy>  (75) 
NC(=O)c1cc2ccc(C(F)(F)F)cc2n1C(=O)OCP(=O)([O-])[O-] (protonated)
NC(=O)c1cc2ccc(C(F)(F)F)cc2n1C(=O)OCP(=O)([O-])[O-] (3D coordinates assigned)
NC(=O)c1cc2ccc(C(F)(F)F)cc2n1C(=O)OCP(=O)([O-])[O-] (optimized conformer: 66.60162239859352 kcal/mol)

>  <smiles>  (75) 
NC(=O)c1cc2ccc(C(F)(F)F)cc2n1C(=O)OCP(=O)(O)O

>  <score_type>  (75) 
oracle

>  <origin>  (75) 
adg

>  <m_score__min__energy>  (75) 
-6.04

>  <m_primary>  (75) 
energy

$$$$
76:0
     RDKit          3D

 43 44  0  0  0  0  0  0  0  0999 V2000
  139.1040  157.6060  133.0850 C   0  0  0  0  0  0  0  0  0  0  0  0
  139.1230  158.4530  134.2270 O   0  0  0  0  0  0  0  0  0  0  0  0
  139.7760  158.1020  135.4130 C   0  0  0  0  0  0  0  0  0  0  0  0
  139.1220  157.6770  136.4050 O   0  0  0  0  0  0  0  0  0  0  0  0
  141.2650  158.2650  135.5190 C   0  0  2  0  0  0  0  0  0  0  0  0
  141.6070  159.0120  136.8110 C   0  0  0  0  0  0  0  0  0  0  0  0
  141.7800  158.9920  134.3510 N   0  0  0  0  0  0  0  0  0  0  0  0
  143.1800  159.1290  134.0370 C   0  0  0  0  0  0  0  0  0  0  0  0
  143.7600  160.4230  134.0390 C   0  0  0  0  0  0  0  0  0  0  0  0
  145.1230  160.6060  133.7480 C   0  0  0  0  0  0  0  0  0  0  0  0
  145.8810  159.4790  133.4480 C   0  0  0  0  0  0  0  0  0  0  0  0
  147.2220  159.3640  133.1580 C   0  0  0  0  0  0  0  0  0  0  0  0
  147.4410  158.0020  132.9570 C   0  0  0  0  0  0  0  0  0  0  0  0
  148.7440  157.4370  132.5460 C   0  0  0  0  0  0  0  0  0  0  0  0
  149.0680  156.0890  132.8790 N   0  0  0  0  0  0  0  0  0  0  0  0
  149.5870  158.1410  131.9310 O   0  0  0  0  0  0  0  0  0  0  0  0
  146.2820  157.3050  133.1210 N   0  0  0  0  0  0  0  0  0  0  0  0
  146.0960  155.8820  133.0650 C   0  0  0  0  0  0  0  0  0  0  0  0
  146.5140  155.2330  132.0670 O   0  0  0  0  0  0  0  0  0  0  0  0
  145.4340  155.2270  134.1090 O   0  0  0  0  0  0  0  0  0  0  0  0
  145.8210  155.3400  135.4770 C   0  0  0  0  0  0  0  0  0  0  0  0
  147.3290  154.3720  135.7890 P   0  0  1  0  0  0  0  0  0  0  0  0
  148.3380  155.2310  136.5160 O   0  0  0  0  0  0  0  0  0  0  0  0
  146.9650  153.0150  136.7310 O   0  0  0  0  0  0  0  0  0  0  0  0
  147.9810  153.8680  134.3100 O   0  0  0  0  0  0  0  0  0  0  0  0
  145.3380  158.2220  133.4220 C   0  0  0  0  0  0  0  0  0  0  0  0
  143.9900  158.0080  133.7290 C   0  0  0  0  0  0  0  0  0  0  0  0
  139.0804  156.5549  133.4084 H   0  0  0  0  0  0  0  0  0  0  0  0
  138.2105  157.8241  132.4816 H   0  0  0  0  0  0  0  0  0  0  0  0
  140.0064  157.7838  132.4816 H   0  0  0  0  0  0  0  0  0  0  0  0
  141.7390  157.2727  135.5438 H   0  0  0  0  0  0  0  0  0  0  0  0
  141.3246  158.3952  137.6769 H   0  0  0  0  0  0  0  0  0  0  0  0
  142.6877  159.2149  136.8422 H   0  0  0  0  0  0  0  0  0  0  0  0
  141.0544  159.9626  136.8422 H   0  0  0  0  0  0  0  0  0  0  0  0
  141.0910  159.4380  133.7020 H   0  0  0  0  0  0  0  0  0  0  0  0
  143.1338  161.2969  134.2718 H   0  0  0  0  0  0  0  0  0  0  0  0
  145.5757  161.6085  133.7572 H   0  0  0  0  0  0  0  0  0  0  0  0
  147.9631  160.1746  133.0977 H   0  0  0  0  0  0  0  0  0  0  0  0
  148.3710  155.3230  132.7530 H   0  0  0  0  0  0  0  0  0  0  0  0
  146.0129  156.3970  135.7136 H   0  0  0  0  0  0  0  0  0  0  0  0
  145.0099  154.9529  136.1113 H   0  0  0  0  0  0  0  0  0  0  0  0
  147.7190  154.5740  133.6660 H   0  0  0  0  0  0  0  0  0  0  0  0
  143.5683  156.9920  133.7312 H   0  0  0  0  0  0  0  0  0  0  0  0
  1  2  1  0
  2  3  1  0
  3  4  2  0
  3  5  1  0
  5  6  1  0
  5  7  1  0
  7  8  1  0
  8  9  2  0
  9 10  1  0
 10 11  2  0
 11 12  1  0
 12 13  2  0
 13 14  1  0
 14 15  1  0
 14 16  2  0
 13 17  1  0
 17 18  1  0
 18 19  2  0
 18 20  1  0
 20 21  1  0
 21 22  1  0
 22 23  2  0
 22 24  1  1
 22 25  1  0
 17 26  1  0
 26 27  2  0
 27  8  1  0
 26 11  1  0
  1 28  1  0
  1 29  1  0
  1 30  1  0
  5 31  1  1
  6 32  1  0
  6 33  1  0
  6 34  1  0
  7 35  1  0
  9 36  1  0
 10 37  1  0
 12 38  1  0
 15 39  1  0
 21 40  1  0
 21 41  1  0
 25 42  1  0
 27 43  1  0
M  CHG  2  15  -1  24  -1
M  END
>  <UniqueID>  (76) 
75

>  <SMILES>  (76) 
COC(=O)[C@H](C)Nc1ccc2cc(C([NH-])=O)n(C(=O)OC[P@@](=O)([O-])O)c2c1

>  <Energy>  (76) 
70.17391200224284

>  <Genealogy>  (76) 
COC(=O)C(C)Nc1ccc2cc(C([NH-])=O)n(C(=O)OCP(=O)([O-])O)c2c1 (protonated)
COC(=O)[C@H](C)Nc1ccc2cc(C([NH-])=O)n(C(=O)OC[P@@](=O)([O-])O)c2c1 (chirality)
COC(=O)[C@H](C)Nc1ccc2cc(C([NH-])=O)n(C(=O)OC[P@@](=O)([O-])O)c2c1 (3D coordinates assigned)
COC(=O)[C@H](C)Nc1ccc2cc(C([NH-])=O)n(C(=O)OC[P@@](=O)([O-])O)c2c1 (optimized conformer: 70.17391200224284 kcal/mol)

>  <smiles>  (76) 
COC(=O)C(C)Nc1ccc2cc(C(N)=O)n(C(=O)OCP(=O)(O)O)c2c1

>  <score_type>  (76) 
oracle

>  <origin>  (76) 
adg

>  <m_score__min__energy>  (76) 
-6.2300000000000004

>  <m_primary>  (76) 
energy

$$$$
77:0
     RDKit          3D

 30 31  0  0  0  0  0  0  0  0999 V2000
  142.9770  160.8890  133.4150 N   0  0  0  0  0  0  0  0  0  0  0  0
  144.3520  161.0850  133.7360 C   0  0  0  0  0  0  0  0  0  0  0  0
  144.7340  162.2120  134.1490 O   0  0  0  0  0  0  0  0  0  0  0  0
  145.3410  160.0050  133.5400 C   0  0  0  0  0  0  0  0  0  0  0  0
  146.6960  160.2390  133.3150 C   0  0  0  0  0  0  0  0  0  0  0  0
  147.2480  158.9990  133.0930 C   0  0  0  0  0  0  0  0  0  0  0  0
  148.5670  158.6430  132.8270 C   0  0  0  0  0  0  0  0  0  0  0  0
  148.8610  157.2780  132.6670 C   0  0  0  0  0  0  0  0  0  0  0  0
  147.8410  156.3010  132.7830 C   0  0  0  0  0  0  0  0  0  0  0  0
  148.1800  154.8460  132.6270 C   0  0  0  0  0  0  0  0  0  0  0  0
  149.5150  154.7120  132.2920 F   0  0  0  0  0  0  0  0  0  0  0  0
  147.9390  154.1830  133.8160 F   0  0  0  0  0  0  0  0  0  0  0  0
  146.5140  156.7010  133.0560 C   0  0  0  0  0  0  0  0  0  0  0  0
  146.2460  158.0690  133.1910 C   0  0  0  0  0  0  0  0  0  0  0  0
  145.0680  158.6700  133.4690 N   0  0  0  0  0  0  0  0  0  0  0  0
  143.8180  158.0090  133.7200 C   0  0  0  0  0  0  0  0  0  0  0  0
  143.6180  157.4380  134.8270 O   0  0  0  0  0  0  0  0  0  0  0  0
  142.8380  157.9790  132.7240 O   0  0  0  0  0  0  0  0  0  0  0  0
  141.5290  157.4710  132.9480 C   0  0  0  0  0  0  0  0  0  0  0  0
  140.5650  158.6070  133.0110 C   0  0  0  0  0  0  0  0  0  0  0  0
  140.6570  159.5630  132.1960 O   0  0  0  0  0  0  0  0  0  0  0  0
  139.5260  158.5860  133.9320 O   0  0  0  0  0  0  0  0  0  0  0  0
  142.6830  160.1490  132.7400 H   0  0  0  0  0  0  0  0  0  0  0  0
  147.2142  161.2093  133.3149 H   0  0  0  0  0  0  0  0  0  0  0  0
  149.3548  159.4063  132.7446 H   0  0  0  0  0  0  0  0  0  0  0  0
  149.8929  156.9649  132.4496 H   0  0  0  0  0  0  0  0  0  0  0  0
  147.5563  154.4133  131.8309 H   0  0  0  0  0  0  0  0  0  0  0  0
  145.7110  155.9564  133.1600 H   0  0  0  0  0  0  0  0  0  0  0  0
  141.2501  156.7973  132.1243 H   0  0  0  0  0  0  0  0  0  0  0  0
  141.5064  156.9147  133.8967 H   0  0  0  0  0  0  0  0  0  0  0  0
  1  2  1  0
  2  3  2  0
  2  4  1  0
  4  5  2  0
  5  6  1  0
  6  7  2  0
  7  8  1  0
  8  9  2  0
  9 10  1  0
 10 11  1  0
 10 12  1  0
  9 13  1  0
 13 14  2  0
 14 15  1  0
 15 16  1  0
 16 17  2  0
 16 18  1  0
 18 19  1  0
 19 20  1  0
 20 21  2  0
 20 22  1  0
 15  4  1  0
 14  6  1  0
  1 23  1  0
  5 24  1  0
  7 25  1  0
  8 26  1  0
 10 27  1  0
 13 28  1  0
 19 29  1  0
 19 30  1  0
M  CHG  2   1  -1  22  -1
M  END
>  <UniqueID>  (77) 
76

>  <SMILES>  (77) 
[NH-]C(=O)c1cc2ccc(C(F)F)cc2n1C(=O)OCC(=O)[O-]

>  <Energy>  (77) 
66.1388787658317

>  <Genealogy>  (77) 
[NH-]C(=O)c1cc2ccc(C(F)F)cc2n1C(=O)OCC(=O)[O-] (protonated)
[NH-]C(=O)c1cc2ccc(C(F)F)cc2n1C(=O)OCC(=O)[O-] (3D coordinates assigned)
[NH-]C(=O)c1cc2ccc(C(F)F)cc2n1C(=O)OCC(=O)[O-] (optimized conformer: 66.1388787658317 kcal/mol)

>  <smiles>  (77) 
NC(=O)c1cc2ccc(C(F)F)cc2n1C(=O)OCC(=O)O

>  <score_type>  (77) 
oracle

>  <origin>  (77) 
adg

>  <m_score__min__energy>  (77) 
-5.7199999999999998

>  <m_primary>  (77) 
energy

$$$$
78:0
     RDKit          3D

 36 37  0  0  0  0  0  0  0  0999 V2000
  142.9430  160.8950  133.4510 N   0  0  0  0  0  0  0  0  0  0  0  0
  144.3270  161.0920  133.7440 C   0  0  0  0  0  0  0  0  0  0  0  0
  144.7120  162.2140  134.1650 O   0  0  0  0  0  0  0  0  0  0  0  0
  145.3070  160.0070  133.5210 C   0  0  0  0  0  0  0  0  0  0  0  0
  146.6720  160.2200  133.3450 C   0  0  0  0  0  0  0  0  0  0  0  0
  147.2300  158.9640  133.2740 C   0  0  0  0  0  0  0  0  0  0  0  0
  148.5560  158.5850  133.0860 C   0  0  0  0  0  0  0  0  0  0  0  0
  148.8450  157.2140  133.0210 C   0  0  0  0  0  0  0  0  0  0  0  0
  147.8150  156.2470  133.1540 C   0  0  0  0  0  0  0  0  0  0  0  0
  148.1340  154.7780  133.0220 C   0  0  0  0  0  0  0  0  0  0  0  0
  148.3520  154.2450  134.2780 F   0  0  0  0  0  0  0  0  0  0  0  0
  147.0850  154.1050  132.4210 F   0  0  0  0  0  0  0  0  0  0  0  0
  149.2670  154.5920  132.2490 F   0  0  0  0  0  0  0  0  0  0  0  0
  146.4770  156.6730  133.3190 C   0  0  0  0  0  0  0  0  0  0  0  0
  146.2190  158.0480  133.4010 C   0  0  0  0  0  0  0  0  0  0  0  0
  145.0300  158.6730  133.5530 N   0  0  0  0  0  0  0  0  0  0  0  0
  143.7350  158.0540  133.6370 C   0  0  0  0  0  0  0  0  0  0  0  0
  143.0460  157.8870  132.5940 O   0  0  0  0  0  0  0  0  0  0  0  0
  143.2350  157.6530  134.8800 O   0  0  0  0  0  0  0  0  0  0  0  0
  142.0170  158.1610  135.4180 C   0  0  0  0  0  0  0  0  0  0  0  0
  141.3510  158.9490  134.4380 O   0  0  0  0  0  0  0  0  0  0  0  0
  140.1000  158.6110  133.9120 C   0  0  0  0  0  0  0  0  0  0  0  0
  139.2190  158.0740  134.6380 O   0  0  0  0  0  0  0  0  0  0  0  0
  139.8250  158.8480  132.4630 C   0  0  0  0  0  0  0  0  0  0  0  0
  140.9350  159.4490  131.8570 O   0  0  0  0  0  0  0  0  0  0  0  0
  142.5810  159.9640  133.1460 H   0  0  0  0  0  0  0  0  0  0  0  0
  142.2630  161.6750  133.5830 H   0  0  0  0  0  0  0  0  0  0  0  0
  147.1931  161.1863  133.2772 H   0  0  0  0  0  0  0  0  0  0  0  0
  149.3528  159.3375  132.9913 H   0  0  0  0  0  0  0  0  0  0  0  0
  149.8828  156.8844  132.8650 H   0  0  0  0  0  0  0  0  0  0  0  0
  145.6574  155.9420  133.3816 H   0  0  0  0  0  0  0  0  0  0  0  0
  141.3700  157.3220  135.7138 H   0  0  0  0  0  0  0  0  0  0  0  0
  142.2391  158.7842  136.2968 H   0  0  0  0  0  0  0  0  0  0  0  0
  139.6165  157.8871  131.9698 H   0  0  0  0  0  0  0  0  0  0  0  0
  138.9552  159.5142  132.3648 H   0  0  0  0  0  0  0  0  0  0  0  0
  141.7410  159.0360  132.2650 H   0  0  0  0  0  0  0  0  0  0  0  0
  1  2  1  0
  2  3  2  0
  2  4  1  0
  4  5  2  0
  5  6  1  0
  6  7  2  0
  7  8  1  0
  8  9  2  0
  9 10  1  0
 10 11  1  0
 10 12  1  0
 10 13  1  0
  9 14  1  0
 14 15  2  0
 15 16  1  0
 16 17  1  0
 17 18  2  0
 17 19  1  0
 19 20  1  0
 20 21  1  0
 21 22  1  0
 22 23  2  0
 22 24  1  0
 24 25  1  0
 16  4  1  0
 15  6  1  0
  1 26  1  0
  1 27  1  0
  5 28  1  0
  7 29  1  0
  8 30  1  0
 14 31  1  0
 20 32  1  0
 20 33  1  0
 24 34  1  0
 24 35  1  0
 25 36  1  0
M  END
>  <UniqueID>  (78) 
77

>  <SMILES>  (78) 
NC(=O)c1cc2ccc(C(F)(F)F)cc2n1C(=O)OCOC(=O)CO

>  <Energy>  (78) 
70.36106942922744

>  <Genealogy>  (78) 
NC(=O)c1cc2ccc(C(F)(F)F)cc2n1C(=O)OCOC(=O)CO (3D coordinates assigned)
NC(=O)c1cc2ccc(C(F)(F)F)cc2n1C(=O)OCOC(=O)CO (optimized conformer: 70.36106942922744 kcal/mol)

>  <smiles>  (78) 
NC(=O)c1cc2ccc(C(F)(F)F)cc2n1C(=O)OCOC(=O)CO

>  <score_type>  (78) 
oracle

>  <origin>  (78) 
adg

>  <m_score__min__energy>  (78) 
-5.5499999999999998

>  <m_primary>  (78) 
energy

$$$$
79:0
     RDKit          3D

 44 46  0  0  0  0  0  0  0  0999 V2000
  142.0530  159.9870  134.7830 N   0  0  0  0  0  0  0  0  0  0  0  0
  143.0550  160.5270  133.9240 C   0  0  0  0  0  0  0  0  0  0  0  0
  142.8460  161.6280  133.3490 O   0  0  0  0  0  0  0  0  0  0  0  0
  144.3130  159.7840  133.7030 C   0  0  0  0  0  0  0  0  0  0  0  0
  145.5810  160.3530  133.8130 C   0  0  0  0  0  0  0  0  0  0  0  0
  146.4650  159.3240  133.5700 C   0  0  0  0  0  0  0  0  0  0  0  0
  147.8560  159.3260  133.5320 C   0  0  0  0  0  0  0  0  0  0  0  0
  148.5080  158.1190  133.2220 C   0  0  0  0  0  0  0  0  0  0  0  0
  147.7620  156.9440  132.9540 C   0  0  0  0  0  0  0  0  0  0  0  0
  148.4610  155.6590  132.6100 C   0  0  0  0  0  0  0  0  0  0  0  0
  148.4280  154.8060  133.6980 F   0  0  0  0  0  0  0  0  0  0  0  0
  149.7770  155.9200  132.2730 F   0  0  0  0  0  0  0  0  0  0  0  0
  146.3510  156.9820  132.9990 C   0  0  0  0  0  0  0  0  0  0  0  0
  145.7320  158.1920  133.3260 C   0  0  0  0  0  0  0  0  0  0  0  0
  144.4110  158.4580  133.4100 N   0  0  0  0  0  0  0  0  0  0  0  0
  143.3410  157.5310  133.1650 C   0  0  0  0  0  0  0  0  0  0  0  0
  142.9420  157.3560  131.9830 O   0  0  0  0  0  0  0  0  0  0  0  0
  142.7250  156.7900  134.2930 C   0  0  0  0  0  0  0  0  0  0  0  0
  143.0740  155.5910  134.4800 O   0  0  0  0  0  0  0  0  0  0  0  0
  141.7390  157.3820  135.1850 N   0  0  2  0  0  0  0  0  0  0  0  0
  142.0600  157.0440  136.5980 C   0  0  0  0  0  0  0  0  0  0  0  0
  140.8600  157.2060  137.5550 C   0  0  0  0  0  0  0  0  0  0  0  0
  139.8730  158.2520  137.0410 C   0  0  0  0  0  0  0  0  0  0  0  0
  139.3280  157.8730  135.6540 C   0  0  0  0  0  0  0  0  0  0  0  0
  140.3370  157.0380  134.8190 C   0  0  1  0  0  0  0  0  0  0  0  0
  140.0580  157.2430  133.3480 C   0  0  0  0  0  0  0  0  0  0  0  0
  140.3240  158.3410  132.7930 O   0  0  0  0  0  0  0  0  0  0  0  0
  139.4690  156.2260  132.6060 O   0  0  0  0  0  0  0  0  0  0  0  0
  141.2700  159.4130  134.3990 H   0  0  0  0  0  0  0  0  0  0  0  0
  145.8242  161.4005  134.0445 H   0  0  0  0  0  0  0  0  0  0  0  0
  148.4277  160.2429  133.7380 H   0  0  0  0  0  0  0  0  0  0  0  0
  149.6070  158.0866  133.1872 H   0  0  0  0  0  0  0  0  0  0  0  0
  147.9504  155.1874  131.7574 H   0  0  0  0  0  0  0  0  0  0  0  0
  145.7548  156.0833  132.7825 H   0  0  0  0  0  0  0  0  0  0  0  0
  141.8320  158.4230  135.0950 H   0  0  0  0  0  0  0  0  0  0  0  0
  142.3991  155.9984  136.6380 H   0  0  0  0  0  0  0  0  0  0  0  0
  142.8381  157.7466  136.9312 H   0  0  0  0  0  0  0  0  0  0  0  0
  140.3421  156.2398  137.6460 H   0  0  0  0  0  0  0  0  0  0  0  0
  141.2396  157.5396  138.5320 H   0  0  0  0  0  0  0  0  0  0  0  0
  139.0330  158.3293  137.7470 H   0  0  0  0  0  0  0  0  0  0  0  0
  140.4000  159.2138  136.9557 H   0  0  0  0  0  0  0  0  0  0  0  0
  138.4087  157.2836  135.7865 H   0  0  0  0  0  0  0  0  0  0  0  0
  139.1377  158.8076  135.1060 H   0  0  0  0  0  0  0  0  0  0  0  0
  140.2103  155.9687  135.0437 H   0  0  0  0  0  0  0  0  0  0  0  0
  1  2  1  0
  2  3  2  0
  2  4  1  0
  4  5  2  0
  5  6  1  0
  6  7  2  0
  7  8  1  0
  8  9  2  0
  9 10  1  0
 10 11  1  0
 10 12  1  0
  9 13  1  0
 13 14  2  0
 14 15  1  0
 15 16  1  0
 16 17  2  0
 16 18  1  0
 18 19  2  0
 18 20  1  0
 20 21  1  0
 21 22  1  0
 22 23  1  0
 23 24  1  0
 24 25  1  0
 25 26  1  0
 26 27  2  0
 26 28  1  0
 15  4  1  0
 25 20  1  0
 14  6  1  0
  1 29  1  0
  5 30  1  0
  7 31  1  0
  8 32  1  0
 10 33  1  0
 13 34  1  0
 20 35  1  1
 21 36  1  0
 21 37  1  0
 22 38  1  0
 22 39  1  0
 23 40  1  0
 23 41  1  0
 24 42  1  0
 24 43  1  0
 25 44  1  1
M  CHG  3   1  -1  20   1  28  -1
M  END
>  <UniqueID>  (79) 
78

>  <SMILES>  (79) 
[NH-]C(=O)c1cc2ccc(C(F)F)cc2n1C(=O)C(=O)[N@@H+]1CCCC[C@H]1C(=O)[O-]

>  <Energy>  (79) 
95.02073875268226

>  <Genealogy>  (79) 
[NH-]C(=O)c1cc2ccc(C(F)F)cc2n1C(=O)C(=O)[NH+]1CCCCC1C(=O)[O-] (protonated)
[NH-]C(=O)c1cc2ccc(C(F)F)cc2n1C(=O)C(=O)[N@@H+]1CCCC[C@H]1C(=O)[O-] (chirality)
[NH-]C(=O)c1cc2ccc(C(F)F)cc2n1C(=O)C(=O)[N@@H+]1CCCC[C@H]1C(=O)[O-] (3D coordinates assigned)
[NH-]C(=O)c1cc2ccc(C(F)F)cc2n1C(=O)C(=O)[N@@H+]1CCCC[C@H]1C(=O)[O-] (nonaromatic ring conformer: 95.02073875268226 kcal/mol)

>  <smiles>  (79) 
NC(=O)c1cc2ccc(C(F)F)cc2n1C(=O)C(=O)N1CCCCC1C(=O)O

>  <score_type>  (79) 
oracle

>  <origin>  (79) 
adg

>  <m_score__min__energy>  (79) 
-7.1100000000000003

>  <m_primary>  (79) 
energy

$$$$
80:0
     RDKit          3D

 48 50  0  0  0  0  0  0  0  0999 V2000
  139.0690  146.5550  129.7750 C   0  0  0  0  0  0  0  0  0  0  0  0
  138.7410  148.0150  129.6720 C   0  0  0  0  0  0  0  0  0  0  0  0
  138.7410  148.5500  128.5750 O   0  0  0  0  0  0  0  0  0  0  0  0
  138.4130  148.8330  130.8910 C   0  0  0  0  0  0  0  0  0  0  0  0
  139.5210  148.8560  131.7870 O   0  0  0  0  0  0  0  0  0  0  0  0
  140.8250  149.1780  131.3880 C   0  0  0  0  0  0  0  0  0  0  0  0
  141.3540  148.5800  130.4110 O   0  0  0  0  0  0  0  0  0  0  0  0
  141.5780  150.2240  132.1140 C   0  0  0  0  0  0  0  0  0  0  0  0
  140.9250  151.3660  132.6010 C   0  0  0  0  0  0  0  0  0  0  0  0
  141.6440  152.3500  133.2820 C   0  0  0  0  0  0  0  0  0  0  0  0
  143.0210  152.1880  133.4820 C   0  0  0  0  0  0  0  0  0  0  0  0
  143.7690  153.2030  134.1740 N   0  0  0  0  0  0  0  0  0  0  0  0
  144.9390  153.8500  133.6430 C   0  0  0  0  0  0  0  0  0  0  0  0
  145.4470  153.4610  132.5560 O   0  0  0  0  0  0  0  0  0  0  0  0
  145.5730  154.9650  134.3720 C   0  0  0  0  0  0  0  0  0  0  0  0
  145.3220  155.1410  135.5950 O   0  0  0  0  0  0  0  0  0  0  0  0
  146.4780  155.8560  133.7040 N   0  0  0  0  0  0  0  0  0  0  0  0
  147.7480  155.5950  133.2880 C   0  0  0  0  0  0  0  0  0  0  0  0
  148.4180  154.2780  133.3260 C   0  0  0  0  0  0  0  0  0  0  0  0
  147.9180  153.2210  134.1410 N   0  0  0  0  0  0  0  0  0  0  0  0
  149.4320  154.0720  132.6050 O   0  0  0  0  0  0  0  0  0  0  0  0
  148.3360  156.7460  132.7650 C   0  0  0  0  0  0  0  0  0  0  0  0
  147.3770  157.7280  132.8760 C   0  0  0  0  0  0  0  0  0  0  0  0
  147.4320  159.0770  132.5400 C   0  0  0  0  0  0  0  0  0  0  0  0
  146.3010  159.8690  132.8040 C   0  0  0  0  0  0  0  0  0  0  0  0
  145.1380  159.3020  133.3900 C   0  0  0  0  0  0  0  0  0  0  0  0
  143.9530  160.1710  133.7230 C   0  0  0  0  0  0  0  0  0  0  0  0
  143.6590  160.0430  135.0680 F   0  0  0  0  0  0  0  0  0  0  0  0
  144.2260  161.4990  133.4450 F   0  0  0  0  0  0  0  0  0  0  0  0
  142.8480  159.7920  132.9810 F   0  0  0  0  0  0  0  0  0  0  0  0
  145.1340  157.9320  133.7420 C   0  0  0  0  0  0  0  0  0  0  0  0
  146.2660  157.1650  133.4480 C   0  0  0  0  0  0  0  0  0  0  0  0
  143.6370  151.0730  132.9980 N   0  0  0  0  0  0  0  0  0  0  0  0
  142.9610  150.1030  132.3310 C   0  0  0  0  0  0  0  0  0  0  0  0
  139.1336  146.2676  130.8348 H   0  0  0  0  0  0  0  0  0  0  0  0
  138.2807  145.9665  129.2829 H   0  0  0  0  0  0  0  0  0  0  0  0
  140.0333  146.3602  129.2829 H   0  0  0  0  0  0  0  0  0  0  0  0
  138.1741  149.8618  130.5836 H   0  0  0  0  0  0  0  0  0  0  0  0
  137.5502  148.3811  131.4022 H   0  0  0  0  0  0  0  0  0  0  0  0
  139.8427  151.4866  132.4458 H   0  0  0  0  0  0  0  0  0  0  0  0
  141.1321  153.2475  133.6594 H   0  0  0  0  0  0  0  0  0  0  0  0
  143.4360  153.4890  135.1230 H   0  0  0  0  0  0  0  0  0  0  0  0
  147.0230  152.7380  133.9030 H   0  0  0  0  0  0  0  0  0  0  0  0
  149.3503  156.8480  132.3516 H   0  0  0  0  0  0  0  0  0  0  0  0
  148.3331  159.5106  132.0817 H   0  0  0  0  0  0  0  0  0  0  0  0
  146.3168  160.9401  132.5539 H   0  0  0  0  0  0  0  0  0  0  0  0
  144.2608  157.4803  134.2355 H   0  0  0  0  0  0  0  0  0  0  0  0
  143.4983  149.2183  131.9587 H   0  0  0  0  0  0  0  0  0  0  0  0
  1  2  1  0
  2  3  2  0
  2  4  1  0
  4  5  1  0
  5  6  1  0
  6  7  2  0
  6  8  1  0
  8  9  2  0
  9 10  1  0
 10 11  2  0
 11 12  1  0
 12 13  1  0
 13 14  2  0
 13 15  1  0
 15 16  2  0
 15 17  1  0
 17 18  1  0
 18 19  1  0
 19 20  1  0
 19 21  2  0
 18 22  2  0
 22 23  1  0
 23 24  2  0
 24 25  1  0
 25 26  2  0
 26 27  1  0
 27 28  1  0
 27 29  1  0
 27 30  1  0
 26 31  1  0
 31 32  2  0
 11 33  1  0
 33 34  2  0
 34  8  1  0
 32 17  1  0
 32 23  1  0
  1 35  1  0
  1 36  1  0
  1 37  1  0
  4 38  1  0
  4 39  1  0
  9 40  1  0
 10 41  1  0
 12 42  1  0
 20 43  1  0
 22 44  1  0
 24 45  1  0
 25 46  1  0
 31 47  1  0
 34 48  1  0
M  CHG  1  20  -1
M  END
>  <UniqueID>  (80) 
79

>  <SMILES>  (80) 
CC(=O)COC(=O)c1ccc(NC(=O)C(=O)n2c(C([NH-])=O)cc3ccc(C(F)(F)F)cc32)nc1

>  <Energy>  (80) 
87.44553260745995

>  <Genealogy>  (80) 
CC(=O)COC(=O)c1ccc(NC(=O)C(=O)n2c(C([NH-])=O)cc3ccc(C(F)(F)F)cc32)nc1 (protonated)
CC(=O)COC(=O)c1ccc(NC(=O)C(=O)n2c(C([NH-])=O)cc3ccc(C(F)(F)F)cc32)nc1 (3D coordinates assigned)
CC(=O)COC(=O)c1ccc(NC(=O)C(=O)n2c(C([NH-])=O)cc3ccc(C(F)(F)F)cc32)nc1 (optimized conformer: 87.44553260745995 kcal/mol)

>  <smiles>  (80) 
CC(=O)COC(=O)c1ccc(NC(=O)C(=O)n2c(C(N)=O)cc3ccc(C(F)(F)F)cc32)nc1

>  <score_type>  (80) 
oracle

>  <origin>  (80) 
adg

>  <m_score__min__energy>  (80) 
-8.5999999999999996

>  <m_primary>  (80) 
energy

$$$$
81:0
     RDKit          3D

 41 42  0  0  0  0  0  0  0  0999 V2000
  148.8560  158.4970  131.9850 C   0  0  0  0  0  0  0  0  0  0  0  0
  148.8120  157.4400  132.9890 N   0  0  0  0  0  0  0  0  0  0  0  0
  147.8380  156.3800  132.9870 C   0  0  0  0  0  0  0  0  0  0  0  0
  148.2270  155.0120  132.9520 C   0  0  0  0  0  0  0  0  0  0  0  0
  147.2630  153.9900  132.9680 C   0  0  0  0  0  0  0  0  0  0  0  0
  145.9220  154.3590  133.0030 C   0  0  0  0  0  0  0  0  0  0  0  0
  144.7910  153.5760  133.0720 C   0  0  0  0  0  0  0  0  0  0  0  0
  143.7270  154.4730  133.1110 C   0  0  0  0  0  0  0  0  0  0  0  0
  142.3110  154.0560  133.1570 C   0  0  0  0  0  0  0  0  0  0  0  0
  141.7790  153.1230  132.2140 N   0  0  0  0  0  0  0  0  0  0  0  0
  141.5670  154.4970  134.0740 O   0  0  0  0  0  0  0  0  0  0  0  0
  144.1800  155.7570  133.0750 N   0  0  0  0  0  0  0  0  0  0  0  0
  143.4060  156.9600  133.2180 C   0  0  0  0  0  0  0  0  0  0  0  0
  143.9430  157.9860  133.7140 O   0  0  0  0  0  0  0  0  0  0  0  0
  142.0250  156.9740  132.8240 N   0  0  0  0  0  0  0  0  0  0  0  0
  141.2130  158.1620  132.7850 C   0  0  0  0  0  0  0  0  0  0  0  0
  141.7180  159.2800  133.0710 O   0  0  0  0  0  0  0  0  0  0  0  0
  139.7940  158.0750  132.3650 C   0  0  0  0  0  0  0  0  0  0  0  0
  139.2190  156.9540  132.4320 O   0  0  0  0  0  0  0  0  0  0  0  0
  139.0540  159.2170  131.8770 N   0  0  0  0  0  0  0  0  0  0  0  0
  137.8050  158.9870  131.1440 C   0  0  0  0  0  0  0  0  0  0  0  0
  139.4720  160.5890  132.1830 C   0  0  0  0  0  0  0  0  0  0  0  0
  145.5260  155.6700  133.0130 C   0  0  0  0  0  0  0  0  0  0  0  0
  146.4660  156.7090  133.0260 C   0  0  0  0  0  0  0  0  0  0  0  0
  148.8968  159.4760  132.4848 H   0  0  0  0  0  0  0  0  0  0  0  0
  149.7496  158.3687  131.3565 H   0  0  0  0  0  0  0  0  0  0  0  0
  147.9548  158.4434  131.3565 H   0  0  0  0  0  0  0  0  0  0  0  0
  149.5300  157.4640  133.7490 H   0  0  0  0  0  0  0  0  0  0  0  0
  149.2949  154.7514  132.9119 H   0  0  0  0  0  0  0  0  0  0  0  0
  147.5594  152.9308  132.9533 H   0  0  0  0  0  0  0  0  0  0  0  0
  144.7395  152.4774  133.0920 H   0  0  0  0  0  0  0  0  0  0  0  0
  140.7630  152.8830  132.2340 H   0  0  0  0  0  0  0  0  0  0  0  0
  142.4010  152.5980  131.5630 H   0  0  0  0  0  0  0  0  0  0  0  0
  141.5870  156.0590  132.5760 H   0  0  0  0  0  0  0  0  0  0  0  0
  136.9828  158.8356  131.8589 H   0  0  0  0  0  0  0  0  0  0  0  0
  137.5849  159.8597  130.5116 H   0  0  0  0  0  0  0  0  0  0  0  0
  137.9102  158.0931  130.5116 H   0  0  0  0  0  0  0  0  0  0  0  0
  139.5134  160.7250  133.2738 H   0  0  0  0  0  0  0  0  0  0  0  0
  140.4672  160.7738  131.7524 H   0  0  0  0  0  0  0  0  0  0  0  0
  138.7489  161.2973  131.7524 H   0  0  0  0  0  0  0  0  0  0  0  0
  146.1414  157.7593  133.0658 H   0  0  0  0  0  0  0  0  0  0  0  0
  1  2  1  0
  2  3  1  0
  3  4  2  0
  4  5  1  0
  5  6  2  0
  6  7  1  0
  7  8  2  0
  8  9  1  0
  9 10  1  0
  9 11  2  0
  8 12  1  0
 12 13  1  0
 13 14  2  0
 13 15  1  0
 15 16  1  0
 16 17  2  0
 16 18  1  0
 18 19  2  0
 18 20  1  0
 20 21  1  0
 20 22  1  0
 12 23  1  0
 23 24  2  0
 24  3  1  0
 23  6  1  0
  1 25  1  0
  1 26  1  0
  1 27  1  0
  2 28  1  0
  4 29  1  0
  5 30  1  0
  7 31  1  0
 10 32  1  0
 10 33  1  0
 15 34  1  0
 21 35  1  0
 21 36  1  0
 21 37  1  0
 22 38  1  0
 22 39  1  0
 22 40  1  0
 24 41  1  0
M  END
>  <UniqueID>  (81) 
80

>  <SMILES>  (81) 
CNc1ccc2cc(C(N)=O)n(C(=O)NC(=O)C(=O)N(C)C)c2c1

>  <Energy>  (81) 
79.71333204329268

>  <Genealogy>  (81) 
CNc1ccc2cc(C(N)=O)n(C(=O)NC(=O)C(=O)N(C)C)c2c1 (3D coordinates assigned)
CNc1ccc2cc(C(N)=O)n(C(=O)NC(=O)C(=O)N(C)C)c2c1 (optimized conformer: 79.71333204329268 kcal/mol)

>  <smiles>  (81) 
CNc1ccc2cc(C(N)=O)n(C(=O)NC(=O)C(=O)N(C)C)c2c1

>  <score_type>  (81) 
oracle

>  <origin>  (81) 
adg

>  <m_score__min__energy>  (81) 
-7.6299999999999999

>  <m_primary>  (81) 
energy

$$$$
82:0
     RDKit          3D

 40 41  0  0  0  0  0  0  0  0999 V2000
  144.0250  155.2740  135.4160 C   0  0  0  0  0  0  0  0  0  0  0  0
  145.2250  155.3840  134.5840 N   0  0  0  0  0  0  0  0  0  0  0  0
  146.4840  154.7810  135.0540 C   0  0  0  0  0  0  0  0  0  0  0  0
  147.0930  153.8550  133.9930 C   0  0  0  0  0  0  0  0  0  0  0  0
  148.3710  154.4370  133.3830 C   0  0  0  0  0  0  0  0  0  0  0  0
  148.1500  154.7910  132.0450 O   0  0  0  0  0  0  0  0  0  0  0  0
  145.1630  156.1530  133.3640 C   0  0  0  0  0  0  0  0  0  0  0  0
  145.2390  155.5700  132.2490 O   0  0  0  0  0  0  0  0  0  0  0  0
  145.0630  157.5860  133.3950 N   0  0  0  0  0  0  0  0  0  0  0  0
  146.0480  158.5020  133.1720 C   0  0  0  0  0  0  0  0  0  0  0  0
  147.4510  158.1830  132.8100 C   0  0  0  0  0  0  0  0  0  0  0  0
  147.7520  157.1500  131.8680 N   0  0  0  0  0  0  0  0  0  0  0  0
  148.4030  158.8200  133.3330 O   0  0  0  0  0  0  0  0  0  0  0  0
  145.5390  159.7960  133.3070 C   0  0  0  0  0  0  0  0  0  0  0  0
  144.2100  159.6360  133.6280 C   0  0  0  0  0  0  0  0  0  0  0  0
  143.2240  160.5880  133.8710 C   0  0  0  0  0  0  0  0  0  0  0  0
  141.9320  160.1330  134.1830 C   0  0  0  0  0  0  0  0  0  0  0  0
  141.6520  158.7440  134.2690 C   0  0  0  0  0  0  0  0  0  0  0  0
  140.2510  158.2680  134.5570 C   0  0  0  0  0  0  0  0  0  0  0  0
  140.2140  156.8880  134.4800 F   0  0  0  0  0  0  0  0  0  0  0  0
  139.3590  158.7950  133.6380 F   0  0  0  0  0  0  0  0  0  0  0  0
  139.8490  158.6600  135.8220 F   0  0  0  0  0  0  0  0  0  0  0  0
  142.6770  157.8090  133.9940 C   0  0  0  0  0  0  0  0  0  0  0  0
  143.9500  158.2950  133.6790 C   0  0  0  0  0  0  0  0  0  0  0  0
  144.3113  155.3002  136.4778 H   0  0  0  0  0  0  0  0  0  0  0  0
  143.3491  156.1140  135.1976 H   0  0  0  0  0  0  0  0  0  0  0  0
  143.5131  154.3252  135.1976 H   0  0  0  0  0  0  0  0  0  0  0  0
  147.2012  155.5831  135.2828 H   0  0  0  0  0  0  0  0  0  0  0  0
  146.2669  154.1829  135.9513 H   0  0  0  0  0  0  0  0  0  0  0  0
  147.3320  152.8887  134.4611 H   0  0  0  0  0  0  0  0  0  0  0  0
  146.3563  153.7367  133.1848 H   0  0  0  0  0  0  0  0  0  0  0  0
  148.6706  155.3303  133.9506 H   0  0  0  0  0  0  0  0  0  0  0  0
  149.1676  153.6797  133.4274 H   0  0  0  0  0  0  0  0  0  0  0  0
  147.1830  154.6470  131.8680 H   0  0  0  0  0  0  0  0  0  0  0  0
  147.0100  156.5390  131.4650 H   0  0  0  0  0  0  0  0  0  0  0  0
  148.7450  156.9550  131.6090 H   0  0  0  0  0  0  0  0  0  0  0  0
  146.0850  160.7429  133.1830 H   0  0  0  0  0  0  0  0  0  0  0  0
  143.4495  161.6634  133.8203 H   0  0  0  0  0  0  0  0  0  0  0  0
  141.1278  160.8617  134.3628 H   0  0  0  0  0  0  0  0  0  0  0  0
  142.4781  156.7276  134.0270 H   0  0  0  0  0  0  0  0  0  0  0  0
  1  2  1  0
  2  3  1  0
  3  4  1  0
  4  5  1  0
  5  6  1  0
  2  7  1  0
  7  8  2  0
  7  9  1  0
  9 10  1  0
 10 11  1  0
 11 12  1  0
 11 13  2  0
 10 14  2  0
 14 15  1  0
 15 16  2  0
 16 17  1  0
 17 18  2  0
 18 19  1  0
 19 20  1  0
 19 21  1  0
 19 22  1  0
 18 23  1  0
 23 24  2  0
 24  9  1  0
 24 15  1  0
  1 25  1  0
  1 26  1  0
  1 27  1  0
  3 28  1  0
  3 29  1  0
  4 30  1  0
  4 31  1  0
  5 32  1  0
  5 33  1  0
  6 34  1  0
 12 35  1  0
 12 36  1  0
 14 37  1  0
 16 38  1  0
 17 39  1  0
 23 40  1  0
M  END
>  <UniqueID>  (82) 
81

>  <SMILES>  (82) 
CN(CCCO)C(=O)n1c(C(N)=O)cc2ccc(C(F)(F)F)cc21

>  <Energy>  (82) 
73.43962130973078

>  <Genealogy>  (82) 
CN(CCCO)C(=O)n1c(C(N)=O)cc2ccc(C(F)(F)F)cc21 (3D coordinates assigned)
CN(CCCO)C(=O)n1c(C(N)=O)cc2ccc(C(F)(F)F)cc21 (optimized conformer: 73.43962130973078 kcal/mol)

>  <smiles>  (82) 
CN(CCCO)C(=O)n1c(C(N)=O)cc2ccc(C(F)(F)F)cc21

>  <score_type>  (82) 
oracle

>  <origin>  (82) 
adg

>  <m_score__min__energy>  (82) 
-5.54

>  <m_primary>  (82) 
energy

$$$$
83:0
     RDKit          3D

 31 32  0  0  0  0  0  0  0  0999 V2000
  149.7630  158.0070  131.8860 C   0  0  0  0  0  0  0  0  0  0  0  0
  148.8100  159.1020  132.1100 N   0  0  0  0  0  0  0  0  0  0  0  0
  149.2300  160.4860  131.8340 C   0  0  0  0  0  0  0  0  0  0  0  0
  149.3050  160.7260  130.3580 C   0  0  0  0  0  0  0  0  0  0  0  0
  149.1150  159.7810  129.5490 O   0  0  0  0  0  0  0  0  0  0  0  0
  149.6050  161.9950  129.8770 O   0  0  0  0  0  0  0  0  0  0  0  0
  147.4750  158.8060  132.5900 C   0  0  0  0  0  0  0  0  0  0  0  0
  147.0350  157.4580  132.7080 C   0  0  0  0  0  0  0  0  0  0  0  0
  145.7480  157.1550  133.1760 C   0  0  0  0  0  0  0  0  0  0  0  0
  144.9100  158.2110  133.5150 C   0  0  0  0  0  0  0  0  0  0  0  0
  143.6280  158.1990  134.0120 C   0  0  0  0  0  0  0  0  0  0  0  0
  143.2820  159.5390  134.1760 C   0  0  0  0  0  0  0  0  0  0  0  0
  141.9440  159.9850  134.6130 C   0  0  0  0  0  0  0  0  0  0  0  0
  141.1240  160.7430  133.7260 N   0  0  0  0  0  0  0  0  0  0  0  0
  141.5290  159.7390  135.7770 O   0  0  0  0  0  0  0  0  0  0  0  0
  144.3140  160.3480  133.8020 N   0  0  0  0  0  0  0  0  0  0  0  0
  144.3810  161.7810  133.8820 C   0  0  0  0  0  0  0  0  0  0  0  0
  143.4750  162.4900  133.3710 O   0  0  0  0  0  0  0  0  0  0  0  0
  145.4610  162.3990  134.5020 O   0  0  0  0  0  0  0  0  0  0  0  0
  145.3020  159.5190  133.3960 C   0  0  0  0  0  0  0  0  0  0  0  0
  146.5880  159.8500  132.9520 C   0  0  0  0  0  0  0  0  0  0  0  0
  150.1047  157.6144  132.8550 H   0  0  0  0  0  0  0  0  0  0  0  0
  149.2715  157.2037  131.3176 H   0  0  0  0  0  0  0  0  0  0  0  0
  150.6265  158.3829  131.3176 H   0  0  0  0  0  0  0  0  0  0  0  0
  148.5014  161.1808  132.2773 H   0  0  0  0  0  0  0  0  0  0  0  0
  150.2254  160.6502  132.2725 H   0  0  0  0  0  0  0  0  0  0  0  0
  147.7152  156.6403  132.4276 H   0  0  0  0  0  0  0  0  0  0  0  0
  145.4116  156.1121  133.2720 H   0  0  0  0  0  0  0  0  0  0  0  0
  143.0071  157.3184  134.2332 H   0  0  0  0  0  0  0  0  0  0  0  0
  141.4950  161.5940  133.2480 H   0  0  0  0  0  0  0  0  0  0  0  0
  146.9040  160.9015  132.8854 H   0  0  0  0  0  0  0  0  0  0  0  0
  1  2  1  0
  2  3  1  0
  3  4  1  0
  4  5  2  0
  4  6  1  0
  2  7  1  0
  7  8  2  0
  8  9  1  0
  9 10  2  0
 10 11  1  0
 11 12  2  0
 12 13  1  0
 13 14  1  0
 13 15  2  0
 12 16  1  0
 16 17  1  0
 17 18  2  0
 17 19  1  0
 16 20  1  0
 20 21  2  0
 21  7  1  0
 20 10  1  0
  1 22  1  0
  1 23  1  0
  1 24  1  0
  3 25  1  0
  3 26  1  0
  8 27  1  0
  9 28  1  0
 11 29  1  0
 14 30  1  0
 21 31  1  0
M  CHG  3   6  -1  14  -1  19  -1
M  END
>  <UniqueID>  (83) 
82

>  <SMILES>  (83) 
CN(CC(=O)[O-])c1ccc2cc(C([NH-])=O)n(C(=O)[O-])c2c1

>  <Energy>  (83) 
72.39870938671368

>  <Genealogy>  (83) 
CN(CC(=O)[O-])c1ccc2cc(C([NH-])=O)n(C(=O)[O-])c2c1 (protonated)
CN(CC(=O)[O-])c1ccc2cc(C([NH-])=O)n(C(=O)[O-])c2c1 (3D coordinates assigned)
CN(CC(=O)[O-])c1ccc2cc(C([NH-])=O)n(C(=O)[O-])c2c1 (optimized conformer: 72.39870938671368 kcal/mol)

>  <smiles>  (83) 
CN(CC(=O)O)c1ccc2cc(C(N)=O)n(C(=O)O)c2c1

>  <score_type>  (83) 
oracle

>  <origin>  (83) 
adg

>  <m_score__min__energy>  (83) 
-6.1799999999999997

>  <m_primary>  (83) 
energy

$$$$
84:0
     RDKit          3D

 47 48  0  0  0  0  0  0  0  0999 V2000
  138.0410  149.2000  130.6640 C   0  0  0  0  0  0  0  0  0  0  0  0
  139.3760  149.1100  131.2610 N   0  0  0  0  0  0  0  0  0  0  0  0
  140.2090  147.9210  131.0670 C   0  0  0  0  0  0  0  0  0  0  0  0
  139.8830  150.2030  132.0440 C   0  0  0  0  0  0  0  0  0  0  0  0
  139.1660  151.2230  132.2380 O   0  0  0  0  0  0  0  0  0  0  0  0
  141.1710  150.1370  132.5900 O   0  0  0  0  0  0  0  0  0  0  0  0
  141.9010  151.2880  133.0130 C   0  0  0  0  0  0  0  0  0  0  0  0
  141.3920  151.7940  134.3280 C   0  0  0  0  0  0  0  0  0  0  0  0
  141.0210  150.9710  135.2080 O   0  0  0  0  0  0  0  0  0  0  0  0
  141.3700  153.1700  134.5840 O   0  0  0  0  0  0  0  0  0  0  0  0
  142.2460  154.0960  133.9450 C   0  0  0  0  0  0  0  0  0  0  0  0
  141.6190  155.3690  133.8030 O   0  0  0  0  0  0  0  0  0  0  0  0
  140.3000  155.5270  133.3630 C   0  0  0  0  0  0  0  0  0  0  0  0
  139.7490  154.6430  132.6530 O   0  0  0  0  0  0  0  0  0  0  0  0
  139.5600  156.7430  133.7250 C   0  0  0  0  0  0  0  0  0  0  0  0
  138.3620  156.8760  133.3590 O   0  0  0  0  0  0  0  0  0  0  0  0
  140.1850  157.7770  134.4990 N   0  0  0  0  0  0  0  0  0  0  0  0
  140.5170  159.0350  134.0950 C   0  0  0  0  0  0  0  0  0  0  0  0
  140.2290  159.6150  132.7660 C   0  0  0  0  0  0  0  0  0  0  0  0
  139.9760  158.7560  131.6560 N   0  0  0  0  0  0  0  0  0  0  0  0
  140.2150  160.8630  132.5970 O   0  0  0  0  0  0  0  0  0  0  0  0
  141.1440  159.7270  135.1290 C   0  0  0  0  0  0  0  0  0  0  0  0
  141.1930  158.8430  136.1830 C   0  0  0  0  0  0  0  0  0  0  0  0
  141.7310  158.9940  137.4570 C   0  0  0  0  0  0  0  0  0  0  0  0
  141.6770  157.8930  138.3290 C   0  0  0  0  0  0  0  0  0  0  0  0
  141.1110  156.6610  137.9110 C   0  0  0  0  0  0  0  0  0  0  0  0
  141.0580  155.5050  138.8760 C   0  0  0  0  0  0  0  0  0  0  0  0
  141.9070  154.4980  138.4500 F   0  0  0  0  0  0  0  0  0  0  0  0
  139.7800  154.9830  138.9740 F   0  0  0  0  0  0  0  0  0  0  0  0
  141.4630  155.9350  140.1270 F   0  0  0  0  0  0  0  0  0  0  0  0
  140.5610  156.5530  136.6110 C   0  0  0  0  0  0  0  0  0  0  0  0
  140.6120  157.6720  135.7740 C   0  0  0  0  0  0  0  0  0  0  0  0
  137.2853  149.2509  131.4617 H   0  0  0  0  0  0  0  0  0  0  0  0
  137.9781  150.1044  130.0411 H   0  0  0  0  0  0  0  0  0  0  0  0
  137.8573  148.3122  130.0411 H   0  0  0  0  0  0  0  0  0  0  0  0
  140.4964  147.5108  132.0464 H   0  0  0  0  0  0  0  0  0  0  0  0
  139.6425  147.1643  130.5045 H   0  0  0  0  0  0  0  0  0  0  0  0
  141.1137  148.1949  130.5045 H   0  0  0  0  0  0  0  0  0  0  0  0
  142.9633  151.0220  133.1169 H   0  0  0  0  0  0  0  0  0  0  0  0
  141.7735  152.0797  132.2601 H   0  0  0  0  0  0  0  0  0  0  0  0
  143.1571  154.2081  134.5511 H   0  0  0  0  0  0  0  0  0  0  0  0
  142.4969  153.7124  132.9451 H   0  0  0  0  0  0  0  0  0  0  0  0
  139.3390  157.9340  131.7470 H   0  0  0  0  0  0  0  0  0  0  0  0
  141.5201  160.7605  135.1076 H   0  0  0  0  0  0  0  0  0  0  0  0
  142.1845  159.9454  137.7721 H   0  0  0  0  0  0  0  0  0  0  0  0
  142.0787  157.9877  139.3486 H   0  0  0  0  0  0  0  0  0  0  0  0
  140.1051  155.6125  136.2680 H   0  0  0  0  0  0  0  0  0  0  0  0
  1  2  1  0
  2  3  1  0
  2  4  1  0
  4  5  2  0
  4  6  1  0
  6  7  1  0
  7  8  1  0
  8  9  2  0
  8 10  1  0
 10 11  1  0
 11 12  1  0
 12 13  1  0
 13 14  2  0
 13 15  1  0
 15 16  2  0
 15 17  1  0
 17 18  1  0
 18 19  1  0
 19 20  1  0
 19 21  2  0
 18 22  2  0
 22 23  1  0
 23 24  2  0
 24 25  1  0
 25 26  2  0
 26 27  1  0
 27 28  1  0
 27 29  1  0
 27 30  1  0
 26 31  1  0
 31 32  2  0
 32 17  1  0
 32 23  1  0
  1 33  1  0
  1 34  1  0
  1 35  1  0
  3 36  1  0
  3 37  1  0
  3 38  1  0
  7 39  1  0
  7 40  1  0
 11 41  1  0
 11 42  1  0
 20 43  1  0
 22 44  1  0
 24 45  1  0
 25 46  1  0
 31 47  1  0
M  CHG  1  20  -1
M  END
>  <UniqueID>  (84) 
83

>  <SMILES>  (84) 
CN(C)C(=O)OCC(=O)OCOC(=O)C(=O)n1c(C([NH-])=O)cc2ccc(C(F)(F)F)cc21

>  <Energy>  (84) 
74.54276803711366

>  <Genealogy>  (84) 
CN(C)C(=O)OCC(=O)OCOC(=O)C(=O)n1c(C([NH-])=O)cc2ccc(C(F)(F)F)cc21 (protonated)
CN(C)C(=O)OCC(=O)OCOC(=O)C(=O)n1c(C([NH-])=O)cc2ccc(C(F)(F)F)cc21 (3D coordinates assigned)
CN(C)C(=O)OCC(=O)OCOC(=O)C(=O)n1c(C([NH-])=O)cc2ccc(C(F)(F)F)cc21 (optimized conformer: 74.54276803711366 kcal/mol)

>  <smiles>  (84) 
CN(C)C(=O)OCC(=O)OCOC(=O)C(=O)n1c(C(N)=O)cc2ccc(C(F)(F)F)cc21

>  <score_type>  (84) 
oracle

>  <origin>  (84) 
adg

>  <m_score__min__energy>  (84) 
-6.21

>  <m_primary>  (84) 
energy

$$$$
85:0
     RDKit          3D

 48 49  0  0  0  0  0  0  0  0999 V2000
  141.9740  154.8450  133.6560 C   0  0  0  0  0  0  0  0  0  0  0  0
  140.8130  155.8450  133.6610 C   0  0  0  0  0  0  0  0  0  0  0  0
  139.5690  155.2670  132.9790 C   0  0  0  0  0  0  0  0  0  0  0  0
  141.2160  157.1230  133.0410 N   0  0  0  0  0  0  0  0  0  0  0  0
  140.2200  158.1200  132.6090 C   0  0  0  0  0  0  0  0  0  0  0  0
  140.3180  159.3620  133.4400 C   0  0  0  0  0  0  0  0  0  0  0  0
  140.3970  160.4910  132.8870 O   0  0  0  0  0  0  0  0  0  0  0  0
  140.2930  159.2750  134.8270 O   0  0  0  0  0  0  0  0  0  0  0  0
  142.6200  157.4160  132.9380 C   0  0  0  0  0  0  0  0  0  0  0  0
  143.2370  157.1020  131.8850 O   0  0  0  0  0  0  0  0  0  0  0  0
  143.3460  158.1090  134.0220 C   0  0  0  0  0  0  0  0  0  0  0  0
  142.8260  158.2190  135.1630 O   0  0  0  0  0  0  0  0  0  0  0  0
  144.6450  158.6740  133.7840 N   0  0  0  0  0  0  0  0  0  0  0  0
  144.9540  159.9870  133.6030 C   0  0  0  0  0  0  0  0  0  0  0  0
  144.0210  161.1220  133.7610 C   0  0  0  0  0  0  0  0  0  0  0  0
  142.6130  160.9150  133.8780 N   0  0  0  0  0  0  0  0  0  0  0  0
  144.4810  162.2920  133.8390 O   0  0  0  0  0  0  0  0  0  0  0  0
  146.2920  160.1290  133.2420 C   0  0  0  0  0  0  0  0  0  0  0  0
  146.7960  158.8480  133.2060 C   0  0  0  0  0  0  0  0  0  0  0  0
  148.0670  158.3960  132.8740 C   0  0  0  0  0  0  0  0  0  0  0  0
  148.2930  157.0090  132.8650 C   0  0  0  0  0  0  0  0  0  0  0  0
  147.2490  156.0900  133.1710 C   0  0  0  0  0  0  0  0  0  0  0  0
  147.4880  154.6580  133.1480 N   0  0  0  0  0  0  0  0  0  0  0  0
  148.7460  154.1170  132.6150 C   0  0  0  0  0  0  0  0  0  0  0  0
  146.4760  153.7240  133.6550 C   0  0  0  0  0  0  0  0  0  0  0  0
  145.9660  156.6030  133.4950 C   0  0  0  0  0  0  0  0  0  0  0  0
  145.7810  157.9890  133.5270 C   0  0  0  0  0  0  0  0  0  0  0  0
  142.2544  154.6035  134.6919 H   0  0  0  0  0  0  0  0  0  0  0  0
  141.6644  153.9263  133.1363 H   0  0  0  0  0  0  0  0  0  0  0  0
  142.8367  155.2873  133.1363 H   0  0  0  0  0  0  0  0  0  0  0  0
  140.5489  156.0436  134.7102 H   0  0  0  0  0  0  0  0  0  0  0  0
  138.8525  154.9341  133.7444 H   0  0  0  0  0  0  0  0  0  0  0  0
  139.1021  156.0404  132.3514 H   0  0  0  0  0  0  0  0  0  0  0  0
  139.8591  154.4114  132.3514 H   0  0  0  0  0  0  0  0  0  0  0  0
  140.3998  158.3762  131.5545 H   0  0  0  0  0  0  0  0  0  0  0  0
  139.2146  157.6911  132.7320 H   0  0  0  0  0  0  0  0  0  0  0  0
  142.2170  159.9610  134.0150 H   0  0  0  0  0  0  0  0  0  0  0  0
  141.9670  161.7340  133.9310 H   0  0  0  0  0  0  0  0  0  0  0  0
  146.8308  161.0645  133.0309 H   0  0  0  0  0  0  0  0  0  0  0  0
  148.8725  159.1027  132.6255 H   0  0  0  0  0  0  0  0  0  0  0  0
  149.2941  156.6264  132.6172 H   0  0  0  0  0  0  0  0  0  0  0  0
  149.4055  153.8334  133.4485 H   0  0  0  0  0  0  0  0  0  0  0  0
  148.5323  153.2312  131.9988 H   0  0  0  0  0  0  0  0  0  0  0  0
  149.2419  154.8814  131.9988 H   0  0  0  0  0  0  0  0  0  0  0  0
  146.4864  153.7336  134.7549 H   0  0  0  0  0  0  0  0  0  0  0  0
  145.4824  154.0291  133.2951 H   0  0  0  0  0  0  0  0  0  0  0  0
  146.7006  152.7091  133.2951 H   0  0  0  0  0  0  0  0  0  0  0  0
  145.1312  155.9221  133.7172 H   0  0  0  0  0  0  0  0  0  0  0  0
  1  2  1  0
  2  3  1  0
  2  4  1  0
  4  5  1  0
  5  6  1  0
  6  7  2  0
  6  8  1  0
  4  9  1  0
  9 10  2  0
  9 11  1  0
 11 12  2  0
 11 13  1  0
 13 14  1  0
 14 15  1  0
 15 16  1  0
 15 17  2  0
 14 18  2  0
 18 19  1  0
 19 20  2  0
 20 21  1  0
 21 22  2  0
 22 23  1  0
 23 24  1  0
 23 25  1  0
 22 26  1  0
 26 27  2  0
 27 13  1  0
 27 19  1  0
  1 28  1  0
  1 29  1  0
  1 30  1  0
  2 31  1  0
  3 32  1  0
  3 33  1  0
  3 34  1  0
  5 35  1  0
  5 36  1  0
 16 37  1  0
 16 38  1  0
 18 39  1  0
 20 40  1  0
 21 41  1  0
 24 42  1  0
 24 43  1  0
 24 44  1  0
 25 45  1  0
 25 46  1  0
 25 47  1  0
 26 48  1  0
M  CHG  1   8  -1
M  END
>  <UniqueID>  (85) 
84

>  <SMILES>  (85) 
CC(C)N(CC(=O)[O-])C(=O)C(=O)n1c(C(N)=O)cc2ccc(N(C)C)cc21

>  <Energy>  (85) 
88.2022886803714

>  <Genealogy>  (85) 
CC(C)N(CC(=O)[O-])C(=O)C(=O)n1c(C(N)=O)cc2ccc(N(C)C)cc21 (protonated)
CC(C)N(CC(=O)[O-])C(=O)C(=O)n1c(C(N)=O)cc2ccc(N(C)C)cc21 (3D coordinates assigned)
CC(C)N(CC(=O)[O-])C(=O)C(=O)n1c(C(N)=O)cc2ccc(N(C)C)cc21 (optimized conformer: 88.2022886803714 kcal/mol)

>  <smiles>  (85) 
CC(C)N(CC(=O)O)C(=O)C(=O)n1c(C(N)=O)cc2ccc(N(C)C)cc21

>  <score_type>  (85) 
oracle

>  <origin>  (85) 
adg

>  <m_score__min__energy>  (85) 
-7.4400000000000004

>  <m_primary>  (85) 
energy

$$$$
86:0
     RDKit          3D

 40 42  0  0  0  0  0  0  0  0999 V2000
  148.8350  157.8560  133.3950 N   0  0  0  0  0  0  0  0  0  0  0  0
  148.1470  159.0630  133.0620 C   0  0  0  0  0  0  0  0  0  0  0  0
  148.8000  160.0460  132.6210 O   0  0  0  0  0  0  0  0  0  0  0  0
  146.6950  159.2020  133.2940 C   0  0  0  0  0  0  0  0  0  0  0  0
  146.0380  160.4290  133.2980 C   0  0  0  0  0  0  0  0  0  0  0  0
  144.7350  160.1410  133.6300 C   0  0  0  0  0  0  0  0  0  0  0  0
  143.6420  160.9910  133.7770 C   0  0  0  0  0  0  0  0  0  0  0  0
  142.4020  160.4180  134.0990 C   0  0  0  0  0  0  0  0  0  0  0  0
  142.2780  159.0170  134.2680 C   0  0  0  0  0  0  0  0  0  0  0  0
  140.9310  158.4100  134.5520 C   0  0  0  0  0  0  0  0  0  0  0  0
  140.1010  158.4750  133.3550 N   0  0  0  0  0  0  0  0  0  0  0  0
  139.6260  157.4200  132.6640 C   0  0  0  0  0  0  0  0  0  0  0  0
  138.8140  157.8900  131.6530 C   0  0  0  0  0  0  0  0  0  0  0  0
  138.8390  159.2660  131.8050 C   0  0  0  0  0  0  0  0  0  0  0  0
  138.1160  160.2410  130.9820 C   0  0  0  0  0  0  0  0  0  0  0  0
  136.8690  160.1580  130.8450 O   0  0  0  0  0  0  0  0  0  0  0  0
  138.8090  161.2640  130.3490 O   0  0  0  0  0  0  0  0  0  0  0  0
  139.6210  159.6000  132.8510 N   0  0  0  0  0  0  0  0  0  0  0  0
  143.4050  158.1840  134.0960 C   0  0  0  0  0  0  0  0  0  0  0  0
  144.6350  158.7820  133.7990 C   0  0  0  0  0  0  0  0  0  0  0  0
  145.8340  158.1890  133.5920 N   0  0  0  0  0  0  0  0  0  0  0  0
  146.1140  156.7780  133.5890 C   0  0  0  0  0  0  0  0  0  0  0  0
  145.6980  156.0500  134.5310 O   0  0  0  0  0  0  0  0  0  0  0  0
  146.8750  156.2270  132.5480 O   0  0  0  0  0  0  0  0  0  0  0  0
  147.8540  155.2390  132.7080 C   0  0  0  0  0  0  0  0  0  0  0  0
  149.0810  155.5170  132.5990 O   0  0  0  0  0  0  0  0  0  0  0  0
  147.4320  153.8470  133.0610 C   0  0  0  0  0  0  0  0  0  0  0  0
  146.1380  153.6310  132.6220 F   0  0  0  0  0  0  0  0  0  0  0  0
  148.2780  152.9420  132.4470 F   0  0  0  0  0  0  0  0  0  0  0  0
  147.4870  153.6540  134.4290 F   0  0  0  0  0  0  0  0  0  0  0  0
  149.8520  157.7560  133.1800 H   0  0  0  0  0  0  0  0  0  0  0  0
  148.3550  157.0870  133.9120 H   0  0  0  0  0  0  0  0  0  0  0  0
  146.4689  161.4177  133.0818 H   0  0  0  0  0  0  0  0  0  0  0  0
  143.7472  162.0780  133.6448 H   0  0  0  0  0  0  0  0  0  0  0  0
  141.5188  161.0623  134.2212 H   0  0  0  0  0  0  0  0  0  0  0  0
  141.0591  157.3594  134.8516 H   0  0  0  0  0  0  0  0  0  0  0  0
  140.4434  158.9687  135.3644 H   0  0  0  0  0  0  0  0  0  0  0  0
  139.8483  156.3628  132.8712 H   0  0  0  0  0  0  0  0  0  0  0  0
  138.2699  157.3044  130.8973 H   0  0  0  0  0  0  0  0  0  0  0  0
  143.3184  157.0917  134.1930 H   0  0  0  0  0  0  0  0  0  0  0  0
  1  2  1  0
  2  3  2  0
  2  4  1  0
  4  5  2  0
  5  6  1  0
  6  7  2  0
  7  8  1  0
  8  9  2  0
  9 10  1  0
 10 11  1  0
 11 12  1  0
 12 13  2  0
 13 14  1  0
 14 15  1  0
 15 16  2  0
 15 17  1  0
 14 18  2  0
  9 19  1  0
 19 20  2  0
 20 21  1  0
 21 22  1  0
 22 23  2  0
 22 24  1  0
 24 25  1  0
 25 26  2  0
 25 27  1  0
 27 28  1  0
 27 29  1  0
 27 30  1  0
 21  4  1  0
 20  6  1  0
 18 11  1  0
  1 31  1  0
  1 32  1  0
  5 33  1  0
  7 34  1  0
  8 35  1  0
 10 36  1  0
 10 37  1  0
 12 38  1  0
 13 39  1  0
 19 40  1  0
M  CHG  1  17  -1
M  END
>  <UniqueID>  (86) 
85

>  <SMILES>  (86) 
NC(=O)c1cc2ccc(Cn3ccc(C(=O)[O-])n3)cc2n1C(=O)OC(=O)C(F)(F)F

>  <Energy>  (86) 
108.35094544466226

>  <Genealogy>  (86) 
NC(=O)c1cc2ccc(Cn3ccc(C(=O)[O-])n3)cc2n1C(=O)OC(=O)C(F)(F)F (protonated)
NC(=O)c1cc2ccc(Cn3ccc(C(=O)[O-])n3)cc2n1C(=O)OC(=O)C(F)(F)F (3D coordinates assigned)
NC(=O)c1cc2ccc(Cn3ccc(C(=O)[O-])n3)cc2n1C(=O)OC(=O)C(F)(F)F (optimized conformer: 108.35094544466226 kcal/mol)

>  <smiles>  (86) 
NC(=O)c1cc2ccc(Cn3ccc(C(=O)O)n3)cc2n1C(=O)OC(=O)C(F)(F)F

>  <score_type>  (86) 
oracle

>  <origin>  (86) 
adg

>  <m_score__min__energy>  (86) 
-8.0399999999999991

>  <m_primary>  (86) 
energy

$$$$
87:0
     RDKit          3D

 42 44  0  0  0  0  0  0  0  0999 V2000
  141.0340  157.7670  134.5380 C   0  0  0  0  0  0  0  0  0  0  0  0
  142.0500  156.9360  135.1860 N   0  0  0  0  0  0  0  0  0  0  0  0
  141.8560  156.4920  136.5750 C   0  0  0  0  0  0  0  0  0  0  0  0
  140.7660  157.3130  137.2730 C   0  0  0  0  0  0  0  0  0  0  0  0
  141.3140  158.5900  137.8300 C   0  0  0  0  0  0  0  0  0  0  0  0
  141.0230  159.6920  137.2960 O   0  0  0  0  0  0  0  0  0  0  0  0
  142.1160  158.5660  138.9650 O   0  0  0  0  0  0  0  0  0  0  0  0
  143.3040  156.7300  134.5120 C   0  0  0  0  0  0  0  0  0  0  0  0
  144.1140  155.8750  134.9630 O   0  0  0  0  0  0  0  0  0  0  0  0
  143.6760  157.5160  133.3190 C   0  0  0  0  0  0  0  0  0  0  0  0
  142.9240  157.5280  132.3080 O   0  0  0  0  0  0  0  0  0  0  0  0
  144.8810  158.2940  133.3080 N   0  0  0  0  0  0  0  0  0  0  0  0
  145.0060  159.6360  133.4980 C   0  0  0  0  0  0  0  0  0  0  0  0
  143.8920  160.5940  133.6660 C   0  0  0  0  0  0  0  0  0  0  0  0
  142.5570  160.2380  133.3240 N   0  0  0  0  0  0  0  0  0  0  0  0
  144.1270  161.7540  134.1000 O   0  0  0  0  0  0  0  0  0  0  0  0
  146.3510  160.0060  133.4760 C   0  0  0  0  0  0  0  0  0  0  0  0
  147.0470  158.8350  133.2690 C   0  0  0  0  0  0  0  0  0  0  0  0
  148.4160  158.6100  133.1770 C   0  0  0  0  0  0  0  0  0  0  0  0
  148.8560  157.2890  132.9860 C   0  0  0  0  0  0  0  0  0  0  0  0
  147.9270  156.2170  132.9010 C   0  0  0  0  0  0  0  0  0  0  0  0
  148.3840  154.8190  132.7080 C   0  0  0  0  0  0  0  0  0  0  0  0
  147.6650  153.6620  132.9540 C   0  0  0  0  0  0  0  0  0  0  0  0
  148.5350  152.6490  132.6160 C   0  0  0  0  0  0  0  0  0  0  0  0
  149.6610  153.1870  132.2100 O   0  0  0  0  0  0  0  0  0  0  0  0
  149.6080  154.4860  132.2520 N   0  0  0  0  0  0  0  0  0  0  0  0
  146.5420  156.4910  133.0020 C   0  0  0  0  0  0  0  0  0  0  0  0
  146.1360  157.8180  133.1740 C   0  0  0  0  0  0  0  0  0  0  0  0
  140.4241  158.2658  135.3056 H   0  0  0  0  0  0  0  0  0  0  0  0
  141.5258  158.5250  133.9107 H   0  0  0  0  0  0  0  0  0  0  0  0
  140.3886  157.1346  133.9107 H   0  0  0  0  0  0  0  0  0  0  0  0
  141.5620  155.4320  136.5750 H   0  0  0  0  0  0  0  0  0  0  0  0
  142.8008  156.6328  137.1205 H   0  0  0  0  0  0  0  0  0  0  0  0
  139.9759  157.5502  136.5453 H   0  0  0  0  0  0  0  0  0  0  0  0
  140.3647  156.7170  138.1059 H   0  0  0  0  0  0  0  0  0  0  0  0
  142.3560  159.6090  132.5150 H   0  0  0  0  0  0  0  0  0  0  0  0
  146.7671  161.0169  133.5979 H   0  0  0  0  0  0  0  0  0  0  0  0
  149.1330  159.4409  133.2515 H   0  0  0  0  0  0  0  0  0  0  0  0
  149.9331  157.0822  132.9012 H   0  0  0  0  0  0  0  0  0  0  0  0
  146.6360  153.5722  133.3322 H   0  0  0  0  0  0  0  0  0  0  0  0
  148.3220  151.5715  132.6762 H   0  0  0  0  0  0  0  0  0  0  0  0
  145.8022  155.6789  132.9465 H   0  0  0  0  0  0  0  0  0  0  0  0
  1  2  1  0
  2  3  1  0
  3  4  1  0
  4  5  1  0
  5  6  2  0
  5  7  1  0
  2  8  1  0
  8  9  2  0
  8 10  1  0
 10 11  2  0
 10 12  1  0
 12 13  1  0
 13 14  1  0
 14 15  1  0
 14 16  2  0
 13 17  2  0
 17 18  1  0
 18 19  2  0
 19 20  1  0
 20 21  2  0
 21 22  1  0
 22 23  1  0
 23 24  2  0
 24 25  1  0
 25 26  1  0
 21 27  1  0
 27 28  2  0
 28 12  1  0
 28 18  1  0
 26 22  2  0
  1 29  1  0
  1 30  1  0
  1 31  1  0
  3 32  1  0
  3 33  1  0
  4 34  1  0
  4 35  1  0
 15 36  1  0
 17 37  1  0
 19 38  1  0
 20 39  1  0
 23 40  1  0
 24 41  1  0
 27 42  1  0
M  CHG  2   7  -1  15  -1
M  END
>  <UniqueID>  (87) 
86

>  <SMILES>  (87) 
CN(CCC(=O)[O-])C(=O)C(=O)n1c(C([NH-])=O)cc2ccc(-c3ccon3)cc21

>  <Energy>  (87) 
113.8762572393857

>  <Genealogy>  (87) 
CN(CCC(=O)[O-])C(=O)C(=O)n1c(C([NH-])=O)cc2ccc(-c3ccon3)cc21 (protonated)
CN(CCC(=O)[O-])C(=O)C(=O)n1c(C([NH-])=O)cc2ccc(-c3ccon3)cc21 (3D coordinates assigned)
CN(CCC(=O)[O-])C(=O)C(=O)n1c(C([NH-])=O)cc2ccc(-c3ccon3)cc21 (optimized conformer: 113.8762572393857 kcal/mol)

>  <smiles>  (87) 
CN(CCC(=O)O)C(=O)C(=O)n1c(C(N)=O)cc2ccc(-c3ccon3)cc21

>  <score_type>  (87) 
oracle

>  <origin>  (87) 
adg

>  <m_score__min__energy>  (87) 
-7.7800000000000002

>  <m_primary>  (87) 
energy

$$$$
88:0
     RDKit          3D

 33 34  0  0  0  0  0  0  0  0999 V2000
  149.5930  159.8680  131.1940 C   0  0  0  0  0  0  0  0  0  0  0  0
  148.5720  159.1350  132.0110 C   0  0  0  0  0  0  0  0  0  0  0  0
  147.4970  159.8510  132.5940 C   0  0  0  0  0  0  0  0  0  0  0  0
  146.5300  159.1860  133.3650 C   0  0  0  0  0  0  0  0  0  0  0  0
  146.6750  157.8150  133.5520 C   0  0  0  0  0  0  0  0  0  0  0  0
  145.8620  156.9210  134.2130 C   0  0  0  0  0  0  0  0  0  0  0  0
  146.4750  155.6820  134.0560 C   0  0  0  0  0  0  0  0  0  0  0  0
  145.9520  154.4310  134.6440 C   0  0  0  0  0  0  0  0  0  0  0  0
  145.5770  154.3570  136.0200 N   0  0  0  0  0  0  0  0  0  0  0  0
  145.7870  153.4240  133.9060 O   0  0  0  0  0  0  0  0  0  0  0  0
  147.6180  155.8000  133.3240 N   0  0  0  0  0  0  0  0  0  0  0  0
  148.4560  154.7390  132.8380 C   0  0  0  0  0  0  0  0  0  0  0  0
  149.6710  154.9710  132.5940 O   0  0  0  0  0  0  0  0  0  0  0  0
  147.9010  153.4350  132.6030 N   0  0  0  0  0  0  0  0  0  0  0  0
  148.6860  152.2770  132.2790 C   0  0  0  0  0  0  0  0  0  0  0  0
  149.9450  152.3360  132.2560 O   0  0  0  0  0  0  0  0  0  0  0  0
  148.0100  150.9680  132.0230 C   0  0  0  0  0  0  0  0  0  0  0  0
  146.6390  151.1030  132.2700 O   0  0  0  0  0  0  0  0  0  0  0  0
  147.7250  157.1120  133.0190 C   0  0  0  0  0  0  0  0  0  0  0  0
  148.6890  157.7440  132.2240 C   0  0  0  0  0  0  0  0  0  0  0  0
  150.3019  160.3769  131.8637 H   0  0  0  0  0  0  0  0  0  0  0  0
  150.1370  159.1529  130.5594 H   0  0  0  0  0  0  0  0  0  0  0  0
  149.0894  160.6121  130.5594 H   0  0  0  0  0  0  0  0  0  0  0  0
  147.4193  160.9376  132.4412 H   0  0  0  0  0  0  0  0  0  0  0  0
  145.6839  159.7322  133.8075 H   0  0  0  0  0  0  0  0  0  0  0  0
  144.9275  157.1399  134.7503 H   0  0  0  0  0  0  0  0  0  0  0  0
  145.2520  153.4510  136.4260 H   0  0  0  0  0  0  0  0  0  0  0  0
  145.5230  155.2140  136.6130 H   0  0  0  0  0  0  0  0  0  0  0  0
  146.8640  153.3280  132.6570 H   0  0  0  0  0  0  0  0  0  0  0  0
  148.1678  150.6709  130.9757 H   0  0  0  0  0  0  0  0  0  0  0  0
  148.4313  150.1981  132.6861 H   0  0  0  0  0  0  0  0  0  0  0  0
  146.5630  151.5400  133.1580 H   0  0  0  0  0  0  0  0  0  0  0  0
  149.5156  157.1720  131.7772 H   0  0  0  0  0  0  0  0  0  0  0  0
  1  2  1  0
  2  3  2  0
  3  4  1  0
  4  5  2  0
  5  6  1  0
  6  7  2  0
  7  8  1  0
  8  9  1  0
  8 10  2  0
  7 11  1  0
 11 12  1  0
 12 13  2  0
 12 14  1  0
 14 15  1  0
 15 16  2  0
 15 17  1  0
 17 18  1  0
 11 19  1  0
 19 20  2  0
 20  2  1  0
 19  5  1  0
  1 21  1  0
  1 22  1  0
  1 23  1  0
  3 24  1  0
  4 25  1  0
  6 26  1  0
  9 27  1  0
  9 28  1  0
 14 29  1  0
 17 30  1  0
 17 31  1  0
 18 32  1  0
 20 33  1  0
M  END
>  <UniqueID>  (88) 
87

>  <SMILES>  (88) 
Cc1ccc2cc(C(N)=O)n(C(=O)NC(=O)CO)c2c1

>  <Energy>  (88) 
70.4780288141093

>  <Genealogy>  (88) 
Cc1ccc2cc(C(N)=O)n(C(=O)NC(=O)CO)c2c1 (3D coordinates assigned)
Cc1ccc2cc(C(N)=O)n(C(=O)NC(=O)CO)c2c1 (optimized conformer: 70.4780288141093 kcal/mol)

>  <smiles>  (88) 
Cc1ccc2cc(C(N)=O)n(C(=O)NC(=O)CO)c2c1

>  <score_type>  (88) 
oracle

>  <origin>  (88) 
adg

>  <m_score__min__energy>  (88) 
-7.0599999999999996

>  <m_primary>  (88) 
energy

$$$$
89:0
     RDKit          3D

 41 43  0  0  0  0  0  0  0  0999 V2000
  138.9100  160.1600  131.2600 C   0  0  0  0  0  0  0  0  0  0  0  0
  139.9490  159.2080  131.6230 N   0  0  0  0  0  0  0  0  0  0  0  0
  140.7790  159.3760  132.7770 C   0  0  0  0  0  0  0  0  0  0  0  0
  140.9190  160.5140  133.3010 O   0  0  0  0  0  0  0  0  0  0  0  0
  141.5190  158.2040  133.3290 C   0  0  0  0  0  0  0  0  0  0  0  0
  142.8860  158.2960  132.9510 O   0  0  0  0  0  0  0  0  0  0  0  0
  143.9310  157.8740  133.7790 C   0  0  0  0  0  0  0  0  0  0  0  0
  143.7190  157.0160  134.6790 O   0  0  0  0  0  0  0  0  0  0  0  0
  145.2480  158.4220  133.5990 N   0  0  0  0  0  0  0  0  0  0  0  0
  145.5930  159.7400  133.5650 C   0  0  0  0  0  0  0  0  0  0  0  0
  144.7010  160.8760  133.8720 C   0  0  0  0  0  0  0  0  0  0  0  0
  143.3710  160.9340  133.3560 N   0  0  0  0  0  0  0  0  0  0  0  0
  145.1000  161.7830  134.6500 O   0  0  0  0  0  0  0  0  0  0  0  0
  146.9380  159.8900  133.2410 C   0  0  0  0  0  0  0  0  0  0  0  0
  147.4190  158.6110  133.0870 C   0  0  0  0  0  0  0  0  0  0  0  0
  148.6930  158.1720  132.7430 C   0  0  0  0  0  0  0  0  0  0  0  0
  148.9010  156.7900  132.6100 C   0  0  0  0  0  0  0  0  0  0  0  0
  147.8390  155.8710  132.8100 C   0  0  0  0  0  0  0  0  0  0  0  0
  148.0920  154.4210  132.6440 C   0  0  0  0  0  0  0  0  0  0  0  0
  149.2880  153.8170  132.2870 C   0  0  0  0  0  0  0  0  0  0  0  0
  149.0220  152.4630  132.2670 C   0  0  0  0  0  0  0  0  0  0  0  0
  149.9730  151.3910  131.9480 C   0  0  0  0  0  0  0  0  0  0  0  0
  150.1190  151.0050  130.7570 O   0  0  0  0  0  0  0  0  0  0  0  0
  150.7190  150.7950  132.9570 O   0  0  0  0  0  0  0  0  0  0  0  0
  147.6950  152.3150  132.6100 C   0  0  0  0  0  0  0  0  0  0  0  0
  147.1690  153.4990  132.8270 O   0  0  0  0  0  0  0  0  0  0  0  0
  146.5540  156.3580  133.1570 C   0  0  0  0  0  0  0  0  0  0  0  0
  146.3810  157.7410  133.3040 C   0  0  0  0  0  0  0  0  0  0  0  0
  138.4575  160.5747  132.1728 H   0  0  0  0  0  0  0  0  0  0  0  0
  139.3503  160.9747  130.6664 H   0  0  0  0  0  0  0  0  0  0  0  0
  138.1368  159.6503  130.6664 H   0  0  0  0  0  0  0  0  0  0  0  0
  141.4397  158.2020  134.4261 H   0  0  0  0  0  0  0  0  0  0  0  0
  141.0871  157.2733  132.9325 H   0  0  0  0  0  0  0  0  0  0  0  0
  142.7650  161.7590  133.5590 H   0  0  0  0  0  0  0  0  0  0  0  0
  142.9520  160.1200  132.8520 H   0  0  0  0  0  0  0  0  0  0  0  0
  147.4971  160.8309  133.1314 H   0  0  0  0  0  0  0  0  0  0  0  0
  149.5134  158.8864  132.5799 H   0  0  0  0  0  0  0  0  0  0  0  0
  149.9010  156.4147  132.3472 H   0  0  0  0  0  0  0  0  0  0  0  0
  150.2453  154.3119  132.0666 H   0  0  0  0  0  0  0  0  0  0  0  0
  147.1609  151.3567  132.6894 H   0  0  0  0  0  0  0  0  0  0  0  0
  145.7119  155.6664  133.3075 H   0  0  0  0  0  0  0  0  0  0  0  0
  1  2  1  0
  2  3  1  0
  3  4  2  0
  3  5  1  0
  5  6  1  0
  6  7  1  0
  7  8  2  0
  7  9  1  0
  9 10  1  0
 10 11  1  0
 11 12  1  0
 11 13  2  0
 10 14  2  0
 14 15  1  0
 15 16  2  0
 16 17  1  0
 17 18  2  0
 18 19  1  0
 19 20  2  0
 20 21  1  0
 21 22  1  0
 22 23  2  0
 22 24  1  0
 21 25  2  0
 25 26  1  0
 18 27  1  0
 27 28  2  0
 28  9  1  0
 28 15  1  0
 26 19  1  0
  1 29  1  0
  1 30  1  0
  1 31  1  0
  5 32  1  0
  5 33  1  0
 12 34  1  0
 12 35  1  0
 14 36  1  0
 16 37  1  0
 17 38  1  0
 20 39  1  0
 25 40  1  0
 27 41  1  0
M  CHG  2   2  -1  24  -1
M  END
>  <UniqueID>  (89) 
88

>  <SMILES>  (89) 
C[N-]C(=O)COC(=O)n1c(C(N)=O)cc2ccc(-c3cc(C(=O)[O-])co3)cc21

>  <Energy>  (89) 
103.35397973444267

>  <Genealogy>  (89) 
C[N-]C(=O)COC(=O)n1c(C(N)=O)cc2ccc(-c3cc(C(=O)[O-])co3)cc21 (protonated)
C[N-]C(=O)COC(=O)n1c(C(N)=O)cc2ccc(-c3cc(C(=O)[O-])co3)cc21 (3D coordinates assigned)
C[N-]C(=O)COC(=O)n1c(C(N)=O)cc2ccc(-c3cc(C(=O)[O-])co3)cc21 (optimized conformer: 103.35397973444267 kcal/mol)

>  <smiles>  (89) 
CNC(=O)COC(=O)n1c(C(N)=O)cc2ccc(-c3cc(C(=O)O)co3)cc21

>  <score_type>  (89) 
oracle

>  <origin>  (89) 
adg

>  <m_score__min__energy>  (89) 
-7.71

>  <m_primary>  (89) 
energy

$$$$
90:0
     RDKit          3D

 33 34  0  0  0  0  0  0  0  0999 V2000
  139.3600  156.0180  132.6000 N   0  0  0  0  0  0  0  0  0  0  0  0
  139.7580  157.1990  133.2910 C   0  0  0  0  0  0  0  0  0  0  0  0
  138.8790  157.9310  133.8180 O   0  0  0  0  0  0  0  0  0  0  0  0
  141.1770  157.6050  133.3450 C   0  0  0  0  0  0  0  0  0  0  0  0
  142.2300  156.6980  133.4460 C   0  0  0  0  0  0  0  0  0  0  0  0
  143.3650  157.4660  133.5610 C   0  0  0  0  0  0  0  0  0  0  0  0
  144.6980  157.0810  133.6710 C   0  0  0  0  0  0  0  0  0  0  0  0
  145.6720  158.0910  133.7350 C   0  0  0  0  0  0  0  0  0  0  0  0
  145.2980  159.4580  133.6910 C   0  0  0  0  0  0  0  0  0  0  0  0
  146.3550  160.5270  133.7010 C   0  0  0  0  0  0  0  0  0  0  0  0
  147.6480  159.9680  133.1950 C   0  0  0  0  0  0  0  0  0  0  0  0
  148.2260  159.0550  133.8460 O   0  0  0  0  0  0  0  0  0  0  0  0
  148.1950  160.4310  131.9520 N   0  0  0  0  0  0  0  0  0  0  0  0
  149.3730  159.8220  131.3400 C   0  0  0  0  0  0  0  0  0  0  0  0
  149.8270  160.6390  130.1740 C   0  0  0  0  0  0  0  0  0  0  0  0
  149.3870  161.8060  130.0100 O   0  0  0  0  0  0  0  0  0  0  0  0
  150.7100  160.1000  129.2470 O   0  0  0  0  0  0  0  0  0  0  0  0
  143.9360  159.8100  133.5690 C   0  0  0  0  0  0  0  0  0  0  0  0
  142.9850  158.7830  133.5230 C   0  0  0  0  0  0  0  0  0  0  0  0
  141.6450  158.8860  133.3860 N   0  0  0  0  0  0  0  0  0  0  0  0
  140.8950  160.0990  133.2130 C   0  0  0  0  0  0  0  0  0  0  0  0
  139.8030  160.0880  132.5870 O   0  0  0  0  0  0  0  0  0  0  0  0
  141.3530  161.2920  133.7600 O   0  0  0  0  0  0  0  0  0  0  0  0
  138.3870  155.6490  132.6840 H   0  0  0  0  0  0  0  0  0  0  0  0
  142.1668  155.5999  133.4359 H   0  0  0  0  0  0  0  0  0  0  0  0
  144.9800  156.0184  133.7067 H   0  0  0  0  0  0  0  0  0  0  0  0
  146.7345  157.8190  133.8200 H   0  0  0  0  0  0  0  0  0  0  0  0
  146.0390  161.3587  133.0542 H   0  0  0  0  0  0  0  0  0  0  0  0
  146.4946  160.8894  134.7302 H   0  0  0  0  0  0  0  0  0  0  0  0
  147.7280  161.2210  131.4540 H   0  0  0  0  0  0  0  0  0  0  0  0
  150.1821  159.7679  132.0832 H   0  0  0  0  0  0  0  0  0  0  0  0
  149.1156  158.8107  130.9922 H   0  0  0  0  0  0  0  0  0  0  0  0
  143.6295  160.8649  133.5115 H   0  0  0  0  0  0  0  0  0  0  0  0
  1  2  1  0
  2  3  2  0
  2  4  1  0
  4  5  2  0
  5  6  1  0
  6  7  2  0
  7  8  1  0
  8  9  2  0
  9 10  1  0
 10 11  1  0
 11 12  2  0
 11 13  1  0
 13 14  1  0
 14 15  1  0
 15 16  2  0
 15 17  1  0
  9 18  1  0
 18 19  2  0
 19 20  1  0
 20 21  1  0
 21 22  2  0
 21 23  1  0
 20  4  1  0
 19  6  1  0
  1 24  1  0
  5 25  1  0
  7 26  1  0
  8 27  1  0
 10 28  1  0
 10 29  1  0
 13 30  1  0
 14 31  1  0
 14 32  1  0
 18 33  1  0
M  CHG  3   1  -1  17  -1  23  -1
M  END
>  <UniqueID>  (90) 
89

>  <SMILES>  (90) 
[NH-]C(=O)c1cc2ccc(CC(=O)NCC(=O)[O-])cc2n1C(=O)[O-]

>  <Energy>  (90) 
67.63739677557835

>  <Genealogy>  (90) 
[NH-]C(=O)c1cc2ccc(CC(=O)NCC(=O)[O-])cc2n1C(=O)[O-] (protonated)
[NH-]C(=O)c1cc2ccc(CC(=O)NCC(=O)[O-])cc2n1C(=O)[O-] (3D coordinates assigned)
[NH-]C(=O)c1cc2ccc(CC(=O)NCC(=O)[O-])cc2n1C(=O)[O-] (optimized conformer: 67.63739677557835 kcal/mol)

>  <smiles>  (90) 
NC(=O)c1cc2ccc(CC(=O)NCC(=O)O)cc2n1C(=O)O

>  <score_type>  (90) 
oracle

>  <origin>  (90) 
adg

>  <m_score__min__energy>  (90) 
-6.8200000000000003

>  <m_primary>  (90) 
energy

$$$$
91:0
     RDKit          3D

 31 32  0  0  0  0  0  0  0  0999 V2000
  144.7771  154.9499  136.5661 H   0  0  0  0  0  0  0  0  0  0  0  0
  145.4490  154.6770  135.7390 C   0  0  0  0  0  0  0  0  0  0  0  0
  146.8060  154.2260  136.0960 C   0  0  0  0  0  0  0  0  0  0  0  0
  147.8230  154.8870  135.7650 O   0  0  0  0  0  0  0  0  0  0  0  0
  146.9680  153.0040  136.7340 O   0  0  0  0  0  0  0  0  0  0  0  0
  144.9610  154.7840  134.4930 C   0  0  0  0  0  0  0  0  0  0  0  0
  143.8806  154.9644  134.3919 H   0  0  0  0  0  0  0  0  0  0  0  0
  145.7460  154.6810  133.2450 C   0  0  0  0  0  0  0  0  0  0  0  0
  145.2860  153.9780  132.3060 O   0  0  0  0  0  0  0  0  0  0  0  0
  146.9730  155.4090  133.0460 N   0  0  0  0  0  0  0  0  0  0  0  0
  148.2130  154.9110  132.7760 C   0  0  0  0  0  0  0  0  0  0  0  0
  148.5800  153.4780  132.7630 C   0  0  0  0  0  0  0  0  0  0  0  0
  149.2360  153.0020  131.8000 O   0  0  0  0  0  0  0  0  0  0  0  0
  148.1660  152.6110  133.8210 N   0  0  0  0  0  0  0  0  0  0  0  0
  148.3980  151.5940  133.7850 H   0  0  0  0  0  0  0  0  0  0  0  0
  147.6670  152.9800  134.6600 H   0  0  0  0  0  0  0  0  0  0  0  0
  149.1310  155.9470  132.6130 C   0  0  0  0  0  0  0  0  0  0  0  0
  150.2020  155.8583  132.3783 H   0  0  0  0  0  0  0  0  0  0  0  0
  148.4130  157.1040  132.8080 C   0  0  0  0  0  0  0  0  0  0  0  0
  148.8240  158.4330  132.7540 C   0  0  0  0  0  0  0  0  0  0  0  0
  149.8718  158.6944  132.5448 H   0  0  0  0  0  0  0  0  0  0  0  0
  147.8590  159.4300  132.9750 C   0  0  0  0  0  0  0  0  0  0  0  0
  148.1508  160.4897  132.9327 H   0  0  0  0  0  0  0  0  0  0  0  0
  146.5130  159.0830  133.2520 C   0  0  0  0  0  0  0  0  0  0  0  0
  145.4830  160.1570  133.4350 C   0  0  0  0  0  0  0  0  0  0  0  0
  145.3187  160.3283  134.5091 H   0  0  0  0  0  0  0  0  0  0  0  0
  145.8355  161.0870  132.9651 H   0  0  0  0  0  0  0  0  0  0  0  0
  144.5391  159.8437  132.9651 H   0  0  0  0  0  0  0  0  0  0  0  0
  146.1310  157.7250  133.2850 C   0  0  0  0  0  0  0  0  0  0  0  0
  145.0856  157.4376  133.4711 H   0  0  0  0  0  0  0  0  0  0  0  0
  147.1160  156.7530  133.0750 C   0  0  0  0  0  0  0  0  0  0  0  0
  1  2  1  0
  2  3  1  0
  3  4  2  0
  3  5  1  0
  2  6  2  0
  6  7  1  0
  6  8  1  0
  8  9  2  0
  8 10  1  0
 10 11  1  0
 11 12  1  0
 12 13  2  0
 12 14  1  0
 14 15  1  0
 14 16  1  0
 11 17  2  0
 17 18  1  0
 17 19  1  0
 19 20  2  0
 20 21  1  0
 20 22  1  0
 22 23  1  0
 22 24  2  0
 24 25  1  0
 25 26  1  0
 25 27  1  0
 25 28  1  0
 24 29  1  0
 29 30  1  0
 29 31  2  0
 31 10  1  0
 31 19  1  0
M  CHG  1   5  -1
M  END
>  <UniqueID>  (91) 
90

>  <SMILES>  (91) 
Cc1ccc2cc(C(N)=O)n(C(=O)/C=C\C(=O)[O-])c2c1

>  <Energy>  (91) 
75.38218552271425

>  <Genealogy>  (91) 
Cc1ccc2cc(C(N)=O)n(C(=O)C=CC(=O)[O-])c2c1 (protonated)
Cc1ccc2cc(C(N)=O)n(C(=O)/C=C\C(=O)[O-])c2c1 (cis-trans isomerization)
Cc1ccc2cc(C(N)=O)n(C(=O)/C=C\C(=O)[O-])c2c1 (3D coordinates assigned)
Cc1ccc2cc(C(N)=O)n(C(=O)/C=C\C(=O)[O-])c2c1 (optimized conformer: 75.38218552271425 kcal/mol)

>  <smiles>  (91) 
Cc1ccc2cc(C(N)=O)n(C(=O)C=CC(=O)O)c2c1

>  <score_type>  (91) 
oracle

>  <origin>  (91) 
adg

>  <m_score__min__energy>  (91) 
-7.0099999999999998

>  <m_primary>  (91) 
energy

$$$$
92:0
     RDKit          3D

 44 46  0  0  0  0  0  0  0  0999 V2000
  139.7080  158.9860  130.9960 C   0  0  0  0  0  0  0  0  0  0  0  0
  140.5830  158.2460  131.8470 O   0  0  0  0  0  0  0  0  0  0  0  0
  140.5340  158.3530  133.2440 C   0  0  0  0  0  0  0  0  0  0  0  0
  139.4760  157.8010  133.9920 C   0  0  0  0  0  0  0  0  0  0  0  0
  138.3330  157.2240  133.3550 N   0  0  0  0  0  0  0  0  0  0  0  0
  139.5000  157.8860  135.3470 N   0  0  0  0  0  0  0  0  0  0  0  0
  140.5100  158.5140  135.9980 C   0  0  0  0  0  0  0  0  0  0  0  0
  141.5110  159.0980  135.2960 N   0  0  0  0  0  0  0  0  0  0  0  0
  141.5500  159.0440  133.9370 C   0  0  0  0  0  0  0  0  0  0  0  0
  142.6390  159.6840  133.2420 N   0  0  0  0  0  0  0  0  0  0  0  0
  143.8680  158.9790  133.5080 C   0  0  0  0  0  0  0  0  0  0  0  0
  145.1170  159.6390  133.3660 C   0  0  0  0  0  0  0  0  0  0  0  0
  146.3210  158.9560  133.6140 C   0  0  0  0  0  0  0  0  0  0  0  0
  146.2460  157.6170  133.9950 C   0  0  0  0  0  0  0  0  0  0  0  0
  147.2490  156.7350  134.3250 C   0  0  0  0  0  0  0  0  0  0  0  0
  146.6000  155.5400  134.6350 C   0  0  0  0  0  0  0  0  0  0  0  0
  147.3120  154.2860  134.9550 C   0  0  0  0  0  0  0  0  0  0  0  0
  146.9470  153.5070  136.0930 N   0  0  0  0  0  0  0  0  0  0  0  0
  148.2140  153.8670  134.1830 O   0  0  0  0  0  0  0  0  0  0  0  0
  145.2490  155.6780  134.5120 N   0  0  0  0  0  0  0  0  0  0  0  0
  144.2310  154.7090  134.8120 C   0  0  0  0  0  0  0  0  0  0  0  0
  144.0170  154.3690  136.0110 O   0  0  0  0  0  0  0  0  0  0  0  0
  143.4710  154.1570  133.7730 O   0  0  0  0  0  0  0  0  0  0  0  0
  142.1220  153.7230  133.9360 C   0  0  0  0  0  0  0  0  0  0  0  0
  141.2020  154.9010  134.0190 C   0  0  0  0  0  0  0  0  0  0  0  0
  141.4760  155.8650  134.7830 O   0  0  0  0  0  0  0  0  0  0  0  0
  140.0580  154.9500  133.2290 O   0  0  0  0  0  0  0  0  0  0  0  0
  145.0480  156.9570  134.1170 C   0  0  0  0  0  0  0  0  0  0  0  0
  143.8340  157.6170  133.8960 C   0  0  0  0  0  0  0  0  0  0  0  0
  139.0111  159.5753  131.6100 H   0  0  0  0  0  0  0  0  0  0  0  0
  140.2992  159.6622  130.3611 H   0  0  0  0  0  0  0  0  0  0  0  0
  139.1393  158.2907  130.3611 H   0  0  0  0  0  0  0  0  0  0  0  0
  137.5090  157.8200  133.1190 H   0  0  0  0  0  0  0  0  0  0  0  0
  138.3440  156.2440  133.0000 H   0  0  0  0  0  0  0  0  0  0  0  0
  140.5168  158.5494  137.0974 H   0  0  0  0  0  0  0  0  0  0  0  0
  142.4640  159.7380  132.2110 H   0  0  0  0  0  0  0  0  0  0  0  0
  142.7190  160.6700  133.5840 H   0  0  0  0  0  0  0  0  0  0  0  0
  145.1432  160.6950  133.0590 H   0  0  0  0  0  0  0  0  0  0  0  0
  147.2919  159.4625  133.5106 H   0  0  0  0  0  0  0  0  0  0  0  0
  148.3314  156.9305  134.3409 H   0  0  0  0  0  0  0  0  0  0  0  0
  145.9770  153.5440  136.4810 H   0  0  0  0  0  0  0  0  0  0  0  0
  141.8355  153.0990  133.0766 H   0  0  0  0  0  0  0  0  0  0  0  0
  142.0437  153.1424  134.8670 H   0  0  0  0  0  0  0  0  0  0  0  0
  142.8761  157.0907  134.0206 H   0  0  0  0  0  0  0  0  0  0  0  0
  1  2  1  0
  2  3  1  0
  3  4  2  0
  4  5  1  0
  4  6  1  0
  6  7  2  0
  7  8  1  0
  8  9  2  0
  9 10  1  0
 10 11  1  0
 11 12  2  0
 12 13  1  0
 13 14  2  0
 14 15  1  0
 15 16  2  0
 16 17  1  0
 17 18  1  0
 17 19  2  0
 16 20  1  0
 20 21  1  0
 21 22  2  0
 21 23  1  0
 23 24  1  0
 24 25  1  0
 25 26  2  0
 25 27  1  0
 20 28  1  0
 28 29  2  0
  9  3  1  0
 29 11  1  0
 28 14  1  0
  1 30  1  0
  1 31  1  0
  1 32  1  0
  5 33  1  0
  5 34  1  0
  7 35  1  0
 10 36  1  0
 10 37  1  0
 12 38  1  0
 13 39  1  0
 15 40  1  0
 18 41  1  0
 24 42  1  0
 24 43  1  0
 29 44  1  0
M  CHG  3  10   1  18  -1  27  -1
M  END
>  <UniqueID>  (92) 
91

>  <SMILES>  (92) 
COc1c(N)ncnc1[NH2+]c1ccc2cc(C([NH-])=O)n(C(=O)OCC(=O)[O-])c2c1

>  <Energy>  (92) 
92.55549287209946

>  <Genealogy>  (92) 
COc1c(N)ncnc1[NH2+]c1ccc2cc(C([NH-])=O)n(C(=O)OCC(=O)[O-])c2c1 (protonated)
COc1c(N)ncnc1[NH2+]c1ccc2cc(C([NH-])=O)n(C(=O)OCC(=O)[O-])c2c1 (3D coordinates assigned)
COc1c(N)ncnc1[NH2+]c1ccc2cc(C([NH-])=O)n(C(=O)OCC(=O)[O-])c2c1 (optimized conformer: 92.55549287209946 kcal/mol)

>  <smiles>  (92) 
COc1c(N)ncnc1Nc1ccc2cc(C(N)=O)n(C(=O)OCC(=O)O)c2c1

>  <score_type>  (92) 
oracle

>  <origin>  (92) 
adg

>  <m_score__min__energy>  (92) 
-6.0499999999999998

>  <m_primary>  (92) 
energy

$$$$
93:0
     RDKit          3D

 38 40  0  0  0  0  0  0  0  0999 V2000
  139.8570  150.1360  138.1320 N   0  0  0  0  0  0  0  0  0  0  0  0
  140.8560  150.9210  138.7790 C   0  0  0  0  0  0  0  0  0  0  0  0
  141.6160  150.3770  139.6240 O   0  0  0  0  0  0  0  0  0  0  0  0
  140.9620  152.3660  138.4840 C   0  0  0  0  0  0  0  0  0  0  0  0
  140.7430  153.3620  139.4340 C   0  0  0  0  0  0  0  0  0  0  0  0
  141.0260  154.5450  138.7930 C   0  0  0  0  0  0  0  0  0  0  0  0
  140.9620  155.8550  139.2620 C   0  0  0  0  0  0  0  0  0  0  0  0
  141.2820  156.8910  138.3680 C   0  0  0  0  0  0  0  0  0  0  0  0
  141.6600  156.6020  137.0330 C   0  0  0  0  0  0  0  0  0  0  0  0
  141.9530  157.7200  136.0730 C   0  0  0  0  0  0  0  0  0  0  0  0
  140.4510  158.6990  135.7700 P   0  0  1  0  0  0  0  0  0  0  0  0
  139.2500  157.9800  136.3420 O   0  0  0  0  0  0  0  0  0  0  0  0
  140.6100  160.2070  136.5160 O   0  0  0  0  0  0  0  0  0  0  0  0
  140.2410  158.9130  134.1050 O   0  0  0  0  0  0  0  0  0  0  0  0
  141.7040  155.2610  136.5910 C   0  0  0  0  0  0  0  0  0  0  0  0
  141.3960  154.2490  137.5070 C   0  0  0  0  0  0  0  0  0  0  0  0
  141.3560  152.9140  137.2990 N   0  0  0  0  0  0  0  0  0  0  0  0
  141.6230  152.2390  136.0600 C   0  0  0  0  0  0  0  0  0  0  0  0
  141.0090  151.1750  135.7780 O   0  0  0  0  0  0  0  0  0  0  0  0
  142.5490  152.7810  135.1600 O   0  0  0  0  0  0  0  0  0  0  0  0
  142.2760  152.9680  133.7740 C   0  0  0  0  0  0  0  0  0  0  0  0
  141.6050  154.2870  133.5530 C   0  0  0  0  0  0  0  0  0  0  0  0
  140.3050  154.4710  133.5080 O   0  0  0  0  0  0  0  0  0  0  0  0
  140.1310  155.7600  133.3180 C   0  0  0  0  0  0  0  0  0  0  0  0
  139.0000  156.3030  133.2220 O   0  0  0  0  0  0  0  0  0  0  0  0
  141.2640  156.4210  133.2390 O   0  0  0  0  0  0  0  0  0  0  0  0
  142.2010  155.5170  133.3850 C   0  0  0  0  0  0  0  0  0  0  0  0
  143.5650  155.7830  133.3730 O   0  0  0  0  0  0  0  0  0  0  0  0
  139.9680  149.8390  137.1380 H   0  0  0  0  0  0  0  0  0  0  0  0
  140.4137  153.2298  140.4752 H   0  0  0  0  0  0  0  0  0  0  0  0
  140.6700  156.0719  140.3001 H   0  0  0  0  0  0  0  0  0  0  0  0
  141.2387  157.9364  138.7077 H   0  0  0  0  0  0  0  0  0  0  0  0
  142.7306  158.3706  136.4996 H   0  0  0  0  0  0  0  0  0  0  0  0
  142.3007  157.2930  135.1208 H   0  0  0  0  0  0  0  0  0  0  0  0
  140.2760  157.9990  133.7260 H   0  0  0  0  0  0  0  0  0  0  0  0
  141.9737  155.0184  135.5525 H   0  0  0  0  0  0  0  0  0  0  0  0
  143.2206  152.9420  133.2109 H   0  0  0  0  0  0  0  0  0  0  0  0
  141.6100  152.1639  133.4276 H   0  0  0  0  0  0  0  0  0  0  0  0
  1  2  1  0
  2  3  2  0
  2  4  1  0
  4  5  2  0
  5  6  1  0
  6  7  2  0
  7  8  1  0
  8  9  2  0
  9 10  1  0
 10 11  1  0
 11 12  2  0
 11 13  1  1
 11 14  1  0
  9 15  1  0
 15 16  2  0
 16 17  1  0
 17 18  1  0
 18 19  2  0
 18 20  1  0
 20 21  1  0
 21 22  1  0
 22 23  1  0
 23 24  1  0
 24 25  2  0
 24 26  1  0
 26 27  1  0
 27 28  1  0
 17  4  1  0
 27 22  2  0
 16  6  1  0
  1 29  1  0
  5 30  1  0
  7 31  1  0
  8 32  1  0
 10 33  1  0
 10 34  1  0
 14 35  1  0
 15 36  1  0
 21 37  1  0
 21 38  1  0
M  CHG  3   1  -1  13  -1  28  -1
M  END
>  <UniqueID>  (93) 
92

>  <SMILES>  (93) 
[NH-]C(=O)c1cc2ccc(C[P@@](=O)([O-])O)cc2n1C(=O)OCc1oc(=O)oc1[O-]

>  <Energy>  (93) 
105.50382630738765

>  <Genealogy>  (93) 
[NH-]C(=O)c1cc2ccc(CP(=O)([O-])O)cc2n1C(=O)OCc1oc(=O)oc1[O-] (protonated)
[NH-]C(=O)c1cc2ccc(C[P@@](=O)([O-])O)cc2n1C(=O)OCc1oc(=O)oc1[O-] (chirality)
[NH-]C(=O)c1cc2ccc(C[P@@](=O)([O-])O)cc2n1C(=O)OCc1oc(=O)oc1[O-] (3D coordinates assigned)
[NH-]C(=O)c1cc2ccc(C[P@@](=O)([O-])O)cc2n1C(=O)OCc1oc(=O)oc1[O-] (optimized conformer: 105.50382630738765 kcal/mol)

>  <smiles>  (93) 
NC(=O)c1cc2ccc(CP(=O)(O)O)cc2n1C(=O)OCc1oc(=O)oc1O

>  <score_type>  (93) 
oracle

>  <origin>  (93) 
adg

>  <m_score__min__energy>  (93) 
-7.1200000000000001

>  <m_primary>  (93) 
energy

$$$$
94:0
     RDKit          3D

 38 39  0  0  0  0  0  0  0  0999 V2000
  139.1680  155.6730  132.9460 C   0  0  0  0  0  0  0  0  0  0  0  0
  139.8810  156.8950  133.3390 N   0  0  1  0  0  0  0  0  0  0  0  0
  138.9630  157.8610  133.8900 C   0  0  0  0  0  0  0  0  0  0  0  0
  138.6890  157.8490  135.1240 O   0  0  0  0  0  0  0  0  0  0  0  0
  138.3470  158.7860  133.0350 O   0  0  0  0  0  0  0  0  0  0  0  0
  138.6020  158.9010  131.6640 C   0  0  0  0  0  0  0  0  0  0  0  0
  139.0400  157.9220  130.9990 O   0  0  0  0  0  0  0  0  0  0  0  0
  138.2710  160.1810  130.9710 C   0  0  0  0  0  0  0  0  0  0  0  0
  138.5950  160.0800  129.6320 F   0  0  0  0  0  0  0  0  0  0  0  0
  139.0000  161.2090  131.5380 F   0  0  0  0  0  0  0  0  0  0  0  0
  136.9210  160.4630  131.0880 F   0  0  0  0  0  0  0  0  0  0  0  0
  140.9410  156.5830  134.2720 C   0  0  0  0  0  0  0  0  0  0  0  0
  141.6600  155.5580  134.1100 O   0  0  0  0  0  0  0  0  0  0  0  0
  141.2670  157.5030  135.3230 N   0  0  0  0  0  0  0  0  0  0  0  0
  141.6280  158.8120  135.2180 C   0  0  0  0  0  0  0  0  0  0  0  0
  141.6910  159.5990  133.9690 C   0  0  0  0  0  0  0  0  0  0  0  0
  141.4300  158.9940  132.7060 N   0  0  0  0  0  0  0  0  0  0  0  0
  141.9550  160.8310  134.0200 O   0  0  0  0  0  0  0  0  0  0  0  0
  141.8860  159.3470  136.4810 C   0  0  0  0  0  0  0  0  0  0  0  0
  141.6570  158.3180  137.3670 C   0  0  0  0  0  0  0  0  0  0  0  0
  141.7520  158.2890  138.7530 C   0  0  0  0  0  0  0  0  0  0  0  0
  141.4510  157.0820  139.4090 C   0  0  0  0  0  0  0  0  0  0  0  0
  141.0560  155.9370  138.6720 C   0  0  0  0  0  0  0  0  0  0  0  0
  140.7720  154.6430  139.3790 C   0  0  0  0  0  0  0  0  0  0  0  0
  140.6830  153.6190  138.4520 F   0  0  0  0  0  0  0  0  0  0  0  0
  139.5840  154.7300  140.0800 F   0  0  0  0  0  0  0  0  0  0  0  0
  140.9870  156.0010  137.2620 C   0  0  0  0  0  0  0  0  0  0  0  0
  141.2840  157.2180  136.6400 C   0  0  0  0  0  0  0  0  0  0  0  0
  138.8501  155.1281  133.8471 H   0  0  0  0  0  0  0  0  0  0  0  0
  138.2841  155.9404  132.3482 H   0  0  0  0  0  0  0  0  0  0  0  0
  139.8357  155.0351  132.3482 H   0  0  0  0  0  0  0  0  0  0  0  0
  140.3090  157.3070  132.4780 H   0  0  0  0  0  0  0  0  0  0  0  0
  140.4720  158.6580  132.4570 H   0  0  0  0  0  0  0  0  0  0  0  0
  142.2046  160.3728  136.7183 H   0  0  0  0  0  0  0  0  0  0  0  0
  142.0533  159.1825  139.3195 H   0  0  0  0  0  0  0  0  0  0  0  0
  141.5228  157.0257  140.5052 H   0  0  0  0  0  0  0  0  0  0  0  0
  141.5904  154.4371  140.0845 H   0  0  0  0  0  0  0  0  0  0  0  0
  140.7072  155.1174  136.6695 H   0  0  0  0  0  0  0  0  0  0  0  0
  1  2  1  0
  2  3  1  0
  3  4  2  0
  3  5  1  0
  5  6  1  0
  6  7  2  0
  6  8  1  0
  8  9  1  0
  8 10  1  0
  8 11  1  0
  2 12  1  0
 12 13  2  0
 12 14  1  0
 14 15  1  0
 15 16  1  0
 16 17  1  0
 16 18  2  0
 15 19  2  0
 19 20  1  0
 20 21  2  0
 21 22  1  0
 22 23  2  0
 23 24  1  0
 24 25  1  0
 24 26  1  0
 23 27  1  0
 27 28  2  0
 28 14  1  0
 28 20  1  0
  1 29  1  0
  1 30  1  0
  1 31  1  0
  2 32  1  6
 17 33  1  0
 19 34  1  0
 21 35  1  0
 22 36  1  0
 24 37  1  0
 27 38  1  0
M  CHG  2   2   1  17  -1
M  END
>  <UniqueID>  (94) 
93

>  <SMILES>  (94) 
C[NH+](C(=O)OC(=O)C(F)(F)F)C(=O)n1c(C([NH-])=O)cc2ccc(C(F)F)cc21

>  <Energy>  (94) 
80.34076015450034

>  <Genealogy>  (94) 
C[NH+](C(=O)OC(=O)C(F)(F)F)C(=O)n1c(C([NH-])=O)cc2ccc(C(F)F)cc21 (protonated)
C[NH+](C(=O)OC(=O)C(F)(F)F)C(=O)n1c(C([NH-])=O)cc2ccc(C(F)F)cc21 (3D coordinates assigned)
C[NH+](C(=O)OC(=O)C(F)(F)F)C(=O)n1c(C([NH-])=O)cc2ccc(C(F)F)cc21 (optimized conformer: 80.34076015450034 kcal/mol)

>  <smiles>  (94) 
CN(C(=O)OC(=O)C(F)(F)F)C(=O)n1c(C(N)=O)cc2ccc(C(F)F)cc21

>  <score_type>  (94) 
oracle

>  <origin>  (94) 
adg

>  <m_score__min__energy>  (94) 
-5.5

>  <m_primary>  (94) 
energy

$$$$
95:0
     RDKit          3D

 59 62  0  0  0  0  0  0  0  0999 V2000
  147.4610  154.4310  134.8400 C   0  0  0  0  0  0  0  0  0  0  0  0
  147.3010  153.8850  133.4120 C   0  0  2  0  0  0  0  0  0  0  0  0
  147.4950  154.9440  132.4070 N   0  0  0  0  0  0  0  0  0  0  0  0
  147.4730  156.3690  132.6370 C   0  0  0  0  0  0  0  0  0  0  0  0
  148.6360  157.1800  132.5140 C   0  0  0  0  0  0  0  0  0  0  0  0
  148.5740  158.5660  132.7330 C   0  0  0  0  0  0  0  0  0  0  0  0
  147.3490  159.1170  133.0900 C   0  0  0  0  0  0  0  0  0  0  0  0
  147.0030  160.4290  133.3240 C   0  0  0  0  0  0  0  0  0  0  0  0
  145.6400  160.4020  133.6220 C   0  0  0  0  0  0  0  0  0  0  0  0
  144.8670  161.6020  134.0060 C   0  0  0  0  0  0  0  0  0  0  0  0
  143.4600  161.6430  133.7780 N   0  0  0  0  0  0  0  0  0  0  0  0
  145.4400  162.6050  134.5050 O   0  0  0  0  0  0  0  0  0  0  0  0
  145.1650  159.1260  133.5720 N   0  0  0  0  0  0  0  0  0  0  0  0
  143.8070  158.6870  133.7350 C   0  0  0  0  0  0  0  0  0  0  0  0
  143.2340  158.8150  134.8510 O   0  0  0  0  0  0  0  0  0  0  0  0
  143.1360  158.0980  132.6600 O   0  0  0  0  0  0  0  0  0  0  0  0
  141.7160  158.0560  132.5700 C   0  0  0  0  0  0  0  0  0  0  0  0
  141.1430  159.4220  132.9080 C   0  0  0  0  0  0  0  0  0  0  0  0
  139.9090  159.2800  133.5150 F   0  0  0  0  0  0  0  0  0  0  0  0
  146.2240  158.3520  133.2460 C   0  0  0  0  0  0  0  0  0  0  0  0
  146.2520  156.9720  133.0170 C   0  0  0  0  0  0  0  0  0  0  0  0
  145.9940  153.1480  133.2130 C   0  0  0  0  0  0  0  0  0  0  0  0
  145.9860  152.0420  132.6070 O   0  0  0  0  0  0  0  0  0  0  0  0
  144.7570  153.6730  133.7310 N   0  0  0  0  0  0  0  0  0  0  0  0
  144.4950  153.6730  135.1830 C   0  0  0  0  0  0  0  0  0  0  0  0
  142.9960  153.8990  135.4700 C   0  0  1  0  0  0  0  0  0  0  0  0
  142.5170  155.1900  134.7750 C   0  0  0  0  0  0  0  0  0  0  0  0
  142.9450  155.2770  133.2970 C   0  0  0  0  0  0  0  0  0  0  0  0
  143.6580  154.0050  132.8050 C   0  0  2  0  0  0  0  0  0  0  0  0
  142.6680  152.8200  132.6590 C   0  0  0  0  0  0  0  0  0  0  0  0
  142.5730  151.9710  133.8570 N   0  0  0  0  0  0  0  0  0  0  0  0
  142.1220  152.6780  135.0670 C   0  0  0  0  0  0  0  0  0  0  0  0
  147.2282  153.6367  135.5645 H   0  0  0  0  0  0  0  0  0  0  0  0
  148.4965  154.7709  134.9887 H   0  0  0  0  0  0  0  0  0  0  0  0
  146.7727  155.2761  134.9887 H   0  0  0  0  0  0  0  0  0  0  0  0
  148.0971  153.1401  133.2660 H   0  0  0  0  0  0  0  0  0  0  0  0
  147.7850  154.6200  131.4560 H   0  0  0  0  0  0  0  0  0  0  0  0
  149.5958  156.7154  132.2440 H   0  0  0  0  0  0  0  0  0  0  0  0
  149.4687  159.1968  132.6251 H   0  0  0  0  0  0  0  0  0  0  0  0
  147.6604  161.3100  133.2845 H   0  0  0  0  0  0  0  0  0  0  0  0
  142.8630  160.8050  133.9570 H   0  0  0  0  0  0  0  0  0  0  0  0
  141.4221  157.7787  131.5469 H   0  0  0  0  0  0  0  0  0  0  0  0
  141.3270  157.3110  133.2797 H   0  0  0  0  0  0  0  0  0  0  0  0
  141.8274  159.9450  133.5921 H   0  0  0  0  0  0  0  0  0  0  0  0
  141.0250  160.0034  131.9817 H   0  0  0  0  0  0  0  0  0  0  0  0
  145.3403  156.3670  133.1306 H   0  0  0  0  0  0  0  0  0  0  0  0
  144.8006  152.7040  135.6045 H   0  0  0  0  0  0  0  0  0  0  0  0
  145.0691  154.4899  135.6445 H   0  0  0  0  0  0  0  0  0  0  0  0
  142.8760  154.0141  136.5574 H   0  0  0  0  0  0  0  0  0  0  0  0
  141.4187  155.2268  134.8239 H   0  0  0  0  0  0  0  0  0  0  0  0
  142.9820  156.0369  135.3009 H   0  0  0  0  0  0  0  0  0  0  0  0
  142.0482  155.4376  132.6806 H   0  0  0  0  0  0  0  0  0  0  0  0
  143.6572  156.1105  133.2077 H   0  0  0  0  0  0  0  0  0  0  0  0
  144.0756  154.1955  131.8053 H   0  0  0  0  0  0  0  0  0  0  0  0
  141.6693  153.2277  132.4434 H   0  0  0  0  0  0  0  0  0  0  0  0
  143.0491  152.1840  131.8465 H   0  0  0  0  0  0  0  0  0  0  0  0
  143.4790  151.4750  134.0300 H   0  0  0  0  0  0  0  0  0  0  0  0
  141.0957  153.0337  134.8935 H   0  0  0  0  0  0  0  0  0  0  0  0
  142.1961  151.9565  135.8940 H   0  0  0  0  0  0  0  0  0  0  0  0
  1  2  1  0
  2  3  1  0
  3  4  1  0
  4  5  2  0
  5  6  1  0
  6  7  2  0
  7  8  1  0
  8  9  2  0
  9 10  1  0
 10 11  1  0
 10 12  2  0
  9 13  1  0
 13 14  1  0
 14 15  2  0
 14 16  1  0
 16 17  1  0
 17 18  1  0
 18 19  1  0
 13 20  1  0
 20 21  2  0
  2 22  1  0
 22 23  2  0
 22 24  1  0
 24 25  1  0
 25 26  1  0
 26 27  1  0
 27 28  1  0
 28 29  1  0
 29 30  1  0
 30 31  1  0
 31 32  1  0
 21  4  1  0
 29 24  1  0
 20  7  1  0
 32 26  1  0
  1 33  1  0
  1 34  1  0
  1 35  1  0
  2 36  1  6
  3 37  1  0
  5 38  1  0
  6 39  1  0
  8 40  1  0
 11 41  1  0
 17 42  1  0
 17 43  1  0
 18 44  1  0
 18 45  1  0
 21 46  1  0
 25 47  1  0
 25 48  1  0
 26 49  1  1
 27 50  1  0
 27 51  1  0
 28 52  1  0
 28 53  1  0
 29 54  1  6
 30 55  1  0
 30 56  1  0
 31 57  1  0
 32 58  1  0
 32 59  1  0
M  CHG  1  11  -1
M  END
>  <UniqueID>  (95) 
94

>  <SMILES>  (95) 
C[C@H](Nc1ccc2cc(C([NH-])=O)n(C(=O)OCCF)c2c1)C(=O)N1C[C@H]2CCC1CNC2

>  <Energy>  (95) 
109.81176636446125

>  <Genealogy>  (95) 
CC(Nc1ccc2cc(C([NH-])=O)n(C(=O)OCCF)c2c1)C(=O)N1CC2CCC1CNC2 (protonated)
C[C@H](Nc1ccc2cc(C([NH-])=O)n(C(=O)OCCF)c2c1)C(=O)N1C[C@H]2CCC1CNC2 (chirality)
C[C@H](Nc1ccc2cc(C([NH-])=O)n(C(=O)OCCF)c2c1)C(=O)N1C[C@H]2CCC1CNC2 (3D coordinates assigned)
C[C@H](Nc1ccc2cc(C([NH-])=O)n(C(=O)OCCF)c2c1)C(=O)N1C[C@H]2CCC1CNC2 (nonaromatic ring conformer: 109.81176636446125 kcal/mol)

>  <smiles>  (95) 
CC(Nc1ccc2cc(C(N)=O)n(C(=O)OCCF)c2c1)C(=O)N1CC2CCC1CNC2

>  <score_type>  (95) 
oracle

>  <origin>  (95) 
adg

>  <m_score__min__energy>  (95) 
-7.0499999999999998

>  <m_primary>  (95) 
energy

$$$$
96:0
     RDKit          3D

 44 46  0  0  0  0  0  0  0  0999 V2000
  140.8920  159.5210  132.9820 C   0  0  0  0  0  0  0  0  0  0  0  0
  139.4210  159.4160  132.9460 N   0  0  0  0  0  0  0  0  0  0  0  0
  138.9960  159.2750  131.5420 C   0  0  0  0  0  0  0  0  0  0  0  0
  138.9850  158.2380  133.7230 C   0  0  0  0  0  0  0  0  0  0  0  0
  139.2890  156.9280  133.0510 C   0  0  0  0  0  0  0  0  0  0  0  0
  140.2700  156.4590  134.0460 N   0  0  0  0  0  0  0  0  0  0  0  0
  141.1110  155.3270  134.2650 C   0  0  0  0  0  0  0  0  0  0  0  0
  141.8680  155.3070  135.2720 O   0  0  0  0  0  0  0  0  0  0  0  0
  141.0960  154.1840  133.3340 C   0  0  0  0  0  0  0  0  0  0  0  0
  140.0850  153.9790  132.6110 O   0  0  0  0  0  0  0  0  0  0  0  0
  142.2130  153.2830  133.2590 N   0  0  0  0  0  0  0  0  0  0  0  0
  142.1920  151.9240  133.1470 C   0  0  0  0  0  0  0  0  0  0  0  0
  140.9890  151.0680  133.2200 C   0  0  0  0  0  0  0  0  0  0  0  0
  139.8450  151.3190  132.4020 N   0  0  0  0  0  0  0  0  0  0  0  0
  140.9550  150.1230  134.0530 O   0  0  0  0  0  0  0  0  0  0  0  0
  143.4820  151.4260  132.9930 C   0  0  0  0  0  0  0  0  0  0  0  0
  144.3060  152.5280  133.0340 C   0  0  0  0  0  0  0  0  0  0  0  0
  145.6880  152.6190  132.9100 C   0  0  0  0  0  0  0  0  0  0  0  0
  146.2710  153.8970  132.9560 C   0  0  0  0  0  0  0  0  0  0  0  0
  145.4700  155.0550  133.1350 C   0  0  0  0  0  0  0  0  0  0  0  0
  146.1010  156.4240  133.1220 C   0  0  0  0  0  0  0  0  0  0  0  0
  146.7860  156.6570  134.3020 F   0  0  0  0  0  0  0  0  0  0  0  0
  146.9860  156.5070  132.0640 F   0  0  0  0  0  0  0  0  0  0  0  0
  145.1360  157.4060  132.9820 F   0  0  0  0  0  0  0  0  0  0  0  0
  144.0650  154.9210  133.2320 C   0  0  0  0  0  0  0  0  0  0  0  0
  143.5150  153.6350  133.1970 C   0  0  0  0  0  0  0  0  0  0  0  0
  140.0140  157.7500  134.7050 C   0  0  0  0  0  0  0  0  0  0  0  0
  141.2324  159.5453  134.0277 H   0  0  0  0  0  0  0  0  0  0  0  0
  141.3342  158.6521  132.4726 H   0  0  0  0  0  0  0  0  0  0  0  0
  141.2063  160.4439  132.4726 H   0  0  0  0  0  0  0  0  0  0  0  0
  137.9525  158.9288  131.5078 H   0  0  0  0  0  0  0  0  0  0  0  0
  139.0763  160.2479  131.0351 H   0  0  0  0  0  0  0  0  0  0  0  0
  139.6420  158.5430  131.0351 H   0  0  0  0  0  0  0  0  0  0  0  0
  137.9754  158.5784  133.9965 H   0  0  0  0  0  0  0  0  0  0  0  0
  138.4083  156.2725  132.9828 H   0  0  0  0  0  0  0  0  0  0  0  0
  139.6222  156.9703  132.0035 H   0  0  0  0  0  0  0  0  0  0  0  0
  139.0310  150.6660  132.4270 H   0  0  0  0  0  0  0  0  0  0  0  0
  139.7610  152.1940  131.8410 H   0  0  0  0  0  0  0  0  0  0  0  0
  143.7801  150.3749  132.8655 H   0  0  0  0  0  0  0  0  0  0  0  0
  146.3060  151.7184  132.7799 H   0  0  0  0  0  0  0  0  0  0  0  0
  147.3611  154.0011  132.8520 H   0  0  0  0  0  0  0  0  0  0  0  0
  143.4204  155.8067  133.3325 H   0  0  0  0  0  0  0  0  0  0  0  0
  139.6082  157.6337  135.7208 H   0  0  0  0  0  0  0  0  0  0  0  0
  140.8833  158.4008  134.8803 H   0  0  0  0  0  0  0  0  0  0  0  0
  1  2  1  0
  2  3  1  0
  2  4  1  0
  4  5  1  0
  5  6  1  0
  6  7  1  0
  7  8  2  0
  7  9  1  0
  9 10  2  0
  9 11  1  0
 11 12  1  0
 12 13  1  0
 13 14  1  0
 13 15  2  0
 12 16  2  0
 16 17  1  0
 17 18  2  0
 18 19  1  0
 19 20  2  0
 20 21  1  0
 21 22  1  0
 21 23  1  0
 21 24  1  0
 20 25  1  0
 25 26  2  0
  6 27  1  0
 27  4  1  0
 26 11  1  0
 26 17  1  0
  1 28  1  0
  1 29  1  0
  1 30  1  0
  3 31  1  0
  3 32  1  0
  3 33  1  0
  4 34  1  0
  5 35  1  0
  5 36  1  0
 14 37  1  0
 14 38  1  0
 16 39  1  0
 18 40  1  0
 19 41  1  0
 25 42  1  0
 27 43  1  0
 27 44  1  0
M  END
>  <UniqueID>  (96) 
95

>  <SMILES>  (96) 
CN(C)C1CN(C(=O)C(=O)n2c(C(N)=O)cc3ccc(C(F)(F)F)cc32)C1

>  <Energy>  (96) 
130.3698075480437

>  <Genealogy>  (96) 
CN(C)C1CN(C(=O)C(=O)n2c(C(N)=O)cc3ccc(C(F)(F)F)cc32)C1 (3D coordinates assigned)
CN(C)C1CN(C(=O)C(=O)n2c(C(N)=O)cc3ccc(C(F)(F)F)cc32)C1 (nonaromatic ring conformer: 130.3698075480437 kcal/mol)

>  <smiles>  (96) 
CN(C)C1CN(C(=O)C(=O)n2c(C(N)=O)cc3ccc(C(F)(F)F)cc32)C1

>  <score_type>  (96) 
oracle

>  <origin>  (96) 
adg

>  <m_score__min__energy>  (96) 
-7.9800000000000004

>  <m_primary>  (96) 
energy

$$$$
97:0
     RDKit          3D

 43 45  0  0  0  0  0  0  0  0999 V2000
  138.1170  155.2150  132.6760 H   0  0  0  0  0  0  0  0  0  0  0  0
  139.1190  155.2470  132.9690 N   0  0  0  0  0  0  0  0  0  0  0  0
  139.6780  156.4280  133.5420 C   0  0  0  0  0  0  0  0  0  0  0  0
  138.9100  157.3160  133.9940 O   0  0  0  0  0  0  0  0  0  0  0  0
  141.1450  156.6070  133.5710 C   0  0  0  0  0  0  0  0  0  0  0  0
  142.0430  155.5840  133.8680 C   0  0  0  0  0  0  0  0  0  0  0  0
  141.8041  154.5489  134.1536 H   0  0  0  0  0  0  0  0  0  0  0  0
  143.2930  156.1440  133.7280 C   0  0  0  0  0  0  0  0  0  0  0  0
  144.5530  155.5830  133.9190 C   0  0  0  0  0  0  0  0  0  0  0  0
  144.6661  154.5275  134.2073 H   0  0  0  0  0  0  0  0  0  0  0  0
  145.6750  156.4070  133.7320 C   0  0  0  0  0  0  0  0  0  0  0  0
  146.6839  155.9919  133.8726 H   0  0  0  0  0  0  0  0  0  0  0  0
  145.5220  157.7680  133.3640 C   0  0  0  0  0  0  0  0  0  0  0  0
  146.6780  158.6090  133.1950 N   0  0  0  0  0  0  0  0  0  0  0  0
  146.5000  160.0520  132.9760 C   0  0  0  0  0  0  0  0  0  0  0  0
  145.7796  160.2017  132.1583 H   0  0  0  0  0  0  0  0  0  0  0  0
  146.1334  160.4970  133.9128 H   0  0  0  0  0  0  0  0  0  0  0  0
  147.8220  160.7410  132.6060 C   0  0  0  0  0  0  0  0  0  0  0  0
  147.6058  161.7225  132.1589 H   0  0  0  0  0  0  0  0  0  0  0  0
  148.4260  160.8637  133.5171 H   0  0  0  0  0  0  0  0  0  0  0  0
  148.5770  159.9250  131.6410 N   0  0  0  0  0  0  0  0  0  0  0  0
  149.2750  160.5390  130.5430 C   0  0  0  0  0  0  0  0  0  0  0  0
  149.2700  161.7900  130.3940 O   0  0  0  0  0  0  0  0  0  0  0  0
  149.9720  159.7540  129.6300 O   0  0  0  0  0  0  0  0  0  0  0  0
  148.7230  158.4770  131.8540 C   0  0  0  0  0  0  0  0  0  0  0  0
  148.2794  157.9435  131.0004 H   0  0  0  0  0  0  0  0  0  0  0  0
  149.7950  158.2474  131.9445 H   0  0  0  0  0  0  0  0  0  0  0  0
  148.0250  158.0270  133.1390 C   0  0  0  0  0  0  0  0  0  0  0  0
  147.9509  156.9296  133.1508 H   0  0  0  0  0  0  0  0  0  0  0  0
  148.6065  158.3650  134.0094 H   0  0  0  0  0  0  0  0  0  0  0  0
  144.2260  158.3010  133.1900 C   0  0  0  0  0  0  0  0  0  0  0  0
  144.0839  159.3591  132.9252 H   0  0  0  0  0  0  0  0  0  0  0  0
  143.1270  157.4530  133.3620 C   0  0  0  0  0  0  0  0  0  0  0  0
  141.8140  157.7530  133.2590 N   0  0  0  0  0  0  0  0  0  0  0  0
  141.2540  159.0380  132.9430 C   0  0  0  0  0  0  0  0  0  0  0  0
  141.6180  160.0530  133.5960 O   0  0  0  0  0  0  0  0  0  0  0  0
  140.2600  159.1650  131.8590 C   0  0  0  0  0  0  0  0  0  0  0  0
  140.4151  158.5990  130.9286 H   0  0  0  0  0  0  0  0  0  0  0  0
  139.1780  159.9430  131.9670 C   0  0  0  0  0  0  0  0  0  0  0  0
  139.0154  160.5052  132.8984 H   0  0  0  0  0  0  0  0  0  0  0  0
  138.1990  160.0690  130.8770 C   0  0  0  0  0  0  0  0  0  0  0  0
  138.5760  160.4770  129.7470 O   0  0  0  0  0  0  0  0  0  0  0  0
  136.8610  159.7450  131.0730 O   0  0  0  0  0  0  0  0  0  0  0  0
  1  2  1  0
  2  3  1  0
  3  4  2  0
  3  5  1  0
  5  6  2  0
  6  7  1  0
  6  8  1  0
  8  9  2  0
  9 10  1  0
  9 11  1  0
 11 12  1  0
 11 13  2  0
 13 14  1  0
 14 15  1  0
 15 16  1  0
 15 17  1  0
 15 18  1  0
 18 19  1  0
 18 20  1  0
 18 21  1  0
 21 22  1  0
 22 23  2  0
 22 24  1  0
 21 25  1  0
 25 26  1  0
 25 27  1  0
 25 28  1  0
 28 29  1  0
 28 30  1  0
 13 31  1  0
 31 32  1  0
 31 33  2  0
 33 34  1  0
 34 35  1  0
 35 36  2  0
 35 37  1  0
 37 38  1  0
 37 39  2  0
 39 40  1  0
 39 41  1  0
 41 42  2  0
 41 43  1  0
 34  5  1  0
 33  8  1  0
 28 14  1  0
M  CHG  3   2  -1  24  -1  43  -1
M  END
>  <UniqueID>  (97) 
96

>  <SMILES>  (97) 
[NH-]C(=O)c1cc2ccc(N3CCN(C(=O)[O-])CC3)cc2n1C(=O)/C=C/C(=O)[O-]

>  <Energy>  (97) 
85.5510136305176

>  <Genealogy>  (97) 
[NH-]C(=O)c1cc2ccc(N3CCN(C(=O)[O-])CC3)cc2n1C(=O)/C=C/C(=O)[O-] (protonated)
[NH-]C(=O)c1cc2ccc(N3CCN(C(=O)[O-])CC3)cc2n1C(=O)/C=C/C(=O)[O-] (cis-trans isomerization)
[NH-]C(=O)c1cc2ccc(N3CCN(C(=O)[O-])CC3)cc2n1C(=O)/C=C/C(=O)[O-] (3D coordinates assigned)
[NH-]C(=O)c1cc2ccc(N3CCN(C(=O)[O-])CC3)cc2n1C(=O)/C=C/C(=O)[O-] (nonaromatic ring conformer: 85.5510136305176 kcal/mol)

>  <smiles>  (97) 
NC(=O)c1cc2ccc(N3CCN(C(=O)O)CC3)cc2n1C(=O)/C=C/C(=O)O

>  <score_type>  (97) 
oracle

>  <origin>  (97) 
adg

>  <m_score__min__energy>  (97) 
-8.75

>  <m_primary>  (97) 
energy

$$$$
