0:0
     RDKit          3D

 39 40  0  0  0  0  0  0  0  0999 V2000
  148.0560  155.0750  132.6240 C   0  0  0  0  0  0  0  0  0  0  0  0
  147.7740  156.5250  132.8800 C   0  0  0  0  0  0  0  0  0  0  0  0
  148.8240  157.4750  132.8140 C   0  0  0  0  0  0  0  0  0  0  0  0
  148.5640  158.8420  133.0030 C   0  0  0  0  0  0  0  0  0  0  0  0
  147.2500  159.2290  133.2500 C   0  0  0  0  0  0  0  0  0  0  0  0
  146.7160  160.4830  133.4390 C   0  0  0  0  0  0  0  0  0  0  0  0
  145.3510  160.2800  133.6250 C   0  0  0  0  0  0  0  0  0  0  0  0
  144.4020  161.3690  133.9440 C   0  0  0  0  0  0  0  0  0  0  0  0
  143.0020  161.2070  133.7310 N   0  0  0  0  0  0  0  0  0  0  0  0
  144.8280  162.4390  134.4540 O   0  0  0  0  0  0  0  0  0  0  0  0
  145.0500  158.9530  133.5460 N   0  0  0  0  0  0  0  0  0  0  0  0
  143.7550  158.3370  133.6060 C   0  0  0  0  0  0  0  0  0  0  0  0
  143.3160  157.7070  132.6070 O   0  0  0  0  0  0  0  0  0  0  0  0
  142.9810  158.4310  134.8100 N   0  0  0  0  0  0  0  0  0  0  0  0
  141.6300  157.9070  135.0420 C   0  0  0  0  0  0  0  0  0  0  0  0
  141.7060  156.4460  135.5310 C   0  0  0  0  0  0  0  0  0  0  0  0
  140.8680  157.9630  133.6970 C   0  0  0  0  0  0  0  0  0  0  0  0
  141.0480  159.2040  133.0620 O   0  0  0  0  0  0  0  0  0  0  0  0
  140.9050  158.7950  136.0850 C   0  0  0  0  0  0  0  0  0  0  0  0
  141.0170  160.1570  135.7620 O   0  0  0  0  0  0  0  0  0  0  0  0
  146.2240  158.3230  133.3190 C   0  0  0  0  0  0  0  0  0  0  0  0
  146.4500  156.9560  133.1150 C   0  0  0  0  0  0  0  0  0  0  0  0
  148.1588  154.5465  133.5832 H   0  0  0  0  0  0  0  0  0  0  0  0
  147.2264  154.6358  132.0504 H   0  0  0  0  0  0  0  0  0  0  0  0
  148.9897  154.9787  132.0504 H   0  0  0  0  0  0  0  0  0  0  0  0
  149.8517  157.1384  132.6129 H   0  0  0  0  0  0  0  0  0  0  0  0
  149.3743  159.5845  132.9572 H   0  0  0  0  0  0  0  0  0  0  0  0
  147.2536  161.4427  133.4424 H   0  0  0  0  0  0  0  0  0  0  0  0
  142.4840  160.4010  134.1450 H   0  0  0  0  0  0  0  0  0  0  0  0
  141.7070  156.4270  136.6308 H   0  0  0  0  0  0  0  0  0  0  0  0
  140.8357  155.8879  135.1554 H   0  0  0  0  0  0  0  0  0  0  0  0
  142.6295  155.9812  135.1554 H   0  0  0  0  0  0  0  0  0  0  0  0
  141.2429  157.1654  133.0388 H   0  0  0  0  0  0  0  0  0  0  0  0
  139.7952  157.8273  133.8986 H   0  0  0  0  0  0  0  0  0  0  0  0
  142.0170  159.4170  133.1160 H   0  0  0  0  0  0  0  0  0  0  0  0
  139.8404  158.5195  136.1118 H   0  0  0  0  0  0  0  0  0  0  0  0
  141.3744  158.6313  137.0663 H   0  0  0  0  0  0  0  0  0  0  0  0
  141.5670  160.2180  134.9390 H   0  0  0  0  0  0  0  0  0  0  0  0
  145.6179  156.2369  133.1373 H   0  0  0  0  0  0  0  0  0  0  0  0
  1  2  1  0
  2  3  2  0
  3  4  1  0
  4  5  2  0
  5  6  1  0
  6  7  2  0
  7  8  1  0
  8  9  1  0
  8 10  2  0
  7 11  1  0
 11 12  1  0
 12 13  2  0
 12 14  1  0
 14 15  1  0
 15 16  1  0
 15 17  1  0
 17 18  1  0
 15 19  1  0
 19 20  1  0
 11 21  1  0
 21 22  2  0
 22  2  1  0
 21  5  1  0
  1 23  1  0
  1 24  1  0
  1 25  1  0
  3 26  1  0
  4 27  1  0
  6 28  1  0
  9 29  1  0
 16 30  1  0
 16 31  1  0
 16 32  1  0
 17 33  1  0
 17 34  1  0
 18 35  1  0
 19 36  1  0
 19 37  1  0
 20 38  1  0
 22 39  1  0
M  CHG  2   9  -1  14  -1
M  END
>  <UniqueID>  (1) 
1

>  <SMILES>  (1) 
Cc1ccc2cc(C([NH-])=O)n(C(=O)[N-]C(C)(CO)CO)c2c1

>  <Energy>  (1) 
74.65563944355416

>  <Genealogy>  (1) 
Cc1ccc2cc(C([NH-])=O)n(C(=O)[N-]C(C)(CO)CO)c2c1 (protonated)
Cc1ccc2cc(C([NH-])=O)n(C(=O)[N-]C(C)(CO)CO)c2c1 (3D coordinates assigned)
Cc1ccc2cc(C([NH-])=O)n(C(=O)[N-]C(C)(CO)CO)c2c1 (optimized conformer: 74.65563944355416 kcal/mol)

>  <smiles>  (1) 
Cc1ccc2cc(C(N)=O)n(C(=O)NC(C)(CO)CO)c2c1

>  <score_type>  (1) 
oracle

>  <origin>  (1) 
adg

>  <m_score__min__energy>  (1) 
-5.4500000000000002

>  <m_primary>  (1) 
energy

$$$$
1:0
     RDKit          3D

 36 37  0  0  0  0  0  0  0  0999 V2000
  149.0740  160.1230  129.5050 C   0  0  0  0  0  0  0  0  0  0  0  0
  149.5050  160.0500  130.9670 C   0  0  0  0  0  0  0  0  0  0  0  0
  150.7710  159.4930  131.0390 F   0  0  0  0  0  0  0  0  0  0  0  0
  149.5760  161.3330  131.4830 F   0  0  0  0  0  0  0  0  0  0  0  0
  148.5220  159.2190  131.7610 C   0  0  0  0  0  0  0  0  0  0  0  0
  147.3410  159.8100  132.2830 C   0  0  0  0  0  0  0  0  0  0  0  0
  146.4070  159.0410  132.9950 C   0  0  0  0  0  0  0  0  0  0  0  0
  146.6620  157.6830  133.1510 C   0  0  0  0  0  0  0  0  0  0  0  0
  145.9400  156.7190  133.8150 C   0  0  0  0  0  0  0  0  0  0  0  0
  146.6600  155.5390  133.6470 C   0  0  0  0  0  0  0  0  0  0  0  0
  146.2040  154.2290  134.1520 C   0  0  0  0  0  0  0  0  0  0  0  0
  146.2690  153.0580  133.3370 N   0  0  0  0  0  0  0  0  0  0  0  0
  145.6980  154.1510  135.3030 O   0  0  0  0  0  0  0  0  0  0  0  0
  147.7910  155.7650  132.9200 N   0  0  0  0  0  0  0  0  0  0  0  0
  148.8400  154.8310  132.6250 C   0  0  0  0  0  0  0  0  0  0  0  0
  149.9660  155.2510  132.2380 O   0  0  0  0  0  0  0  0  0  0  0  0
  148.6110  153.4570  132.7660 O   0  0  0  0  0  0  0  0  0  0  0  0
  149.5210  152.4580  132.3110 C   0  0  0  0  0  0  0  0  0  0  0  0
  148.7630  151.2110  131.8520 C   0  0  0  0  0  0  0  0  0  0  0  0
  147.5110  151.1460  132.4780 O   0  0  0  0  0  0  0  0  0  0  0  0
  147.7760  157.0830  132.6210 C   0  0  0  0  0  0  0  0  0  0  0  0
  148.7350  157.8300  131.9250 C   0  0  0  0  0  0  0  0  0  0  0  0
  147.9908  160.3065  129.4508 H   0  0  0  0  0  0  0  0  0  0  0  0
  149.6103  160.9431  129.0052 H   0  0  0  0  0  0  0  0  0  0  0  0
  149.3103  159.1720  129.0052 H   0  0  0  0  0  0  0  0  0  0  0  0
  147.1559  160.8831  132.1276 H   0  0  0  0  0  0  0  0  0  0  0  0
  145.5003  159.4991  133.4170 H   0  0  0  0  0  0  0  0  0  0  0  0
  144.9951  156.8518  134.3622 H   0  0  0  0  0  0  0  0  0  0  0  0
  145.9810  152.1320  133.7250 H   0  0  0  0  0  0  0  0  0  0  0  0
  146.5170  153.1180  132.3240 H   0  0  0  0  0  0  0  0  0  0  0  0
  150.1049  152.8571  131.4685 H   0  0  0  0  0  0  0  0  0  0  0  0
  150.1899  152.1825  133.1397 H   0  0  0  0  0  0  0  0  0  0  0  0
  148.6221  151.2526  130.7619 H   0  0  0  0  0  0  0  0  0  0  0  0
  149.3455  150.3179  132.1225 H   0  0  0  0  0  0  0  0  0  0  0  0
  147.6090  151.6050  133.3530 H   0  0  0  0  0  0  0  0  0  0  0  0
  149.6342  157.3471  131.5148 H   0  0  0  0  0  0  0  0  0  0  0  0
  1  2  1  0
  2  3  1  0
  2  4  1  0
  2  5  1  0
  5  6  2  0
  6  7  1  0
  7  8  2  0
  8  9  1  0
  9 10  2  0
 10 11  1  0
 11 12  1  0
 11 13  2  0
 10 14  1  0
 14 15  1  0
 15 16  2  0
 15 17  1  0
 17 18  1  0
 18 19  1  0
 19 20  1  0
 14 21  1  0
 21 22  2  0
 22  5  1  0
 21  8  1  0
  1 23  1  0
  1 24  1  0
  1 25  1  0
  6 26  1  0
  7 27  1  0
  9 28  1  0
 12 29  1  0
 12 30  1  0
 18 31  1  0
 18 32  1  0
 19 33  1  0
 19 34  1  0
 20 35  1  0
 22 36  1  0
M  END
>  <UniqueID>  (2) 
2

>  <SMILES>  (2) 
CC(F)(F)c1ccc2cc(C(N)=O)n(C(=O)OCCO)c2c1

>  <Energy>  (2) 
69.86283114273648

>  <Genealogy>  (2) 
CC(F)(F)c1ccc2cc(C(N)=O)n(C(=O)OCCO)c2c1 (3D coordinates assigned)
CC(F)(F)c1ccc2cc(C(N)=O)n(C(=O)OCCO)c2c1 (optimized conformer: 69.86283114273648 kcal/mol)

>  <smiles>  (2) 
CC(F)(F)c1ccc2cc(C(N)=O)n(C(=O)OCCO)c2c1

>  <score_type>  (2) 
oracle

>  <origin>  (2) 
adg

>  <m_score__min__energy>  (2) 
-6.2599999999999998

>  <m_primary>  (2) 
energy

$$$$
2:0
     RDKit          3D

 53 55  0  0  0  0  0  0  0  0999 V2000
  144.6360  160.7610  133.7140 C   0  0  0  0  0  0  0  0  0  0  0  0
  144.5260  159.3050  133.8610 N   0  0  0  0  0  0  0  0  0  0  0  0
  145.6880  158.5020  133.5510 C   0  0  0  0  0  0  0  0  0  0  0  0
  146.9330  159.1090  133.2400 C   0  0  0  0  0  0  0  0  0  0  0  0
  148.0610  158.3270  132.9450 C   0  0  0  0  0  0  0  0  0  0  0  0
  147.9190  156.9440  132.9640 C   0  0  0  0  0  0  0  0  0  0  0  0
  148.8520  155.9560  132.7460 C   0  0  0  0  0  0  0  0  0  0  0  0
  148.1630  154.7560  132.9070 C   0  0  0  0  0  0  0  0  0  0  0  0
  148.7740  153.4310  132.6780 C   0  0  0  0  0  0  0  0  0  0  0  0
  148.0270  152.2330  132.8760 N   0  0  0  0  0  0  0  0  0  0  0  0
  149.9590  153.3540  132.2540 O   0  0  0  0  0  0  0  0  0  0  0  0
  146.8570  154.9920  133.2200 N   0  0  0  0  0  0  0  0  0  0  0  0
  145.8480  154.0270  133.5560 C   0  0  0  0  0  0  0  0  0  0  0  0
  145.8700  153.4580  134.6820 O   0  0  0  0  0  0  0  0  0  0  0  0
  144.8580  153.7070  132.6220 O   0  0  0  0  0  0  0  0  0  0  0  0
  143.7530  152.8630  132.9310 C   0  0  0  0  0  0  0  0  0  0  0  0
  144.1160  151.4110  132.6380 C   0  0  0  0  0  0  0  0  0  0  0  0
  145.5060  151.2660  132.5250 O   0  0  0  0  0  0  0  0  0  0  0  0
  146.7240  156.3370  133.2490 C   0  0  0  0  0  0  0  0  0  0  0  0
  145.5880  157.0920  133.5640 C   0  0  0  0  0  0  0  0  0  0  0  0
  143.2090  158.7310  134.2220 C   0  0  1  0  0  0  0  0  0  0  0  0
  142.3420  159.7420  134.9860 C   0  0  0  0  0  0  0  0  0  0  0  0
  141.0310  159.8760  134.2170 C   0  0  0  0  0  0  0  0  0  0  0  0
  141.1370  158.9940  133.0650 N   0  0  0  0  0  0  0  0  0  0  0  0
  140.1070  158.8360  132.0710 C   0  0  0  0  0  0  0  0  0  0  0  0
  140.2540  159.3600  130.9340 O   0  0  0  0  0  0  0  0  0  0  0  0
  138.8720  158.0220  132.3360 C   0  0  0  0  0  0  0  0  0  0  0  0
  139.1070  157.0820  133.4740 C   0  0  0  0  0  0  0  0  0  0  0  0
  139.0350  157.4930  134.6630 O   0  0  0  0  0  0  0  0  0  0  0  0
  139.4110  155.7500  133.2240 O   0  0  0  0  0  0  0  0  0  0  0  0
  142.3850  158.2540  133.0150 C   0  0  0  0  0  0  0  0  0  0  0  0
  144.6713  161.2284  134.7092 H   0  0  0  0  0  0  0  0  0  0  0  0
  145.5552  161.0053  133.1613 H   0  0  0  0  0  0  0  0  0  0  0  0
  143.7640  161.1407  133.1613 H   0  0  0  0  0  0  0  0  0  0  0  0
  147.0149  160.2059  133.2300 H   0  0  0  0  0  0  0  0  0  0  0  0
  149.0278  158.7942  132.7061 H   0  0  0  0  0  0  0  0  0  0  0  0
  149.9156  156.0862  132.4975 H   0  0  0  0  0  0  0  0  0  0  0  0
  147.1830  152.2210  133.4900 H   0  0  0  0  0  0  0  0  0  0  0  0
  143.4993  152.9685  133.9961 H   0  0  0  0  0  0  0  0  0  0  0  0
  142.8896  153.1537  132.3145 H   0  0  0  0  0  0  0  0  0  0  0  0
  143.7509  150.7741  133.4572 H   0  0  0  0  0  0  0  0  0  0  0  0
  143.6485  151.1119  131.6883 H   0  0  0  0  0  0  0  0  0  0  0  0
  145.9100  151.8590  133.2110 H   0  0  0  0  0  0  0  0  0  0  0  0
  144.6378  156.5986  133.8163 H   0  0  0  0  0  0  0  0  0  0  0  0
  143.4588  157.8625  134.8492 H   0  0  0  0  0  0  0  0  0  0  0  0
  142.1465  159.3778  136.0054 H   0  0  0  0  0  0  0  0  0  0  0  0
  142.8510  160.7138  135.0667 H   0  0  0  0  0  0  0  0  0  0  0  0
  140.1853  159.5726  134.8516 H   0  0  0  0  0  0  0  0  0  0  0  0
  140.8558  160.9168  133.9069 H   0  0  0  0  0  0  0  0  0  0  0  0
  138.0398  158.6959  132.5875 H   0  0  0  0  0  0  0  0  0  0  0  0
  138.6257  157.4404  131.4354 H   0  0  0  0  0  0  0  0  0  0  0  0
  142.1918  157.1735  133.0871 H   0  0  0  0  0  0  0  0  0  0  0  0
  142.9187  158.4275  132.0689 H   0  0  0  0  0  0  0  0  0  0  0  0
  1  2  1  0
  2  3  1  0
  3  4  2  0
  4  5  1  0
  5  6  2  0
  6  7  1  0
  7  8  2  0
  8  9  1  0
  9 10  1  0
  9 11  2  0
  8 12  1  0
 12 13  1  0
 13 14  2  0
 13 15  1  0
 15 16  1  0
 16 17  1  0
 17 18  1  0
 12 19  1  0
 19 20  2  0
  2 21  1  0
 21 22  1  0
 22 23  1  0
 23 24  1  0
 24 25  1  0
 25 26  2  0
 25 27  1  0
 27 28  1  0
 28 29  2  0
 28 30  1  0
 24 31  1  0
 20  3  1  0
 31 21  1  0
 19  6  1  0
  1 32  1  0
  1 33  1  0
  1 34  1  0
  4 35  1  0
  5 36  1  0
  7 37  1  0
 10 38  1  0
 16 39  1  0
 16 40  1  0
 17 41  1  0
 17 42  1  0
 18 43  1  0
 20 44  1  0
 21 45  1  1
 22 46  1  0
 22 47  1  0
 23 48  1  0
 23 49  1  0
 27 50  1  0
 27 51  1  0
 31 52  1  0
 31 53  1  0
M  CHG  2  10  -1  30  -1
M  END
>  <UniqueID>  (3) 
3

>  <SMILES>  (3) 
CN(c1ccc2cc(C([NH-])=O)n(C(=O)OCCO)c2c1)[C@H]1CCN(C(=O)CC(=O)[O-])C1

>  <Energy>  (3) 
92.50172101467781

>  <Genealogy>  (3) 
CN(c1ccc2cc(C([NH-])=O)n(C(=O)OCCO)c2c1)C1CCN(C(=O)CC(=O)[O-])C1 (protonated)
CN(c1ccc2cc(C([NH-])=O)n(C(=O)OCCO)c2c1)[C@H]1CCN(C(=O)CC(=O)[O-])C1 (chirality)
CN(c1ccc2cc(C([NH-])=O)n(C(=O)OCCO)c2c1)[C@H]1CCN(C(=O)CC(=O)[O-])C1 (3D coordinates assigned)
CN(c1ccc2cc(C([NH-])=O)n(C(=O)OCCO)c2c1)[C@H]1CCN(C(=O)CC(=O)[O-])C1 (nonaromatic ring conformer: 92.50172101467781 kcal/mol)

>  <smiles>  (3) 
CN(c1ccc2cc(C(N)=O)n(C(=O)OCCO)c2c1)C1CCN(C(=O)CC(=O)O)C1

>  <score_type>  (3) 
oracle

>  <origin>  (3) 
adg

>  <m_score__min__energy>  (3) 
-7.6900000000000004

>  <m_primary>  (3) 
energy

$$$$
3:0
     RDKit          3D

 35 36  0  0  0  0  0  0  0  0999 V2000
  139.8730  158.1600  136.2430 N   0  0  0  0  0  0  0  0  0  0  0  0
  139.7610  158.0110  134.8300 C   0  0  0  0  0  0  0  0  0  0  0  0
  138.6240  157.8900  134.3000 O   0  0  0  0  0  0  0  0  0  0  0  0
  140.9930  157.9760  133.9820 C   0  0  0  0  0  0  0  0  0  0  0  0
  142.1850  158.2010  134.8000 N   0  0  0  0  0  0  0  0  0  0  0  0
  143.4040  158.8010  134.3190 C   0  0  0  0  0  0  0  0  0  0  0  0
  143.5140  160.2030  134.1050 C   0  0  0  0  0  0  0  0  0  0  0  0
  144.7160  160.7670  133.6430 C   0  0  0  0  0  0  0  0  0  0  0  0
  145.7870  159.9140  133.4000 C   0  0  0  0  0  0  0  0  0  0  0  0
  147.0660  160.1890  132.9680 C   0  0  0  0  0  0  0  0  0  0  0  0
  147.7110  158.9550  132.9130 C   0  0  0  0  0  0  0  0  0  0  0  0
  149.0930  158.7680  132.4270 C   0  0  0  0  0  0  0  0  0  0  0  0
  149.5910  157.4540  132.1860 N   0  0  0  0  0  0  0  0  0  0  0  0
  149.8510  159.7580  132.2450 O   0  0  0  0  0  0  0  0  0  0  0  0
  146.8660  157.9610  133.3010 N   0  0  0  0  0  0  0  0  0  0  0  0
  147.1540  156.5630  133.4470 C   0  0  0  0  0  0  0  0  0  0  0  0
  147.0640  155.8000  132.4490 O   0  0  0  0  0  0  0  0  0  0  0  0
  147.4450  155.9850  134.7980 C   0  0  0  0  0  0  0  0  0  0  0  0
  146.3380  154.5800  135.1220 P   0  0  0  0  0  0  0  0  0  0  0  0
  146.2020  153.7360  133.8760 O   0  0  0  0  0  0  0  0  0  0  0  0
  146.9850  153.6390  136.3700 O   0  0  0  0  0  0  0  0  0  0  0  0
  144.8150  155.1510  135.5860 O   0  0  0  0  0  0  0  0  0  0  0  0
  145.6930  158.5600  133.5890 C   0  0  0  0  0  0  0  0  0  0  0  0
  144.5150  157.9710  134.0530 C   0  0  0  0  0  0  0  0  0  0  0  0
  139.4740  158.9940  136.7270 H   0  0  0  0  0  0  0  0  0  0  0  0
  141.0689  156.9929  133.4944 H   0  0  0  0  0  0  0  0  0  0  0  0
  140.9261  158.7710  133.2246 H   0  0  0  0  0  0  0  0  0  0  0  0
  142.1310  157.9210  135.8070 H   0  0  0  0  0  0  0  0  0  0  0  0
  142.6490  160.8530  134.3032 H   0  0  0  0  0  0  0  0  0  0  0  0
  144.8066  161.8509  133.4786 H   0  0  0  0  0  0  0  0  0  0  0  0
  147.4884  161.1737  132.7193 H   0  0  0  0  0  0  0  0  0  0  0  0
  148.9590  156.6960  131.8440 H   0  0  0  0  0  0  0  0  0  0  0  0
  148.4894  155.6413  134.8303 H   0  0  0  0  0  0  0  0  0  0  0  0
  147.2835  156.7573  135.5645 H   0  0  0  0  0  0  0  0  0  0  0  0
  144.4538  156.8837  134.2080 H   0  0  0  0  0  0  0  0  0  0  0  0
  1  2  1  0
  2  3  2  0
  2  4  1  0
  4  5  1  0
  5  6  1  0
  6  7  2  0
  7  8  1  0
  8  9  2  0
  9 10  1  0
 10 11  2  0
 11 12  1  0
 12 13  1  0
 12 14  2  0
 11 15  1  0
 15 16  1  0
 16 17  2  0
 16 18  1  0
 18 19  1  0
 19 20  2  0
 19 21  1  0
 19 22  1  0
 15 23  1  0
 23 24  2  0
 24  6  1  0
 23  9  1  0
  1 25  1  0
  4 26  1  0
  4 27  1  0
  5 28  1  0
  7 29  1  0
  8 30  1  0
 10 31  1  0
 13 32  1  0
 18 33  1  0
 18 34  1  0
 24 35  1  0
M  CHG  4   1  -1  13  -1  21  -1  22  -1
M  END
>  <UniqueID>  (4) 
4

>  <SMILES>  (4) 
[NH-]C(=O)CNc1ccc2cc(C([NH-])=O)n(C(=O)CP(=O)([O-])[O-])c2c1

>  <Energy>  (4) 
67.39849301755739

>  <Genealogy>  (4) 
[NH-]C(=O)CNc1ccc2cc(C([NH-])=O)n(C(=O)CP(=O)([O-])[O-])c2c1 (protonated)
[NH-]C(=O)CNc1ccc2cc(C([NH-])=O)n(C(=O)CP(=O)([O-])[O-])c2c1 (3D coordinates assigned)
[NH-]C(=O)CNc1ccc2cc(C([NH-])=O)n(C(=O)CP(=O)([O-])[O-])c2c1 (optimized conformer: 67.39849301755739 kcal/mol)

>  <smiles>  (4) 
NC(=O)CNc1ccc2cc(C(N)=O)n(C(=O)CP(=O)(O)O)c2c1

>  <score_type>  (4) 
oracle

>  <origin>  (4) 
adg

>  <m_score__min__energy>  (4) 
-6.3799999999999999

>  <m_primary>  (4) 
energy

$$$$
4:0
     RDKit          3D

 38 39  0  0  0  0  0  0  0  0999 V2000
  147.1940  153.6720  133.1480 C   0  0  0  0  0  0  0  0  0  0  0  0
  146.3160  154.6060  133.8610 N   0  0  0  0  0  0  0  0  0  0  0  0
  146.6400  154.9840  135.2440 C   0  0  0  0  0  0  0  0  0  0  0  0
  146.1790  153.9270  136.1990 C   0  0  0  0  0  0  0  0  0  0  0  0
  144.9630  153.8490  136.5180 O   0  0  0  0  0  0  0  0  0  0  0  0
  147.0960  153.0520  136.7680 O   0  0  0  0  0  0  0  0  0  0  0  0
  145.1500  155.1250  133.1800 C   0  0  0  0  0  0  0  0  0  0  0  0
  144.9690  154.8400  131.9630 O   0  0  0  0  0  0  0  0  0  0  0  0
  144.1860  156.0660  133.8600 C   0  0  0  0  0  0  0  0  0  0  0  0
  143.8130  157.2320  132.9850 C   0  0  0  0  0  0  0  0  0  0  0  0
  142.9040  157.0940  132.1220 O   0  0  0  0  0  0  0  0  0  0  0  0
  144.4510  158.5080  133.1510 N   0  0  0  0  0  0  0  0  0  0  0  0
  143.8760  159.6870  133.5300 C   0  0  0  0  0  0  0  0  0  0  0  0
  142.4330  159.9240  133.7490 C   0  0  0  0  0  0  0  0  0  0  0  0
  141.4690  159.5780  132.7600 N   0  0  0  0  0  0  0  0  0  0  0  0
  142.0470  160.4670  134.8180 O   0  0  0  0  0  0  0  0  0  0  0  0
  144.8430  160.6850  133.6470 C   0  0  0  0  0  0  0  0  0  0  0  0
  146.0370  160.0780  133.3320 C   0  0  0  0  0  0  0  0  0  0  0  0
  147.3270  160.5990  133.3130 C   0  0  0  0  0  0  0  0  0  0  0  0
  148.3840  159.7290  132.9930 C   0  0  0  0  0  0  0  0  0  0  0  0
  148.1320  158.3640  132.7130 C   0  0  0  0  0  0  0  0  0  0  0  0
  149.2160  157.4860  132.4050 N   0  0  0  0  0  0  0  0  0  0  0  0
  146.8110  157.8700  132.7450 C   0  0  0  0  0  0  0  0  0  0  0  0
  145.7750  158.7640  133.0430 C   0  0  0  0  0  0  0  0  0  0  0  0
  147.7587  153.0712  133.8761 H   0  0  0  0  0  0  0  0  0  0  0  0
  146.5864  153.0070  132.5166 H   0  0  0  0  0  0  0  0  0  0  0  0
  147.8952  154.2373  132.5166 H   0  0  0  0  0  0  0  0  0  0  0  0
  147.7288  155.1081  135.3396 H   0  0  0  0  0  0  0  0  0  0  0  0
  146.1279  155.9275  135.4839 H   0  0  0  0  0  0  0  0  0  0  0  0
  143.2722  155.5107  134.1179 H   0  0  0  0  0  0  0  0  0  0  0  0
  144.6812  156.4640  134.7580 H   0  0  0  0  0  0  0  0  0  0  0  0
  141.7120  158.9350  131.9740 H   0  0  0  0  0  0  0  0  0  0  0  0
  144.6846  161.7358  133.9312 H   0  0  0  0  0  0  0  0  0  0  0  0
  147.5140  161.6587  133.5413 H   0  0  0  0  0  0  0  0  0  0  0  0
  149.4148  160.1116  132.9599 H   0  0  0  0  0  0  0  0  0  0  0  0
  149.3160  157.0710  131.4510 H   0  0  0  0  0  0  0  0  0  0  0  0
  149.9290  157.2420  133.1300 H   0  0  0  0  0  0  0  0  0  0  0  0
  146.6001  156.8098  132.5411 H   0  0  0  0  0  0  0  0  0  0  0  0
  1  2  1  0
  2  3  1  0
  3  4  1  0
  4  5  2  0
  4  6  1  0
  2  7  1  0
  7  8  2  0
  7  9  1  0
  9 10  1  0
 10 11  2  0
 10 12  1  0
 12 13  1  0
 13 14  1  0
 14 15  1  0
 14 16  2  0
 13 17  2  0
 17 18  1  0
 18 19  2  0
 19 20  1  0
 20 21  2  0
 21 22  1  0
 21 23  1  0
 23 24  2  0
 24 12  1  0
 24 18  1  0
  1 25  1  0
  1 26  1  0
  1 27  1  0
  3 28  1  0
  3 29  1  0
  9 30  1  0
  9 31  1  0
 15 32  1  0
 17 33  1  0
 19 34  1  0
 20 35  1  0
 22 36  1  0
 22 37  1  0
 23 38  1  0
M  CHG  2   6  -1  15  -1
M  END
>  <UniqueID>  (5) 
5

>  <SMILES>  (5) 
CN(CC(=O)[O-])C(=O)CC(=O)n1c(C([NH-])=O)cc2ccc(N)cc21

>  <Energy>  (5) 
74.70573781663948

>  <Genealogy>  (5) 
CN(CC(=O)[O-])C(=O)CC(=O)n1c(C([NH-])=O)cc2ccc(N)cc21 (protonated)
CN(CC(=O)[O-])C(=O)CC(=O)n1c(C([NH-])=O)cc2ccc(N)cc21 (3D coordinates assigned)
CN(CC(=O)[O-])C(=O)CC(=O)n1c(C([NH-])=O)cc2ccc(N)cc21 (optimized conformer: 74.70573781663948 kcal/mol)

>  <smiles>  (5) 
CN(CC(=O)O)C(=O)CC(=O)n1c(C(N)=O)cc2ccc(N)cc21

>  <score_type>  (5) 
oracle

>  <origin>  (5) 
adg

>  <m_score__min__energy>  (5) 
-6.6299999999999999

>  <m_primary>  (5) 
energy

$$$$
5:0
     RDKit          3D

 33 34  0  0  0  0  0  0  0  0999 V2000
  145.2510  156.7730  133.6200 N   0  0  0  0  0  0  0  0  0  0  0  0
  146.5520  157.1610  134.0560 C   0  0  0  0  0  0  0  0  0  0  0  0
  147.0120  156.6790  135.1260 O   0  0  0  0  0  0  0  0  0  0  0  0
  147.3810  158.0800  133.2500 C   0  0  0  0  0  0  0  0  0  0  0  0
  148.5700  157.7010  132.6310 C   0  0  0  0  0  0  0  0  0  0  0  0
  148.9770  158.8020  131.9130 C   0  0  0  0  0  0  0  0  0  0  0  0
  150.1010  158.9870  131.1130 C   0  0  0  0  0  0  0  0  0  0  0  0
  150.2790  160.2440  130.5090 C   0  0  0  0  0  0  0  0  0  0  0  0
  149.3410  161.2840  130.7200 C   0  0  0  0  0  0  0  0  0  0  0  0
  149.5390  162.5600  130.1070 N   0  0  0  0  0  0  0  0  0  0  0  0
  148.2120  161.0610  131.5360 C   0  0  0  0  0  0  0  0  0  0  0  0
  148.0520  159.7950  132.1130 C   0  0  0  0  0  0  0  0  0  0  0  0
  147.0700  159.3690  132.9350 N   0  0  0  0  0  0  0  0  0  0  0  0
  145.9780  160.1600  133.4300 C   0  0  0  0  0  0  0  0  0  0  0  0
  146.2160  161.2780  133.9650 O   0  0  0  0  0  0  0  0  0  0  0  0
  144.6360  159.6580  133.3530 N   0  0  0  0  0  0  0  0  0  0  0  0
  143.4710  160.4100  133.7210 C   0  0  0  0  0  0  0  0  0  0  0  0
  143.5730  161.6070  134.1050 O   0  0  0  0  0  0  0  0  0  0  0  0
  142.2140  159.8000  133.6360 O   0  0  0  0  0  0  0  0  0  0  0  0
  141.8880  158.5820  134.3000 C   0  0  0  0  0  0  0  0  0  0  0  0
  142.0480  157.4230  133.3700 C   0  0  0  0  0  0  0  0  0  0  0  0
  141.4600  156.3340  133.6020 O   0  0  0  0  0  0  0  0  0  0  0  0
  142.8700  157.5370  132.2550 O   0  0  0  0  0  0  0  0  0  0  0  0
  144.9130  157.0090  132.6620 H   0  0  0  0  0  0  0  0  0  0  0  0
  149.0766  156.7271  132.7013 H   0  0  0  0  0  0  0  0  0  0  0  0
  150.8271  158.1753  130.9583 H   0  0  0  0  0  0  0  0  0  0  0  0
  151.1544  160.4213  129.8670 H   0  0  0  0  0  0  0  0  0  0  0  0
  148.8280  162.9530  129.4500 H   0  0  0  0  0  0  0  0  0  0  0  0
  150.3970  163.1210  130.3050 H   0  0  0  0  0  0  0  0  0  0  0  0
  147.4772  161.8599  131.7142 H   0  0  0  0  0  0  0  0  0  0  0  0
  144.4940  158.6800  133.0150 H   0  0  0  0  0  0  0  0  0  0  0  0
  142.5570  158.4493  135.1630 H   0  0  0  0  0  0  0  0  0  0  0  0
  140.8417  158.6279  134.6365 H   0  0  0  0  0  0  0  0  0  0  0  0
  1  2  1  0
  2  3  2  0
  2  4  1  0
  4  5  2  0
  5  6  1  0
  6  7  2  0
  7  8  1  0
  8  9  2  0
  9 10  1  0
  9 11  1  0
 11 12  2  0
 12 13  1  0
 13 14  1  0
 14 15  2  0
 14 16  1  0
 16 17  1  0
 17 18  2  0
 17 19  1  0
 19 20  1  0
 20 21  1  0
 21 22  2  0
 21 23  1  0
 13  4  1  0
 12  6  1  0
  1 24  1  0
  5 25  1  0
  7 26  1  0
  8 27  1  0
 10 28  1  0
 10 29  1  0
 11 30  1  0
 16 31  1  0
 20 32  1  0
 20 33  1  0
M  CHG  2   1  -1  23  -1
M  END
>  <UniqueID>  (6) 
6

>  <SMILES>  (6) 
[NH-]C(=O)c1cc2ccc(N)cc2n1C(=O)NC(=O)OCC(=O)[O-]

>  <Energy>  (6) 
69.64922851564911

>  <Genealogy>  (6) 
[NH-]C(=O)c1cc2ccc(N)cc2n1C(=O)NC(=O)OCC(=O)[O-] (protonated)
[NH-]C(=O)c1cc2ccc(N)cc2n1C(=O)NC(=O)OCC(=O)[O-] (3D coordinates assigned)
[NH-]C(=O)c1cc2ccc(N)cc2n1C(=O)NC(=O)OCC(=O)[O-] (optimized conformer: 69.64922851564911 kcal/mol)

>  <smiles>  (6) 
NC(=O)c1cc2ccc(N)cc2n1C(=O)NC(=O)OCC(=O)O

>  <score_type>  (6) 
oracle

>  <origin>  (6) 
adg

>  <m_score__min__energy>  (6) 
-6.3799999999999999

>  <m_primary>  (6) 
energy

$$$$
6:0
     RDKit          3D

 45 46  0  0  0  0  0  0  0  0999 V2000
  149.5770  153.4970  132.2300 C   0  0  0  0  0  0  0  0  0  0  0  0
  149.1800  154.8060  132.5730 O   0  0  0  0  0  0  0  0  0  0  0  0
  148.0740  154.7470  133.4480 C   0  0  0  0  0  0  0  0  0  0  0  0
  147.6340  156.0690  133.7430 O   0  0  0  0  0  0  0  0  0  0  0  0
  146.5220  156.6580  133.1310 C   0  0  0  0  0  0  0  0  0  0  0  0
  145.6210  155.9360  132.6220 O   0  0  0  0  0  0  0  0  0  0  0  0
  146.4070  158.0910  133.0910 N   0  0  0  0  0  0  0  0  0  0  0  0
  147.3950  158.9880  132.8150 C   0  0  0  0  0  0  0  0  0  0  0  0
  148.7520  158.6550  132.3400 C   0  0  0  0  0  0  0  0  0  0  0  0
  149.0670  157.3440  131.8700 N   0  0  0  0  0  0  0  0  0  0  0  0
  149.6340  159.5540  132.3050 O   0  0  0  0  0  0  0  0  0  0  0  0
  146.9460  160.2920  133.0020 C   0  0  0  0  0  0  0  0  0  0  0  0
  145.6330  160.1700  133.3940 C   0  0  0  0  0  0  0  0  0  0  0  0
  144.7050  161.1540  133.7290 C   0  0  0  0  0  0  0  0  0  0  0  0
  143.4270  160.7400  134.1390 C   0  0  0  0  0  0  0  0  0  0  0  0
  143.1070  159.3640  134.2090 C   0  0  0  0  0  0  0  0  0  0  0  0
  141.8030  158.9530  134.6500 N   0  0  0  0  0  0  0  0  0  0  0  0
  141.5490  159.0180  136.0950 C   0  0  0  0  0  0  0  0  0  0  0  0
  140.7590  158.4640  133.7110 C   0  0  1  0  0  0  0  0  0  0  0  0
  141.1960  157.1710  132.9810 C   0  0  0  0  0  0  0  0  0  0  0  0
  139.4980  158.1600  134.5000 C   0  0  0  0  0  0  0  0  0  0  0  0
  138.7210  157.2870  134.1390 O   0  0  0  0  0  0  0  0  0  0  0  0
  140.4960  159.5250  132.6580 C   0  0  0  0  0  0  0  0  0  0  0  0
  140.2540  159.2020  131.4620 O   0  0  0  0  0  0  0  0  0  0  0  0
  140.6180  160.8720  132.9830 O   0  0  0  0  0  0  0  0  0  0  0  0
  144.0700  158.3930  133.8670 C   0  0  0  0  0  0  0  0  0  0  0  0
  145.3310  158.8310  133.4430 C   0  0  0  0  0  0  0  0  0  0  0  0
  149.7534  152.9153  133.1468 H   0  0  0  0  0  0  0  0  0  0  0  0
  148.7841  153.0167  131.6378 H   0  0  0  0  0  0  0  0  0  0  0  0
  150.5031  153.5380  131.6378 H   0  0  0  0  0  0  0  0  0  0  0  0
  147.2572  154.1863  132.9700 H   0  0  0  0  0  0  0  0  0  0  0  0
  148.3685  154.2410  134.3793 H   0  0  0  0  0  0  0  0  0  0  0  0
  148.3270  156.6160  131.7670 H   0  0  0  0  0  0  0  0  0  0  0  0
  150.0460  157.1120  131.5850 H   0  0  0  0  0  0  0  0  0  0  0  0
  147.5185  161.2213  132.8656 H   0  0  0  0  0  0  0  0  0  0  0  0
  144.9651  162.2214  133.6741 H   0  0  0  0  0  0  0  0  0  0  0  0
  142.6696  161.4912  134.4076 H   0  0  0  0  0  0  0  0  0  0  0  0
  142.4742  158.7812  136.6409 H   0  0  0  0  0  0  0  0  0  0  0  0
  141.2140  160.0308  136.3632 H   0  0  0  0  0  0  0  0  0  0  0  0
  140.7686  158.2906  136.3632 H   0  0  0  0  0  0  0  0  0  0  0  0
  141.4561  156.4013  133.7226 H   0  0  0  0  0  0  0  0  0  0  0  0
  140.3704  156.8088  132.3508 H   0  0  0  0  0  0  0  0  0  0  0  0
  142.0721  157.3840  132.3508 H   0  0  0  0  0  0  0  0  0  0  0  0
  139.2794  158.7348  135.4121 H   0  0  0  0  0  0  0  0  0  0  0  0
  143.8373  157.3198  133.9314 H   0  0  0  0  0  0  0  0  0  0  0  0
  1  2  1  0
  2  3  1  0
  3  4  1  0
  4  5  1  0
  5  6  2  0
  5  7  1  0
  7  8  1  0
  8  9  1  0
  9 10  1  0
  9 11  2  0
  8 12  2  0
 12 13  1  0
 13 14  2  0
 14 15  1  0
 15 16  2  0
 16 17  1  0
 17 18  1  0
 19 17  1  1
 19 20  1  0
 19 21  1  0
 21 22  2  0
 19 23  1  0
 23 24  2  0
 23 25  1  0
 16 26  1  0
 26 27  2  0
 27  7  1  0
 27 13  1  0
  1 28  1  0
  1 29  1  0
  1 30  1  0
  3 31  1  0
  3 32  1  0
 10 33  1  0
 10 34  1  0
 12 35  1  0
 14 36  1  0
 15 37  1  0
 18 38  1  0
 18 39  1  0
 18 40  1  0
 20 41  1  0
 20 42  1  0
 20 43  1  0
 21 44  1  0
 26 45  1  0
M  CHG  1  25  -1
M  END
>  <UniqueID>  (7) 
7

>  <SMILES>  (7) 
COCOC(=O)n1c(C(N)=O)cc2ccc(N(C)[C@@](C)(C=O)C(=O)[O-])cc21

>  <Energy>  (7) 
91.59629658181119

>  <Genealogy>  (7) 
COCOC(=O)n1c(C(N)=O)cc2ccc(N(C)C(C)(C=O)C(=O)[O-])cc21 (protonated)
COCOC(=O)n1c(C(N)=O)cc2ccc(N(C)[C@@](C)(C=O)C(=O)[O-])cc21 (chirality)
COCOC(=O)n1c(C(N)=O)cc2ccc(N(C)[C@@](C)(C=O)C(=O)[O-])cc21 (3D coordinates assigned)
COCOC(=O)n1c(C(N)=O)cc2ccc(N(C)[C@@](C)(C=O)C(=O)[O-])cc21 (optimized conformer: 91.59629658181119 kcal/mol)

>  <smiles>  (7) 
COCOC(=O)n1c(C(N)=O)cc2ccc(N(C)C(C)(C=O)C(=O)O)cc21

>  <score_type>  (7) 
oracle

>  <origin>  (7) 
adg

>  <m_score__min__energy>  (7) 
-6.8099999999999996

>  <m_primary>  (7) 
energy

$$$$
7:0
     RDKit          3D

 40 41  0  0  0  0  0  0  0  0999 V2000
  147.3360  151.5640  132.2360 C   0  0  0  0  0  0  0  0  0  0  0  0
  148.6520  152.0240  132.7060 N   0  0  0  0  0  0  0  0  0  0  0  0
  149.6030  151.0420  133.2520 C   0  0  0  0  0  0  0  0  0  0  0  0
  150.7070  150.7310  132.2430 C   0  0  0  0  0  0  0  0  0  0  0  0
  150.2990  151.1070  130.9560 O   0  0  0  0  0  0  0  0  0  0  0  0
  149.0390  153.4170  132.6030 C   0  0  0  0  0  0  0  0  0  0  0  0
  150.2180  153.7150  132.2570 O   0  0  0  0  0  0  0  0  0  0  0  0
  148.1050  154.5470  132.9540 C   0  0  0  0  0  0  0  0  0  0  0  0
  148.6990  155.8380  132.5880 N   0  0  0  0  0  0  0  0  0  0  0  0
  148.0640  157.1020  132.8520 C   0  0  0  0  0  0  0  0  0  0  0  0
  148.8690  158.2610  132.9880 C   0  0  0  0  0  0  0  0  0  0  0  0
  148.2910  159.5120  133.2580 C   0  0  0  0  0  0  0  0  0  0  0  0
  146.9070  159.5770  133.3900 C   0  0  0  0  0  0  0  0  0  0  0  0
  146.0960  160.6470  133.6880 C   0  0  0  0  0  0  0  0  0  0  0  0
  144.8020  160.1340  133.7280 C   0  0  0  0  0  0  0  0  0  0  0  0
  143.6030  160.9690  133.9600 C   0  0  0  0  0  0  0  0  0  0  0  0
  142.3730  160.3930  134.3980 N   0  0  0  0  0  0  0  0  0  0  0  0
  143.6550  162.2070  133.7310 O   0  0  0  0  0  0  0  0  0  0  0  0
  144.8120  158.7930  133.4720 N   0  0  0  0  0  0  0  0  0  0  0  0
  143.7150  157.8680  133.5590 C   0  0  0  0  0  0  0  0  0  0  0  0
  142.7800  157.9080  132.7130 O   0  0  0  0  0  0  0  0  0  0  0  0
  143.6520  156.9460  134.5980 O   0  0  0  0  0  0  0  0  0  0  0  0
  146.1090  158.4710  133.2580 C   0  0  0  0  0  0  0  0  0  0  0  0
  146.6580  157.2100  132.9940 C   0  0  0  0  0  0  0  0  0  0  0  0
  146.6952  151.3400  133.1016 H   0  0  0  0  0  0  0  0  0  0  0  0
  146.8680  152.3518  131.6275 H   0  0  0  0  0  0  0  0  0  0  0  0
  147.4608  150.6562  131.6275 H   0  0  0  0  0  0  0  0  0  0  0  0
  150.0565  151.4505  134.1671 H   0  0  0  0  0  0  0  0  0  0  0  0
  149.0586  150.1123  133.4741 H   0  0  0  0  0  0  0  0  0  0  0  0
  151.6160  151.2878  132.5143 H   0  0  0  0  0  0  0  0  0  0  0  0
  150.9140  149.6507  132.2553 H   0  0  0  0  0  0  0  0  0  0  0  0
  150.4210  152.0900  130.9080 H   0  0  0  0  0  0  0  0  0  0  0  0
  147.1584  154.4167  132.4090 H   0  0  0  0  0  0  0  0  0  0  0  0
  147.9232  154.5341  134.0388 H   0  0  0  0  0  0  0  0  0  0  0  0
  149.6330  155.8470  132.1150 H   0  0  0  0  0  0  0  0  0  0  0  0
  149.9607  158.1793  132.8806 H   0  0  0  0  0  0  0  0  0  0  0  0
  148.9132  160.4132  133.3620 H   0  0  0  0  0  0  0  0  0  0  0  0
  146.4046  161.6889  133.8588 H   0  0  0  0  0  0  0  0  0  0  0  0
  142.0300  159.4940  133.9960 H   0  0  0  0  0  0  0  0  0  0  0  0
  146.0130  156.3240  132.8991 H   0  0  0  0  0  0  0  0  0  0  0  0
  1  2  1  0
  2  3  1  0
  3  4  1  0
  4  5  1  0
  2  6  1  0
  6  7  2  0
  6  8  1  0
  8  9  1  0
  9 10  1  0
 10 11  2  0
 11 12  1  0
 12 13  2  0
 13 14  1  0
 14 15  2  0
 15 16  1  0
 16 17  1  0
 16 18  2  0
 15 19  1  0
 19 20  1  0
 20 21  2  0
 20 22  1  0
 19 23  1  0
 23 24  2  0
 24 10  1  0
 23 13  1  0
  1 25  1  0
  1 26  1  0
  1 27  1  0
  3 28  1  0
  3 29  1  0
  4 30  1  0
  4 31  1  0
  5 32  1  0
  8 33  1  0
  8 34  1  0
  9 35  1  0
 11 36  1  0
 12 37  1  0
 14 38  1  0
 17 39  1  0
 24 40  1  0
M  CHG  2  17  -1  22  -1
M  END
>  <UniqueID>  (8) 
8

>  <SMILES>  (8) 
CN(CCO)C(=O)CNc1ccc2cc(C([NH-])=O)n(C(=O)[O-])c2c1

>  <Energy>  (8) 
75.68927407581745

>  <Genealogy>  (8) 
CN(CCO)C(=O)CNc1ccc2cc(C([NH-])=O)n(C(=O)[O-])c2c1 (protonated)
CN(CCO)C(=O)CNc1ccc2cc(C([NH-])=O)n(C(=O)[O-])c2c1 (3D coordinates assigned)
CN(CCO)C(=O)CNc1ccc2cc(C([NH-])=O)n(C(=O)[O-])c2c1 (optimized conformer: 75.68927407581745 kcal/mol)

>  <smiles>  (8) 
CN(CCO)C(=O)CNc1ccc2cc(C(N)=O)n(C(=O)O)c2c1

>  <score_type>  (8) 
oracle

>  <origin>  (8) 
adg

>  <m_score__min__energy>  (8) 
-6.5499999999999998

>  <m_primary>  (8) 
energy

$$$$
8:0
     RDKit          3D

 63 65  0  0  0  0  0  0  0  0999 V2000
  140.2290  149.2120  129.7560 C   0  0  0  0  0  0  0  0  0  0  0  0
  139.3550  148.4920  130.8000 C   0  0  0  0  0  0  0  0  0  0  0  0
  138.0170  149.2330  130.9290 C   0  0  0  0  0  0  0  0  0  0  0  0
  139.0830  147.0380  130.3680 C   0  0  0  0  0  0  0  0  0  0  0  0
  139.9810  148.5290  132.0900 O   0  0  0  0  0  0  0  0  0  0  0  0
  141.2620  149.0240  132.3850 C   0  0  0  0  0  0  0  0  0  0  0  0
  142.2120  148.2320  132.6320 O   0  0  0  0  0  0  0  0  0  0  0  0
  141.4820  150.4480  132.4220 N   0  0  0  0  0  0  0  0  0  0  0  0
  140.4290  151.3750  131.9840 C   0  0  0  0  0  0  0  0  0  0  0  0
  140.3280  152.5380  132.9670 C   0  0  0  0  0  0  0  0  0  0  0  0
  141.6600  153.1150  133.1940 N   0  0  0  0  0  0  0  0  0  0  0  0
  141.8020  154.5390  133.3490 C   0  0  0  0  0  0  0  0  0  0  0  0
  140.6610  155.3830  133.3570 C   0  0  0  0  0  0  0  0  0  0  0  0
  140.7990  156.7770  133.5000 C   0  0  0  0  0  0  0  0  0  0  0  0
  142.0830  157.2980  133.6320 C   0  0  0  0  0  0  0  0  0  0  0  0
  142.5050  158.6020  133.7640 C   0  0  0  0  0  0  0  0  0  0  0  0
  143.8960  158.5380  133.8320 C   0  0  0  0  0  0  0  0  0  0  0  0
  144.7660  159.7340  133.8310 C   0  0  0  0  0  0  0  0  0  0  0  0
  144.2060  161.0130  133.5480 N   0  0  0  0  0  0  0  0  0  0  0  0
  146.0090  159.6340  134.0390 O   0  0  0  0  0  0  0  0  0  0  0  0
  144.3150  157.2410  133.7510 N   0  0  0  0  0  0  0  0  0  0  0  0
  145.6610  156.7410  133.7210 C   0  0  0  0  0  0  0  0  0  0  0  0
  146.0010  155.8300  134.5240 O   0  0  0  0  0  0  0  0  0  0  0  0
  146.5910  157.3020  132.8350 O   0  0  0  0  0  0  0  0  0  0  0  0
  148.0210  157.3030  132.9920 C   0  0  0  0  0  0  0  0  0  0  0  0
  148.5870  155.8820  132.8120 C   0  0  0  0  0  0  0  0  0  0  0  0
  148.3240  157.7790  134.4190 C   0  0  0  0  0  0  0  0  0  0  0  0
  148.6750  158.2780  131.9940 C   0  0  0  0  0  0  0  0  0  0  0  0
  143.1940  156.4980  133.6210 C   0  0  0  0  0  0  0  0  0  0  0  0
  143.0880  155.1060  133.4940 C   0  0  0  0  0  0  0  0  0  0  0  0
  142.7410  152.2120  133.6020 C   0  0  0  0  0  0  0  0  0  0  0  0
  142.8200  151.0050  132.6580 C   0  0  0  0  0  0  0  0  0  0  0  0
  140.9796  149.8304  130.2699 H   0  0  0  0  0  0  0  0  0  0  0  0
  140.7369  148.4667  129.1262 H   0  0  0  0  0  0  0  0  0  0  0  0
  139.5947  149.8531  129.1262 H   0  0  0  0  0  0  0  0  0  0  0  0
  137.7736  149.3678  131.9932 H   0  0  0  0  0  0  0  0  0  0  0  0
  138.0944  150.2168  130.4431 H   0  0  0  0  0  0  0  0  0  0  0  0
  137.2241  148.6454  130.4431 H   0  0  0  0  0  0  0  0  0  0  0  0
  138.9648  146.4063  131.2607 H   0  0  0  0  0  0  0  0  0  0  0  0
  138.1622  147.0001  129.7675 H   0  0  0  0  0  0  0  0  0  0  0  0
  139.9278  146.6698  129.7675 H   0  0  0  0  0  0  0  0  0  0  0  0
  140.6746  151.7615  130.9839 H   0  0  0  0  0  0  0  0  0  0  0  0
  139.4667  150.8433  131.9477 H   0  0  0  0  0  0  0  0  0  0  0  0
  139.6617  153.3092  132.5531 H   0  0  0  0  0  0  0  0  0  0  0  0
  139.9232  152.1721  133.9221 H   0  0  0  0  0  0  0  0  0  0  0  0
  139.6583  154.9435  133.2504 H   0  0  0  0  0  0  0  0  0  0  0  0
  139.9177  157.4352  133.5072 H   0  0  0  0  0  0  0  0  0  0  0  0
  141.8770  159.5041  133.8068 H   0  0  0  0  0  0  0  0  0  0  0  0
  144.7340  161.7090  132.9750 H   0  0  0  0  0  0  0  0  0  0  0  0
  148.7666  155.4311  133.7991 H   0  0  0  0  0  0  0  0  0  0  0  0
  147.8649  155.2676  132.2541 H   0  0  0  0  0  0  0  0  0  0  0  0
  149.5337  155.9324  132.2541 H   0  0  0  0  0  0  0  0  0  0  0  0
  147.8785  157.0792  135.1413 H   0  0  0  0  0  0  0  0  0  0  0  0
  149.4130  157.8172  134.5693 H   0  0  0  0  0  0  0  0  0  0  0  0
  147.8977  158.7818  134.5693 H   0  0  0  0  0  0  0  0  0  0  0  0
  149.2048  159.0678  132.5467 H   0  0  0  0  0  0  0  0  0  0  0  0
  149.3894  157.7308  131.3614 H   0  0  0  0  0  0  0  0  0  0  0  0
  147.8977  158.7314  131.3614 H   0  0  0  0  0  0  0  0  0  0  0  0
  143.9853  154.4698  133.5069 H   0  0  0  0  0  0  0  0  0  0  0  0
  143.6966  152.7561  133.5743 H   0  0  0  0  0  0  0  0  0  0  0  0
  142.5378  151.8527  134.6216 H   0  0  0  0  0  0  0  0  0  0  0  0
  143.2538  151.3236  131.6987 H   0  0  0  0  0  0  0  0  0  0  0  0
  143.4505  150.2318  133.1213 H   0  0  0  0  0  0  0  0  0  0  0  0
  1  2  1  0
  2  3  1  0
  2  4  1  0
  2  5  1  0
  5  6  1  0
  6  7  2  0
  6  8  1  0
  8  9  1  0
  9 10  1  0
 10 11  1  0
 11 12  1  0
 12 13  2  0
 13 14  1  0
 14 15  2  0
 15 16  1  0
 16 17  2  0
 17 18  1  0
 18 19  1  0
 18 20  2  0
 17 21  1  0
 21 22  1  0
 22 23  2  0
 22 24  1  0
 24 25  1  0
 25 26  1  0
 25 27  1  0
 25 28  1  0
 21 29  1  0
 29 30  2  0
 11 31  1  0
 31 32  1  0
 32  8  1  0
 30 12  1  0
 29 15  1  0
  1 33  1  0
  1 34  1  0
  1 35  1  0
  3 36  1  0
  3 37  1  0
  3 38  1  0
  4 39  1  0
  4 40  1  0
  4 41  1  0
  9 42  1  0
  9 43  1  0
 10 44  1  0
 10 45  1  0
 13 46  1  0
 14 47  1  0
 16 48  1  0
 19 49  1  0
 26 50  1  0
 26 51  1  0
 26 52  1  0
 27 53  1  0
 27 54  1  0
 27 55  1  0
 28 56  1  0
 28 57  1  0
 28 58  1  0
 30 59  1  0
 31 60  1  0
 31 61  1  0
 32 62  1  0
 32 63  1  0
M  CHG  1  19  -1
M  END
>  <UniqueID>  (9) 
9

>  <SMILES>  (9) 
CC(C)(C)OC(=O)N1CCN(c2ccc3cc(C([NH-])=O)n(C(=O)OC(C)(C)C)c3c2)CC1

>  <Energy>  (9) 
97.37909378770993

>  <Genealogy>  (9) 
CC(C)(C)OC(=O)N1CCN(c2ccc3cc(C([NH-])=O)n(C(=O)OC(C)(C)C)c3c2)CC1 (protonated)
CC(C)(C)OC(=O)N1CCN(c2ccc3cc(C([NH-])=O)n(C(=O)OC(C)(C)C)c3c2)CC1 (3D coordinates assigned)
CC(C)(C)OC(=O)N1CCN(c2ccc3cc(C([NH-])=O)n(C(=O)OC(C)(C)C)c3c2)CC1 (nonaromatic ring conformer: 97.37909378770993 kcal/mol)

>  <smiles>  (9) 
CC(C)(C)OC(=O)N1CCN(c2ccc3cc(C(N)=O)n(C(=O)OC(C)(C)C)c3c2)CC1

>  <score_type>  (9) 
oracle

>  <origin>  (9) 
adg

>  <m_score__min__energy>  (9) 
-9.1999999999999993

>  <m_primary>  (9) 
energy

$$$$
9:0
     RDKit          3D

 37 38  0  0  0  0  0  0  0  0999 V2000
  143.1600  160.8410  133.3670 N   0  0  0  0  0  0  0  0  0  0  0  0
  144.4420  160.8020  133.9890 C   0  0  0  0  0  0  0  0  0  0  0  0
  144.7300  161.6660  134.8590 O   0  0  0  0  0  0  0  0  0  0  0  0
  145.3990  159.7330  133.6360 C   0  0  0  0  0  0  0  0  0  0  0  0
  146.7240  159.9730  133.2720 C   0  0  0  0  0  0  0  0  0  0  0  0
  147.2440  158.7410  132.9490 C   0  0  0  0  0  0  0  0  0  0  0  0
  148.5210  158.3890  132.5270 C   0  0  0  0  0  0  0  0  0  0  0  0
  148.7840  157.0300  132.2870 C   0  0  0  0  0  0  0  0  0  0  0  0
  147.7790  156.0470  132.4760 C   0  0  0  0  0  0  0  0  0  0  0  0
  148.1060  154.6640  132.2340 N   0  0  0  0  0  0  0  0  0  0  0  0
  149.3520  154.0040  132.6350 C   0  0  0  0  0  0  0  0  0  0  0  0
  149.1730  152.4840  132.7120 C   0  0  0  0  0  0  0  0  0  0  0  0
  147.7740  152.1070  132.5320 N   0  0  0  0  0  0  0  0  0  0  0  0
  146.4960  156.4470  132.9210 C   0  0  0  0  0  0  0  0  0  0  0  0
  146.2540  157.8100  133.1250 C   0  0  0  0  0  0  0  0  0  0  0  0
  145.1160  158.4020  133.5450 N   0  0  0  0  0  0  0  0  0  0  0  0
  143.8810  157.7370  133.8540 C   0  0  0  0  0  0  0  0  0  0  0  0
  142.7850  158.3390  133.6970 O   0  0  0  0  0  0  0  0  0  0  0  0
  143.9040  156.3980  134.3600 N   0  0  0  0  0  0  0  0  0  0  0  0
  143.7790  155.2150  133.5190 C   0  0  0  0  0  0  0  0  0  0  0  0
  144.7750  154.1830  133.9390 C   0  0  0  0  0  0  0  0  0  0  0  0
  144.8500  153.8260  135.1440 O   0  0  0  0  0  0  0  0  0  0  0  0
  145.6470  153.6410  133.0050 O   0  0  0  0  0  0  0  0  0  0  0  0
  142.9160  160.1800  132.5970 H   0  0  0  0  0  0  0  0  0  0  0  0
  147.2433  160.9424  133.2482 H   0  0  0  0  0  0  0  0  0  0  0  0
  149.3015  159.1511  132.3853 H   0  0  0  0  0  0  0  0  0  0  0  0
  149.7844  156.7236  131.9474 H   0  0  0  0  0  0  0  0  0  0  0  0
  147.3950  154.0680  131.7530 H   0  0  0  0  0  0  0  0  0  0  0  0
  150.1347  154.2364  131.8978 H   0  0  0  0  0  0  0  0  0  0  0  0
  149.6367  154.3725  133.6316 H   0  0  0  0  0  0  0  0  0  0  0  0
  149.7763  152.0113  131.9230 H   0  0  0  0  0  0  0  0  0  0  0  0
  149.4999  152.1448  133.7061 H   0  0  0  0  0  0  0  0  0  0  0  0
  147.2870  152.2450  133.4460 H   0  0  0  0  0  0  0  0  0  0  0  0
  147.3390  152.7810  131.8610 H   0  0  0  0  0  0  0  0  0  0  0  0
  145.7067  155.7027  133.1024 H   0  0  0  0  0  0  0  0  0  0  0  0
  142.7638  154.8032  133.6178 H   0  0  0  0  0  0  0  0  0  0  0  0
  143.9675  155.4943  132.4719 H   0  0  0  0  0  0  0  0  0  0  0  0
  1  2  1  0
  2  3  2  0
  2  4  1  0
  4  5  2  0
  5  6  1  0
  6  7  2  0
  7  8  1  0
  8  9  2  0
  9 10  1  0
 10 11  1  0
 11 12  1  0
 12 13  1  0
  9 14  1  0
 14 15  2  0
 15 16  1  0
 16 17  1  0
 17 18  2  0
 17 19  1  0
 19 20  1  0
 20 21  1  0
 21 22  2  0
 21 23  1  0
 16  4  1  0
 15  6  1  0
  1 24  1  0
  5 25  1  0
  7 26  1  0
  8 27  1  0
 10 28  1  0
 11 29  1  0
 11 30  1  0
 12 31  1  0
 12 32  1  0
 13 33  1  0
 13 34  1  0
 14 35  1  0
 20 36  1  0
 20 37  1  0
M  CHG  3   1  -1  19  -1  23  -1
M  END
>  <UniqueID>  (10) 
10

>  <SMILES>  (10) 
[NH-]C(=O)c1cc2ccc(NCCN)cc2n1C(=O)[N-]CC(=O)[O-]

>  <Energy>  (10) 
69.79200878567839

>  <Genealogy>  (10) 
[NH-]C(=O)c1cc2ccc(NCCN)cc2n1C(=O)[N-]CC(=O)[O-] (protonated)
[NH-]C(=O)c1cc2ccc(NCCN)cc2n1C(=O)[N-]CC(=O)[O-] (3D coordinates assigned)
[NH-]C(=O)c1cc2ccc(NCCN)cc2n1C(=O)[N-]CC(=O)[O-] (optimized conformer: 69.79200878567839 kcal/mol)

>  <smiles>  (10) 
NCCNc1ccc2cc(C(N)=O)n(C(=O)NCC(=O)O)c2c1

>  <score_type>  (10) 
oracle

>  <origin>  (10) 
adg

>  <m_score__min__energy>  (10) 
-5.7199999999999998

>  <m_primary>  (10) 
energy

$$$$
10:0
     RDKit          3D

 39 41  0  0  0  0  0  0  0  0999 V2000
  138.8210  160.0830  132.2030 C   0  0  0  0  0  0  0  0  0  0  0  0
  139.7750  158.9950  132.5990 C   0  0  0  0  0  0  0  0  0  0  0  0
  139.3360  157.6500  132.6600 C   0  0  0  0  0  0  0  0  0  0  0  0
  140.2330  156.6210  132.9920 C   0  0  0  0  0  0  0  0  0  0  0  0
  141.5560  156.9640  133.2530 C   0  0  0  0  0  0  0  0  0  0  0  0
  142.6310  156.1630  133.5590 C   0  0  0  0  0  0  0  0  0  0  0  0
  143.7090  157.0320  133.6920 C   0  0  0  0  0  0  0  0  0  0  0  0
  145.0580  156.5880  134.0900 C   0  0  0  0  0  0  0  0  0  0  0  0
  146.1900  156.8290  133.2530 N   0  0  0  0  0  0  0  0  0  0  0  0
  145.2270  156.0510  135.2180 O   0  0  0  0  0  0  0  0  0  0  0  0
  143.3250  158.3200  133.4650 N   0  0  0  0  0  0  0  0  0  0  0  0
  144.1760  159.4760  133.3670 C   0  0  0  0  0  0  0  0  0  0  0  0
  143.8130  160.5720  133.8810 O   0  0  0  0  0  0  0  0  0  0  0  0
  145.3950  159.3890  132.6840 O   0  0  0  0  0  0  0  0  0  0  0  0
  146.5610  160.1230  133.0550 C   0  0  0  0  0  0  0  0  0  0  0  0
  147.8020  159.4660  132.5310 C   0  0  0  0  0  0  0  0  0  0  0  0
  148.1750  158.2450  132.8370 O   0  0  0  0  0  0  0  0  0  0  0  0
  149.2890  158.0320  132.1750 C   0  0  0  0  0  0  0  0  0  0  0  0
  149.9380  156.9550  132.2300 O   0  0  0  0  0  0  0  0  0  0  0  0
  149.6540  159.0670  131.4500 O   0  0  0  0  0  0  0  0  0  0  0  0
  148.7390  159.9870  131.6530 C   0  0  0  0  0  0  0  0  0  0  0  0
  148.7650  161.3510  131.0360 C   0  0  0  0  0  0  0  0  0  0  0  0
  149.9850  161.5580  130.3790 O   0  0  0  0  0  0  0  0  0  0  0  0
  141.9990  158.2620  133.1990 C   0  0  0  0  0  0  0  0  0  0  0  0
  141.1300  159.3050  132.8480 C   0  0  0  0  0  0  0  0  0  0  0  0
  138.4074  160.5547  133.1065 H   0  0  0  0  0  0  0  0  0  0  0  0
  139.3534  160.8381  131.6061 H   0  0  0  0  0  0  0  0  0  0  0  0
  138.0028  159.6539  131.6061 H   0  0  0  0  0  0  0  0  0  0  0  0
  138.2843  157.4090  132.4457 H   0  0  0  0  0  0  0  0  0  0  0  0
  139.8990  155.5742  133.0441 H   0  0  0  0  0  0  0  0  0  0  0  0
  142.6372  155.0690  133.6740 H   0  0  0  0  0  0  0  0  0  0  0  0
  147.1380  156.5090  133.5540 H   0  0  0  0  0  0  0  0  0  0  0  0
  146.1050  157.3870  132.3750 H   0  0  0  0  0  0  0  0  0  0  0  0
  146.4915  161.1403  132.6423 H   0  0  0  0  0  0  0  0  0  0  0  0
  146.6194  160.1542  134.1530 H   0  0  0  0  0  0  0  0  0  0  0  0
  147.9420  161.4385  130.3115 H   0  0  0  0  0  0  0  0  0  0  0  0
  148.6487  162.1067  131.8269 H   0  0  0  0  0  0  0  0  0  0  0  0
  150.6260  160.9040  130.7610 H   0  0  0  0  0  0  0  0  0  0  0  0
  141.4950  160.3396  132.7685 H   0  0  0  0  0  0  0  0  0  0  0  0
  1  2  1  0
  2  3  2  0
  3  4  1  0
  4  5  2  0
  5  6  1  0
  6  7  2  0
  7  8  1  0
  8  9  1  0
  8 10  2  0
  7 11  1  0
 11 12  1  0
 12 13  2  0
 12 14  1  0
 14 15  1  0
 15 16  1  0
 16 17  1  0
 17 18  1  0
 18 19  2  0
 18 20  1  0
 20 21  1  0
 21 22  1  0
 22 23  1  0
 11 24  1  0
 24 25  2  0
 25  2  1  0
 24  5  1  0
 21 16  2  0
  1 26  1  0
  1 27  1  0
  1 28  1  0
  3 29  1  0
  4 30  1  0
  6 31  1  0
  9 32  1  0
  9 33  1  0
 15 34  1  0
 15 35  1  0
 22 36  1  0
 22 37  1  0
 23 38  1  0
 25 39  1  0
M  END
>  <UniqueID>  (11) 
11

>  <SMILES>  (11) 
Cc1ccc2cc(C(N)=O)n(C(=O)OCc3oc(=O)oc3CO)c2c1

>  <Energy>  (11) 
109.46870465126648

>  <Genealogy>  (11) 
Cc1ccc2cc(C(N)=O)n(C(=O)OCc3oc(=O)oc3CO)c2c1 (3D coordinates assigned)
Cc1ccc2cc(C(N)=O)n(C(=O)OCc3oc(=O)oc3CO)c2c1 (optimized conformer: 109.46870465126648 kcal/mol)

>  <smiles>  (11) 
Cc1ccc2cc(C(N)=O)n(C(=O)OCc3oc(=O)oc3CO)c2c1

>  <score_type>  (11) 
oracle

>  <origin>  (11) 
adg

>  <m_score__min__energy>  (11) 
-6.9100000000000001

>  <m_primary>  (11) 
energy

$$$$
11:0
     RDKit          3D

 49 51  0  0  0  0  0  0  0  0999 V2000
  147.9580  159.3840  132.6040 C   0  0  0  0  0  0  0  0  0  0  0  0
  146.9300  158.3900  132.9280 N   0  0  0  0  0  0  0  0  0  0  0  0
  147.2540  156.9650  132.7640 C   0  0  0  0  0  0  0  0  0  0  0  0
  146.9770  156.1840  134.0290 C   0  0  0  0  0  0  0  0  0  0  0  0
  147.6680  156.3710  135.0230 O   0  0  0  0  0  0  0  0  0  0  0  0
  145.9090  155.1990  134.0580 N   0  0  2  0  0  0  0  0  0  0  0  0
  146.1380  154.3270  135.2290 C   0  0  0  0  0  0  0  0  0  0  0  0
  145.8590  154.4230  132.7810 C   0  0  1  0  0  0  0  0  0  0  0  0
  145.4970  152.9550  132.9970 C   0  0  0  0  0  0  0  0  0  0  0  0
  143.9790  152.9060  132.9080 C   0  0  0  0  0  0  0  0  0  0  0  0
  143.5180  154.1180  132.2260 N   0  0  0  0  0  0  0  0  0  0  0  0
  144.7140  154.8760  131.8620 C   0  0  0  0  0  0  0  0  0  0  0  0
  145.6020  158.8180  133.3170 C   0  0  0  0  0  0  0  0  0  0  0  0
  145.2830  160.2000  133.4120 C   0  0  0  0  0  0  0  0  0  0  0  0
  143.9990  160.6240  133.7900 C   0  0  0  0  0  0  0  0  0  0  0  0
  143.0500  159.6500  134.0770 C   0  0  0  0  0  0  0  0  0  0  0  0
  141.7310  159.7830  134.4430 C   0  0  0  0  0  0  0  0  0  0  0  0
  141.2570  158.4840  134.5960 C   0  0  0  0  0  0  0  0  0  0  0  0
  139.8950  158.1670  135.0730 C   0  0  0  0  0  0  0  0  0  0  0  0
  139.5930  158.1510  136.4660 N   0  0  0  0  0  0  0  0  0  0  0  0
  138.9750  157.9560  134.2380 O   0  0  0  0  0  0  0  0  0  0  0  0
  142.2420  157.5800  134.3260 N   0  0  0  0  0  0  0  0  0  0  0  0
  142.1310  156.1490  134.2780 C   0  0  0  0  0  0  0  0  0  0  0  0
  142.9670  155.4240  134.8780 O   0  0  0  0  0  0  0  0  0  0  0  0
  141.1090  155.5480  133.5510 O   0  0  0  0  0  0  0  0  0  0  0  0
  143.3360  158.3120  134.0140 C   0  0  0  0  0  0  0  0  0  0  0  0
  144.6010  157.8610  133.6220 C   0  0  0  0  0  0  0  0  0  0  0  0
  148.3798  159.7919  133.5344 H   0  0  0  0  0  0  0  0  0  0  0  0
  148.7570  158.9073  132.0173 H   0  0  0  0  0  0  0  0  0  0  0  0
  147.5084  160.1986  132.0173 H   0  0  0  0  0  0  0  0  0  0  0  0
  146.6435  156.5514  131.9478 H   0  0  0  0  0  0  0  0  0  0  0  0
  148.3262  156.8794  132.5336 H   0  0  0  0  0  0  0  0  0  0  0  0
  144.9940  155.6910  134.1990 H   0  0  0  0  0  0  0  0  0  0  0  0
  145.9861  154.9054  136.1522 H   0  0  0  0  0  0  0  0  0  0  0  0
  145.4305  153.4851  135.2032 H   0  0  0  0  0  0  0  0  0  0  0  0
  147.1679  153.9414  135.2032 H   0  0  0  0  0  0  0  0  0  0  0  0
  146.8633  154.5789  132.3603 H   0  0  0  0  0  0  0  0  0  0  0  0
  145.9504  152.3262  132.2166 H   0  0  0  0  0  0  0  0  0  0  0  0
  145.8666  152.5761  133.9613 H   0  0  0  0  0  0  0  0  0  0  0  0
  143.6684  152.0178  132.3382 H   0  0  0  0  0  0  0  0  0  0  0  0
  143.5422  152.8494  133.9160 H   0  0  0  0  0  0  0  0  0  0  0  0
  142.9690  154.6920  132.9080 H   0  0  0  0  0  0  0  0  0  0  0  0
  144.9768  154.6780  130.8124 H   0  0  0  0  0  0  0  0  0  0  0  0
  144.5337  155.9549  131.9783 H   0  0  0  0  0  0  0  0  0  0  0  0
  146.0552  160.9499  133.1855 H   0  0  0  0  0  0  0  0  0  0  0  0
  143.7518  161.6938  133.8569 H   0  0  0  0  0  0  0  0  0  0  0  0
  141.1697  160.7183  134.5847 H   0  0  0  0  0  0  0  0  0  0  0  0
  139.4290  159.0400  136.9910 H   0  0  0  0  0  0  0  0  0  0  0  0
  144.8151  156.7843  133.5517 H   0  0  0  0  0  0  0  0  0  0  0  0
  1  2  1  0
  2  3  1  0
  3  4  1  0
  4  5  2  0
  4  6  1  0
  6  7  1  0
  6  8  1  0
  8  9  1  0
  9 10  1  0
 10 11  1  0
 11 12  1  0
  2 13  1  0
 13 14  2  0
 14 15  1  0
 15 16  2  0
 16 17  1  0
 17 18  2  0
 18 19  1  0
 19 20  1  0
 19 21  2  0
 18 22  1  0
 22 23  1  0
 23 24  2  0
 23 25  1  0
 22 26  1  0
 26 27  2  0
 12  8  1  0
 27 13  1  0
 26 16  1  0
  1 28  1  0
  1 29  1  0
  1 30  1  0
  3 31  1  0
  3 32  1  0
  6 33  1  1
  7 34  1  0
  7 35  1  0
  7 36  1  0
  8 37  1  6
  9 38  1  0
  9 39  1  0
 10 40  1  0
 10 41  1  0
 11 42  1  0
 12 43  1  0
 12 44  1  0
 14 45  1  0
 15 46  1  0
 17 47  1  0
 20 48  1  0
 27 49  1  0
M  CHG  3   6   1  20  -1  25  -1
M  END
>  <UniqueID>  (12) 
12

>  <SMILES>  (12) 
CN(CC(=O)[N@H+](C)[C@H]1CCNC1)c1ccc2cc(C([NH-])=O)n(C(=O)[O-])c2c1

>  <Energy>  (12) 
97.75905739221156

>  <Genealogy>  (12) 
CN(CC(=O)[NH+](C)C1CCNC1)c1ccc2cc(C([NH-])=O)n(C(=O)[O-])c2c1 (protonated)
CN(CC(=O)[N@H+](C)[C@H]1CCNC1)c1ccc2cc(C([NH-])=O)n(C(=O)[O-])c2c1 (chirality)
CN(CC(=O)[N@H+](C)[C@H]1CCNC1)c1ccc2cc(C([NH-])=O)n(C(=O)[O-])c2c1 (3D coordinates assigned)
CN(CC(=O)[N@H+](C)[C@H]1CCNC1)c1ccc2cc(C([NH-])=O)n(C(=O)[O-])c2c1 (nonaromatic ring conformer: 97.75905739221156 kcal/mol)

>  <smiles>  (12) 
CN(CC(=O)N(C)C1CCNC1)c1ccc2cc(C(N)=O)n(C(=O)O)c2c1

>  <score_type>  (12) 
oracle

>  <origin>  (12) 
adg

>  <m_score__min__energy>  (12) 
-5.9400000000000004

>  <m_primary>  (12) 
energy

$$$$
12:0
     RDKit          3D

 45 46  0  0  0  0  0  0  0  0999 V2000
  143.1550  156.4090  135.3720 C   0  0  0  0  0  0  0  0  0  0  0  0
  142.5800  156.4030  134.0240 N   0  0  0  0  0  0  0  0  0  0  0  0
  141.5320  155.4400  133.6680 C   0  0  0  0  0  0  0  0  0  0  0  0
  140.2910  156.1730  133.2300 C   0  0  0  0  0  0  0  0  0  0  0  0
  139.4340  155.5540  132.6150 O   0  0  0  0  0  0  0  0  0  0  0  0
  140.1210  157.5890  133.5060 N   0  0  1  0  0  0  0  0  0  0  0  0
  139.4780  158.2740  132.3700 C   0  0  0  0  0  0  0  0  0  0  0  0
  139.4140  157.8200  134.7870 C   0  0  0  0  0  0  0  0  0  0  0  0
  140.3080  158.2980  135.9010 C   0  0  0  0  0  0  0  0  0  0  0  0
  139.9250  158.2280  137.0980 O   0  0  0  0  0  0  0  0  0  0  0  0
  141.5640  158.8170  135.6110 O   0  0  0  0  0  0  0  0  0  0  0  0
  143.0450  157.3560  133.0480 C   0  0  0  0  0  0  0  0  0  0  0  0
  142.4400  157.4830  131.9480 O   0  0  0  0  0  0  0  0  0  0  0  0
  144.2060  158.1580  133.3040 N   0  0  0  0  0  0  0  0  0  0  0  0
  144.2750  159.5100  133.4300 C   0  0  0  0  0  0  0  0  0  0  0  0
  143.1220  160.4340  133.4110 C   0  0  0  0  0  0  0  0  0  0  0  0
  141.8380  159.9590  133.0120 N   0  0  0  0  0  0  0  0  0  0  0  0
  143.2610  161.6440  133.7290 O   0  0  0  0  0  0  0  0  0  0  0  0
  145.5970  159.9130  133.6200 C   0  0  0  0  0  0  0  0  0  0  0  0
  146.3380  158.7510  133.5990 C   0  0  0  0  0  0  0  0  0  0  0  0
  147.7100  158.5580  133.7130 C   0  0  0  0  0  0  0  0  0  0  0  0
  148.2000  157.2430  133.6220 C   0  0  0  0  0  0  0  0  0  0  0  0
  147.3160  156.1490  133.4350 C   0  0  0  0  0  0  0  0  0  0  0  0
  147.8600  154.7510  133.2850 C   0  0  0  0  0  0  0  0  0  0  0  0
  149.0500  154.7670  132.5810 F   0  0  0  0  0  0  0  0  0  0  0  0
  148.0970  154.1800  134.5240 F   0  0  0  0  0  0  0  0  0  0  0  0
  146.9410  153.9770  132.6020 F   0  0  0  0  0  0  0  0  0  0  0  0
  145.9290  156.3920  133.3020 C   0  0  0  0  0  0  0  0  0  0  0  0
  145.4730  157.7080  133.4040 C   0  0  0  0  0  0  0  0  0  0  0  0
  142.3450  156.4005  136.1162 H   0  0  0  0  0  0  0  0  0  0  0  0
  143.7852  155.5174  135.5058 H   0  0  0  0  0  0  0  0  0  0  0  0
  143.7664  157.3136  135.5058 H   0  0  0  0  0  0  0  0  0  0  0  0
  141.8875  154.8009  132.8463 H   0  0  0  0  0  0  0  0  0  0  0  0
  141.2962  154.8198  134.5454 H   0  0  0  0  0  0  0  0  0  0  0  0
  141.0680  158.0240  133.6110 H   0  0  0  0  0  0  0  0  0  0  0  0
  138.7711  159.0271  132.7484 H   0  0  0  0  0  0  0  0  0  0  0  0
  140.2464  158.7677  131.7570 H   0  0  0  0  0  0  0  0  0  0  0  0
  138.9367  157.5383  131.7570 H   0  0  0  0  0  0  0  0  0  0  0  0
  138.6338  158.5773  134.6201 H   0  0  0  0  0  0  0  0  0  0  0  0
  139.0015  156.8504  135.1029 H   0  0  0  0  0  0  0  0  0  0  0  0
  141.7250  159.3770  132.1530 H   0  0  0  0  0  0  0  0  0  0  0  0
  145.9687  160.9391  133.7573 H   0  0  0  0  0  0  0  0  0  0  0  0
  148.3911  159.4074  133.8695 H   0  0  0  0  0  0  0  0  0  0  0  0
  149.2821  157.0602  133.6967 H   0  0  0  0  0  0  0  0  0  0  0  0
  145.2267  155.5646  133.1226 H   0  0  0  0  0  0  0  0  0  0  0  0
  1  2  1  0
  2  3  1  0
  3  4  1  0
  4  5  2  0
  4  6  1  0
  6  7  1  0
  6  8  1  0
  8  9  1  0
  9 10  2  0
  9 11  1  0
  2 12  1  0
 12 13  2  0
 12 14  1  0
 14 15  1  0
 15 16  1  0
 16 17  1  0
 16 18  2  0
 15 19  2  0
 19 20  1  0
 20 21  2  0
 21 22  1  0
 22 23  2  0
 23 24  1  0
 24 25  1  0
 24 26  1  0
 24 27  1  0
 23 28  1  0
 28 29  2  0
 29 14  1  0
 29 20  1  0
  1 30  1  0
  1 31  1  0
  1 32  1  0
  3 33  1  0
  3 34  1  0
  6 35  1  1
  7 36  1  0
  7 37  1  0
  7 38  1  0
  8 39  1  0
  8 40  1  0
 17 41  1  0
 19 42  1  0
 21 43  1  0
 22 44  1  0
 28 45  1  0
M  CHG  3   6   1  11  -1  17  -1
M  END
>  <UniqueID>  (13) 
13

>  <SMILES>  (13) 
CN(CC(=O)[N@@H+](C)CC(=O)[O-])C(=O)n1c(C([NH-])=O)cc2ccc(C(F)(F)F)cc21

>  <Energy>  (13) 
82.90480941683201

>  <Genealogy>  (13) 
CN(CC(=O)[NH+](C)CC(=O)[O-])C(=O)n1c(C([NH-])=O)cc2ccc(C(F)(F)F)cc21 (protonated)
CN(CC(=O)[N@@H+](C)CC(=O)[O-])C(=O)n1c(C([NH-])=O)cc2ccc(C(F)(F)F)cc21 (chirality)
CN(CC(=O)[N@@H+](C)CC(=O)[O-])C(=O)n1c(C([NH-])=O)cc2ccc(C(F)(F)F)cc21 (3D coordinates assigned)
CN(CC(=O)[N@@H+](C)CC(=O)[O-])C(=O)n1c(C([NH-])=O)cc2ccc(C(F)(F)F)cc21 (optimized conformer: 82.90480941683201 kcal/mol)

>  <smiles>  (13) 
CN(CC(=O)O)C(=O)CN(C)C(=O)n1c(C(N)=O)cc2ccc(C(F)(F)F)cc21

>  <score_type>  (13) 
oracle

>  <origin>  (13) 
adg

>  <m_score__min__energy>  (13) 
-5.4800000000000004

>  <m_primary>  (13) 
energy

$$$$
13:0
     RDKit          3D

 48 49  0  0  0  0  0  0  0  0999 V2000
  138.9700  159.4260  130.8490 C   0  0  0  0  0  0  0  0  0  0  0  0
  139.6720  158.6110  131.5540 N   0  0  0  0  0  0  0  0  0  0  0  0
  139.0990  157.7940  132.6040 C   0  0  0  0  0  0  0  0  0  0  0  0
  140.1530  157.1370  133.4120 N   0  0  1  0  0  0  0  0  0  0  0  0
  139.8420  157.3100  134.8100 C   0  0  0  0  0  0  0  0  0  0  0  0
  139.1270  158.2830  135.1740 O   0  0  0  0  0  0  0  0  0  0  0  0
  140.3480  156.3970  135.7510 O   0  0  0  0  0  0  0  0  0  0  0  0
  141.2490  156.6930  136.8270 C   0  0  0  0  0  0  0  0  0  0  0  0
  141.6930  158.1670  136.7720 C   0  0  0  0  0  0  0  0  0  0  0  0
  140.5970  156.3700  138.1830 C   0  0  0  0  0  0  0  0  0  0  0  0
  142.4830  155.7960  136.6430 C   0  0  0  0  0  0  0  0  0  0  0  0
  140.3130  155.7200  133.1380 C   0  0  0  0  0  0  0  0  0  0  0  0
  139.2920  154.9970  132.9700 O   0  0  0  0  0  0  0  0  0  0  0  0
  141.6020  155.0850  133.1450 N   0  0  0  0  0  0  0  0  0  0  0  0
  142.8150  155.6750  133.3300 C   0  0  0  0  0  0  0  0  0  0  0  0
  143.0440  157.1210  133.5290 C   0  0  0  0  0  0  0  0  0  0  0  0
  142.4960  158.0610  132.6070 N   0  0  0  0  0  0  0  0  0  0  0  0
  143.7180  157.5370  134.5090 O   0  0  0  0  0  0  0  0  0  0  0  0
  143.8280  154.7170  133.3150 C   0  0  0  0  0  0  0  0  0  0  0  0
  143.1860  153.5120  133.1330 C   0  0  0  0  0  0  0  0  0  0  0  0
  143.7010  152.2220  133.0520 C   0  0  0  0  0  0  0  0  0  0  0  0
  142.7960  151.1600  132.8810 C   0  0  0  0  0  0  0  0  0  0  0  0
  141.3990  151.4020  132.8070 C   0  0  0  0  0  0  0  0  0  0  0  0
  140.4150  150.2760  132.6130 C   0  0  0  0  0  0  0  0  0  0  0  0
  140.2310  149.5520  133.7780 F   0  0  0  0  0  0  0  0  0  0  0  0
  139.1930  150.7890  132.2180 F   0  0  0  0  0  0  0  0  0  0  0  0
  140.8850  149.4230  131.6300 F   0  0  0  0  0  0  0  0  0  0  0  0
  140.9180  152.7280  132.8890 C   0  0  0  0  0  0  0  0  0  0  0  0
  141.8430  153.7620  133.0460 C   0  0  0  0  0  0  0  0  0  0  0  0
  139.4497  160.0262  130.0618 H   0  0  0  0  0  0  0  0  0  0  0  0
  137.8899  159.5229  131.0332 H   0  0  0  0  0  0  0  0  0  0  0  0
  138.4891  158.4313  133.2611 H   0  0  0  0  0  0  0  0  0  0  0  0
  138.4819  157.0121  132.1373 H   0  0  0  0  0  0  0  0  0  0  0  0
  141.0700  157.6020  133.2150 H   0  0  0  0  0  0  0  0  0  0  0  0
  141.8094  158.5533  137.7953 H   0  0  0  0  0  0  0  0  0  0  0  0
  142.6533  158.2411  136.2407 H   0  0  0  0  0  0  0  0  0  0  0  0
  140.9334  158.7592  136.2407 H   0  0  0  0  0  0  0  0  0  0  0  0
  141.2605  156.6987  138.9964 H   0  0  0  0  0  0  0  0  0  0  0  0
  139.6335  156.8950  138.2609 H   0  0  0  0  0  0  0  0  0  0  0  0
  140.4309  155.2854  138.2609 H   0  0  0  0  0  0  0  0  0  0  0  0
  142.8779  155.5090  137.6287 H   0  0  0  0  0  0  0  0  0  0  0  0
  142.1992  154.8920  136.0843 H   0  0  0  0  0  0  0  0  0  0  0  0
  143.2553  156.3450  136.0843 H   0  0  0  0  0  0  0  0  0  0  0  0
  141.6650  157.8180  132.0250 H   0  0  0  0  0  0  0  0  0  0  0  0
  144.9092  154.8872  133.4250 H   0  0  0  0  0  0  0  0  0  0  0  0
  144.7835  152.0387  133.1197 H   0  0  0  0  0  0  0  0  0  0  0  0
  143.1744  150.1300  132.8037 H   0  0  0  0  0  0  0  0  0  0  0  0
  139.8403  152.9407  132.8305 H   0  0  0  0  0  0  0  0  0  0  0  0
  1  2  2  0
  2  3  1  0
  3  4  1  0
  4  5  1  0
  5  6  2  0
  5  7  1  0
  7  8  1  0
  8  9  1  0
  8 10  1  0
  8 11  1  0
  4 12  1  0
 12 13  2  0
 12 14  1  0
 14 15  1  0
 15 16  1  0
 16 17  1  0
 16 18  2  0
 15 19  2  0
 19 20  1  0
 20 21  2  0
 21 22  1  0
 22 23  2  0
 23 24  1  0
 24 25  1  0
 24 26  1  0
 24 27  1  0
 23 28  1  0
 28 29  2  0
 29 14  1  0
 29 20  1  0
  1 30  1  0
  1 31  1  0
  3 32  1  0
  3 33  1  0
  4 34  1  1
  9 35  1  0
  9 36  1  0
  9 37  1  0
 10 38  1  0
 10 39  1  0
 10 40  1  0
 11 41  1  0
 11 42  1  0
 11 43  1  0
 17 44  1  0
 19 45  1  0
 21 46  1  0
 22 47  1  0
 28 48  1  0
M  CHG  2   4   1  17  -1
M  END
>  <UniqueID>  (14) 
14

>  <SMILES>  (14) 
C=NC[NH+](C(=O)OC(C)(C)C)C(=O)n1c(C([NH-])=O)cc2ccc(C(F)(F)F)cc21

>  <Energy>  (14) 
85.91111751123532

>  <Genealogy>  (14) 
C=NC[NH+](C(=O)OC(C)(C)C)C(=O)n1c(C([NH-])=O)cc2ccc(C(F)(F)F)cc21 (protonated)
C=NC[NH+](C(=O)OC(C)(C)C)C(=O)n1c(C([NH-])=O)cc2ccc(C(F)(F)F)cc21 (3D coordinates assigned)
C=NC[NH+](C(=O)OC(C)(C)C)C(=O)n1c(C([NH-])=O)cc2ccc(C(F)(F)F)cc21 (optimized conformer: 85.91111751123532 kcal/mol)

>  <smiles>  (14) 
C=NCN(C(=O)OC(C)(C)C)C(=O)n1c(C(N)=O)cc2ccc(C(F)(F)F)cc21

>  <score_type>  (14) 
oracle

>  <origin>  (14) 
adg

>  <m_score__min__energy>  (14) 
-6.0499999999999998

>  <m_primary>  (14) 
energy

$$$$
14:0
     RDKit          3D

 42 44  0  0  0  0  0  0  0  0999 V2000
  142.2650  159.9400  133.1930 N   0  0  0  0  0  0  0  0  0  0  0  0
  143.5570  160.3700  133.5780 C   0  0  0  0  0  0  0  0  0  0  0  0
  143.6970  161.5170  134.0790 O   0  0  0  0  0  0  0  0  0  0  0  0
  144.7080  159.4600  133.4120 C   0  0  0  0  0  0  0  0  0  0  0  0
  145.9710  159.8810  133.0020 C   0  0  0  0  0  0  0  0  0  0  0  0
  146.7480  158.7440  132.9830 C   0  0  0  0  0  0  0  0  0  0  0  0
  148.0720  158.5680  132.5920 C   0  0  0  0  0  0  0  0  0  0  0  0
  148.5990  157.2680  132.6240 C   0  0  0  0  0  0  0  0  0  0  0  0
  147.8100  156.1730  133.0580 C   0  0  0  0  0  0  0  0  0  0  0  0
  148.3590  154.7710  133.0330 C   0  0  0  0  0  0  0  0  0  0  0  0
  148.4260  154.2630  134.3170 F   0  0  0  0  0  0  0  0  0  0  0  0
  147.5300  153.9690  132.2760 F   0  0  0  0  0  0  0  0  0  0  0  0
  149.6290  154.7440  132.4910 F   0  0  0  0  0  0  0  0  0  0  0  0
  146.4560  156.3920  133.4190 C   0  0  0  0  0  0  0  0  0  0  0  0
  145.9660  157.6990  133.3870 C   0  0  0  0  0  0  0  0  0  0  0  0
  144.7120  158.1200  133.6560 N   0  0  0  0  0  0  0  0  0  0  0  0
  143.6150  157.2920  134.0690 C   0  0  0  0  0  0  0  0  0  0  0  0
  143.6220  156.8090  135.2330 O   0  0  0  0  0  0  0  0  0  0  0  0
  142.4760  157.0580  133.1430 C   0  0  0  0  0  0  0  0  0  0  0  0
  142.5790  157.4730  131.9560 O   0  0  0  0  0  0  0  0  0  0  0  0
  141.2930  156.4030  133.5120 O   0  0  0  0  0  0  0  0  0  0  0  0
  140.0300  156.5610  132.8770 C   0  0  0  0  0  0  0  0  0  0  0  0
  139.5900  157.9880  133.0240 C   0  0  0  0  0  0  0  0  0  0  0  0
  138.9760  158.3120  134.0310 O   0  0  0  0  0  0  0  0  0  0  0  0
  139.9680  158.9660  132.0200 N   0  0  1  0  0  0  0  0  0  0  0  0
  139.1350  158.8820  130.8120 C   0  0  0  0  0  0  0  0  0  0  0  0
  138.6240  160.3030  130.9720 C   0  0  2  0  0  0  0  0  0  0  0  0
  139.1030  161.1470  129.9800 F   0  0  0  0  0  0  0  0  0  0  0  0
  139.4780  160.3380  132.2270 C   0  0  0  0  0  0  0  0  0  0  0  0
  142.0960  159.5560  132.2370 H   0  0  0  0  0  0  0  0  0  0  0  0
  146.2820  160.9049  132.7473 H   0  0  0  0  0  0  0  0  0  0  0  0
  148.6861  159.4212  132.2680 H   0  0  0  0  0  0  0  0  0  0  0  0
  149.6385  157.0961  132.3080 H   0  0  0  0  0  0  0  0  0  0  0  0
  145.8087  155.5538  133.7165 H   0  0  0  0  0  0  0  0  0  0  0  0
  140.1187  156.3096  131.8098 H   0  0  0  0  0  0  0  0  0  0  0  0
  139.2912  155.8922  133.3428 H   0  0  0  0  0  0  0  0  0  0  0  0
  140.9900  158.9350  131.8000 H   0  0  0  0  0  0  0  0  0  0  0  0
  138.3426  158.1219  130.8789 H   0  0  0  0  0  0  0  0  0  0  0  0
  139.6064  158.5915  129.8615 H   0  0  0  0  0  0  0  0  0  0  0  0
  137.5555  160.5645  130.9666 H   0  0  0  0  0  0  0  0  0  0  0  0
  138.8936  160.4594  133.1510 H   0  0  0  0  0  0  0  0  0  0  0  0
  140.2094  161.1505  132.3493 H   0  0  0  0  0  0  0  0  0  0  0  0
  1  2  1  0
  2  3  2  0
  2  4  1  0
  4  5  2  0
  5  6  1  0
  6  7  2  0
  7  8  1  0
  8  9  2  0
  9 10  1  0
 10 11  1  0
 10 12  1  0
 10 13  1  0
  9 14  1  0
 14 15  2  0
 15 16  1  0
 16 17  1  0
 17 18  2  0
 17 19  1  0
 19 20  2  0
 19 21  1  0
 21 22  1  0
 22 23  1  0
 23 24  2  0
 23 25  1  0
 25 26  1  0
 26 27  1  0
 27 28  1  0
 27 29  1  0
 16  4  1  0
 29 25  1  0
 15  6  1  0
  1 30  1  0
  5 31  1  0
  7 32  1  0
  8 33  1  0
 14 34  1  0
 22 35  1  0
 22 36  1  0
 25 37  1  6
 26 38  1  0
 26 39  1  0
 27 40  1  1
 29 41  1  0
 29 42  1  0
M  CHG  2   1  -1  25   1
M  END
>  <UniqueID>  (15) 
15

>  <SMILES>  (15) 
[NH-]C(=O)c1cc2ccc(C(F)(F)F)cc2n1C(=O)C(=O)OCC(=O)[NH+]1CC(F)C1

>  <Energy>  (15) 
159.16999661545577

>  <Genealogy>  (15) 
[NH-]C(=O)c1cc2ccc(C(F)(F)F)cc2n1C(=O)C(=O)OCC(=O)[NH+]1CC(F)C1 (protonated)
[NH-]C(=O)c1cc2ccc(C(F)(F)F)cc2n1C(=O)C(=O)OCC(=O)[NH+]1CC(F)C1 (3D coordinates assigned)
[NH-]C(=O)c1cc2ccc(C(F)(F)F)cc2n1C(=O)C(=O)OCC(=O)[NH+]1CC(F)C1 (nonaromatic ring conformer: 159.16999661545577 kcal/mol)

>  <smiles>  (15) 
NC(=O)c1cc2ccc(C(F)(F)F)cc2n1C(=O)C(=O)OCC(=O)N1CC(F)C1

>  <score_type>  (15) 
oracle

>  <origin>  (15) 
adg

>  <m_score__min__energy>  (15) 
-5.7300000000000004

>  <m_primary>  (15) 
energy

$$$$
15:0
     RDKit          3D

 41 42  0  0  0  0  0  0  0  0999 V2000
  139.5800  156.0570  132.9740 C   0  0  0  0  0  0  0  0  0  0  0  0
  140.2920  157.0730  133.7550 N   0  0  0  0  0  0  0  0  0  0  0  0
  140.0630  157.1320  135.2080 C   0  0  0  0  0  0  0  0  0  0  0  0
  139.8710  158.5770  135.6750 C   0  0  0  0  0  0  0  0  0  0  0  0
  141.1020  159.2440  135.7510 O   0  0  0  0  0  0  0  0  0  0  0  0
  141.2570  157.9140  133.0780 C   0  0  0  0  0  0  0  0  0  0  0  0
  140.9190  159.0730  132.7090 O   0  0  0  0  0  0  0  0  0  0  0  0
  142.6830  157.4940  132.8490 C   0  0  0  0  0  0  0  0  0  0  0  0
  143.5590  158.0400  133.9380 C   0  0  0  0  0  0  0  0  0  0  0  0
  143.2100  157.9070  135.1420 O   0  0  0  0  0  0  0  0  0  0  0  0
  144.8130  158.6620  133.6260 N   0  0  0  0  0  0  0  0  0  0  0  0
  145.0750  159.9930  133.5140 C   0  0  0  0  0  0  0  0  0  0  0  0
  144.1080  161.0860  133.7520 C   0  0  0  0  0  0  0  0  0  0  0  0
  142.7320  160.7820  133.9650 N   0  0  0  0  0  0  0  0  0  0  0  0
  144.4820  162.2880  133.7560 O   0  0  0  0  0  0  0  0  0  0  0  0
  146.4200  160.1990  133.2090 C   0  0  0  0  0  0  0  0  0  0  0  0
  146.9750  158.9410  133.1400 C   0  0  0  0  0  0  0  0  0  0  0  0
  148.2850  158.5510  132.8790 C   0  0  0  0  0  0  0  0  0  0  0  0
  148.5730  157.1760  132.8680 C   0  0  0  0  0  0  0  0  0  0  0  0
  147.5510  156.2180  133.0920 C   0  0  0  0  0  0  0  0  0  0  0  0
  147.8790  154.7460  133.1200 C   0  0  0  0  0  0  0  0  0  0  0  0
  149.0040  154.4830  132.3570 F   0  0  0  0  0  0  0  0  0  0  0  0
  146.8110  154.0330  132.6100 F   0  0  0  0  0  0  0  0  0  0  0  0
  148.1260  154.3250  134.4160 F   0  0  0  0  0  0  0  0  0  0  0  0
  146.2360  156.6550  133.3750 C   0  0  0  0  0  0  0  0  0  0  0  0
  145.9830  158.0310  133.3940 C   0  0  0  0  0  0  0  0  0  0  0  0
  139.0848  155.3504  133.6563 H   0  0  0  0  0  0  0  0  0  0  0  0
  138.8249  156.5446  132.3398 H   0  0  0  0  0  0  0  0  0  0  0  0
  140.2960  155.5137  132.3398 H   0  0  0  0  0  0  0  0  0  0  0  0
  139.1614  156.5517  135.4539 H   0  0  0  0  0  0  0  0  0  0  0  0
  140.9425  156.7127  135.7186 H   0  0  0  0  0  0  0  0  0  0  0  0
  139.2194  159.1029  134.9616 H   0  0  0  0  0  0  0  0  0  0  0  0
  139.4138  158.5661  136.6754 H   0  0  0  0  0  0  0  0  0  0  0  0
  141.4950  159.2250  134.8400 H   0  0  0  0  0  0  0  0  0  0  0  0
  142.7438  156.3957  132.8486 H   0  0  0  0  0  0  0  0  0  0  0  0
  143.0242  157.8865  131.8797 H   0  0  0  0  0  0  0  0  0  0  0  0
  142.4190  159.8000  134.1370 H   0  0  0  0  0  0  0  0  0  0  0  0
  146.9293  161.1619  133.0560 H   0  0  0  0  0  0  0  0  0  0  0  0
  149.0709  159.2964  132.6872 H   0  0  0  0  0  0  0  0  0  0  0  0
  149.6034  156.8381  132.6835 H   0  0  0  0  0  0  0  0  0  0  0  0
  145.4322  155.9312  133.5752 H   0  0  0  0  0  0  0  0  0  0  0  0
  1  2  1  0
  2  3  1  0
  3  4  1  0
  4  5  1  0
  2  6  1  0
  6  7  2  0
  6  8  1  0
  8  9  1  0
  9 10  2  0
  9 11  1  0
 11 12  1  0
 12 13  1  0
 13 14  1  0
 13 15  2  0
 12 16  2  0
 16 17  1  0
 17 18  2  0
 18 19  1  0
 19 20  2  0
 20 21  1  0
 21 22  1  0
 21 23  1  0
 21 24  1  0
 20 25  1  0
 25 26  2  0
 26 11  1  0
 26 17  1  0
  1 27  1  0
  1 28  1  0
  1 29  1  0
  3 30  1  0
  3 31  1  0
  4 32  1  0
  4 33  1  0
  5 34  1  0
  8 35  1  0
  8 36  1  0
 14 37  1  0
 16 38  1  0
 18 39  1  0
 19 40  1  0
 25 41  1  0
M  CHG  1  14  -1
M  END
>  <UniqueID>  (16) 
16

>  <SMILES>  (16) 
CN(CCO)C(=O)CC(=O)n1c(C([NH-])=O)cc2ccc(C(F)(F)F)cc21

>  <Energy>  (16) 
74.52426936298538

>  <Genealogy>  (16) 
CN(CCO)C(=O)CC(=O)n1c(C([NH-])=O)cc2ccc(C(F)(F)F)cc21 (protonated)
CN(CCO)C(=O)CC(=O)n1c(C([NH-])=O)cc2ccc(C(F)(F)F)cc21 (3D coordinates assigned)
CN(CCO)C(=O)CC(=O)n1c(C([NH-])=O)cc2ccc(C(F)(F)F)cc21 (optimized conformer: 74.52426936298538 kcal/mol)

>  <smiles>  (16) 
CN(CCO)C(=O)CC(=O)n1c(C(N)=O)cc2ccc(C(F)(F)F)cc21

>  <score_type>  (16) 
oracle

>  <origin>  (16) 
adg

>  <m_score__min__energy>  (16) 
-5.79

>  <m_primary>  (16) 
energy

$$$$
16:0
     RDKit          3D

 32 33  0  0  0  0  0  0  0  0999 V2000
  149.5900  157.7230  131.8590 N   0  0  0  0  0  0  0  0  0  0  0  0
  148.9910  158.9490  132.2720 C   0  0  0  0  0  0  0  0  0  0  0  0
  149.6400  160.0230  132.1500 O   0  0  0  0  0  0  0  0  0  0  0  0
  147.6060  158.9850  132.7830 C   0  0  0  0  0  0  0  0  0  0  0  0
  146.7960  160.1160  132.7190 C   0  0  0  0  0  0  0  0  0  0  0  0
  145.5710  159.7160  133.2000 C   0  0  0  0  0  0  0  0  0  0  0  0
  144.3910  160.4370  133.3530 C   0  0  0  0  0  0  0  0  0  0  0  0
  143.2770  159.7730  133.8930 C   0  0  0  0  0  0  0  0  0  0  0  0
  143.3670  158.4140  134.2940 C   0  0  0  0  0  0  0  0  0  0  0  0
  142.1550  157.7000  134.8370 C   0  0  0  0  0  0  0  0  0  0  0  0
  142.5120  156.4830  135.3910 F   0  0  0  0  0  0  0  0  0  0  0  0
  141.2580  157.4820  133.8090 F   0  0  0  0  0  0  0  0  0  0  0  0
  141.5400  158.4580  135.8180 F   0  0  0  0  0  0  0  0  0  0  0  0
  144.5780  157.7100  134.0990 C   0  0  0  0  0  0  0  0  0  0  0  0
  145.6660  158.3920  133.5420 C   0  0  0  0  0  0  0  0  0  0  0  0
  146.9120  157.9290  133.2950 N   0  0  0  0  0  0  0  0  0  0  0  0
  147.4020  156.6120  133.5940 C   0  0  0  0  0  0  0  0  0  0  0  0
  147.5400  155.7660  132.6690 O   0  0  0  0  0  0  0  0  0  0  0  0
  147.7430  156.2810  134.9080 O   0  0  0  0  0  0  0  0  0  0  0  0
  147.7100  154.9450  135.4010 C   0  0  0  0  0  0  0  0  0  0  0  0
  148.3200  154.8820  136.6700 O   0  0  0  0  0  0  0  0  0  0  0  0
  147.6810  153.5510  137.5260 P   0  0  0  0  0  0  0  0  0  0  0  0
  148.6880  152.4240  137.5020 O   0  0  0  0  0  0  0  0  0  0  0  0
  146.2490  153.0230  136.7940 O   0  0  0  0  0  0  0  0  0  0  0  0
  147.3690  153.9760  139.1340 O   0  0  0  0  0  0  0  0  0  0  0  0
  149.0050  156.9140  131.5570 H   0  0  0  0  0  0  0  0  0  0  0  0
  147.0764  161.1172  132.3598 H   0  0  0  0  0  0  0  0  0  0  0  0
  144.3321  161.4956  133.0598 H   0  0  0  0  0  0  0  0  0  0  0  0
  142.3247  160.3118  134.0064 H   0  0  0  0  0  0  0  0  0  0  0  0
  144.6630  156.6496  134.3789 H   0  0  0  0  0  0  0  0  0  0  0  0
  146.6645  154.6131  135.4830 H   0  0  0  0  0  0  0  0  0  0  0  0
  148.2568  154.2910  134.7058 H   0  0  0  0  0  0  0  0  0  0  0  0
  1  2  1  0
  2  3  2  0
  2  4  1  0
  4  5  2  0
  5  6  1  0
  6  7  2  0
  7  8  1  0
  8  9  2  0
  9 10  1  0
 10 11  1  0
 10 12  1  0
 10 13  1  0
  9 14  1  0
 14 15  2  0
 15 16  1  0
 16 17  1  0
 17 18  2  0
 17 19  1  0
 19 20  1  0
 20 21  1  0
 21 22  1  0
 22 23  2  0
 22 24  1  0
 22 25  1  0
 16  4  1  0
 15  6  1  0
  1 26  1  0
  5 27  1  0
  7 28  1  0
  8 29  1  0
 14 30  1  0
 20 31  1  0
 20 32  1  0
M  CHG  3   1  -1  24  -1  25  -1
M  END
>  <UniqueID>  (17) 
17

>  <SMILES>  (17) 
[NH-]C(=O)c1cc2ccc(C(F)(F)F)cc2n1C(=O)OCOP(=O)([O-])[O-]

>  <Energy>  (17) 
69.91411031718988

>  <Genealogy>  (17) 
[NH-]C(=O)c1cc2ccc(C(F)(F)F)cc2n1C(=O)OCOP(=O)([O-])[O-] (protonated)
[NH-]C(=O)c1cc2ccc(C(F)(F)F)cc2n1C(=O)OCOP(=O)([O-])[O-] (3D coordinates assigned)
[NH-]C(=O)c1cc2ccc(C(F)(F)F)cc2n1C(=O)OCOP(=O)([O-])[O-] (optimized conformer: 69.91411031718988 kcal/mol)

>  <smiles>  (17) 
NC(=O)c1cc2ccc(C(F)(F)F)cc2n1C(=O)OCOP(=O)([O-])O

>  <score_type>  (17) 
oracle

>  <origin>  (17) 
adg

>  <m_score__min__energy>  (17) 
-6.2300000000000004

>  <m_primary>  (17) 
energy

$$$$
17:0
     RDKit          3D

 41 43  0  0  0  0  0  0  0  0999 V2000
  140.0090  157.8340  135.4800 C   0  0  0  0  0  0  0  0  0  0  0  0
  139.6910  158.3400  134.1090 C   0  0  0  0  0  0  0  0  0  0  0  0
  138.4610  158.2550  133.5640 N   0  0  0  0  0  0  0  0  0  0  0  0
  138.5190  158.8150  132.3660 N   0  0  0  0  0  0  0  0  0  0  0  0
  137.3670  158.9770  131.4900 C   0  0  0  0  0  0  0  0  0  0  0  0
  139.7580  159.2810  132.1280 C   0  0  0  0  0  0  0  0  0  0  0  0
  140.5520  158.9770  133.2190 C   0  0  0  0  0  0  0  0  0  0  0  0
  141.9860  159.3070  133.3790 C   0  0  0  0  0  0  0  0  0  0  0  0
  142.4030  160.6630  133.3770 C   0  0  0  0  0  0  0  0  0  0  0  0
  143.7600  160.9980  133.5090 C   0  0  0  0  0  0  0  0  0  0  0  0
  144.6780  159.9610  133.6450 C   0  0  0  0  0  0  0  0  0  0  0  0
  146.0500  160.0030  133.7540 C   0  0  0  0  0  0  0  0  0  0  0  0
  146.4500  158.6730  133.8420 C   0  0  0  0  0  0  0  0  0  0  0  0
  147.8540  158.2580  134.0400 C   0  0  0  0  0  0  0  0  0  0  0  0
  148.1820  157.0990  134.8080 N   0  0  0  0  0  0  0  0  0  0  0  0
  148.7800  158.9690  133.5690 O   0  0  0  0  0  0  0  0  0  0  0  0
  145.3740  157.8400  133.7740 N   0  0  0  0  0  0  0  0  0  0  0  0
  145.3780  156.4040  133.7330 C   0  0  0  0  0  0  0  0  0  0  0  0
  145.0220  155.8030  132.6810 O   0  0  0  0  0  0  0  0  0  0  0  0
  145.7750  155.6750  134.8610 O   0  0  0  0  0  0  0  0  0  0  0  0
  146.3870  154.3910  134.7900 C   0  0  0  0  0  0  0  0  0  0  0  0
  147.2050  154.1390  136.0170 C   0  0  0  0  0  0  0  0  0  0  0  0
  146.9960  153.1180  136.7210 O   0  0  0  0  0  0  0  0  0  0  0  0
  148.2230  155.0190  136.3630 O   0  0  0  0  0  0  0  0  0  0  0  0
  144.2950  158.6460  133.6570 C   0  0  0  0  0  0  0  0  0  0  0  0
  142.9520  158.2820  133.4990 C   0  0  0  0  0  0  0  0  0  0  0  0
  139.5811  158.5149  136.2305 H   0  0  0  0  0  0  0  0  0  0  0  0
  139.5795  156.8296  135.6089 H   0  0  0  0  0  0  0  0  0  0  0  0
  141.1003  157.7854  135.6089 H   0  0  0  0  0  0  0  0  0  0  0  0
  136.4592  159.1047  132.0979 H   0  0  0  0  0  0  0  0  0  0  0  0
  137.5109  159.8638  130.8552 H   0  0  0  0  0  0  0  0  0  0  0  0
  137.2608  158.0850  130.8552 H   0  0  0  0  0  0  0  0  0  0  0  0
  140.0838  159.8124  131.2217 H   0  0  0  0  0  0  0  0  0  0  0  0
  141.6540  161.4616  133.2707 H   0  0  0  0  0  0  0  0  0  0  0  0
  144.0876  162.0481  133.5050 H   0  0  0  0  0  0  0  0  0  0  0  0
  146.6920  160.8961  133.7684 H   0  0  0  0  0  0  0  0  0  0  0  0
  147.4530  156.5880  135.3520 H   0  0  0  0  0  0  0  0  0  0  0  0
  149.1770  156.7980  134.9020 H   0  0  0  0  0  0  0  0  0  0  0  0
  145.6061  153.6204  134.7095 H   0  0  0  0  0  0  0  0  0  0  0  0
  147.0432  154.3549  133.9079 H   0  0  0  0  0  0  0  0  0  0  0  0
  142.6557  157.2231  133.4690 H   0  0  0  0  0  0  0  0  0  0  0  0
  1  2  1  0
  2  3  2  0
  3  4  1  0
  4  5  1  0
  4  6  1  0
  6  7  2  0
  7  8  1  0
  8  9  2  0
  9 10  1  0
 10 11  2  0
 11 12  1  0
 12 13  2  0
 13 14  1  0
 14 15  1  0
 14 16  2  0
 13 17  1  0
 17 18  1  0
 18 19  2  0
 18 20  1  0
 20 21  1  0
 21 22  1  0
 22 23  2  0
 22 24  1  0
 17 25  1  0
 25 26  2  0
  7  2  1  0
 26  8  1  0
 25 11  1  0
  1 27  1  0
  1 28  1  0
  1 29  1  0
  5 30  1  0
  5 31  1  0
  5 32  1  0
  6 33  1  0
  9 34  1  0
 10 35  1  0
 12 36  1  0
 15 37  1  0
 15 38  1  0
 21 39  1  0
 21 40  1  0
 26 41  1  0
M  CHG  1  24  -1
M  END
>  <UniqueID>  (18) 
18

>  <SMILES>  (18) 
Cc1nn(C)cc1-c1ccc2cc(C(N)=O)n(C(=O)OCC(=O)[O-])c2c1

>  <Energy>  (18) 
111.84486334239648

>  <Genealogy>  (18) 
Cc1nn(C)cc1-c1ccc2cc(C(N)=O)n(C(=O)OCC(=O)[O-])c2c1 (protonated)
Cc1nn(C)cc1-c1ccc2cc(C(N)=O)n(C(=O)OCC(=O)[O-])c2c1 (3D coordinates assigned)
Cc1nn(C)cc1-c1ccc2cc(C(N)=O)n(C(=O)OCC(=O)[O-])c2c1 (optimized conformer: 111.84486334239648 kcal/mol)

>  <smiles>  (18) 
Cc1nn(C)cc1-c1ccc2cc(C(N)=O)n(C(=O)OCC(=O)O)c2c1

>  <score_type>  (18) 
oracle

>  <origin>  (18) 
adg

>  <m_score__min__energy>  (18) 
-7.6299999999999999

>  <m_primary>  (18) 
energy

$$$$
18:0
     RDKit          3D

 43 44  0  0  0  0  0  0  0  0999 V2000
  139.7470  156.5140  132.9840 C   0  0  0  0  0  0  0  0  0  0  0  0
  140.4080  157.5930  133.7260 N   0  0  0  0  0  0  0  0  0  0  0  0
  140.1080  157.8090  135.1460 C   0  0  0  0  0  0  0  0  0  0  0  0
  140.9580  158.9120  135.6940 C   0  0  0  0  0  0  0  0  0  0  0  0
  140.6540  160.1140  135.4700 O   0  0  0  0  0  0  0  0  0  0  0  0
  142.1010  158.6140  136.4260 O   0  0  0  0  0  0  0  0  0  0  0  0
  141.3530  158.4440  133.0520 C   0  0  0  0  0  0  0  0  0  0  0  0
  141.0100  159.6040  132.6940 O   0  0  0  0  0  0  0  0  0  0  0  0
  142.6500  157.9750  132.8040 O   0  0  0  0  0  0  0  0  0  0  0  0
  143.6320  157.7510  133.7790 C   0  0  0  0  0  0  0  0  0  0  0  0
  143.4010  157.0040  134.7670 O   0  0  0  0  0  0  0  0  0  0  0  0
  144.9140  158.3890  133.6440 N   0  0  0  0  0  0  0  0  0  0  0  0
  145.1650  159.7260  133.5910 C   0  0  0  0  0  0  0  0  0  0  0  0
  144.1820  160.8000  133.8400 C   0  0  0  0  0  0  0  0  0  0  0  0
  142.8360  160.5000  134.2120 N   0  0  0  0  0  0  0  0  0  0  0  0
  144.5510  162.0040  133.7760 O   0  0  0  0  0  0  0  0  0  0  0  0
  146.5060  159.9660  133.3110 C   0  0  0  0  0  0  0  0  0  0  0  0
  147.0810  158.7220  133.2040 C   0  0  0  0  0  0  0  0  0  0  0  0
  148.3930  158.3680  132.9170 C   0  0  0  0  0  0  0  0  0  0  0  0
  148.7060  157.0030  132.8250 C   0  0  0  0  0  0  0  0  0  0  0  0
  147.7060  156.0060  133.0080 C   0  0  0  0  0  0  0  0  0  0  0  0
  148.0380  154.5970  132.8970 N   0  0  0  0  0  0  0  0  0  0  0  0
  147.0060  153.5700  133.0890 C   0  0  0  0  0  0  0  0  0  0  0  0
  149.4100  154.1740  132.5930 C   0  0  0  0  0  0  0  0  0  0  0  0
  146.3780  156.4170  133.2970 C   0  0  0  0  0  0  0  0  0  0  0  0
  146.1020  157.7840  133.4050 C   0  0  0  0  0  0  0  0  0  0  0  0
  139.3077  155.7970  133.6931 H   0  0  0  0  0  0  0  0  0  0  0  0
  138.9529  156.9371  132.3512 H   0  0  0  0  0  0  0  0  0  0  0  0
  140.4846  155.9988  132.3512 H   0  0  0  0  0  0  0  0  0  0  0  0
  139.0474  158.0793  135.2559 H   0  0  0  0  0  0  0  0  0  0  0  0
  140.3203  156.8837  135.7016 H   0  0  0  0  0  0  0  0  0  0  0  0
  142.5420  159.5220  134.4270 H   0  0  0  0  0  0  0  0  0  0  0  0
  142.1460  161.2710  134.3460 H   0  0  0  0  0  0  0  0  0  0  0  0
  147.0006  160.9422  133.1991 H   0  0  0  0  0  0  0  0  0  0  0  0
  149.1655  159.1364  132.7660 H   0  0  0  0  0  0  0  0  0  0  0  0
  149.7405  156.6984  132.6080 H   0  0  0  0  0  0  0  0  0  0  0  0
  146.8444  153.4092  134.1651 H   0  0  0  0  0  0  0  0  0  0  0  0
  146.0667  153.9024  132.6228 H   0  0  0  0  0  0  0  0  0  0  0  0
  147.3338  152.6291  132.6228 H   0  0  0  0  0  0  0  0  0  0  0  0
  149.9581  154.0050  133.5316 H   0  0  0  0  0  0  0  0  0  0  0  0
  149.3855  153.2417  132.0097 H   0  0  0  0  0  0  0  0  0  0  0  0
  149.9148  154.9582  132.0097 H   0  0  0  0  0  0  0  0  0  0  0  0
  145.5796  155.6728  133.4337 H   0  0  0  0  0  0  0  0  0  0  0  0
  1  2  1  0
  2  3  1  0
  3  4  1  0
  4  5  2  0
  4  6  1  0
  2  7  1  0
  7  8  2  0
  7  9  1  0
  9 10  1  0
 10 11  2  0
 10 12  1  0
 12 13  1  0
 13 14  1  0
 14 15  1  0
 14 16  2  0
 13 17  2  0
 17 18  1  0
 18 19  2  0
 19 20  1  0
 20 21  2  0
 21 22  1  0
 22 23  1  0
 22 24  1  0
 21 25  1  0
 25 26  2  0
 26 12  1  0
 26 18  1  0
  1 27  1  0
  1 28  1  0
  1 29  1  0
  3 30  1  0
  3 31  1  0
 15 32  1  0
 15 33  1  0
 17 34  1  0
 19 35  1  0
 20 36  1  0
 23 37  1  0
 23 38  1  0
 23 39  1  0
 24 40  1  0
 24 41  1  0
 24 42  1  0
 25 43  1  0
M  CHG  1   6  -1
M  END
>  <UniqueID>  (19) 
19

>  <SMILES>  (19) 
CN(CC(=O)[O-])C(=O)OC(=O)n1c(C(N)=O)cc2ccc(N(C)C)cc21

>  <Energy>  (19) 
79.81872071669814

>  <Genealogy>  (19) 
CN(CC(=O)[O-])C(=O)OC(=O)n1c(C(N)=O)cc2ccc(N(C)C)cc21 (protonated)
CN(CC(=O)[O-])C(=O)OC(=O)n1c(C(N)=O)cc2ccc(N(C)C)cc21 (3D coordinates assigned)
CN(CC(=O)[O-])C(=O)OC(=O)n1c(C(N)=O)cc2ccc(N(C)C)cc21 (optimized conformer: 79.81872071669814 kcal/mol)

>  <smiles>  (19) 
CN(CC(=O)O)C(=O)OC(=O)n1c(C(N)=O)cc2ccc(N(C)C)cc21

>  <score_type>  (19) 
oracle

>  <origin>  (19) 
adg

>  <m_score__min__energy>  (19) 
-6.7199999999999998

>  <m_primary>  (19) 
energy

$$$$
19:0
     RDKit          3D

 34 35  0  0  0  0  0  0  0  0999 V2000
  143.9830  160.2950  134.1190 C   0  0  0  0  0  0  0  0  0  0  0  0
  145.2840  160.6180  133.5430 N   0  0  0  0  0  0  0  0  0  0  0  0
  146.3000  159.6350  133.2730 C   0  0  0  0  0  0  0  0  0  0  0  0
  147.5030  159.9740  132.5970 C   0  0  0  0  0  0  0  0  0  0  0  0
  148.4780  158.9970  132.3320 C   0  0  0  0  0  0  0  0  0  0  0  0
  148.2310  157.6950  132.7580 C   0  0  0  0  0  0  0  0  0  0  0  0
  148.9890  156.5570  132.6080 C   0  0  0  0  0  0  0  0  0  0  0  0
  148.2530  155.5410  133.2140 C   0  0  0  0  0  0  0  0  0  0  0  0
  148.7450  154.1550  133.3560 C   0  0  0  0  0  0  0  0  0  0  0  0
  148.2690  153.3090  134.3990 N   0  0  0  0  0  0  0  0  0  0  0  0
  149.6350  153.7270  132.5730 O   0  0  0  0  0  0  0  0  0  0  0  0
  147.0820  156.0310  133.7120 N   0  0  0  0  0  0  0  0  0  0  0  0
  146.0120  155.3020  134.3340 C   0  0  0  0  0  0  0  0  0  0  0  0
  145.0410  154.8960  133.6390 O   0  0  0  0  0  0  0  0  0  0  0  0
  146.0420  155.0670  135.7120 O   0  0  0  0  0  0  0  0  0  0  0  0
  145.7460  153.8000  136.2890 C   0  0  0  0  0  0  0  0  0  0  0  0
  146.8650  153.3490  137.0140 O   0  0  0  0  0  0  0  0  0  0  0  0
  146.3590  152.9530  138.5940 P   0  0  0  0  0  0  0  0  0  0  0  0
  144.8480  152.9550  138.6720 O   0  0  0  0  0  0  0  0  0  0  0  0
  146.9850  154.0650  139.7070 O   0  0  0  0  0  0  0  0  0  0  0  0
  146.9290  151.4090  138.9820 O   0  0  0  0  0  0  0  0  0  0  0  0
  147.0850  157.3530  133.4260 C   0  0  0  0  0  0  0  0  0  0  0  0
  146.0890  158.3000  133.6870 C   0  0  0  0  0  0  0  0  0  0  0  0
  144.0534  160.3125  135.2166 H   0  0  0  0  0  0  0  0  0  0  0  0
  143.2409  161.0362  133.7873 H   0  0  0  0  0  0  0  0  0  0  0  0
  143.6738  159.2928  133.7873 H   0  0  0  0  0  0  0  0  0  0  0  0
  145.4790  161.6210  133.3190 H   0  0  0  0  0  0  0  0  0  0  0  0
  147.6731  161.0127  132.2775 H   0  0  0  0  0  0  0  0  0  0  0  0
  149.4082  159.2535  131.8039 H   0  0  0  0  0  0  0  0  0  0  0  0
  149.9681  156.4680  132.1145 H   0  0  0  0  0  0  0  0  0  0  0  0
  147.3930  153.5370  134.9190 H   0  0  0  0  0  0  0  0  0  0  0  0
  144.8838  153.8961  136.9653 H   0  0  0  0  0  0  0  0  0  0  0  0
  145.5055  153.0789  135.4939 H   0  0  0  0  0  0  0  0  0  0  0  0
  145.1614  158.0119  134.2034 H   0  0  0  0  0  0  0  0  0  0  0  0
  1  2  1  0
  2  3  1  0
  3  4  2  0
  4  5  1  0
  5  6  2  0
  6  7  1  0
  7  8  2  0
  8  9  1  0
  9 10  1  0
  9 11  2  0
  8 12  1  0
 12 13  1  0
 13 14  2  0
 13 15  1  0
 15 16  1  0
 16 17  1  0
 17 18  1  0
 18 19  2  0
 18 20  1  0
 18 21  1  0
 12 22  1  0
 22 23  2  0
 23  3  1  0
 22  6  1  0
  1 24  1  0
  1 25  1  0
  1 26  1  0
  2 27  1  0
  4 28  1  0
  5 29  1  0
  7 30  1  0
 10 31  1  0
 16 32  1  0
 16 33  1  0
 23 34  1  0
M  CHG  3  10  -1  20  -1  21  -1
M  END
>  <UniqueID>  (20) 
20

>  <SMILES>  (20) 
CNc1ccc2cc(C([NH-])=O)n(C(=O)OCOP(=O)([O-])[O-])c2c1

>  <Energy>  (20) 
69.56754905293603

>  <Genealogy>  (20) 
CNc1ccc2cc(C([NH-])=O)n(C(=O)OCOP(=O)([O-])[O-])c2c1 (protonated)
CNc1ccc2cc(C([NH-])=O)n(C(=O)OCOP(=O)([O-])[O-])c2c1 (3D coordinates assigned)
CNc1ccc2cc(C([NH-])=O)n(C(=O)OCOP(=O)([O-])[O-])c2c1 (optimized conformer: 69.56754905293603 kcal/mol)

>  <smiles>  (20) 
CNc1ccc2cc(C(N)=O)n(C(=O)OCOP(=O)(O)O)c2c1

>  <score_type>  (20) 
oracle

>  <origin>  (20) 
adg

>  <m_score__min__energy>  (20) 
-6.4299999999999997

>  <m_primary>  (20) 
energy

$$$$
20:0
     RDKit          3D

 42 43  0  0  0  0  0  0  0  0999 V2000
  148.3410  154.4490  133.2890 C   0  0  0  0  0  0  0  0  0  0  0  0
  148.7500  155.6590  132.5830 N   0  0  0  0  0  0  0  0  0  0  0  0
  148.1190  156.9390  132.7690 C   0  0  0  0  0  0  0  0  0  0  0  0
  148.8780  158.1390  132.8590 C   0  0  0  0  0  0  0  0  0  0  0  0
  148.2440  159.3770  133.0500 C   0  0  0  0  0  0  0  0  0  0  0  0
  146.8560  159.3940  133.1430 C   0  0  0  0  0  0  0  0  0  0  0  0
  145.9930  160.4450  133.3570 C   0  0  0  0  0  0  0  0  0  0  0  0
  144.7190  159.8780  133.3830 C   0  0  0  0  0  0  0  0  0  0  0  0
  143.4730  160.6550  133.5510 C   0  0  0  0  0  0  0  0  0  0  0  0
  142.2110  159.9940  133.5030 N   0  0  0  0  0  0  0  0  0  0  0  0
  143.5120  161.8980  133.7550 O   0  0  0  0  0  0  0  0  0  0  0  0
  144.7950  158.5320  133.1870 N   0  0  0  0  0  0  0  0  0  0  0  0
  143.7170  157.5830  133.1920 C   0  0  0  0  0  0  0  0  0  0  0  0
  142.9580  157.4980  132.1900 O   0  0  0  0  0  0  0  0  0  0  0  0
  143.4990  156.6990  134.3470 C   0  0  0  0  0  0  0  0  0  0  0  0
  144.4690  156.0730  134.8520 O   0  0  0  0  0  0  0  0  0  0  0  0
  142.1790  156.5410  134.8790 N   0  0  0  0  0  0  0  0  0  0  0  0
  141.2090  155.5850  134.3570 C   0  0  0  0  0  0  0  0  0  0  0  0
  140.2570  156.2600  133.4160 C   0  0  0  0  0  0  0  0  0  0  0  0
  139.2390  155.6340  133.0150 O   0  0  0  0  0  0  0  0  0  0  0  0
  140.4930  157.6170  133.0040 N   0  0  0  0  0  0  0  0  0  0  0  0
  139.7160  158.3040  132.0130 C   0  0  0  0  0  0  0  0  0  0  0  0
  138.7480  157.7320  131.4420 O   0  0  0  0  0  0  0  0  0  0  0  0
  140.0550  159.6190  131.6770 O   0  0  0  0  0  0  0  0  0  0  0  0
  139.0790  160.6070  131.3710 C   0  0  0  0  0  0  0  0  0  0  0  0
  146.1080  158.2510  133.0460 C   0  0  0  0  0  0  0  0  0  0  0  0
  146.7110  157.0020  132.8690 C   0  0  0  0  0  0  0  0  0  0  0  0
  148.3989  154.6203  134.3740 H   0  0  0  0  0  0  0  0  0  0  0  0
  147.3071  154.1949  133.0126 H   0  0  0  0  0  0  0  0  0  0  0  0
  149.0088  153.6197  133.0126 H   0  0  0  0  0  0  0  0  0  0  0  0
  149.5400  155.5790  131.9020 H   0  0  0  0  0  0  0  0  0  0  0  0
  149.9742  158.0963  132.7780 H   0  0  0  0  0  0  0  0  0  0  0  0
  148.8277  160.3064  133.1240 H   0  0  0  0  0  0  0  0  0  0  0  0
  146.2530  161.5066  133.4811 H   0  0  0  0  0  0  0  0  0  0  0  0
  141.9620  159.3690  132.7050 H   0  0  0  0  0  0  0  0  0  0  0  0
  141.7416  154.7858  133.8208 H   0  0  0  0  0  0  0  0  0  0  0  0
  140.6381  155.1641  135.1977 H   0  0  0  0  0  0  0  0  0  0  0  0
  141.3030  158.1300  133.4220 H   0  0  0  0  0  0  0  0  0  0  0  0
  138.6705  161.0205  132.3049 H   0  0  0  0  0  0  0  0  0  0  0  0
  139.5447  161.4136  130.7857 H   0  0  0  0  0  0  0  0  0  0  0  0
  138.2668  160.1512  130.7857 H   0  0  0  0  0  0  0  0  0  0  0  0
  146.1022  156.0878  132.8089 H   0  0  0  0  0  0  0  0  0  0  0  0
  1  2  1  0
  2  3  1  0
  3  4  2  0
  4  5  1  0
  5  6  2  0
  6  7  1  0
  7  8  2  0
  8  9  1  0
  9 10  1  0
  9 11  2  0
  8 12  1  0
 12 13  1  0
 13 14  2  0
 13 15  1  0
 15 16  2  0
 15 17  1  0
 17 18  1  0
 18 19  1  0
 19 20  2  0
 19 21  1  0
 21 22  1  0
 22 23  2  0
 22 24  1  0
 24 25  1  0
 12 26  1  0
 26 27  2  0
 27  3  1  0
 26  6  1  0
  1 28  1  0
  1 29  1  0
  1 30  1  0
  2 31  1  0
  4 32  1  0
  5 33  1  0
  7 34  1  0
 10 35  1  0
 18 36  1  0
 18 37  1  0
 21 38  1  0
 25 39  1  0
 25 40  1  0
 25 41  1  0
 27 42  1  0
M  CHG  2  10  -1  17  -1
M  END
>  <UniqueID>  (21) 
21

>  <SMILES>  (21) 
CNc1ccc2cc(C([NH-])=O)n(C(=O)C(=O)[N-]CC(=O)NC(=O)OC)c2c1

>  <Energy>  (21) 
73.85016025199556

>  <Genealogy>  (21) 
CNc1ccc2cc(C([NH-])=O)n(C(=O)C(=O)[N-]CC(=O)NC(=O)OC)c2c1 (protonated)
CNc1ccc2cc(C([NH-])=O)n(C(=O)C(=O)[N-]CC(=O)NC(=O)OC)c2c1 (3D coordinates assigned)
CNc1ccc2cc(C([NH-])=O)n(C(=O)C(=O)[N-]CC(=O)NC(=O)OC)c2c1 (optimized conformer: 73.85016025199556 kcal/mol)

>  <smiles>  (21) 
CNc1ccc2cc(C(N)=O)n(C(=O)C(=O)NCC(=O)NC(=O)OC)c2c1

>  <score_type>  (21) 
oracle

>  <origin>  (21) 
adg

>  <m_score__min__energy>  (21) 
-7.2800000000000002

>  <m_primary>  (21) 
energy

$$$$
21:0
     RDKit          3D

 42 45  0  0  0  0  0  0  0  0999 V2000
  147.1060  156.2670  131.9870 N   0  0  0  0  0  0  0  0  0  0  0  0
  146.6550  156.9620  133.1510 C   0  0  0  0  0  0  0  0  0  0  0  0
  147.4840  157.2450  134.0560 O   0  0  0  0  0  0  0  0  0  0  0  0
  145.2320  157.3400  133.3050 C   0  0  0  0  0  0  0  0  0  0  0  0
  144.7930  158.5890  133.7410 C   0  0  0  0  0  0  0  0  0  0  0  0
  143.4180  158.5380  133.6680 C   0  0  0  0  0  0  0  0  0  0  0  0
  142.4650  159.4970  133.9990 C   0  0  0  0  0  0  0  0  0  0  0  0
  141.1100  159.1580  133.8470 C   0  0  0  0  0  0  0  0  0  0  0  0
  140.7300  157.8810  133.3580 C   0  0  0  0  0  0  0  0  0  0  0  0
  139.2730  157.5100  133.2560 C   0  0  0  0  0  0  0  0  0  0  0  0
  138.5980  157.8610  134.4120 F   0  0  0  0  0  0  0  0  0  0  0  0
  138.6760  158.1650  132.1920 F   0  0  0  0  0  0  0  0  0  0  0  0
  139.1630  156.1460  133.0640 F   0  0  0  0  0  0  0  0  0  0  0  0
  141.7300  156.9270  133.0550 C   0  0  0  0  0  0  0  0  0  0  0  0
  143.0700  157.2970  133.2070 C   0  0  0  0  0  0  0  0  0  0  0  0
  144.1700  156.5490  132.9840 N   0  0  0  0  0  0  0  0  0  0  0  0
  144.1860  155.1790  132.5570 C   0  0  0  0  0  0  0  0  0  0  0  0
  144.6960  154.8820  131.4430 O   0  0  0  0  0  0  0  0  0  0  0  0
  143.5740  154.1230  133.3820 C   0  0  0  0  0  0  0  0  0  0  0  0
  143.6120  154.0240  134.7580 C   0  0  0  0  0  0  0  0  0  0  0  0
  142.9570  152.9500  135.1330 O   0  0  0  0  0  0  0  0  0  0  0  0
  142.4970  152.3310  134.0680 C   0  0  0  0  0  0  0  0  0  0  0  0
  141.6880  151.0960  134.1530 C   0  0  0  0  0  0  0  0  0  0  0  0
  140.9950  150.9120  135.1880 O   0  0  0  0  0  0  0  0  0  0  0  0
  141.6590  150.0900  133.1310 N   0  0  0  0  0  0  0  0  0  0  0  0
  140.4930  149.3190  132.7240 C   0  0  0  0  0  0  0  0  0  0  0  0
  140.2900  149.2510  131.2200 C   0  0  0  0  0  0  0  0  0  0  0  0
  139.4360  150.1840  132.0620 C   0  0  0  0  0  0  0  0  0  0  0  0
  142.8600  153.0320  132.9310 C   0  0  0  0  0  0  0  0  0  0  0  0
  146.4670  156.0790  131.1840 H   0  0  0  0  0  0  0  0  0  0  0  0
  148.1060  155.9790  131.9050 H   0  0  0  0  0  0  0  0  0  0  0  0
  145.4124  159.4353  134.0728 H   0  0  0  0  0  0  0  0  0  0  0  0
  142.7634  160.4893  134.3681 H   0  0  0  0  0  0  0  0  0  0  0  0
  140.3338  159.8917  134.1103 H   0  0  0  0  0  0  0  0  0  0  0  0
  141.4599  155.9186  132.7082 H   0  0  0  0  0  0  0  0  0  0  0  0
  144.1122  154.7332  135.4339 H   0  0  0  0  0  0  0  0  0  0  0  0
  140.5136  148.5744  133.5334 H   0  0  0  0  0  0  0  0  0  0  0  0
  141.0522  149.6638  130.5427 H   0  0  0  0  0  0  0  0  0  0  0  0
  140.0844  148.4469  130.4981 H   0  0  0  0  0  0  0  0  0  0  0  0
  139.5797  151.2725  131.9940 H   0  0  0  0  0  0  0  0  0  0  0  0
  138.3555  150.3353  132.2019 H   0  0  0  0  0  0  0  0  0  0  0  0
  142.6280  152.7736  131.8873 H   0  0  0  0  0  0  0  0  0  0  0  0
  1  2  1  0
  2  3  2  0
  2  4  1  0
  4  5  2  0
  5  6  1  0
  6  7  2  0
  7  8  1  0
  8  9  2  0
  9 10  1  0
 10 11  1  0
 10 12  1  0
 10 13  1  0
  9 14  1  0
 14 15  2  0
 15 16  1  0
 16 17  1  0
 17 18  2  0
 17 19  1  0
 19 20  2  0
 20 21  1  0
 21 22  1  0
 22 23  1  0
 23 24  2  0
 23 25  1  0
 25 26  1  0
 26 27  1  0
 27 28  1  0
 22 29  2  0
 16  4  1  0
 29 19  1  0
 15  6  1  0
 28 26  1  0
  1 30  1  0
  1 31  1  0
  5 32  1  0
  7 33  1  0
  8 34  1  0
 14 35  1  0
 20 36  1  0
 26 37  1  0
 27 38  1  0
 27 39  1  0
 28 40  1  0
 28 41  1  0
 29 42  1  0
M  CHG  1  25  -1
M  END
>  <UniqueID>  (22) 
22

>  <SMILES>  (22) 
NC(=O)c1cc2ccc(C(F)(F)F)cc2n1C(=O)c1coc(C(=O)[N-]C2CC2)c1

>  <Energy>  (22) 
376.2294680852346

>  <Genealogy>  (22) 
NC(=O)c1cc2ccc(C(F)(F)F)cc2n1C(=O)c1coc(C(=O)[N-]C2CC2)c1 (protonated)
NC(=O)c1cc2ccc(C(F)(F)F)cc2n1C(=O)c1coc(C(=O)[N-]C2CC2)c1 (3D coordinates assigned)
NC(=O)c1cc2ccc(C(F)(F)F)cc2n1C(=O)c1coc(C(=O)[N-]C2CC2)c1 (nonaromatic ring conformer: 376.2294680852346 kcal/mol)

>  <smiles>  (22) 
NC(=O)c1cc2ccc(C(F)(F)F)cc2n1C(=O)c1coc(C(=O)NC2CC2)c1

>  <score_type>  (22) 
oracle

>  <origin>  (22) 
adg

>  <m_score__min__energy>  (22) 
-8.1899999999999995

>  <m_primary>  (22) 
energy

$$$$
22:0
     RDKit          3D

 39 40  0  0  0  0  0  0  0  0999 V2000
  139.8530  157.7000  133.5290 C   0  0  0  0  0  0  0  0  0  0  0  0
  140.4240  158.9790  134.1560 C   0  0  0  0  0  0  0  0  0  0  0  0
  140.7760  159.9930  133.0550 C   0  0  0  0  0  0  0  0  0  0  0  0
  141.6250  158.6700  135.0910 C   0  0  1  0  0  0  0  0  0  0  0  0
  142.8340  159.3700  134.6560 N   0  0  0  0  0  0  0  0  0  0  0  0
  143.7320  158.8880  133.6510 C   0  0  0  0  0  0  0  0  0  0  0  0
  143.3240  158.0930  132.7630 O   0  0  0  0  0  0  0  0  0  0  0  0
  145.0940  159.3390  133.6360 N   0  0  0  0  0  0  0  0  0  0  0  0
  145.5540  160.6170  133.7440 C   0  0  0  0  0  0  0  0  0  0  0  0
  144.7410  161.8040  134.0850 C   0  0  0  0  0  0  0  0  0  0  0  0
  143.4230  161.9640  133.5670 N   0  0  0  0  0  0  0  0  0  0  0  0
  145.2000  162.6670  134.8810 O   0  0  0  0  0  0  0  0  0  0  0  0
  146.9350  160.6570  133.5660 C   0  0  0  0  0  0  0  0  0  0  0  0
  147.3120  159.3510  133.3480 C   0  0  0  0  0  0  0  0  0  0  0  0
  148.5700  158.8130  133.0930 C   0  0  0  0  0  0  0  0  0  0  0  0
  148.6600  157.4290  132.8700 C   0  0  0  0  0  0  0  0  0  0  0  0
  147.5010  156.6150  132.8960 C   0  0  0  0  0  0  0  0  0  0  0  0
  147.6190  155.1410  132.6350 C   0  0  0  0  0  0  0  0  0  0  0  0
  148.9520  154.7920  132.5260 F   0  0  0  0  0  0  0  0  0  0  0  0
  147.0450  154.4350  133.6770 F   0  0  0  0  0  0  0  0  0  0  0  0
  146.2400  157.1980  133.1550 C   0  0  0  0  0  0  0  0  0  0  0  0
  146.1830  158.5760  133.3940 C   0  0  0  0  0  0  0  0  0  0  0  0
  141.3090  159.0450  136.5130 C   0  0  0  0  0  0  0  0  0  0  0  0
  140.6350  160.0770  136.7730 O   0  0  0  0  0  0  0  0  0  0  0  0
  141.7250  158.2210  137.5510 O   0  0  0  0  0  0  0  0  0  0  0  0
  139.5438  157.0075  134.3258 H   0  0  0  0  0  0  0  0  0  0  0  0
  138.9828  157.9540  132.9059 H   0  0  0  0  0  0  0  0  0  0  0  0
  140.6231  157.2217  132.9059 H   0  0  0  0  0  0  0  0  0  0  0  0
  139.6535  159.4350  134.7950 H   0  0  0  0  0  0  0  0  0  0  0  0
  141.1035  160.9363  133.5164 H   0  0  0  0  0  0  0  0  0  0  0  0
  141.5866  159.5895  132.4305 H   0  0  0  0  0  0  0  0  0  0  0  0
  139.8897  160.1786  132.4305 H   0  0  0  0  0  0  0  0  0  0  0  0
  141.8086  157.5868  135.0372 H   0  0  0  0  0  0  0  0  0  0  0  0
  142.8050  161.1380  133.4060 H   0  0  0  0  0  0  0  0  0  0  0  0
  147.5858  161.5434  133.5937 H   0  0  0  0  0  0  0  0  0  0  0  0
  149.4655  159.4513  133.0669 H   0  0  0  0  0  0  0  0  0  0  0  0
  149.6412  156.9724  132.6730 H   0  0  0  0  0  0  0  0  0  0  0  0
  147.0982  154.8990  131.6968 H   0  0  0  0  0  0  0  0  0  0  0  0
  145.3269  156.5848  133.1684 H   0  0  0  0  0  0  0  0  0  0  0  0
  1  2  1  0
  2  3  1  0
  2  4  1  0
  4  5  1  0
  5  6  1  0
  6  7  2  0
  6  8  1  0
  8  9  1  0
  9 10  1  0
 10 11  1  0
 10 12  2  0
  9 13  2  0
 13 14  1  0
 14 15  2  0
 15 16  1  0
 16 17  2  0
 17 18  1  0
 18 19  1  0
 18 20  1  0
 17 21  1  0
 21 22  2  0
  4 23  1  0
 23 24  2  0
 23 25  1  0
 22  8  1  0
 22 14  1  0
  1 26  1  0
  1 27  1  0
  1 28  1  0
  2 29  1  0
  3 30  1  0
  3 31  1  0
  3 32  1  0
  4 33  1  1
 11 34  1  0
 13 35  1  0
 15 36  1  0
 16 37  1  0
 18 38  1  0
 21 39  1  0
M  CHG  3   5  -1  11  -1  25  -1
M  END
>  <UniqueID>  (23) 
23

>  <SMILES>  (23) 
CC(C)[C@@H]([N-]C(=O)n1c(C([NH-])=O)cc2ccc(C(F)F)cc21)C(=O)[O-]

>  <Energy>  (23) 
72.79993270041768

>  <Genealogy>  (23) 
CC(C)C([N-]C(=O)n1c(C([NH-])=O)cc2ccc(C(F)F)cc21)C(=O)[O-] (protonated)
CC(C)[C@@H]([N-]C(=O)n1c(C([NH-])=O)cc2ccc(C(F)F)cc21)C(=O)[O-] (chirality)
CC(C)[C@@H]([N-]C(=O)n1c(C([NH-])=O)cc2ccc(C(F)F)cc21)C(=O)[O-] (3D coordinates assigned)
CC(C)[C@@H]([N-]C(=O)n1c(C([NH-])=O)cc2ccc(C(F)F)cc21)C(=O)[O-] (optimized conformer: 72.79993270041768 kcal/mol)

>  <smiles>  (23) 
CC(C)C(NC(=O)n1c(C(N)=O)cc2ccc(C(F)F)cc21)C(=O)O

>  <score_type>  (23) 
oracle

>  <origin>  (23) 
adg

>  <m_score__min__energy>  (23) 
-7.3300000000000001

>  <m_primary>  (23) 
energy

$$$$
23:0
     RDKit          3D

 36 37  0  0  0  0  0  0  0  0999 V2000
  141.6760  158.5860  134.7800 C   0  0  0  0  0  0  0  0  0  0  0  0
  143.0110  159.0770  134.3030 C   0  0  0  0  0  0  0  0  0  0  0  0
  143.2300  160.4620  134.1060 C   0  0  0  0  0  0  0  0  0  0  0  0
  144.4820  160.9340  133.6760 C   0  0  0  0  0  0  0  0  0  0  0  0
  145.4960  160.0020  133.4710 C   0  0  0  0  0  0  0  0  0  0  0  0
  146.7900  160.1810  133.0370 C   0  0  0  0  0  0  0  0  0  0  0  0
  147.3510  158.9050  133.0140 C   0  0  0  0  0  0  0  0  0  0  0  0
  148.7690  158.6460  132.6860 C   0  0  0  0  0  0  0  0  0  0  0  0
  149.2420  157.3200  132.4570 N   0  0  0  0  0  0  0  0  0  0  0  0
  149.5870  159.6050  132.6500 O   0  0  0  0  0  0  0  0  0  0  0  0
  146.4360  157.9750  133.4090 N   0  0  0  0  0  0  0  0  0  0  0  0
  146.5940  156.5490  133.4630 C   0  0  0  0  0  0  0  0  0  0  0  0
  146.9280  155.9140  132.4250 O   0  0  0  0  0  0  0  0  0  0  0  0
  146.3580  155.8720  134.6640 O   0  0  0  0  0  0  0  0  0  0  0  0
  147.1270  154.7520  135.0950 C   0  0  0  0  0  0  0  0  0  0  0  0
  146.3290  153.9090  136.0370 C   0  0  0  0  0  0  0  0  0  0  0  0
  145.0700  153.9080  135.9600 O   0  0  0  0  0  0  0  0  0  0  0  0
  146.9960  153.1480  137.0500 N   0  0  0  0  0  0  0  0  0  0  0  0
  148.3860  153.3630  137.4360 C   0  0  0  0  0  0  0  0  0  0  0  0
  148.4570  154.1000  138.7340 C   0  0  0  0  0  0  0  0  0  0  0  0
  149.5240  154.6760  139.0770 O   0  0  0  0  0  0  0  0  0  0  0  0
  147.3610  154.1180  139.5860 O   0  0  0  0  0  0  0  0  0  0  0  0
  145.3080  158.6610  133.6900 C   0  0  0  0  0  0  0  0  0  0  0  0
  144.0680  158.1610  134.1030 C   0  0  0  0  0  0  0  0  0  0  0  0
  141.6592  158.5798  135.8799 H   0  0  0  0  0  0  0  0  0  0  0  0
  140.8850  159.2520  134.4049 H   0  0  0  0  0  0  0  0  0  0  0  0
  141.5050  157.5661  134.4049 H   0  0  0  0  0  0  0  0  0  0  0  0
  142.4129  161.1748  134.2912 H   0  0  0  0  0  0  0  0  0  0  0  0
  144.6556  162.0069  133.5066 H   0  0  0  0  0  0  0  0  0  0  0  0
  147.2776  161.1291  132.7660 H   0  0  0  0  0  0  0  0  0  0  0  0
  148.8100  156.7130  131.7260 H   0  0  0  0  0  0  0  0  0  0  0  0
  147.4121  154.1489  134.2204 H   0  0  0  0  0  0  0  0  0  0  0  0
  148.0281  155.1132  135.6123 H   0  0  0  0  0  0  0  0  0  0  0  0
  148.8872  152.3897  137.5437 H   0  0  0  0  0  0  0  0  0  0  0  0
  148.8845  153.9602  136.6583 H   0  0  0  0  0  0  0  0  0  0  0  0
  143.9201  157.0835  134.2676 H   0  0  0  0  0  0  0  0  0  0  0  0
  1  2  1  0
  2  3  2  0
  3  4  1  0
  4  5  2  0
  5  6  1  0
  6  7  2  0
  7  8  1  0
  8  9  1  0
  8 10  2  0
  7 11  1  0
 11 12  1  0
 12 13  2  0
 12 14  1  0
 14 15  1  0
 15 16  1  0
 16 17  2  0
 16 18  1  0
 18 19  1  0
 19 20  1  0
 20 21  2  0
 20 22  1  0
 11 23  1  0
 23 24  2  0
 24  2  1  0
 23  5  1  0
  1 25  1  0
  1 26  1  0
  1 27  1  0
  3 28  1  0
  4 29  1  0
  6 30  1  0
  9 31  1  0
 15 32  1  0
 15 33  1  0
 19 34  1  0
 19 35  1  0
 24 36  1  0
M  CHG  3   9  -1  18  -1  22  -1
M  END
>  <UniqueID>  (24) 
24

>  <SMILES>  (24) 
Cc1ccc2cc(C([NH-])=O)n(C(=O)OCC(=O)[N-]CC(=O)[O-])c2c1

>  <Energy>  (24) 
69.15039642159061

>  <Genealogy>  (24) 
Cc1ccc2cc(C([NH-])=O)n(C(=O)OCC(=O)[N-]CC(=O)[O-])c2c1 (protonated)
Cc1ccc2cc(C([NH-])=O)n(C(=O)OCC(=O)[N-]CC(=O)[O-])c2c1 (3D coordinates assigned)
Cc1ccc2cc(C([NH-])=O)n(C(=O)OCC(=O)[N-]CC(=O)[O-])c2c1 (optimized conformer: 69.15039642159061 kcal/mol)

>  <smiles>  (24) 
Cc1ccc2cc(C(N)=O)n(C(=O)OCC(=O)NCC(=O)O)c2c1

>  <score_type>  (24) 
oracle

>  <origin>  (24) 
adg

>  <m_score__min__energy>  (24) 
-6.75

>  <m_primary>  (24) 
energy

$$$$
24:0
     RDKit          3D

 38 39  0  0  0  0  0  0  0  0999 V2000
  140.6380  159.7950  133.0260 C   0  0  0  0  0  0  0  0  0  0  0  0
  139.8510  158.6430  133.4810 N   0  0  0  0  0  0  0  0  0  0  0  0
  138.6540  158.2570  132.7240 C   0  0  0  0  0  0  0  0  0  0  0  0
  140.2490  157.8950  134.6600 C   0  0  0  0  0  0  0  0  0  0  0  0
  139.9010  158.3530  135.9620 C   0  0  0  0  0  0  0  0  0  0  0  0
  140.2740  157.6310  137.1090 C   0  0  0  0  0  0  0  0  0  0  0  0
  141.0030  156.4610  136.9350 C   0  0  0  0  0  0  0  0  0  0  0  0
  141.4660  155.5590  137.8670 C   0  0  0  0  0  0  0  0  0  0  0  0
  142.1100  154.5650  137.1310 C   0  0  0  0  0  0  0  0  0  0  0  0
  142.8100  153.4020  137.7240 C   0  0  0  0  0  0  0  0  0  0  0  0
  144.2380  153.3560  137.7860 N   0  0  0  0  0  0  0  0  0  0  0  0
  142.1490  152.4260  138.1670 O   0  0  0  0  0  0  0  0  0  0  0  0
  142.0520  154.8500  135.8000 N   0  0  0  0  0  0  0  0  0  0  0  0
  142.5430  154.0500  134.7130 C   0  0  0  0  0  0  0  0  0  0  0  0
  141.7190  153.5510  133.9000 O   0  0  0  0  0  0  0  0  0  0  0  0
  143.9940  153.7910  134.5710 C   0  0  0  0  0  0  0  0  0  0  0  0
  144.3760  152.9370  133.7270 O   0  0  0  0  0  0  0  0  0  0  0  0
  144.9900  154.4680  135.3510 N   0  0  0  0  0  0  0  0  0  0  0  0
  146.4260  154.4500  135.1100 C   0  0  0  0  0  0  0  0  0  0  0  0
  147.1280  154.0200  136.3550 C   0  0  0  0  0  0  0  0  0  0  0  0
  148.1540  154.6360  136.7480 O   0  0  0  0  0  0  0  0  0  0  0  0
  146.6180  152.9740  137.1140 O   0  0  0  0  0  0  0  0  0  0  0  0
  141.3660  156.0100  135.6970 C   0  0  0  0  0  0  0  0  0  0  0  0
  140.9910  156.6930  134.5350 C   0  0  0  0  0  0  0  0  0  0  0  0
  141.0160  160.3483  133.8983 H   0  0  0  0  0  0  0  0  0  0  0  0
  141.4856  159.4434  132.4193 H   0  0  0  0  0  0  0  0  0  0  0  0
  140.0023  160.4567  132.4193 H   0  0  0  0  0  0  0  0  0  0  0  0
  137.8460  157.9964  133.4235 H   0  0  0  0  0  0  0  0  0  0  0  0
  138.3339  159.0975  132.0906 H   0  0  0  0  0  0  0  0  0  0  0  0
  138.8852  157.3879  132.0906 H   0  0  0  0  0  0  0  0  0  0  0  0
  139.3309  159.2872  136.0724 H   0  0  0  0  0  0  0  0  0  0  0  0
  139.9971  157.9817  138.1141 H   0  0  0  0  0  0  0  0  0  0  0  0
  141.3520  155.6115  138.9598 H   0  0  0  0  0  0  0  0  0  0  0  0
  144.7170  152.5160  138.1800 H   0  0  0  0  0  0  0  0  0  0  0  0
  144.8240  154.1640  137.4820 H   0  0  0  0  0  0  0  0  0  0  0  0
  146.6537  153.7447  134.2971 H   0  0  0  0  0  0  0  0  0  0  0  0
  146.7650  155.4566  134.8238 H   0  0  0  0  0  0  0  0  0  0  0  0
  141.2665  156.3050  133.5433 H   0  0  0  0  0  0  0  0  0  0  0  0
  1  2  1  0
  2  3  1  0
  2  4  1  0
  4  5  2  0
  5  6  1  0
  6  7  2  0
  7  8  1  0
  8  9  2  0
  9 10  1  0
 10 11  1  0
 10 12  2  0
  9 13  1  0
 13 14  1  0
 14 15  2  0
 14 16  1  0
 16 17  2  0
 16 18  1  0
 18 19  1  0
 19 20  1  0
 20 21  2  0
 20 22  1  0
 13 23  1  0
 23 24  2  0
 24  4  1  0
 23  7  1  0
  1 25  1  0
  1 26  1  0
  1 27  1  0
  3 28  1  0
  3 29  1  0
  3 30  1  0
  5 31  1  0
  6 32  1  0
  8 33  1  0
 11 34  1  0
 11 35  1  0
 19 36  1  0
 19 37  1  0
 24 38  1  0
M  CHG  2  18  -1  22  -1
M  END
>  <UniqueID>  (25) 
25

>  <SMILES>  (25) 
CN(C)c1ccc2cc(C(N)=O)n(C(=O)C(=O)[N-]CC(=O)[O-])c2c1

>  <Energy>  (25) 
77.27455556146381

>  <Genealogy>  (25) 
CN(C)c1ccc2cc(C(N)=O)n(C(=O)C(=O)[N-]CC(=O)[O-])c2c1 (protonated)
CN(C)c1ccc2cc(C(N)=O)n(C(=O)C(=O)[N-]CC(=O)[O-])c2c1 (3D coordinates assigned)
CN(C)c1ccc2cc(C(N)=O)n(C(=O)C(=O)[N-]CC(=O)[O-])c2c1 (optimized conformer: 77.27455556146381 kcal/mol)

>  <smiles>  (25) 
CN(C)c1ccc2cc(C(N)=O)n(C(=O)C(=O)NCC(=O)O)c2c1

>  <score_type>  (25) 
oracle

>  <origin>  (25) 
adg

>  <m_score__min__energy>  (25) 
-6.4299999999999997

>  <m_primary>  (25) 
energy

$$$$
25:0
     RDKit          3D

 31 32  0  0  0  0  0  0  0  0999 V2000
  145.5980  160.4860  132.9140 N   0  0  0  0  0  0  0  0  0  0  0  0
  145.0460  159.3640  133.6040 C   0  0  0  0  0  0  0  0  0  0  0  0
  144.0680  159.5390  134.3780 O   0  0  0  0  0  0  0  0  0  0  0  0
  145.6310  158.0140  133.4700 C   0  0  0  0  0  0  0  0  0  0  0  0
  144.8710  156.8510  133.3690 C   0  0  0  0  0  0  0  0  0  0  0  0
  145.7840  155.8270  133.2660 C   0  0  0  0  0  0  0  0  0  0  0  0
  145.5820  154.4590  133.1060 C   0  0  0  0  0  0  0  0  0  0  0  0
  146.7140  153.6380  132.9670 C   0  0  0  0  0  0  0  0  0  0  0  0
  148.0170  154.1960  132.9750 C   0  0  0  0  0  0  0  0  0  0  0  0
  149.2120  153.3040  132.7980 C   0  0  0  0  0  0  0  0  0  0  0  0
  150.2650  154.0330  132.2780 F   0  0  0  0  0  0  0  0  0  0  0  0
  148.9010  152.2720  131.9320 F   0  0  0  0  0  0  0  0  0  0  0  0
  148.1820  155.5910  133.1290 C   0  0  0  0  0  0  0  0  0  0  0  0
  147.0390  156.3800  133.2960 C   0  0  0  0  0  0  0  0  0  0  0  0
  146.9600  157.7230  133.4290 N   0  0  0  0  0  0  0  0  0  0  0  0
  148.0520  158.6530  133.3630 C   0  0  0  0  0  0  0  0  0  0  0  0
  148.5210  159.1390  134.4270 O   0  0  0  0  0  0  0  0  0  0  0  0
  148.6530  159.0250  132.0740 C   0  0  0  0  0  0  0  0  0  0  0  0
  149.6840  158.4270  131.6620 O   0  0  0  0  0  0  0  0  0  0  0  0
  148.0850  160.0580  131.3220 O   0  0  0  0  0  0  0  0  0  0  0  0
  148.8590  161.1120  130.7620 C   0  0  0  0  0  0  0  0  0  0  0  0
  149.6460  160.5340  129.2770 Cl  0  0  0  0  0  0  0  0  0  0  0  0
  146.5170  160.4230  132.4240 H   0  0  0  0  0  0  0  0  0  0  0  0
  145.1330  161.4190  132.9780 H   0  0  0  0  0  0  0  0  0  0  0  0
  143.7741  156.7688  133.3711 H   0  0  0  0  0  0  0  0  0  0  0  0
  144.5676  154.0338  133.0889 H   0  0  0  0  0  0  0  0  0  0  0  0
  146.5877  152.5515  132.8508 H   0  0  0  0  0  0  0  0  0  0  0  0
  149.4982  152.8895  133.7759 H   0  0  0  0  0  0  0  0  0  0  0  0
  149.1839  156.0450  133.1178 H   0  0  0  0  0  0  0  0  0  0  0  0
  148.2040  161.9630  130.5239 H   0  0  0  0  0  0  0  0  0  0  0  0
  149.6237  161.4330  131.4846 H   0  0  0  0  0  0  0  0  0  0  0  0
  1  2  1  0
  2  3  2  0
  2  4  1  0
  4  5  2  0
  5  6  1  0
  6  7  2  0
  7  8  1  0
  8  9  2  0
  9 10  1  0
 10 11  1  0
 10 12  1  0
  9 13  1  0
 13 14  2  0
 14 15  1  0
 15 16  1  0
 16 17  2  0
 16 18  1  0
 18 19  2  0
 18 20  1  0
 20 21  1  0
 21 22  1  0
 15  4  1  0
 14  6  1  0
  1 23  1  0
  1 24  1  0
  5 25  1  0
  7 26  1  0
  8 27  1  0
 10 28  1  0
 13 29  1  0
 21 30  1  0
 21 31  1  0
M  END
>  <UniqueID>  (26) 
26

>  <SMILES>  (26) 
NC(=O)c1cc2ccc(C(F)F)cc2n1C(=O)C(=O)OCCl

>  <Energy>  (26) 
68.41079436155069

>  <Genealogy>  (26) 
NC(=O)c1cc2ccc(C(F)F)cc2n1C(=O)C(=O)OCCl (3D coordinates assigned)
NC(=O)c1cc2ccc(C(F)F)cc2n1C(=O)C(=O)OCCl (optimized conformer: 68.41079436155069 kcal/mol)

>  <smiles>  (26) 
NC(=O)c1cc2ccc(C(F)F)cc2n1C(=O)C(=O)OCCl

>  <score_type>  (26) 
oracle

>  <origin>  (26) 
adg

>  <m_score__min__energy>  (26) 
-6.5

>  <m_primary>  (26) 
energy

$$$$
26:0
     RDKit          3D

 55 57  0  0  0  0  0  0  0  0999 V2000
  137.9840  148.9110  130.3200 C   0  0  0  0  0  0  0  0  0  0  0  0
  139.3080  148.1770  130.5970 C   0  0  0  0  0  0  0  0  0  0  0  0
  139.2120  146.6990  130.1700 C   0  0  0  0  0  0  0  0  0  0  0  0
  140.4280  148.8520  129.7900 C   0  0  0  0  0  0  0  0  0  0  0  0
  139.6640  148.2820  131.9840 O   0  0  0  0  0  0  0  0  0  0  0  0
  140.9020  148.7010  132.4970 C   0  0  0  0  0  0  0  0  0  0  0  0
  141.7280  147.8600  132.9420 O   0  0  0  0  0  0  0  0  0  0  0  0
  141.2310  150.1040  132.5180 N   0  0  0  0  0  0  0  0  0  0  0  0
  140.2780  151.1050  132.0160 C   0  0  0  0  0  0  0  0  0  0  0  0
  140.2410  152.3240  132.9480 C   0  0  0  0  0  0  0  0  0  0  0  0
  141.5870  152.7150  133.3900 N   0  0  0  0  0  0  0  0  0  0  0  0
  141.7320  153.6790  134.4480 C   0  0  0  0  0  0  0  0  0  0  0  0
  142.3840  153.3210  135.6550 C   0  0  0  0  0  0  0  0  0  0  0  0
  142.4970  154.2400  136.7110 C   0  0  0  0  0  0  0  0  0  0  0  0
  141.9550  155.5070  136.5320 C   0  0  0  0  0  0  0  0  0  0  0  0
  141.9050  156.5800  137.3940 C   0  0  0  0  0  0  0  0  0  0  0  0
  141.2460  157.5870  136.6940 C   0  0  0  0  0  0  0  0  0  0  0  0
  141.0630  158.9560  137.2170 C   0  0  0  0  0  0  0  0  0  0  0  0
  140.6320  160.0130  136.3640 N   0  0  0  0  0  0  0  0  0  0  0  0
  141.3530  159.2090  138.4180 O   0  0  0  0  0  0  0  0  0  0  0  0
  140.8950  157.1530  135.4500 N   0  0  0  0  0  0  0  0  0  0  0  0
  140.1390  157.8590  134.4560 C   0  0  0  0  0  0  0  0  0  0  0  0
  138.8850  157.7370  134.4160 O   0  0  0  0  0  0  0  0  0  0  0  0
  140.8010  158.6850  133.5400 O   0  0  0  0  0  0  0  0  0  0  0  0
  142.1640  159.0720  133.6900 C   0  0  0  0  0  0  0  0  0  0  0  0
  142.2360  160.3500  134.2610 O   0  0  0  0  0  0  0  0  0  0  0  0
  141.3380  155.8790  135.3660 C   0  0  0  0  0  0  0  0  0  0  0  0
  141.1920  154.9770  134.3050 C   0  0  0  0  0  0  0  0  0  0  0  0
  142.7610  152.0320  132.8330 C   0  0  0  0  0  0  0  0  0  0  0  0
  142.5740  150.5190  132.9560 C   0  0  0  0  0  0  0  0  0  0  0  0
  137.5053  149.1764  131.2742 H   0  0  0  0  0  0  0  0  0  0  0  0
  138.1856  149.8261  129.7439 H   0  0  0  0  0  0  0  0  0  0  0  0
  137.3147  148.2551  129.7439 H   0  0  0  0  0  0  0  0  0  0  0  0
  139.1706  146.0607  131.0649 H   0  0  0  0  0  0  0  0  0  0  0  0
  138.3022  146.5490  129.5702 H   0  0  0  0  0  0  0  0  0  0  0  0
  140.0947  146.4326  129.5702 H   0  0  0  0  0  0  0  0  0  0  0  0
  141.1617  149.2942  130.4800 H   0  0  0  0  0  0  0  0  0  0  0  0
  140.9256  148.1033  129.1561 H   0  0  0  0  0  0  0  0  0  0  0  0
  139.9984  149.6417  129.1561 H   0  0  0  0  0  0  0  0  0  0  0  0
  140.5867  151.4269  131.0105 H   0  0  0  0  0  0  0  0  0  0  0  0
  139.2751  150.6548  131.9778 H   0  0  0  0  0  0  0  0  0  0  0  0
  139.7832  153.1683  132.4117 H   0  0  0  0  0  0  0  0  0  0  0  0
  139.6536  152.0555  133.8384 H   0  0  0  0  0  0  0  0  0  0  0  0
  142.8064  152.3114  135.7657 H   0  0  0  0  0  0  0  0  0  0  0  0
  142.9989  153.9654  137.6505 H   0  0  0  0  0  0  0  0  0  0  0  0
  142.3018  156.6306  138.4187 H   0  0  0  0  0  0  0  0  0  0  0  0
  140.4350  159.8380  135.3560 H   0  0  0  0  0  0  0  0  0  0  0  0
  142.6783  158.3512  134.3427 H   0  0  0  0  0  0  0  0  0  0  0  0
  142.6470  159.0886  132.7019 H   0  0  0  0  0  0  0  0  0  0  0  0
  141.7080  160.3090  135.0970 H   0  0  0  0  0  0  0  0  0  0  0  0
  140.6698  155.2716  133.3828 H   0  0  0  0  0  0  0  0  0  0  0  0
  142.8746  152.3028  131.7729 H   0  0  0  0  0  0  0  0  0  0  0  0
  143.6610  152.3373  133.3868 H   0  0  0  0  0  0  0  0  0  0  0  0
  143.3256  150.0140  132.3314 H   0  0  0  0  0  0  0  0  0  0  0  0
  142.6933  150.2413  134.0137 H   0  0  0  0  0  0  0  0  0  0  0  0
  1  2  1  0
  2  3  1  0
  2  4  1  0
  2  5  1  0
  5  6  1  0
  6  7  2  0
  6  8  1  0
  8  9  1  0
  9 10  1  0
 10 11  1  0
 11 12  1  0
 12 13  2  0
 13 14  1  0
 14 15  2  0
 15 16  1  0
 16 17  2  0
 17 18  1  0
 18 19  1  0
 18 20  2  0
 17 21  1  0
 21 22  1  0
 22 23  2  0
 22 24  1  0
 24 25  1  0
 25 26  1  0
 21 27  1  0
 27 28  2  0
 11 29  1  0
 29 30  1  0
 30  8  1  0
 28 12  1  0
 27 15  1  0
  1 31  1  0
  1 32  1  0
  1 33  1  0
  3 34  1  0
  3 35  1  0
  3 36  1  0
  4 37  1  0
  4 38  1  0
  4 39  1  0
  9 40  1  0
  9 41  1  0
 10 42  1  0
 10 43  1  0
 13 44  1  0
 14 45  1  0
 16 46  1  0
 19 47  1  0
 25 48  1  0
 25 49  1  0
 26 50  1  0
 28 51  1  0
 29 52  1  0
 29 53  1  0
 30 54  1  0
 30 55  1  0
M  CHG  1  19  -1
M  END
>  <UniqueID>  (27) 
27

>  <SMILES>  (27) 
CC(C)(C)OC(=O)N1CCN(c2ccc3cc(C([NH-])=O)n(C(=O)OCO)c3c2)CC1

>  <Energy>  (27) 
92.5284989401592

>  <Genealogy>  (27) 
CC(C)(C)OC(=O)N1CCN(c2ccc3cc(C([NH-])=O)n(C(=O)OCO)c3c2)CC1 (protonated)
CC(C)(C)OC(=O)N1CCN(c2ccc3cc(C([NH-])=O)n(C(=O)OCO)c3c2)CC1 (3D coordinates assigned)
CC(C)(C)OC(=O)N1CCN(c2ccc3cc(C([NH-])=O)n(C(=O)OCO)c3c2)CC1 (nonaromatic ring conformer: 92.5284989401592 kcal/mol)

>  <smiles>  (27) 
CC(C)(C)OC(=O)N1CCN(c2ccc3cc(C(N)=O)n(C(=O)OCO)c3c2)CC1

>  <score_type>  (27) 
oracle

>  <origin>  (27) 
adg

>  <m_score__min__energy>  (27) 
-7.9900000000000002

>  <m_primary>  (27) 
energy

$$$$
27:0
     RDKit          3D

 52 54  0  0  0  0  0  0  0  0999 V2000
  141.4270  158.8310  136.1280 C   0  0  0  0  0  0  0  0  0  0  0  0
  141.8570  158.0660  134.9620 N   0  0  0  0  0  0  0  0  0  0  0  0
  141.7100  156.7550  134.8600 N   0  0  0  0  0  0  0  0  0  0  0  0
  142.2140  156.3780  133.6690 C   0  0  0  0  0  0  0  0  0  0  0  0
  142.6960  157.4820  132.9950 C   0  0  0  0  0  0  0  0  0  0  0  0
  142.4480  158.5420  133.8450 C   0  0  0  0  0  0  0  0  0  0  0  0
  142.7520  159.9880  133.5520 C   0  0  0  0  0  0  0  0  0  0  0  0
  143.9940  160.4730  134.3130 C   0  0  0  0  0  0  0  0  0  0  0  0
  145.1400  160.6410  133.4190 N   0  0  0  0  0  0  0  0  0  0  0  0
  146.1550  159.6460  133.1990 C   0  0  0  0  0  0  0  0  0  0  0  0
  147.3900  159.9640  132.5740 C   0  0  0  0  0  0  0  0  0  0  0  0
  148.3530  158.9680  132.3400 C   0  0  0  0  0  0  0  0  0  0  0  0
  148.0620  157.6700  132.7480 C   0  0  0  0  0  0  0  0  0  0  0  0
  148.8000  156.5160  132.6170 C   0  0  0  0  0  0  0  0  0  0  0  0
  148.0190  155.5120  133.1870 C   0  0  0  0  0  0  0  0  0  0  0  0
  148.4740  154.1150  133.3430 C   0  0  0  0  0  0  0  0  0  0  0  0
  148.1050  153.3730  134.5040 N   0  0  0  0  0  0  0  0  0  0  0  0
  149.1520  153.5530  132.4430 O   0  0  0  0  0  0  0  0  0  0  0  0
  146.8420  156.0260  133.6460 N   0  0  0  0  0  0  0  0  0  0  0  0
  145.7370  155.3190  134.2300 C   0  0  0  0  0  0  0  0  0  0  0  0
  145.0000  155.8970  135.0710 O   0  0  0  0  0  0  0  0  0  0  0  0
  145.5150  153.9790  133.8760 O   0  0  0  0  0  0  0  0  0  0  0  0
  144.7530  153.5090  132.7540 C   0  0  0  0  0  0  0  0  0  0  0  0
  144.7110  154.5770  131.6430 C   0  0  0  0  0  0  0  0  0  0  0  0
  143.3280  153.1200  133.1910 C   0  0  0  0  0  0  0  0  0  0  0  0
  145.4680  152.2610  132.2160 C   0  0  0  0  0  0  0  0  0  0  0  0
  146.8870  157.3490  133.3740 C   0  0  0  0  0  0  0  0  0  0  0  0
  145.9040  158.3170  133.6080 C   0  0  0  0  0  0  0  0  0  0  0  0
  141.7250  158.3009  137.0446 H   0  0  0  0  0  0  0  0  0  0  0  0
  141.8989  159.8245  136.1091 H   0  0  0  0  0  0  0  0  0  0  0  0
  140.3330  158.9443  136.1091 H   0  0  0  0  0  0  0  0  0  0  0  0
  142.2379  155.3455  133.2904 H   0  0  0  0  0  0  0  0  0  0  0  0
  143.1711  157.5110  132.0033 H   0  0  0  0  0  0  0  0  0  0  0  0
  142.9279  160.1036  132.4723 H   0  0  0  0  0  0  0  0  0  0  0  0
  141.8925  160.5919  133.8784 H   0  0  0  0  0  0  0  0  0  0  0  0
  143.7672  161.4387  134.7885 H   0  0  0  0  0  0  0  0  0  0  0  0
  144.2535  159.7158  135.0676 H   0  0  0  0  0  0  0  0  0  0  0  0
  145.2610  161.5800  132.9740 H   0  0  0  0  0  0  0  0  0  0  0  0
  147.5948  161.0011  132.2699 H   0  0  0  0  0  0  0  0  0  0  0  0
  149.3079  159.2071  131.8492 H   0  0  0  0  0  0  0  0  0  0  0  0
  149.7947  156.4087  132.1597 H   0  0  0  0  0  0  0  0  0  0  0  0
  147.2130  152.8280  134.5310 H   0  0  0  0  0  0  0  0  0  0  0  0
  144.6716  155.5778  132.0978 H   0  0  0  0  0  0  0  0  0  0  0  0
  145.6131  154.4929  131.0193 H   0  0  0  0  0  0  0  0  0  0  0  0
  143.8182  154.4223  131.0193 H   0  0  0  0  0  0  0  0  0  0  0  0
  143.2726  153.1049  134.2895 H   0  0  0  0  0  0  0  0  0  0  0  0
  142.6104  153.8551  132.7978 H   0  0  0  0  0  0  0  0  0  0  0  0
  143.0834  152.1222  132.7978 H   0  0  0  0  0  0  0  0  0  0  0  0
  145.8193  151.6478  133.0589 H   0  0  0  0  0  0  0  0  0  0  0  0
  144.7691  151.6742  131.6019 H   0  0  0  0  0  0  0  0  0  0  0  0
  146.3277  152.5671  131.6019 H   0  0  0  0  0  0  0  0  0  0  0  0
  144.9570  158.0493  134.0994 H   0  0  0  0  0  0  0  0  0  0  0  0
  1  2  1  0
  2  3  1  0
  3  4  2  0
  4  5  1  0
  5  6  2  0
  6  7  1  0
  7  8  1  0
  8  9  1  0
  9 10  1  0
 10 11  2  0
 11 12  1  0
 12 13  2  0
 13 14  1  0
 14 15  2  0
 15 16  1  0
 16 17  1  0
 16 18  2  0
 15 19  1  0
 19 20  1  0
 20 21  2  0
 20 22  1  0
 22 23  1  0
 23 24  1  0
 23 25  1  0
 23 26  1  0
 19 27  1  0
 27 28  2  0
  6  2  1  0
 28 10  1  0
 27 13  1  0
  1 29  1  0
  1 30  1  0
  1 31  1  0
  4 32  1  0
  5 33  1  0
  7 34  1  0
  7 35  1  0
  8 36  1  0
  8 37  1  0
  9 38  1  0
 11 39  1  0
 12 40  1  0
 14 41  1  0
 17 42  1  0
 24 43  1  0
 24 44  1  0
 24 45  1  0
 25 46  1  0
 25 47  1  0
 25 48  1  0
 26 49  1  0
 26 50  1  0
 26 51  1  0
 28 52  1  0
M  CHG  1  17  -1
M  END
>  <UniqueID>  (28) 
28

>  <SMILES>  (28) 
Cn1nccc1CCNc1ccc2cc(C([NH-])=O)n(C(=O)OC(C)(C)C)c2c1

>  <Energy>  (28) 
112.31433648448595

>  <Genealogy>  (28) 
Cn1nccc1CCNc1ccc2cc(C([NH-])=O)n(C(=O)OC(C)(C)C)c2c1 (protonated)
Cn1nccc1CCNc1ccc2cc(C([NH-])=O)n(C(=O)OC(C)(C)C)c2c1 (3D coordinates assigned)
Cn1nccc1CCNc1ccc2cc(C([NH-])=O)n(C(=O)OC(C)(C)C)c2c1 (optimized conformer: 112.31433648448595 kcal/mol)

>  <smiles>  (28) 
Cn1nccc1CCNc1ccc2cc(C(N)=O)n(C(=O)OC(C)(C)C)c2c1

>  <score_type>  (28) 
oracle

>  <origin>  (28) 
adg

>  <m_score__min__energy>  (28) 
-8.3800000000000008

>  <m_primary>  (28) 
energy

$$$$
28:0
     RDKit          3D

 38 40  0  0  0  0  0  0  0  0999 V2000
  141.7690  155.8580  135.4690 N   0  0  0  0  0  0  0  0  0  0  0  0
  142.2780  155.8190  134.1390 C   0  0  0  0  0  0  0  0  0  0  0  0
  141.5570  155.3510  133.2170 O   0  0  0  0  0  0  0  0  0  0  0  0
  143.6420  156.2980  133.8310 C   0  0  0  0  0  0  0  0  0  0  0  0
  144.7430  155.4570  133.6620 C   0  0  0  0  0  0  0  0  0  0  0  0
  145.8100  156.2970  133.4260 C   0  0  0  0  0  0  0  0  0  0  0  0
  147.1510  156.0050  133.1950 C   0  0  0  0  0  0  0  0  0  0  0  0
  148.0310  157.0800  132.9780 C   0  0  0  0  0  0  0  0  0  0  0  0
  147.5560  158.4180  132.9720 C   0  0  0  0  0  0  0  0  0  0  0  0
  148.5160  159.5650  132.7830 C   0  0  0  0  0  0  0  0  0  0  0  0
  149.6820  159.1340  132.1740 F   0  0  0  0  0  0  0  0  0  0  0  0
  147.9500  160.5480  131.9900 F   0  0  0  0  0  0  0  0  0  0  0  0
  148.8260  160.1060  134.0170 F   0  0  0  0  0  0  0  0  0  0  0  0
  146.1900  158.6730  133.2320 C   0  0  0  0  0  0  0  0  0  0  0  0
  145.3430  157.5840  133.4560 C   0  0  0  0  0  0  0  0  0  0  0  0
  144.0190  157.6000  133.7080 N   0  0  0  0  0  0  0  0  0  0  0  0
  143.1890  158.7650  133.7770 C   0  0  0  0  0  0  0  0  0  0  0  0
  143.6440  159.8730  133.3840 O   0  0  0  0  0  0  0  0  0  0  0  0
  141.8490  158.6770  134.2840 N   0  0  0  0  0  0  0  0  0  0  0  0
  140.6790  158.5750  133.4300 C   0  0  0  0  0  0  0  0  0  0  0  0
  139.5210  158.2180  134.3610 C   0  0  1  0  0  0  0  0  0  0  0  0
  139.2750  156.8350  134.2850 O   0  0  0  0  0  0  0  0  0  0  0  0
  140.0050  158.6120  135.7660 C   0  0  1  0  0  0  0  0  0  0  0  0
  139.5130  157.7400  136.7500 O   0  0  0  0  0  0  0  0  0  0  0  0
  141.5290  158.5720  135.6960 C   0  0  0  0  0  0  0  0  0  0  0  0
  140.8620  156.3290  135.6840 H   0  0  0  0  0  0  0  0  0  0  0  0
  144.7563  154.3580  133.7075 H   0  0  0  0  0  0  0  0  0  0  0  0
  147.5112  154.9657  133.1826 H   0  0  0  0  0  0  0  0  0  0  0  0
  149.1001  156.8820  132.8109 H   0  0  0  0  0  0  0  0  0  0  0  0
  145.8035  159.7025  133.2574 H   0  0  0  0  0  0  0  0  0  0  0  0
  140.4858  159.5341  132.9271 H   0  0  0  0  0  0  0  0  0  0  0  0
  140.8150  157.8202  132.6415 H   0  0  0  0  0  0  0  0  0  0  0  0
  138.5845  158.7325  134.0995 H   0  0  0  0  0  0  0  0  0  0  0  0
  140.1250  156.3800  134.5270 H   0  0  0  0  0  0  0  0  0  0  0  0
  139.6374  159.6087  136.0515 H   0  0  0  0  0  0  0  0  0  0  0  0
  139.7430  156.8210  136.4520 H   0  0  0  0  0  0  0  0  0  0  0  0
  141.9628  159.4153  136.2534 H   0  0  0  0  0  0  0  0  0  0  0  0
  141.9367  157.6530  136.1423 H   0  0  0  0  0  0  0  0  0  0  0  0
  1  2  1  0
  2  3  2  0
  2  4  1  0
  4  5  2  0
  5  6  1  0
  6  7  2  0
  7  8  1  0
  8  9  2  0
  9 10  1  0
 10 11  1  0
 10 12  1  0
 10 13  1  0
  9 14  1  0
 14 15  2  0
 15 16  1  0
 16 17  1  0
 17 18  2  0
 17 19  1  0
 19 20  1  0
 20 21  1  0
 21 22  1  0
 21 23  1  0
 23 24  1  0
 23 25  1  0
 16  4  1  0
 25 19  1  0
 15  6  1  0
  1 26  1  0
  5 27  1  0
  7 28  1  0
  8 29  1  0
 14 30  1  0
 20 31  1  0
 20 32  1  0
 21 33  1  6
 22 34  1  0
 23 35  1  1
 24 36  1  0
 25 37  1  0
 25 38  1  0
M  CHG  1   1  -1
M  END
>  <UniqueID>  (29) 
29

>  <SMILES>  (29) 
[NH-]C(=O)c1cc2ccc(C(F)(F)F)cc2n1C(=O)N1C[C@@H](O)[C@@H](O)C1

>  <Energy>  (29) 
80.44511045339422

>  <Genealogy>  (29) 
[NH-]C(=O)c1cc2ccc(C(F)(F)F)cc2n1C(=O)N1C[C@@H](O)[C@@H](O)C1 (protonated)
[NH-]C(=O)c1cc2ccc(C(F)(F)F)cc2n1C(=O)N1C[C@@H](O)[C@@H](O)C1 (3D coordinates assigned)
[NH-]C(=O)c1cc2ccc(C(F)(F)F)cc2n1C(=O)N1C[C@@H](O)[C@@H](O)C1 (nonaromatic ring conformer: 80.44511045339422 kcal/mol)

>  <smiles>  (29) 
NC(=O)c1cc2ccc(C(F)(F)F)cc2n1C(=O)N1C[C@@H](O)[C@@H](O)C1

>  <score_type>  (29) 
oracle

>  <origin>  (29) 
adg

>  <m_score__min__energy>  (29) 
-6.6900000000000004

>  <m_primary>  (29) 
energy

$$$$
29:0
     RDKit          3D

 56 57  0  0  0  0  0  0  0  0999 V2000
  146.8760  152.2750  132.5690 C   0  0  0  0  0  0  0  0  0  0  0  0
  148.2630  152.7400  133.0360 C   0  0  0  0  0  0  0  0  0  0  0  0
  149.3090  152.4630  131.9410 C   0  0  0  0  0  0  0  0  0  0  0  0
  148.2320  154.2240  133.5140 C   0  0  1  0  0  0  0  0  0  0  0  0
  147.7140  155.1210  132.4710 N   0  0  0  0  0  0  0  0  0  0  0  0
  147.4590  154.4040  134.7970 C   0  0  0  0  0  0  0  0  0  0  0  0
  147.4920  153.5030  135.6800 O   0  0  0  0  0  0  0  0  0  0  0  0
  146.6850  155.5530  134.9850 O   0  0  0  0  0  0  0  0  0  0  0  0
  145.3100  155.6230  134.6290 C   0  0  0  0  0  0  0  0  0  0  0  0
  145.1840  156.3860  133.3510 C   0  0  0  0  0  0  0  0  0  0  0  0
  145.1910  155.7690  132.2530 O   0  0  0  0  0  0  0  0  0  0  0  0
  144.9830  157.8050  133.3720 N   0  0  0  0  0  0  0  0  0  0  0  0
  145.9200  158.7820  133.2150 C   0  0  0  0  0  0  0  0  0  0  0  0
  147.3510  158.5690  132.9090 C   0  0  0  0  0  0  0  0  0  0  0  0
  147.7670  157.5300  132.0270 N   0  0  0  0  0  0  0  0  0  0  0  0
  148.2190  159.3280  133.4190 O   0  0  0  0  0  0  0  0  0  0  0  0
  145.3300  160.0390  133.3320 C   0  0  0  0  0  0  0  0  0  0  0  0
  143.9940  159.7960  133.5610 C   0  0  0  0  0  0  0  0  0  0  0  0
  142.9440  160.6830  133.7650 C   0  0  0  0  0  0  0  0  0  0  0  0
  141.6670  160.1480  133.9990 C   0  0  0  0  0  0  0  0  0  0  0  0
  141.4520  158.7420  134.0230 C   0  0  0  0  0  0  0  0  0  0  0  0
  140.1190  158.2420  134.2580 N   0  0  0  0  0  0  0  0  0  0  0  0
  139.4940  158.5900  135.4050 F   0  0  0  0  0  0  0  0  0  0  0  0
  139.3140  157.5210  133.2680 C   0  0  0  0  0  0  0  0  0  0  0  0
  138.2940  158.4480  132.5970 C   0  0  0  0  0  0  0  0  0  0  0  0
  139.0480  159.6370  131.4890 S   0  0  0  0  0  0  0  0  0  0  0  0
  137.9410  160.0860  130.1660 C   0  0  0  0  0  0  0  0  0  0  0  0
  139.4510  160.8710  132.2470 O   0  0  0  0  0  0  0  0  0  0  0  0
  140.2780  159.0130  130.8920 O   0  0  0  0  0  0  0  0  0  0  0  0
  142.5580  157.8760  133.8280 C   0  0  0  0  0  0  0  0  0  0  0  0
  143.8120  158.4400  133.5820 C   0  0  0  0  0  0  0  0  0  0  0  0
  146.2458  152.0637  133.4455 H   0  0  0  0  0  0  0  0  0  0  0  0
  146.4088  153.0656  131.9635 H   0  0  0  0  0  0  0  0  0  0  0  0
  146.9798  151.3625  131.9635 H   0  0  0  0  0  0  0  0  0  0  0  0
  148.5661  152.1566  133.9179 H   0  0  0  0  0  0  0  0  0  0  0  0
  150.2712  152.2082  132.4092 H   0  0  0  0  0  0  0  0  0  0  0  0
  148.9717  151.6232  131.3157 H   0  0  0  0  0  0  0  0  0  0  0  0
  149.4315  153.3597  131.3157 H   0  0  0  0  0  0  0  0  0  0  0  0
  149.2772  154.4988  133.7189 H   0  0  0  0  0  0  0  0  0  0  0  0
  147.0200  154.6350  131.8590 H   0  0  0  0  0  0  0  0  0  0  0  0
  148.5040  155.4800  131.8820 H   0  0  0  0  0  0  0  0  0  0  0  0
  147.2450  155.9420  132.9200 H   0  0  0  0  0  0  0  0  0  0  0  0
  144.9104  154.6070  134.4944 H   0  0  0  0  0  0  0  0  0  0  0  0
  144.7423  156.1281  135.4244 H   0  0  0  0  0  0  0  0  0  0  0  0
  147.0790  156.8560  131.6250 H   0  0  0  0  0  0  0  0  0  0  0  0
  145.8263  161.0179  133.2573 H   0  0  0  0  0  0  0  0  0  0  0  0
  143.1081  161.7705  133.7438 H   0  0  0  0  0  0  0  0  0  0  0  0
  140.8185  160.8276  134.1666 H   0  0  0  0  0  0  0  0  0  0  0  0
  139.9808  157.1052  132.4983 H   0  0  0  0  0  0  0  0  0  0  0  0
  138.7666  156.7184  133.7839 H   0  0  0  0  0  0  0  0  0  0  0  0
  137.5869  157.8325  132.0215 H   0  0  0  0  0  0  0  0  0  0  0  0
  137.7916  159.0152  133.3945 H   0  0  0  0  0  0  0  0  0  0  0  0
  137.0000  160.4677  130.5889 H   0  0  0  0  0  0  0  0  0  0  0  0
  138.4075  160.8660  129.5463 H   0  0  0  0  0  0  0  0  0  0  0  0
  137.7323  159.2014  129.5463 H   0  0  0  0  0  0  0  0  0  0  0  0
  142.4311  156.7841  133.8696 H   0  0  0  0  0  0  0  0  0  0  0  0
  1  2  1  0
  2  3  1  0
  2  4  1  0
  4  5  1  0
  4  6  1  0
  6  7  2  0
  6  8  1  0
  8  9  1  0
  9 10  1  0
 10 11  2  0
 10 12  1  0
 12 13  1  0
 13 14  1  0
 14 15  1  0
 14 16  2  0
 13 17  2  0
 17 18  1  0
 18 19  2  0
 19 20  1  0
 20 21  2  0
 21 22  1  0
 22 23  1  0
 22 24  1  0
 24 25  1  0
 25 26  1  0
 26 27  1  0
 26 28  2  0
 26 29  2  0
 21 30  1  0
 30 31  2  0
 31 12  1  0
 31 18  1  0
  1 32  1  0
  1 33  1  0
  1 34  1  0
  2 35  1  0
  3 36  1  0
  3 37  1  0
  3 38  1  0
  4 39  1  1
  5 40  1  0
  5 41  1  0
  5 42  1  0
  9 43  1  0
  9 44  1  0
 15 45  1  0
 17 46  1  0
 19 47  1  0
 20 48  1  0
 24 49  1  0
 24 50  1  0
 25 51  1  0
 25 52  1  0
 27 53  1  0
 27 54  1  0
 27 55  1  0
 30 56  1  0
M  CHG  2   5   1  15  -1
M  END
>  <UniqueID>  (30) 
30

>  <SMILES>  (30) 
CC(C)[C@@H]([NH3+])C(=O)OCC(=O)n1c(C([NH-])=O)cc2ccc(N(F)CCS(C)(=O)=O)cc21

>  <Energy>  (30) 
80.75375260248822

>  <Genealogy>  (30) 
CC(C)C([NH3+])C(=O)OCC(=O)n1c(C([NH-])=O)cc2ccc(N(F)CCS(C)(=O)=O)cc21 (protonated)
CC(C)[C@@H]([NH3+])C(=O)OCC(=O)n1c(C([NH-])=O)cc2ccc(N(F)CCS(C)(=O)=O)cc21 (chirality)
CC(C)[C@@H]([NH3+])C(=O)OCC(=O)n1c(C([NH-])=O)cc2ccc(N(F)CCS(C)(=O)=O)cc21 (3D coordinates assigned)
CC(C)[C@@H]([NH3+])C(=O)OCC(=O)n1c(C([NH-])=O)cc2ccc(N(F)CCS(C)(=O)=O)cc21 (optimized conformer: 80.75375260248822 kcal/mol)

>  <smiles>  (30) 
CC(C)C(N)C(=O)OCC(=O)n1c(C(N)=O)cc2ccc(N(F)CCS(C)(=O)=O)cc21

>  <score_type>  (30) 
oracle

>  <origin>  (30) 
adg

>  <m_score__min__energy>  (30) 
-8.0800000000000001

>  <m_primary>  (30) 
energy

$$$$
30:0
     RDKit          3D

 40 41  0  0  0  0  0  0  0  0999 V2000
  149.6220  158.2880  131.8670 C   0  0  0  0  0  0  0  0  0  0  0  0
  148.4730  157.7680  132.6180 N   0  0  0  0  0  0  0  0  0  0  0  0
  148.4450  156.3450  132.9780 C   0  0  0  0  0  0  0  0  0  0  0  0
  147.3840  158.6470  133.0000 C   0  0  0  0  0  0  0  0  0  0  0  0
  147.6310  160.0100  133.3300 C   0  0  0  0  0  0  0  0  0  0  0  0
  146.5820  160.8690  133.6960 C   0  0  0  0  0  0  0  0  0  0  0  0
  145.2920  160.3510  133.7250 C   0  0  0  0  0  0  0  0  0  0  0  0
  144.0980  160.9630  134.0290 C   0  0  0  0  0  0  0  0  0  0  0  0
  143.1310  159.9700  133.8930 C   0  0  0  0  0  0  0  0  0  0  0  0
  141.7070  160.1710  134.2250 C   0  0  0  0  0  0  0  0  0  0  0  0
  141.0680  159.3660  135.2110 N   0  0  0  0  0  0  0  0  0  0  0  0
  141.0580  161.0950  133.6650 O   0  0  0  0  0  0  0  0  0  0  0  0
  143.7030  158.7950  133.5070 N   0  0  0  0  0  0  0  0  0  0  0  0
  143.0490  157.5690  133.1330 C   0  0  0  0  0  0  0  0  0  0  0  0
  143.2190  157.1120  131.9690 O   0  0  0  0  0  0  0  0  0  0  0  0
  142.1040  156.9430  134.0370 N   0  0  2  0  0  0  0  0  0  0  0  0
  142.7400  156.5300  135.3040 C   0  0  0  0  0  0  0  0  0  0  0  0
  141.3880  155.8290  133.3730 C   0  0  0  0  0  0  0  0  0  0  0  0
  139.8900  155.9890  133.3640 C   0  0  0  0  0  0  0  0  0  0  0  0
  139.1560  155.0480  132.9640 O   0  0  0  0  0  0  0  0  0  0  0  0
  139.3100  157.1740  133.7950 O   0  0  0  0  0  0  0  0  0  0  0  0
  145.0270  159.0450  133.4180 C   0  0  0  0  0  0  0  0  0  0  0  0
  146.0490  158.1660  133.0480 C   0  0  0  0  0  0  0  0  0  0  0  0
  150.3924  158.6367  132.5705 H   0  0  0  0  0  0  0  0  0  0  0  0
  150.0376  157.4903  131.2339 H   0  0  0  0  0  0  0  0  0  0  0  0
  149.2970  159.1268  131.2339 H   0  0  0  0  0  0  0  0  0  0  0  0
  148.4430  156.2439  134.0733 H   0  0  0  0  0  0  0  0  0  0  0  0
  147.5375  155.8801  132.5652 H   0  0  0  0  0  0  0  0  0  0  0  0
  149.3335  155.8448  132.5652 H   0  0  0  0  0  0  0  0  0  0  0  0
  148.6604  160.3964  133.2977 H   0  0  0  0  0  0  0  0  0  0  0  0
  146.7753  161.9211  133.9523 H   0  0  0  0  0  0  0  0  0  0  0  0
  143.9407  162.0127  134.3179 H   0  0  0  0  0  0  0  0  0  0  0  0
  140.5940  158.4740  134.9520 H   0  0  0  0  0  0  0  0  0  0  0  0
  141.3770  157.6530  134.2860 H   0  0  0  0  0  0  0  0  0  0  0  0
  142.1516  156.9121  136.1512 H   0  0  0  0  0  0  0  0  0  0  0  0
  142.7820  155.4319  135.3523 H   0  0  0  0  0  0  0  0  0  0  0  0
  143.7602  156.9384  135.3523 H   0  0  0  0  0  0  0  0  0  0  0  0
  141.7362  155.7647  132.3316 H   0  0  0  0  0  0  0  0  0  0  0  0
  141.6095  154.9177  133.9479 H   0  0  0  0  0  0  0  0  0  0  0  0
  145.8227  157.1189  132.7982 H   0  0  0  0  0  0  0  0  0  0  0  0
  1  2  1  0
  2  3  1  0
  2  4  1  0
  4  5  2  0
  5  6  1  0
  6  7  2  0
  7  8  1  0
  8  9  2  0
  9 10  1  0
 10 11  1  0
 10 12  2  0
  9 13  1  0
 13 14  1  0
 14 15  2  0
 14 16  1  0
 16 17  1  0
 16 18  1  0
 18 19  1  0
 19 20  2  0
 19 21  1  0
 13 22  1  0
 22 23  2  0
 23  4  1  0
 22  7  1  0
  1 24  1  0
  1 25  1  0
  1 26  1  0
  3 27  1  0
  3 28  1  0
  3 29  1  0
  5 30  1  0
  6 31  1  0
  8 32  1  0
 11 33  1  0
 16 34  1  1
 17 35  1  0
 17 36  1  0
 17 37  1  0
 18 38  1  0
 18 39  1  0
 23 40  1  0
M  CHG  3  11  -1  16   1  21  -1
M  END
>  <UniqueID>  (31) 
31

>  <SMILES>  (31) 
CN(C)c1ccc2cc(C([NH-])=O)n(C(=O)[N@H+](C)CC(=O)[O-])c2c1

>  <Energy>  (31) 
84.88718366673847

>  <Genealogy>  (31) 
CN(C)c1ccc2cc(C([NH-])=O)n(C(=O)[NH+](C)CC(=O)[O-])c2c1 (protonated)
CN(C)c1ccc2cc(C([NH-])=O)n(C(=O)[N@H+](C)CC(=O)[O-])c2c1 (chirality)
CN(C)c1ccc2cc(C([NH-])=O)n(C(=O)[N@H+](C)CC(=O)[O-])c2c1 (3D coordinates assigned)
CN(C)c1ccc2cc(C([NH-])=O)n(C(=O)[N@H+](C)CC(=O)[O-])c2c1 (optimized conformer: 84.88718366673847 kcal/mol)

>  <smiles>  (31) 
CN(CC(=O)O)C(=O)n1c(C(N)=O)cc2ccc(N(C)C)cc21

>  <score_type>  (31) 
oracle

>  <origin>  (31) 
adg

>  <m_score__min__energy>  (31) 
-5.7300000000000004

>  <m_primary>  (31) 
energy

$$$$
31:0
     RDKit          3D

 40 41  0  0  0  0  0  0  0  0999 V2000
  149.2760  162.1040  130.3630 C   0  0  0  0  0  0  0  0  0  0  0  0
  149.0820  160.7660  131.0110 C   0  0  0  0  0  0  0  0  0  0  0  0
  150.0760  159.7650  130.8820 C   0  0  0  0  0  0  0  0  0  0  0  0
  149.9260  158.5210  131.5180 C   0  0  0  0  0  0  0  0  0  0  0  0
  148.7770  158.3100  132.2740 C   0  0  0  0  0  0  0  0  0  0  0  0
  148.3900  157.2100  133.0030 C   0  0  0  0  0  0  0  0  0  0  0  0
  147.1600  157.5490  133.5610 C   0  0  0  0  0  0  0  0  0  0  0  0
  146.3400  156.6030  134.3470 C   0  0  0  0  0  0  0  0  0  0  0  0
  145.0670  156.1900  133.8550 N   0  0  0  0  0  0  0  0  0  0  0  0
  146.7330  156.1840  135.4680 O   0  0  0  0  0  0  0  0  0  0  0  0
  146.8050  158.8170  133.2040 N   0  0  0  0  0  0  0  0  0  0  0  0
  145.6430  159.5590  133.6110 C   0  0  0  0  0  0  0  0  0  0  0  0
  145.7160  160.8060  133.7880 O   0  0  0  0  0  0  0  0  0  0  0  0
  144.4240  158.8980  133.7750 O   0  0  0  0  0  0  0  0  0  0  0  0
  143.1670  159.4930  133.4820 C   0  0  0  0  0  0  0  0  0  0  0  0
  142.2170  158.4210  133.0410 C   0  0  0  0  0  0  0  0  0  0  0  0
  142.6600  157.4730  132.3350 O   0  0  0  0  0  0  0  0  0  0  0  0
  140.8330  158.4230  133.4540 N   0  0  0  0  0  0  0  0  0  0  0  0
  140.4790  158.5830  134.8700 C   0  0  0  0  0  0  0  0  0  0  0  0
  139.7740  158.2610  132.4470 C   0  0  0  0  0  0  0  0  0  0  0  0
  139.6150  159.5250  131.6590 C   0  0  0  0  0  0  0  0  0  0  0  0
  139.3520  159.4760  130.4280 O   0  0  0  0  0  0  0  0  0  0  0  0
  139.7920  160.7570  132.2780 O   0  0  0  0  0  0  0  0  0  0  0  0
  147.8040  159.2670  132.4110 C   0  0  0  0  0  0  0  0  0  0  0  0
  147.9400  160.5240  131.8040 C   0  0  0  0  0  0  0  0  0  0  0  0
  149.3878  162.8748  131.1398 H   0  0  0  0  0  0  0  0  0  0  0  0
  150.1801  162.0806  129.7369 H   0  0  0  0  0  0  0  0  0  0  0  0
  148.4024  162.3383  129.7369 H   0  0  0  0  0  0  0  0  0  0  0  0
  150.9738  159.9634  130.2782 H   0  0  0  0  0  0  0  0  0  0  0  0
  150.6929  157.7384  131.4213 H   0  0  0  0  0  0  0  0  0  0  0  0
  148.9365  156.2626  133.1205 H   0  0  0  0  0  0  0  0  0  0  0  0
  144.4940  156.8210  133.2510 H   0  0  0  0  0  0  0  0  0  0  0  0
  142.7736  159.9884  134.3819 H   0  0  0  0  0  0  0  0  0  0  0  0
  143.2841  160.2406  132.6836 H   0  0  0  0  0  0  0  0  0  0  0  0
  141.3020  158.2110  135.4980 H   0  0  0  0  0  0  0  0  0  0  0  0
  140.3048  159.6473  135.0864 H   0  0  0  0  0  0  0  0  0  0  0  0
  139.5650  158.0105  135.0864 H   0  0  0  0  0  0  0  0  0  0  0  0
  140.0417  157.4393  131.7665 H   0  0  0  0  0  0  0  0  0  0  0  0
  138.8258  158.0321  132.9555 H   0  0  0  0  0  0  0  0  0  0  0  0
  147.1751  161.3023  131.9427 H   0  0  0  0  0  0  0  0  0  0  0  0
  1  2  1  0
  2  3  2  0
  3  4  1  0
  4  5  2  0
  5  6  1  0
  6  7  2  0
  7  8  1  0
  8  9  1  0
  8 10  2  0
  7 11  1  0
 11 12  1  0
 12 13  2  0
 12 14  1  0
 14 15  1  0
 15 16  1  0
 16 17  2  0
 16 18  1  0
 18 19  1  0
 18 20  1  0
 20 21  1  0
 21 22  2  0
 21 23  1  0
 11 24  1  0
 24 25  2  0
 25  2  1  0
 24  5  1  0
  1 26  1  0
  1 27  1  0
  1 28  1  0
  3 29  1  0
  4 30  1  0
  6 31  1  0
  9 32  1  0
 15 33  1  0
 15 34  1  0
 19 35  1  0
 19 36  1  0
 19 37  1  0
 20 38  1  0
 20 39  1  0
 25 40  1  0
M  CHG  2   9  -1  23  -1
M  END
>  <UniqueID>  (32) 
32

>  <SMILES>  (32) 
Cc1ccc2cc(C([NH-])=O)n(C(=O)OCC(=O)N(C)CC(=O)[O-])c2c1

>  <Energy>  (32) 
71.99189733380327

>  <Genealogy>  (32) 
Cc1ccc2cc(C([NH-])=O)n(C(=O)OCC(=O)N(C)CC(=O)[O-])c2c1 (protonated)
Cc1ccc2cc(C([NH-])=O)n(C(=O)OCC(=O)N(C)CC(=O)[O-])c2c1 (3D coordinates assigned)
Cc1ccc2cc(C([NH-])=O)n(C(=O)OCC(=O)N(C)CC(=O)[O-])c2c1 (optimized conformer: 71.99189733380327 kcal/mol)

>  <smiles>  (32) 
Cc1ccc2cc(C(N)=O)n(C(=O)OCC(=O)N(C)CC(=O)O)c2c1

>  <score_type>  (32) 
oracle

>  <origin>  (32) 
adg

>  <m_score__min__energy>  (32) 
-6.7400000000000002

>  <m_primary>  (32) 
energy

$$$$
32:0
     RDKit          3D

 34 36  0  0  0  0  0  0  0  0999 V2000
  139.7470  159.3320  131.2270 C   0  0  0  0  0  0  0  0  0  0  0  0
  139.5470  158.7860  132.6050 C   0  0  0  0  0  0  0  0  0  0  0  0
  138.4000  158.2120  133.0160 N   0  0  0  0  0  0  0  0  0  0  0  0
  138.5720  157.8550  134.2550 O   0  0  0  0  0  0  0  0  0  0  0  0
  139.7780  158.1600  134.6760 C   0  0  0  0  0  0  0  0  0  0  0  0
  140.2750  157.8740  136.0570 C   0  0  0  0  0  0  0  0  0  0  0  0
  140.4660  158.7730  133.6420 C   0  0  0  0  0  0  0  0  0  0  0  0
  141.8510  159.2900  133.6460 C   0  0  0  0  0  0  0  0  0  0  0  0
  142.0920  160.6840  133.7270 C   0  0  0  0  0  0  0  0  0  0  0  0
  143.4040  161.1850  133.7340 C   0  0  0  0  0  0  0  0  0  0  0  0
  144.4520  160.2730  133.6560 C   0  0  0  0  0  0  0  0  0  0  0  0
  145.8110  160.4840  133.6530 C   0  0  0  0  0  0  0  0  0  0  0  0
  146.3820  159.2160  133.5540 C   0  0  0  0  0  0  0  0  0  0  0  0
  147.8350  158.9850  133.4130 C   0  0  0  0  0  0  0  0  0  0  0  0
  148.4910  157.9830  134.1940 N   0  0  0  0  0  0  0  0  0  0  0  0
  148.5180  159.7010  132.6350 O   0  0  0  0  0  0  0  0  0  0  0  0
  145.4110  158.2580  133.5080 N   0  0  0  0  0  0  0  0  0  0  0  0
  145.5650  156.8280  133.4830 C   0  0  0  0  0  0  0  0  0  0  0  0
  146.1620  156.2230  134.4120 O   0  0  0  0  0  0  0  0  0  0  0  0
  144.2380  158.9230  133.5640 C   0  0  0  0  0  0  0  0  0  0  0  0
  142.9410  158.3950  133.5660 C   0  0  0  0  0  0  0  0  0  0  0  0
  140.1247  160.3631  131.2924 H   0  0  0  0  0  0  0  0  0  0  0  0
  140.4751  158.7083  130.6876 H   0  0  0  0  0  0  0  0  0  0  0  0
  138.7884  159.3262  130.6876 H   0  0  0  0  0  0  0  0  0  0  0  0
  139.5667  158.2816  136.7933 H   0  0  0  0  0  0  0  0  0  0  0  0
  140.3640  156.7865  136.1968 H   0  0  0  0  0  0  0  0  0  0  0  0
  141.2599  158.3434  136.1968 H   0  0  0  0  0  0  0  0  0  0  0  0
  141.2428  161.3808  133.7850 H   0  0  0  0  0  0  0  0  0  0  0  0
  143.5973  162.2659  133.7992 H   0  0  0  0  0  0  0  0  0  0  0  0
  146.3361  161.4486  133.7155 H   0  0  0  0  0  0  0  0  0  0  0  0
  147.9500  157.3460  134.8190 H   0  0  0  0  0  0  0  0  0  0  0  0
  149.5240  157.8530  134.1190 H   0  0  0  0  0  0  0  0  0  0  0  0
  145.1548  156.2540  132.6391 H   0  0  0  0  0  0  0  0  0  0  0  0
  142.7749  157.3092  133.5067 H   0  0  0  0  0  0  0  0  0  0  0  0
  1  2  1  0
  2  3  2  0
  3  4  1  0
  4  5  1  0
  5  6  1  0
  5  7  2  0
  7  8  1  0
  8  9  2  0
  9 10  1  0
 10 11  2  0
 11 12  1  0
 12 13  2  0
 13 14  1  0
 14 15  1  0
 14 16  2  0
 13 17  1  0
 17 18  1  0
 18 19  2  0
 17 20  1  0
 20 21  2  0
  7  2  1  0
 21  8  1  0
 20 11  1  0
  1 22  1  0
  1 23  1  0
  1 24  1  0
  6 25  1  0
  6 26  1  0
  6 27  1  0
  9 28  1  0
 10 29  1  0
 12 30  1  0
 15 31  1  0
 15 32  1  0
 18 33  1  0
 21 34  1  0
M  END
>  <UniqueID>  (33) 
33

>  <SMILES>  (33) 
Cc1noc(C)c1-c1ccc2cc(C(N)=O)n(C=O)c2c1

>  <Energy>  (33) 
107.61657547845653

>  <Genealogy>  (33) 
Cc1noc(C)c1-c1ccc2cc(C(N)=O)n(C=O)c2c1 (3D coordinates assigned)
Cc1noc(C)c1-c1ccc2cc(C(N)=O)n(C=O)c2c1 (optimized conformer: 107.61657547845653 kcal/mol)

>  <smiles>  (33) 
Cc1noc(C)c1-c1ccc2cc(C(N)=O)n(C=O)c2c1

>  <score_type>  (33) 
oracle

>  <origin>  (33) 
adg

>  <m_score__min__energy>  (33) 
-7.5800000000000001

>  <m_primary>  (33) 
energy

$$$$
33:0
     RDKit          3D

 37 38  0  0  0  0  0  0  0  0999 V2000
  143.3660  161.6310  133.6940 N   0  0  0  0  0  0  0  0  0  0  0  0
  144.7230  161.5180  134.1100 C   0  0  0  0  0  0  0  0  0  0  0  0
  145.2070  162.3880  134.8820 O   0  0  0  0  0  0  0  0  0  0  0  0
  145.5530  160.3660  133.6960 C   0  0  0  0  0  0  0  0  0  0  0  0
  146.8980  160.4750  133.3530 C   0  0  0  0  0  0  0  0  0  0  0  0
  147.3200  159.1860  133.1210 C   0  0  0  0  0  0  0  0  0  0  0  0
  148.5690  158.7100  132.7340 C   0  0  0  0  0  0  0  0  0  0  0  0
  148.7150  157.3280  132.5350 C   0  0  0  0  0  0  0  0  0  0  0  0
  147.6160  156.4460  132.7200 C   0  0  0  0  0  0  0  0  0  0  0  0
  147.7360  155.0260  132.5080 N   0  0  0  0  0  0  0  0  0  0  0  0
  147.8730  154.0300  133.5740 C   0  0  0  0  0  0  0  0  0  0  0  0
  146.7520  154.1650  134.6110 C   0  0  0  0  0  0  0  0  0  0  0  0
  147.2850  154.0280  136.0040 C   0  0  0  0  0  0  0  0  0  0  0  0
  146.9500  153.0450  136.7160 O   0  0  0  0  0  0  0  0  0  0  0  0
  148.1140  155.0090  136.5310 O   0  0  0  0  0  0  0  0  0  0  0  0
  146.3630  156.9730  133.1080 C   0  0  0  0  0  0  0  0  0  0  0  0
  146.2510  158.3520  133.3180 C   0  0  0  0  0  0  0  0  0  0  0  0
  145.1550  159.0620  133.6690 N   0  0  0  0  0  0  0  0  0  0  0  0
  143.8290  158.5450  133.8640 C   0  0  0  0  0  0  0  0  0  0  0  0
  143.6020  157.7510  134.8170 O   0  0  0  0  0  0  0  0  0  0  0  0
  142.8090  158.9140  132.9770 O   0  0  0  0  0  0  0  0  0  0  0  0
  141.4820  159.1800  133.3410 C   0  0  0  0  0  0  0  0  0  0  0  0
  141.2110  159.9230  134.3230 O   0  0  0  0  0  0  0  0  0  0  0  0
  140.3730  158.6270  132.5080 C   0  0  0  0  0  0  0  0  0  0  0  0
  140.3800  157.2470  132.5930 F   0  0  0  0  0  0  0  0  0  0  0  0
  140.5380  159.0030  131.1870 F   0  0  0  0  0  0  0  0  0  0  0  0
  139.1570  159.1040  132.9630 F   0  0  0  0  0  0  0  0  0  0  0  0
  142.8700  160.8250  133.2550 H   0  0  0  0  0  0  0  0  0  0  0  0
  147.4960  161.3956  133.2825 H   0  0  0  0  0  0  0  0  0  0  0  0
  149.4165  159.3960  132.5884 H   0  0  0  0  0  0  0  0  0  0  0  0
  149.6918  156.9229  132.2322 H   0  0  0  0  0  0  0  0  0  0  0  0
  147.7140  154.6680  131.5260 H   0  0  0  0  0  0  0  0  0  0  0  0
  147.8323  153.0238  133.1314 H   0  0  0  0  0  0  0  0  0  0  0  0
  148.8356  154.1942  134.0804 H   0  0  0  0  0  0  0  0  0  0  0  0
  146.2798  155.1526  134.5028 H   0  0  0  0  0  0  0  0  0  0  0  0
  146.0183  153.3639  134.4379 H   0  0  0  0  0  0  0  0  0  0  0  0
  145.4937  156.3125  133.2421 H   0  0  0  0  0  0  0  0  0  0  0  0
  1  2  1  0
  2  3  2  0
  2  4  1  0
  4  5  2  0
  5  6  1  0
  6  7  2  0
  7  8  1  0
  8  9  2  0
  9 10  1  0
 10 11  1  0
 11 12  1  0
 12 13  1  0
 13 14  2  0
 13 15  1  0
  9 16  1  0
 16 17  2  0
 17 18  1  0
 18 19  1  0
 19 20  2  0
 19 21  1  0
 21 22  1  0
 22 23  2  0
 22 24  1  0
 24 25  1  0
 24 26  1  0
 24 27  1  0
 18  4  1  0
 17  6  1  0
  1 28  1  0
  5 29  1  0
  7 30  1  0
  8 31  1  0
 10 32  1  0
 11 33  1  0
 11 34  1  0
 12 35  1  0
 12 36  1  0
 16 37  1  0
M  CHG  2   1  -1  15  -1
M  END
>  <UniqueID>  (34) 
34

>  <SMILES>  (34) 
[NH-]C(=O)c1cc2ccc(NCCC(=O)[O-])cc2n1C(=O)OC(=O)C(F)(F)F

>  <Energy>  (34) 
72.93890044535132

>  <Genealogy>  (34) 
[NH-]C(=O)c1cc2ccc(NCCC(=O)[O-])cc2n1C(=O)OC(=O)C(F)(F)F (protonated)
[NH-]C(=O)c1cc2ccc(NCCC(=O)[O-])cc2n1C(=O)OC(=O)C(F)(F)F (3D coordinates assigned)
[NH-]C(=O)c1cc2ccc(NCCC(=O)[O-])cc2n1C(=O)OC(=O)C(F)(F)F (optimized conformer: 72.93890044535132 kcal/mol)

>  <smiles>  (34) 
NC(=O)c1cc2ccc(NCCC(=O)O)cc2n1C(=O)OC(=O)C(F)(F)F

>  <score_type>  (34) 
oracle

>  <origin>  (34) 
adg

>  <m_score__min__energy>  (34) 
-6.96

>  <m_primary>  (34) 
energy

$$$$
34:0
     RDKit          3D

 32 33  0  0  0  0  0  0  0  0999 V2000
  145.9950  162.0450  134.2570 N   0  0  0  0  0  0  0  0  0  0  0  0
  145.0290  161.1130  133.7750 C   0  0  0  0  0  0  0  0  0  0  0  0
  143.8720  161.5190  133.4890 O   0  0  0  0  0  0  0  0  0  0  0  0
  145.3850  159.6840  133.6490 C   0  0  0  0  0  0  0  0  0  0  0  0
  144.4490  158.6530  133.6820 C   0  0  0  0  0  0  0  0  0  0  0  0
  145.1690  157.4990  133.4770 C   0  0  0  0  0  0  0  0  0  0  0  0
  144.7440  156.1750  133.4450 C   0  0  0  0  0  0  0  0  0  0  0  0
  145.7140  155.1760  133.2600 C   0  0  0  0  0  0  0  0  0  0  0  0
  147.0830  155.5130  133.1060 C   0  0  0  0  0  0  0  0  0  0  0  0
  148.1230  154.4310  132.9700 C   0  0  0  0  0  0  0  0  0  0  0  0
  147.6210  153.3560  132.2550 F   0  0  0  0  0  0  0  0  0  0  0  0
  148.4960  153.9980  134.2290 F   0  0  0  0  0  0  0  0  0  0  0  0
  149.2410  154.9070  132.3060 F   0  0  0  0  0  0  0  0  0  0  0  0
  147.4770  156.8690  133.1730 C   0  0  0  0  0  0  0  0  0  0  0  0
  146.4870  157.8460  133.3320 C   0  0  0  0  0  0  0  0  0  0  0  0
  146.6360  159.1880  133.4220 N   0  0  0  0  0  0  0  0  0  0  0  0
  147.8750  159.9210  133.3940 C   0  0  0  0  0  0  0  0  0  0  0  0
  148.7340  159.7140  134.2920 O   0  0  0  0  0  0  0  0  0  0  0  0
  148.2260  160.8350  132.2850 C   0  0  0  0  0  0  0  0  0  0  0  0
  148.9420  160.5100  131.1920 C   0  0  0  0  0  0  0  0  0  0  0  0
  149.3570  161.5550  130.3030 N   0  0  0  0  0  0  0  0  0  0  0  0
  149.2810  159.1170  130.8360 C   0  0  0  0  0  0  0  0  0  0  0  0
  149.9220  158.3990  131.6480 O   0  0  0  0  0  0  0  0  0  0  0  0
  148.9680  158.6060  129.5830 O   0  0  0  0  0  0  0  0  0  0  0  0
  146.9740  161.7460  134.4620 H   0  0  0  0  0  0  0  0  0  0  0  0
  143.3639  158.7426  133.8388 H   0  0  0  0  0  0  0  0  0  0  0  0
  143.6807  155.9181  133.5610 H   0  0  0  0  0  0  0  0  0  0  0  0
  145.4082  154.1197  133.2342 H   0  0  0  0  0  0  0  0  0  0  0  0
  148.5381  157.1503  133.1018 H   0  0  0  0  0  0  0  0  0  0  0  0
  147.8702  161.8732  132.3600 H   0  0  0  0  0  0  0  0  0  0  0  0
  148.6940  161.9540  129.6020 H   0  0  0  0  0  0  0  0  0  0  0  0
  150.3270  161.9430  130.3360 H   0  0  0  0  0  0  0  0  0  0  0  0
  1  2  1  0
  2  3  2  0
  2  4  1  0
  4  5  2  0
  5  6  1  0
  6  7  2  0
  7  8  1  0
  8  9  2  0
  9 10  1  0
 10 11  1  0
 10 12  1  0
 10 13  1  0
  9 14  1  0
 14 15  2  0
 15 16  1  0
 16 17  1  0
 17 18  2  0
 17 19  1  0
 19 20  2  3
 20 21  1  0
 20 22  1  0
 22 23  2  0
 22 24  1  0
 16  4  1  0
 15  6  1  0
  1 25  1  0
  5 26  1  0
  7 27  1  0
  8 28  1  0
 14 29  1  0
 19 30  1  0
 21 31  1  0
 21 32  1  0
M  CHG  2   1  -1  24  -1
M  END
>  <UniqueID>  (35) 
35

>  <SMILES>  (35) 
[NH-]C(=O)c1cc2ccc(C(F)(F)F)cc2n1C(=O)C=C(N)C(=O)[O-]

>  <Energy>  (35) 
77.52145660395465

>  <Genealogy>  (35) 
[NH-]C(=O)c1cc2ccc(C(F)(F)F)cc2n1C(=O)C=C(N)C(=O)[O-] (protonated)
[NH-]C(=O)c1cc2ccc(C(F)(F)F)cc2n1C(=O)C=C(N)C(=O)[O-] (3D coordinates assigned)
[NH-]C(=O)c1cc2ccc(C(F)(F)F)cc2n1C(=O)C=C(N)C(=O)[O-] (optimized conformer: 77.52145660395465 kcal/mol)

>  <smiles>  (35) 
NC(=O)c1cc2ccc(C(F)(F)F)cc2n1C(=O)C=C(N)C(=O)O

>  <score_type>  (35) 
oracle

>  <origin>  (35) 
adg

>  <m_score__min__energy>  (35) 
-6.8300000000000001

>  <m_primary>  (35) 
energy

$$$$
35:0
     RDKit          3D

 44 45  0  0  0  0  0  0  0  0999 V2000
  141.3110  159.9930  133.7800 C   0  0  0  0  0  0  0  0  0  0  0  0
  141.5170  158.6710  134.3940 N   0  0  0  0  0  0  0  0  0  0  0  0
  142.8210  158.6120  135.0710 C   0  0  0  0  0  0  0  0  0  0  0  0
  140.4530  158.3700  135.3360 C   0  0  0  0  0  0  0  0  0  0  0  0
  140.6530  158.4780  136.5390 O   0  0  0  0  0  0  0  0  0  0  0  0
  139.1150  157.8530  134.8550 C   0  0  0  0  0  0  0  0  0  0  0  0
  139.1870  157.0720  133.5230 C   0  0  2  0  0  0  0  0  0  0  0  0
  140.2920  156.1640  133.4790 O   0  0  0  0  0  0  0  0  0  0  0  0
  140.1770  154.7940  133.2210 C   0  0  0  0  0  0  0  0  0  0  0  0
  139.0470  154.2920  132.9770 O   0  0  0  0  0  0  0  0  0  0  0  0
  141.3530  153.9600  133.2120 N   0  0  0  0  0  0  0  0  0  0  0  0
  142.6590  154.3470  133.3430 C   0  0  0  0  0  0  0  0  0  0  0  0
  143.1510  155.7050  133.6580 C   0  0  0  0  0  0  0  0  0  0  0  0
  142.8200  156.7930  132.7990 N   0  0  0  0  0  0  0  0  0  0  0  0
  143.8990  155.9110  134.6480 O   0  0  0  0  0  0  0  0  0  0  0  0
  143.5120  153.2580  133.1870 C   0  0  0  0  0  0  0  0  0  0  0  0
  142.6940  152.1800  132.9600 C   0  0  0  0  0  0  0  0  0  0  0  0
  143.0220  150.8490  132.7190 C   0  0  0  0  0  0  0  0  0  0  0  0
  141.9760  149.9460  132.4760 C   0  0  0  0  0  0  0  0  0  0  0  0
  140.6300  150.3870  132.4680 C   0  0  0  0  0  0  0  0  0  0  0  0
  139.5280  149.4070  132.1830 C   0  0  0  0  0  0  0  0  0  0  0  0
  138.5120  150.0380  131.4880 F   0  0  0  0  0  0  0  0  0  0  0  0
  140.0180  148.3600  131.4230 F   0  0  0  0  0  0  0  0  0  0  0  0
  140.3350  151.7470  132.7120 C   0  0  0  0  0  0  0  0  0  0  0  0
  141.3960  152.6260  132.9760 C   0  0  0  0  0  0  0  0  0  0  0  0
  139.2790  158.0130  132.3570 C   0  0  0  0  0  0  0  0  0  0  0  0
  140.3920  158.2340  131.8120 O   0  0  0  0  0  0  0  0  0  0  0  0
  138.1350  158.6180  131.8480 O   0  0  0  0  0  0  0  0  0  0  0  0
  141.1931  160.7497  134.5696 H   0  0  0  0  0  0  0  0  0  0  0  0
  142.1804  160.2469  133.1558 H   0  0  0  0  0  0  0  0  0  0  0  0
  140.4056  159.9703  133.1558 H   0  0  0  0  0  0  0  0  0  0  0  0
  141.5260  157.9620  133.6230 H   0  0  0  0  0  0  0  0  0  0  0  0
  142.6692  158.6189  136.1604 H   0  0  0  0  0  0  0  0  0  0  0  0
  143.3441  157.6893  134.7795 H   0  0  0  0  0  0  0  0  0  0  0  0
  143.4253  159.4837  134.7795 H   0  0  0  0  0  0  0  0  0  0  0  0
  138.7043  157.1849  135.6264 H   0  0  0  0  0  0  0  0  0  0  0  0
  138.4790  158.7323  134.6754 H   0  0  0  0  0  0  0  0  0  0  0  0
  138.2588  156.4852  133.4590 H   0  0  0  0  0  0  0  0  0  0  0  0
  141.9440  156.7810  132.2310 H   0  0  0  0  0  0  0  0  0  0  0  0
  144.6109  153.2610  133.2355 H   0  0  0  0  0  0  0  0  0  0  0  0
  144.0701  150.5150  132.7190 H   0  0  0  0  0  0  0  0  0  0  0  0
  142.2033  148.8859  132.2900 H   0  0  0  0  0  0  0  0  0  0  0  0
  139.1377  149.0184  133.1352 H   0  0  0  0  0  0  0  0  0  0  0  0
  139.2963  152.1086  132.6953 H   0  0  0  0  0  0  0  0  0  0  0  0
  1  2  1  0
  2  3  1  0
  2  4  1  0
  4  5  2  0
  4  6  1  0
  6  7  1  0
  7  8  1  0
  8  9  1  0
  9 10  2  0
  9 11  1  0
 11 12  1  0
 12 13  1  0
 13 14  1  0
 13 15  2  0
 12 16  2  0
 16 17  1  0
 17 18  2  0
 18 19  1  0
 19 20  2  0
 20 21  1  0
 21 22  1  0
 21 23  1  0
 20 24  1  0
 24 25  2  0
  7 26  1  0
 26 27  2  0
 26 28  1  0
 25 11  1  0
 25 17  1  0
  1 29  1  0
  1 30  1  0
  1 31  1  0
  2 32  1  0
  3 33  1  0
  3 34  1  0
  3 35  1  0
  6 36  1  0
  6 37  1  0
  7 38  1  6
 14 39  1  0
 16 40  1  0
 18 41  1  0
 19 42  1  0
 21 43  1  0
 24 44  1  0
M  CHG  3   2   1  14  -1  28  -1
M  END
>  <UniqueID>  (36) 
36

>  <SMILES>  (36) 
C[NH+](C)C(=O)C[C@H](OC(=O)n1c(C([NH-])=O)cc2ccc(C(F)F)cc21)C(=O)[O-]

>  <Energy>  (36) 
78.6219487205279

>  <Genealogy>  (36) 
C[NH+](C)C(=O)CC(OC(=O)n1c(C([NH-])=O)cc2ccc(C(F)F)cc21)C(=O)[O-] (protonated)
C[NH+](C)C(=O)C[C@H](OC(=O)n1c(C([NH-])=O)cc2ccc(C(F)F)cc21)C(=O)[O-] (chirality)
C[NH+](C)C(=O)C[C@H](OC(=O)n1c(C([NH-])=O)cc2ccc(C(F)F)cc21)C(=O)[O-] (3D coordinates assigned)
C[NH+](C)C(=O)C[C@H](OC(=O)n1c(C([NH-])=O)cc2ccc(C(F)F)cc21)C(=O)[O-] (optimized conformer: 78.6219487205279 kcal/mol)

>  <smiles>  (36) 
CN(C)C(=O)CC(OC(=O)n1c(C(N)=O)cc2ccc(C(F)F)cc21)C(=O)O

>  <score_type>  (36) 
oracle

>  <origin>  (36) 
adg

>  <m_score__min__energy>  (36) 
-5.2000000000000002

>  <m_primary>  (36) 
energy

$$$$
36:0
     RDKit          3D

 35 36  0  0  0  0  0  0  0  0999 V2000
  148.2990  154.7090  132.6300 C   0  0  0  0  0  0  0  0  0  0  0  0
  147.8880  156.1440  132.7650 C   0  0  0  0  0  0  0  0  0  0  0  0
  148.8670  157.1700  132.7550 C   0  0  0  0  0  0  0  0  0  0  0  0
  148.4960  158.5140  132.9280 C   0  0  0  0  0  0  0  0  0  0  0  0
  147.1480  158.8000  133.1210 C   0  0  0  0  0  0  0  0  0  0  0  0
  146.5140  160.0030  133.3460 C   0  0  0  0  0  0  0  0  0  0  0  0
  145.1650  159.6860  133.5000 C   0  0  0  0  0  0  0  0  0  0  0  0
  144.1010  160.6860  133.7220 C   0  0  0  0  0  0  0  0  0  0  0  0
  142.7460  160.3620  133.4180 N   0  0  0  0  0  0  0  0  0  0  0  0
  144.3730  161.8190  134.2000 O   0  0  0  0  0  0  0  0  0  0  0  0
  144.9760  158.3450  133.3750 N   0  0  0  0  0  0  0  0  0  0  0  0
  143.7620  157.6060  133.5590 C   0  0  0  0  0  0  0  0  0  0  0  0
  142.8840  157.6130  132.6550 O   0  0  0  0  0  0  0  0  0  0  0  0
  143.5840  156.7430  134.7710 C   0  0  0  0  0  0  0  0  0  0  0  0
  143.5770  155.3380  134.3840 N   0  0  0  0  0  0  0  0  0  0  0  0
  144.6250  154.4210  134.7200 C   0  0  0  0  0  0  0  0  0  0  0  0
  145.1820  153.7300  133.8250 O   0  0  0  0  0  0  0  0  0  0  0  0
  145.0360  154.2610  136.1470 C   0  0  0  0  0  0  0  0  0  0  0  0
  146.5160  154.0770  136.2360 C   0  0  0  0  0  0  0  0  0  0  0  0
  146.9940  153.0220  136.7310 O   0  0  0  0  0  0  0  0  0  0  0  0
  147.3690  155.0900  135.8190 O   0  0  0  0  0  0  0  0  0  0  0  0
  146.1940  157.8170  133.1410 C   0  0  0  0  0  0  0  0  0  0  0  0
  146.5320  156.4710  132.9730 C   0  0  0  0  0  0  0  0  0  0  0  0
  148.4253  154.2681  133.6299 H   0  0  0  0  0  0  0  0  0  0  0  0
  147.5233  154.1555  132.0805 H   0  0  0  0  0  0  0  0  0  0  0  0
  149.2501  154.6501  132.0805 H   0  0  0  0  0  0  0  0  0  0  0  0
  149.9263  156.9112  132.6105 H   0  0  0  0  0  0  0  0  0  0  0  0
  149.2486  159.3161  132.9114 H   0  0  0  0  0  0  0  0  0  0  0  0
  146.9744  161.0009  133.3939 H   0  0  0  0  0  0  0  0  0  0  0  0
  142.5100  159.7450  132.6090 H   0  0  0  0  0  0  0  0  0  0  0  0
  144.4121  156.9239  135.4721 H   0  0  0  0  0  0  0  0  0  0  0  0
  142.6269  156.9900  135.2535 H   0  0  0  0  0  0  0  0  0  0  0  0
  144.7461  155.1590  136.7123 H   0  0  0  0  0  0  0  0  0  0  0  0
  144.5366  153.3765  136.5691 H   0  0  0  0  0  0  0  0  0  0  0  0
  145.7605  155.6874  133.0023 H   0  0  0  0  0  0  0  0  0  0  0  0
  1  2  1  0
  2  3  2  0
  3  4  1  0
  4  5  2  0
  5  6  1  0
  6  7  2  0
  7  8  1  0
  8  9  1  0
  8 10  2  0
  7 11  1  0
 11 12  1  0
 12 13  2  0
 12 14  1  0
 14 15  1  0
 15 16  1  0
 16 17  2  0
 16 18  1  0
 18 19  1  0
 19 20  2  0
 19 21  1  0
 11 22  1  0
 22 23  2  0
 23  2  1  0
 22  5  1  0
  1 24  1  0
  1 25  1  0
  1 26  1  0
  3 27  1  0
  4 28  1  0
  6 29  1  0
  9 30  1  0
 14 31  1  0
 14 32  1  0
 18 33  1  0
 18 34  1  0
 23 35  1  0
M  CHG  3   9  -1  15  -1  21  -1
M  END
>  <UniqueID>  (37) 
37

>  <SMILES>  (37) 
Cc1ccc2cc(C([NH-])=O)n(C(=O)C[N-]C(=O)CC(=O)[O-])c2c1

>  <Energy>  (37) 
68.41409268405535

>  <Genealogy>  (37) 
Cc1ccc2cc(C([NH-])=O)n(C(=O)C[N-]C(=O)CC(=O)[O-])c2c1 (protonated)
Cc1ccc2cc(C([NH-])=O)n(C(=O)C[N-]C(=O)CC(=O)[O-])c2c1 (3D coordinates assigned)
Cc1ccc2cc(C([NH-])=O)n(C(=O)C[N-]C(=O)CC(=O)[O-])c2c1 (optimized conformer: 68.41409268405535 kcal/mol)

>  <smiles>  (37) 
Cc1ccc2cc(C(N)=O)n(C(=O)CNC(=O)CC(=O)O)c2c1

>  <score_type>  (37) 
oracle

>  <origin>  (37) 
adg

>  <m_score__min__energy>  (37) 
-6.8099999999999996

>  <m_primary>  (37) 
energy

$$$$
37:0
     RDKit          3D

 37 38  0  0  0  0  0  0  0  0999 V2000
  140.5720  159.8970  132.7400 C   0  0  0  0  0  0  0  0  0  0  0  0
  140.5780  158.9990  133.8980 N   0  0  0  0  0  0  0  0  0  0  0  0
  139.4490  158.0860  134.1290 C   0  0  0  0  0  0  0  0  0  0  0  0
  138.9430  157.5160  132.8040 C   0  0  0  0  0  0  0  0  0  0  0  0
  139.2250  156.1450  132.7270 O   0  0  0  0  0  0  0  0  0  0  0  0
  141.7340  158.9820  134.7620 C   0  0  0  0  0  0  0  0  0  0  0  0
  141.6180  159.2930  135.9780 O   0  0  0  0  0  0  0  0  0  0  0  0
  143.0310  158.6280  134.2560 N   0  0  0  0  0  0  0  0  0  0  0  0
  143.4660  157.3990  133.8610 C   0  0  0  0  0  0  0  0  0  0  0  0
  142.6710  156.1510  133.9310 C   0  0  0  0  0  0  0  0  0  0  0  0
  141.6360  155.8820  132.9810 N   0  0  0  0  0  0  0  0  0  0  0  0
  142.9050  155.3030  134.8330 O   0  0  0  0  0  0  0  0  0  0  0  0
  144.7950  157.4720  133.4400 C   0  0  0  0  0  0  0  0  0  0  0  0
  145.1580  158.7910  133.6010 C   0  0  0  0  0  0  0  0  0  0  0  0
  146.3710  159.4250  133.3540 C   0  0  0  0  0  0  0  0  0  0  0  0
  146.4600  160.8030  133.6190 C   0  0  0  0  0  0  0  0  0  0  0  0
  145.3380  161.5230  134.1080 C   0  0  0  0  0  0  0  0  0  0  0  0
  145.4590  162.9910  134.4290 C   0  0  0  0  0  0  0  0  0  0  0  0
  145.4660  163.1920  135.7980 F   0  0  0  0  0  0  0  0  0  0  0  0
  144.3980  163.6980  133.8940 F   0  0  0  0  0  0  0  0  0  0  0  0
  146.6400  163.4760  133.8970 F   0  0  0  0  0  0  0  0  0  0  0  0
  144.1310  160.8350  134.3710 C   0  0  0  0  0  0  0  0  0  0  0  0
  144.0760  159.4640  134.1010 C   0  0  0  0  0  0  0  0  0  0  0  0
  140.5650  160.9412  133.0858 H   0  0  0  0  0  0  0  0  0  0  0  0
  141.4714  159.7179  132.1325 H   0  0  0  0  0  0  0  0  0  0  0  0
  139.6751  159.7059  132.1325 H   0  0  0  0  0  0  0  0  0  0  0  0
  139.7779  157.2599  134.7766 H   0  0  0  0  0  0  0  0  0  0  0  0
  138.6329  158.6437  134.6117 H   0  0  0  0  0  0  0  0  0  0  0  0
  137.8557  157.6676  132.7349 H   0  0  0  0  0  0  0  0  0  0  0  0
  139.4480  158.0332  131.9749 H   0  0  0  0  0  0  0  0  0  0  0  0
  138.3570  155.6840  132.5770 H   0  0  0  0  0  0  0  0  0  0  0  0
  141.3600  156.5830  132.2600 H   0  0  0  0  0  0  0  0  0  0  0  0
  141.1070  154.9840  133.0270 H   0  0  0  0  0  0  0  0  0  0  0  0
  145.4199  156.6503  133.0602 H   0  0  0  0  0  0  0  0  0  0  0  0
  147.2340  158.8658  132.9635 H   0  0  0  0  0  0  0  0  0  0  0  0
  147.4101  161.3295  133.4455 H   0  0  0  0  0  0  0  0  0  0  0  0
  143.2571  161.3650  134.7778 H   0  0  0  0  0  0  0  0  0  0  0  0
  1  2  1  0
  2  3  1  0
  3  4  1  0
  4  5  1  0
  2  6  1  0
  6  7  2  0
  6  8  1  0
  8  9  1  0
  9 10  1  0
 10 11  1  0
 10 12  2  0
  9 13  2  0
 13 14  1  0
 14 15  2  0
 15 16  1  0
 16 17  2  0
 17 18  1  0
 18 19  1  0
 18 20  1  0
 18 21  1  0
 17 22  1  0
 22 23  2  0
 23  8  1  0
 23 14  1  0
  1 24  1  0
  1 25  1  0
  1 26  1  0
  3 27  1  0
  3 28  1  0
  4 29  1  0
  4 30  1  0
  5 31  1  0
 11 32  1  0
 11 33  1  0
 13 34  1  0
 15 35  1  0
 16 36  1  0
 22 37  1  0
M  END
>  <UniqueID>  (38) 
38

>  <SMILES>  (38) 
CN(CCO)C(=O)n1c(C(N)=O)cc2ccc(C(F)(F)F)cc21

>  <Energy>  (38) 
71.9862537885662

>  <Genealogy>  (38) 
CN(CCO)C(=O)n1c(C(N)=O)cc2ccc(C(F)(F)F)cc21 (3D coordinates assigned)
CN(CCO)C(=O)n1c(C(N)=O)cc2ccc(C(F)(F)F)cc21 (optimized conformer: 71.9862537885662 kcal/mol)

>  <smiles>  (38) 
CN(CCO)C(=O)n1c(C(N)=O)cc2ccc(C(F)(F)F)cc21

>  <score_type>  (38) 
oracle

>  <origin>  (38) 
adg

>  <m_score__min__energy>  (38) 
-5.5700000000000003

>  <m_primary>  (38) 
energy

$$$$
38:0
     RDKit          3D

 39 40  0  0  0  0  0  0  0  0999 V2000
  149.0110  161.6960  130.4100 C   0  0  0  0  0  0  0  0  0  0  0  0
  148.8530  160.4570  131.2410 C   0  0  0  0  0  0  0  0  0  0  0  0
  149.9660  159.6130  131.4760 C   0  0  0  0  0  0  0  0  0  0  0  0
  149.8260  158.4390  132.2360 C   0  0  0  0  0  0  0  0  0  0  0  0
  148.5600  158.1250  132.7220 C   0  0  0  0  0  0  0  0  0  0  0  0
  148.1520  157.0790  133.5210 C   0  0  0  0  0  0  0  0  0  0  0  0
  146.7870  157.2790  133.7170 C   0  0  0  0  0  0  0  0  0  0  0  0
  145.9360  156.3740  134.5190 C   0  0  0  0  0  0  0  0  0  0  0  0
  144.5110  156.4820  134.4990 N   0  0  0  0  0  0  0  0  0  0  0  0
  146.4740  155.4630  135.2010 O   0  0  0  0  0  0  0  0  0  0  0  0
  146.3670  158.3990  133.0690 N   0  0  0  0  0  0  0  0  0  0  0  0
  145.0700  159.0140  133.1400 C   0  0  0  0  0  0  0  0  0  0  0  0
  144.0810  158.4460  132.6050 O   0  0  0  0  0  0  0  0  0  0  0  0
  144.8830  160.3010  133.8210 C   0  0  0  0  0  0  0  0  0  0  0  0
  145.8740  161.0520  134.0300 O   0  0  0  0  0  0  0  0  0  0  0  0
  143.5990  160.6870  134.2210 O   0  0  0  0  0  0  0  0  0  0  0  0
  142.6730  159.8000  134.8500 C   0  0  0  0  0  0  0  0  0  0  0  0
  141.7520  159.1320  133.8110 C   0  0  2  0  0  0  0  0  0  0  0  0
  140.6240  160.0740  133.3730 C   0  0  0  0  0  0  0  0  0  0  0  0
  141.1820  157.8560  134.3660 C   0  0  0  0  0  0  0  0  0  0  0  0
  139.9460  157.7510  134.5910 O   0  0  0  0  0  0  0  0  0  0  0  0
  142.0210  156.7830  134.6390 O   0  0  0  0  0  0  0  0  0  0  0  0
  147.4660  158.9120  132.4720 C   0  0  0  0  0  0  0  0  0  0  0  0
  147.5820  160.1010  131.7420 C   0  0  0  0  0  0  0  0  0  0  0  0
  149.1223  162.5687  131.0704 H   0  0  0  0  0  0  0  0  0  0  0  0
  149.9042  161.6003  129.7752 H   0  0  0  0  0  0  0  0  0  0  0  0
  148.1224  161.8275  129.7752 H   0  0  0  0  0  0  0  0  0  0  0  0
  150.9490  159.8788  131.0599 H   0  0  0  0  0  0  0  0  0  0  0  0
  150.6895  157.7889  132.4402 H   0  0  0  0  0  0  0  0  0  0  0  0
  148.7711  156.2614  133.9188 H   0  0  0  0  0  0  0  0  0  0  0  0
  144.0240  157.0880  133.8040 H   0  0  0  0  0  0  0  0  0  0  0  0
  143.9330  155.8710  135.1170 H   0  0  0  0  0  0  0  0  0  0  0  0
  143.2315  159.0205  135.3889 H   0  0  0  0  0  0  0  0  0  0  0  0
  142.0506  160.3809  135.5465 H   0  0  0  0  0  0  0  0  0  0  0  0
  142.3577  158.8985  132.9230 H   0  0  0  0  0  0  0  0  0  0  0  0
  140.1269  160.4891  134.2622 H   0  0  0  0  0  0  0  0  0  0  0  0
  141.0437  160.8937  132.7713 H   0  0  0  0  0  0  0  0  0  0  0  0
  139.8923  159.5149  132.7713 H   0  0  0  0  0  0  0  0  0  0  0  0
  146.7055  160.7412  131.5634 H   0  0  0  0  0  0  0  0  0  0  0  0
  1  2  1  0
  2  3  2  0
  3  4  1  0
  4  5  2  0
  5  6  1  0
  6  7  2  0
  7  8  1  0
  8  9  1  0
  8 10  2  0
  7 11  1  0
 11 12  1  0
 12 13  2  0
 12 14  1  0
 14 15  2  0
 14 16  1  0
 16 17  1  0
 17 18  1  0
 18 19  1  0
 18 20  1  0
 20 21  2  0
 20 22  1  0
 11 23  1  0
 23 24  2  0
 24  2  1  0
 23  5  1  0
  1 25  1  0
  1 26  1  0
  1 27  1  0
  3 28  1  0
  4 29  1  0
  6 30  1  0
  9 31  1  0
  9 32  1  0
 17 33  1  0
 17 34  1  0
 18 35  1  6
 19 36  1  0
 19 37  1  0
 19 38  1  0
 24 39  1  0
M  CHG  1  22  -1
M  END
>  <UniqueID>  (39) 
39

>  <SMILES>  (39) 
Cc1ccc2cc(C(N)=O)n(C(=O)C(=O)OC[C@H](C)C(=O)[O-])c2c1

>  <Energy>  (39) 
72.45123840365322

>  <Genealogy>  (39) 
Cc1ccc2cc(C(N)=O)n(C(=O)C(=O)OCC(C)C(=O)[O-])c2c1 (protonated)
Cc1ccc2cc(C(N)=O)n(C(=O)C(=O)OC[C@H](C)C(=O)[O-])c2c1 (chirality)
Cc1ccc2cc(C(N)=O)n(C(=O)C(=O)OC[C@H](C)C(=O)[O-])c2c1 (3D coordinates assigned)
Cc1ccc2cc(C(N)=O)n(C(=O)C(=O)OC[C@H](C)C(=O)[O-])c2c1 (optimized conformer: 72.45123840365322 kcal/mol)

>  <smiles>  (39) 
Cc1ccc2cc(C(N)=O)n(C(=O)C(=O)OCC(C)C(=O)O)c2c1

>  <score_type>  (39) 
oracle

>  <origin>  (39) 
adg

>  <m_score__min__energy>  (39) 
-6.46

>  <m_primary>  (39) 
energy

$$$$
39:0
     RDKit          3D

 43 44  0  0  0  0  0  0  0  0999 V2000
  139.1110  158.5580  132.0150 C   0  0  0  0  0  0  0  0  0  0  0  0
  139.8920  157.9830  133.1160 N   0  0  0  0  0  0  0  0  0  0  0  0
  139.8760  156.5350  133.3520 C   0  0  0  0  0  0  0  0  0  0  0  0
  140.6690  158.8630  133.9580 C   0  0  0  0  0  0  0  0  0  0  0  0
  140.6040  160.1110  133.7860 O   0  0  0  0  0  0  0  0  0  0  0  0
  141.5810  158.3350  135.0320 C   0  0  0  0  0  0  0  0  0  0  0  0
  142.9170  158.7850  134.8230 O   0  0  0  0  0  0  0  0  0  0  0  0
  143.6350  158.5420  133.6470 C   0  0  0  0  0  0  0  0  0  0  0  0
  143.1350  157.8380  132.7270 O   0  0  0  0  0  0  0  0  0  0  0  0
  144.9610  159.0700  133.5020 N   0  0  0  0  0  0  0  0  0  0  0  0
  145.3590  160.3680  133.6230 C   0  0  0  0  0  0  0  0  0  0  0  0
  144.4670  161.5360  133.7850 C   0  0  0  0  0  0  0  0  0  0  0  0
  143.0670  161.3970  133.5540 N   0  0  0  0  0  0  0  0  0  0  0  0
  144.9250  162.6480  134.1570 O   0  0  0  0  0  0  0  0  0  0  0  0
  146.7430  160.4660  133.5020 C   0  0  0  0  0  0  0  0  0  0  0  0
  147.1840  159.1770  133.3000 C   0  0  0  0  0  0  0  0  0  0  0  0
  148.4740  158.6890  133.1370 C   0  0  0  0  0  0  0  0  0  0  0  0
  148.6410  157.3020  132.9860 C   0  0  0  0  0  0  0  0  0  0  0  0
  147.5240  156.4190  133.0090 C   0  0  0  0  0  0  0  0  0  0  0  0
  147.7080  154.9860  132.8700 N   0  0  0  0  0  0  0  0  0  0  0  0
  146.5650  154.0720  132.9850 C   0  0  0  0  0  0  0  0  0  0  0  0
  149.0400  154.4270  132.6090 C   0  0  0  0  0  0  0  0  0  0  0  0
  146.2260  156.9680  133.1780 C   0  0  0  0  0  0  0  0  0  0  0  0
  146.0900  158.3550  133.3070 C   0  0  0  0  0  0  0  0  0  0  0  0
  138.2891  159.1631  132.4254 H   0  0  0  0  0  0  0  0  0  0  0  0
  139.7617  159.1943  131.3971 H   0  0  0  0  0  0  0  0  0  0  0  0
  138.6967  157.7477  131.3971 H   0  0  0  0  0  0  0  0  0  0  0  0
  139.8739  156.3400  134.4346 H   0  0  0  0  0  0  0  0  0  0  0  0
  138.9730  156.0996  132.8992 H   0  0  0  0  0  0  0  0  0  0  0  0
  140.7692  156.0798  132.8992 H   0  0  0  0  0  0  0  0  0  0  0  0
  141.2291  158.6905  136.0117 H   0  0  0  0  0  0  0  0  0  0  0  0
  141.5683  157.2356  134.9984 H   0  0  0  0  0  0  0  0  0  0  0  0
  142.6300  160.4530  133.4620 H   0  0  0  0  0  0  0  0  0  0  0  0
  147.3541  161.3790  133.5562 H   0  0  0  0  0  0  0  0  0  0  0  0
  149.3393  159.3681  133.1264 H   0  0  0  0  0  0  0  0  0  0  0  0
  149.6520  156.8912  132.8476 H   0  0  0  0  0  0  0  0  0  0  0  0
  146.3430  153.8945  134.0476 H   0  0  0  0  0  0  0  0  0  0  0  0
  145.6869  154.5198  132.4968 H   0  0  0  0  0  0  0  0  0  0  0  0
  146.8087  153.1169  132.4968 H   0  0  0  0  0  0  0  0  0  0  0  0
  149.5427  154.2160  133.5644 H   0  0  0  0  0  0  0  0  0  0  0  0
  148.9401  153.4949  132.0335 H   0  0  0  0  0  0  0  0  0  0  0  0
  149.6352  155.1512  132.0335 H   0  0  0  0  0  0  0  0  0  0  0  0
  145.3418  156.3143  133.2071 H   0  0  0  0  0  0  0  0  0  0  0  0
  1  2  1  0
  2  3  1  0
  2  4  1  0
  4  5  2  0
  4  6  1  0
  6  7  1  0
  7  8  1  0
  8  9  2  0
  8 10  1  0
 10 11  1  0
 11 12  1  0
 12 13  1  0
 12 14  2  0
 11 15  2  0
 15 16  1  0
 16 17  2  0
 17 18  1  0
 18 19  2  0
 19 20  1  0
 20 21  1  0
 20 22  1  0
 19 23  1  0
 23 24  2  0
 24 10  1  0
 24 16  1  0
  1 25  1  0
  1 26  1  0
  1 27  1  0
  3 28  1  0
  3 29  1  0
  3 30  1  0
  6 31  1  0
  6 32  1  0
 13 33  1  0
 15 34  1  0
 17 35  1  0
 18 36  1  0
 21 37  1  0
 21 38  1  0
 21 39  1  0
 22 40  1  0
 22 41  1  0
 22 42  1  0
 23 43  1  0
M  CHG  1  13  -1
M  END
>  <UniqueID>  (40) 
40

>  <SMILES>  (40) 
CN(C)C(=O)COC(=O)n1c(C([NH-])=O)cc2ccc(N(C)C)cc21

>  <Energy>  (40) 
77.83084720391751

>  <Genealogy>  (40) 
CN(C)C(=O)COC(=O)n1c(C([NH-])=O)cc2ccc(N(C)C)cc21 (protonated)
CN(C)C(=O)COC(=O)n1c(C([NH-])=O)cc2ccc(N(C)C)cc21 (3D coordinates assigned)
CN(C)C(=O)COC(=O)n1c(C([NH-])=O)cc2ccc(N(C)C)cc21 (optimized conformer: 77.83084720391751 kcal/mol)

>  <smiles>  (40) 
CN(C)C(=O)COC(=O)n1c(C(N)=O)cc2ccc(N(C)C)cc21

>  <score_type>  (40) 
oracle

>  <origin>  (40) 
adg

>  <m_score__min__energy>  (40) 
-6.1799999999999997

>  <m_primary>  (40) 
energy

$$$$
40:0
     RDKit          3D

 46 49  0  0  0  0  0  0  0  0999 V2000
  138.5620  158.2450  131.7410 N   0  0  0  0  0  0  0  0  0  0  0  0
  139.8230  158.6650  132.2570 C   0  0  0  0  0  0  0  0  0  0  0  0
  140.6130  159.3000  131.5110 O   0  0  0  0  0  0  0  0  0  0  0  0
  140.1750  158.3780  133.6630 C   0  0  0  0  0  0  0  0  0  0  0  0
  140.5720  159.3540  134.5750 C   0  0  0  0  0  0  0  0  0  0  0  0
  140.8870  158.6700  135.7270 C   0  0  0  0  0  0  0  0  0  0  0  0
  141.3500  159.1400  136.9520 C   0  0  0  0  0  0  0  0  0  0  0  0
  141.5890  158.2020  137.9700 C   0  0  0  0  0  0  0  0  0  0  0  0
  141.3430  156.8210  137.7580 C   0  0  0  0  0  0  0  0  0  0  0  0
  141.6450  155.8200  138.8450 C   0  0  0  0  0  0  0  0  0  0  0  0
  142.4070  154.7770  138.3490 F   0  0  0  0  0  0  0  0  0  0  0  0
  140.4580  155.3150  139.3410 F   0  0  0  0  0  0  0  0  0  0  0  0
  142.3480  156.4160  139.8780 F   0  0  0  0  0  0  0  0  0  0  0  0
  140.8960  156.3800  136.4900 C   0  0  0  0  0  0  0  0  0  0  0  0
  140.6770  157.3370  135.4930 C   0  0  0  0  0  0  0  0  0  0  0  0
  140.2340  157.1410  134.2340 N   0  0  0  0  0  0  0  0  0  0  0  0
  139.8760  155.8770  133.6530 C   0  0  0  0  0  0  0  0  0  0  0  0
  138.7280  155.7350  133.1590 O   0  0  0  0  0  0  0  0  0  0  0  0
  140.8760  154.7860  133.5690 C   0  0  0  0  0  0  0  0  0  0  0  0
  140.7510  153.9250  132.6590 O   0  0  0  0  0  0  0  0  0  0  0  0
  141.9780  154.6520  134.4800 N   0  0  0  0  0  0  0  0  0  0  0  0
  143.4060  154.6660  134.1600 C   0  0  2  0  0  0  0  0  0  0  0  0
  144.2140  155.4870  135.2110 C   0  0  0  0  0  0  0  0  0  0  0  0
  144.9820  156.5810  134.5670 N   0  0  0  0  0  0  0  0  0  0  0  0
  144.0390  157.5110  133.8990 C   0  0  0  0  0  0  0  0  0  0  0  0
  143.2090  156.7810  132.8120 C   0  0  0  0  0  0  0  0  0  0  0  0
  143.6260  155.2960  132.7670 C   0  0  0  0  0  0  0  0  0  0  0  0
  145.1330  155.2430  132.4560 C   0  0  0  0  0  0  0  0  0  0  0  0
  145.9080  156.0080  133.5590 C   0  0  0  0  0  0  0  0  0  0  0  0
  137.9790  157.5450  132.2520 H   0  0  0  0  0  0  0  0  0  0  0  0
  140.6228  160.4403  134.4094 H   0  0  0  0  0  0  0  0  0  0  0  0
  141.5236  160.2134  137.1182 H   0  0  0  0  0  0  0  0  0  0  0  0
  141.9716  158.5425  138.9435 H   0  0  0  0  0  0  0  0  0  0  0  0
  140.7249  155.3114  136.2930 H   0  0  0  0  0  0  0  0  0  0  0  0
  143.7608  153.6248  134.1704 H   0  0  0  0  0  0  0  0  0  0  0  0
  143.5147  155.9216  135.9405 H   0  0  0  0  0  0  0  0  0  0  0  0
  144.9247  154.8102  135.7079 H   0  0  0  0  0  0  0  0  0  0  0  0
  143.3551  157.9306  134.6514 H   0  0  0  0  0  0  0  0  0  0  0  0
  144.6206  158.3100  133.4158 H   0  0  0  0  0  0  0  0  0  0  0  0
  142.1387  156.8554  133.0547 H   0  0  0  0  0  0  0  0  0  0  0  0
  143.3927  157.2462  131.8323 H   0  0  0  0  0  0  0  0  0  0  0  0
  143.0382  154.7560  132.0101 H   0  0  0  0  0  0  0  0  0  0  0  0
  145.4669  154.1952  132.4310 H   0  0  0  0  0  0  0  0  0  0  0  0
  145.3253  155.7089  131.4783 H   0  0  0  0  0  0  0  0  0  0  0  0
  146.5982  155.3133  134.0600 H   0  0  0  0  0  0  0  0  0  0  0  0
  146.4622  156.8326  133.0869 H   0  0  0  0  0  0  0  0  0  0  0  0
  1  2  1  0
  2  3  2  0
  2  4  1  0
  4  5  2  0
  5  6  1  0
  6  7  2  0
  7  8  1  0
  8  9  2  0
  9 10  1  0
 10 11  1  0
 10 12  1  0
 10 13  1  0
  9 14  1  0
 14 15  2  0
 15 16  1  0
 16 17  1  0
 17 18  2  0
 17 19  1  0
 19 20  2  0
 19 21  1  0
 21 22  1  0
 22 23  1  0
 23 24  1  0
 24 25  1  0
 25 26  1  0
 26 27  1  0
 27 28  1  0
 28 29  1  0
 16  4  1  0
 27 22  1  0
 15  6  1  0
 29 24  1  0
  1 30  1  0
  5 31  1  0
  7 32  1  0
  8 33  1  0
 14 34  1  0
 22 35  1  6
 23 36  1  0
 23 37  1  0
 25 38  1  0
 25 39  1  0
 26 40  1  0
 26 41  1  0
 27 42  1  0
 28 43  1  0
 28 44  1  0
 29 45  1  0
 29 46  1  0
M  CHG  2   1  -1  21  -1
M  END
>  <UniqueID>  (41) 
41

>  <SMILES>  (41) 
[NH-]C(=O)c1cc2ccc(C(F)(F)F)cc2n1C(=O)C(=O)[N-][C@@H]1CN2CCC1CC2

>  <Energy>  (41) 
103.15354577102852

>  <Genealogy>  (41) 
[NH-]C(=O)c1cc2ccc(C(F)(F)F)cc2n1C(=O)C(=O)[N-]C1CN2CCC1CC2 (protonated)
[NH-]C(=O)c1cc2ccc(C(F)(F)F)cc2n1C(=O)C(=O)[N-][C@@H]1CN2CCC1CC2 (chirality)
[NH-]C(=O)c1cc2ccc(C(F)(F)F)cc2n1C(=O)C(=O)[N-][C@@H]1CN2CCC1CC2 (3D coordinates assigned)
[NH-]C(=O)c1cc2ccc(C(F)(F)F)cc2n1C(=O)C(=O)[N-][C@@H]1CN2CCC1CC2 (nonaromatic ring conformer: 103.15354577102852 kcal/mol)

>  <smiles>  (41) 
NC(=O)c1cc2ccc(C(F)(F)F)cc2n1C(=O)C(=O)NC1CN2CCC1CC2

>  <score_type>  (41) 
oracle

>  <origin>  (41) 
adg

>  <m_score__min__energy>  (41) 
-7.8399999999999999

>  <m_primary>  (41) 
energy

$$$$
41:0
     RDKit          3D

 36 37  0  0  0  0  0  0  0  0999 V2000
  149.6040  161.9810  130.3290 C   0  0  0  0  0  0  0  0  0  0  0  0
  149.0630  160.8050  129.7650 O   0  0  0  0  0  0  0  0  0  0  0  0
  148.1840  160.1830  130.6840 C   0  0  0  0  0  0  0  0  0  0  0  0
  148.8920  159.0760  131.4210 C   0  0  0  0  0  0  0  0  0  0  0  0
  150.1130  159.0260  131.3950 O   0  0  0  0  0  0  0  0  0  0  0  0
  148.1220  158.0260  132.1770 C   0  0  0  0  0  0  0  0  0  0  0  0
  147.8040  158.5000  133.5980 C   0  0  0  0  0  0  0  0  0  0  0  0
  146.4140  159.0700  133.6660 C   0  0  0  0  0  0  0  0  0  0  0  0
  146.2180  160.4730  133.6310 C   0  0  0  0  0  0  0  0  0  0  0  0
  144.9290  161.0190  133.7420 C   0  0  0  0  0  0  0  0  0  0  0  0
  143.8590  160.1420  133.8880 C   0  0  0  0  0  0  0  0  0  0  0  0
  142.5160  160.4010  134.0420 C   0  0  0  0  0  0  0  0  0  0  0  0
  141.9080  159.1520  134.1590 C   0  0  0  0  0  0  0  0  0  0  0  0
  140.4450  158.9650  134.2590 C   0  0  0  0  0  0  0  0  0  0  0  0
  139.8540  158.6640  135.5210 N   0  0  0  0  0  0  0  0  0  0  0  0
  139.7060  159.1040  133.2490 O   0  0  0  0  0  0  0  0  0  0  0  0
  142.8410  158.1580  134.0870 N   0  0  0  0  0  0  0  0  0  0  0  0
  142.6310  156.7450  134.2360 C   0  0  0  0  0  0  0  0  0  0  0  0
  143.2520  156.0990  135.1210 O   0  0  0  0  0  0  0  0  0  0  0  0
  141.7160  156.0810  133.4260 O   0  0  0  0  0  0  0  0  0  0  0  0
  144.0290  158.7810  133.9180 C   0  0  0  0  0  0  0  0  0  0  0  0
  145.3040  158.2100  133.8290 C   0  0  0  0  0  0  0  0  0  0  0  0
  149.5714  161.9101  131.4262 H   0  0  0  0  0  0  0  0  0  0  0  0
  150.6470  162.0992  130.0001 H   0  0  0  0  0  0  0  0  0  0  0  0
  149.0151  162.8499  130.0001 H   0  0  0  0  0  0  0  0  0  0  0  0
  147.8282  160.9307  131.4081 H   0  0  0  0  0  0  0  0  0  0  0  0
  147.3334  159.7569  130.1317 H   0  0  0  0  0  0  0  0  0  0  0  0
  147.1806  157.8184  131.6473 H   0  0  0  0  0  0  0  0  0  0  0  0
  148.7363  157.1156  132.2390 H   0  0  0  0  0  0  0  0  0  0  0  0
  147.8796  157.6475  134.2891 H   0  0  0  0  0  0  0  0  0  0  0  0
  148.5231  159.2830  133.8804 H   0  0  0  0  0  0  0  0  0  0  0  0
  147.0842  161.1411  133.5157 H   0  0  0  0  0  0  0  0  0  0  0  0
  144.7702  162.1071  133.7144 H   0  0  0  0  0  0  0  0  0  0  0  0
  142.0260  161.3855  134.0674 H   0  0  0  0  0  0  0  0  0  0  0  0
  139.2090  159.3400  135.9870 H   0  0  0  0  0  0  0  0  0  0  0  0
  145.4387  157.1197  133.8845 H   0  0  0  0  0  0  0  0  0  0  0  0
  1  2  1  0
  2  3  1  0
  3  4  1  0
  4  5  2  0
  4  6  1  0
  6  7  1  0
  7  8  1  0
  8  9  2  0
  9 10  1  0
 10 11  2  0
 11 12  1  0
 12 13  2  0
 13 14  1  0
 14 15  1  0
 14 16  2  0
 13 17  1  0
 17 18  1  0
 18 19  2  0
 18 20  1  0
 17 21  1  0
 21 22  2  0
 22  8  1  0
 21 11  1  0
  1 23  1  0
  1 24  1  0
  1 25  1  0
  3 26  1  0
  3 27  1  0
  6 28  1  0
  6 29  1  0
  7 30  1  0
  7 31  1  0
  9 32  1  0
 10 33  1  0
 12 34  1  0
 15 35  1  0
 22 36  1  0
M  CHG  2  15  -1  20  -1
M  END
>  <UniqueID>  (42) 
42

>  <SMILES>  (42) 
COCC(=O)CCc1ccc2cc(C([NH-])=O)n(C(=O)[O-])c2c1

>  <Energy>  (42) 
71.11265488775547

>  <Genealogy>  (42) 
COCC(=O)CCc1ccc2cc(C([NH-])=O)n(C(=O)[O-])c2c1 (protonated)
COCC(=O)CCc1ccc2cc(C([NH-])=O)n(C(=O)[O-])c2c1 (3D coordinates assigned)
COCC(=O)CCc1ccc2cc(C([NH-])=O)n(C(=O)[O-])c2c1 (optimized conformer: 71.11265488775547 kcal/mol)

>  <smiles>  (42) 
COCC(=O)CCc1ccc2cc(C(N)=O)n(C(=O)O)c2c1

>  <score_type>  (42) 
oracle

>  <origin>  (42) 
adg

>  <m_score__min__energy>  (42) 
-6.4900000000000002

>  <m_primary>  (42) 
energy

$$$$
42:0
     RDKit          3D

 50 51  0  0  0  0  0  0  0  0999 V2000
  141.4350  159.7500  133.0330 C   0  0  0  0  0  0  0  0  0  0  0  0
  142.2150  159.0290  134.0410 N   0  0  0  0  0  0  0  0  0  0  0  0
  143.3810  159.6640  134.6690 C   0  0  0  0  0  0  0  0  0  0  0  0
  144.3230  160.2420  133.6050 C   0  0  0  0  0  0  0  0  0  0  0  0
  145.4780  159.3110  133.3480 C   0  0  0  0  0  0  0  0  0  0  0  0
  146.6980  159.8160  132.8330 C   0  0  0  0  0  0  0  0  0  0  0  0
  147.7920  158.9620  132.6150 C   0  0  0  0  0  0  0  0  0  0  0  0
  147.6400  157.6140  132.9290 C   0  0  0  0  0  0  0  0  0  0  0  0
  148.5160  156.5640  132.7670 C   0  0  0  0  0  0  0  0  0  0  0  0
  147.8200  155.4350  133.1960 C   0  0  0  0  0  0  0  0  0  0  0  0
  148.3920  154.0710  133.1910 C   0  0  0  0  0  0  0  0  0  0  0  0
  147.7180  152.9770  133.8150 N   0  0  0  0  0  0  0  0  0  0  0  0
  149.5180  153.8780  132.6600 O   0  0  0  0  0  0  0  0  0  0  0  0
  146.5660  155.7740  133.6090 N   0  0  0  0  0  0  0  0  0  0  0  0
  145.4910  154.8800  133.9380 C   0  0  0  0  0  0  0  0  0  0  0  0
  144.7560  154.4260  133.0200 O   0  0  0  0  0  0  0  0  0  0  0  0
  145.2440  154.4690  135.3290 C   0  0  0  0  0  0  0  0  0  0  0  0
  144.1620  154.7640  135.9010 O   0  0  0  0  0  0  0  0  0  0  0  0
  146.2140  153.7600  136.0260 O   0  0  0  0  0  0  0  0  0  0  0  0
  146.4700  157.1100  133.4340 C   0  0  0  0  0  0  0  0  0  0  0  0
  145.3580  157.9330  133.6430 C   0  0  0  0  0  0  0  0  0  0  0  0
  141.8260  157.6880  134.3900 C   0  0  0  0  0  0  0  0  0  0  0  0
  141.4880  156.8740  133.4880 O   0  0  0  0  0  0  0  0  0  0  0  0
  141.8190  157.3040  135.7400 O   0  0  0  0  0  0  0  0  0  0  0  0
  140.8660  157.7040  136.7380 C   0  0  0  0  0  0  0  0  0  0  0  0
  141.3250  159.0080  137.4180 C   0  0  0  0  0  0  0  0  0  0  0  0
  140.6540  156.5900  137.7820 C   0  0  0  0  0  0  0  0  0  0  0  0
  139.5370  157.9610  136.0140 C   0  0  0  0  0  0  0  0  0  0  0  0
  140.7155  160.4151  133.5329 H   0  0  0  0  0  0  0  0  0  0  0  0
  142.1115  160.3478  132.4045 H   0  0  0  0  0  0  0  0  0  0  0  0
  140.8922  159.0287  132.4045 H   0  0  0  0  0  0  0  0  0  0  0  0
  143.0388  160.4759  135.3276 H   0  0  0  0  0  0  0  0  0  0  0  0
  143.9266  158.9055  135.2496 H   0  0  0  0  0  0  0  0  0  0  0  0
  143.7632  160.3884  132.6695 H   0  0  0  0  0  0  0  0  0  0  0  0
  144.7189  161.2013  133.9696 H   0  0  0  0  0  0  0  0  0  0  0  0
  146.7892  160.8875  132.6016 H   0  0  0  0  0  0  0  0  0  0  0  0
  148.7393  159.3463  132.2089 H   0  0  0  0  0  0  0  0  0  0  0  0
  149.5453  156.6070  132.3814 H   0  0  0  0  0  0  0  0  0  0  0  0
  148.1150  152.0120  133.7410 H   0  0  0  0  0  0  0  0  0  0  0  0
  146.8830  153.1240  134.4200 H   0  0  0  0  0  0  0  0  0  0  0  0
  144.4142  157.5187  134.0271 H   0  0  0  0  0  0  0  0  0  0  0  0
  141.2823  158.8866  138.5104 H   0  0  0  0  0  0  0  0  0  0  0  0
  142.3574  159.2360  137.1145 H   0  0  0  0  0  0  0  0  0  0  0  0
  140.6630  159.8324  137.1145 H   0  0  0  0  0  0  0  0  0  0  0  0
  140.7349  157.0150  138.7933 H   0  0  0  0  0  0  0  0  0  0  0  0
  139.6556  156.1479  137.6489 H   0  0  0  0  0  0  0  0  0  0  0  0
  141.4202  155.8121  137.6489 H   0  0  0  0  0  0  0  0  0  0  0  0
  138.7393  158.1153  136.7556 H   0  0  0  0  0  0  0  0  0  0  0  0
  139.6302  158.8578  135.3838 H   0  0  0  0  0  0  0  0  0  0  0  0
  139.2891  157.0941  135.3838 H   0  0  0  0  0  0  0  0  0  0  0  0
  1  2  1  0
  2  3  1  0
  3  4  1  0
  4  5  1  0
  5  6  2  0
  6  7  1  0
  7  8  2  0
  8  9  1  0
  9 10  2  0
 10 11  1  0
 11 12  1  0
 11 13  2  0
 10 14  1  0
 14 15  1  0
 15 16  2  0
 15 17  1  0
 17 18  2  0
 17 19  1  0
 14 20  1  0
 20 21  2  0
  2 22  1  0
 22 23  2  0
 22 24  1  0
 24 25  1  0
 25 26  1  0
 25 27  1  0
 25 28  1  0
 21  5  1  0
 20  8  1  0
  1 29  1  0
  1 30  1  0
  1 31  1  0
  3 32  1  0
  3 33  1  0
  4 34  1  0
  4 35  1  0
  6 36  1  0
  7 37  1  0
  9 38  1  0
 12 39  1  0
 12 40  1  0
 21 41  1  0
 26 42  1  0
 26 43  1  0
 26 44  1  0
 27 45  1  0
 27 46  1  0
 27 47  1  0
 28 48  1  0
 28 49  1  0
 28 50  1  0
M  CHG  1  19  -1
M  END
>  <UniqueID>  (43) 
43

>  <SMILES>  (43) 
CN(CCc1ccc2cc(C(N)=O)n(C(=O)C(=O)[O-])c2c1)C(=O)OC(C)(C)C

>  <Energy>  (43) 
80.50610632952848

>  <Genealogy>  (43) 
CN(CCc1ccc2cc(C(N)=O)n(C(=O)C(=O)[O-])c2c1)C(=O)OC(C)(C)C (protonated)
CN(CCc1ccc2cc(C(N)=O)n(C(=O)C(=O)[O-])c2c1)C(=O)OC(C)(C)C (3D coordinates assigned)
CN(CCc1ccc2cc(C(N)=O)n(C(=O)C(=O)[O-])c2c1)C(=O)OC(C)(C)C (optimized conformer: 80.50610632952848 kcal/mol)

>  <smiles>  (43) 
CN(CCc1ccc2cc(C(N)=O)n(C(=O)C(=O)O)c2c1)C(=O)OC(C)(C)C

>  <score_type>  (43) 
oracle

>  <origin>  (43) 
adg

>  <m_score__min__energy>  (43) 
-7.5300000000000002

>  <m_primary>  (43) 
energy

$$$$
43:0
     RDKit          3D

 42 43  0  0  0  0  0  0  0  0999 V2000
  140.6400  156.5860  137.3570 C   0  0  0  0  0  0  0  0  0  0  0  0
  140.9410  157.3800  136.1570 N   0  0  0  0  0  0  0  0  0  0  0  0
  140.2800  156.8210  134.9670 C   0  0  0  0  0  0  0  0  0  0  0  0
  140.6960  158.8310  136.3330 C   0  0  0  0  0  0  0  0  0  0  0  0
  141.4000  159.7420  135.3020 C   0  0  0  0  0  0  0  0  0  0  0  0
  142.8400  159.4950  135.2550 N   0  0  0  0  0  0  0  0  0  0  0  0
  143.6820  159.4920  134.0920 C   0  0  0  0  0  0  0  0  0  0  0  0
  144.1760  160.5860  133.7110 O   0  0  0  0  0  0  0  0  0  0  0  0
  143.9920  158.2680  133.3200 C   0  0  0  0  0  0  0  0  0  0  0  0
  143.1990  157.8540  132.4350 O   0  0  0  0  0  0  0  0  0  0  0  0
  145.2280  157.5690  133.5350 N   0  0  0  0  0  0  0  0  0  0  0  0
  145.4380  156.4910  134.3410 C   0  0  0  0  0  0  0  0  0  0  0  0
  144.3910  155.7200  135.0430 C   0  0  0  0  0  0  0  0  0  0  0  0
  143.1880  156.3420  135.4950 N   0  0  0  0  0  0  0  0  0  0  0  0
  144.5410  154.4800  135.2050 O   0  0  0  0  0  0  0  0  0  0  0  0
  146.7960  156.1910  134.4150 C   0  0  0  0  0  0  0  0  0  0  0  0
  147.4190  157.1280  133.6210 C   0  0  0  0  0  0  0  0  0  0  0  0
  148.7700  157.3140  133.3460 C   0  0  0  0  0  0  0  0  0  0  0  0
  149.1330  158.3970  132.5280 C   0  0  0  0  0  0  0  0  0  0  0  0
  148.1490  159.2890  132.0260 C   0  0  0  0  0  0  0  0  0  0  0  0
  148.5450  160.4300  131.1240 C   0  0  0  0  0  0  0  0  0  0  0  0
  149.8360  160.2560  130.6540 F   0  0  0  0  0  0  0  0  0  0  0  0
  148.4820  161.6150  131.8340 F   0  0  0  0  0  0  0  0  0  0  0  0
  147.6960  160.5120  130.0340 F   0  0  0  0  0  0  0  0  0  0  0  0
  146.7850  159.0520  132.3110 C   0  0  0  0  0  0  0  0  0  0  0  0
  146.4510  157.9520  133.1070 C   0  0  0  0  0  0  0  0  0  0  0  0
  140.8650  157.1796  138.2554 H   0  0  0  0  0  0  0  0  0  0  0  0
  139.5751  156.3105  137.3568 H   0  0  0  0  0  0  0  0  0  0  0  0
  141.2547  155.6738  137.3568 H   0  0  0  0  0  0  0  0  0  0  0  0
  139.4749  156.1402  135.2806 H   0  0  0  0  0  0  0  0  0  0  0  0
  139.8555  157.6383  134.3654 H   0  0  0  0  0  0  0  0  0  0  0  0
  141.0155  156.2667  134.3654 H   0  0  0  0  0  0  0  0  0  0  0  0
  139.6125  159.0056  136.2589 H   0  0  0  0  0  0  0  0  0  0  0  0
  141.1151  159.0967  137.3147 H   0  0  0  0  0  0  0  0  0  0  0  0
  140.9729  159.5500  134.3066 H   0  0  0  0  0  0  0  0  0  0  0  0
  141.2416  160.7877  135.6045 H   0  0  0  0  0  0  0  0  0  0  0  0
  142.4860  155.7900  136.0380 H   0  0  0  0  0  0  0  0  0  0  0  0
  142.9410  157.3160  135.2130 H   0  0  0  0  0  0  0  0  0  0  0  0
  147.2699  155.3789  134.9859 H   0  0  0  0  0  0  0  0  0  0  0  0
  149.5308  156.6338  133.7565 H   0  0  0  0  0  0  0  0  0  0  0  0
  150.1914  158.5557  132.2736 H   0  0  0  0  0  0  0  0  0  0  0  0
  146.0039  159.7179  131.9155 H   0  0  0  0  0  0  0  0  0  0  0  0
  1  2  1  0
  2  3  1  0
  2  4  1  0
  4  5  1  0
  5  6  1  0
  6  7  1  0
  7  8  2  0
  7  9  1  0
  9 10  2  0
  9 11  1  0
 11 12  1  0
 12 13  1  0
 13 14  1  0
 13 15  2  0
 12 16  2  0
 16 17  1  0
 17 18  2  0
 18 19  1  0
 19 20  2  0
 20 21  1  0
 21 22  1  0
 21 23  1  0
 21 24  1  0
 20 25  1  0
 25 26  2  0
 26 11  1  0
 26 17  1  0
  1 27  1  0
  1 28  1  0
  1 29  1  0
  3 30  1  0
  3 31  1  0
  3 32  1  0
  4 33  1  0
  4 34  1  0
  5 35  1  0
  5 36  1  0
 14 37  1  0
 14 38  1  0
 16 39  1  0
 18 40  1  0
 19 41  1  0
 25 42  1  0
M  CHG  1   6  -1
M  END
>  <UniqueID>  (44) 
44

>  <SMILES>  (44) 
CN(C)CC[N-]C(=O)C(=O)n1c(C(N)=O)cc2ccc(C(F)(F)F)cc21

>  <Energy>  (44) 
85.57507980560845

>  <Genealogy>  (44) 
CN(C)CC[N-]C(=O)C(=O)n1c(C(N)=O)cc2ccc(C(F)(F)F)cc21 (protonated)
CN(C)CC[N-]C(=O)C(=O)n1c(C(N)=O)cc2ccc(C(F)(F)F)cc21 (3D coordinates assigned)
CN(C)CC[N-]C(=O)C(=O)n1c(C(N)=O)cc2ccc(C(F)(F)F)cc21 (optimized conformer: 85.57507980560845 kcal/mol)

>  <smiles>  (44) 
CN(C)CCNC(=O)C(=O)n1c(C(N)=O)cc2ccc(C(F)(F)F)cc21

>  <score_type>  (44) 
oracle

>  <origin>  (44) 
adg

>  <m_score__min__energy>  (44) 
-6.5599999999999996

>  <m_primary>  (44) 
energy

$$$$
44:0
     RDKit          3D

 36 37  0  0  0  0  0  0  0  0999 V2000
  149.1890  162.0370  130.4180 C   0  0  0  0  0  0  0  0  0  0  0  0
  148.9520  160.6960  131.0460 C   0  0  0  0  0  0  0  0  0  0  0  0
  149.9050  159.6600  130.8870 C   0  0  0  0  0  0  0  0  0  0  0  0
  149.7090  158.4070  131.4940 C   0  0  0  0  0  0  0  0  0  0  0  0
  148.5640  158.2290  132.2650 C   0  0  0  0  0  0  0  0  0  0  0  0
  148.1140  157.1190  132.9450 C   0  0  0  0  0  0  0  0  0  0  0  0
  146.9100  157.5070  133.5310 C   0  0  0  0  0  0  0  0  0  0  0  0
  146.0870  156.6280  134.3880 C   0  0  0  0  0  0  0  0  0  0  0  0
  144.8780  156.0690  133.8810 N   0  0  0  0  0  0  0  0  0  0  0  0
  146.4480  156.3530  135.5630 O   0  0  0  0  0  0  0  0  0  0  0  0
  146.6320  158.8060  133.2300 N   0  0  0  0  0  0  0  0  0  0  0  0
  145.4680  159.5590  133.6000 C   0  0  0  0  0  0  0  0  0  0  0  0
  145.6190  160.6950  134.1220 O   0  0  0  0  0  0  0  0  0  0  0  0
  144.1140  158.9950  133.3750 C   0  0  0  0  0  0  0  0  0  0  0  0
  143.9790  158.1220  132.4740 O   0  0  0  0  0  0  0  0  0  0  0  0
  142.9550  159.4010  134.1420 N   0  0  0  0  0  0  0  0  0  0  0  0
  142.1610  160.5760  133.7670 C   0  0  0  0  0  0  0  0  0  0  0  0
  142.4600  158.5320  135.2180 C   0  0  0  0  0  0  0  0  0  0  0  0
  141.1140  158.9910  135.6790 C   0  0  0  0  0  0  0  0  0  0  0  0
  141.0110  159.7410  136.6840 O   0  0  0  0  0  0  0  0  0  0  0  0
  139.9740  158.6220  134.9760 O   0  0  0  0  0  0  0  0  0  0  0  0
  147.6480  159.2310  132.4500 C   0  0  0  0  0  0  0  0  0  0  0  0
  147.8080  160.4830  131.8460 C   0  0  0  0  0  0  0  0  0  0  0  0
  149.3225  162.7926  131.2062 H   0  0  0  0  0  0  0  0  0  0  0  0
  150.0936  161.9947  129.7936 H   0  0  0  0  0  0  0  0  0  0  0  0
  148.3247  162.3074  129.7936 H   0  0  0  0  0  0  0  0  0  0  0  0
  150.8069  159.8375  130.2829 H   0  0  0  0  0  0  0  0  0  0  0  0
  150.4375  157.5932  131.3637 H   0  0  0  0  0  0  0  0  0  0  0  0
  148.6012  156.1351  133.0116 H   0  0  0  0  0  0  0  0  0  0  0  0
  144.6330  156.1490  132.8700 H   0  0  0  0  0  0  0  0  0  0  0  0
  141.8141  161.0894  134.6759 H   0  0  0  0  0  0  0  0  0  0  0  0
  142.7809  161.2627  133.1719 H   0  0  0  0  0  0  0  0  0  0  0  0
  141.2926  160.2570  133.1719 H   0  0  0  0  0  0  0  0  0  0  0  0
  142.3831  157.5002  134.8445 H   0  0  0  0  0  0  0  0  0  0  0  0
  143.1617  158.5757  136.0640 H   0  0  0  0  0  0  0  0  0  0  0  0
  147.0631  161.2794  131.9904 H   0  0  0  0  0  0  0  0  0  0  0  0
  1  2  1  0
  2  3  2  0
  3  4  1  0
  4  5  2  0
  5  6  1  0
  6  7  2  0
  7  8  1  0
  8  9  1  0
  8 10  2  0
  7 11  1  0
 11 12  1  0
 12 13  2  0
 12 14  1  0
 14 15  2  0
 14 16  1  0
 16 17  1  0
 16 18  1  0
 18 19  1  0
 19 20  2  0
 19 21  1  0
 11 22  1  0
 22 23  2  0
 23  2  1  0
 22  5  1  0
  1 24  1  0
  1 25  1  0
  1 26  1  0
  3 27  1  0
  4 28  1  0
  6 29  1  0
  9 30  1  0
 17 31  1  0
 17 32  1  0
 17 33  1  0
 18 34  1  0
 18 35  1  0
 23 36  1  0
M  CHG  2   9  -1  21  -1
M  END
>  <UniqueID>  (45) 
45

>  <SMILES>  (45) 
Cc1ccc2cc(C([NH-])=O)n(C(=O)C(=O)N(C)CC(=O)[O-])c2c1

>  <Energy>  (45) 
74.99551706809999

>  <Genealogy>  (45) 
Cc1ccc2cc(C([NH-])=O)n(C(=O)C(=O)N(C)CC(=O)[O-])c2c1 (protonated)
Cc1ccc2cc(C([NH-])=O)n(C(=O)C(=O)N(C)CC(=O)[O-])c2c1 (3D coordinates assigned)
Cc1ccc2cc(C([NH-])=O)n(C(=O)C(=O)N(C)CC(=O)[O-])c2c1 (optimized conformer: 74.99551706809999 kcal/mol)

>  <smiles>  (45) 
Cc1ccc2cc(C(N)=O)n(C(=O)C(=O)N(C)CC(=O)O)c2c1

>  <score_type>  (45) 
oracle

>  <origin>  (45) 
adg

>  <m_score__min__energy>  (45) 
-6.4500000000000002

>  <m_primary>  (45) 
energy

$$$$
45:0
     RDKit          3D

 40 41  0  0  0  0  0  0  0  0999 V2000
  140.9850  159.4320  137.2480 C   0  0  0  0  0  0  0  0  0  0  0  0
  140.9530  159.7120  135.7500 C   0  0  0  0  0  0  0  0  0  0  0  0
  140.6410  158.4570  134.9800 C   0  0  0  0  0  0  0  0  0  0  0  0
  139.7240  158.4970  133.9010 C   0  0  0  0  0  0  0  0  0  0  0  0
  139.4360  157.3350  133.1650 C   0  0  0  0  0  0  0  0  0  0  0  0
  140.0910  156.1600  133.5170 C   0  0  0  0  0  0  0  0  0  0  0  0
  139.9780  154.8930  132.9920 C   0  0  0  0  0  0  0  0  0  0  0  0
  140.8600  154.1100  133.7300 C   0  0  0  0  0  0  0  0  0  0  0  0
  141.0990  152.6780  133.4540 C   0  0  0  0  0  0  0  0  0  0  0  0
  141.3590  151.7540  134.5120 N   0  0  0  0  0  0  0  0  0  0  0  0
  141.1320  152.2750  132.2620 O   0  0  0  0  0  0  0  0  0  0  0  0
  141.4870  154.8550  134.6850 N   0  0  0  0  0  0  0  0  0  0  0  0
  142.3730  154.3870  135.7150 C   0  0  0  0  0  0  0  0  0  0  0  0
  143.6000  154.6740  135.6670 O   0  0  0  0  0  0  0  0  0  0  0  0
  141.8560  153.5970  136.7920 N   0  0  0  0  0  0  0  0  0  0  0  0
  141.3810  154.1080  138.0440 C   0  0  0  0  0  0  0  0  0  0  0  0
  141.9600  155.0730  138.6100 O   0  0  0  0  0  0  0  0  0  0  0  0
  140.2280  153.4380  138.7140 C   0  0  0  0  0  0  0  0  0  0  0  0
  140.8590  152.1470  139.8350 S   0  0  0  0  0  0  0  0  0  0  0  0
  141.5470  151.1120  138.5020 C   0  0  0  0  0  0  0  0  0  0  0  0
  140.4330  150.5940  137.6560 C   0  0  0  0  0  0  0  0  0  0  0  0
  140.6090  150.4080  136.4230 O   0  0  0  0  0  0  0  0  0  0  0  0
  139.1840  150.3630  138.2170 O   0  0  0  0  0  0  0  0  0  0  0  0
  141.0070  156.1110  134.5390 C   0  0  0  0  0  0  0  0  0  0  0  0
  141.2960  157.2490  135.3030 C   0  0  0  0  0  0  0  0  0  0  0  0
  140.8770  160.3773  137.8001 H   0  0  0  0  0  0  0  0  0  0  0  0
  140.1582  158.7564  137.5125 H   0  0  0  0  0  0  0  0  0  0  0  0
  141.9429  158.9603  137.5125 H   0  0  0  0  0  0  0  0  0  0  0  0
  140.1799  160.4658  135.5401 H   0  0  0  0  0  0  0  0  0  0  0  0
  141.9412  160.0813  135.4384 H   0  0  0  0  0  0  0  0  0  0  0  0
  139.2333  159.4454  133.6371 H   0  0  0  0  0  0  0  0  0  0  0  0
  138.7141  157.3544  132.3353 H   0  0  0  0  0  0  0  0  0  0  0  0
  139.3289  154.5686  132.1653 H   0  0  0  0  0  0  0  0  0  0  0  0
  141.5050  152.0810  135.4920 H   0  0  0  0  0  0  0  0  0  0  0  0
  141.4750  150.7370  134.3020 H   0  0  0  0  0  0  0  0  0  0  0  0
  139.6555  154.1793  139.2909 H   0  0  0  0  0  0  0  0  0  0  0  0
  139.5720  152.9836  137.9569 H   0  0  0  0  0  0  0  0  0  0  0  0
  142.2287  151.7144  137.8836 H   0  0  0  0  0  0  0  0  0  0  0  0
  142.1012  150.2683  138.9390 H   0  0  0  0  0  0  0  0  0  0  0  0
  142.0154  157.2024  136.1339 H   0  0  0  0  0  0  0  0  0  0  0  0
  1  2  1  0
  2  3  1  0
  3  4  2  0
  4  5  1  0
  5  6  2  0
  6  7  1  0
  7  8  2  0
  8  9  1  0
  9 10  1  0
  9 11  2  0
  8 12  1  0
 12 13  1  0
 13 14  2  0
 13 15  1  0
 15 16  1  0
 16 17  2  0
 16 18  1  0
 18 19  1  0
 19 20  1  0
 20 21  1  0
 21 22  2  0
 21 23  1  0
 12 24  1  0
 24 25  2  0
 25  3  1  0
 24  6  1  0
  1 26  1  0
  1 27  1  0
  1 28  1  0
  2 29  1  0
  2 30  1  0
  4 31  1  0
  5 32  1  0
  7 33  1  0
 10 34  1  0
 10 35  1  0
 18 36  1  0
 18 37  1  0
 20 38  1  0
 20 39  1  0
 25 40  1  0
M  CHG  2  15  -1  23  -1
M  END
>  <UniqueID>  (46) 
46

>  <SMILES>  (46) 
CCc1ccc2cc(C(N)=O)n(C(=O)[N-]C(=O)CSCC(=O)[O-])c2c1

>  <Energy>  (46) 
69.50783893640143

>  <Genealogy>  (46) 
CCc1ccc2cc(C(N)=O)n(C(=O)[N-]C(=O)CSCC(=O)[O-])c2c1 (protonated)
CCc1ccc2cc(C(N)=O)n(C(=O)[N-]C(=O)CSCC(=O)[O-])c2c1 (3D coordinates assigned)
CCc1ccc2cc(C(N)=O)n(C(=O)[N-]C(=O)CSCC(=O)[O-])c2c1 (optimized conformer: 69.50783893640143 kcal/mol)

>  <smiles>  (46) 
CCc1ccc2cc(C(N)=O)n(C(=O)NC(=O)CSCC(=O)O)c2c1

>  <score_type>  (46) 
oracle

>  <origin>  (46) 
adg

>  <m_score__min__energy>  (46) 
-7.9299999999999997

>  <m_primary>  (46) 
energy

$$$$
46:0
     RDKit          3D

 49 50  0  0  0  0  0  0  0  0999 V2000
  148.6080  157.2980  132.6530 C   0  0  0  0  0  0  0  0  0  0  0  0
  147.5510  158.3260  132.9280 C   0  0  0  0  0  0  0  0  0  0  0  0
  147.9090  159.6890  133.0850 C   0  0  0  0  0  0  0  0  0  0  0  0
  146.9320  160.6580  133.3750 C   0  0  0  0  0  0  0  0  0  0  0  0
  145.6160  160.2330  133.5120 C   0  0  0  0  0  0  0  0  0  0  0  0
  144.4770  160.9550  133.7780 C   0  0  0  0  0  0  0  0  0  0  0  0
  143.4490  160.0140  133.8170 C   0  0  0  0  0  0  0  0  0  0  0  0
  142.0510  160.3510  134.1670 C   0  0  0  0  0  0  0  0  0  0  0  0
  141.5070  159.9810  135.4300 N   0  0  0  0  0  0  0  0  0  0  0  0
  141.3390  161.0030  133.3510 O   0  0  0  0  0  0  0  0  0  0  0  0
  143.9320  158.7640  133.5650 N   0  0  0  0  0  0  0  0  0  0  0  0
  143.1950  157.5360  133.4380 C   0  0  0  0  0  0  0  0  0  0  0  0
  142.8910  157.1150  132.2890 O   0  0  0  0  0  0  0  0  0  0  0  0
  142.7450  156.7960  134.6380 C   0  0  0  0  0  0  0  0  0  0  0  0
  143.5180  155.9310  135.1380 O   0  0  0  0  0  0  0  0  0  0  0  0
  141.4650  157.0910  135.2600 N   0  0  1  0  0  0  0  0  0  0  0  0
  140.3160  156.9630  134.3220 C   0  0  0  0  0  0  0  0  0  0  0  0
  139.1310  157.9120  134.5900 C   0  0  0  0  0  0  0  0  0  0  0  0
  139.0870  158.2520  135.9490 O   0  0  0  0  0  0  0  0  0  0  0  0
  141.2810  156.4290  136.5810 C   0  0  0  0  0  0  0  0  0  0  0  0
  141.3120  157.3670  137.7740 C   0  0  0  0  0  0  0  0  0  0  0  0
  141.0880  158.5940  137.5900 O   0  0  0  0  0  0  0  0  0  0  0  0
  141.5330  156.8890  139.1160 N   0  0  0  0  0  0  0  0  0  0  0  0
  141.1370  155.5320  139.5150 C   0  0  0  0  0  0  0  0  0  0  0  0
  142.1060  157.8070  140.1010 C   0  0  0  0  0  0  0  0  0  0  0  0
  145.2610  158.9140  133.3870 C   0  0  0  0  0  0  0  0  0  0  0  0
  146.2070  157.9280  133.0850 C   0  0  0  0  0  0  0  0  0  0  0  0
  149.0027  156.9141  133.6053 H   0  0  0  0  0  0  0  0  0  0  0  0
  148.1721  156.4691  132.0760 H   0  0  0  0  0  0  0  0  0  0  0  0
  149.4244  157.7568  132.0760 H   0  0  0  0  0  0  0  0  0  0  0  0
  148.9613  159.9914  132.9789 H   0  0  0  0  0  0  0  0  0  0  0  0
  147.2009  161.7185  133.4897 H   0  0  0  0  0  0  0  0  0  0  0  0
  144.3944  162.0416  133.9279 H   0  0  0  0  0  0  0  0  0  0  0  0
  140.8410  159.1770  135.5070 H   0  0  0  0  0  0  0  0  0  0  0  0
  141.4860  158.1170  135.4770 H   0  0  0  0  0  0  0  0  0  0  0  0
  140.6853  157.1609  133.3049 H   0  0  0  0  0  0  0  0  0  0  0  0
  139.9245  155.9445  134.4615 H   0  0  0  0  0  0  0  0  0  0  0  0
  139.2530  158.8256  133.9897 H   0  0  0  0  0  0  0  0  0  0  0  0
  138.1939  157.4065  134.3137 H   0  0  0  0  0  0  0  0  0  0  0  0
  139.6210  159.0820  136.0550 H   0  0  0  0  0  0  0  0  0  0  0  0
  140.3077  155.9165  136.5741 H   0  0  0  0  0  0  0  0  0  0  0  0
  142.1323  155.7434  136.7045 H   0  0  0  0  0  0  0  0  0  0  0  0
  141.1171  155.4637  140.6127 H   0  0  0  0  0  0  0  0  0  0  0  0
  140.1365  155.3096  139.1156 H   0  0  0  0  0  0  0  0  0  0  0  0
  141.8609  154.8064  139.1156 H   0  0  0  0  0  0  0  0  0  0  0  0
  141.8799  157.4448  141.1148 H   0  0  0  0  0  0  0  0  0  0  0  0
  143.1963  157.8576  139.9643 H   0  0  0  0  0  0  0  0  0  0  0  0
  141.6725  158.8087  139.9643 H   0  0  0  0  0  0  0  0  0  0  0  0
  145.9114  156.8744  132.9735 H   0  0  0  0  0  0  0  0  0  0  0  0
  1  2  1  0
  2  3  2  0
  3  4  1  0
  4  5  2  0
  5  6  1  0
  6  7  2  0
  7  8  1  0
  8  9  1  0
  8 10  2  0
  7 11  1  0
 11 12  1  0
 12 13  2  0
 12 14  1  0
 14 15  2  0
 14 16  1  0
 16 17  1  0
 17 18  1  0
 18 19  1  0
 16 20  1  0
 20 21  1  0
 21 22  2  0
 21 23  1  0
 23 24  1  0
 23 25  1  0
 11 26  1  0
 26 27  2  0
 27  2  1  0
 26  5  1  0
  1 28  1  0
  1 29  1  0
  1 30  1  0
  3 31  1  0
  4 32  1  0
  6 33  1  0
  9 34  1  0
 16 35  1  1
 17 36  1  0
 17 37  1  0
 18 38  1  0
 18 39  1  0
 19 40  1  0
 20 41  1  0
 20 42  1  0
 24 43  1  0
 24 44  1  0
 24 45  1  0
 25 46  1  0
 25 47  1  0
 25 48  1  0
 27 49  1  0
M  CHG  2   9  -1  16   1
M  END
>  <UniqueID>  (47) 
47

>  <SMILES>  (47) 
Cc1ccc2cc(C([NH-])=O)n(C(=O)C(=O)[N@@H+](CCO)CC(=O)N(C)C)c2c1

>  <Energy>  (47) 
97.27124651748382

>  <Genealogy>  (47) 
Cc1ccc2cc(C([NH-])=O)n(C(=O)C(=O)[NH+](CCO)CC(=O)N(C)C)c2c1 (protonated)
Cc1ccc2cc(C([NH-])=O)n(C(=O)C(=O)[N@@H+](CCO)CC(=O)N(C)C)c2c1 (chirality)
Cc1ccc2cc(C([NH-])=O)n(C(=O)C(=O)[N@@H+](CCO)CC(=O)N(C)C)c2c1 (3D coordinates assigned)
Cc1ccc2cc(C([NH-])=O)n(C(=O)C(=O)[N@@H+](CCO)CC(=O)N(C)C)c2c1 (optimized conformer: 97.27124651748382 kcal/mol)

>  <smiles>  (47) 
Cc1ccc2cc(C(N)=O)n(C(=O)C(=O)N(CCO)CC(=O)N(C)C)c2c1

>  <score_type>  (47) 
oracle

>  <origin>  (47) 
adg

>  <m_score__min__energy>  (47) 
-5.9800000000000004

>  <m_primary>  (47) 
energy

$$$$
47:0
     RDKit          3D

 43 44  0  0  0  0  0  0  0  0999 V2000
  139.4830  157.8110  135.8890 C   0  0  0  0  0  0  0  0  0  0  0  0
  138.8120  158.0970  134.6680 O   0  0  0  0  0  0  0  0  0  0  0  0
  139.0750  157.4000  133.4830 C   0  0  0  0  0  0  0  0  0  0  0  0
  138.7310  156.1920  133.3610 O   0  0  0  0  0  0  0  0  0  0  0  0
  139.7260  158.1070  132.3290 C   0  0  2  0  0  0  0  0  0  0  0  0
  141.1570  158.2440  132.6010 N   0  0  0  0  0  0  0  0  0  0  0  0
  141.9570  157.2400  133.2330 C   0  0  0  0  0  0  0  0  0  0  0  0
  141.7560  156.0180  132.9950 O   0  0  0  0  0  0  0  0  0  0  0  0
  143.0260  157.6390  134.1600 C   0  0  0  0  0  0  0  0  0  0  0  0
  143.1720  157.0200  135.2470 O   0  0  0  0  0  0  0  0  0  0  0  0
  143.9000  158.7340  133.8440 N   0  0  0  0  0  0  0  0  0  0  0  0
  143.6090  160.0640  133.8620 C   0  0  0  0  0  0  0  0  0  0  0  0
  142.2750  160.6550  134.1010 C   0  0  0  0  0  0  0  0  0  0  0  0
  141.2780  159.9490  134.8340 N   0  0  0  0  0  0  0  0  0  0  0  0
  142.0030  161.7920  133.6310 O   0  0  0  0  0  0  0  0  0  0  0  0
  144.7460  160.8140  133.5640 C   0  0  0  0  0  0  0  0  0  0  0  0
  145.7500  159.8930  133.3660 C   0  0  0  0  0  0  0  0  0  0  0  0
  147.0910  160.0810  133.0470 C   0  0  0  0  0  0  0  0  0  0  0  0
  147.9050  158.9430  132.9230 C   0  0  0  0  0  0  0  0  0  0  0  0
  147.3750  157.6440  133.1420 C   0  0  0  0  0  0  0  0  0  0  0  0
  148.2490  156.4270  132.9660 C   0  0  0  0  0  0  0  0  0  0  0  0
  149.4670  156.8150  132.4410 F   0  0  0  0  0  0  0  0  0  0  0  0
  148.4600  155.7970  134.1810 F   0  0  0  0  0  0  0  0  0  0  0  0
  147.6540  155.5190  132.1060 F   0  0  0  0  0  0  0  0  0  0  0  0
  146.0020  157.4940  133.4440 C   0  0  0  0  0  0  0  0  0  0  0  0
  145.2140  158.6450  133.5450 C   0  0  0  0  0  0  0  0  0  0  0  0
  139.0690  159.4900  132.1130 C   0  0  2  0  0  0  0  0  0  0  0  0
  138.6930  159.7190  130.6480 C   0  0  0  0  0  0  0  0  0  0  0  0
  139.9330  160.5180  132.5260 O   0  0  0  0  0  0  0  0  0  0  0  0
  138.8370  158.0864  136.7356 H   0  0  0  0  0  0  0  0  0  0  0  0
  139.7134  156.7365  135.9379 H   0  0  0  0  0  0  0  0  0  0  0  0
  140.4177  158.3890  135.9379 H   0  0  0  0  0  0  0  0  0  0  0  0
  139.5906  157.5218  131.4074 H   0  0  0  0  0  0  0  0  0  0  0  0
  140.5210  159.4220  134.3420 H   0  0  0  0  0  0  0  0  0  0  0  0
  144.8243  161.9094  133.5005 H   0  0  0  0  0  0  0  0  0  0  0  0
  147.5015  161.0904  132.8964 H   0  0  0  0  0  0  0  0  0  0  0  0
  148.9650  159.0594  132.6532 H   0  0  0  0  0  0  0  0  0  0  0  0
  145.5642  156.4964  133.5958 H   0  0  0  0  0  0  0  0  0  0  0  0
  138.1510  159.5050  132.7189 H   0  0  0  0  0  0  0  0  0  0  0  0
  137.7546  160.2905  130.5953 H   0  0  0  0  0  0  0  0  0  0  0  0
  139.4942  160.2827  130.1476 H   0  0  0  0  0  0  0  0  0  0  0  0
  138.5599  158.7485  130.1476 H   0  0  0  0  0  0  0  0  0  0  0  0
  140.4630  160.1650  133.2870 H   0  0  0  0  0  0  0  0  0  0  0  0
  1  2  1  0
  2  3  1  0
  3  4  2  0
  3  5  1  0
  5  6  1  0
  6  7  1  0
  7  8  2  0
  7  9  1  0
  9 10  2  0
  9 11  1  0
 11 12  1  0
 12 13  1  0
 13 14  1  0
 13 15  2  0
 12 16  2  0
 16 17  1  0
 17 18  2  0
 18 19  1  0
 19 20  2  0
 20 21  1  0
 21 22  1  0
 21 23  1  0
 21 24  1  0
 20 25  1  0
 25 26  2  0
  5 27  1  0
 27 28  1  0
 27 29  1  0
 26 11  1  0
 26 17  1  0
  1 30  1  0
  1 31  1  0
  1 32  1  0
  5 33  1  6
 14 34  1  0
 16 35  1  0
 18 36  1  0
 19 37  1  0
 25 38  1  0
 27 39  1  1
 28 40  1  0
 28 41  1  0
 28 42  1  0
 29 43  1  0
M  CHG  2   6  -1  14  -1
M  END
>  <UniqueID>  (48) 
48

>  <SMILES>  (48) 
COC(=O)[C@H]([N-]C(=O)C(=O)n1c(C([NH-])=O)cc2ccc(C(F)(F)F)cc21)[C@H](C)O

>  <Energy>  (48) 
76.2617749667369

>  <Genealogy>  (48) 
COC(=O)C([N-]C(=O)C(=O)n1c(C([NH-])=O)cc2ccc(C(F)(F)F)cc21)C(C)O (protonated)
COC(=O)[C@H]([N-]C(=O)C(=O)n1c(C([NH-])=O)cc2ccc(C(F)(F)F)cc21)[C@H](C)O (chirality)
COC(=O)[C@H]([N-]C(=O)C(=O)n1c(C([NH-])=O)cc2ccc(C(F)(F)F)cc21)[C@H](C)O (3D coordinates assigned)
COC(=O)[C@H]([N-]C(=O)C(=O)n1c(C([NH-])=O)cc2ccc(C(F)(F)F)cc21)[C@H](C)O (optimized conformer: 76.2617749667369 kcal/mol)

>  <smiles>  (48) 
COC(=O)C(NC(=O)C(=O)n1c(C(N)=O)cc2ccc(C(F)(F)F)cc21)C(C)O

>  <score_type>  (48) 
oracle

>  <origin>  (48) 
adg

>  <m_score__min__energy>  (48) 
-6.4800000000000004

>  <m_primary>  (48) 
energy

$$$$
48:0
     RDKit          3D

 39 40  0  0  0  0  0  0  0  0999 V2000
  149.3780  161.8500  130.5210 C   0  0  0  0  0  0  0  0  0  0  0  0
  149.0040  160.5400  131.1470 C   0  0  0  0  0  0  0  0  0  0  0  0
  149.9240  159.4630  131.1450 C   0  0  0  0  0  0  0  0  0  0  0  0
  149.5950  158.2370  131.7490 C   0  0  0  0  0  0  0  0  0  0  0  0
  148.3510  158.1280  132.3630 C   0  0  0  0  0  0  0  0  0  0  0  0
  147.7680  157.0560  133.0020 C   0  0  0  0  0  0  0  0  0  0  0  0
  146.5170  157.5090  133.4160 C   0  0  0  0  0  0  0  0  0  0  0  0
  145.5750  156.6910  134.2100 C   0  0  0  0  0  0  0  0  0  0  0  0
  144.2090  156.5590  133.8210 N   0  0  0  0  0  0  0  0  0  0  0  0
  145.9710  156.1310  135.2660 O   0  0  0  0  0  0  0  0  0  0  0  0
  146.3330  158.8070  133.0460 N   0  0  0  0  0  0  0  0  0  0  0  0
  145.1600  159.6150  133.2210 C   0  0  0  0  0  0  0  0  0  0  0  0
  145.2820  160.8550  133.4050 O   0  0  0  0  0  0  0  0  0  0  0  0
  143.8600  159.0050  133.1810 N   0  0  0  0  0  0  0  0  0  0  0  0
  142.6340  159.7120  133.4230 C   0  0  0  0  0  0  0  0  0  0  0  0
  142.6480  160.9150  133.7970 O   0  0  0  0  0  0  0  0  0  0  0  0
  141.3090  159.0170  133.2230 C   0  0  0  0  0  0  0  0  0  0  0  0
  141.2650  157.6510  133.7930 N   0  0  2  0  0  0  0  0  0  0  0  0
  140.2380  156.8030  133.1610 C   0  0  0  0  0  0  0  0  0  0  0  0
  141.1200  157.6810  135.2310 C   0  0  0  0  0  0  0  0  0  0  0  0
  142.1270  157.6080  135.9870 O   0  0  0  0  0  0  0  0  0  0  0  0
  139.8520  157.7400  135.7970 O   0  0  0  0  0  0  0  0  0  0  0  0
  147.4630  159.1710  132.4020 C   0  0  0  0  0  0  0  0  0  0  0  0
  147.7560  160.3960  131.7920 C   0  0  0  0  0  0  0  0  0  0  0  0
  149.5883  162.5868  131.3103 H   0  0  0  0  0  0  0  0  0  0  0  0
  150.2737  161.7156  129.8967 H   0  0  0  0  0  0  0  0  0  0  0  0
  148.5464  162.2088  129.8967 H   0  0  0  0  0  0  0  0  0  0  0  0
  150.9063  159.5873  130.6658 H   0  0  0  0  0  0  0  0  0  0  0  0
  150.2982  157.3912  131.7367 H   0  0  0  0  0  0  0  0  0  0  0  0
  148.1985  156.0551  133.1533 H   0  0  0  0  0  0  0  0  0  0  0  0
  143.4520  157.0490  134.3480 H   0  0  0  0  0  0  0  0  0  0  0  0
  143.8050  157.9930  132.9260 H   0  0  0  0  0  0  0  0  0  0  0  0
  140.5240  159.6198  133.7031 H   0  0  0  0  0  0  0  0  0  0  0  0
  141.1561  158.9193  132.1381 H   0  0  0  0  0  0  0  0  0  0  0  0
  142.1900  157.2040  133.5860 H   0  0  0  0  0  0  0  0  0  0  0  0
  139.6397  156.3090  133.9408 H   0  0  0  0  0  0  0  0  0  0  0  0
  139.5821  157.4262  132.5353 H   0  0  0  0  0  0  0  0  0  0  0  0
  140.7258  156.0411  132.5353 H   0  0  0  0  0  0  0  0  0  0  0  0
  147.0332  161.2249  131.8144 H   0  0  0  0  0  0  0  0  0  0  0  0
  1  2  1  0
  2  3  2  0
  3  4  1  0
  4  5  2  0
  5  6  1  0
  6  7  2  0
  7  8  1  0
  8  9  1  0
  8 10  2  0
  7 11  1  0
 11 12  1  0
 12 13  2  0
 12 14  1  0
 14 15  1  0
 15 16  2  0
 15 17  1  0
 17 18  1  0
 18 19  1  0
 18 20  1  0
 20 21  2  0
 20 22  1  0
 11 23  1  0
 23 24  2  0
 24  2  1  0
 23  5  1  0
  1 25  1  0
  1 26  1  0
  1 27  1  0
  3 28  1  0
  4 29  1  0
  6 30  1  0
  9 31  1  0
 14 32  1  0
 17 33  1  0
 17 34  1  0
 18 35  1  1
 19 36  1  0
 19 37  1  0
 19 38  1  0
 24 39  1  0
M  CHG  3   9  -1  18   1  22  -1
M  END
>  <UniqueID>  (49) 
49

>  <SMILES>  (49) 
Cc1ccc2cc(C([NH-])=O)n(C(=O)NC(=O)C[N@H+](C)C(=O)[O-])c2c1

>  <Energy>  (49) 
80.85330824708565

>  <Genealogy>  (49) 
Cc1ccc2cc(C([NH-])=O)n(C(=O)NC(=O)C[NH+](C)C(=O)[O-])c2c1 (protonated)
Cc1ccc2cc(C([NH-])=O)n(C(=O)NC(=O)C[N@H+](C)C(=O)[O-])c2c1 (chirality)
Cc1ccc2cc(C([NH-])=O)n(C(=O)NC(=O)C[N@H+](C)C(=O)[O-])c2c1 (3D coordinates assigned)
Cc1ccc2cc(C([NH-])=O)n(C(=O)NC(=O)C[N@H+](C)C(=O)[O-])c2c1 (optimized conformer: 80.85330824708565 kcal/mol)

>  <smiles>  (49) 
Cc1ccc2cc(C(N)=O)n(C(=O)NC(=O)CN(C)C(=O)O)c2c1

>  <score_type>  (49) 
oracle

>  <origin>  (49) 
adg

>  <m_score__min__energy>  (49) 
-6.0300000000000002

>  <m_primary>  (49) 
energy

$$$$
49:0
     RDKit          3D

 37 38  0  0  0  0  0  0  0  0999 V2000
  141.1750  156.1690  133.0340 N   0  0  0  0  0  0  0  0  0  0  0  0
  141.5190  157.3630  133.7420 C   0  0  0  0  0  0  0  0  0  0  0  0
  140.6400  157.9240  134.4480 O   0  0  0  0  0  0  0  0  0  0  0  0
  142.8860  157.9360  133.6630 C   0  0  0  0  0  0  0  0  0  0  0  0
  143.2030  159.2840  133.8490 C   0  0  0  0  0  0  0  0  0  0  0  0
  144.5650  159.3720  133.6510 C   0  0  0  0  0  0  0  0  0  0  0  0
  145.4140  160.4750  133.7000 C   0  0  0  0  0  0  0  0  0  0  0  0
  146.7820  160.2650  133.4520 C   0  0  0  0  0  0  0  0  0  0  0  0
  147.2740  158.9630  133.1810 C   0  0  0  0  0  0  0  0  0  0  0  0
  148.7280  158.7500  132.8800 C   0  0  0  0  0  0  0  0  0  0  0  0
  149.2320  159.7030  131.0350 I   0  0  0  0  0  0  0  0  0  0  0  0
  146.3810  157.8720  133.1310 C   0  0  0  0  0  0  0  0  0  0  0  0
  145.0260  158.1160  133.3660 C   0  0  0  0  0  0  0  0  0  0  0  0
  144.0120  157.2300  133.3640 N   0  0  0  0  0  0  0  0  0  0  0  0
  144.1260  155.8320  133.0730 C   0  0  0  0  0  0  0  0  0  0  0  0
  143.9980  155.4370  131.8820 O   0  0  0  0  0  0  0  0  0  0  0  0
  144.3490  154.8780  134.1320 N   0  0  0  0  0  0  0  0  0  0  0  0
  143.9850  153.4670  133.9380 C   0  0  0  0  0  0  0  0  0  0  0  0
  142.5260  153.2610  134.2100 C   0  0  0  0  0  0  0  0  0  0  0  0
  141.6630  153.6840  133.3970 O   0  0  0  0  0  0  0  0  0  0  0  0
  142.1180  152.6340  135.3810 O   0  0  0  0  0  0  0  0  0  0  0  0
  145.0420  155.2870  135.3610 C   0  0  0  0  0  0  0  0  0  0  0  0
  146.3980  154.6610  135.4420 C   0  0  0  0  0  0  0  0  0  0  0  0
  147.3310  155.0650  134.6970 O   0  0  0  0  0  0  0  0  0  0  0  0
  146.6350  153.6270  136.3390 O   0  0  0  0  0  0  0  0  0  0  0  0
  140.2030  155.7920  133.0940 H   0  0  0  0  0  0  0  0  0  0  0  0
  141.8790  155.6250  132.4910 H   0  0  0  0  0  0  0  0  0  0  0  0
  142.5121  160.1023  134.1003 H   0  0  0  0  0  0  0  0  0  0  0  0
  145.0263  161.4794  133.9257 H   0  0  0  0  0  0  0  0  0  0  0  0
  147.4764  161.1179  133.4683 H   0  0  0  0  0  0  0  0  0  0  0  0
  149.3354  159.1790  133.6905 H   0  0  0  0  0  0  0  0  0  0  0  0
  148.9279  157.6714  132.7983 H   0  0  0  0  0  0  0  0  0  0  0  0
  146.7422  156.8562  132.9127 H   0  0  0  0  0  0  0  0  0  0  0  0
  144.2048  153.1755  132.9004 H   0  0  0  0  0  0  0  0  0  0  0  0
  144.5685  152.8490  134.6363 H   0  0  0  0  0  0  0  0  0  0  0  0
  145.1497  156.3817  135.3666 H   0  0  0  0  0  0  0  0  0  0  0  0
  144.4492  154.9551  136.2261 H   0  0  0  0  0  0  0  0  0  0  0  0
  1  2  1  0
  2  3  2  0
  2  4  1  0
  4  5  2  0
  5  6  1  0
  6  7  2  0
  7  8  1  0
  8  9  2  0
  9 10  1  0
 10 11  1  0
  9 12  1  0
 12 13  2  0
 13 14  1  0
 14 15  1  0
 15 16  2  0
 15 17  1  0
 17 18  1  0
 18 19  1  0
 19 20  2  0
 19 21  1  0
 17 22  1  0
 22 23  1  0
 23 24  2  0
 23 25  1  0
 14  4  1  0
 13  6  1  0
  1 26  1  0
  1 27  1  0
  5 28  1  0
  7 29  1  0
  8 30  1  0
 10 31  1  0
 10 32  1  0
 12 33  1  0
 18 34  1  0
 18 35  1  0
 22 36  1  0
 22 37  1  0
M  CHG  2  21  -1  25  -1
M  END
>  <UniqueID>  (50) 
50

>  <SMILES>  (50) 
NC(=O)c1cc2ccc(CI)cc2n1C(=O)N(CC(=O)[O-])CC(=O)[O-]

>  <Energy>  (50) 
71.65849070926527

>  <Genealogy>  (50) 
NC(=O)c1cc2ccc(CI)cc2n1C(=O)N(CC(=O)[O-])CC(=O)[O-] (protonated)
NC(=O)c1cc2ccc(CI)cc2n1C(=O)N(CC(=O)[O-])CC(=O)[O-] (3D coordinates assigned)
NC(=O)c1cc2ccc(CI)cc2n1C(=O)N(CC(=O)[O-])CC(=O)[O-] (optimized conformer: 71.65849070926527 kcal/mol)

>  <smiles>  (50) 
NC(=O)c1cc2ccc(CI)cc2n1C(=O)N(CC(=O)O)CC(=O)O

>  <score_type>  (50) 
oracle

>  <origin>  (50) 
adg

>  <m_score__min__energy>  (50) 
-7.8899999999999997

>  <m_primary>  (50) 
energy

$$$$
50:0
     RDKit          3D

 39 40  0  0  0  0  0  0  0  0999 V2000
  148.4920  158.2690  134.2610 N   0  0  0  0  0  0  0  0  0  0  0  0
  147.6780  159.0630  133.3940 C   0  0  0  0  0  0  0  0  0  0  0  0
  148.2360  159.7650  132.5090 O   0  0  0  0  0  0  0  0  0  0  0  0
  146.2020  159.0580  133.5160 C   0  0  0  0  0  0  0  0  0  0  0  0
  145.3980  160.1970  133.4690 C   0  0  0  0  0  0  0  0  0  0  0  0
  144.1120  159.7460  133.6730 C   0  0  0  0  0  0  0  0  0  0  0  0
  142.9130  160.4490  133.7330 C   0  0  0  0  0  0  0  0  0  0  0  0
  141.7320  159.7180  133.9510 C   0  0  0  0  0  0  0  0  0  0  0  0
  141.7650  158.3060  134.0810 C   0  0  0  0  0  0  0  0  0  0  0  0
  140.4980  157.5380  134.3610 C   0  0  0  0  0  0  0  0  0  0  0  0
  139.9710  157.0210  133.1900 F   0  0  0  0  0  0  0  0  0  0  0  0
  139.5460  158.3590  134.9390 F   0  0  0  0  0  0  0  0  0  0  0  0
  140.7790  156.4970  135.2260 F   0  0  0  0  0  0  0  0  0  0  0  0
  143.0080  157.6320  134.0360 C   0  0  0  0  0  0  0  0  0  0  0  0
  144.1660  158.3870  133.8340 C   0  0  0  0  0  0  0  0  0  0  0  0
  145.4410  157.9530  133.7490 N   0  0  0  0  0  0  0  0  0  0  0  0
  145.8840  156.5870  133.8180 C   0  0  0  0  0  0  0  0  0  0  0  0
  146.7030  156.2480  134.7150 O   0  0  0  0  0  0  0  0  0  0  0  0
  145.3990  155.5670  132.8710 C   0  0  0  0  0  0  0  0  0  0  0  0
  144.6210  154.5480  133.2480 C   0  0  0  0  0  0  0  0  0  0  0  0
  144.1720  153.5150  132.2570 C   0  0  0  0  0  0  0  0  0  0  0  0
  142.7110  153.3390  132.3230 N   0  0  0  0  0  0  0  0  0  0  0  0
  142.2200  153.2240  133.7060 C   0  0  0  0  0  0  0  0  0  0  0  0
  141.7780  151.8260  134.0050 C   0  0  0  0  0  0  0  0  0  0  0  0
  141.8150  150.9430  133.1090 O   0  0  0  0  0  0  0  0  0  0  0  0
  141.3560  151.4900  135.2850 O   0  0  0  0  0  0  0  0  0  0  0  0
  149.5290  158.2580  134.1380 H   0  0  0  0  0  0  0  0  0  0  0  0
  148.0820  157.7250  135.0510 H   0  0  0  0  0  0  0  0  0  0  0  0
  145.7219  161.2352  133.3040 H   0  0  0  0  0  0  0  0  0  0  0  0
  142.8897  161.5423  133.6136 H   0  0  0  0  0  0  0  0  0  0  0  0
  140.7705  160.2477  134.0216 H   0  0  0  0  0  0  0  0  0  0  0  0
  143.0614  156.5400  134.1571 H   0  0  0  0  0  0  0  0  0  0  0  0
  145.6887  155.6477  131.8129 H   0  0  0  0  0  0  0  0  0  0  0  0
  144.3057  154.4655  134.2986 H   0  0  0  0  0  0  0  0  0  0  0  0
  144.4524  153.8390  131.2439 H   0  0  0  0  0  0  0  0  0  0  0  0
  144.6573  152.5573  132.4962 H   0  0  0  0  0  0  0  0  0  0  0  0
  142.4820  152.4370  131.8430 H   0  0  0  0  0  0  0  0  0  0  0  0
  143.0283  153.5014  134.3986 H   0  0  0  0  0  0  0  0  0  0  0  0
  141.3586  153.8971  133.8286 H   0  0  0  0  0  0  0  0  0  0  0  0
  1  2  1  0
  2  3  2  0
  2  4  1  0
  4  5  2  0
  5  6  1  0
  6  7  2  0
  7  8  1  0
  8  9  2  0
  9 10  1  0
 10 11  1  0
 10 12  1  0
 10 13  1  0
  9 14  1  0
 14 15  2  0
 15 16  1  0
 16 17  1  0
 17 18  2  0
 17 19  1  0
 19 20  2  3
 20 21  1  0
 21 22  1  0
 22 23  1  0
 23 24  1  0
 24 25  2  0
 24 26  1  0
 16  4  1  0
 15  6  1  0
  1 27  1  0
  1 28  1  0
  5 29  1  0
  7 30  1  0
  8 31  1  0
 14 32  1  0
 19 33  1  0
 20 34  1  0
 21 35  1  0
 21 36  1  0
 22 37  1  0
 23 38  1  0
 23 39  1  0
M  CHG  1  26  -1
M  END
>  <UniqueID>  (51) 
51

>  <SMILES>  (51) 
NC(=O)c1cc2ccc(C(F)(F)F)cc2n1C(=O)C=CCNCC(=O)[O-]

>  <Energy>  (51) 
75.33989320820316

>  <Genealogy>  (51) 
NC(=O)c1cc2ccc(C(F)(F)F)cc2n1C(=O)C=CCNCC(=O)[O-] (protonated)
NC(=O)c1cc2ccc(C(F)(F)F)cc2n1C(=O)C=CCNCC(=O)[O-] (3D coordinates assigned)
NC(=O)c1cc2ccc(C(F)(F)F)cc2n1C(=O)C=CCNCC(=O)[O-] (optimized conformer: 75.33989320820316 kcal/mol)

>  <smiles>  (51) 
NC(=O)c1cc2ccc(C(F)(F)F)cc2n1C(=O)C=CCNCC(=O)O

>  <score_type>  (51) 
oracle

>  <origin>  (51) 
adg

>  <m_score__min__energy>  (51) 
-6.9500000000000002

>  <m_primary>  (51) 
energy

$$$$
51:0
     RDKit          3D

 52 53  0  0  0  0  0  0  0  0999 V2000
  139.3580  159.2700  130.6800 C   0  0  0  0  0  0  0  0  0  0  0  0
  139.5960  158.6590  132.0280 C   0  0  0  0  0  0  0  0  0  0  0  0
  138.5540  158.6210  132.9880 C   0  0  0  0  0  0  0  0  0  0  0  0
  138.7610  158.0250  134.2450 C   0  0  0  0  0  0  0  0  0  0  0  0
  140.0080  157.4630  134.5020 C   0  0  0  0  0  0  0  0  0  0  0  0
  140.4840  156.8410  135.6350 C   0  0  0  0  0  0  0  0  0  0  0  0
  141.7940  156.4730  135.3300 C   0  0  0  0  0  0  0  0  0  0  0  0
  142.6620  155.7190  136.2600 C   0  0  0  0  0  0  0  0  0  0  0  0
  144.0310  155.4510  135.9520 N   0  0  0  0  0  0  0  0  0  0  0  0
  142.1720  155.2640  137.3280 O   0  0  0  0  0  0  0  0  0  0  0  0
  142.1190  156.8660  134.0670 N   0  0  0  0  0  0  0  0  0  0  0  0
  143.3940  156.7800  133.4090 C   0  0  0  0  0  0  0  0  0  0  0  0
  143.7830  155.6750  132.9420 O   0  0  0  0  0  0  0  0  0  0  0  0
  144.2370  158.0060  133.2000 C   0  0  0  0  0  0  0  0  0  0  0  0
  145.6380  157.8470  133.7440 C   0  0  0  0  0  0  0  0  0  0  0  0
  145.8210  157.1970  134.8120 O   0  0  0  0  0  0  0  0  0  0  0  0
  146.7720  158.4550  133.0810 N   0  0  0  0  0  0  0  0  0  0  0  0
  146.8160  159.9140  132.9450 C   0  0  0  0  0  0  0  0  0  0  0  0
  147.8910  157.6440  132.5770 C   0  0  0  0  0  0  0  0  0  0  0  0
  148.1010  156.4380  133.4580 C   0  0  0  0  0  0  0  0  0  0  0  0
  148.4660  156.6320  134.6500 O   0  0  0  0  0  0  0  0  0  0  0  0
  147.9200  155.0850  132.9770 N   0  0  0  0  0  0  0  0  0  0  0  0
  149.0700  154.2510  132.6090 C   0  0  0  0  0  0  0  0  0  0  0  0
  146.5730  154.4980  132.9140 C   0  0  0  0  0  0  0  0  0  0  0  0
  146.2160  153.8000  134.2300 C   0  0  0  0  0  0  0  0  0  0  0  0
  146.3420  154.6790  135.3150 O   0  0  0  0  0  0  0  0  0  0  0  0
  141.0150  157.4650  133.5710 C   0  0  0  0  0  0  0  0  0  0  0  0
  140.8420  158.0610  132.3190 C   0  0  0  0  0  0  0  0  0  0  0  0
  138.9613  160.2885  130.8039 H   0  0  0  0  0  0  0  0  0  0  0  0
  140.3059  159.3109  130.1234 H   0  0  0  0  0  0  0  0  0  0  0  0
  138.6321  158.6590  130.1234 H   0  0  0  0  0  0  0  0  0  0  0  0
  137.5750  159.0614  132.7479 H   0  0  0  0  0  0  0  0  0  0  0  0
  137.9624  158.0037  135.0012 H   0  0  0  0  0  0  0  0  0  0  0  0
  139.9456  156.6708  136.5790 H   0  0  0  0  0  0  0  0  0  0  0  0
  144.6370  154.9660  136.6510 H   0  0  0  0  0  0  0  0  0  0  0  0
  144.4220  155.6430  135.0050 H   0  0  0  0  0  0  0  0  0  0  0  0
  144.2991  158.2112  132.1211 H   0  0  0  0  0  0  0  0  0  0  0  0
  143.7603  158.8350  133.7437 H   0  0  0  0  0  0  0  0  0  0  0  0
  146.8299  160.3751  133.9436 H   0  0  0  0  0  0  0  0  0  0  0  0
  147.7233  160.2038  132.3947 H   0  0  0  0  0  0  0  0  0  0  0  0
  145.9278  160.2579  132.3947 H   0  0  0  0  0  0  0  0  0  0  0  0
  147.6656  157.3108  131.5532 H   0  0  0  0  0  0  0  0  0  0  0  0
  148.8061  158.2544  132.5814 H   0  0  0  0  0  0  0  0  0  0  0  0
  149.5679  153.8899  133.5210 H   0  0  0  0  0  0  0  0  0  0  0  0
  148.7248  153.3919  132.0151 H   0  0  0  0  0  0  0  0  0  0  0  0
  149.7794  154.8460  132.0151 H   0  0  0  0  0  0  0  0  0  0  0  0
  145.8415  155.2963  132.7203 H   0  0  0  0  0  0  0  0  0  0  0  0
  146.5532  153.7525  132.1054 H   0  0  0  0  0  0  0  0  0  0  0  0
  145.1776  153.4409  134.1766 H   0  0  0  0  0  0  0  0  0  0  0  0
  146.9077  152.9578  134.3790 H   0  0  0  0  0  0  0  0  0  0  0  0
  146.6020  155.5600  134.9370 H   0  0  0  0  0  0  0  0  0  0  0  0
  141.6557  158.0644  131.5788 H   0  0  0  0  0  0  0  0  0  0  0  0
  1  2  1  0
  2  3  2  0
  3  4  1  0
  4  5  2  0
  5  6  1  0
  6  7  2  0
  7  8  1  0
  8  9  1  0
  8 10  2  0
  7 11  1  0
 11 12  1  0
 12 13  2  0
 12 14  1  0
 14 15  1  0
 15 16  2  0
 15 17  1  0
 17 18  1  0
 17 19  1  0
 19 20  1  0
 20 21  2  0
 20 22  1  0
 22 23  1  0
 22 24  1  0
 24 25  1  0
 25 26  1  0
 11 27  1  0
 27 28  2  0
 28  2  1  0
 27  5  1  0
  1 29  1  0
  1 30  1  0
  1 31  1  0
  3 32  1  0
  4 33  1  0
  6 34  1  0
  9 35  1  0
  9 36  1  0
 14 37  1  0
 14 38  1  0
 18 39  1  0
 18 40  1  0
 18 41  1  0
 19 42  1  0
 19 43  1  0
 23 44  1  0
 23 45  1  0
 23 46  1  0
 24 47  1  0
 24 48  1  0
 25 49  1  0
 25 50  1  0
 26 51  1  0
 28 52  1  0
M  END
>  <UniqueID>  (52) 
52

>  <SMILES>  (52) 
Cc1ccc2cc(C(N)=O)n(C(=O)CC(=O)N(C)CC(=O)N(C)CCO)c2c1

>  <Energy>  (52) 
83.4649999582796

>  <Genealogy>  (52) 
Cc1ccc2cc(C(N)=O)n(C(=O)CC(=O)N(C)CC(=O)N(C)CCO)c2c1 (3D coordinates assigned)
Cc1ccc2cc(C(N)=O)n(C(=O)CC(=O)N(C)CC(=O)N(C)CCO)c2c1 (optimized conformer: 83.4649999582796 kcal/mol)

>  <smiles>  (52) 
Cc1ccc2cc(C(N)=O)n(C(=O)CC(=O)N(C)CC(=O)N(C)CCO)c2c1

>  <score_type>  (52) 
oracle

>  <origin>  (52) 
adg

>  <m_score__min__energy>  (52) 
-7.29

>  <m_primary>  (52) 
energy

$$$$
52:0
     RDKit          3D

 44 45  0  0  0  0  0  0  0  0999 V2000
  143.8080  160.1180  134.1190 C   0  0  0  0  0  0  0  0  0  0  0  0
  145.0260  160.3840  133.3620 N   0  0  0  0  0  0  0  0  0  0  0  0
  146.0780  159.4170  133.1820 C   0  0  0  0  0  0  0  0  0  0  0  0
  147.4090  159.8120  132.8780 C   0  0  0  0  0  0  0  0  0  0  0  0
  148.4220  158.8520  132.7080 C   0  0  0  0  0  0  0  0  0  0  0  0
  148.0800  157.5110  132.8480 C   0  0  0  0  0  0  0  0  0  0  0  0
  148.8590  156.3780  132.7470 C   0  0  0  0  0  0  0  0  0  0  0  0
  147.9910  155.3090  132.9850 C   0  0  0  0  0  0  0  0  0  0  0  0
  148.3730  153.8800  132.9150 C   0  0  0  0  0  0  0  0  0  0  0  0
  147.8070  152.9220  133.8130 N   0  0  0  0  0  0  0  0  0  0  0  0
  149.2120  153.4930  132.0600 O   0  0  0  0  0  0  0  0  0  0  0  0
  146.7340  155.7730  133.2290 N   0  0  0  0  0  0  0  0  0  0  0  0
  145.5570  155.0100  133.5340 C   0  0  0  0  0  0  0  0  0  0  0  0
  145.2230  154.0680  132.7660 O   0  0  0  0  0  0  0  0  0  0  0  0
  144.7330  155.3360  134.6740 N   0  0  0  0  0  0  0  0  0  0  0  0
  144.9640  154.7210  135.9900 C   0  0  0  0  0  0  0  0  0  0  0  0
  146.3750  154.2360  136.1380 C   0  0  0  0  0  0  0  0  0  0  0  0
  147.3400  154.9620  135.7830 O   0  0  0  0  0  0  0  0  0  0  0  0
  146.6240  152.9910  136.7010 O   0  0  0  0  0  0  0  0  0  0  0  0
  143.5170  156.0700  134.4550 C   0  0  0  0  0  0  0  0  0  0  0  0
  143.4380  157.2590  134.8680 O   0  0  0  0  0  0  0  0  0  0  0  0
  142.3890  155.4650  133.7920 N   0  0  0  0  0  0  0  0  0  0  0  0
  142.3290  154.0130  133.6070 C   0  0  0  0  0  0  0  0  0  0  0  0
  141.2620  156.3080  133.3820 C   0  0  0  0  0  0  0  0  0  0  0  0
  146.8030  157.1150  133.1320 C   0  0  0  0  0  0  0  0  0  0  0  0
  145.7740  158.0440  133.3110 C   0  0  0  0  0  0  0  0  0  0  0  0
  144.0277  160.1660  135.1958 H   0  0  0  0  0  0  0  0  0  0  0  0
  143.0472  160.8712  133.8661 H   0  0  0  0  0  0  0  0  0  0  0  0
  143.4305  159.1162  133.8661 H   0  0  0  0  0  0  0  0  0  0  0  0
  145.1320  161.3300  132.9320 H   0  0  0  0  0  0  0  0  0  0  0  0
  147.6492  160.8805  132.7746 H   0  0  0  0  0  0  0  0  0  0  0  0
  149.4535  159.1522  132.4715 H   0  0  0  0  0  0  0  0  0  0  0  0
  149.9353  156.3264  132.5260 H   0  0  0  0  0  0  0  0  0  0  0  0
  147.0580  153.1810  134.4910 H   0  0  0  0  0  0  0  0  0  0  0  0
  148.1100  151.9220  133.7690 H   0  0  0  0  0  0  0  0  0  0  0  0
  144.7600  155.4669  136.7723 H   0  0  0  0  0  0  0  0  0  0  0  0
  144.2929  153.8546  136.0851 H   0  0  0  0  0  0  0  0  0  0  0  0
  142.3086  153.5187  134.5895 H   0  0  0  0  0  0  0  0  0  0  0  0
  141.4193  153.7521  133.0463 H   0  0  0  0  0  0  0  0  0  0  0  0
  143.2141  153.6779  133.0463 H   0  0  0  0  0  0  0  0  0  0  0  0
  140.7478  156.6926  134.2752 H   0  0  0  0  0  0  0  0  0  0  0  0
  141.6342  157.1512  132.7816 H   0  0  0  0  0  0  0  0  0  0  0  0
  140.5583  155.7128  132.7816 H   0  0  0  0  0  0  0  0  0  0  0  0
  144.7517  157.7134  133.5468 H   0  0  0  0  0  0  0  0  0  0  0  0
  1  2  1  0
  2  3  1  0
  3  4  2  0
  4  5  1  0
  5  6  2  0
  6  7  1  0
  7  8  2  0
  8  9  1  0
  9 10  1  0
  9 11  2  0
  8 12  1  0
 12 13  1  0
 13 14  2  0
 13 15  1  0
 15 16  1  0
 16 17  1  0
 17 18  2  0
 17 19  1  0
 15 20  1  0
 20 21  2  0
 20 22  1  0
 22 23  1  0
 22 24  1  0
 12 25  1  0
 25 26  2  0
 26  3  1  0
 25  6  1  0
  1 27  1  0
  1 28  1  0
  1 29  1  0
  2 30  1  0
  4 31  1  0
  5 32  1  0
  7 33  1  0
 10 34  1  0
 10 35  1  0
 16 36  1  0
 16 37  1  0
 23 38  1  0
 23 39  1  0
 23 40  1  0
 24 41  1  0
 24 42  1  0
 24 43  1  0
 26 44  1  0
M  CHG  1  19  -1
M  END
>  <UniqueID>  (53) 
53

>  <SMILES>  (53) 
CNc1ccc2cc(C(N)=O)n(C(=O)N(CC(=O)[O-])C(=O)N(C)C)c2c1

>  <Energy>  (53) 
84.05895749275935

>  <Genealogy>  (53) 
CNc1ccc2cc(C(N)=O)n(C(=O)N(CC(=O)[O-])C(=O)N(C)C)c2c1 (protonated)
CNc1ccc2cc(C(N)=O)n(C(=O)N(CC(=O)[O-])C(=O)N(C)C)c2c1 (3D coordinates assigned)
CNc1ccc2cc(C(N)=O)n(C(=O)N(CC(=O)[O-])C(=O)N(C)C)c2c1 (optimized conformer: 84.05895749275935 kcal/mol)

>  <smiles>  (53) 
CNc1ccc2cc(C(N)=O)n(C(=O)N(CC(=O)O)C(=O)N(C)C)c2c1

>  <score_type>  (53) 
oracle

>  <origin>  (53) 
adg

>  <m_score__min__energy>  (53) 
-7.1100000000000003

>  <m_primary>  (53) 
energy

$$$$
53:0
     RDKit          3D

 45 46  0  0  0  0  0  0  0  0999 V2000
  142.1430  159.9270  133.7920 N   0  0  0  0  0  0  0  0  0  0  0  0
  143.4590  160.4770  133.7000 C   0  0  0  0  0  0  0  0  0  0  0  0
  143.6010  161.7300  133.7320 O   0  0  0  0  0  0  0  0  0  0  0  0
  144.6440  159.6020  133.5560 C   0  0  0  0  0  0  0  0  0  0  0  0
  145.9670  160.0450  133.5960 C   0  0  0  0  0  0  0  0  0  0  0  0
  146.7370  158.9070  133.4790 C   0  0  0  0  0  0  0  0  0  0  0  0
  148.1200  158.7570  133.4470 C   0  0  0  0  0  0  0  0  0  0  0  0
  148.6370  157.4600  133.2910 C   0  0  0  0  0  0  0  0  0  0  0  0
  147.7700  156.3430  133.1460 C   0  0  0  0  0  0  0  0  0  0  0  0
  148.3370  154.9540  133.0150 C   0  0  0  0  0  0  0  0  0  0  0  0
  149.5740  155.0230  132.4000 F   0  0  0  0  0  0  0  0  0  0  0  0
  148.4840  154.3670  134.2600 F   0  0  0  0  0  0  0  0  0  0  0  0
  147.5000  154.1520  132.2560 F   0  0  0  0  0  0  0  0  0  0  0  0
  146.3710  156.5370  133.2090 C   0  0  0  0  0  0  0  0  0  0  0  0
  145.8890  157.8370  133.3800 C   0  0  0  0  0  0  0  0  0  0  0  0
  144.6050  158.2470  133.4270 N   0  0  0  0  0  0  0  0  0  0  0  0
  143.4520  157.4090  133.2790 C   0  0  0  0  0  0  0  0  0  0  0  0
  142.7630  157.4770  132.2230 O   0  0  0  0  0  0  0  0  0  0  0  0
  142.9760  156.5630  134.4200 C   0  0  0  0  0  0  0  0  0  0  0  0
  141.6390  156.9860  134.8150 N   0  0  0  0  0  0  0  0  0  0  0  0
  141.3650  157.7110  136.0210 C   0  0  0  0  0  0  0  0  0  0  0  0
  141.9470  157.4050  137.0950 O   0  0  0  0  0  0  0  0  0  0  0  0
  140.4390  158.8840  135.9950 C   0  0  0  0  0  0  0  0  0  0  0  0
  139.9350  159.0650  134.6880 O   0  0  0  0  0  0  0  0  0  0  0  0
  138.9900  158.0600  134.3740 C   0  0  0  0  0  0  0  0  0  0  0  0
  138.3460  158.3150  133.0040 C   0  0  0  0  0  0  0  0  0  0  0  0
  139.3650  158.2220  131.8630 C   0  0  0  0  0  0  0  0  0  0  0  0
  140.6130  158.6990  132.2850 O   0  0  0  0  0  0  0  0  0  0  0  0
  141.3160  160.5600  133.8690 H   0  0  0  0  0  0  0  0  0  0  0  0
  141.9840  158.8960  133.8320 H   0  0  0  0  0  0  0  0  0  0  0  0
  146.3203  161.0816  133.6990 H   0  0  0  0  0  0  0  0  0  0  0  0
  148.7874  159.6264  133.5409 H   0  0  0  0  0  0  0  0  0  0  0  0
  149.7263  157.3070  133.2809 H   0  0  0  0  0  0  0  0  0  0  0  0
  145.6794  155.6857  133.1255 H   0  0  0  0  0  0  0  0  0  0  0  0
  142.9495  155.5085  134.1082 H   0  0  0  0  0  0  0  0  0  0  0  0
  143.6627  156.6770  135.2717 H   0  0  0  0  0  0  0  0  0  0  0  0
  139.6032  158.7052  136.6875 H   0  0  0  0  0  0  0  0  0  0  0  0
  140.9870  159.7870  136.3019 H   0  0  0  0  0  0  0  0  0  0  0  0
  139.4964  157.0836  134.3567 H   0  0  0  0  0  0  0  0  0  0  0  0
  138.1998  158.0724  135.1391 H   0  0  0  0  0  0  0  0  0  0  0  0
  137.5575  157.5663  132.8376 H   0  0  0  0  0  0  0  0  0  0  0  0
  137.9330  159.3345  133.0078 H   0  0  0  0  0  0  0  0  0  0  0  0
  139.4647  157.1721  131.5503 H   0  0  0  0  0  0  0  0  0  0  0  0
  139.0144  158.8349  131.0196 H   0  0  0  0  0  0  0  0  0  0  0  0
  140.9110  158.1040  133.0240 H   0  0  0  0  0  0  0  0  0  0  0  0
  1  2  1  0
  2  3  2  0
  2  4  1  0
  4  5  2  0
  5  6  1  0
  6  7  2  0
  7  8  1  0
  8  9  2  0
  9 10  1  0
 10 11  1  0
 10 12  1  0
 10 13  1  0
  9 14  1  0
 14 15  2  0
 15 16  1  0
 16 17  1  0
 17 18  2  0
 17 19  1  0
 19 20  1  0
 20 21  1  0
 21 22  2  0
 21 23  1  0
 23 24  1  0
 24 25  1  0
 25 26  1  0
 26 27  1  0
 27 28  1  0
 16  4  1  0
 15  6  1  0
  1 29  1  0
  1 30  1  0
  5 31  1  0
  7 32  1  0
  8 33  1  0
 14 34  1  0
 19 35  1  0
 19 36  1  0
 23 37  1  0
 23 38  1  0
 25 39  1  0
 25 40  1  0
 26 41  1  0
 26 42  1  0
 27 43  1  0
 27 44  1  0
 28 45  1  0
M  CHG  1  20  -1
M  END
>  <UniqueID>  (54) 
54

>  <SMILES>  (54) 
NC(=O)c1cc2ccc(C(F)(F)F)cc2n1C(=O)C[N-]C(=O)COCCCO

>  <Energy>  (54) 
77.59415149552987

>  <Genealogy>  (54) 
NC(=O)c1cc2ccc(C(F)(F)F)cc2n1C(=O)C[N-]C(=O)COCCCO (protonated)
NC(=O)c1cc2ccc(C(F)(F)F)cc2n1C(=O)C[N-]C(=O)COCCCO (3D coordinates assigned)
NC(=O)c1cc2ccc(C(F)(F)F)cc2n1C(=O)C[N-]C(=O)COCCCO (optimized conformer: 77.59415149552987 kcal/mol)

>  <smiles>  (54) 
NC(=O)c1cc2ccc(C(F)(F)F)cc2n1C(=O)CNC(=O)COCCCO

>  <score_type>  (54) 
oracle

>  <origin>  (54) 
adg

>  <m_score__min__energy>  (54) 
-5.6500000000000004

>  <m_primary>  (54) 
energy

$$$$
54:0
     RDKit          3D

 56 57  0  0  0  0  0  0  0  0999 V2000
  138.7170  160.3510  130.2130 C   0  0  0  0  0  0  0  0  0  0  0  0
  138.5890  159.0270  130.8120 N   0  0  0  0  0  0  0  0  0  0  0  0
  139.2890  158.6220  132.0030 C   0  0  0  0  0  0  0  0  0  0  0  0
  139.7500  159.6140  132.9040 C   0  0  0  0  0  0  0  0  0  0  0  0
  140.4360  159.2600  134.0780 C   0  0  0  0  0  0  0  0  0  0  0  0
  140.6560  157.9080  134.3230 C   0  0  0  0  0  0  0  0  0  0  0  0
  141.2820  157.2890  135.3790 C   0  0  0  0  0  0  0  0  0  0  0  0
  141.2190  155.9250  135.0990 C   0  0  0  0  0  0  0  0  0  0  0  0
  141.8560  154.8910  135.9420 C   0  0  0  0  0  0  0  0  0  0  0  0
  142.8840  154.0520  135.4230 N   0  0  0  0  0  0  0  0  0  0  0  0
  141.5170  154.7740  137.1490 O   0  0  0  0  0  0  0  0  0  0  0  0
  140.5720  155.7100  133.9190 N   0  0  0  0  0  0  0  0  0  0  0  0
  140.2490  154.4500  133.3050 C   0  0  0  0  0  0  0  0  0  0  0  0
  139.0590  154.2060  132.9700 O   0  0  0  0  0  0  0  0  0  0  0  0
  141.2770  153.4770  133.0380 N   0  0  0  0  0  0  0  0  0  0  0  0
  142.3880  153.7880  132.2720 O   0  0  0  0  0  0  0  0  0  0  0  0
  143.4770  154.5230  132.7550 C   0  0  0  0  0  0  0  0  0  0  0  0
  144.5310  153.9390  133.1280 O   0  0  0  0  0  0  0  0  0  0  0  0
  143.3950  155.9190  132.7700 O   0  0  0  0  0  0  0  0  0  0  0  0
  144.4590  156.7670  133.2050 C   0  0  0  0  0  0  0  0  0  0  0  0
  143.9490  158.2050  133.2710 C   0  0  0  0  0  0  0  0  0  0  0  0
  144.9660  156.3150  134.5780 C   0  0  0  0  0  0  0  0  0  0  0  0
  141.1330  152.1190  133.4760 C   0  0  0  0  0  0  0  0  0  0  0  0
  141.6340  151.7490  134.5740 O   0  0  0  0  0  0  0  0  0  0  0  0
  140.4380  151.2140  132.6610 O   0  0  0  0  0  0  0  0  0  0  0  0
  140.8550  149.8810  132.3290 C   0  0  0  0  0  0  0  0  0  0  0  0
  140.2230  149.5330  130.9740 C   0  0  0  0  0  0  0  0  0  0  0  0
  140.3550  148.8780  133.3850 C   0  0  0  0  0  0  0  0  0  0  0  0
  142.3890  149.8110  132.1950 C   0  0  0  0  0  0  0  0  0  0  0  0
  140.2310  156.9340  133.4580 C   0  0  0  0  0  0  0  0  0  0  0  0
  139.5260  157.2570  132.2930 C   0  0  0  0  0  0  0  0  0  0  0  0
  138.7901  161.1076  131.0081 H   0  0  0  0  0  0  0  0  0  0  0  0
  139.6227  160.3854  129.5896 H   0  0  0  0  0  0  0  0  0  0  0  0
  137.8347  160.5583  129.5896 H   0  0  0  0  0  0  0  0  0  0  0  0
  137.9480  158.3450  130.3480 H   0  0  0  0  0  0  0  0  0  0  0  0
  139.5683  160.6758  132.6812 H   0  0  0  0  0  0  0  0  0  0  0  0
  140.7884  160.0282  134.7820 H   0  0  0  0  0  0  0  0  0  0  0  0
  141.7363  157.7686  136.2585 H   0  0  0  0  0  0  0  0  0  0  0  0
  142.7930  153.6080  134.4810 H   0  0  0  0  0  0  0  0  0  0  0  0
  145.2963  156.7078  132.4940 H   0  0  0  0  0  0  0  0  0  0  0  0
  143.8415  158.5080  134.3230 H   0  0  0  0  0  0  0  0  0  0  0  0
  144.6656  158.8716  132.7688 H   0  0  0  0  0  0  0  0  0  0  0  0
  142.9726  158.2712  132.7688 H   0  0  0  0  0  0  0  0  0  0  0  0
  144.3935  156.8254  135.3665 H   0  0  0  0  0  0  0  0  0  0  0  0
  144.8366  155.2271  134.6767 H   0  0  0  0  0  0  0  0  0  0  0  0
  146.0320  156.5679  134.6767 H   0  0  0  0  0  0  0  0  0  0  0  0
  139.2702  149.0083  131.1378 H   0  0  0  0  0  0  0  0  0  0  0  0
  140.0398  150.4574  130.4066 H   0  0  0  0  0  0  0  0  0  0  0  0
  140.9062  148.8839  130.4066 H   0  0  0  0  0  0  0  0  0  0  0  0
  140.5532  149.2757  134.3912 H   0  0  0  0  0  0  0  0  0  0  0  0
  139.2735  148.7216  133.2590 H   0  0  0  0  0  0  0  0  0  0  0  0
  140.8811  147.9202  133.2590 H   0  0  0  0  0  0  0  0  0  0  0  0
  142.8440  149.7902  133.1963 H   0  0  0  0  0  0  0  0  0  0  0  0
  142.6679  148.8992  131.6466 H   0  0  0  0  0  0  0  0  0  0  0  0
  142.7498  150.6936  131.6466 H   0  0  0  0  0  0  0  0  0  0  0  0
  139.1641  156.4677  131.6177 H   0  0  0  0  0  0  0  0  0  0  0  0
  1  2  1  0
  2  3  1  0
  3  4  2  0
  4  5  1  0
  5  6  2  0
  6  7  1  0
  7  8  2  0
  8  9  1  0
  9 10  1  0
  9 11  2  0
  8 12  1  0
 12 13  1  0
 13 14  2  0
 13 15  1  0
 15 16  1  0
 16 17  1  0
 17 18  2  0
 17 19  1  0
 19 20  1  0
 20 21  1  0
 20 22  1  0
 15 23  1  0
 23 24  2  0
 23 25  1  0
 25 26  1  0
 26 27  1  0
 26 28  1  0
 26 29  1  0
 12 30  1  0
 30 31  2  0
 31  3  1  0
 30  6  1  0
  1 32  1  0
  1 33  1  0
  1 34  1  0
  2 35  1  0
  4 36  1  0
  5 37  1  0
  7 38  1  0
 10 39  1  0
 20 40  1  0
 21 41  1  0
 21 42  1  0
 21 43  1  0
 22 44  1  0
 22 45  1  0
 22 46  1  0
 27 47  1  0
 27 48  1  0
 27 49  1  0
 28 50  1  0
 28 51  1  0
 28 52  1  0
 29 53  1  0
 29 54  1  0
 29 55  1  0
 31 56  1  0
M  CHG  1  10  -1
M  END
>  <UniqueID>  (55) 
55

>  <SMILES>  (55) 
CNc1ccc2cc(C([NH-])=O)n(C(=O)N(OC(=O)OC(C)C)C(=O)OC(C)(C)C)c2c1

>  <Energy>  (55) 
86.03336361424364

>  <Genealogy>  (55) 
CNc1ccc2cc(C([NH-])=O)n(C(=O)N(OC(=O)OC(C)C)C(=O)OC(C)(C)C)c2c1 (protonated)
CNc1ccc2cc(C([NH-])=O)n(C(=O)N(OC(=O)OC(C)C)C(=O)OC(C)(C)C)c2c1 (3D coordinates assigned)
CNc1ccc2cc(C([NH-])=O)n(C(=O)N(OC(=O)OC(C)C)C(=O)OC(C)(C)C)c2c1 (optimized conformer: 86.03336361424364 kcal/mol)

>  <smiles>  (55) 
CNc1ccc2cc(C(N)=O)n(C(=O)N(OC(=O)OC(C)C)C(=O)OC(C)(C)C)c2c1

>  <score_type>  (55) 
oracle

>  <origin>  (55) 
adg

>  <m_score__min__energy>  (55) 
-7.3600000000000003

>  <m_primary>  (55) 
energy

$$$$
55:0
     RDKit          3D

 43 44  0  0  0  0  0  0  0  0999 V2000
  144.6990  160.5200  133.3830 C   0  0  0  0  0  0  0  0  0  0  0  0
  145.8360  159.5520  133.2460 C   0  0  0  0  0  0  0  0  0  0  0  0
  147.1470  160.0410  132.9970 C   0  0  0  0  0  0  0  0  0  0  0  0
  148.2310  159.1550  132.8740 C   0  0  0  0  0  0  0  0  0  0  0  0
  147.9720  157.7890  133.0000 C   0  0  0  0  0  0  0  0  0  0  0  0
  148.8300  156.7130  132.9100 C   0  0  0  0  0  0  0  0  0  0  0  0
  148.0290  155.5850  133.1100 C   0  0  0  0  0  0  0  0  0  0  0  0
  148.5370  154.1960  133.1010 C   0  0  0  0  0  0  0  0  0  0  0  0
  148.3790  153.3710  134.2570 N   0  0  0  0  0  0  0  0  0  0  0  0
  149.0610  153.7100  132.0670 O   0  0  0  0  0  0  0  0  0  0  0  0
  146.7350  155.9520  133.3200 N   0  0  0  0  0  0  0  0  0  0  0  0
  145.6130  155.0770  133.5050 C   0  0  0  0  0  0  0  0  0  0  0  0
  145.0560  155.0030  134.6330 O   0  0  0  0  0  0  0  0  0  0  0  0
  145.1640  154.2370  132.4330 N   0  0  0  0  0  0  0  0  0  0  0  0
  144.4510  154.8280  131.2980 C   0  0  0  0  0  0  0  0  0  0  0  0
  145.1660  152.8130  132.6120 C   0  0  0  0  0  0  0  0  0  0  0  0
  146.2990  152.2050  132.8200 N   0  0  0  0  0  0  0  0  0  0  0  0
  143.8900  152.0760  132.6790 C   0  0  0  0  0  0  0  0  0  0  0  0
  143.8820  150.8170  132.5750 O   0  0  0  0  0  0  0  0  0  0  0  0
  142.6910  152.7860  132.8110 O   0  0  0  0  0  0  0  0  0  0  0  0
  141.6230  152.3520  133.6460 C   0  0  0  0  0  0  0  0  0  0  0  0
  140.6380  151.5190  132.8290 C   0  0  0  0  0  0  0  0  0  0  0  0
  141.2780  150.9510  131.7180 O   0  0  0  0  0  0  0  0  0  0  0  0
  146.7140  157.3030  133.2540 C   0  0  0  0  0  0  0  0  0  0  0  0
  145.6200  158.1630  133.4050 C   0  0  0  0  0  0  0  0  0  0  0  0
  144.4931  160.6953  134.4492 H   0  0  0  0  0  0  0  0  0  0  0  0
  144.9671  161.4713  132.9001 H   0  0  0  0  0  0  0  0  0  0  0  0
  143.8027  160.1035  132.9001 H   0  0  0  0  0  0  0  0  0  0  0  0
  147.3149  161.1237  132.8996 H   0  0  0  0  0  0  0  0  0  0  0  0
  149.2493  159.5254  132.6848 H   0  0  0  0  0  0  0  0  0  0  0  0
  149.9134  156.7373  132.7212 H   0  0  0  0  0  0  0  0  0  0  0  0
  147.4420  152.9760  134.5030 H   0  0  0  0  0  0  0  0  0  0  0  0
  143.6539  155.4887  131.6696 H   0  0  0  0  0  0  0  0  0  0  0  0
  145.1550  155.4110  130.6861 H   0  0  0  0  0  0  0  0  0  0  0  0
  144.0087  154.0281  130.6861 H   0  0  0  0  0  0  0  0  0  0  0  0
  147.1980  152.7420  132.8100 H   0  0  0  0  0  0  0  0  0  0  0  0
  146.3490  151.1740  132.9890 H   0  0  0  0  0  0  0  0  0  0  0  0
  142.0258  151.7409  134.4672 H   0  0  0  0  0  0  0  0  0  0  0  0
  141.1037  153.2292  134.0593 H   0  0  0  0  0  0  0  0  0  0  0  0
  140.2309  150.7165  133.4616 H   0  0  0  0  0  0  0  0  0  0  0  0
  139.8266  152.1726  132.4763 H   0  0  0  0  0  0  0  0  0  0  0  0
  142.0960  151.4930  131.5520 H   0  0  0  0  0  0  0  0  0  0  0  0
  144.6201  157.7697  133.6407 H   0  0  0  0  0  0  0  0  0  0  0  0
  1  2  1  0
  2  3  2  0
  3  4  1  0
  4  5  2  0
  5  6  1  0
  6  7  2  0
  7  8  1  0
  8  9  1  0
  8 10  2  0
  7 11  1  0
 11 12  1  0
 12 13  2  0
 12 14  1  0
 14 15  1  0
 14 16  1  0
 16 17  2  0
 16 18  1  0
 18 19  2  0
 18 20  1  0
 20 21  1  0
 21 22  1  0
 22 23  1  0
 11 24  1  0
 24 25  2  0
 25  2  1  0
 24  5  1  0
  1 26  1  0
  1 27  1  0
  1 28  1  0
  3 29  1  0
  4 30  1  0
  6 31  1  0
  9 32  1  0
 15 33  1  0
 15 34  1  0
 15 35  1  0
 17 36  1  0
 17 37  1  0
 21 38  1  0
 21 39  1  0
 22 40  1  0
 22 41  1  0
 23 42  1  0
 25 43  1  0
M  CHG  2   9  -1  17   1
M  END
>  <UniqueID>  (56) 
56

>  <SMILES>  (56) 
Cc1ccc2cc(C([NH-])=O)n(C(=O)N(C)C(=[NH2+])C(=O)OCCO)c2c1

>  <Energy>  (56) 
85.94250669003335

>  <Genealogy>  (56) 
Cc1ccc2cc(C([NH-])=O)n(C(=O)N(C)C(=[NH2+])C(=O)OCCO)c2c1 (protonated)
Cc1ccc2cc(C([NH-])=O)n(C(=O)N(C)C(=[NH2+])C(=O)OCCO)c2c1 (3D coordinates assigned)
Cc1ccc2cc(C([NH-])=O)n(C(=O)N(C)C(=[NH2+])C(=O)OCCO)c2c1 (optimized conformer: 85.94250669003335 kcal/mol)

>  <smiles>  (56) 
Cc1ccc2cc(C(N)=O)n(C(=O)N(C)C(=N)C(=O)OCCO)c2c1

>  <score_type>  (56) 
oracle

>  <origin>  (56) 
adg

>  <m_score__min__energy>  (56) 
-6.1200000000000001

>  <m_primary>  (56) 
energy

$$$$
56:0
     RDKit          3D

 35 36  0  0  0  0  0  0  0  0999 V2000
  139.6250  159.7370  131.8150 C   0  0  0  0  0  0  0  0  0  0  0  0
  140.8000  158.9420  132.1490 N   0  0  0  0  0  0  0  0  0  0  0  0
  140.6900  157.6030  132.6470 C   0  0  0  0  0  0  0  0  0  0  0  0
  139.5550  157.0820  132.8250 O   0  0  0  0  0  0  0  0  0  0  0  0
  141.9200  156.8340  133.0010 C   0  0  0  0  0  0  0  0  0  0  0  0
  143.0540  157.6850  132.8780 O   0  0  0  0  0  0  0  0  0  0  0  0
  144.1330  157.6400  133.7650 C   0  0  0  0  0  0  0  0  0  0  0  0
  144.0640  156.9480  134.8170 O   0  0  0  0  0  0  0  0  0  0  0  0
  145.3150  158.4080  133.4860 N   0  0  0  0  0  0  0  0  0  0  0  0
  145.4370  159.7640  133.4080 C   0  0  0  0  0  0  0  0  0  0  0  0
  144.3850  160.7510  133.7340 C   0  0  0  0  0  0  0  0  0  0  0  0
  143.0310  160.4890  133.3710 N   0  0  0  0  0  0  0  0  0  0  0  0
  144.6730  161.8400  134.2970 O   0  0  0  0  0  0  0  0  0  0  0  0
  146.7370  160.1180  133.0540 C   0  0  0  0  0  0  0  0  0  0  0  0
  147.4170  158.9300  132.9240 C   0  0  0  0  0  0  0  0  0  0  0  0
  148.7420  158.6910  132.5720 C   0  0  0  0  0  0  0  0  0  0  0  0
  149.1700  157.3560  132.4860 C   0  0  0  0  0  0  0  0  0  0  0  0
  148.2740  156.2930  132.7550 C   0  0  0  0  0  0  0  0  0  0  0  0
  148.7310  154.8710  132.6090 C   0  0  0  0  0  0  0  0  0  0  0  0
  146.9330  156.5720  133.0940 C   0  0  0  0  0  0  0  0  0  0  0  0
  146.5380  157.9130  133.1910 C   0  0  0  0  0  0  0  0  0  0  0  0
  139.1326  160.0702  132.7405 H   0  0  0  0  0  0  0  0  0  0  0  0
  139.9311  160.6143  131.2262 H   0  0  0  0  0  0  0  0  0  0  0  0
  138.9245  159.1265  131.2262 H   0  0  0  0  0  0  0  0  0  0  0  0
  141.7480  159.3660  132.0250 H   0  0  0  0  0  0  0  0  0  0  0  0
  141.8423  156.4716  134.0367 H   0  0  0  0  0  0  0  0  0  0  0  0
  142.0270  155.9744  132.3230 H   0  0  0  0  0  0  0  0  0  0  0  0
  142.8010  159.8170  132.6060 H   0  0  0  0  0  0  0  0  0  0  0  0
  147.1352  161.1331  132.9091 H   0  0  0  0  0  0  0  0  0  0  0  0
  149.4329  159.5221  132.3674 H   0  0  0  0  0  0  0  0  0  0  0  0
  150.2107  157.1342  132.2071 H   0  0  0  0  0  0  0  0  0  0  0  0
  148.8735  154.4275  133.6055 H   0  0  0  0  0  0  0  0  0  0  0  0
  147.9722  154.2968  132.0572 H   0  0  0  0  0  0  0  0  0  0  0  0
  149.6823  154.8464  132.0572 H   0  0  0  0  0  0  0  0  0  0  0  0
  146.2163  155.7580  133.2774 H   0  0  0  0  0  0  0  0  0  0  0  0
  1  2  1  0
  2  3  1  0
  3  4  2  0
  3  5  1  0
  5  6  1  0
  6  7  1  0
  7  8  2  0
  7  9  1  0
  9 10  1  0
 10 11  1  0
 11 12  1  0
 11 13  2  0
 10 14  2  0
 14 15  1  0
 15 16  2  0
 16 17  1  0
 17 18  2  0
 18 19  1  0
 18 20  1  0
 20 21  2  0
 21  9  1  0
 21 15  1  0
  1 22  1  0
  1 23  1  0
  1 24  1  0
  2 25  1  0
  5 26  1  0
  5 27  1  0
 12 28  1  0
 14 29  1  0
 16 30  1  0
 17 31  1  0
 19 32  1  0
 19 33  1  0
 19 34  1  0
 20 35  1  0
M  CHG  1  12  -1
M  END
>  <UniqueID>  (57) 
57

>  <SMILES>  (57) 
CNC(=O)COC(=O)n1c(C([NH-])=O)cc2ccc(C)cc21

>  <Energy>  (57) 
66.52786911247144

>  <Genealogy>  (57) 
CNC(=O)COC(=O)n1c(C([NH-])=O)cc2ccc(C)cc21 (protonated)
CNC(=O)COC(=O)n1c(C([NH-])=O)cc2ccc(C)cc21 (3D coordinates assigned)
CNC(=O)COC(=O)n1c(C([NH-])=O)cc2ccc(C)cc21 (optimized conformer: 66.52786911247144 kcal/mol)

>  <smiles>  (57) 
CNC(=O)COC(=O)n1c(C(N)=O)cc2ccc(C)cc21

>  <score_type>  (57) 
oracle

>  <origin>  (57) 
adg

>  <m_score__min__energy>  (57) 
-6.3300000000000001

>  <m_primary>  (57) 
energy

$$$$
57:0
     RDKit          3D

 35 36  0  0  0  0  0  0  0  0999 V2000
  143.7930  156.8550  133.5170 N   0  0  0  0  0  0  0  0  0  0  0  0
  145.0860  156.9580  134.1060 C   0  0  0  0  0  0  0  0  0  0  0  0
  145.3170  156.3660  135.1940 O   0  0  0  0  0  0  0  0  0  0  0  0
  146.1710  157.7070  133.4360 C   0  0  0  0  0  0  0  0  0  0  0  0
  147.3410  157.1100  132.9690 C   0  0  0  0  0  0  0  0  0  0  0  0
  148.0350  158.1170  132.3350 C   0  0  0  0  0  0  0  0  0  0  0  0
  149.2700  158.0860  131.6950 C   0  0  0  0  0  0  0  0  0  0  0  0
  149.7580  159.2860  131.1480 C   0  0  0  0  0  0  0  0  0  0  0  0
  149.0110  160.4850  131.2570 C   0  0  0  0  0  0  0  0  0  0  0  0
  149.5430  161.7690  130.6870 C   0  0  0  0  0  0  0  0  0  0  0  0
  148.5550  162.7360  130.7170 F   0  0  0  0  0  0  0  0  0  0  0  0
  149.9450  161.5680  129.3790 F   0  0  0  0  0  0  0  0  0  0  0  0
  147.7620  160.4770  131.9170 C   0  0  0  0  0  0  0  0  0  0  0  0
  147.2930  159.2650  132.4350 C   0  0  0  0  0  0  0  0  0  0  0  0
  146.1480  159.0300  133.1130 N   0  0  0  0  0  0  0  0  0  0  0  0
  145.1570  160.0040  133.4700 C   0  0  0  0  0  0  0  0  0  0  0  0
  145.5050  161.1850  133.7430 O   0  0  0  0  0  0  0  0  0  0  0  0
  143.7750  159.6340  133.5060 N   0  0  0  0  0  0  0  0  0  0  0  0
  142.6860  160.5870  133.6890 C   0  0  0  0  0  0  0  0  0  0  0  0
  141.5590  159.9900  134.5390 C   0  0  0  0  0  0  0  0  0  0  0  0
  140.8670  158.4800  133.7850 P   0  0  1  0  0  0  0  0  0  0  0  0
  141.1590  157.2860  134.6640 O   0  0  0  0  0  0  0  0  0  0  0  0
  139.1920  158.6580  133.6290 O   0  0  0  0  0  0  0  0  0  0  0  0
  141.5490  158.2350  132.2560 O   0  0  0  0  0  0  0  0  0  0  0  0
  143.0710  157.5920  133.6720 H   0  0  0  0  0  0  0  0  0  0  0  0
  147.6452  156.0590  133.0825 H   0  0  0  0  0  0  0  0  0  0  0  0
  149.8465  157.1522  131.6193 H   0  0  0  0  0  0  0  0  0  0  0  0
  150.7287  159.2939  130.6306 H   0  0  0  0  0  0  0  0  0  0  0  0
  150.4021  162.1011  131.2884 H   0  0  0  0  0  0  0  0  0  0  0  0
  147.1732  161.4003  132.0210 H   0  0  0  0  0  0  0  0  0  0  0  0
  143.0762  161.4846  134.1911 H   0  0  0  0  0  0  0  0  0  0  0  0
  142.2772  160.8404  132.6997 H   0  0  0  0  0  0  0  0  0  0  0  0
  141.9573  159.7407  135.5336 H   0  0  0  0  0  0  0  0  0  0  0  0
  140.7536  160.7358  134.6105 H   0  0  0  0  0  0  0  0  0  0  0  0
  142.5270  158.2550  132.4100 H   0  0  0  0  0  0  0  0  0  0  0  0
  1  2  1  0
  2  3  2  0
  2  4  1  0
  4  5  2  0
  5  6  1  0
  6  7  2  0
  7  8  1  0
  8  9  2  0
  9 10  1  0
 10 11  1  0
 10 12  1  0
  9 13  1  0
 13 14  2  0
 14 15  1  0
 15 16  1  0
 16 17  2  0
 16 18  1  0
 18 19  1  0
 19 20  1  0
 20 21  1  0
 21 22  2  0
 21 23  1  6
 21 24  1  0
 15  4  1  0
 14  6  1  0
  1 25  1  0
  5 26  1  0
  7 27  1  0
  8 28  1  0
 10 29  1  0
 13 30  1  0
 19 31  1  0
 19 32  1  0
 20 33  1  0
 20 34  1  0
 24 35  1  0
M  CHG  3   1  -1  18  -1  23  -1
M  END
>  <UniqueID>  (58) 
58

>  <SMILES>  (58) 
[NH-]C(=O)c1cc2ccc(C(F)F)cc2n1C(=O)[N-]CC[P@@](=O)([O-])O

>  <Energy>  (58) 
65.26467331519174

>  <Genealogy>  (58) 
[NH-]C(=O)c1cc2ccc(C(F)F)cc2n1C(=O)[N-]CCP(=O)([O-])O (protonated)
[NH-]C(=O)c1cc2ccc(C(F)F)cc2n1C(=O)[N-]CC[P@@](=O)([O-])O (chirality)
[NH-]C(=O)c1cc2ccc(C(F)F)cc2n1C(=O)[N-]CC[P@@](=O)([O-])O (3D coordinates assigned)
[NH-]C(=O)c1cc2ccc(C(F)F)cc2n1C(=O)[N-]CC[P@@](=O)([O-])O (optimized conformer: 65.26467331519174 kcal/mol)

>  <smiles>  (58) 
NC(=O)c1cc2ccc(C(F)F)cc2n1C(=O)NCCP(=O)(O)O

>  <score_type>  (58) 
oracle

>  <origin>  (58) 
adg

>  <m_score__min__energy>  (58) 
-5.8600000000000003

>  <m_primary>  (58) 
energy

$$$$
58:0
     RDKit          3D

 41 42  0  0  0  0  0  0  0  0999 V2000
  141.1220  157.7200  133.9850 C   0  0  0  0  0  0  0  0  0  0  0  0
  142.4560  158.3970  133.8750 C   0  0  0  0  0  0  0  0  0  0  0  0
  142.5130  159.8080  133.8550 C   0  0  0  0  0  0  0  0  0  0  0  0
  143.7460  160.4690  133.7300 C   0  0  0  0  0  0  0  0  0  0  0  0
  144.9050  159.6870  133.6790 C   0  0  0  0  0  0  0  0  0  0  0  0
  146.2030  160.0680  133.4370 C   0  0  0  0  0  0  0  0  0  0  0  0
  146.9220  158.8810  133.3390 C   0  0  0  0  0  0  0  0  0  0  0  0
  148.2570  158.8370  132.7520 C   0  0  0  0  0  0  0  0  0  0  0  0
  148.4680  158.1570  131.5120 N   0  0  0  0  0  0  0  0  0  0  0  0
  149.2390  159.3010  133.3920 O   0  0  0  0  0  0  0  0  0  0  0  0
  146.1140  157.7950  133.5350 N   0  0  0  0  0  0  0  0  0  0  0  0
  146.4510  156.4230  133.2400 C   0  0  0  0  0  0  0  0  0  0  0  0
  145.7640  155.8100  132.3790 O   0  0  0  0  0  0  0  0  0  0  0  0
  147.5780  155.7490  133.8580 N   0  0  0  0  0  0  0  0  0  0  0  0
  147.5920  155.5410  135.3250 C   0  0  0  0  0  0  0  0  0  0  0  0
  146.6080  154.4780  135.7450 C   0  0  0  0  0  0  0  0  0  0  0  0
  146.9970  153.4550  136.3750 O   0  0  0  0  0  0  0  0  0  0  0  0
  145.2600  154.6260  135.4380 O   0  0  0  0  0  0  0  0  0  0  0  0
  148.4380  154.9070  133.0550 C   0  0  0  0  0  0  0  0  0  0  0  0
  149.4520  155.4090  132.4990 O   0  0  0  0  0  0  0  0  0  0  0  0
  148.1590  153.5000  132.8470 N   0  0  0  0  0  0  0  0  0  0  0  0
  146.8020  152.9540  132.9190 C   0  0  0  0  0  0  0  0  0  0  0  0
  149.2800  152.5950  132.5770 C   0  0  0  0  0  0  0  0  0  0  0  0
  144.8790  158.3120  133.7290 C   0  0  0  0  0  0  0  0  0  0  0  0
  143.6470  157.6380  133.7820 C   0  0  0  0  0  0  0  0  0  0  0  0
  140.8637  157.5889  135.0462 H   0  0  0  0  0  0  0  0  0  0  0  0
  140.3555  158.3382  133.4947 H   0  0  0  0  0  0  0  0  0  0  0  0
  141.1685  156.7364  133.4947 H   0  0  0  0  0  0  0  0  0  0  0  0
  141.5854  160.3934  133.9379 H   0  0  0  0  0  0  0  0  0  0  0  0
  143.7987  161.5663  133.6740 H   0  0  0  0  0  0  0  0  0  0  0  0
  146.5908  161.0929  133.3412 H   0  0  0  0  0  0  0  0  0  0  0  0
  148.5450  157.1120  131.4790 H   0  0  0  0  0  0  0  0  0  0  0  0
  148.6024  155.2334  135.6322 H   0  0  0  0  0  0  0  0  0  0  0  0
  147.3046  156.4861  135.8090 H   0  0  0  0  0  0  0  0  0  0  0  0
  146.5096  152.8363  133.9729 H   0  0  0  0  0  0  0  0  0  0  0  0
  146.1033  153.6410  132.4191 H   0  0  0  0  0  0  0  0  0  0  0  0
  146.7739  151.9745  132.4191 H   0  0  0  0  0  0  0  0  0  0  0  0
  149.7091  152.2486  133.5288 H   0  0  0  0  0  0  0  0  0  0  0  0
  148.9219  151.7298  131.9998 H   0  0  0  0  0  0  0  0  0  0  0  0
  150.0503  153.1275  131.9998 H   0  0  0  0  0  0  0  0  0  0  0  0
  143.6089  156.5391  133.7517 H   0  0  0  0  0  0  0  0  0  0  0  0
  1  2  1  0
  2  3  2  0
  3  4  1  0
  4  5  2  0
  5  6  1  0
  6  7  2  0
  7  8  1  0
  8  9  1  0
  8 10  2  0
  7 11  1  0
 11 12  1  0
 12 13  2  0
 12 14  1  0
 14 15  1  0
 15 16  1  0
 16 17  2  0
 16 18  1  0
 14 19  1  0
 19 20  2  0
 19 21  1  0
 21 22  1  0
 21 23  1  0
 11 24  1  0
 24 25  2  0
 25  2  1  0
 24  5  1  0
  1 26  1  0
  1 27  1  0
  1 28  1  0
  3 29  1  0
  4 30  1  0
  6 31  1  0
  9 32  1  0
 15 33  1  0
 15 34  1  0
 22 35  1  0
 22 36  1  0
 22 37  1  0
 23 38  1  0
 23 39  1  0
 23 40  1  0
 25 41  1  0
M  CHG  2   9  -1  18  -1
M  END
>  <UniqueID>  (59) 
59

>  <SMILES>  (59) 
Cc1ccc2cc(C([NH-])=O)n(C(=O)N(CC(=O)[O-])C(=O)N(C)C)c2c1

>  <Energy>  (59) 
98.24735818184564

>  <Genealogy>  (59) 
Cc1ccc2cc(C([NH-])=O)n(C(=O)N(CC(=O)[O-])C(=O)N(C)C)c2c1 (protonated)
Cc1ccc2cc(C([NH-])=O)n(C(=O)N(CC(=O)[O-])C(=O)N(C)C)c2c1 (3D coordinates assigned)
Cc1ccc2cc(C([NH-])=O)n(C(=O)N(CC(=O)[O-])C(=O)N(C)C)c2c1 (optimized conformer: 98.24735818184564 kcal/mol)

>  <smiles>  (59) 
Cc1ccc2cc(C(N)=O)n(C(=O)N(CC(=O)O)C(=O)N(C)C)c2c1

>  <score_type>  (59) 
oracle

>  <origin>  (59) 
adg

>  <m_score__min__energy>  (59) 
-6.79

>  <m_primary>  (59) 
energy

$$$$
59:0
     RDKit          3D

 38 39  0  0  0  0  0  0  0  0999 V2000
  139.8570  156.3380  133.1340 C   0  0  0  0  0  0  0  0  0  0  0  0
  140.5130  157.4860  133.7660 N   0  0  0  0  0  0  0  0  0  0  0  0
  140.3290  157.7250  135.2030 C   0  0  0  0  0  0  0  0  0  0  0  0
  141.0460  158.9740  135.6160 C   0  0  0  0  0  0  0  0  0  0  0  0
  140.6070  160.1000  135.2670 O   0  0  0  0  0  0  0  0  0  0  0  0
  142.2180  158.8920  136.3590 O   0  0  0  0  0  0  0  0  0  0  0  0
  141.4130  158.3050  132.9960 C   0  0  0  0  0  0  0  0  0  0  0  0
  141.0100  159.4000  132.5170 O   0  0  0  0  0  0  0  0  0  0  0  0
  142.7360  157.8860  132.7960 O   0  0  0  0  0  0  0  0  0  0  0  0
  143.7220  157.8160  133.7880 C   0  0  0  0  0  0  0  0  0  0  0  0
  143.5200  157.1660  134.8500 O   0  0  0  0  0  0  0  0  0  0  0  0
  144.9710  158.5070  133.6010 N   0  0  0  0  0  0  0  0  0  0  0  0
  145.1680  159.8530  133.5100 C   0  0  0  0  0  0  0  0  0  0  0  0
  144.1500  160.8950  133.7460 C   0  0  0  0  0  0  0  0  0  0  0  0
  142.7990  160.5530  134.0550 N   0  0  0  0  0  0  0  0  0  0  0  0
  144.4910  162.1080  133.7310 O   0  0  0  0  0  0  0  0  0  0  0  0
  146.4970  160.1370  133.2140 C   0  0  0  0  0  0  0  0  0  0  0  0
  147.1230  158.9130  133.1410 C   0  0  0  0  0  0  0  0  0  0  0  0
  148.4490  158.6040  132.8540 C   0  0  0  0  0  0  0  0  0  0  0  0
  148.8140  157.2490  132.8060 C   0  0  0  0  0  0  0  0  0  0  0  0
  147.8570  156.2310  133.0530 C   0  0  0  0  0  0  0  0  0  0  0  0
  148.2410  154.7770  132.9440 C   0  0  0  0  0  0  0  0  0  0  0  0
  149.4210  154.6400  132.2350 F   0  0  0  0  0  0  0  0  0  0  0  0
  148.4150  154.2560  134.2130 F   0  0  0  0  0  0  0  0  0  0  0  0
  147.2580  154.0540  132.2920 F   0  0  0  0  0  0  0  0  0  0  0  0
  146.5140  156.5870  133.3140 C   0  0  0  0  0  0  0  0  0  0  0  0
  146.1800  157.9450  133.3780 C   0  0  0  0  0  0  0  0  0  0  0  0
  139.4710  155.6624  133.9116 H   0  0  0  0  0  0  0  0  0  0  0  0
  139.0240  156.6905  132.5080 H   0  0  0  0  0  0  0  0  0  0  0  0
  140.5836  155.7993  132.5080 H   0  0  0  0  0  0  0  0  0  0  0  0
  139.2559  157.8339  135.4187 H   0  0  0  0  0  0  0  0  0  0  0  0
  140.7403  156.8729  135.7640 H   0  0  0  0  0  0  0  0  0  0  0  0
  142.5220  159.5640  134.2410 H   0  0  0  0  0  0  0  0  0  0  0  0
  142.0830  161.3030  134.1810 H   0  0  0  0  0  0  0  0  0  0  0  0
  146.9511  161.1283  133.0691 H   0  0  0  0  0  0  0  0  0  0  0  0
  149.1888  159.3971  132.6703 H   0  0  0  0  0  0  0  0  0  0  0  0
  149.8535  156.9736  132.5743 H   0  0  0  0  0  0  0  0  0  0  0  0
  145.7471  155.8128  133.4637 H   0  0  0  0  0  0  0  0  0  0  0  0
  1  2  1  0
  2  3  1  0
  3  4  1  0
  4  5  2  0
  4  6  1  0
  2  7  1  0
  7  8  2  0
  7  9  1  0
  9 10  1  0
 10 11  2  0
 10 12  1  0
 12 13  1  0
 13 14  1  0
 14 15  1  0
 14 16  2  0
 13 17  2  0
 17 18  1  0
 18 19  2  0
 19 20  1  0
 20 21  2  0
 21 22  1  0
 22 23  1  0
 22 24  1  0
 22 25  1  0
 21 26  1  0
 26 27  2  0
 27 12  1  0
 27 18  1  0
  1 28  1  0
  1 29  1  0
  1 30  1  0
  3 31  1  0
  3 32  1  0
 15 33  1  0
 15 34  1  0
 17 35  1  0
 19 36  1  0
 20 37  1  0
 26 38  1  0
M  CHG  1   6  -1
M  END
>  <UniqueID>  (60) 
60

>  <SMILES>  (60) 
CN(CC(=O)[O-])C(=O)OC(=O)n1c(C(N)=O)cc2ccc(C(F)(F)F)cc21

>  <Energy>  (60) 
74.87758641079088

>  <Genealogy>  (60) 
CN(CC(=O)[O-])C(=O)OC(=O)n1c(C(N)=O)cc2ccc(C(F)(F)F)cc21 (protonated)
CN(CC(=O)[O-])C(=O)OC(=O)n1c(C(N)=O)cc2ccc(C(F)(F)F)cc21 (3D coordinates assigned)
CN(CC(=O)[O-])C(=O)OC(=O)n1c(C(N)=O)cc2ccc(C(F)(F)F)cc21 (optimized conformer: 74.87758641079088 kcal/mol)

>  <smiles>  (60) 
CN(CC(=O)O)C(=O)OC(=O)n1c(C(N)=O)cc2ccc(C(F)(F)F)cc21

>  <score_type>  (60) 
oracle

>  <origin>  (60) 
adg

>  <m_score__min__energy>  (60) 
-6.3700000000000001

>  <m_primary>  (60) 
energy

$$$$
60:0
     RDKit          3D

 46 49  0  0  0  0  0  0  0  0999 V2000
  140.1290  157.6400  136.2810 C   0  0  0  0  0  0  0  0  0  0  0  0
  139.3550  157.4640  135.1010 O   0  0  0  0  0  0  0  0  0  0  0  0
  139.8190  156.7510  133.9930 C   0  0  0  0  0  0  0  0  0  0  0  0
  139.0230  156.0570  133.3040 O   0  0  0  0  0  0  0  0  0  0  0  0
  141.2140  156.7900  133.6530 N   0  0  0  0  0  0  0  0  0  0  0  0
  142.0020  157.8890  133.4720 C   0  0  0  0  0  0  0  0  0  0  0  0
  141.6190  159.2890  133.7450 C   0  0  0  0  0  0  0  0  0  0  0  0
  140.2940  159.7510  133.4940 N   0  0  0  0  0  0  0  0  0  0  0  0
  142.4600  160.0780  134.2540 O   0  0  0  0  0  0  0  0  0  0  0  0
  143.2780  157.5110  133.0600 C   0  0  0  0  0  0  0  0  0  0  0  0
  143.2510  156.1360  133.0040 C   0  0  0  0  0  0  0  0  0  0  0  0
  144.2470  155.2360  132.6450 C   0  0  0  0  0  0  0  0  0  0  0  0
  143.9330  153.8680  132.6470 C   0  0  0  0  0  0  0  0  0  0  0  0
  142.6310  153.4160  133.0000 C   0  0  0  0  0  0  0  0  0  0  0  0
  142.3140  152.0030  132.9880 N   0  0  0  0  0  0  0  0  0  0  0  0
  143.2670  150.9590  132.6400 C   0  0  0  0  0  0  0  0  0  0  0  0
  142.4680  149.6570  132.6180 C   0  0  2  0  0  0  0  0  0  0  0  0
  142.0080  149.2380  131.2250 C   0  0  0  0  0  0  0  0  0  0  0  0
  140.7110  148.5730  131.4010 N   0  0  2  0  0  0  0  0  0  0  0  0
  139.8760  148.6970  130.2300 C   0  0  0  0  0  0  0  0  0  0  0  0
  139.8090  149.7860  129.5950 O   0  0  0  0  0  0  0  0  0  0  0  0
  139.1370  147.6070  129.7860 O   0  0  0  0  0  0  0  0  0  0  0  0
  140.0870  149.1600  132.6040 C   0  0  0  0  0  0  0  0  0  0  0  0
  141.1750  149.9370  133.3590 C   0  0  2  0  0  0  0  0  0  0  0  0
  141.0040  151.4620  133.3230 C   0  0  0  0  0  0  0  0  0  0  0  0
  141.6470  154.3710  133.3590 C   0  0  0  0  0  0  0  0  0  0  0  0
  141.9960  155.7260  133.3670 C   0  0  0  0  0  0  0  0  0  0  0  0
  139.4895  157.4946  137.1641 H   0  0  0  0  0  0  0  0  0  0  0  0
  140.9472  156.9050  136.2958 H   0  0  0  0  0  0  0  0  0  0  0  0
  140.5490  158.6566  136.2958 H   0  0  0  0  0  0  0  0  0  0  0  0
  139.4650  159.2140  133.8300 H   0  0  0  0  0  0  0  0  0  0  0  0
  144.1269  158.1712  132.8286 H   0  0  0  0  0  0  0  0  0  0  0  0
  145.2523  155.5855  132.3673 H   0  0  0  0  0  0  0  0  0  0  0  0
  144.7050  153.1345  132.3716 H   0  0  0  0  0  0  0  0  0  0  0  0
  143.7064  151.1556  131.6509 H   0  0  0  0  0  0  0  0  0  0  0  0
  144.0975  150.9124  133.3598 H   0  0  0  0  0  0  0  0  0  0  0  0
  143.1162  148.8743  133.0390 H   0  0  0  0  0  0  0  0  0  0  0  0
  141.8984  150.1213  130.5786 H   0  0  0  0  0  0  0  0  0  0  0  0
  142.7386  148.5684  130.7477 H   0  0  0  0  0  0  0  0  0  0  0  0
  140.8870  147.5550  131.5800 H   0  0  0  0  0  0  0  0  0  0  0  0
  139.2746  149.8412  132.3107 H   0  0  0  0  0  0  0  0  0  0  0  0
  139.6618  148.3716  133.2424 H   0  0  0  0  0  0  0  0  0  0  0  0
  141.1407  149.6195  134.4116 H   0  0  0  0  0  0  0  0  0  0  0  0
  140.2658  151.7463  132.5586 H   0  0  0  0  0  0  0  0  0  0  0  0
  140.6410  151.8504  134.2860 H   0  0  0  0  0  0  0  0  0  0  0  0
  140.6284  154.0530  133.6262 H   0  0  0  0  0  0  0  0  0  0  0  0
  1  2  1  0
  2  3  1  0
  3  4  2  0
  3  5  1  0
  5  6  1  0
  6  7  1  0
  7  8  1  0
  7  9  2  0
  6 10  2  0
 10 11  1  0
 11 12  2  0
 12 13  1  0
 13 14  2  0
 14 15  1  0
 15 16  1  0
 16 17  1  0
 17 18  1  0
 18 19  1  0
 19 20  1  0
 20 21  2  0
 20 22  1  0
 19 23  1  0
 23 24  1  0
 24 25  1  0
 14 26  1  0
 26 27  2  0
 27  5  1  0
 27 11  1  0
 25 15  1  0
 24 17  1  0
  1 28  1  0
  1 29  1  0
  1 30  1  0
  8 31  1  0
 10 32  1  0
 12 33  1  0
 13 34  1  0
 16 35  1  0
 16 36  1  0
 17 37  1  1
 18 38  1  0
 18 39  1  0
 19 40  1  1
 23 41  1  0
 23 42  1  0
 24 43  1  1
 25 44  1  0
 25 45  1  0
 26 46  1  0
M  CHG  3   8  -1  19   1  22  -1
M  END
>  <UniqueID>  (61) 
61

>  <SMILES>  (61) 
COC(=O)n1c(C([NH-])=O)cc2ccc(N3C[C@@H]4C[N@H+](C(=O)[O-])C[C@@H]4C3)cc21

>  <Energy>  (61) 
96.20056164658348

>  <Genealogy>  (61) 
COC(=O)n1c(C([NH-])=O)cc2ccc(N3C[C@@H]4C[NH+](C(=O)[O-])C[C@@H]4C3)cc21 (protonated)
COC(=O)n1c(C([NH-])=O)cc2ccc(N3C[C@@H]4C[N@H+](C(=O)[O-])C[C@@H]4C3)cc21 (chirality)
COC(=O)n1c(C([NH-])=O)cc2ccc(N3C[C@@H]4C[N@H+](C(=O)[O-])C[C@@H]4C3)cc21 (3D coordinates assigned)
COC(=O)n1c(C([NH-])=O)cc2ccc(N3C[C@@H]4C[N@H+](C(=O)[O-])C[C@@H]4C3)cc21 (nonaromatic ring conformer: 96.20056164658348 kcal/mol)

>  <smiles>  (61) 
COC(=O)n1c(C(N)=O)cc2ccc(N3C[C@H]4CN(C(=O)O)C[C@H]4C3)cc21

>  <score_type>  (61) 
oracle

>  <origin>  (61) 
adg

>  <m_score__min__energy>  (61) 
-7.3600000000000003

>  <m_primary>  (61) 
energy

$$$$
61:0
     RDKit          3D

 37 39  0  0  0  0  0  0  0  0999 V2000
  138.4440  148.7620  130.4370 C   0  0  0  0  0  0  0  0  0  0  0  0
  138.7880  149.3230  131.7400 N   0  0  0  0  0  0  0  0  0  0  0  0
  140.0800  149.8760  132.0530 C   0  0  0  0  0  0  0  0  0  0  0  0
  141.2380  149.0940  131.8160 C   0  0  0  0  0  0  0  0  0  0  0  0
  142.5180  149.5990  132.0940 C   0  0  0  0  0  0  0  0  0  0  0  0
  142.6120  150.8840  132.6180 C   0  0  0  0  0  0  0  0  0  0  0  0
  143.7250  151.6250  132.9420 C   0  0  0  0  0  0  0  0  0  0  0  0
  143.2340  152.8420  133.4040 C   0  0  0  0  0  0  0  0  0  0  0  0
  144.0990  153.9250  133.9130 C   0  0  0  0  0  0  0  0  0  0  0  0
  143.6630  155.2860  133.9070 N   0  0  0  0  0  0  0  0  0  0  0  0
  145.2200  153.6390  134.4110 O   0  0  0  0  0  0  0  0  0  0  0  0
  141.8730  152.8630  133.3560 N   0  0  0  0  0  0  0  0  0  0  0  0
  141.0120  153.9810  133.6340 C   0  0  0  0  0  0  0  0  0  0  0  0
  141.0710  154.5660  134.7500 O   0  0  0  0  0  0  0  0  0  0  0  0
  140.1100  154.4180  132.6600 O   0  0  0  0  0  0  0  0  0  0  0  0
  139.4810  155.6920  132.7070 C   0  0  0  0  0  0  0  0  0  0  0  0
  140.4570  156.7000  133.2120 C   0  0  0  0  0  0  0  0  0  0  0  0
  141.7500  156.6790  132.9830 O   0  0  0  0  0  0  0  0  0  0  0  0
  142.2360  157.7520  133.5690 C   0  0  0  0  0  0  0  0  0  0  0  0
  143.4560  158.0590  133.5590 O   0  0  0  0  0  0  0  0  0  0  0  0
  141.3090  158.4710  134.1640 O   0  0  0  0  0  0  0  0  0  0  0  0
  140.1870  157.8300  133.9500 C   0  0  0  0  0  0  0  0  0  0  0  0
  138.9400  158.2460  134.3990 O   0  0  0  0  0  0  0  0  0  0  0  0
  141.5050  151.6520  132.8730 C   0  0  0  0  0  0  0  0  0  0  0  0
  140.2180  151.1820  132.5860 C   0  0  0  0  0  0  0  0  0  0  0  0
  137.8737  147.8319  130.5772 H   0  0  0  0  0  0  0  0  0  0  0  0
  137.8339  149.4852  129.8759 H   0  0  0  0  0  0  0  0  0  0  0  0
  139.3652  148.5462  129.8759 H   0  0  0  0  0  0  0  0  0  0  0  0
  138.0470  149.3230  132.4780 H   0  0  0  0  0  0  0  0  0  0  0  0
  141.1324  148.0776  131.4087 H   0  0  0  0  0  0  0  0  0  0  0  0
  143.4188  148.9971  131.9033 H   0  0  0  0  0  0  0  0  0  0  0  0
  144.7783  151.3203  132.8545 H   0  0  0  0  0  0  0  0  0  0  0  0
  144.3060  156.0440  134.2290 H   0  0  0  0  0  0  0  0  0  0  0  0
  142.6820  155.5370  133.6570 H   0  0  0  0  0  0  0  0  0  0  0  0
  139.1476  155.9756  131.6978 H   0  0  0  0  0  0  0  0  0  0  0  0
  138.6103  155.6508  133.3780 H   0  0  0  0  0  0  0  0  0  0  0  0
  139.3348  151.8114  132.7698 H   0  0  0  0  0  0  0  0  0  0  0  0
  1  2  1  0
  2  3  1  0
  3  4  2  0
  4  5  1  0
  5  6  2  0
  6  7  1  0
  7  8  2  0
  8  9  1  0
  9 10  1  0
  9 11  2  0
  8 12  1  0
 12 13  1  0
 13 14  2  0
 13 15  1  0
 15 16  1  0
 16 17  1  0
 17 18  1  0
 18 19  1  0
 19 20  2  0
 19 21  1  0
 21 22  1  0
 22 23  1  0
 12 24  1  0
 24 25  2  0
 25  3  1  0
 24  6  1  0
 22 17  2  0
  1 26  1  0
  1 27  1  0
  1 28  1  0
  2 29  1  0
  4 30  1  0
  5 31  1  0
  7 32  1  0
 10 33  1  0
 10 34  1  0
 16 35  1  0
 16 36  1  0
 25 37  1  0
M  CHG  1  23  -1
M  END
>  <UniqueID>  (62) 
62

>  <SMILES>  (62) 
CNc1ccc2cc(C(N)=O)n(C(=O)OCc3oc(=O)oc3[O-])c2c1

>  <Energy>  (62) 
108.65062705101627

>  <Genealogy>  (62) 
CNc1ccc2cc(C(N)=O)n(C(=O)OCc3oc(=O)oc3[O-])c2c1 (protonated)
CNc1ccc2cc(C(N)=O)n(C(=O)OCc3oc(=O)oc3[O-])c2c1 (3D coordinates assigned)
CNc1ccc2cc(C(N)=O)n(C(=O)OCc3oc(=O)oc3[O-])c2c1 (optimized conformer: 108.65062705101627 kcal/mol)

>  <smiles>  (62) 
CNc1ccc2cc(C(N)=O)n(C(=O)OCc3oc(=O)oc3O)c2c1

>  <score_type>  (62) 
oracle

>  <origin>  (62) 
adg

>  <m_score__min__energy>  (62) 
-7.1500000000000004

>  <m_primary>  (62) 
energy

$$$$
62:0
     RDKit          3D

 42 43  0  0  0  0  0  0  0  0999 V2000
  139.5860  159.2750  131.4700 C   0  0  0  0  0  0  0  0  0  0  0  0
  138.7370  159.2570  132.5960 O   0  0  0  0  0  0  0  0  0  0  0  0
  138.9170  158.0620  133.3310 C   0  0  0  0  0  0  0  0  0  0  0  0
  140.3740  157.5930  133.2360 C   0  0  0  0  0  0  0  0  0  0  0  0
  141.1810  158.1840  134.3140 N   0  0  0  0  0  0  0  0  0  0  0  0
  140.6000  158.2400  135.6620 C   0  0  0  0  0  0  0  0  0  0  0  0
  142.4960  158.7460  134.0590 C   0  0  0  0  0  0  0  0  0  0  0  0
  142.6800  160.1560  133.9920 C   0  0  0  0  0  0  0  0  0  0  0  0
  143.9430  160.7110  133.7290 C   0  0  0  0  0  0  0  0  0  0  0  0
  145.0130  159.8450  133.5450 C   0  0  0  0  0  0  0  0  0  0  0  0
  146.3300  160.1140  133.2540 C   0  0  0  0  0  0  0  0  0  0  0  0
  146.9510  158.8690  133.1700 C   0  0  0  0  0  0  0  0  0  0  0  0
  148.4030  158.6990  132.9540 C   0  0  0  0  0  0  0  0  0  0  0  0
  148.8980  157.9930  131.8200 N   0  0  0  0  0  0  0  0  0  0  0  0
  149.2170  159.1400  133.8100 O   0  0  0  0  0  0  0  0  0  0  0  0
  146.0520  157.8700  133.3920 N   0  0  0  0  0  0  0  0  0  0  0  0
  146.2760  156.4540  133.3060 C   0  0  0  0  0  0  0  0  0  0  0  0
  146.7730  155.9580  132.2570 O   0  0  0  0  0  0  0  0  0  0  0  0
  145.9600  155.6340  134.3920 O   0  0  0  0  0  0  0  0  0  0  0  0
  146.9320  154.8470  135.0710 C   0  0  0  0  0  0  0  0  0  0  0  0
  146.2490  153.9430  136.0390 C   0  0  0  0  0  0  0  0  0  0  0  0
  145.0080  154.0440  136.2300 O   0  0  0  0  0  0  0  0  0  0  0  0
  146.9790  152.9960  136.7460 O   0  0  0  0  0  0  0  0  0  0  0  0
  144.8710  158.4850  133.6230 C   0  0  0  0  0  0  0  0  0  0  0  0
  143.6210  157.9020  133.8610 C   0  0  0  0  0  0  0  0  0  0  0  0
  140.6346  159.2972  131.8017 H   0  0  0  0  0  0  0  0  0  0  0  0
  139.4118  158.3730  130.8650 H   0  0  0  0  0  0  0  0  0  0  0  0
  139.3738  160.1688  130.8650 H   0  0  0  0  0  0  0  0  0  0  0  0
  138.6620  158.2428  134.3857 H   0  0  0  0  0  0  0  0  0  0  0  0
  138.2624  157.2829  132.9132 H   0  0  0  0  0  0  0  0  0  0  0  0
  140.4067  156.4967  133.3198 H   0  0  0  0  0  0  0  0  0  0  0  0
  140.7867  157.9140  132.2682 H   0  0  0  0  0  0  0  0  0  0  0  0
  141.4023  158.1627  136.4106 H   0  0  0  0  0  0  0  0  0  0  0  0
  140.0675  159.1936  135.7924 H   0  0  0  0  0  0  0  0  0  0  0  0
  139.8952  157.4056  135.7924 H   0  0  0  0  0  0  0  0  0  0  0  0
  141.8186  160.8219  134.1488 H   0  0  0  0  0  0  0  0  0  0  0  0
  144.0808  161.8008  133.6704 H   0  0  0  0  0  0  0  0  0  0  0  0
  146.7945  161.1016  133.1167 H   0  0  0  0  0  0  0  0  0  0  0  0
  148.4290  157.1240  131.4810 H   0  0  0  0  0  0  0  0  0  0  0  0
  147.4928  154.2457  134.3403 H   0  0  0  0  0  0  0  0  0  0  0  0
  147.6263  155.5069  135.6118 H   0  0  0  0  0  0  0  0  0  0  0  0
  143.5117  156.8079  133.8941 H   0  0  0  0  0  0  0  0  0  0  0  0
  1  2  1  0
  2  3  1  0
  3  4  1  0
  4  5  1  0
  5  6  1  0
  5  7  1  0
  7  8  2  0
  8  9  1  0
  9 10  2  0
 10 11  1  0
 11 12  2  0
 12 13  1  0
 13 14  1  0
 13 15  2  0
 12 16  1  0
 16 17  1  0
 17 18  2  0
 17 19  1  0
 19 20  1  0
 20 21  1  0
 21 22  2  0
 21 23  1  0
 16 24  1  0
 24 25  2  0
 25  7  1  0
 24 10  1  0
  1 26  1  0
  1 27  1  0
  1 28  1  0
  3 29  1  0
  3 30  1  0
  4 31  1  0
  4 32  1  0
  6 33  1  0
  6 34  1  0
  6 35  1  0
  8 36  1  0
  9 37  1  0
 11 38  1  0
 14 39  1  0
 20 40  1  0
 20 41  1  0
 25 42  1  0
M  CHG  2  14  -1  23  -1
M  END
>  <UniqueID>  (63) 
63

>  <SMILES>  (63) 
COCCN(C)c1ccc2cc(C([NH-])=O)n(C(=O)OCC(=O)[O-])c2c1

>  <Energy>  (63) 
79.63396245557861

>  <Genealogy>  (63) 
COCCN(C)c1ccc2cc(C([NH-])=O)n(C(=O)OCC(=O)[O-])c2c1 (protonated)
COCCN(C)c1ccc2cc(C([NH-])=O)n(C(=O)OCC(=O)[O-])c2c1 (3D coordinates assigned)
COCCN(C)c1ccc2cc(C([NH-])=O)n(C(=O)OCC(=O)[O-])c2c1 (optimized conformer: 79.63396245557861 kcal/mol)

>  <smiles>  (63) 
COCCN(C)c1ccc2cc(C(N)=O)n(C(=O)OCC(=O)O)c2c1

>  <score_type>  (63) 
oracle

>  <origin>  (63) 
adg

>  <m_score__min__energy>  (63) 
-6.1799999999999997

>  <m_primary>  (63) 
energy

$$$$
63:0
     RDKit          3D

 43 44  0  0  0  0  0  0  0  0999 V2000
  148.8550  151.6210  137.0820 C   0  0  0  0  0  0  0  0  0  0  0  0
  148.5200  152.6420  136.1670 O   0  0  0  0  0  0  0  0  0  0  0  0
  148.1880  153.8310  136.8580 C   0  0  0  0  0  0  0  0  0  0  0  0
  146.7470  153.7640  137.3660 C   0  0  0  0  0  0  0  0  0  0  0  0
  145.8570  153.4510  136.2970 O   0  0  0  0  0  0  0  0  0  0  0  0
  144.6630  154.1420  136.0540 C   0  0  0  0  0  0  0  0  0  0  0  0
  143.8530  154.3500  136.9990 O   0  0  0  0  0  0  0  0  0  0  0  0
  144.3550  154.6070  134.7260 N   0  0  0  0  0  0  0  0  0  0  0  0
  142.9810  154.9930  134.3950 C   0  0  0  0  0  0  0  0  0  0  0  0
  145.3410  154.5320  133.6790 C   0  0  0  0  0  0  0  0  0  0  0  0
  145.3380  153.5550  132.8830 O   0  0  0  0  0  0  0  0  0  0  0  0
  146.3260  155.5680  133.5190 N   0  0  0  0  0  0  0  0  0  0  0  0
  147.6520  155.4120  133.2500 C   0  0  0  0  0  0  0  0  0  0  0  0
  148.3840  154.1300  133.2280 C   0  0  0  0  0  0  0  0  0  0  0  0
  147.8600  152.9660  133.8690 N   0  0  0  0  0  0  0  0  0  0  0  0
  149.5150  154.0730  132.6750 O   0  0  0  0  0  0  0  0  0  0  0  0
  148.2580  156.6480  133.0350 C   0  0  0  0  0  0  0  0  0  0  0  0
  147.2530  157.5760  133.1900 C   0  0  0  0  0  0  0  0  0  0  0  0
  147.2910  158.9630  133.0900 C   0  0  0  0  0  0  0  0  0  0  0  0
  146.0920  159.6710  133.2780 C   0  0  0  0  0  0  0  0  0  0  0  0
  144.8760  158.9840  133.5320 C   0  0  0  0  0  0  0  0  0  0  0  0
  143.6000  159.7500  133.7700 C   0  0  0  0  0  0  0  0  0  0  0  0
  142.5700  159.2490  132.9940 F   0  0  0  0  0  0  0  0  0  0  0  0
  143.2220  159.6610  135.0990 F   0  0  0  0  0  0  0  0  0  0  0  0
  143.8010  161.0800  133.4480 F   0  0  0  0  0  0  0  0  0  0  0  0
  144.8820  157.5750  133.6420 C   0  0  0  0  0  0  0  0  0  0  0  0
  146.0960  156.8980  133.4740 C   0  0  0  0  0  0  0  0  0  0  0  0
  148.7324  151.9946  138.1093 H   0  0  0  0  0  0  0  0  0  0  0  0
  148.1934  150.7563  136.9249 H   0  0  0  0  0  0  0  0  0  0  0  0
  149.9002  151.3163  136.9249 H   0  0  0  0  0  0  0  0  0  0  0  0
  148.8688  153.9562  137.7129 H   0  0  0  0  0  0  0  0  0  0  0  0
  148.2861  154.6841  136.1705 H   0  0  0  0  0  0  0  0  0  0  0  0
  146.6714  152.9861  138.1401 H   0  0  0  0  0  0  0  0  0  0  0  0
  146.4707  154.7427  137.7853 H   0  0  0  0  0  0  0  0  0  0  0  0
  142.4116  155.1530  135.3224 H   0  0  0  0  0  0  0  0  0  0  0  0
  142.9928  155.9226  133.8070 H   0  0  0  0  0  0  0  0  0  0  0  0
  142.5070  154.1932  133.8070 H   0  0  0  0  0  0  0  0  0  0  0  0
  148.3810  152.0640  133.8170 H   0  0  0  0  0  0  0  0  0  0  0  0
  147.0210  153.0200  134.4870 H   0  0  0  0  0  0  0  0  0  0  0  0
  149.3136  156.8410  132.7932 H   0  0  0  0  0  0  0  0  0  0  0  0
  148.2314  159.4896  132.8703 H   0  0  0  0  0  0  0  0  0  0  0  0
  146.0956  160.7699  133.2278 H   0  0  0  0  0  0  0  0  0  0  0  0
  143.9545  157.0231  133.8546 H   0  0  0  0  0  0  0  0  0  0  0  0
  1  2  1  0
  2  3  1  0
  3  4  1  0
  4  5  1  0
  5  6  1  0
  6  7  2  0
  6  8  1  0
  8  9  1  0
  8 10  1  0
 10 11  2  0
 10 12  1  0
 12 13  1  0
 13 14  1  0
 14 15  1  0
 14 16  2  0
 13 17  2  0
 17 18  1  0
 18 19  2  0
 19 20  1  0
 20 21  2  0
 21 22  1  0
 22 23  1  0
 22 24  1  0
 22 25  1  0
 21 26  1  0
 26 27  2  0
 27 12  1  0
 27 18  1  0
  1 28  1  0
  1 29  1  0
  1 30  1  0
  3 31  1  0
  3 32  1  0
  4 33  1  0
  4 34  1  0
  9 35  1  0
  9 36  1  0
  9 37  1  0
 15 38  1  0
 15 39  1  0
 17 40  1  0
 19 41  1  0
 20 42  1  0
 26 43  1  0
M  END
>  <UniqueID>  (64) 
64

>  <SMILES>  (64) 
COCCOC(=O)N(C)C(=O)n1c(C(N)=O)cc2ccc(C(F)(F)F)cc21

>  <Energy>  (64) 
82.11502233041875

>  <Genealogy>  (64) 
COCCOC(=O)N(C)C(=O)n1c(C(N)=O)cc2ccc(C(F)(F)F)cc21 (3D coordinates assigned)
COCCOC(=O)N(C)C(=O)n1c(C(N)=O)cc2ccc(C(F)(F)F)cc21 (optimized conformer: 82.11502233041875 kcal/mol)

>  <smiles>  (64) 
COCCOC(=O)N(C)C(=O)n1c(C(N)=O)cc2ccc(C(F)(F)F)cc21

>  <score_type>  (64) 
oracle

>  <origin>  (64) 
adg

>  <m_score__min__energy>  (64) 
-5.8499999999999996

>  <m_primary>  (64) 
energy

$$$$
64:0
     RDKit          3D

 37 38  0  0  0  0  0  0  0  0999 V2000
  144.9070  160.7390  133.6900 C   0  0  0  0  0  0  0  0  0  0  0  0
  146.0380  159.8070  133.3710 C   0  0  0  0  0  0  0  0  0  0  0  0
  147.3470  160.3190  133.1840 C   0  0  0  0  0  0  0  0  0  0  0  0
  148.4230  159.4540  132.9170 C   0  0  0  0  0  0  0  0  0  0  0  0
  148.1610  158.0890  132.8550 C   0  0  0  0  0  0  0  0  0  0  0  0
  149.0090  157.0290  132.6150 C   0  0  0  0  0  0  0  0  0  0  0  0
  148.2050  155.8910  132.6800 C   0  0  0  0  0  0  0  0  0  0  0  0
  148.7090  154.5110  132.5310 C   0  0  0  0  0  0  0  0  0  0  0  0
  147.8050  153.4110  132.6190 N   0  0  0  0  0  0  0  0  0  0  0  0
  149.9300  154.2910  132.3180 O   0  0  0  0  0  0  0  0  0  0  0  0
  146.9150  156.2390  132.9420 N   0  0  0  0  0  0  0  0  0  0  0  0
  145.7800  155.3730  133.0790 C   0  0  0  0  0  0  0  0  0  0  0  0
  145.3280  154.7930  132.0550 O   0  0  0  0  0  0  0  0  0  0  0  0
  145.1840  155.1390  134.3720 N   0  0  0  0  0  0  0  0  0  0  0  0
  144.0410  155.9480  134.8010 C   0  0  0  0  0  0  0  0  0  0  0  0
  145.7810  154.1770  135.3110 C   0  0  0  0  0  0  0  0  0  0  0  0
  147.1030  154.7010  135.8850 C   0  0  0  0  0  0  0  0  0  0  0  0
  147.7060  153.7360  136.8570 C   0  0  0  0  0  0  0  0  0  0  0  0
  147.1100  152.6620  137.1350 O   0  0  0  0  0  0  0  0  0  0  0  0
  148.9060  154.0400  137.4880 O   0  0  0  0  0  0  0  0  0  0  0  0
  146.9050  157.5810  133.0530 C   0  0  0  0  0  0  0  0  0  0  0  0
  145.8150  158.4150  133.3180 C   0  0  0  0  0  0  0  0  0  0  0  0
  144.8007  160.8266  134.7814 H   0  0  0  0  0  0  0  0  0  0  0  0
  145.1166  161.7301  133.2613 H   0  0  0  0  0  0  0  0  0  0  0  0
  143.9742  160.3439  133.2613 H   0  0  0  0  0  0  0  0  0  0  0  0
  147.5224  161.4030  133.2484 H   0  0  0  0  0  0  0  0  0  0  0  0
  149.4397  159.8442  132.7621 H   0  0  0  0  0  0  0  0  0  0  0  0
  150.0898  157.0715  132.4148 H   0  0  0  0  0  0  0  0  0  0  0  0
  146.9560  153.3620  132.0130 H   0  0  0  0  0  0  0  0  0  0  0  0
  144.0028  155.9750  135.9000 H   0  0  0  0  0  0  0  0  0  0  0  0
  144.1497  156.9714  134.4126 H   0  0  0  0  0  0  0  0  0  0  0  0
  143.1120  155.5052  134.4126 H   0  0  0  0  0  0  0  0  0  0  0  0
  145.0772  154.0001  136.1377 H   0  0  0  0  0  0  0  0  0  0  0  0
  145.9863  153.2437  134.7662 H   0  0  0  0  0  0  0  0  0  0  0  0
  147.8107  154.8637  135.0587 H   0  0  0  0  0  0  0  0  0  0  0  0
  146.8966  155.6407  136.4183 H   0  0  0  0  0  0  0  0  0  0  0  0
  144.8105  157.9972  133.4808 H   0  0  0  0  0  0  0  0  0  0  0  0
  1  2  1  0
  2  3  2  0
  3  4  1  0
  4  5  2  0
  5  6  1  0
  6  7  2  0
  7  8  1  0
  8  9  1  0
  8 10  2  0
  7 11  1  0
 11 12  1  0
 12 13  2  0
 12 14  1  0
 14 15  1  0
 14 16  1  0
 16 17  1  0
 17 18  1  0
 18 19  2  0
 18 20  1  0
 11 21  1  0
 21 22  2  0
 22  2  1  0
 21  5  1  0
  1 23  1  0
  1 24  1  0
  1 25  1  0
  3 26  1  0
  4 27  1  0
  6 28  1  0
  9 29  1  0
 15 30  1  0
 15 31  1  0
 15 32  1  0
 16 33  1  0
 16 34  1  0
 17 35  1  0
 17 36  1  0
 22 37  1  0
M  CHG  2   9  -1  20  -1
M  END
>  <UniqueID>  (65) 
65

>  <SMILES>  (65) 
Cc1ccc2cc(C([NH-])=O)n(C(=O)N(C)CCC(=O)[O-])c2c1

>  <Energy>  (65) 
70.53695150746124

>  <Genealogy>  (65) 
Cc1ccc2cc(C([NH-])=O)n(C(=O)N(C)CCC(=O)[O-])c2c1 (protonated)
Cc1ccc2cc(C([NH-])=O)n(C(=O)N(C)CCC(=O)[O-])c2c1 (3D coordinates assigned)
Cc1ccc2cc(C([NH-])=O)n(C(=O)N(C)CCC(=O)[O-])c2c1 (optimized conformer: 70.53695150746124 kcal/mol)

>  <smiles>  (65) 
Cc1ccc2cc(C(N)=O)n(C(=O)N(C)CCC(=O)O)c2c1

>  <score_type>  (65) 
oracle

>  <origin>  (65) 
adg

>  <m_score__min__energy>  (65) 
-6.4500000000000002

>  <m_primary>  (65) 
energy

$$$$
65:0
     RDKit          3D

 35 36  0  0  0  0  0  0  0  0999 V2000
  143.9450  163.8420  133.7110 C   0  0  0  0  0  0  0  0  0  0  0  0
  144.8220  162.6570  134.0060 C   0  0  0  0  0  0  0  0  0  0  0  0
  146.2340  162.8560  134.4840 C   0  0  0  0  0  0  0  0  0  0  0  0
  144.3310  161.4230  133.8420 C   0  0  0  0  0  0  0  0  0  0  0  0
  145.1240  160.3020  134.1070 O   0  0  0  0  0  0  0  0  0  0  0  0
  145.1950  159.1930  133.2590 C   0  0  0  0  0  0  0  0  0  0  0  0
  144.1750  158.8060  132.6270 O   0  0  0  0  0  0  0  0  0  0  0  0
  146.4390  158.4880  133.1120 N   0  0  0  0  0  0  0  0  0  0  0  0
  146.7880  157.2950  133.6720 C   0  0  0  0  0  0  0  0  0  0  0  0
  145.8910  156.3950  134.4230 C   0  0  0  0  0  0  0  0  0  0  0  0
  144.5010  156.3020  134.1050 N   0  0  0  0  0  0  0  0  0  0  0  0
  146.3680  155.6550  135.3230 O   0  0  0  0  0  0  0  0  0  0  0  0
  148.1190  156.9910  133.3960 C   0  0  0  0  0  0  0  0  0  0  0  0
  148.5780  158.0380  132.6300 C   0  0  0  0  0  0  0  0  0  0  0  0
  149.8390  158.2600  132.0840 C   0  0  0  0  0  0  0  0  0  0  0  0
  150.0450  159.4480  131.3630 C   0  0  0  0  0  0  0  0  0  0  0  0
  148.9980  160.3870  131.2100 C   0  0  0  0  0  0  0  0  0  0  0  0
  149.2250  161.5990  130.4850 N   0  0  0  0  0  0  0  0  0  0  0  0
  147.7330  160.1320  131.7780 C   0  0  0  0  0  0  0  0  0  0  0  0
  147.5470  158.9300  132.4740 C   0  0  0  0  0  0  0  0  0  0  0  0
  143.6101  164.2946  134.6560 H   0  0  0  0  0  0  0  0  0  0  0  0
  144.5136  164.5835  133.1306 H   0  0  0  0  0  0  0  0  0  0  0  0
  143.0697  163.5149  133.1306 H   0  0  0  0  0  0  0  0  0  0  0  0
  146.2518  162.8585  135.5838 H   0  0  0  0  0  0  0  0  0  0  0  0
  146.8668  162.0382  134.1089 H   0  0  0  0  0  0  0  0  0  0  0  0
  146.6161  163.8169  134.1089 H   0  0  0  0  0  0  0  0  0  0  0  0
  143.2954  161.2893  133.4960 H   0  0  0  0  0  0  0  0  0  0  0  0
  143.8740  155.6910  134.6720 H   0  0  0  0  0  0  0  0  0  0  0  0
  144.1100  156.7730  133.2590 H   0  0  0  0  0  0  0  0  0  0  0  0
  148.6826  156.1039  133.7208 H   0  0  0  0  0  0  0  0  0  0  0  0
  150.6495  157.5276  132.2131 H   0  0  0  0  0  0  0  0  0  0  0  0
  151.0286  159.6498  130.9137 H   0  0  0  0  0  0  0  0  0  0  0  0
  148.4440  162.0710  129.9760 H   0  0  0  0  0  0  0  0  0  0  0  0
  150.1750  162.0330  130.4550 H   0  0  0  0  0  0  0  0  0  0  0  0
  146.9129  160.8581  131.6774 H   0  0  0  0  0  0  0  0  0  0  0  0
  1  2  1  0
  2  3  1  0
  2  4  2  3
  4  5  1  0
  5  6  1  0
  6  7  2  0
  6  8  1  0
  8  9  1  0
  9 10  1  0
 10 11  1  0
 10 12  2  0
  9 13  2  0
 13 14  1  0
 14 15  2  0
 15 16  1  0
 16 17  2  0
 17 18  1  0
 17 19  1  0
 19 20  2  0
 20  8  1  0
 20 14  1  0
  1 21  1  0
  1 22  1  0
  1 23  1  0
  3 24  1  0
  3 25  1  0
  3 26  1  0
  4 27  1  0
 11 28  1  0
 11 29  1  0
 13 30  1  0
 15 31  1  0
 16 32  1  0
 18 33  1  0
 18 34  1  0
 19 35  1  0
M  END
>  <UniqueID>  (66) 
66

>  <SMILES>  (66) 
CC(C)=COC(=O)n1c(C(N)=O)cc2ccc(N)cc21

>  <Energy>  (66) 
67.90066852021879

>  <Genealogy>  (66) 
CC(C)=COC(=O)n1c(C(N)=O)cc2ccc(N)cc21 (3D coordinates assigned)
CC(C)=COC(=O)n1c(C(N)=O)cc2ccc(N)cc21 (optimized conformer: 67.90066852021879 kcal/mol)

>  <smiles>  (66) 
CC(C)=COC(=O)n1c(C(N)=O)cc2ccc(N)cc21

>  <score_type>  (66) 
oracle

>  <origin>  (66) 
adg

>  <m_score__min__energy>  (66) 
-7.0499999999999998

>  <m_primary>  (66) 
energy

$$$$
66:0
     RDKit          3D

 43 44  0  0  0  0  0  0  0  0999 V2000
  143.0290  161.4440  133.7000 N   0  0  0  0  0  0  0  0  0  0  0  0
  144.4480  161.5500  133.8430 C   0  0  0  0  0  0  0  0  0  0  0  0
  144.9460  162.6560  134.1780 O   0  0  0  0  0  0  0  0  0  0  0  0
  145.3250  160.3870  133.5740 C   0  0  0  0  0  0  0  0  0  0  0  0
  146.7020  160.4820  133.3910 C   0  0  0  0  0  0  0  0  0  0  0  0
  147.1430  159.1860  133.2560 C   0  0  0  0  0  0  0  0  0  0  0  0
  148.4280  158.6980  133.0410 C   0  0  0  0  0  0  0  0  0  0  0  0
  148.5940  157.3090  132.9110 C   0  0  0  0  0  0  0  0  0  0  0  0
  147.4770  156.4400  132.9800 C   0  0  0  0  0  0  0  0  0  0  0  0
  147.6730  154.9580  132.8610 C   0  0  0  0  0  0  0  0  0  0  0  0
  149.0220  154.6810  132.7140 F   0  0  0  0  0  0  0  0  0  0  0  0
  146.1890  156.9700  133.2140 C   0  0  0  0  0  0  0  0  0  0  0  0
  146.0550  158.3580  133.3580 C   0  0  0  0  0  0  0  0  0  0  0  0
  144.9280  159.0800  133.5560 N   0  0  0  0  0  0  0  0  0  0  0  0
  143.5860  158.5710  133.6450 C   0  0  0  0  0  0  0  0  0  0  0  0
  143.1200  157.8610  132.7120 O   0  0  0  0  0  0  0  0  0  0  0  0
  142.7890  158.8460  134.8020 N   0  0  0  0  0  0  0  0  0  0  0  0
  142.1830  157.8120  135.6320 C   0  0  0  0  0  0  0  0  0  0  0  0
  140.9050  157.3400  135.0180 C   0  0  0  0  0  0  0  0  0  0  0  0
  140.7960  156.1420  134.6430 O   0  0  0  0  0  0  0  0  0  0  0  0
  139.8080  158.2490  134.8760 N   0  0  0  0  0  0  0  0  0  0  0  0
  138.7300  158.0820  133.9050 C   0  0  0  0  0  0  0  0  0  0  0  0
  139.2770  158.1470  132.4650 C   0  0  2  0  0  0  0  0  0  0  0  0
  140.2540  157.1610  132.2390 O   0  0  0  0  0  0  0  0  0  0  0  0
  139.8220  159.5440  132.1170 C   0  0  0  0  0  0  0  0  0  0  0  0
  141.0990  159.7450  132.6670 O   0  0  0  0  0  0  0  0  0  0  0  0
  142.4230  162.2850  133.8370 H   0  0  0  0  0  0  0  0  0  0  0  0
  142.5700  160.5330  133.4850 H   0  0  0  0  0  0  0  0  0  0  0  0
  147.3087  161.3991  133.3608 H   0  0  0  0  0  0  0  0  0  0  0  0
  149.2888  159.3797  132.9747 H   0  0  0  0  0  0  0  0  0  0  0  0
  149.5999  156.8925  132.7543 H   0  0  0  0  0  0  0  0  0  0  0  0
  147.2940  154.4640  133.7678 H   0  0  0  0  0  0  0  0  0  0  0  0
  147.1244  154.5849  131.9836 H   0  0  0  0  0  0  0  0  0  0  0  0
  145.3120  156.3095  133.2817 H   0  0  0  0  0  0  0  0  0  0  0  0
  142.8780  156.9641  135.7213 H   0  0  0  0  0  0  0  0  0  0  0  0
  141.9701  158.2297  136.6271 H   0  0  0  0  0  0  0  0  0  0  0  0
  138.2487  157.1058  134.0645 H   0  0  0  0  0  0  0  0  0  0  0  0
  138.0015  158.8945  134.0430 H   0  0  0  0  0  0  0  0  0  0  0  0
  138.4278  157.9460  131.7953 H   0  0  0  0  0  0  0  0  0  0  0  0
  141.0290  157.3620  132.8260 H   0  0  0  0  0  0  0  0  0  0  0  0
  139.8834  159.6425  131.0231 H   0  0  0  0  0  0  0  0  0  0  0  0
  139.1401  160.2976  132.5378 H   0  0  0  0  0  0  0  0  0  0  0  0
  141.2890  158.9630  133.2480 H   0  0  0  0  0  0  0  0  0  0  0  0
  1  2  1  0
  2  3  2  0
  2  4  1  0
  4  5  2  0
  5  6  1  0
  6  7  2  0
  7  8  1  0
  8  9  2  0
  9 10  1  0
 10 11  1  0
  9 12  1  0
 12 13  2  0
 13 14  1  0
 14 15  1  0
 15 16  2  0
 15 17  1  0
 17 18  1  0
 18 19  1  0
 19 20  2  0
 19 21  1  0
 21 22  1  0
 22 23  1  0
 23 24  1  0
 23 25  1  0
 25 26  1  0
 14  4  1  0
 13  6  1  0
  1 27  1  0
  1 28  1  0
  5 29  1  0
  7 30  1  0
  8 31  1  0
 10 32  1  0
 10 33  1  0
 12 34  1  0
 18 35  1  0
 18 36  1  0
 22 37  1  0
 22 38  1  0
 23 39  1  6
 24 40  1  0
 25 41  1  0
 25 42  1  0
 26 43  1  0
M  CHG  2  17  -1  21  -1
M  END
>  <UniqueID>  (67) 
67

>  <SMILES>  (67) 
NC(=O)c1cc2ccc(CF)cc2n1C(=O)[N-]CC(=O)[N-]C[C@H](O)CO

>  <Energy>  (67) 
74.2909379282221

>  <Genealogy>  (67) 
NC(=O)c1cc2ccc(CF)cc2n1C(=O)[N-]CC(=O)[N-]CC(O)CO (protonated)
NC(=O)c1cc2ccc(CF)cc2n1C(=O)[N-]CC(=O)[N-]C[C@H](O)CO (chirality)
NC(=O)c1cc2ccc(CF)cc2n1C(=O)[N-]CC(=O)[N-]C[C@H](O)CO (3D coordinates assigned)
NC(=O)c1cc2ccc(CF)cc2n1C(=O)[N-]CC(=O)[N-]C[C@H](O)CO (optimized conformer: 74.2909379282221 kcal/mol)

>  <smiles>  (67) 
NC(=O)c1cc2ccc(CF)cc2n1C(=O)NCC(=O)NCC(O)CO

>  <score_type>  (67) 
oracle

>  <origin>  (67) 
adg

>  <m_score__min__energy>  (67) 
-5.1299999999999999

>  <m_primary>  (67) 
energy

$$$$
67:0
     RDKit          3D

 30 31  0  0  0  0  0  0  0  0999 V2000
  147.8180  160.4840  130.6180 C   0  0  0  0  0  0  0  0  0  0  0  0
  148.9580  160.3130  131.2860 C   0  0  0  0  0  0  0  0  0  0  0  0
  149.9870  161.1630  131.0400 F   0  0  0  0  0  0  0  0  0  0  0  0
  149.1860  159.1820  132.2110 C   0  0  0  0  0  0  0  0  0  0  0  0
  150.0450  158.3180  131.8890 O   0  0  0  0  0  0  0  0  0  0  0  0
  148.4730  159.0330  133.5000 C   0  0  0  0  0  0  0  0  0  0  0  0
  149.0770  159.2150  134.5910 O   0  0  0  0  0  0  0  0  0  0  0  0
  147.0910  158.6520  133.5230 N   0  0  0  0  0  0  0  0  0  0  0  0
  146.5730  157.4040  133.3480 C   0  0  0  0  0  0  0  0  0  0  0  0
  147.3590  156.1660  133.1740 C   0  0  0  0  0  0  0  0  0  0  0  0
  148.7750  156.1920  133.3370 N   0  0  0  0  0  0  0  0  0  0  0  0
  146.7930  155.0810  132.8710 O   0  0  0  0  0  0  0  0  0  0  0  0
  145.1800  157.4460  133.3870 C   0  0  0  0  0  0  0  0  0  0  0  0
  144.8600  158.7710  133.5850 C   0  0  0  0  0  0  0  0  0  0  0  0
  143.6170  159.3890  133.6860 C   0  0  0  0  0  0  0  0  0  0  0  0
  143.5880  160.7840  133.8610 C   0  0  0  0  0  0  0  0  0  0  0  0
  144.7920  161.5290  133.9240 C   0  0  0  0  0  0  0  0  0  0  0  0
  144.7320  163.0160  134.1050 C   0  0  0  0  0  0  0  0  0  0  0  0
  146.0360  160.8670  133.8170 C   0  0  0  0  0  0  0  0  0  0  0  0
  146.0320  159.4770  133.6600 C   0  0  0  0  0  0  0  0  0  0  0  0
  146.9683  159.8091  130.7983 H   0  0  0  0  0  0  0  0  0  0  0  0
  147.7265  161.3001  129.8861 H   0  0  0  0  0  0  0  0  0  0  0  0
  149.2750  157.0840  133.5510 H   0  0  0  0  0  0  0  0  0  0  0  0
  144.4842  156.6005  133.2819 H   0  0  0  0  0  0  0  0  0  0  0  0
  142.6867  158.8047  133.6307 H   0  0  0  0  0  0  0  0  0  0  0  0
  142.6216  161.3019  133.9498 H   0  0  0  0  0  0  0  0  0  0  0  0
  144.7224  163.2546  135.1788 H   0  0  0  0  0  0  0  0  0  0  0  0
  145.6122  163.4785  133.6345 H   0  0  0  0  0  0  0  0  0  0  0  0
  143.8174  163.4060  133.6345 H   0  0  0  0  0  0  0  0  0  0  0  0
  146.9808  161.4290  133.8561 H   0  0  0  0  0  0  0  0  0  0  0  0
  1  2  2  0
  2  3  1  0
  2  4  1  0
  4  5  2  0
  4  6  1  0
  6  7  2  0
  6  8  1  0
  8  9  1  0
  9 10  1  0
 10 11  1  0
 10 12  2  0
  9 13  2  0
 13 14  1  0
 14 15  2  0
 15 16  1  0
 16 17  2  0
 17 18  1  0
 17 19  1  0
 19 20  2  0
 20  8  1  0
 20 14  1  0
  1 21  1  0
  1 22  1  0
 11 23  1  0
 13 24  1  0
 15 25  1  0
 16 26  1  0
 18 27  1  0
 18 28  1  0
 18 29  1  0
 19 30  1  0
M  CHG  1  11  -1
M  END
>  <UniqueID>  (68) 
68

>  <SMILES>  (68) 
C=C(F)C(=O)C(=O)n1c(C([NH-])=O)cc2ccc(C)cc21

>  <Energy>  (68) 
71.53709603067156

>  <Genealogy>  (68) 
C=C(F)C(=O)C(=O)n1c(C([NH-])=O)cc2ccc(C)cc21 (protonated)
C=C(F)C(=O)C(=O)n1c(C([NH-])=O)cc2ccc(C)cc21 (3D coordinates assigned)
C=C(F)C(=O)C(=O)n1c(C([NH-])=O)cc2ccc(C)cc21 (optimized conformer: 71.53709603067156 kcal/mol)

>  <smiles>  (68) 
C=C(F)C(=O)C(=O)n1c(C(N)=O)cc2ccc(C)cc21

>  <score_type>  (68) 
oracle

>  <origin>  (68) 
adg

>  <m_score__min__energy>  (68) 
-6.3399999999999999

>  <m_primary>  (68) 
energy

$$$$
69:0
     RDKit          3D

 35 36  0  0  0  0  0  0  0  0999 V2000
  144.2780  154.8720  135.9850 C   0  0  0  0  0  0  0  0  0  0  0  0
  144.6850  154.8160  134.5780 N   0  0  0  0  0  0  0  0  0  0  0  0
  145.7740  153.9200  134.1730 C   0  0  0  0  0  0  0  0  0  0  0  0
  147.2250  154.1550  135.2470 P   0  0  0  0  0  0  0  0  0  0  0  0
  148.4610  153.6240  134.5570 O   0  0  0  0  0  0  0  0  0  0  0  0
  147.4340  155.7980  135.5870 O   0  0  0  0  0  0  0  0  0  0  0  0
  146.9880  153.3140  136.6930 O   0  0  0  0  0  0  0  0  0  0  0  0
  143.9560  155.5750  133.5930 C   0  0  0  0  0  0  0  0  0  0  0  0
  143.4290  154.9960  132.6050 O   0  0  0  0  0  0  0  0  0  0  0  0
  143.8220  156.9970  133.7200 N   0  0  0  0  0  0  0  0  0  0  0  0
  142.6860  157.7130  133.9440 C   0  0  0  0  0  0  0  0  0  0  0  0
  141.3430  157.1460  134.1910 C   0  0  0  0  0  0  0  0  0  0  0  0
  140.7940  156.1540  133.3280 N   0  0  0  0  0  0  0  0  0  0  0  0
  140.6770  157.5300  135.1890 O   0  0  0  0  0  0  0  0  0  0  0  0
  142.9670  159.0790  133.9450 C   0  0  0  0  0  0  0  0  0  0  0  0
  144.3210  159.1740  133.7090 C   0  0  0  0  0  0  0  0  0  0  0  0
  145.1420  160.2930  133.6100 C   0  0  0  0  0  0  0  0  0  0  0  0
  146.5070  160.0880  133.3530 C   0  0  0  0  0  0  0  0  0  0  0  0
  147.0260  158.7770  133.1770 C   0  0  0  0  0  0  0  0  0  0  0  0
  148.5010  158.5680  132.9490 C   0  0  0  0  0  0  0  0  0  0  0  0
  149.2330  159.0260  134.0320 F   0  0  0  0  0  0  0  0  0  0  0  0
  148.7830  157.2250  132.7740 F   0  0  0  0  0  0  0  0  0  0  0  0
  148.8890  159.2620  131.8190 F   0  0  0  0  0  0  0  0  0  0  0  0
  146.1620  157.6640  133.3070 C   0  0  0  0  0  0  0  0  0  0  0  0
  144.8100  157.9020  133.5730 C   0  0  0  0  0  0  0  0  0  0  0  0
  145.1624  154.7503  136.6277 H   0  0  0  0  0  0  0  0  0  0  0  0
  143.8055  155.8436  136.1916 H   0  0  0  0  0  0  0  0  0  0  0  0
  143.5606  154.0641  136.1916 H   0  0  0  0  0  0  0  0  0  0  0  0
  145.4322  152.8772  134.2492 H   0  0  0  0  0  0  0  0  0  0  0  0
  146.0578  154.1509  133.1356 H   0  0  0  0  0  0  0  0  0  0  0  0
  141.3810  155.6880  132.6020 H   0  0  0  0  0  0  0  0  0  0  0  0
  142.2579  159.9053  134.1011 H   0  0  0  0  0  0  0  0  0  0  0  0
  144.7340  161.3075  133.7295 H   0  0  0  0  0  0  0  0  0  0  0  0
  147.1831  160.9531  133.2871 H   0  0  0  0  0  0  0  0  0  0  0  0
  146.5441  156.6379  133.2015 H   0  0  0  0  0  0  0  0  0  0  0  0
  1  2  1  0
  2  3  1  0
  3  4  1  0
  4  5  2  0
  4  6  1  0
  4  7  1  0
  2  8  1  0
  8  9  2  0
  8 10  1  0
 10 11  1  0
 11 12  1  0
 12 13  1  0
 12 14  2  0
 11 15  2  0
 15 16  1  0
 16 17  2  0
 17 18  1  0
 18 19  2  0
 19 20  1  0
 20 21  1  0
 20 22  1  0
 20 23  1  0
 19 24  1  0
 24 25  2  0
 25 10  1  0
 25 16  1  0
  1 26  1  0
  1 27  1  0
  1 28  1  0
  3 29  1  0
  3 30  1  0
 13 31  1  0
 15 32  1  0
 17 33  1  0
 18 34  1  0
 24 35  1  0
M  CHG  3   6  -1   7  -1  13  -1
M  END
>  <UniqueID>  (69) 
69

>  <SMILES>  (69) 
CN(CP(=O)([O-])[O-])C(=O)n1c(C([NH-])=O)cc2ccc(C(F)(F)F)cc21

>  <Energy>  (69) 
69.16818509247223

>  <Genealogy>  (69) 
CN(CP(=O)([O-])[O-])C(=O)n1c(C([NH-])=O)cc2ccc(C(F)(F)F)cc21 (protonated)
CN(CP(=O)([O-])[O-])C(=O)n1c(C([NH-])=O)cc2ccc(C(F)(F)F)cc21 (3D coordinates assigned)
CN(CP(=O)([O-])[O-])C(=O)n1c(C([NH-])=O)cc2ccc(C(F)(F)F)cc21 (optimized conformer: 69.16818509247223 kcal/mol)

>  <smiles>  (69) 
CN(CP(=O)(O)O)C(=O)n1c(C(N)=O)cc2ccc(C(F)(F)F)cc21

>  <score_type>  (69) 
oracle

>  <origin>  (69) 
adg

>  <m_score__min__energy>  (69) 
-5.9400000000000004

>  <m_primary>  (69) 
energy

$$$$
70:0
     RDKit          3D

 34 35  0  0  0  0  0  0  0  0999 V2000
  139.0660  157.8200  134.8780 N   0  0  0  0  0  0  0  0  0  0  0  0
  139.6450  158.3280  133.6770 C   0  0  0  0  0  0  0  0  0  0  0  0
  138.9530  158.3620  132.6260 O   0  0  0  0  0  0  0  0  0  0  0  0
  141.0360  158.8290  133.6850 C   0  0  0  0  0  0  0  0  0  0  0  0
  141.3760  160.1710  133.8390 C   0  0  0  0  0  0  0  0  0  0  0  0
  142.7500  160.2120  133.7450 C   0  0  0  0  0  0  0  0  0  0  0  0
  143.6240  161.2890  133.8440 C   0  0  0  0  0  0  0  0  0  0  0  0
  145.0010  161.0330  133.7390 C   0  0  0  0  0  0  0  0  0  0  0  0
  145.4830  159.7080  133.5480 C   0  0  0  0  0  0  0  0  0  0  0  0
  146.8910  159.4180  133.4490 N   0  0  0  0  0  0  0  0  0  0  0  0
  147.4430  158.1250  133.0460 C   0  0  0  0  0  0  0  0  0  0  0  0
  148.8870  158.2640  132.6800 C   0  0  0  0  0  0  0  0  0  0  0  0
  149.4560  159.3850  132.7590 O   0  0  0  0  0  0  0  0  0  0  0  0
  149.5990  157.1620  132.2240 O   0  0  0  0  0  0  0  0  0  0  0  0
  144.5590  158.6440  133.4530 C   0  0  0  0  0  0  0  0  0  0  0  0
  143.1930  158.9330  133.5430 C   0  0  0  0  0  0  0  0  0  0  0  0
  142.1530  158.0720  133.4980 N   0  0  0  0  0  0  0  0  0  0  0  0
  142.2320  156.6450  133.3580 C   0  0  0  0  0  0  0  0  0  0  0  0
  143.1860  156.1430  132.7050 O   0  0  0  0  0  0  0  0  0  0  0  0
  141.2120  155.7750  133.9860 C   0  0  0  0  0  0  0  0  0  0  0  0
  141.1630  155.7090  135.2430 O   0  0  0  0  0  0  0  0  0  0  0  0
  140.2560  154.9750  133.1880 C   0  0  0  0  0  0  0  0  0  0  0  0
  138.9250  155.4450  132.9660 N   0  0  0  0  0  0  0  0  0  0  0  0
  140.6070  153.8740  132.6870 O   0  0  0  0  0  0  0  0  0  0  0  0
  139.3670  156.9010  135.2710 H   0  0  0  0  0  0  0  0  0  0  0  0
  140.6929  161.0178  134.0012 H   0  0  0  0  0  0  0  0  0  0  0  0
  143.2481  162.3110  133.9999 H   0  0  0  0  0  0  0  0  0  0  0  0
  145.7154  161.8669  133.8052 H   0  0  0  0  0  0  0  0  0  0  0  0
  147.5720  160.1770  133.6760 H   0  0  0  0  0  0  0  0  0  0  0  0
  147.3476  157.4146  133.8804 H   0  0  0  0  0  0  0  0  0  0  0  0
  146.8874  157.7578  132.1705 H   0  0  0  0  0  0  0  0  0  0  0  0
  144.9060  157.6098  133.3112 H   0  0  0  0  0  0  0  0  0  0  0  0
  138.5940  156.3500  133.3710 H   0  0  0  0  0  0  0  0  0  0  0  0
  138.2580  154.8800  132.3960 H   0  0  0  0  0  0  0  0  0  0  0  0
  1  2  1  0
  2  3  2  0
  2  4  1  0
  4  5  2  0
  5  6  1  0
  6  7  2  0
  7  8  1  0
  8  9  2  0
  9 10  1  0
 10 11  1  0
 11 12  1  0
 12 13  2  0
 12 14  1  0
  9 15  1  0
 15 16  2  0
 16 17  1  0
 17 18  1  0
 18 19  2  0
 18 20  1  0
 20 21  2  0
 20 22  1  0
 22 23  1  0
 22 24  2  0
 17  4  1  0
 16  6  1  0
  1 25  1  0
  5 26  1  0
  7 27  1  0
  8 28  1  0
 10 29  1  0
 11 30  1  0
 11 31  1  0
 15 32  1  0
 23 33  1  0
 23 34  1  0
M  CHG  2   1  -1  14  -1
M  END
>  <UniqueID>  (70) 
70

>  <SMILES>  (70) 
[NH-]C(=O)c1cc2ccc(NCC(=O)[O-])cc2n1C(=O)C(=O)C(N)=O

>  <Energy>  (70) 
71.81570631669139

>  <Genealogy>  (70) 
[NH-]C(=O)c1cc2ccc(NCC(=O)[O-])cc2n1C(=O)C(=O)C(N)=O (protonated)
[NH-]C(=O)c1cc2ccc(NCC(=O)[O-])cc2n1C(=O)C(=O)C(N)=O (3D coordinates assigned)
[NH-]C(=O)c1cc2ccc(NCC(=O)[O-])cc2n1C(=O)C(=O)C(N)=O (optimized conformer: 71.81570631669139 kcal/mol)

>  <smiles>  (70) 
NC(=O)C(=O)C(=O)n1c(C(N)=O)cc2ccc(NCC(=O)O)cc21

>  <score_type>  (70) 
oracle

>  <origin>  (70) 
adg

>  <m_score__min__energy>  (70) 
-6.8200000000000003

>  <m_primary>  (70) 
energy

$$$$
71:0
     RDKit          3D

 42 43  0  0  0  0  0  0  0  0999 V2000
  141.6800  159.3450  136.1350 C   0  0  0  0  0  0  0  0  0  0  0  0
  141.4590  159.4230  134.8190 C   0  0  0  0  0  0  0  0  0  0  0  0
  142.3270  160.2680  133.9600 C   0  0  0  0  0  0  0  0  0  0  0  0
  141.8420  161.2680  133.3620 O   0  0  0  0  0  0  0  0  0  0  0  0
  143.7130  159.9550  133.7690 N   0  0  0  0  0  0  0  0  0  0  0  0
  144.7860  160.7890  133.8590 C   0  0  0  0  0  0  0  0  0  0  0  0
  144.7350  162.2450  134.1150 C   0  0  0  0  0  0  0  0  0  0  0  0
  143.8870  163.0970  133.3500 N   0  0  0  0  0  0  0  0  0  0  0  0
  145.4680  162.7490  135.0070 O   0  0  0  0  0  0  0  0  0  0  0  0
  145.9700  160.0810  133.6440 C   0  0  0  0  0  0  0  0  0  0  0  0
  145.5790  158.7800  133.4130 C   0  0  0  0  0  0  0  0  0  0  0  0
  146.3410  157.6420  133.1670 C   0  0  0  0  0  0  0  0  0  0  0  0
  145.6650  156.4190  133.0000 C   0  0  0  0  0  0  0  0  0  0  0  0
  144.2500  156.3580  133.0770 C   0  0  0  0  0  0  0  0  0  0  0  0
  143.5360  155.0450  132.9200 C   0  0  0  0  0  0  0  0  0  0  0  0
  142.4620  154.9020  133.9530 C   0  0  0  0  0  0  0  0  0  0  0  0
  141.3090  154.5190  133.6080 O   0  0  0  0  0  0  0  0  0  0  0  0
  142.7420  155.2200  135.2870 O   0  0  0  0  0  0  0  0  0  0  0  0
  141.8260  155.9260  136.1160 C   0  0  0  0  0  0  0  0  0  0  0  0
  143.5110  157.5340  133.3340 C   0  0  0  0  0  0  0  0  0  0  0  0
  144.2110  158.7340  133.4890 C   0  0  0  0  0  0  0  0  0  0  0  0
  140.0780  158.5360  134.1540 S   0  0  0  0  0  0  0  0  0  0  0  0
  139.1300  158.2090  135.2730 O   0  0  0  0  0  0  0  0  0  0  0  0
  140.5080  157.2530  133.4970 O   0  0  0  0  0  0  0  0  0  0  0  0
  139.2640  159.5310  132.9810 N   0  0  0  0  0  0  0  0  0  0  0  0
  139.4980  159.0280  131.6230 C   0  0  0  0  0  0  0  0  0  0  0  0
  138.7250  159.8120  130.6540 C   0  0  0  0  0  0  0  0  0  0  0  0
  138.1140  160.4280  129.8890 N   0  0  0  0  0  0  0  0  0  0  0  0
  141.0329  158.7171  136.7651 H   0  0  0  0  0  0  0  0  0  0  0  0
  142.5089  159.9088  136.5879 H   0  0  0  0  0  0  0  0  0  0  0  0
  142.8640  163.1560  133.5490 H   0  0  0  0  0  0  0  0  0  0  0  0
  146.9961  160.4772  133.6564 H   0  0  0  0  0  0  0  0  0  0  0  0
  147.4379  157.6966  133.1050 H   0  0  0  0  0  0  0  0  0  0  0  0
  146.2398  155.5011  132.8078 H   0  0  0  0  0  0  0  0  0  0  0  0
  143.0831  154.9974  131.9187 H   0  0  0  0  0  0  0  0  0  0  0  0
  144.2623  154.2290  133.0485 H   0  0  0  0  0  0  0  0  0  0  0  0
  142.0685  155.7391  137.1725 H   0  0  0  0  0  0  0  0  0  0  0  0
  141.8990  157.0037  135.9082 H   0  0  0  0  0  0  0  0  0  0  0  0
  140.8024  155.5810  135.9082 H   0  0  0  0  0  0  0  0  0  0  0  0
  142.4140  157.5063  133.4101 H   0  0  0  0  0  0  0  0  0  0  0  0
  140.5688  159.1090  131.3847 H   0  0  0  0  0  0  0  0  0  0  0  0
  139.1807  157.9761  131.5694 H   0  0  0  0  0  0  0  0  0  0  0  0
  1  2  2  0
  2  3  1  0
  3  4  2  0
  3  5  1  0
  5  6  1  0
  6  7  1  0
  7  8  1  0
  7  9  2  0
  6 10  2  0
 10 11  1  0
 11 12  2  0
 12 13  1  0
 13 14  2  0
 14 15  1  0
 15 16  1  0
 16 17  2  0
 16 18  1  0
 18 19  1  0
 14 20  1  0
 20 21  2  0
  2 22  1  0
 22 23  2  0
 22 24  2  0
 22 25  1  0
 25 26  1  0
 26 27  1  0
 27 28  3  0
 21  5  1  0
 21 11  1  0
  1 29  1  0
  1 30  1  0
  8 31  1  0
 10 32  1  0
 12 33  1  0
 13 34  1  0
 15 35  1  0
 15 36  1  0
 19 37  1  0
 19 38  1  0
 19 39  1  0
 20 40  1  0
 26 41  1  0
 26 42  1  0
M  CHG  2   8  -1  25  -1
M  END
>  <UniqueID>  (71) 
71

>  <SMILES>  (71) 
C=C(C(=O)n1c(C([NH-])=O)cc2ccc(CC(=O)OC)cc21)S(=O)(=O)[N-]CC#N

>  <Energy>  (71) 
74.83373260575058

>  <Genealogy>  (71) 
C=C(C(=O)n1c(C([NH-])=O)cc2ccc(CC(=O)OC)cc21)S(=O)(=O)[N-]CC#N (protonated)
C=C(C(=O)n1c(C([NH-])=O)cc2ccc(CC(=O)OC)cc21)S(=O)(=O)[N-]CC#N (3D coordinates assigned)
C=C(C(=O)n1c(C([NH-])=O)cc2ccc(CC(=O)OC)cc21)S(=O)(=O)[N-]CC#N (optimized conformer: 74.83373260575058 kcal/mol)

>  <smiles>  (71) 
C=C(C(=O)n1c(C(N)=O)cc2ccc(CC(=O)OC)cc21)S(=O)(=O)NCC#N

>  <score_type>  (71) 
oracle

>  <origin>  (71) 
adg

>  <m_score__min__energy>  (71) 
-7.7800000000000002

>  <m_primary>  (71) 
energy

$$$$
72:0
     RDKit          3D

 63 65  0  0  0  0  0  0  0  0999 V2000
  137.2340  160.0690  131.0540 C   0  0  0  0  0  0  0  0  0  0  0  0
  138.5670  159.4520  131.5280 C   0  0  0  0  0  0  0  0  0  0  0  0
  139.2970  158.8530  130.3150 C   0  0  0  0  0  0  0  0  0  0  0  0
  139.4640  160.5260  132.1710 C   0  0  0  0  0  0  0  0  0  0  0  0
  138.3280  158.3790  132.4520 O   0  0  0  0  0  0  0  0  0  0  0  0
  139.1600  157.2700  132.6730 C   0  0  0  0  0  0  0  0  0  0  0  0
  139.1120  156.2640  131.9090 O   0  0  0  0  0  0  0  0  0  0  0  0
  140.0940  157.2810  133.7680 N   0  0  0  0  0  0  0  0  0  0  0  0
  141.2130  156.3230  133.7720 C   0  0  0  0  0  0  0  0  0  0  0  0
  142.2900  156.7350  134.7800 C   0  0  0  0  0  0  0  0  0  0  0  0
  142.4170  158.1980  134.7620 N   0  0  0  0  0  0  0  0  0  0  0  0
  143.5930  158.8150  134.1930 C   0  0  0  0  0  0  0  0  0  0  0  0
  143.5960  160.1990  133.8770 C   0  0  0  0  0  0  0  0  0  0  0  0
  144.7480  160.8220  133.3640 C   0  0  0  0  0  0  0  0  0  0  0  0
  145.8780  160.0370  133.1630 C   0  0  0  0  0  0  0  0  0  0  0  0
  147.1260  160.3830  132.7020 C   0  0  0  0  0  0  0  0  0  0  0  0
  147.8580  159.1950  132.6990 C   0  0  0  0  0  0  0  0  0  0  0  0
  149.2460  159.0900  132.2020 C   0  0  0  0  0  0  0  0  0  0  0  0
  149.9300  157.8370  132.2090 N   0  0  0  0  0  0  0  0  0  0  0  0
  149.8180  160.1050  131.7220 O   0  0  0  0  0  0  0  0  0  0  0  0
  147.0960  158.1600  133.1510 N   0  0  0  0  0  0  0  0  0  0  0  0
  147.5190  156.8060  133.3910 C   0  0  0  0  0  0  0  0  0  0  0  0
  148.0930  156.5170  134.4770 O   0  0  0  0  0  0  0  0  0  0  0  0
  147.2660  155.7280  132.3760 C   0  0  0  0  0  0  0  0  0  0  0  0
  148.3490  154.6940  132.4130 C   0  0  0  0  0  0  0  0  0  0  0  0
  149.5490  155.0530  132.5770 O   0  0  0  0  0  0  0  0  0  0  0  0
  148.0180  153.3040  132.2970 N   0  0  0  0  0  0  0  0  0  0  0  0
  149.0220  152.2460  132.3730 C   0  0  0  0  0  0  0  0  0  0  0  0
  148.3980  150.9070  132.1340 C   0  0  0  0  0  0  0  0  0  0  0  0
  146.9930  150.8010  131.9090 N   0  0  0  0  0  0  0  0  0  0  0  0
  149.1220  149.8770  132.0730 O   0  0  0  0  0  0  0  0  0  0  0  0
  145.8880  158.6920  133.4340 C   0  0  0  0  0  0  0  0  0  0  0  0
  144.7720  158.0570  133.9860 C   0  0  0  0  0  0  0  0  0  0  0  0
  141.2340  158.9970  135.1350 C   0  0  0  0  0  0  0  0  0  0  0  0
  139.9330  158.2110  134.8970 C   0  0  0  0  0  0  0  0  0  0  0  0
  136.6283  160.3494  131.9284 H   0  0  0  0  0  0  0  0  0  0  0  0
  137.4391  160.9638  130.4479 H   0  0  0  0  0  0  0  0  0  0  0  0
  136.6846  159.3336  130.4479 H   0  0  0  0  0  0  0  0  0  0  0  0
  140.1038  158.1910  130.6627 H   0  0  0  0  0  0  0  0  0  0  0  0
  138.5851  158.2754  129.7071 H   0  0  0  0  0  0  0  0  0  0  0  0
  139.7245  159.6640  129.7071 H   0  0  0  0  0  0  0  0  0  0  0  0
  139.4000  160.4494  133.2665 H   0  0  0  0  0  0  0  0  0  0  0  0
  140.5057  160.3722  131.8529 H   0  0  0  0  0  0  0  0  0  0  0  0
  139.1270  161.5236  131.8529 H   0  0  0  0  0  0  0  0  0  0  0  0
  140.8318  155.3269  134.0410 H   0  0  0  0  0  0  0  0  0  0  0  0
  141.6625  156.3076  132.7682 H   0  0  0  0  0  0  0  0  0  0  0  0
  142.0012  156.4009  135.7875 H   0  0  0  0  0  0  0  0  0  0  0  0
  143.2511  156.2721  134.5117 H   0  0  0  0  0  0  0  0  0  0  0  0
  142.6839  160.7930  134.0357 H   0  0  0  0  0  0  0  0  0  0  0  0
  144.7548  161.8966  133.1292 H   0  0  0  0  0  0  0  0  0  0  0  0
  147.4732  161.3822  132.4002 H   0  0  0  0  0  0  0  0  0  0  0  0
  149.7700  157.1350  132.9640 H   0  0  0  0  0  0  0  0  0  0  0  0
  146.3012  155.2469  132.5945 H   0  0  0  0  0  0  0  0  0  0  0  0
  147.2500  156.1844  131.3753 H   0  0  0  0  0  0  0  0  0  0  0  0
  147.0220  153.0290  132.1410 H   0  0  0  0  0  0  0  0  0  0  0  0
  149.7945  152.4257  131.6108 H   0  0  0  0  0  0  0  0  0  0  0  0
  149.4688  152.2538  133.3781 H   0  0  0  0  0  0  0  0  0  0  0  0
  146.5820  149.9390  131.4910 H   0  0  0  0  0  0  0  0  0  0  0  0
  144.8083  156.9908  134.2542 H   0  0  0  0  0  0  0  0  0  0  0  0
  141.3024  159.2633  136.2001 H   0  0  0  0  0  0  0  0  0  0  0  0
  141.2135  159.9014  134.5091 H   0  0  0  0  0  0  0  0  0  0  0  0
  139.6834  157.6404  135.8037 H   0  0  0  0  0  0  0  0  0  0  0  0
  139.1257  158.9204  134.6622 H   0  0  0  0  0  0  0  0  0  0  0  0
  1  2  1  0
  2  3  1  0
  2  4  1  0
  2  5  1  0
  5  6  1  0
  6  7  2  0
  6  8  1  0
  8  9  1  0
  9 10  1  0
 10 11  1  0
 11 12  1  0
 12 13  2  0
 13 14  1  0
 14 15  2  0
 15 16  1  0
 16 17  2  0
 17 18  1  0
 18 19  1  0
 18 20  2  0
 17 21  1  0
 21 22  1  0
 22 23  2  0
 22 24  1  0
 24 25  1  0
 25 26  2  0
 25 27  1  0
 27 28  1  0
 28 29  1  0
 29 30  1  0
 29 31  2  0
 21 32  1  0
 32 33  2  0
 11 34  1  0
 34 35  1  0
 35  8  1  0
 33 12  1  0
 32 15  1  0
  1 36  1  0
  1 37  1  0
  1 38  1  0
  3 39  1  0
  3 40  1  0
  3 41  1  0
  4 42  1  0
  4 43  1  0
  4 44  1  0
  9 45  1  0
  9 46  1  0
 10 47  1  0
 10 48  1  0
 13 49  1  0
 14 50  1  0
 16 51  1  0
 19 52  1  0
 24 53  1  0
 24 54  1  0
 27 55  1  0
 28 56  1  0
 28 57  1  0
 30 58  1  0
 33 59  1  0
 34 60  1  0
 34 61  1  0
 35 62  1  0
 35 63  1  0
M  CHG  2  19  -1  30  -1
M  END
>  <UniqueID>  (72) 
72

>  <SMILES>  (72) 
CC(C)(C)OC(=O)N1CCN(c2ccc3cc(C([NH-])=O)n(C(=O)CC(=O)NCC([NH-])=O)c3c2)CC1

>  <Energy>  (72) 
100.51211486410196

>  <Genealogy>  (72) 
CC(C)(C)OC(=O)N1CCN(c2ccc3cc(C([NH-])=O)n(C(=O)CC(=O)NCC([NH-])=O)c3c2)CC1 (protonated)
CC(C)(C)OC(=O)N1CCN(c2ccc3cc(C([NH-])=O)n(C(=O)CC(=O)NCC([NH-])=O)c3c2)CC1 (3D coordinates assigned)
CC(C)(C)OC(=O)N1CCN(c2ccc3cc(C([NH-])=O)n(C(=O)CC(=O)NCC([NH-])=O)c3c2)CC1 (nonaromatic ring conformer: 100.51211486410196 kcal/mol)

>  <smiles>  (72) 
CC(C)(C)OC(=O)N1CCN(c2ccc3cc(C(N)=O)n(C(=O)CC(=O)NCC(N)=O)c3c2)CC1

>  <score_type>  (72) 
oracle

>  <origin>  (72) 
adg

>  <m_score__min__energy>  (72) 
-9.6400000000000006

>  <m_primary>  (72) 
energy

$$$$
73:0
     RDKit          3D

 39 40  0  0  0  0  0  0  0  0999 V2000
  146.0060  155.1340  132.6130 C   0  0  0  0  0  0  0  0  0  0  0  0
  147.2650  155.7290  133.0740 N   0  0  0  0  0  0  0  0  0  0  0  0
  148.5120  155.0680  132.7860 C   0  0  0  0  0  0  0  0  0  0  0  0
  149.5130  155.7410  132.4150 O   0  0  0  0  0  0  0  0  0  0  0  0
  148.6100  153.6750  132.8940 O   0  0  0  0  0  0  0  0  0  0  0  0
  148.6050  152.9900  134.1420 C   0  0  0  0  0  0  0  0  0  0  0  0
  147.6990  153.6240  135.0140 O   0  0  0  0  0  0  0  0  0  0  0  0
  148.1430  153.2490  136.6170 P   0  0  0  0  0  0  0  0  0  0  0  0
  149.2260  152.1920  136.6240 O   0  0  0  0  0  0  0  0  0  0  0  0
  146.8020  152.6890  137.4830 O   0  0  0  0  0  0  0  0  0  0  0  0
  148.7330  154.6460  137.3630 O   0  0  0  0  0  0  0  0  0  0  0  0
  147.2350  156.9110  133.8980 C   0  0  0  0  0  0  0  0  0  0  0  0
  147.9060  156.9560  134.9640 O   0  0  0  0  0  0  0  0  0  0  0  0
  146.4400  158.0450  133.5180 N   0  0  0  0  0  0  0  0  0  0  0  0
  146.8600  159.2130  132.9570 C   0  0  0  0  0  0  0  0  0  0  0  0
  148.2330  159.5060  132.4940 C   0  0  0  0  0  0  0  0  0  0  0  0
  149.3310  158.6850  132.8820 N   0  0  0  0  0  0  0  0  0  0  0  0
  148.4360  160.4780  131.7170 O   0  0  0  0  0  0  0  0  0  0  0  0
  145.7920  160.0970  132.8150 C   0  0  0  0  0  0  0  0  0  0  0  0
  144.6960  159.4260  133.3120 C   0  0  0  0  0  0  0  0  0  0  0  0
  143.3740  159.8400  133.4440 C   0  0  0  0  0  0  0  0  0  0  0  0
  142.4590  158.9490  134.0290 C   0  0  0  0  0  0  0  0  0  0  0  0
  142.8750  157.6630  134.4630 C   0  0  0  0  0  0  0  0  0  0  0  0
  141.8990  156.7370  135.1440 C   0  0  0  0  0  0  0  0  0  0  0  0
  140.9480  157.4600  135.8430 F   0  0  0  0  0  0  0  0  0  0  0  0
  141.2670  155.9610  134.1920 F   0  0  0  0  0  0  0  0  0  0  0  0
  142.5540  155.9090  136.0380 F   0  0  0  0  0  0  0  0  0  0  0  0
  144.2330  157.2920  134.3360 C   0  0  0  0  0  0  0  0  0  0  0  0
  145.1160  158.1920  133.7320 C   0  0  0  0  0  0  0  0  0  0  0  0
  145.3966  154.8460  133.4823 H   0  0  0  0  0  0  0  0  0  0  0  0
  145.4549  155.8669  132.0055 H   0  0  0  0  0  0  0  0  0  0  0  0
  146.2224  154.2429  132.0055 H   0  0  0  0  0  0  0  0  0  0  0  0
  148.2970  151.9454  133.9872 H   0  0  0  0  0  0  0  0  0  0  0  0
  149.6143  153.0101  134.5789 H   0  0  0  0  0  0  0  0  0  0  0  0
  149.1750  157.7460  133.3120 H   0  0  0  0  0  0  0  0  0  0  0  0
  145.8184  161.1136  132.3956 H   0  0  0  0  0  0  0  0  0  0  0  0
  143.0550  160.8351  133.1005 H   0  0  0  0  0  0  0  0  0  0  0  0
  141.4085  159.2512  134.1522 H   0  0  0  0  0  0  0  0  0  0  0  0
  144.5869  156.3176  134.7039 H   0  0  0  0  0  0  0  0  0  0  0  0
  1  2  1  0
  2  3  1  0
  3  4  2  0
  3  5  1  0
  5  6  1  0
  6  7  1  0
  7  8  1  0
  8  9  2  0
  8 10  1  0
  8 11  1  0
  2 12  1  0
 12 13  2  0
 12 14  1  0
 14 15  1  0
 15 16  1  0
 16 17  1  0
 16 18  2  0
 15 19  2  0
 19 20  1  0
 20 21  2  0
 21 22  1  0
 22 23  2  0
 23 24  1  0
 24 25  1  0
 24 26  1  0
 24 27  1  0
 23 28  1  0
 28 29  2  0
 29 14  1  0
 29 20  1  0
  1 30  1  0
  1 31  1  0
  1 32  1  0
  6 33  1  0
  6 34  1  0
 17 35  1  0
 19 36  1  0
 21 37  1  0
 22 38  1  0
 28 39  1  0
M  CHG  3  10  -1  11  -1  17  -1
M  END
>  <UniqueID>  (73) 
73

>  <SMILES>  (73) 
CN(C(=O)OCOP(=O)([O-])[O-])C(=O)n1c(C([NH-])=O)cc2ccc(C(F)(F)F)cc21

>  <Energy>  (73) 
77.59656442597529

>  <Genealogy>  (73) 
CN(C(=O)OCOP(=O)([O-])[O-])C(=O)n1c(C([NH-])=O)cc2ccc(C(F)(F)F)cc21 (protonated)
CN(C(=O)OCOP(=O)([O-])[O-])C(=O)n1c(C([NH-])=O)cc2ccc(C(F)(F)F)cc21 (3D coordinates assigned)
CN(C(=O)OCOP(=O)([O-])[O-])C(=O)n1c(C([NH-])=O)cc2ccc(C(F)(F)F)cc21 (optimized conformer: 77.59656442597529 kcal/mol)

>  <smiles>  (73) 
CN(C(=O)OCOP(=O)(O)O)C(=O)n1c(C(N)=O)cc2ccc(C(F)(F)F)cc21

>  <score_type>  (73) 
oracle

>  <origin>  (73) 
adg

>  <m_score__min__energy>  (73) 
-6.5800000000000001

>  <m_primary>  (73) 
energy

$$$$
74:0
     RDKit          3D

 36 38  0  0  0  0  0  0  0  0999 V2000
  148.8620  157.1560  132.6380 C   0  0  0  0  0  0  0  0  0  0  0  0
  147.7920  158.1730  132.8990 C   0  0  0  0  0  0  0  0  0  0  0  0
  148.1350  159.5360  133.0790 C   0  0  0  0  0  0  0  0  0  0  0  0
  147.1430  160.4930  133.3560 C   0  0  0  0  0  0  0  0  0  0  0  0
  145.8270  160.0540  133.4670 C   0  0  0  0  0  0  0  0  0  0  0  0
  144.6720  160.7620  133.7160 C   0  0  0  0  0  0  0  0  0  0  0  0
  143.6500  159.8150  133.7170 C   0  0  0  0  0  0  0  0  0  0  0  0
  142.2340  160.1320  133.9940 C   0  0  0  0  0  0  0  0  0  0  0  0
  141.7320  160.0380  135.3260 N   0  0  0  0  0  0  0  0  0  0  0  0
  141.4540  160.4680  133.0640 O   0  0  0  0  0  0  0  0  0  0  0  0
  144.1540  158.5700  133.4820 N   0  0  0  0  0  0  0  0  0  0  0  0
  143.4270  157.3380  133.3610 C   0  0  0  0  0  0  0  0  0  0  0  0
  143.4720  156.6930  132.2800 O   0  0  0  0  0  0  0  0  0  0  0  0
  142.6340  156.8200  134.4880 C   0  0  0  0  0  0  0  0  0  0  0  0
  142.7260  155.5610  135.0470 C   0  0  0  0  0  0  0  0  0  0  0  0
  141.8620  155.4980  136.0350 O   0  0  0  0  0  0  0  0  0  0  0  0
  141.2470  156.6590  136.0910 C   0  0  0  0  0  0  0  0  0  0  0  0
  140.2040  157.0060  137.1100 C   0  0  0  0  0  0  0  0  0  0  0  0
  139.5920  158.2980  136.8090 N   0  0  0  0  0  0  0  0  0  0  0  0
  141.6900  157.5130  135.1490 N   0  0  0  0  0  0  0  0  0  0  0  0
  145.4850  158.7340  133.3250 C   0  0  0  0  0  0  0  0  0  0  0  0
  146.4480  157.7630  133.0300 C   0  0  0  0  0  0  0  0  0  0  0  0
  149.2546  156.7829  133.5954 H   0  0  0  0  0  0  0  0  0  0  0  0
  148.4395  156.3185  132.0635 H   0  0  0  0  0  0  0  0  0  0  0  0
  149.6770  157.6205  132.0635 H   0  0  0  0  0  0  0  0  0  0  0  0
  149.1869  159.8482  133.0013 H   0  0  0  0  0  0  0  0  0  0  0  0
  147.3990  161.5555  133.4811 H   0  0  0  0  0  0  0  0  0  0  0  0
  144.5767  161.8456  133.8795 H   0  0  0  0  0  0  0  0  0  0  0  0
  140.8490  159.5220  135.5310 H   0  0  0  0  0  0  0  0  0  0  0  0
  143.4013  154.7553  134.7234 H   0  0  0  0  0  0  0  0  0  0  0  0
  139.4253  156.2291  137.1075 H   0  0  0  0  0  0  0  0  0  0  0  0
  140.6835  157.0654  138.0982 H   0  0  0  0  0  0  0  0  0  0  0  0
  140.3490  158.9990  136.6420 H   0  0  0  0  0  0  0  0  0  0  0  0
  139.0470  158.6150  137.6450 H   0  0  0  0  0  0  0  0  0  0  0  0
  141.3710  158.4930  134.9790 H   0  0  0  0  0  0  0  0  0  0  0  0
  146.1650  156.7076  132.9035 H   0  0  0  0  0  0  0  0  0  0  0  0
  1  2  1  0
  2  3  2  0
  3  4  1  0
  4  5  2  0
  5  6  1  0
  6  7  2  0
  7  8  1  0
  8  9  1  0
  8 10  2  0
  7 11  1  0
 11 12  1  0
 12 13  2  0
 12 14  1  0
 14 15  2  0
 15 16  1  0
 16 17  1  0
 17 18  1  0
 18 19  1  0
 17 20  2  0
 11 21  1  0
 21 22  2  0
 22  2  1  0
 21  5  1  0
 20 14  1  0
  1 23  1  0
  1 24  1  0
  1 25  1  0
  3 26  1  0
  4 27  1  0
  6 28  1  0
  9 29  1  0
 15 30  1  0
 18 31  1  0
 18 32  1  0
 19 33  1  0
 19 34  1  0
 20 35  1  0
 22 36  1  0
M  CHG  2   9  -1  20   1
M  END
>  <UniqueID>  (74) 
74

>  <SMILES>  (74) 
Cc1ccc2cc(C([NH-])=O)n(C(=O)c3coc(CN)[nH+]3)c2c1

>  <Energy>  (74) 
104.5891947678344

>  <Genealogy>  (74) 
Cc1ccc2cc(C([NH-])=O)n(C(=O)c3coc(CN)[nH+]3)c2c1 (protonated)
Cc1ccc2cc(C([NH-])=O)n(C(=O)c3coc(CN)[nH+]3)c2c1 (3D coordinates assigned)
Cc1ccc2cc(C([NH-])=O)n(C(=O)c3coc(CN)[nH+]3)c2c1 (optimized conformer: 104.5891947678344 kcal/mol)

>  <smiles>  (74) 
Cc1ccc2cc(C(N)=O)n(C(=O)c3coc(CN)n3)c2c1

>  <score_type>  (74) 
oracle

>  <origin>  (74) 
adg

>  <m_score__min__energy>  (74) 
-6.5800000000000001

>  <m_primary>  (74) 
energy

$$$$
75:0
     RDKit          3D

 55 56  0  0  0  0  0  0  0  0999 V2000
  141.7760  154.3330  133.3250 C   0  0  0  0  0  0  0  0  0  0  0  0
  142.6540  155.2020  134.1100 N   0  0  0  0  0  0  0  0  0  0  0  0
  142.6520  155.1380  135.5510 C   0  0  0  0  0  0  0  0  0  0  0  0
  143.2040  154.1620  136.1290 O   0  0  0  0  0  0  0  0  0  0  0  0
  142.0310  156.1710  136.3340 N   0  0  0  0  0  0  0  0  0  0  0  0
  142.0380  156.1600  137.7950 C   0  0  0  0  0  0  0  0  0  0  0  0
  141.5960  157.5140  138.3450 C   0  0  0  0  0  0  0  0  0  0  0  0
  141.8050  158.5190  137.3740 O   0  0  0  0  0  0  0  0  0  0  0  0
  140.5970  159.2010  137.0880 C   0  0  0  0  0  0  0  0  0  0  0  0
  139.9390  158.6040  135.8480 C   0  0  0  0  0  0  0  0  0  0  0  0
  140.8780  158.5440  134.8010 O   0  0  0  0  0  0  0  0  0  0  0  0
  140.0720  158.2170  133.3440 S   0  0  0  0  0  0  0  0  0  0  0  0
  139.2110  156.6580  133.4150 C   0  0  0  0  0  0  0  0  0  0  0  0
  139.0990  159.3180  133.0220 O   0  0  0  0  0  0  0  0  0  0  0  0
  141.0930  158.1440  132.2450 O   0  0  0  0  0  0  0  0  0  0  0  0
  143.5300  156.1150  133.4280 C   0  0  0  0  0  0  0  0  0  0  0  0
  143.9550  155.8250  132.2790 O   0  0  0  0  0  0  0  0  0  0  0  0
  143.9310  157.3920  134.0530 C   0  0  0  0  0  0  0  0  0  0  0  0
  143.2490  157.8680  134.9990 O   0  0  0  0  0  0  0  0  0  0  0  0
  145.0940  158.1000  133.6000 N   0  0  0  0  0  0  0  0  0  0  0  0
  145.2460  159.4480  133.4770 C   0  0  0  0  0  0  0  0  0  0  0  0
  144.1970  160.4610  133.7160 C   0  0  0  0  0  0  0  0  0  0  0  0
  142.8400  160.1710  133.3840 N   0  0  0  0  0  0  0  0  0  0  0  0
  144.4830  161.5800  134.2180 O   0  0  0  0  0  0  0  0  0  0  0  0
  146.5460  159.7550  133.0750 C   0  0  0  0  0  0  0  0  0  0  0  0
  147.1910  158.5430  132.9660 C   0  0  0  0  0  0  0  0  0  0  0  0
  148.5070  158.2560  132.6190 C   0  0  0  0  0  0  0  0  0  0  0  0
  148.9120  156.9100  132.6250 C   0  0  0  0  0  0  0  0  0  0  0  0
  148.0080  155.8830  133.0030 C   0  0  0  0  0  0  0  0  0  0  0  0
  148.4370  154.4380  132.9670 C   0  0  0  0  0  0  0  0  0  0  0  0
  147.5320  153.6830  132.2400 F   0  0  0  0  0  0  0  0  0  0  0  0
  149.6810  154.3480  132.3730 F   0  0  0  0  0  0  0  0  0  0  0  0
  148.5100  153.9130  134.2460 F   0  0  0  0  0  0  0  0  0  0  0  0
  146.6740  156.2150  133.3330 C   0  0  0  0  0  0  0  0  0  0  0  0
  146.2940  157.5600  133.2950 C   0  0  0  0  0  0  0  0  0  0  0  0
  141.1607  153.7240  134.0037 H   0  0  0  0  0  0  0  0  0  0  0  0
  141.1219  154.9493  132.6907 H   0  0  0  0  0  0  0  0  0  0  0  0
  142.3855  153.6726  132.6907 H   0  0  0  0  0  0  0  0  0  0  0  0
  141.4890  156.9260  135.8580 H   0  0  0  0  0  0  0  0  0  0  0  0
  141.3486  155.3816  138.1539 H   0  0  0  0  0  0  0  0  0  0  0  0
  143.0607  155.9527  138.1431 H   0  0  0  0  0  0  0  0  0  0  0  0
  140.5273  157.4720  138.6022 H   0  0  0  0  0  0  0  0  0  0  0  0
  142.1856  157.7500  139.2431 H   0  0  0  0  0  0  0  0  0  0  0  0
  139.9135  159.1051  137.9445 H   0  0  0  0  0  0  0  0  0  0  0  0
  140.8180  160.2625  136.9026 H   0  0  0  0  0  0  0  0  0  0  0  0
  139.5791  157.5899  136.0762 H   0  0  0  0  0  0  0  0  0  0  0  0
  139.0906  159.2345  135.5437 H   0  0  0  0  0  0  0  0  0  0  0  0
  139.0538  156.3735  134.4659 H   0  0  0  0  0  0  0  0  0  0  0  0
  138.2377  156.7534  132.9115 H   0  0  0  0  0  0  0  0  0  0  0  0
  139.8101  155.8850  132.9115 H   0  0  0  0  0  0  0  0  0  0  0  0
  142.4520  159.2100  133.4970 H   0  0  0  0  0  0  0  0  0  0  0  0
  146.9668  160.7535  132.8853 H   0  0  0  0  0  0  0  0  0  0  0  0
  149.2095  159.0580  132.3481 H   0  0  0  0  0  0  0  0  0  0  0  0
  149.9403  156.6498  132.3337 H   0  0  0  0  0  0  0  0  0  0  0  0
  145.9521  155.4337  133.6130 H   0  0  0  0  0  0  0  0  0  0  0  0
  1  2  1  0
  2  3  1  0
  3  4  2  0
  3  5  1  0
  5  6  1  0
  6  7  1  0
  7  8  1  0
  8  9  1  0
  9 10  1  0
 10 11  1  0
 11 12  1  0
 12 13  1  0
 12 14  2  0
 12 15  2  0
  2 16  1  0
 16 17  2  0
 16 18  1  0
 18 19  2  0
 18 20  1  0
 20 21  1  0
 21 22  1  0
 22 23  1  0
 22 24  2  0
 21 25  2  0
 25 26  1  0
 26 27  2  0
 27 28  1  0
 28 29  2  0
 29 30  1  0
 30 31  1  0
 30 32  1  0
 30 33  1  0
 29 34  1  0
 34 35  2  0
 35 20  1  0
 35 26  1  0
  1 36  1  0
  1 37  1  0
  1 38  1  0
  5 39  1  0
  6 40  1  0
  6 41  1  0
  7 42  1  0
  7 43  1  0
  9 44  1  0
  9 45  1  0
 10 46  1  0
 10 47  1  0
 13 48  1  0
 13 49  1  0
 13 50  1  0
 23 51  1  0
 25 52  1  0
 27 53  1  0
 28 54  1  0
 34 55  1  0
M  CHG  1  23  -1
M  END
>  <UniqueID>  (75) 
75

>  <SMILES>  (75) 
CN(C(=O)NCCOCCOS(C)(=O)=O)C(=O)C(=O)n1c(C([NH-])=O)cc2ccc(C(F)(F)F)cc21

>  <Energy>  (75) 
91.4025495297753

>  <Genealogy>  (75) 
CN(C(=O)NCCOCCOS(C)(=O)=O)C(=O)C(=O)n1c(C([NH-])=O)cc2ccc(C(F)(F)F)cc21 (protonated)
CN(C(=O)NCCOCCOS(C)(=O)=O)C(=O)C(=O)n1c(C([NH-])=O)cc2ccc(C(F)(F)F)cc21 (3D coordinates assigned)
CN(C(=O)NCCOCCOS(C)(=O)=O)C(=O)C(=O)n1c(C([NH-])=O)cc2ccc(C(F)(F)F)cc21 (optimized conformer: 91.4025495297753 kcal/mol)

>  <smiles>  (75) 
CN(C(=O)NCCOCCOS(C)(=O)=O)C(=O)C(=O)n1c(C(N)=O)cc2ccc(C(F)(F)F)cc21

>  <score_type>  (75) 
oracle

>  <origin>  (75) 
adg

>  <m_score__min__energy>  (75) 
-7.5

>  <m_primary>  (75) 
energy

$$$$
76:0
     RDKit          3D

 52 53  0  0  0  0  0  0  0  0999 V2000
  145.3650  153.0330  133.3960 C   0  0  0  0  0  0  0  0  0  0  0  0
  144.7800  153.7150  134.5550 N   0  0  0  0  0  0  0  0  0  0  0  0
  145.6360  154.1020  135.6470 C   0  0  0  0  0  0  0  0  0  0  0  0
  145.8530  153.2980  136.5930 O   0  0  0  0  0  0  0  0  0  0  0  0
  146.2310  155.3690  135.6540 O   0  0  0  0  0  0  0  0  0  0  0  0
  147.5230  155.6500  135.1250 C   0  0  0  0  0  0  0  0  0  0  0  0
  147.5430  156.9700  134.5920 O   0  0  0  0  0  0  0  0  0  0  0  0
  147.8250  157.2660  133.2530 C   0  0  0  0  0  0  0  0  0  0  0  0
  147.6070  156.4070  132.3570 O   0  0  0  0  0  0  0  0  0  0  0  0
  148.3410  158.6420  132.8740 C   0  0  0  0  0  0  0  0  0  0  0  0
  149.5000  158.4620  131.8730 C   0  0  0  0  0  0  0  0  0  0  0  0
  148.8560  159.3830  134.1270 C   0  0  0  0  0  0  0  0  0  0  0  0
  147.2230  159.4810  132.2070 C   0  0  0  0  0  0  0  0  0  0  0  0
  145.9860  158.8190  132.2880 O   0  0  0  0  0  0  0  0  0  0  0  0
  143.3740  154.0350  134.5730 C   0  0  0  0  0  0  0  0  0  0  0  0
  142.5310  153.1990  134.1450 O   0  0  0  0  0  0  0  0  0  0  0  0
  142.9100  155.3020  135.0740 N   0  0  0  0  0  0  0  0  0  0  0  0
  142.9800  156.5160  134.4630 C   0  0  0  0  0  0  0  0  0  0  0  0
  143.6840  156.8080  133.1990 C   0  0  0  0  0  0  0  0  0  0  0  0
  145.0710  156.5050  133.0330 N   0  0  0  0  0  0  0  0  0  0  0  0
  143.0600  157.3700  132.2580 O   0  0  0  0  0  0  0  0  0  0  0  0
  142.2930  157.4780  135.2020 C   0  0  0  0  0  0  0  0  0  0  0  0
  141.8050  156.8080  136.3020 C   0  0  0  0  0  0  0  0  0  0  0  0
  141.0410  157.2720  137.3660 C   0  0  0  0  0  0  0  0  0  0  0  0
  140.6510  156.3460  138.3500 C   0  0  0  0  0  0  0  0  0  0  0  0
  141.0000  154.9730  138.2360 C   0  0  0  0  0  0  0  0  0  0  0  0
  140.5940  153.9910  139.3050 C   0  0  0  0  0  0  0  0  0  0  0  0
  139.4930  154.4580  140.0010 F   0  0  0  0  0  0  0  0  0  0  0  0
  140.2770  152.7820  138.7150 F   0  0  0  0  0  0  0  0  0  0  0  0
  141.6250  153.7940  140.2070 F   0  0  0  0  0  0  0  0  0  0  0  0
  141.7960  154.5450  137.1480 C   0  0  0  0  0  0  0  0  0  0  0  0
  142.1900  155.4960  136.1990 C   0  0  0  0  0  0  0  0  0  0  0  0
  146.0449  152.2404  133.7416 H   0  0  0  0  0  0  0  0  0  0  0  0
  144.5628  152.5888  132.7885 H   0  0  0  0  0  0  0  0  0  0  0  0
  145.9262  153.7583  132.7885 H   0  0  0  0  0  0  0  0  0  0  0  0
  148.2726  155.5669  135.9257 H   0  0  0  0  0  0  0  0  0  0  0  0
  147.7560  154.9297  134.3269 H   0  0  0  0  0  0  0  0  0  0  0  0
  150.4409  158.3159  132.4238 H   0  0  0  0  0  0  0  0  0  0  0  0
  149.3051  157.5834  131.2405 H   0  0  0  0  0  0  0  0  0  0  0  0
  149.5808  159.3584  131.2405 H   0  0  0  0  0  0  0  0  0  0  0  0
  148.4980  158.8679  135.0306 H   0  0  0  0  0  0  0  0  0  0  0  0
  149.9560  159.3919  134.1215 H   0  0  0  0  0  0  0  0  0  0  0  0
  148.4809  160.4171  134.1215 H   0  0  0  0  0  0  0  0  0  0  0  0
  147.1467  160.4517  132.7188 H   0  0  0  0  0  0  0  0  0  0  0  0
  147.4763  159.6260  131.1464 H   0  0  0  0  0  0  0  0  0  0  0  0
  146.1480  157.8970  131.9570 H   0  0  0  0  0  0  0  0  0  0  0  0
  145.6550  156.1830  133.8390 H   0  0  0  0  0  0  0  0  0  0  0  0
  145.5440  156.7010  132.1230 H   0  0  0  0  0  0  0  0  0  0  0  0
  142.1676  158.5434  134.9588 H   0  0  0  0  0  0  0  0  0  0  0  0
  140.7503  158.3306  137.4364 H   0  0  0  0  0  0  0  0  0  0  0  0
  140.0689  156.6885  139.2183 H   0  0  0  0  0  0  0  0  0  0  0  0
  142.0978  153.4918  137.0499 H   0  0  0  0  0  0  0  0  0  0  0  0
  1  2  1  0
  2  3  1  0
  3  4  2  0
  3  5  1  0
  5  6  1  0
  6  7  1  0
  7  8  1  0
  8  9  2  0
  8 10  1  0
 10 11  1  0
 10 12  1  0
 10 13  1  0
 13 14  1  0
  2 15  1  0
 15 16  2  0
 15 17  1  0
 17 18  1  0
 18 19  1  0
 19 20  1  0
 19 21  2  0
 18 22  2  0
 22 23  1  0
 23 24  2  0
 24 25  1  0
 25 26  2  0
 26 27  1  0
 27 28  1  0
 27 29  1  0
 27 30  1  0
 26 31  1  0
 31 32  2  0
 32 17  1  0
 32 23  1  0
  1 33  1  0
  1 34  1  0
  1 35  1  0
  6 36  1  0
  6 37  1  0
 11 38  1  0
 11 39  1  0
 11 40  1  0
 12 41  1  0
 12 42  1  0
 12 43  1  0
 13 44  1  0
 13 45  1  0
 14 46  1  0
 20 47  1  0
 20 48  1  0
 22 49  1  0
 24 50  1  0
 25 51  1  0
 31 52  1  0
M  END
>  <UniqueID>  (76) 
76

>  <SMILES>  (76) 
CN(C(=O)OCOC(=O)C(C)(C)CO)C(=O)n1c(C(N)=O)cc2ccc(C(F)(F)F)cc21

>  <Energy>  (76) 
88.26809436078103

>  <Genealogy>  (76) 
CN(C(=O)OCOC(=O)C(C)(C)CO)C(=O)n1c(C(N)=O)cc2ccc(C(F)(F)F)cc21 (3D coordinates assigned)
CN(C(=O)OCOC(=O)C(C)(C)CO)C(=O)n1c(C(N)=O)cc2ccc(C(F)(F)F)cc21 (optimized conformer: 88.26809436078103 kcal/mol)

>  <smiles>  (76) 
CN(C(=O)OCOC(=O)C(C)(C)CO)C(=O)n1c(C(N)=O)cc2ccc(C(F)(F)F)cc21

>  <score_type>  (76) 
oracle

>  <origin>  (76) 
adg

>  <m_score__min__energy>  (76) 
-6.5499999999999998

>  <m_primary>  (76) 
energy

$$$$
77:0
     RDKit          3D

 34 35  0  0  0  0  0  0  0  0999 V2000
  148.9670  159.1000  130.8580 C   0  0  0  0  0  0  0  0  0  0  0  0
  148.8770  158.5590  132.0320 C   0  0  0  0  0  0  0  0  0  0  0  0
  149.6640  157.3810  132.1930 O   0  0  0  0  0  0  0  0  0  0  0  0
  148.0810  159.0020  133.1870 C   0  0  0  0  0  0  0  0  0  0  0  0
  148.8410  159.3690  134.2310 C   0  0  0  0  0  0  0  0  0  0  0  0
  146.6590  158.9510  133.1620 C   0  0  0  0  0  0  0  0  0  0  0  0
  146.0920  160.1200  132.9820 O   0  0  0  0  0  0  0  0  0  0  0  0
  145.7200  157.9220  133.2990 N   0  0  0  0  0  0  0  0  0  0  0  0
  146.0940  156.6200  133.5140 C   0  0  0  0  0  0  0  0  0  0  0  0
  147.3890  155.9870  133.4460 C   0  0  0  0  0  0  0  0  0  0  0  0
  147.8260  155.3480  132.2150 N   0  0  0  0  0  0  0  0  0  0  0  0
  148.2350  155.9110  134.3710 O   0  0  0  0  0  0  0  0  0  0  0  0
  144.9410  155.8750  133.7750 C   0  0  0  0  0  0  0  0  0  0  0  0
  143.8760  156.6910  133.7240 C   0  0  0  0  0  0  0  0  0  0  0  0
  142.5390  156.4410  133.9510 C   0  0  0  0  0  0  0  0  0  0  0  0
  141.6160  157.4610  133.8990 C   0  0  0  0  0  0  0  0  0  0  0  0
  142.0630  158.7110  133.6210 C   0  0  0  0  0  0  0  0  0  0  0  0
  141.0860  159.8400  133.5610 C   0  0  0  0  0  0  0  0  0  0  0  0
  140.3380  159.6350  132.4050 F   0  0  0  0  0  0  0  0  0  0  0  0
  141.7300  161.0610  133.5260 F   0  0  0  0  0  0  0  0  0  0  0  0
  140.2520  159.7230  134.6680 F   0  0  0  0  0  0  0  0  0  0  0  0
  143.4010  158.9450  133.3970 C   0  0  0  0  0  0  0  0  0  0  0  0
  144.3680  157.9630  133.4300 C   0  0  0  0  0  0  0  0  0  0  0  0
  148.3994  160.0139  130.6286 H   0  0  0  0  0  0  0  0  0  0  0  0
  149.6110  158.6454  130.0908 H   0  0  0  0  0  0  0  0  0  0  0  0
  149.6630  157.0010  133.1290 H   0  0  0  0  0  0  0  0  0  0  0  0
  148.3674  159.7213  135.1592 H   0  0  0  0  0  0  0  0  0  0  0  0
  149.9374  159.3175  134.1582 H   0  0  0  0  0  0  0  0  0  0  0  0
  148.8230  155.3830  131.9160 H   0  0  0  0  0  0  0  0  0  0  0  0
  147.1170  154.8370  131.6110 H   0  0  0  0  0  0  0  0  0  0  0  0
  144.9108  154.7961  133.9875 H   0  0  0  0  0  0  0  0  0  0  0  0
  142.2069  155.4167  134.1758 H   0  0  0  0  0  0  0  0  0  0  0  0
  140.5479  157.2680  134.0776 H   0  0  0  0  0  0  0  0  0  0  0  0
  143.7170  159.9758  133.1789 H   0  0  0  0  0  0  0  0  0  0  0  0
  1  2  2  0
  2  3  1  0
  2  4  1  0
  4  5  2  0
  4  6  1  0
  6  7  2  0
  6  8  1  0
  8  9  1  0
  9 10  1  0
 10 11  1  0
 10 12  2  0
  9 13  2  0
 13 14  1  0
 14 15  2  0
 15 16  1  0
 16 17  2  0
 17 18  1  0
 18 19  1  0
 18 20  1  0
 18 21  1  0
 17 22  1  0
 22 23  2  0
 23  8  1  0
 23 14  1  0
  1 24  1  0
  1 25  1  0
  3 26  1  0
  5 27  1  0
  5 28  1  0
 11 29  1  0
 11 30  1  0
 13 31  1  0
 15 32  1  0
 16 33  1  0
 22 34  1  0
M  END
>  <smiles>  (77) 
C=C(O)C(=C)C(=O)n1c(C(N)=O)cc2ccc(C(F)(F)F)cc21

>  <score_type>  (77) 
oracle

>  <origin>  (77) 
adg

>  <m_score__min__energy>  (77) 
-6.7300000000000004

>  <m_primary>  (77) 
energy

$$$$
78:0
     RDKit          3D

 42 43  0  0  0  0  0  0  0  0999 V2000
  147.7330  154.8020  133.0120 C   0  0  0  0  0  0  0  0  0  0  0  0
  147.4130  156.2640  133.1100 C   0  0  0  0  0  0  0  0  0  0  0  0
  148.4170  157.2250  132.8400 C   0  0  0  0  0  0  0  0  0  0  0  0
  148.1310  158.5980  132.9080 C   0  0  0  0  0  0  0  0  0  0  0  0
  146.8300  158.9770  133.2250 C   0  0  0  0  0  0  0  0  0  0  0  0
  146.2860  160.2310  133.3700 C   0  0  0  0  0  0  0  0  0  0  0  0
  144.9460  160.0190  133.6840 C   0  0  0  0  0  0  0  0  0  0  0  0
  143.9650  161.1110  133.8050 C   0  0  0  0  0  0  0  0  0  0  0  0
  142.5710  160.8570  133.6780 N   0  0  0  0  0  0  0  0  0  0  0  0
  144.3670  162.2940  133.9510 O   0  0  0  0  0  0  0  0  0  0  0  0
  144.6710  158.6860  133.7430 N   0  0  0  0  0  0  0  0  0  0  0  0
  143.4320  158.0600  134.1210 C   0  0  0  0  0  0  0  0  0  0  0  0
  142.9030  158.3320  135.2330 O   0  0  0  0  0  0  0  0  0  0  0  0
  142.7760  157.1560  133.2210 N   0  0  0  0  0  0  0  0  0  0  0  0
  142.6590  155.7310  133.4940 C   0  0  0  0  0  0  0  0  0  0  0  0
  141.2170  155.3200  133.4160 C   0  0  0  0  0  0  0  0  0  0  0  0
  140.9190  154.2450  132.8280 O   0  0  0  0  0  0  0  0  0  0  0  0
  140.1680  156.0900  134.0170 N   0  0  0  0  0  0  0  0  0  0  0  0
  139.3250  157.0460  133.3040 C   0  0  0  0  0  0  0  0  0  0  0  0
  139.6130  158.4800  133.7890 C   0  0  2  0  0  0  0  0  0  0  0  0
  140.6990  159.0340  133.0900 O   0  0  0  0  0  0  0  0  0  0  0  0
  139.8480  158.5580  135.3100 C   0  0  0  0  0  0  0  0  0  0  0  0
  140.7290  159.5980  135.6380 O   0  0  0  0  0  0  0  0  0  0  0  0
  145.8370  158.0600  133.4550 C   0  0  0  0  0  0  0  0  0  0  0  0
  146.1000  156.6860  133.4120 C   0  0  0  0  0  0  0  0  0  0  0  0
  147.8257  154.3784  134.0229 H   0  0  0  0  0  0  0  0  0  0  0  0
  146.9266  154.2856  132.4706 H   0  0  0  0  0  0  0  0  0  0  0  0
  148.6814  154.6697  132.4706 H   0  0  0  0  0  0  0  0  0  0  0  0
  149.4314  156.8927  132.5743 H   0  0  0  0  0  0  0  0  0  0  0  0
  148.9105  159.3502  132.7168 H   0  0  0  0  0  0  0  0  0  0  0  0
  146.8002  161.1973  133.2611 H   0  0  0  0  0  0  0  0  0  0  0  0
  142.1440  159.9930  134.0900 H   0  0  0  0  0  0  0  0  0  0  0  0
  143.2412  155.1668  132.7506 H   0  0  0  0  0  0  0  0  0  0  0  0
  143.0452  155.5192  134.5020 H   0  0  0  0  0  0  0  0  0  0  0  0
  139.5327  156.9792  132.2259 H   0  0  0  0  0  0  0  0  0  0  0  0
  138.2693  156.8075  133.5003 H   0  0  0  0  0  0  0  0  0  0  0  0
  138.7115  159.0731  133.5755 H   0  0  0  0  0  0  0  0  0  0  0  0
  141.5100  158.9390  133.6610 H   0  0  0  0  0  0  0  0  0  0  0  0
  138.8852  158.7324  135.8126 H   0  0  0  0  0  0  0  0  0  0  0  0
  140.2942  157.6085  135.6409 H   0  0  0  0  0  0  0  0  0  0  0  0
  141.5130  159.5120  135.0310 H   0  0  0  0  0  0  0  0  0  0  0  0
  145.3036  155.9532  133.6086 H   0  0  0  0  0  0  0  0  0  0  0  0
  1  2  1  0
  2  3  2  0
  3  4  1  0
  4  5  2  0
  5  6  1  0
  6  7  2  0
  7  8  1  0
  8  9  1  0
  8 10  2  0
  7 11  1  0
 11 12  1  0
 12 13  2  0
 12 14  1  0
 14 15  1  0
 15 16  1  0
 16 17  2  0
 16 18  1  0
 18 19  1  0
 19 20  1  0
 20 21  1  0
 20 22  1  0
 22 23  1  0
 11 24  1  0
 24 25  2  0
 25  2  1  0
 24  5  1  0
  1 26  1  0
  1 27  1  0
  1 28  1  0
  3 29  1  0
  4 30  1  0
  6 31  1  0
  9 32  1  0
 15 33  1  0
 15 34  1  0
 19 35  1  0
 19 36  1  0
 20 37  1  1
 21 38  1  0
 22 39  1  0
 22 40  1  0
 23 41  1  0
 25 42  1  0
M  CHG  3   9  -1  14  -1  18  -1
M  END
>  <UniqueID>  (78) 
77

>  <SMILES>  (78) 
Cc1ccc2cc(C([NH-])=O)n(C(=O)[N-]CC(=O)[N-]C[C@H](O)CO)c2c1

>  <Energy>  (78) 
73.22706496089597

>  <Genealogy>  (78) 
Cc1ccc2cc(C([NH-])=O)n(C(=O)[N-]CC(=O)[N-]CC(O)CO)c2c1 (protonated)
Cc1ccc2cc(C([NH-])=O)n(C(=O)[N-]CC(=O)[N-]C[C@H](O)CO)c2c1 (chirality)
Cc1ccc2cc(C([NH-])=O)n(C(=O)[N-]CC(=O)[N-]C[C@H](O)CO)c2c1 (3D coordinates assigned)
Cc1ccc2cc(C([NH-])=O)n(C(=O)[N-]CC(=O)[N-]C[C@H](O)CO)c2c1 (optimized conformer: 73.22706496089597 kcal/mol)

>  <smiles>  (78) 
Cc1ccc2cc(C(N)=O)n(C(=O)NCC(=O)NCC(O)CO)c2c1

>  <score_type>  (78) 
oracle

>  <origin>  (78) 
adg

>  <m_score__min__energy>  (78) 
-5.6299999999999999

>  <m_primary>  (78) 
energy

$$$$
79:0
     RDKit          3D

 42 43  0  0  0  0  0  0  0  0999 V2000
  140.2600  153.7960  140.3310 C   0  0  0  0  0  0  0  0  0  0  0  0
  140.2190  153.9310  138.8110 C   0  0  0  0  0  0  0  0  0  0  0  0
  141.2840  153.1300  138.1860 N   0  0  0  0  0  0  0  0  0  0  0  0
  141.3970  151.7040  138.5320 C   0  0  0  0  0  0  0  0  0  0  0  0
  140.4270  150.8880  137.7330 C   0  0  0  0  0  0  0  0  0  0  0  0
  139.4660  150.3120  138.3060 O   0  0  0  0  0  0  0  0  0  0  0  0
  140.6130  150.7190  136.3660 O   0  0  0  0  0  0  0  0  0  0  0  0
  142.2420  153.7740  137.3150 C   0  0  0  0  0  0  0  0  0  0  0  0
  143.4300  153.3490  137.2770 O   0  0  0  0  0  0  0  0  0  0  0  0
  141.8420  154.9070  136.4060 C   0  0  0  0  0  0  0  0  0  0  0  0
  141.7370  154.4540  134.9760 C   0  0  0  0  0  0  0  0  0  0  0  0
  140.8210  154.9180  134.2430 O   0  0  0  0  0  0  0  0  0  0  0  0
  142.7110  153.5570  134.4180 N   0  0  0  0  0  0  0  0  0  0  0  0
  144.0630  153.7200  134.3520 C   0  0  0  0  0  0  0  0  0  0  0  0
  144.8380  154.7880  135.0160 C   0  0  0  0  0  0  0  0  0  0  0  0
  145.6630  154.4970  136.1390 N   0  0  0  0  0  0  0  0  0  0  0  0
  144.8160  155.9610  134.5500 O   0  0  0  0  0  0  0  0  0  0  0  0
  144.6460  152.6710  133.6430 C   0  0  0  0  0  0  0  0  0  0  0  0
  143.6010  151.8480  133.2840 C   0  0  0  0  0  0  0  0  0  0  0  0
  143.6030  150.6530  132.5690 C   0  0  0  0  0  0  0  0  0  0  0  0
  142.3680  150.0200  132.3380 C   0  0  0  0  0  0  0  0  0  0  0  0
  141.1630  150.5970  132.8110 C   0  0  0  0  0  0  0  0  0  0  0  0
  139.8530  149.9000  132.5890 C   0  0  0  0  0  0  0  0  0  0  0  0
  141.2010  151.8020  133.5450 C   0  0  0  0  0  0  0  0  0  0  0  0
  142.4450  152.4030  133.7670 C   0  0  0  0  0  0  0  0  0  0  0  0
  139.9697  154.7517  140.7919 H   0  0  0  0  0  0  0  0  0  0  0  0
  139.5605  153.0085  140.6482 H   0  0  0  0  0  0  0  0  0  0  0  0
  141.2793  153.5305  140.6482 H   0  0  0  0  0  0  0  0  0  0  0  0
  139.2426  153.5816  138.4442 H   0  0  0  0  0  0  0  0  0  0  0  0
  140.3716  154.9878  138.5467 H   0  0  0  0  0  0  0  0  0  0  0  0
  142.4199  151.3604  138.3187 H   0  0  0  0  0  0  0  0  0  0  0  0
  141.1684  151.5796  139.6008 H   0  0  0  0  0  0  0  0  0  0  0  0
  140.8661  155.2979  136.7299 H   0  0  0  0  0  0  0  0  0  0  0  0
  142.6151  155.6873  136.4655 H   0  0  0  0  0  0  0  0  0  0  0  0
  145.2700  154.4870  137.1070 H   0  0  0  0  0  0  0  0  0  0  0  0
  145.7135  152.5302  133.4180 H   0  0  0  0  0  0  0  0  0  0  0  0
  144.5417  150.2172  132.1962 H   0  0  0  0  0  0  0  0  0  0  0  0
  142.3374  149.0692  131.7856 H   0  0  0  0  0  0  0  0  0  0  0  0
  139.3974  149.6576  133.5604 H   0  0  0  0  0  0  0  0  0  0  0  0
  139.1787  150.5586  132.0219 H   0  0  0  0  0  0  0  0  0  0  0  0
  140.0225  148.9728  132.0219 H   0  0  0  0  0  0  0  0  0  0  0  0
  140.2772  152.2566  133.9322 H   0  0  0  0  0  0  0  0  0  0  0  0
  1  2  1  0
  2  3  1  0
  3  4  1  0
  4  5  1  0
  5  6  2  0
  5  7  1  0
  3  8  1  0
  8  9  2  0
  8 10  1  0
 10 11  1  0
 11 12  2  0
 11 13  1  0
 13 14  1  0
 14 15  1  0
 15 16  1  0
 15 17  2  0
 14 18  2  0
 18 19  1  0
 19 20  2  0
 20 21  1  0
 21 22  2  0
 22 23  1  0
 22 24  1  0
 24 25  2  0
 25 13  1  0
 25 19  1  0
  1 26  1  0
  1 27  1  0
  1 28  1  0
  2 29  1  0
  2 30  1  0
  4 31  1  0
  4 32  1  0
 10 33  1  0
 10 34  1  0
 16 35  1  0
 18 36  1  0
 20 37  1  0
 21 38  1  0
 23 39  1  0
 23 40  1  0
 23 41  1  0
 24 42  1  0
M  CHG  2   7  -1  16  -1
M  END
>  <UniqueID>  (79) 
78

>  <SMILES>  (79) 
CCN(CC(=O)[O-])C(=O)CC(=O)n1c(C([NH-])=O)cc2ccc(C)cc21

>  <Energy>  (79) 
76.76663369135393

>  <Genealogy>  (79) 
CCN(CC(=O)[O-])C(=O)CC(=O)n1c(C([NH-])=O)cc2ccc(C)cc21 (protonated)
CCN(CC(=O)[O-])C(=O)CC(=O)n1c(C([NH-])=O)cc2ccc(C)cc21 (3D coordinates assigned)
CCN(CC(=O)[O-])C(=O)CC(=O)n1c(C([NH-])=O)cc2ccc(C)cc21 (optimized conformer: 76.76663369135393 kcal/mol)

>  <smiles>  (79) 
CCN(CC(=O)O)C(=O)CC(=O)n1c(C(N)=O)cc2ccc(C)cc21

>  <score_type>  (79) 
oracle

>  <origin>  (79) 
adg

>  <m_score__min__energy>  (79) 
-7.0199999999999996

>  <m_primary>  (79) 
energy

$$$$
80:0
     RDKit          3D

 30 31  0  0  0  0  0  0  0  0999 V2000
  139.1090  156.3350  133.1110 C   0  0  0  0  0  0  0  0  0  0  0  0
  140.3850  155.9910  133.3320 C   0  0  0  0  0  0  0  0  0  0  0  0
  140.7550  154.5520  133.3820 C   0  0  0  0  0  0  0  0  0  0  0  0
  140.2100  153.7220  132.6080 O   0  0  0  0  0  0  0  0  0  0  0  0
  141.6930  154.0930  134.3000 O   0  0  0  0  0  0  0  0  0  0  0  0
  141.4170  157.0510  133.5020 C   0  0  0  0  0  0  0  0  0  0  0  0
  142.2900  157.2350  132.6090 O   0  0  0  0  0  0  0  0  0  0  0  0
  141.4260  157.8970  134.6610 N   0  0  0  0  0  0  0  0  0  0  0  0
  141.3810  159.2580  134.7020 C   0  0  0  0  0  0  0  0  0  0  0  0
  141.4170  160.1590  133.5310 C   0  0  0  0  0  0  0  0  0  0  0  0
  140.9120  159.7420  132.2640 N   0  0  0  0  0  0  0  0  0  0  0  0
  141.9190  161.3100  133.6440 O   0  0  0  0  0  0  0  0  0  0  0  0
  141.3510  159.7020  136.0230 C   0  0  0  0  0  0  0  0  0  0  0  0
  141.3720  158.5620  136.7940 C   0  0  0  0  0  0  0  0  0  0  0  0
  141.3590  158.4110  138.1770 C   0  0  0  0  0  0  0  0  0  0  0  0
  141.3740  157.1050  138.6970 C   0  0  0  0  0  0  0  0  0  0  0  0
  141.3820  155.9780  137.8320 C   0  0  0  0  0  0  0  0  0  0  0  0
  141.4320  154.5870  138.4120 C   0  0  0  0  0  0  0  0  0  0  0  0
  142.3570  154.5110  139.4400 F   0  0  0  0  0  0  0  0  0  0  0  0
  140.1840  154.2540  138.9040 F   0  0  0  0  0  0  0  0  0  0  0  0
  141.7930  153.6720  137.4370 F   0  0  0  0  0  0  0  0  0  0  0  0
  141.4190  156.1760  136.4330 C   0  0  0  0  0  0  0  0  0  0  0  0
  141.4120  157.4850  135.9460 C   0  0  0  0  0  0  0  0  0  0  0  0
  138.8245  157.3969  133.0721 H   0  0  0  0  0  0  0  0  0  0  0  0
  138.3460  155.5556  132.9685 H   0  0  0  0  0  0  0  0  0  0  0  0
  141.4010  159.0070  131.7050 H   0  0  0  0  0  0  0  0  0  0  0  0
  141.3176  160.7436  136.3750 H   0  0  0  0  0  0  0  0  0  0  0  0
  141.3376  159.2863  138.8429 H   0  0  0  0  0  0  0  0  0  0  0  0
  141.3796  156.9539  139.7866 H   0  0  0  0  0  0  0  0  0  0  0  0
  141.4525  155.3192  135.7439 H   0  0  0  0  0  0  0  0  0  0  0  0
  1  2  2  0
  2  3  1  0
  3  4  2  0
  3  5  1  0
  2  6  1  0
  6  7  2  0
  6  8  1  0
  8  9  1  0
  9 10  1  0
 10 11  1  0
 10 12  2  0
  9 13  2  0
 13 14  1  0
 14 15  2  0
 15 16  1  0
 16 17  2  0
 17 18  1  0
 18 19  1  0
 18 20  1  0
 18 21  1  0
 17 22  1  0
 22 23  2  0
 23  8  1  0
 23 14  1  0
  1 24  1  0
  1 25  1  0
 11 26  1  0
 13 27  1  0
 15 28  1  0
 16 29  1  0
 22 30  1  0
M  CHG  2   5  -1  11  -1
M  END
>  <UniqueID>  (80) 
79

>  <SMILES>  (80) 
C=C(C(=O)[O-])C(=O)n1c(C([NH-])=O)cc2ccc(C(F)(F)F)cc21

>  <Energy>  (80) 
72.43726698794495

>  <Genealogy>  (80) 
C=C(C(=O)[O-])C(=O)n1c(C([NH-])=O)cc2ccc(C(F)(F)F)cc21 (protonated)
C=C(C(=O)[O-])C(=O)n1c(C([NH-])=O)cc2ccc(C(F)(F)F)cc21 (3D coordinates assigned)
C=C(C(=O)[O-])C(=O)n1c(C([NH-])=O)cc2ccc(C(F)(F)F)cc21 (optimized conformer: 72.43726698794495 kcal/mol)

>  <smiles>  (80) 
C=C(C(=O)O)C(=O)n1c(C(N)=O)cc2ccc(C(F)(F)F)cc21

>  <score_type>  (80) 
oracle

>  <origin>  (80) 
adg

>  <m_score__min__energy>  (80) 
-5.8899999999999997

>  <m_primary>  (80) 
energy

$$$$
81:0
     RDKit          3D

 35 36  0  0  0  0  0  0  0  0999 V2000
  148.1010  151.7710  137.9800 C   0  0  0  0  0  0  0  0  0  0  0  0
  147.2840  152.6700  137.1780 N   0  0  0  0  0  0  0  0  0  0  0  0
  147.7230  153.9730  136.7910 C   0  0  0  0  0  0  0  0  0  0  0  0
  148.7640  154.4710  137.3000 O   0  0  0  0  0  0  0  0  0  0  0  0
  146.9840  154.6860  135.8440 O   0  0  0  0  0  0  0  0  0  0  0  0
  147.5790  155.2800  134.6950 C   0  0  0  0  0  0  0  0  0  0  0  0
  146.5880  155.9800  133.9490 O   0  0  0  0  0  0  0  0  0  0  0  0
  146.9000  156.8370  132.8880 C   0  0  0  0  0  0  0  0  0  0  0  0
  147.3170  156.3690  131.7940 O   0  0  0  0  0  0  0  0  0  0  0  0
  146.7670  158.2570  133.0550 N   0  0  0  0  0  0  0  0  0  0  0  0
  147.6880  159.2190  132.7670 C   0  0  0  0  0  0  0  0  0  0  0  0
  149.0960  158.9850  132.3840 C   0  0  0  0  0  0  0  0  0  0  0  0
  149.6100  157.6630  132.2530 N   0  0  0  0  0  0  0  0  0  0  0  0
  149.8680  159.9670  132.2180 O   0  0  0  0  0  0  0  0  0  0  0  0
  147.1490  160.4880  132.9630 C   0  0  0  0  0  0  0  0  0  0  0  0
  145.8580  160.2740  133.3920 C   0  0  0  0  0  0  0  0  0  0  0  0
  144.8620  161.1870  133.7230 C   0  0  0  0  0  0  0  0  0  0  0  0
  143.6070  160.6830  134.1040 C   0  0  0  0  0  0  0  0  0  0  0  0
  143.3710  159.2860  134.1420 C   0  0  0  0  0  0  0  0  0  0  0  0
  142.0160  158.7690  134.5360 C   0  0  0  0  0  0  0  0  0  0  0  0
  141.6830  159.2450  135.7910 F   0  0  0  0  0  0  0  0  0  0  0  0
  141.0720  159.1950  133.6190 F   0  0  0  0  0  0  0  0  0  0  0  0
  144.4060  158.3880  133.7970 C   0  0  0  0  0  0  0  0  0  0  0  0
  145.6520  158.9190  133.4380 C   0  0  0  0  0  0  0  0  0  0  0  0
  147.9225  151.9674  139.0475 H   0  0  0  0  0  0  0  0  0  0  0  0
  147.8343  150.7291  137.7493 H   0  0  0  0  0  0  0  0  0  0  0  0
  149.1636  151.9372  137.7493 H   0  0  0  0  0  0  0  0  0  0  0  0
  148.3631  155.9835  135.0116 H   0  0  0  0  0  0  0  0  0  0  0  0
  148.0208  154.4934  134.0657 H   0  0  0  0  0  0  0  0  0  0  0  0
  149.3290  157.0540  131.4520 H   0  0  0  0  0  0  0  0  0  0  0  0
  147.6484  161.4558  132.8081 H   0  0  0  0  0  0  0  0  0  0  0  0
  145.0511  162.2700  133.6876 H   0  0  0  0  0  0  0  0  0  0  0  0
  142.7999  161.3794  134.3754 H   0  0  0  0  0  0  0  0  0  0  0  0
  142.0399  157.6694  134.5554 H   0  0  0  0  0  0  0  0  0  0  0  0
  144.2380  157.3010  133.8099 H   0  0  0  0  0  0  0  0  0  0  0  0
  1  2  1  0
  2  3  1  0
  3  4  2  0
  3  5  1  0
  5  6  1  0
  6  7  1  0
  7  8  1  0
  8  9  2  0
  8 10  1  0
 10 11  1  0
 11 12  1  0
 12 13  1  0
 12 14  2  0
 11 15  2  0
 15 16  1  0
 16 17  2  0
 17 18  1  0
 18 19  2  0
 19 20  1  0
 20 21  1  0
 20 22  1  0
 19 23  1  0
 23 24  2  0
 24 10  1  0
 24 16  1  0
  1 25  1  0
  1 26  1  0
  1 27  1  0
  6 28  1  0
  6 29  1  0
 13 30  1  0
 15 31  1  0
 17 32  1  0
 18 33  1  0
 20 34  1  0
 23 35  1  0
M  CHG  2   2  -1  13  -1
M  END
>  <UniqueID>  (81) 
80

>  <SMILES>  (81) 
C[N-]C(=O)OCOC(=O)n1c(C([NH-])=O)cc2ccc(C(F)F)cc21

>  <Energy>  (81) 
68.00706988236168

>  <Genealogy>  (81) 
C[N-]C(=O)OCOC(=O)n1c(C([NH-])=O)cc2ccc(C(F)F)cc21 (protonated)
C[N-]C(=O)OCOC(=O)n1c(C([NH-])=O)cc2ccc(C(F)F)cc21 (3D coordinates assigned)
C[N-]C(=O)OCOC(=O)n1c(C([NH-])=O)cc2ccc(C(F)F)cc21 (optimized conformer: 68.00706988236168 kcal/mol)

>  <smiles>  (81) 
CNC(=O)OCOC(=O)n1c(C(N)=O)cc2ccc(C(F)F)cc21

>  <score_type>  (81) 
oracle

>  <origin>  (81) 
adg

>  <m_score__min__energy>  (81) 
-5.4500000000000002

>  <m_primary>  (81) 
energy

$$$$
82:0
     RDKit          3D

 31 33  0  0  0  0  0  0  0  0999 V2000
  146.9960  160.8750  133.3610 N   0  0  0  0  0  0  0  0  0  0  0  0
  145.9560  159.9080  133.2010 C   0  0  0  0  0  0  0  0  0  0  0  0
  144.7710  160.3050  133.0510 O   0  0  0  0  0  0  0  0  0  0  0  0
  146.2550  158.4560  133.2280 C   0  0  0  0  0  0  0  0  0  0  0  0
  145.3020  157.4560  133.4230 C   0  0  0  0  0  0  0  0  0  0  0  0
  145.9930  156.2690  133.3240 C   0  0  0  0  0  0  0  0  0  0  0  0
  145.5450  154.9580  133.4540 C   0  0  0  0  0  0  0  0  0  0  0  0
  146.4900  153.9250  133.3380 C   0  0  0  0  0  0  0  0  0  0  0  0
  147.8590  154.2150  133.1050 C   0  0  0  0  0  0  0  0  0  0  0  0
  148.8450  153.1210  132.9970 C   0  0  0  0  0  0  0  0  0  0  0  0
  149.1030  152.2280  133.9700 N   0  0  0  0  0  0  0  0  0  0  0  0
  150.0350  151.4380  133.4650 N   0  0  0  0  0  0  0  0  0  0  0  0
  150.3360  151.8290  132.2370 N   0  0  0  0  0  0  0  0  0  0  0  0
  149.6070  152.8830  131.9130 N   0  0  0  0  0  0  0  0  0  0  0  0
  148.2740  155.5610  132.9800 C   0  0  0  0  0  0  0  0  0  0  0  0
  147.3070  156.5680  133.0800 C   0  0  0  0  0  0  0  0  0  0  0  0
  147.4810  157.9040  133.0100 N   0  0  0  0  0  0  0  0  0  0  0  0
  148.7250  158.5940  132.8140 C   0  0  0  0  0  0  0  0  0  0  0  0
  149.2240  159.2640  133.7580 O   0  0  0  0  0  0  0  0  0  0  0  0
  149.4130  158.5670  131.4820 C   0  0  0  0  0  0  0  0  0  0  0  0
  149.5260  159.9540  130.9380 C   0  0  0  0  0  0  0  0  0  0  0  0
  148.9160  160.9040  131.4950 O   0  0  0  0  0  0  0  0  0  0  0  0
  150.3430  160.2070  129.8440 O   0  0  0  0  0  0  0  0  0  0  0  0
  146.7630  161.8930  133.3760 H   0  0  0  0  0  0  0  0  0  0  0  0
  147.9990  160.5960  133.4220 H   0  0  0  0  0  0  0  0  0  0  0  0
  144.2269  157.5877  133.6151 H   0  0  0  0  0  0  0  0  0  0  0  0
  144.4838  154.7373  133.6418 H   0  0  0  0  0  0  0  0  0  0  0  0
  146.1644  152.8782  133.4290 H   0  0  0  0  0  0  0  0  0  0  0  0
  149.3314  155.8107  132.8083 H   0  0  0  0  0  0  0  0  0  0  0  0
  150.4193  158.1388  131.6002 H   0  0  0  0  0  0  0  0  0  0  0  0
  148.8258  157.9518  130.7843 H   0  0  0  0  0  0  0  0  0  0  0  0
  1  2  1  0
  2  3  2  0
  2  4  1  0
  4  5  2  0
  5  6  1  0
  6  7  2  0
  7  8  1  0
  8  9  2  0
  9 10  1  0
 10 11  1  0
 11 12  2  0
 12 13  1  0
 13 14  1  0
  9 15  1  0
 15 16  2  0
 16 17  1  0
 17 18  1  0
 18 19  2  0
 18 20  1  0
 20 21  1  0
 21 22  2  0
 21 23  1  0
 17  4  1  0
 16  6  1  0
 14 10  2  0
  1 24  1  0
  1 25  1  0
  5 26  1  0
  7 27  1  0
  8 28  1  0
 15 29  1  0
 20 30  1  0
 20 31  1  0
M  CHG  2  13  -1  23  -1
M  END
>  <UniqueID>  (82) 
81

>  <SMILES>  (82) 
NC(=O)c1cc2ccc(-c3nn[n-]n3)cc2n1C(=O)CC(=O)[O-]

>  <Energy>  (82) 
109.6195396060406

>  <Genealogy>  (82) 
NC(=O)c1cc2ccc(-c3nn[n-]n3)cc2n1C(=O)CC(=O)[O-] (protonated)
NC(=O)c1cc2ccc(-c3nn[n-]n3)cc2n1C(=O)CC(=O)[O-] (3D coordinates assigned)
NC(=O)c1cc2ccc(-c3nn[n-]n3)cc2n1C(=O)CC(=O)[O-] (optimized conformer: 109.6195396060406 kcal/mol)

>  <smiles>  (82) 
NC(=O)c1cc2ccc(-c3nn[nH]n3)cc2n1C(=O)CC(=O)O

>  <score_type>  (82) 
oracle

>  <origin>  (82) 
adg

>  <m_score__min__energy>  (82) 
-7.5499999999999998

>  <m_primary>  (82) 
energy

$$$$
83:0
     RDKit          3D

 45 47  0  0  0  0  0  0  0  0999 V2000
  138.7340  158.2450  131.0410 C   0  0  0  0  0  0  0  0  0  0  0  0
  139.1030  159.0120  132.2350 N   0  0  0  0  0  0  0  0  0  0  0  0
  139.3530  160.4520  132.1510 C   0  0  0  0  0  0  0  0  0  0  0  0
  139.1560  158.3280  133.5030 C   0  0  0  0  0  0  0  0  0  0  0  0
  138.2850  157.4570  133.7730 O   0  0  0  0  0  0  0  0  0  0  0  0
  140.2440  158.6150  134.5150 C   0  0  2  0  0  0  0  0  0  0  0  0
  141.4540  157.8550  134.1600 N   0  0  0  0  0  0  0  0  0  0  0  0
  142.7120  158.4770  133.8330 C   0  0  0  0  0  0  0  0  0  0  0  0
  142.7850  159.8920  133.7660 C   0  0  0  0  0  0  0  0  0  0  0  0
  144.0150  160.5420  133.5550 C   0  0  0  0  0  0  0  0  0  0  0  0
  145.1490  159.7470  133.4040 C   0  0  0  0  0  0  0  0  0  0  0  0
  146.4650  160.1070  133.2270 C   0  0  0  0  0  0  0  0  0  0  0  0
  147.1660  158.9050  133.1420 C   0  0  0  0  0  0  0  0  0  0  0  0
  148.6260  158.8060  132.9350 C   0  0  0  0  0  0  0  0  0  0  0  0
  149.1410  158.0960  131.8080 N   0  0  0  0  0  0  0  0  0  0  0  0
  149.4310  159.3520  133.7380 O   0  0  0  0  0  0  0  0  0  0  0  0
  146.3140  157.8510  133.2640 N   0  0  0  0  0  0  0  0  0  0  0  0
  146.6270  156.4590  133.1390 C   0  0  0  0  0  0  0  0  0  0  0  0
  146.9800  155.9940  132.0210 O   0  0  0  0  0  0  0  0  0  0  0  0
  146.4860  155.5670  134.2940 C   0  0  0  0  0  0  0  0  0  0  0  0
  147.3380  155.5970  135.2230 O   0  0  0  0  0  0  0  0  0  0  0  0
  145.3910  154.7200  134.3900 O   0  0  0  0  0  0  0  0  0  0  0  0
  145.0860  158.3820  133.4210 C   0  0  0  0  0  0  0  0  0  0  0  0
  143.8820  157.7070  133.6280 C   0  0  0  0  0  0  0  0  0  0  0  0
  139.7580  158.1790  135.9070 C   0  0  0  0  0  0  0  0  0  0  0  0
  140.6070  158.6160  137.0950 C   0  0  0  0  0  0  0  0  0  0  0  0
  140.6550  157.1730  136.6170 C   0  0  0  0  0  0  0  0  0  0  0  0
  138.2756  157.2922  131.3444 H   0  0  0  0  0  0  0  0  0  0  0  0
  138.0154  158.8231  130.4414 H   0  0  0  0  0  0  0  0  0  0  0  0
  139.6341  158.0443  130.4414 H   0  0  0  0  0  0  0  0  0  0  0  0
  139.4258  160.8713  133.1653 H   0  0  0  0  0  0  0  0  0  0  0  0
  140.2954  160.6297  131.6123 H   0  0  0  0  0  0  0  0  0  0  0  0
  138.5256  160.9370  131.6123 H   0  0  0  0  0  0  0  0  0  0  0  0
  140.4757  159.6903  134.5199 H   0  0  0  0  0  0  0  0  0  0  0  0
  141.3670  156.8260  133.9800 H   0  0  0  0  0  0  0  0  0  0  0  0
  141.8682  160.4889  133.8805 H   0  0  0  0  0  0  0  0  0  0  0  0
  144.0789  161.6393  133.5108 H   0  0  0  0  0  0  0  0  0  0  0  0
  146.8761  161.1254  133.1657 H   0  0  0  0  0  0  0  0  0  0  0  0
  148.6870  157.2160  131.4830 H   0  0  0  0  0  0  0  0  0  0  0  0
  143.8434  156.6077  133.6318 H   0  0  0  0  0  0  0  0  0  0  0  0
  138.6885  158.2449  135.6582 H   0  0  0  0  0  0  0  0  0  0  0  0
  141.4729  159.2761  136.9388 H   0  0  0  0  0  0  0  0  0  0  0  0
  140.4033  159.1103  138.0563 H   0  0  0  0  0  0  0  0  0  0  0  0
  141.5558  156.7897  136.1154 H   0  0  0  0  0  0  0  0  0  0  0  0
  140.5005  156.1920  137.0900 H   0  0  0  0  0  0  0  0  0  0  0  0
  1  2  1  0
  2  3  1  0
  2  4  1  0
  4  5  2  0
  4  6  1  0
  6  7  1  0
  7  8  1  0
  8  9  2  0
  9 10  1  0
 10 11  2  0
 11 12  1  0
 12 13  2  0
 13 14  1  0
 14 15  1  0
 14 16  2  0
 13 17  1  0
 17 18  1  0
 18 19  2  0
 18 20  1  0
 20 21  2  0
 20 22  1  0
 17 23  1  0
 23 24  2  0
  6 25  1  0
 25 26  1  0
 26 27  1  0
 24  8  1  0
 27 25  1  0
 23 11  1  0
  1 28  1  0
  1 29  1  0
  1 30  1  0
  3 31  1  0
  3 32  1  0
  3 33  1  0
  6 34  1  1
  7 35  1  0
  9 36  1  0
 10 37  1  0
 12 38  1  0
 15 39  1  0
 24 40  1  0
 25 41  1  0
 26 42  1  0
 26 43  1  0
 27 44  1  0
 27 45  1  0
M  CHG  2  15  -1  22  -1
M  END
>  <UniqueID>  (83) 
82

>  <SMILES>  (83) 
CN(C)C(=O)[C@H](Nc1ccc2cc(C([NH-])=O)n(C(=O)C(=O)[O-])c2c1)C1CC1

>  <Energy>  (83) 
348.4723671122359

>  <Genealogy>  (83) 
CN(C)C(=O)[C@H](Nc1ccc2cc(C([NH-])=O)n(C(=O)C(=O)[O-])c2c1)C1CC1 (protonated)
CN(C)C(=O)[C@H](Nc1ccc2cc(C([NH-])=O)n(C(=O)C(=O)[O-])c2c1)C1CC1 (3D coordinates assigned)
CN(C)C(=O)[C@H](Nc1ccc2cc(C([NH-])=O)n(C(=O)C(=O)[O-])c2c1)C1CC1 (nonaromatic ring conformer: 348.4723671122359 kcal/mol)

>  <smiles>  (83) 
CN(C)C(=O)[C@H](Nc1ccc2cc(C(N)=O)n(C(=O)C(=O)O)c2c1)C1CC1

>  <score_type>  (83) 
oracle

>  <origin>  (83) 
adg

>  <m_score__min__energy>  (83) 
-7.8799999999999999

>  <m_primary>  (83) 
energy

$$$$
84:0
     RDKit          3D

 47 48  0  0  0  0  0  0  0  0999 V2000
  145.9710  158.6410  133.7230 C   0  0  0  0  0  0  0  0  0  0  0  0
  145.2200  157.3300  133.5180 C   0  0  1  0  0  0  0  0  0  0  0  0
  144.9210  156.7380  134.7820 O   0  0  0  0  0  0  0  0  0  0  0  0
  145.2290  155.4140  135.1090 C   0  0  0  0  0  0  0  0  0  0  0  0
  144.3150  154.5590  135.2690 O   0  0  0  0  0  0  0  0  0  0  0  0
  146.6570  155.0250  135.3260 C   0  0  0  0  0  0  0  0  0  0  0  0
  147.4480  155.3750  134.1930 O   0  0  0  0  0  0  0  0  0  0  0  0
  147.1340  154.9900  132.8840 C   0  0  0  0  0  0  0  0  0  0  0  0
  147.1870  155.8270  131.9420 O   0  0  0  0  0  0  0  0  0  0  0  0
  146.7590  153.6300  132.6110 N   0  0  0  0  0  0  0  0  0  0  0  0
  145.4990  153.1310  132.4650 C   0  0  0  0  0  0  0  0  0  0  0  0
  144.2580  153.9370  132.4130 C   0  0  0  0  0  0  0  0  0  0  0  0
  144.2510  155.2300  131.8040 N   0  0  0  0  0  0  0  0  0  0  0  0
  143.1950  153.4970  132.9300 O   0  0  0  0  0  0  0  0  0  0  0  0
  145.5430  151.7500  132.2750 C   0  0  0  0  0  0  0  0  0  0  0  0
  146.8790  151.4180  132.3090 C   0  0  0  0  0  0  0  0  0  0  0  0
  147.4980  150.1760  132.1870 C   0  0  0  0  0  0  0  0  0  0  0  0
  148.8980  150.1250  132.2940 C   0  0  0  0  0  0  0  0  0  0  0  0
  149.6450  151.3050  132.5210 C   0  0  0  0  0  0  0  0  0  0  0  0
  151.0670  151.2380  132.6510 N   0  0  0  0  0  0  0  0  0  0  0  0
  148.9850  152.5470  132.6340 C   0  0  0  0  0  0  0  0  0  0  0  0
  147.5900  152.5710  132.5120 C   0  0  0  0  0  0  0  0  0  0  0  0
  144.0000  157.5960  132.8330 O   0  0  0  0  0  0  0  0  0  0  0  0
  142.8440  158.0460  133.4800 C   0  0  0  0  0  0  0  0  0  0  0  0
  142.6020  159.2800  133.5800 O   0  0  0  0  0  0  0  0  0  0  0  0
  141.8670  157.0530  134.0330 C   0  0  1  0  0  0  0  0  0  0  0  0
  140.4760  157.3060  133.4470 C   0  0  0  0  0  0  0  0  0  0  0  0
  142.2920  155.7550  133.7110 O   0  0  0  0  0  0  0  0  0  0  0  0
  146.0823  158.8353  134.8000 H   0  0  0  0  0  0  0  0  0  0  0  0
  146.9656  158.5703  133.2585 H   0  0  0  0  0  0  0  0  0  0  0  0
  145.4069  159.4632  133.2585 H   0  0  0  0  0  0  0  0  0  0  0  0
  145.8451  156.6414  132.9306 H   0  0  0  0  0  0  0  0  0  0  0  0
  147.0438  155.5481  136.2130 H   0  0  0  0  0  0  0  0  0  0  0  0
  146.7103  153.9363  135.4742 H   0  0  0  0  0  0  0  0  0  0  0  0
  145.0970  155.6100  131.3230 H   0  0  0  0  0  0  0  0  0  0  0  0
  143.3760  155.7990  131.7960 H   0  0  0  0  0  0  0  0  0  0  0  0
  144.6908  151.0699  132.1289 H   0  0  0  0  0  0  0  0  0  0  0  0
  146.9090  149.2635  132.0123 H   0  0  0  0  0  0  0  0  0  0  0  0
  149.4175  149.1599  132.2006 H   0  0  0  0  0  0  0  0  0  0  0  0
  151.5110  150.6020  133.3530 H   0  0  0  0  0  0  0  0  0  0  0  0
  151.6880  151.8130  132.0390 H   0  0  0  0  0  0  0  0  0  0  0  0
  149.5516  153.4726  132.8133 H   0  0  0  0  0  0  0  0  0  0  0  0
  141.8159  157.1612  135.1265 H   0  0  0  0  0  0  0  0  0  0  0  0
  139.7521  157.4377  134.2647 H   0  0  0  0  0  0  0  0  0  0  0  0
  140.4988  158.2147  132.8276 H   0  0  0  0  0  0  0  0  0  0  0  0
  140.1774  156.4474  132.8276 H   0  0  0  0  0  0  0  0  0  0  0  0
  143.2820  155.7460  133.7910 H   0  0  0  0  0  0  0  0  0  0  0  0
  1  2  1  0
  2  3  1  0
  3  4  1  0
  4  5  2  0
  4  6  1  0
  6  7  1  0
  7  8  1  0
  8  9  2  0
  8 10  1  0
 10 11  1  0
 11 12  1  0
 12 13  1  0
 12 14  2  0
 11 15  2  0
 15 16  1  0
 16 17  2  0
 17 18  1  0
 18 19  2  0
 19 20  1  0
 19 21  1  0
 21 22  2  0
  2 23  1  0
 23 24  1  0
 24 25  2  0
 24 26  1  0
 26 27  1  0
 26 28  1  0
 22 10  1  0
 22 16  1  0
  1 29  1  0
  1 30  1  0
  1 31  1  0
  2 32  1  6
  6 33  1  0
  6 34  1  0
 13 35  1  0
 13 36  1  0
 15 37  1  0
 17 38  1  0
 18 39  1  0
 20 40  1  0
 20 41  1  0
 21 42  1  0
 26 43  1  1
 27 44  1  0
 27 45  1  0
 27 46  1  0
 28 47  1  0
M  END
>  <UniqueID>  (84) 
83

>  <SMILES>  (84) 
C[C@@H](OC(=O)COC(=O)n1c(C(N)=O)cc2ccc(N)cc21)OC(=O)[C@@H](C)O

>  <Energy>  (84) 
71.45645789003133

>  <Genealogy>  (84) 
C[C@@H](OC(=O)COC(=O)n1c(C(N)=O)cc2ccc(N)cc21)OC(=O)[C@@H](C)O (chirality)
C[C@@H](OC(=O)COC(=O)n1c(C(N)=O)cc2ccc(N)cc21)OC(=O)[C@@H](C)O (3D coordinates assigned)
C[C@@H](OC(=O)COC(=O)n1c(C(N)=O)cc2ccc(N)cc21)OC(=O)[C@@H](C)O (optimized conformer: 71.45645789003133 kcal/mol)

>  <smiles>  (84) 
CC(OC(=O)COC(=O)n1c(C(N)=O)cc2ccc(N)cc21)OC(=O)C(C)O

>  <score_type>  (84) 
oracle

>  <origin>  (84) 
adg

>  <m_score__min__energy>  (84) 
-6.1100000000000003

>  <m_primary>  (84) 
energy

$$$$
85:0
     RDKit          3D

 38 39  0  0  0  0  0  0  0  0999 V2000
  140.5670  157.4370  133.1150 C   0  0  0  0  0  0  0  0  0  0  0  0
  141.8400  158.2000  133.3220 C   0  0  0  0  0  0  0  0  0  0  0  0
  141.8010  159.5980  133.5520 C   0  0  0  0  0  0  0  0  0  0  0  0
  142.9900  160.3310  133.7150 C   0  0  0  0  0  0  0  0  0  0  0  0
  144.1970  159.6420  133.6320 C   0  0  0  0  0  0  0  0  0  0  0  0
  145.4920  160.0980  133.7410 C   0  0  0  0  0  0  0  0  0  0  0  0
  146.2980  158.9740  133.5540 C   0  0  0  0  0  0  0  0  0  0  0  0
  147.7800  158.9930  133.5310 C   0  0  0  0  0  0  0  0  0  0  0  0
  148.5350  157.8220  133.8460 N   0  0  0  0  0  0  0  0  0  0  0  0
  148.3930  160.0520  133.2350 O   0  0  0  0  0  0  0  0  0  0  0  0
  145.5260  157.8700  133.3590 N   0  0  0  0  0  0  0  0  0  0  0  0
  145.9640  156.5290  133.0970 C   0  0  0  0  0  0  0  0  0  0  0  0
  146.9090  156.3430  132.2820 O   0  0  0  0  0  0  0  0  0  0  0  0
  145.3420  155.4000  133.7460 N   0  0  0  0  0  0  0  0  0  0  0  0
  144.4220  154.5680  132.9670 C   0  0  0  0  0  0  0  0  0  0  0  0
  145.3680  155.2320  135.2130 C   0  0  1  0  0  0  0  0  0  0  0  0
  144.2610  154.2800  135.6840 C   0  0  0  0  0  0  0  0  0  0  0  0
  146.7410  154.8270  135.6920 C   0  0  0  0  0  0  0  0  0  0  0  0
  147.7460  155.5600  135.4920 O   0  0  0  0  0  0  0  0  0  0  0  0
  146.9020  153.6200  136.3590 O   0  0  0  0  0  0  0  0  0  0  0  0
  144.2470  158.2940  133.3920 C   0  0  0  0  0  0  0  0  0  0  0  0
  143.0830  157.5390  133.2240 C   0  0  0  0  0  0  0  0  0  0  0  0
  140.1326  157.1767  134.0915 H   0  0  0  0  0  0  0  0  0  0  0  0
  139.8552  158.0575  132.5508 H   0  0  0  0  0  0  0  0  0  0  0  0
  140.7787  156.5168  132.5508 H   0  0  0  0  0  0  0  0  0  0  0  0
  140.8312  160.1147  133.6035 H   0  0  0  0  0  0  0  0  0  0  0  0
  142.9672  161.4147  133.9022 H   0  0  0  0  0  0  0  0  0  0  0  0
  145.8213  161.1296  133.9344 H   0  0  0  0  0  0  0  0  0  0  0  0
  148.0740  156.9040  134.0280 H   0  0  0  0  0  0  0  0  0  0  0  0
  149.5790  157.8610  133.8550 H   0  0  0  0  0  0  0  0  0  0  0  0
  143.7826  153.9898  133.6502 H   0  0  0  0  0  0  0  0  0  0  0  0
  143.7938  155.2108  132.3329 H   0  0  0  0  0  0  0  0  0  0  0  0
  144.9987  153.8786  132.3329 H   0  0  0  0  0  0  0  0  0  0  0  0
  145.1538  156.2062  135.6768 H   0  0  0  0  0  0  0  0  0  0  0  0
  144.2378  154.2601  136.7836 H   0  0  0  0  0  0  0  0  0  0  0  0
  143.2901  154.6296  135.3031 H   0  0  0  0  0  0  0  0  0  0  0  0
  144.4613  153.2677  135.3031 H   0  0  0  0  0  0  0  0  0  0  0  0
  143.1343  156.4591  133.0209 H   0  0  0  0  0  0  0  0  0  0  0  0
  1  2  1  0
  2  3  2  0
  3  4  1  0
  4  5  2  0
  5  6  1  0
  6  7  2  0
  7  8  1  0
  8  9  1  0
  8 10  2  0
  7 11  1  0
 11 12  1  0
 12 13  2  0
 12 14  1  0
 14 15  1  0
 14 16  1  0
 16 17  1  0
 16 18  1  0
 18 19  2  0
 18 20  1  0
 11 21  1  0
 21 22  2  0
 22  2  1  0
 21  5  1  0
  1 23  1  0
  1 24  1  0
  1 25  1  0
  3 26  1  0
  4 27  1  0
  6 28  1  0
  9 29  1  0
  9 30  1  0
 15 31  1  0
 15 32  1  0
 15 33  1  0
 16 34  1  1
 17 35  1  0
 17 36  1  0
 17 37  1  0
 22 38  1  0
M  CHG  1  20  -1
M  END
>  <UniqueID>  (85) 
84

>  <SMILES>  (85) 
Cc1ccc2cc(C(N)=O)n(C(=O)N(C)[C@@H](C)C(=O)[O-])c2c1

>  <Energy>  (85) 
76.56916911228497

>  <Genealogy>  (85) 
Cc1ccc2cc(C(N)=O)n(C(=O)N(C)C(C)C(=O)[O-])c2c1 (protonated)
Cc1ccc2cc(C(N)=O)n(C(=O)N(C)[C@@H](C)C(=O)[O-])c2c1 (chirality)
Cc1ccc2cc(C(N)=O)n(C(=O)N(C)[C@@H](C)C(=O)[O-])c2c1 (3D coordinates assigned)
Cc1ccc2cc(C(N)=O)n(C(=O)N(C)[C@@H](C)C(=O)[O-])c2c1 (optimized conformer: 76.56916911228497 kcal/mol)

>  <smiles>  (85) 
Cc1ccc2cc(C(N)=O)n(C(=O)N(C)C(C)C(=O)O)c2c1

>  <score_type>  (85) 
oracle

>  <origin>  (85) 
adg

>  <m_score__min__energy>  (85) 
-6.3600000000000003

>  <m_primary>  (85) 
energy

$$$$
86:0
     RDKit          3D

 45 47  0  0  0  0  0  0  0  0999 V2000
  148.2560  153.5950  133.6990 C   0  0  0  0  0  0  0  0  0  0  0  0
  147.2880  154.5620  134.2210 N   0  0  0  0  0  0  0  0  0  0  0  0
  145.9500  154.1030  134.6160 C   0  0  0  0  0  0  0  0  0  0  0  0
  145.8920  153.8260  136.0880 C   0  0  0  0  0  0  0  0  0  0  0  0
  144.8450  154.0840  136.7430 O   0  0  0  0  0  0  0  0  0  0  0  0
  147.0030  153.3080  136.7410 O   0  0  0  0  0  0  0  0  0  0  0  0
  147.6020  155.9650  134.1450 C   0  0  0  0  0  0  0  0  0  0  0  0
  148.0970  156.5480  135.1490 O   0  0  0  0  0  0  0  0  0  0  0  0
  147.3340  156.7570  132.9330 C   0  0  0  0  0  0  0  0  0  0  0  0
  147.3460  156.2160  131.7960 O   0  0  0  0  0  0  0  0  0  0  0  0
  147.0670  158.1590  133.0440 N   0  0  0  0  0  0  0  0  0  0  0  0
  147.8900  159.1950  132.7240 C   0  0  0  0  0  0  0  0  0  0  0  0
  149.2710  159.0640  132.2160 C   0  0  0  0  0  0  0  0  0  0  0  0
  149.8420  157.7720  132.0360 N   0  0  0  0  0  0  0  0  0  0  0  0
  149.9540  160.0830  131.9430 O   0  0  0  0  0  0  0  0  0  0  0  0
  147.2330  160.4130  132.9130 C   0  0  0  0  0  0  0  0  0  0  0  0
  145.9710  160.0780  133.3600 C   0  0  0  0  0  0  0  0  0  0  0  0
  144.8950  160.8860  133.7130 C   0  0  0  0  0  0  0  0  0  0  0  0
  143.7150  160.2550  134.1470 C   0  0  0  0  0  0  0  0  0  0  0  0
  143.6200  158.8390  134.2060 C   0  0  0  0  0  0  0  0  0  0  0  0
  142.3970  158.2430  134.6830 N   0  0  0  0  0  0  0  0  0  0  0  0
  141.8500  158.2930  136.0520 C   0  0  0  0  0  0  0  0  0  0  0  0
  140.9150  157.1400  136.3980 C   0  0  0  0  0  0  0  0  0  0  0  0
  139.7880  158.1410  136.6430 C   0  0  0  0  0  0  0  0  0  0  0  0
  140.7190  159.2930  136.2760 C   0  0  0  0  0  0  0  0  0  0  0  0
  144.7430  158.0570  133.8510 C   0  0  0  0  0  0  0  0  0  0  0  0
  145.8990  158.7110  133.4260 C   0  0  0  0  0  0  0  0  0  0  0  0
  148.7599  153.0916  134.5373 H   0  0  0  0  0  0  0  0  0  0  0  0
  147.7328  152.8481  133.0838 H   0  0  0  0  0  0  0  0  0  0  0  0
  149.0024  154.1189  133.0838 H   0  0  0  0  0  0  0  0  0  0  0  0
  145.2141  154.8817  134.3669 H   0  0  0  0  0  0  0  0  0  0  0  0
  145.7236  153.1727  134.0743 H   0  0  0  0  0  0  0  0  0  0  0  0
  149.3360  157.0290  131.5050 H   0  0  0  0  0  0  0  0  0  0  0  0
  147.6351  161.4225  132.7422 H   0  0  0  0  0  0  0  0  0  0  0  0
  144.9646  161.9822  133.6547 H   0  0  0  0  0  0  0  0  0  0  0  0
  142.8519  160.8681  134.4455 H   0  0  0  0  0  0  0  0  0  0  0  0
  141.9810  157.5000  134.0740 H   0  0  0  0  0  0  0  0  0  0  0  0
  142.8015  158.4237  136.5882 H   0  0  0  0  0  0  0  0  0  0  0  0
  140.7281  156.4460  135.5653 H   0  0  0  0  0  0  0  0  0  0  0  0
  141.1912  156.4073  137.1706 H   0  0  0  0  0  0  0  0  0  0  0  0
  138.9304  158.0247  135.9640 H   0  0  0  0  0  0  0  0  0  0  0  0
  139.2518  158.1469  137.6034 H   0  0  0  0  0  0  0  0  0  0  0  0
  140.4193  159.8443  135.3725 H   0  0  0  0  0  0  0  0  0  0  0  0
  140.8517  160.1455  136.9584 H   0  0  0  0  0  0  0  0  0  0  0  0
  144.7058  156.9591  133.9086 H   0  0  0  0  0  0  0  0  0  0  0  0
  1  2  1  0
  2  3  1  0
  3  4  1  0
  4  5  2  0
  4  6  1  0
  2  7  1  0
  7  8  2  0
  7  9  1  0
  9 10  2  0
  9 11  1  0
 11 12  1  0
 12 13  1  0
 13 14  1  0
 13 15  2  0
 12 16  2  0
 16 17  1  0
 17 18  2  0
 18 19  1  0
 19 20  2  0
 20 21  1  0
 21 22  1  0
 22 23  1  0
 23 24  1  0
 24 25  1  0
 20 26  1  0
 26 27  2  0
 27 11  1  0
 27 17  1  0
 25 22  1  0
  1 28  1  0
  1 29  1  0
  1 30  1  0
  3 31  1  0
  3 32  1  0
 14 33  1  0
 16 34  1  0
 18 35  1  0
 19 36  1  0
 21 37  1  0
 22 38  1  0
 23 39  1  0
 23 40  1  0
 24 41  1  0
 24 42  1  0
 25 43  1  0
 25 44  1  0
 26 45  1  0
M  CHG  2   6  -1  14  -1
M  END
>  <UniqueID>  (86) 
85

>  <SMILES>  (86) 
CN(CC(=O)[O-])C(=O)C(=O)n1c(C([NH-])=O)cc2ccc(NC3CCC3)cc21

>  <Energy>  (86) 
152.02650039294434

>  <Genealogy>  (86) 
CN(CC(=O)[O-])C(=O)C(=O)n1c(C([NH-])=O)cc2ccc(NC3CCC3)cc21 (protonated)
CN(CC(=O)[O-])C(=O)C(=O)n1c(C([NH-])=O)cc2ccc(NC3CCC3)cc21 (3D coordinates assigned)
CN(CC(=O)[O-])C(=O)C(=O)n1c(C([NH-])=O)cc2ccc(NC3CCC3)cc21 (nonaromatic ring conformer: 152.02650039294434 kcal/mol)

>  <smiles>  (86) 
CN(CC(=O)O)C(=O)C(=O)n1c(C(N)=O)cc2ccc(NC3CCC3)cc21

>  <score_type>  (86) 
oracle

>  <origin>  (86) 
adg

>  <m_score__min__energy>  (86) 
-7.8700000000000001

>  <m_primary>  (86) 
energy

$$$$
87:0
     RDKit          3D

 42 43  0  0  0  0  0  0  0  0999 V2000
  145.7980  152.8120  132.6750 C   0  0  0  0  0  0  0  0  0  0  0  0
  146.7990  153.3020  133.6280 N   0  0  0  0  0  0  0  0  0  0  0  0
  146.3740  153.7260  134.9720 C   0  0  0  0  0  0  0  0  0  0  0  0
  146.8320  155.1210  135.2610 C   0  0  0  0  0  0  0  0  0  0  0  0
  147.9950  155.3180  135.7080 O   0  0  0  0  0  0  0  0  0  0  0  0
  145.9310  156.1810  135.0930 O   0  0  0  0  0  0  0  0  0  0  0  0
  145.6760  156.8340  133.8800 C   0  0  0  0  0  0  0  0  0  0  0  0
  145.6790  156.1950  132.7930 O   0  0  0  0  0  0  0  0  0  0  0  0
  145.4050  158.2460  133.8800 N   0  0  0  0  0  0  0  0  0  0  0  0
  146.3010  159.2590  133.7130 C   0  0  0  0  0  0  0  0  0  0  0  0
  147.7700  159.1160  133.6770 C   0  0  0  0  0  0  0  0  0  0  0  0
  148.4050  157.9150  134.1160 N   0  0  0  0  0  0  0  0  0  0  0  0
  148.4780  160.0900  133.3090 O   0  0  0  0  0  0  0  0  0  0  0  0
  145.6510  160.4850  133.6270 C   0  0  0  0  0  0  0  0  0  0  0  0
  144.3120  160.1960  133.7620 C   0  0  0  0  0  0  0  0  0  0  0  0
  143.2080  161.0420  133.7240 C   0  0  0  0  0  0  0  0  0  0  0  0
  141.9330  160.4670  133.8410 C   0  0  0  0  0  0  0  0  0  0  0  0
  141.7800  159.0660  134.0000 C   0  0  0  0  0  0  0  0  0  0  0  0
  140.4030  158.4540  134.0580 C   0  0  0  0  0  0  0  0  0  0  0  0
  140.4840  157.1190  133.7100 F   0  0  0  0  0  0  0  0  0  0  0  0
  139.8770  158.5560  135.3340 F   0  0  0  0  0  0  0  0  0  0  0  0
  139.5450  159.0980  133.1830 F   0  0  0  0  0  0  0  0  0  0  0  0
  142.9260  158.2360  134.0070 C   0  0  0  0  0  0  0  0  0  0  0  0
  144.1880  158.8390  133.9110 C   0  0  0  0  0  0  0  0  0  0  0  0
  148.1870  153.3360  133.2240 C   0  0  0  0  0  0  0  0  0  0  0  0
  148.9500  152.3800  133.5380 O   0  0  0  0  0  0  0  0  0  0  0  0
  148.7520  154.4920  132.4380 C   0  0  0  0  0  0  0  0  0  0  0  0
  148.6200  155.6980  133.1440 O   0  0  0  0  0  0  0  0  0  0  0  0
  144.9423  152.3931  133.2249 H   0  0  0  0  0  0  0  0  0  0  0  0
  145.4555  153.6443  132.0426 H   0  0  0  0  0  0  0  0  0  0  0  0
  146.2453  152.0310  132.0426 H   0  0  0  0  0  0  0  0  0  0  0  0
  145.2763  153.6876  135.0315 H   0  0  0  0  0  0  0  0  0  0  0  0
  146.8226  153.0480  135.7129 H   0  0  0  0  0  0  0  0  0  0  0  0
  149.4430  157.8200  134.0580 H   0  0  0  0  0  0  0  0  0  0  0  0
  147.8570  157.1530  134.5730 H   0  0  0  0  0  0  0  0  0  0  0  0
  146.1090  161.4746  133.4820 H   0  0  0  0  0  0  0  0  0  0  0  0
  143.3308  162.1287  133.6058 H   0  0  0  0  0  0  0  0  0  0  0  0
  141.0416  161.1107  133.8090 H   0  0  0  0  0  0  0  0  0  0  0  0
  142.8289  157.1431  134.0859 H   0  0  0  0  0  0  0  0  0  0  0  0
  149.8182  154.3057  132.2420 H   0  0  0  0  0  0  0  0  0  0  0  0
  148.1936  154.5778  131.4942 H   0  0  0  0  0  0  0  0  0  0  0  0
  147.7070  155.7000  133.5350 H   0  0  0  0  0  0  0  0  0  0  0  0
  1  2  1  0
  2  3  1  0
  3  4  1  0
  4  5  2  0
  4  6  1  0
  6  7  1  0
  7  8  2  0
  7  9  1  0
  9 10  1  0
 10 11  1  0
 11 12  1  0
 11 13  2  0
 10 14  2  0
 14 15  1  0
 15 16  2  0
 16 17  1  0
 17 18  2  0
 18 19  1  0
 19 20  1  0
 19 21  1  0
 19 22  1  0
 18 23  1  0
 23 24  2  0
  2 25  1  0
 25 26  2  0
 25 27  1  0
 27 28  1  0
 24  9  1  0
 24 15  1  0
  1 29  1  0
  1 30  1  0
  1 31  1  0
  3 32  1  0
  3 33  1  0
 12 34  1  0
 12 35  1  0
 14 36  1  0
 16 37  1  0
 17 38  1  0
 23 39  1  0
 27 40  1  0
 27 41  1  0
 28 42  1  0
M  END
>  <UniqueID>  (87) 
86

>  <SMILES>  (87) 
CN(CC(=O)OC(=O)n1c(C(N)=O)cc2ccc(C(F)(F)F)cc21)C(=O)CO

>  <Energy>  (87) 
79.39703975663669

>  <Genealogy>  (87) 
CN(CC(=O)OC(=O)n1c(C(N)=O)cc2ccc(C(F)(F)F)cc21)C(=O)CO (3D coordinates assigned)
CN(CC(=O)OC(=O)n1c(C(N)=O)cc2ccc(C(F)(F)F)cc21)C(=O)CO (optimized conformer: 79.39703975663669 kcal/mol)

>  <smiles>  (87) 
CN(CC(=O)OC(=O)n1c(C(N)=O)cc2ccc(C(F)(F)F)cc21)C(=O)CO

>  <score_type>  (87) 
oracle

>  <origin>  (87) 
adg

>  <m_score__min__energy>  (87) 
-6.1900000000000004

>  <m_primary>  (87) 
energy

$$$$
88:0
     RDKit          3D

 35 36  0  0  0  0  0  0  0  0999 V2000
  149.5840  161.8500  130.3590 C   0  0  0  0  0  0  0  0  0  0  0  0
  149.2030  160.5910  131.0780 C   0  0  0  0  0  0  0  0  0  0  0  0
  150.0120  159.4340  130.9610 C   0  0  0  0  0  0  0  0  0  0  0  0
  149.6390  158.2340  131.5900 C   0  0  0  0  0  0  0  0  0  0  0  0
  148.4560  158.2210  132.3220 C   0  0  0  0  0  0  0  0  0  0  0  0
  147.8460  157.1920  133.0020 C   0  0  0  0  0  0  0  0  0  0  0  0
  146.6800  157.7380  133.5320 C   0  0  0  0  0  0  0  0  0  0  0  0
  145.7630  156.9900  134.4180 C   0  0  0  0  0  0  0  0  0  0  0  0
  144.3670  157.2740  134.4380 N   0  0  0  0  0  0  0  0  0  0  0  0
  146.2270  156.1200  135.2030 O   0  0  0  0  0  0  0  0  0  0  0  0
  146.5660  159.0510  133.1850 N   0  0  0  0  0  0  0  0  0  0  0  0
  145.4770  159.9470  133.4590 C   0  0  0  0  0  0  0  0  0  0  0  0
  145.6880  161.0040  134.1140 O   0  0  0  0  0  0  0  0  0  0  0  0
  144.1880  159.6200  133.0160 O   0  0  0  0  0  0  0  0  0  0  0  0
  143.0020  159.8980  133.7100 C   0  0  0  0  0  0  0  0  0  0  0  0
  142.5400  161.0730  133.7560 O   0  0  0  0  0  0  0  0  0  0  0  0
  142.3080  158.8190  134.3690 N   0  0  1  0  0  0  0  0  0  0  0  0
  141.5650  159.3090  135.5400 C   0  0  0  0  0  0  0  0  0  0  0  0
  141.4320  158.1540  133.4370 C   0  0  0  0  0  0  0  0  0  0  0  0
  141.8810  157.3040  132.6200 O   0  0  0  0  0  0  0  0  0  0  0  0
  140.0700  158.4320  133.4480 O   0  0  0  0  0  0  0  0  0  0  0  0
  147.6620  159.3330  132.4470 C   0  0  0  0  0  0  0  0  0  0  0  0
  148.0000  160.5360  131.8150 C   0  0  0  0  0  0  0  0  0  0  0  0
  149.8213  162.6341  131.0931 H   0  0  0  0  0  0  0  0  0  0  0  0
  150.4648  161.6598  129.7281 H   0  0  0  0  0  0  0  0  0  0  0  0
  148.7455  162.1800  129.7281 H   0  0  0  0  0  0  0  0  0  0  0  0
  150.9404  159.4753  130.3725 H   0  0  0  0  0  0  0  0  0  0  0  0
  150.2635  157.3323  131.5061 H   0  0  0  0  0  0  0  0  0  0  0  0
  148.2038  156.1570  133.1051 H   0  0  0  0  0  0  0  0  0  0  0  0
  143.8650  157.5610  133.5680 H   0  0  0  0  0  0  0  0  0  0  0  0
  143.0170  158.1270  134.7080 H   0  0  0  0  0  0  0  0  0  0  0  0
  142.0691  158.9766  136.4595 H   0  0  0  0  0  0  0  0  0  0  0  0
  141.5296  160.4082  135.5181 H   0  0  0  0  0  0  0  0  0  0  0  0
  140.5407  158.9087  135.5181 H   0  0  0  0  0  0  0  0  0  0  0  0
  147.3446  161.4162  131.8908 H   0  0  0  0  0  0  0  0  0  0  0  0
  1  2  1  0
  2  3  2  0
  3  4  1  0
  4  5  2  0
  5  6  1  0
  6  7  2  0
  7  8  1  0
  8  9  1  0
  8 10  2  0
  7 11  1  0
 11 12  1  0
 12 13  2  0
 12 14  1  0
 14 15  1  0
 15 16  2  0
 15 17  1  0
 17 18  1  0
 17 19  1  0
 19 20  2  0
 19 21  1  0
 11 22  1  0
 22 23  2  0
 23  2  1  0
 22  5  1  0
  1 24  1  0
  1 25  1  0
  1 26  1  0
  3 27  1  0
  4 28  1  0
  6 29  1  0
  9 30  1  0
 17 31  1  1
 18 32  1  0
 18 33  1  0
 18 34  1  0
 23 35  1  0
M  CHG  3   9  -1  17   1  21  -1
M  END
>  <UniqueID>  (88) 
87

>  <SMILES>  (88) 
Cc1ccc2cc(C([NH-])=O)n(C(=O)OC(=O)[NH+](C)C(=O)[O-])c2c1

>  <Energy>  (88) 
77.12830672519043

>  <Genealogy>  (88) 
Cc1ccc2cc(C([NH-])=O)n(C(=O)OC(=O)[NH+](C)C(=O)[O-])c2c1 (protonated)
Cc1ccc2cc(C([NH-])=O)n(C(=O)OC(=O)[NH+](C)C(=O)[O-])c2c1 (3D coordinates assigned)
Cc1ccc2cc(C([NH-])=O)n(C(=O)OC(=O)[NH+](C)C(=O)[O-])c2c1 (optimized conformer: 77.12830672519043 kcal/mol)

>  <smiles>  (88) 
Cc1ccc2cc(C(N)=O)n(C(=O)OC(=O)N(C)C(=O)O)c2c1

>  <score_type>  (88) 
oracle

>  <origin>  (88) 
adg

>  <m_score__min__energy>  (88) 
-6.4500000000000002

>  <m_primary>  (88) 
energy

$$$$
89:0
     RDKit          3D

 51 53  0  0  0  0  0  0  0  0999 V2000
  141.3840  149.0820  131.8160 C   0  0  0  0  0  0  0  0  0  0  0  0
  142.3960  150.0450  132.0810 O   0  0  0  0  0  0  0  0  0  0  0  0
  142.1750  151.1640  132.8900 C   0  0  0  0  0  0  0  0  0  0  0  0
  141.3810  151.0880  133.8730 O   0  0  0  0  0  0  0  0  0  0  0  0
  142.8630  152.4010  132.6050 N   0  0  2  0  0  0  0  0  0  0  0  0
  144.3160  152.2140  132.8110 C   0  0  0  0  0  0  0  0  0  0  0  0
  145.0890  153.4820  132.4200 C   0  0  0  0  0  0  0  0  0  0  0  0
  144.4750  154.7640  133.0400 C   0  0  2  0  0  0  0  0  0  0  0  0
  145.5110  155.5980  133.6870 N   0  0  0  0  0  0  0  0  0  0  0  0
  145.7430  155.4830  135.1300 C   0  0  0  0  0  0  0  0  0  0  0  0
  146.3020  156.5460  132.9320 C   0  0  0  0  0  0  0  0  0  0  0  0
  147.2170  156.1480  132.1580 O   0  0  0  0  0  0  0  0  0  0  0  0
  146.0600  157.9550  133.0470 N   0  0  0  0  0  0  0  0  0  0  0  0
  146.9810  158.9540  133.0980 C   0  0  0  0  0  0  0  0  0  0  0  0
  148.4350  158.7860  132.9140 C   0  0  0  0  0  0  0  0  0  0  0  0
  148.9480  158.3720  131.6500 N   0  0  0  0  0  0  0  0  0  0  0  0
  149.2310  158.9850  133.8700 O   0  0  0  0  0  0  0  0  0  0  0  0
  146.3600  160.1770  133.3520 C   0  0  0  0  0  0  0  0  0  0  0  0
  145.0190  159.8840  133.4740 C   0  0  0  0  0  0  0  0  0  0  0  0
  143.9400  160.7170  133.7540 C   0  0  0  0  0  0  0  0  0  0  0  0
  142.6670  160.1310  133.8660 C   0  0  0  0  0  0  0  0  0  0  0  0
  142.4980  158.7270  133.7250 C   0  0  0  0  0  0  0  0  0  0  0  0
  141.1260  158.1100  133.8230 C   0  0  0  0  0  0  0  0  0  0  0  0
  141.2120  156.7280  133.8820 F   0  0  0  0  0  0  0  0  0  0  0  0
  140.4970  158.5710  134.9660 F   0  0  0  0  0  0  0  0  0  0  0  0
  140.3600  158.4490  132.7190 F   0  0  0  0  0  0  0  0  0  0  0  0
  143.6190  157.9200  133.4180 C   0  0  0  0  0  0  0  0  0  0  0  0
  144.8660  158.5360  133.2920 C   0  0  0  0  0  0  0  0  0  0  0  0
  143.3270  154.4630  134.0230 C   0  0  0  0  0  0  0  0  0  0  0  0
  142.2770  153.5290  133.3910 C   0  0  0  0  0  0  0  0  0  0  0  0
  140.9830  148.7004  132.7666 H   0  0  0  0  0  0  0  0  0  0  0  0
  140.5739  149.5509  131.2382 H   0  0  0  0  0  0  0  0  0  0  0  0
  141.8122  148.2496  131.2382 H   0  0  0  0  0  0  0  0  0  0  0  0
  142.7200  152.6080  131.5860 H   0  0  0  0  0  0  0  0  0  0  0  0
  144.5041  151.9893  133.8713 H   0  0  0  0  0  0  0  0  0  0  0  0
  144.6582  151.3825  132.1773 H   0  0  0  0  0  0  0  0  0  0  0  0
  146.1278  153.3838  132.7683 H   0  0  0  0  0  0  0  0  0  0  0  0
  145.0382  153.5814  131.3257 H   0  0  0  0  0  0  0  0  0  0  0  0
  144.0400  155.3311  132.2038 H   0  0  0  0  0  0  0  0  0  0  0  0
  144.8864  155.9076  135.6741 H   0  0  0  0  0  0  0  0  0  0  0  0
  145.8594  154.4229  135.3993 H   0  0  0  0  0  0  0  0  0  0  0  0
  146.6572  156.0322  135.3993 H   0  0  0  0  0  0  0  0  0  0  0  0
  148.6750  157.4560  131.2350 H   0  0  0  0  0  0  0  0  0  0  0  0
  146.8383  161.1639  133.4368 H   0  0  0  0  0  0  0  0  0  0  0  0
  144.0788  161.8005  133.8837 H   0  0  0  0  0  0  0  0  0  0  0  0
  141.7916  160.7666  134.0651 H   0  0  0  0  0  0  0  0  0  0  0  0
  143.5109  156.8338  133.2819 H   0  0  0  0  0  0  0  0  0  0  0  0
  143.7414  153.9805  134.9205 H   0  0  0  0  0  0  0  0  0  0  0  0
  142.8351  155.4121  134.2824 H   0  0  0  0  0  0  0  0  0  0  0  0
  141.6605  153.1053  134.1975 H   0  0  0  0  0  0  0  0  0  0  0  0
  141.6915  154.1380  132.6865 H   0  0  0  0  0  0  0  0  0  0  0  0
  1  2  1  0
  2  3  1  0
  3  4  2  0
  3  5  1  0
  5  6  1  0
  6  7  1  0
  7  8  1  0
  8  9  1  0
  9 10  1  0
  9 11  1  0
 11 12  2  0
 11 13  1  0
 13 14  1  0
 14 15  1  0
 15 16  1  0
 15 17  2  0
 14 18  2  0
 18 19  1  0
 19 20  2  0
 20 21  1  0
 21 22  2  0
 22 23  1  0
 23 24  1  0
 23 25  1  0
 23 26  1  0
 22 27  1  0
 27 28  2  0
  8 29  1  0
 29 30  1  0
 30  5  1  0
 28 13  1  0
 28 19  1  0
  1 31  1  0
  1 32  1  0
  1 33  1  0
  5 34  1  6
  6 35  1  0
  6 36  1  0
  7 37  1  0
  7 38  1  0
  8 39  1  6
 10 40  1  0
 10 41  1  0
 10 42  1  0
 16 43  1  0
 18 44  1  0
 20 45  1  0
 21 46  1  0
 27 47  1  0
 29 48  1  0
 29 49  1  0
 30 50  1  0
 30 51  1  0
M  CHG  2   5   1  16  -1
M  END
>  <UniqueID>  (89) 
88

>  <SMILES>  (89) 
COC(=O)[NH+]1CCC(N(C)C(=O)n2c(C([NH-])=O)cc3ccc(C(F)(F)F)cc32)CC1

>  <Energy>  (89) 
98.45462523503645

>  <Genealogy>  (89) 
COC(=O)[NH+]1CCC(N(C)C(=O)n2c(C([NH-])=O)cc3ccc(C(F)(F)F)cc32)CC1 (protonated)
COC(=O)[NH+]1CCC(N(C)C(=O)n2c(C([NH-])=O)cc3ccc(C(F)(F)F)cc32)CC1 (3D coordinates assigned)
COC(=O)[NH+]1CCC(N(C)C(=O)n2c(C([NH-])=O)cc3ccc(C(F)(F)F)cc32)CC1 (nonaromatic ring conformer: 98.45462523503645 kcal/mol)

>  <smiles>  (89) 
COC(=O)N1CCC(N(C)C(=O)n2c(C(N)=O)cc3ccc(C(F)(F)F)cc32)CC1

>  <score_type>  (89) 
oracle

>  <origin>  (89) 
adg

>  <m_score__min__energy>  (89) 
-7.0099999999999998

>  <m_primary>  (89) 
energy

$$$$
90:0
     RDKit          3D

 41 42  0  0  0  0  0  0  0  0999 V2000
  148.5370  151.8440  137.7300 C   0  0  0  0  0  0  0  0  0  0  0  0
  148.3590  153.3010  137.7270 N   0  0  0  0  0  0  0  0  0  0  0  0
  149.1740  154.1230  138.6320 C   0  0  0  0  0  0  0  0  0  0  0  0
  148.5450  154.1920  139.9890 C   0  0  0  0  0  0  0  0  0  0  0  0
  147.3290  154.5020  140.1090 O   0  0  0  0  0  0  0  0  0  0  0  0
  149.2840  153.8610  141.1190 O   0  0  0  0  0  0  0  0  0  0  0  0
  147.3910  153.8740  136.8200 C   0  0  0  0  0  0  0  0  0  0  0  0
  146.2460  153.3520  136.7280 O   0  0  0  0  0  0  0  0  0  0  0  0
  147.7180  155.0450  135.9300 C   0  0  0  0  0  0  0  0  0  0  0  0
  147.5090  154.7200  134.5150 N   0  0  0  0  0  0  0  0  0  0  0  0
  148.4920  154.0640  133.8520 O   0  0  0  0  0  0  0  0  0  0  0  0
  146.2270  154.8780  133.8830 C   0  0  0  0  0  0  0  0  0  0  0  0
  145.6310  153.8770  133.4010 O   0  0  0  0  0  0  0  0  0  0  0  0
  145.6190  156.1760  133.7820 N   0  0  0  0  0  0  0  0  0  0  0  0
  144.3930  156.5590  134.2390 C   0  0  0  0  0  0  0  0  0  0  0  0
  143.3760  155.6680  134.8400 C   0  0  0  0  0  0  0  0  0  0  0  0
  143.7850  154.5180  135.5790 N   0  0  0  0  0  0  0  0  0  0  0  0
  142.1480  155.9190  134.7220 O   0  0  0  0  0  0  0  0  0  0  0  0
  144.1940  157.9200  134.0220 C   0  0  0  0  0  0  0  0  0  0  0  0
  145.3480  158.3670  133.4180 C   0  0  0  0  0  0  0  0  0  0  0  0
  145.7100  159.6470  133.0140 C   0  0  0  0  0  0  0  0  0  0  0  0
  146.9870  159.8260  132.4560 C   0  0  0  0  0  0  0  0  0  0  0  0
  147.8720  158.7260  132.2980 C   0  0  0  0  0  0  0  0  0  0  0  0
  149.2560  158.9250  131.7370 C   0  0  0  0  0  0  0  0  0  0  0  0
  150.0800  157.8840  132.1280 F   0  0  0  0  0  0  0  0  0  0  0  0
  149.2350  158.9630  130.3500 F   0  0  0  0  0  0  0  0  0  0  0  0
  149.7740  160.1170  132.2110 F   0  0  0  0  0  0  0  0  0  0  0  0
  147.4750  157.4460  132.7490 C   0  0  0  0  0  0  0  0  0  0  0  0
  146.1920  157.2950  133.2850 C   0  0  0  0  0  0  0  0  0  0  0  0
  148.5812  151.4821  138.7678 H   0  0  0  0  0  0  0  0  0  0  0  0
  147.6901  151.3701  137.2122 H   0  0  0  0  0  0  0  0  0  0  0  0
  149.4731  151.5879  137.2122 H   0  0  0  0  0  0  0  0  0  0  0  0
  150.1765  153.6788  138.7201 H   0  0  0  0  0  0  0  0  0  0  0  0
  149.2444  155.1409  138.2209 H   0  0  0  0  0  0  0  0  0  0  0  0
  147.0707  155.8920  136.2015 H   0  0  0  0  0  0  0  0  0  0  0  0
  148.7783  155.3009  136.0722 H   0  0  0  0  0  0  0  0  0  0  0  0
  144.6870  154.0360  135.3700 H   0  0  0  0  0  0  0  0  0  0  0  0
  143.3035  158.5126  134.2787 H   0  0  0  0  0  0  0  0  0  0  0  0
  145.0176  160.4941  133.1278 H   0  0  0  0  0  0  0  0  0  0  0  0
  147.3052  160.8297  132.1377 H   0  0  0  0  0  0  0  0  0  0  0  0
  148.1600  156.5881  132.6798 H   0  0  0  0  0  0  0  0  0  0  0  0
  1  2  1  0
  2  3  1  0
  3  4  1  0
  4  5  2  0
  4  6  1  0
  2  7  1  0
  7  8  2  0
  7  9  1  0
  9 10  1  0
 10 11  1  0
 10 12  1  0
 12 13  2  0
 12 14  1  0
 14 15  1  0
 15 16  1  0
 16 17  1  0
 16 18  2  0
 15 19  2  0
 19 20  1  0
 20 21  2  0
 21 22  1  0
 22 23  2  0
 23 24  1  0
 24 25  1  0
 24 26  1  0
 24 27  1  0
 23 28  1  0
 28 29  2  0
 29 14  1  0
 29 20  1  0
  1 30  1  0
  1 31  1  0
  1 32  1  0
  3 33  1  0
  3 34  1  0
  9 35  1  0
  9 36  1  0
 17 37  1  0
 19 38  1  0
 21 39  1  0
 22 40  1  0
 28 41  1  0
M  CHG  3   6  -1  11  -1  17  -1
M  END
>  <UniqueID>  (90) 
89

>  <SMILES>  (90) 
CN(CC(=O)[O-])C(=O)CN([O-])C(=O)n1c(C([NH-])=O)cc2ccc(C(F)(F)F)cc21

>  <Energy>  (90) 
77.75936762329984

>  <Genealogy>  (90) 
CN(CC(=O)[O-])C(=O)CN([O-])C(=O)n1c(C([NH-])=O)cc2ccc(C(F)(F)F)cc21 (protonated)
CN(CC(=O)[O-])C(=O)CN([O-])C(=O)n1c(C([NH-])=O)cc2ccc(C(F)(F)F)cc21 (3D coordinates assigned)
CN(CC(=O)[O-])C(=O)CN([O-])C(=O)n1c(C([NH-])=O)cc2ccc(C(F)(F)F)cc21 (optimized conformer: 77.75936762329984 kcal/mol)

>  <smiles>  (90) 
CN(CC(=O)O)C(=O)CN(O)C(=O)n1c(C(N)=O)cc2ccc(C(F)(F)F)cc21

>  <score_type>  (90) 
oracle

>  <origin>  (90) 
adg

>  <m_score__min__energy>  (90) 
-6.3600000000000003

>  <m_primary>  (90) 
energy

$$$$
91:0
     RDKit          3D

 42 43  0  0  0  0  0  0  0  0999 V2000
  144.8460  154.5050  135.9560 C   0  0  0  0  0  0  0  0  0  0  0  0
  146.2770  154.2870  135.4740 C   0  0  1  0  0  0  0  0  0  0  0  0
  146.8020  155.5440  134.9420 N   0  0  0  0  0  0  0  0  0  0  0  0
  147.5830  155.7370  133.7520 C   0  0  0  0  0  0  0  0  0  0  0  0
  148.6810  155.1270  133.6610 O   0  0  0  0  0  0  0  0  0  0  0  0
  147.1680  156.6160  132.6320 C   0  0  0  0  0  0  0  0  0  0  0  0
  146.9890  156.1510  131.4760 O   0  0  0  0  0  0  0  0  0  0  0  0
  146.9750  158.0210  132.8540 N   0  0  0  0  0  0  0  0  0  0  0  0
  147.8530  159.0290  132.5940 C   0  0  0  0  0  0  0  0  0  0  0  0
  149.2410  158.8610  132.1160 C   0  0  0  0  0  0  0  0  0  0  0  0
  149.7740  157.5520  131.9260 N   0  0  0  0  0  0  0  0  0  0  0  0
  149.9580  159.8640  131.8530 O   0  0  0  0  0  0  0  0  0  0  0  0
  147.2750  160.2630  132.8850 C   0  0  0  0  0  0  0  0  0  0  0  0
  146.0040  159.9730  133.3310 C   0  0  0  0  0  0  0  0  0  0  0  0
  144.9830  160.8230  133.7350 C   0  0  0  0  0  0  0  0  0  0  0  0
  143.7580  160.2490  134.1140 C   0  0  0  0  0  0  0  0  0  0  0  0
  143.5600  158.8370  134.0870 C   0  0  0  0  0  0  0  0  0  0  0  0
  142.1950  158.2570  134.4960 C   0  0  0  0  0  0  0  0  0  0  0  0
  141.1500  158.5280  133.3950 C   0  0  0  0  0  0  0  0  0  0  0  0
  142.3240  156.7420  134.7340 C   0  0  0  0  0  0  0  0  0  0  0  0
  141.6790  158.8630  135.7450 C   0  0  0  0  0  0  0  0  0  0  0  0
  141.2720  159.3340  136.7200 N   0  0  0  0  0  0  0  0  0  0  0  0
  144.6360  158.0140  133.6530 C   0  0  0  0  0  0  0  0  0  0  0  0
  145.8480  158.6150  133.3000 C   0  0  0  0  0  0  0  0  0  0  0  0
  147.1280  153.8000  136.6130 C   0  0  0  0  0  0  0  0  0  0  0  0
  146.9150  152.6710  137.1320 O   0  0  0  0  0  0  0  0  0  0  0  0
  148.1890  154.5720  137.0640 O   0  0  0  0  0  0  0  0  0  0  0  0
  144.8260  154.5081  137.0558 H   0  0  0  0  0  0  0  0  0  0  0  0
  144.4754  155.4700  135.5798 H   0  0  0  0  0  0  0  0  0  0  0  0
  144.2049  153.6942  135.5798 H   0  0  0  0  0  0  0  0  0  0  0  0
  146.2912  153.5272  134.6787 H   0  0  0  0  0  0  0  0  0  0  0  0
  149.1450  156.7230  131.8500 H   0  0  0  0  0  0  0  0  0  0  0  0
  147.7352  161.2567  132.7809 H   0  0  0  0  0  0  0  0  0  0  0  0
  145.1290  161.9130  133.7576 H   0  0  0  0  0  0  0  0  0  0  0  0
  142.9345  160.9022  134.4383 H   0  0  0  0  0  0  0  0  0  0  0  0
  140.1847  158.7783  133.8593 H   0  0  0  0  0  0  0  0  0  0  0  0
  141.4853  159.3689  132.7701 H   0  0  0  0  0  0  0  0  0  0  0  0
  141.0344  157.6301  132.7701 H   0  0  0  0  0  0  0  0  0  0  0  0
  142.3411  156.5409  135.8153 H   0  0  0  0  0  0  0  0  0  0  0  0
  141.4666  156.2250  134.2784 H   0  0  0  0  0  0  0  0  0  0  0  0
  143.2564  156.3774  134.2784 H   0  0  0  0  0  0  0  0  0  0  0  0
  144.5164  156.9220  133.5960 H   0  0  0  0  0  0  0  0  0  0  0  0
  1  2  1  0
  2  3  1  0
  3  4  1  0
  4  5  2  0
  4  6  1  0
  6  7  2  0
  6  8  1  0
  8  9  1  0
  9 10  1  0
 10 11  1  0
 10 12  2  0
  9 13  2  0
 13 14  1  0
 14 15  2  0
 15 16  1  0
 16 17  2  0
 17 18  1  0
 18 19  1  0
 18 20  1  0
 18 21  1  0
 21 22  3  0
 17 23  1  0
 23 24  2  0
  2 25  1  0
 25 26  2  0
 25 27  1  0
 24  8  1  0
 24 14  1  0
  1 28  1  0
  1 29  1  0
  1 30  1  0
  2 31  1  6
 11 32  1  0
 13 33  1  0
 15 34  1  0
 16 35  1  0
 19 36  1  0
 19 37  1  0
 19 38  1  0
 20 39  1  0
 20 40  1  0
 20 41  1  0
 23 42  1  0
M  CHG  3   3  -1  11  -1  27  -1
M  END
>  <UniqueID>  (91) 
90

>  <SMILES>  (91) 
C[C@@H]([N-]C(=O)C(=O)n1c(C([NH-])=O)cc2ccc(C(C)(C)C#N)cc21)C(=O)[O-]

>  <Energy>  (91) 
80.41406501003382

>  <Genealogy>  (91) 
CC([N-]C(=O)C(=O)n1c(C([NH-])=O)cc2ccc(C(C)(C)C#N)cc21)C(=O)[O-] (protonated)
C[C@@H]([N-]C(=O)C(=O)n1c(C([NH-])=O)cc2ccc(C(C)(C)C#N)cc21)C(=O)[O-] (chirality)
C[C@@H]([N-]C(=O)C(=O)n1c(C([NH-])=O)cc2ccc(C(C)(C)C#N)cc21)C(=O)[O-] (3D coordinates assigned)
C[C@@H]([N-]C(=O)C(=O)n1c(C([NH-])=O)cc2ccc(C(C)(C)C#N)cc21)C(=O)[O-] (optimized conformer: 80.41406501003382 kcal/mol)

>  <smiles>  (91) 
CC(NC(=O)C(=O)n1c(C(N)=O)cc2ccc(C(C)(C)C#N)cc21)C(=O)O

>  <score_type>  (91) 
oracle

>  <origin>  (91) 
adg

>  <m_score__min__energy>  (91) 
-7.9400000000000004

>  <m_primary>  (91) 
energy

$$$$
92:0
     RDKit          3D

 50 51  0  0  0  0  0  0  0  0999 V2000
  140.1960  148.8370  131.1870 C   0  0  0  0  0  0  0  0  0  0  0  0
  140.6160  149.6400  132.1670 C   0  0  0  0  0  0  0  0  0  0  0  0
  140.1840  151.0740  132.2420 C   0  0  0  0  0  0  0  0  0  0  0  0
  141.2310  151.8590  132.8030 O   0  0  0  0  0  0  0  0  0  0  0  0
  141.1130  153.2340  133.0220 C   0  0  0  0  0  0  0  0  0  0  0  0
  139.9950  153.8060  132.9110 O   0  0  0  0  0  0  0  0  0  0  0  0
  142.3350  154.0510  133.3500 C   0  0  0  0  0  0  0  0  0  0  0  0
  141.9930  155.4200  133.7940 N   0  0  1  0  0  0  0  0  0  0  0  0
  142.1020  155.5150  135.2300 C   0  0  0  0  0  0  0  0  0  0  0  0
  143.1600  155.1520  135.8190 O   0  0  0  0  0  0  0  0  0  0  0  0
  141.0120  155.9880  135.9730 O   0  0  0  0  0  0  0  0  0  0  0  0
  141.1510  156.7870  137.1460 C   0  0  0  0  0  0  0  0  0  0  0  0
  140.4080  158.0830  136.9970 C   0  0  0  0  0  0  0  0  0  0  0  0
  141.0380  159.2580  137.0700 C   0  0  0  0  0  0  0  0  0  0  0  0
  142.8380  156.4060  133.1500 C   0  0  0  0  0  0  0  0  0  0  0  0
  143.6090  156.0700  132.2090 O   0  0  0  0  0  0  0  0  0  0  0  0
  142.6960  157.8000  133.4740 N   0  0  0  0  0  0  0  0  0  0  0  0
  141.5470  158.5190  133.6030 C   0  0  0  0  0  0  0  0  0  0  0  0
  140.1830  157.9610  133.6370 C   0  0  0  0  0  0  0  0  0  0  0  0
  139.9170  156.6940  133.0370 N   0  0  0  0  0  0  0  0  0  0  0  0
  139.2390  158.6070  134.1610 O   0  0  0  0  0  0  0  0  0  0  0  0
  141.8350  159.8720  133.7700 C   0  0  0  0  0  0  0  0  0  0  0  0
  143.2090  159.9580  133.7440 C   0  0  0  0  0  0  0  0  0  0  0  0
  144.0390  161.0710  133.8350 C   0  0  0  0  0  0  0  0  0  0  0  0
  145.4270  160.8670  133.7250 C   0  0  0  0  0  0  0  0  0  0  0  0
  145.9500  159.5680  133.5120 C   0  0  0  0  0  0  0  0  0  0  0  0
  147.4310  159.3590  133.4150 C   0  0  0  0  0  0  0  0  0  0  0  0
  145.0770  158.4610  133.4450 C   0  0  0  0  0  0  0  0  0  0  0  0
  143.7040  158.6930  133.5670 C   0  0  0  0  0  0  0  0  0  0  0  0
  140.5277  147.7887  131.1547 H   0  0  0  0  0  0  0  0  0  0  0  0
  139.5182  149.2236  130.4117 H   0  0  0  0  0  0  0  0  0  0  0  0
  141.2937  149.2412  132.9363 H   0  0  0  0  0  0  0  0  0  0  0  0
  139.9533  151.4403  131.2308 H   0  0  0  0  0  0  0  0  0  0  0  0
  139.2882  151.1532  132.8754 H   0  0  0  0  0  0  0  0  0  0  0  0
  142.8919  153.5473  134.1538 H   0  0  0  0  0  0  0  0  0  0  0  0
  142.9389  154.1354  132.4345 H   0  0  0  0  0  0  0  0  0  0  0  0
  140.9940  155.6090  133.5430 H   0  0  0  0  0  0  0  0  0  0  0  0
  140.7467  156.2361  138.0080 H   0  0  0  0  0  0  0  0  0  0  0  0
  142.2178  157.0068  137.2995 H   0  0  0  0  0  0  0  0  0  0  0  0
  139.3218  158.0642  136.8240 H   0  0  0  0  0  0  0  0  0  0  0  0
  140.4711  160.1939  136.9576 H   0  0  0  0  0  0  0  0  0  0  0  0
  142.1239  159.2901  137.2426 H   0  0  0  0  0  0  0  0  0  0  0  0
  139.7820  155.8420  133.6240 H   0  0  0  0  0  0  0  0  0  0  0  0
  141.1174  160.6961  133.8959 H   0  0  0  0  0  0  0  0  0  0  0  0
  143.6236  162.0780  133.9880 H   0  0  0  0  0  0  0  0  0  0  0  0
  146.1119  161.7240  133.8052 H   0  0  0  0  0  0  0  0  0  0  0  0
  147.8598  159.2985  134.4262 H   0  0  0  0  0  0  0  0  0  0  0  0
  147.6346  158.4232  132.8738 H   0  0  0  0  0  0  0  0  0  0  0  0
  147.8856  160.2019  132.8738 H   0  0  0  0  0  0  0  0  0  0  0  0
  145.4668  157.4426  133.3006 H   0  0  0  0  0  0  0  0  0  0  0  0
  1  2  2  0
  2  3  1  0
  3  4  1  0
  4  5  1  0
  5  6  2  0
  5  7  1  0
  7  8  1  0
  8  9  1  0
  9 10  2  0
  9 11  1  0
 11 12  1  0
 12 13  1  0
 13 14  2  0
  8 15  1  0
 15 16  2  0
 15 17  1  0
 17 18  1  0
 18 19  1  0
 19 20  1  0
 19 21  2  0
 18 22  2  0
 22 23  1  0
 23 24  2  0
 24 25  1  0
 25 26  2  0
 26 27  1  0
 26 28  1  0
 28 29  2  0
 29 17  1  0
 29 23  1  0
  1 30  1  0
  1 31  1  0
  2 32  1  0
  3 33  1  0
  3 34  1  0
  7 35  1  0
  7 36  1  0
  8 37  1  1
 12 38  1  0
 12 39  1  0
 13 40  1  0
 14 41  1  0
 14 42  1  0
 20 43  1  0
 22 44  1  0
 24 45  1  0
 25 46  1  0
 27 47  1  0
 27 48  1  0
 27 49  1  0
 28 50  1  0
M  CHG  2   8   1  20  -1
M  END
>  <UniqueID>  (92) 
91

>  <SMILES>  (92) 
C=CCOC(=O)C[NH+](C(=O)OCC=C)C(=O)n1c(C([NH-])=O)cc2ccc(C)cc21

>  <Energy>  (92) 
77.8993590234042

>  <Genealogy>  (92) 
C=CCOC(=O)C[NH+](C(=O)OCC=C)C(=O)n1c(C([NH-])=O)cc2ccc(C)cc21 (protonated)
C=CCOC(=O)C[NH+](C(=O)OCC=C)C(=O)n1c(C([NH-])=O)cc2ccc(C)cc21 (3D coordinates assigned)
C=CCOC(=O)C[NH+](C(=O)OCC=C)C(=O)n1c(C([NH-])=O)cc2ccc(C)cc21 (optimized conformer: 77.8993590234042 kcal/mol)

>  <smiles>  (92) 
C=CCOC(=O)CN(C(=O)OCC=C)C(=O)n1c(C(N)=O)cc2ccc(C)cc21

>  <score_type>  (92) 
oracle

>  <origin>  (92) 
adg

>  <m_score__min__energy>  (92) 
-6.0599999999999996

>  <m_primary>  (92) 
energy

$$$$
93:0
     RDKit          3D

 33 34  0  0  0  0  0  0  0  0999 V2000
  142.5580  161.0480  133.7310 N   0  0  0  0  0  0  0  0  0  0  0  0
  143.9540  161.3370  133.7110 C   0  0  0  0  0  0  0  0  0  0  0  0
  144.3350  162.5380  133.7320 O   0  0  0  0  0  0  0  0  0  0  0  0
  144.9530  160.2540  133.6120 C   0  0  0  0  0  0  0  0  0  0  0  0
  146.3060  160.4770  133.3660 C   0  0  0  0  0  0  0  0  0  0  0  0
  146.8710  159.2270  133.2670 C   0  0  0  0  0  0  0  0  0  0  0  0
  148.1920  158.8570  133.0350 C   0  0  0  0  0  0  0  0  0  0  0  0
  148.4980  157.4870  133.0110 C   0  0  0  0  0  0  0  0  0  0  0  0
  147.4920  156.5130  133.2450 C   0  0  0  0  0  0  0  0  0  0  0  0
  147.8250  155.0450  133.1820 C   0  0  0  0  0  0  0  0  0  0  0  0
  146.7870  154.3680  132.5710 F   0  0  0  0  0  0  0  0  0  0  0  0
  148.9870  154.8380  132.4580 F   0  0  0  0  0  0  0  0  0  0  0  0
  148.0130  154.5300  134.4540 F   0  0  0  0  0  0  0  0  0  0  0  0
  146.1560  156.9300  133.4560 C   0  0  0  0  0  0  0  0  0  0  0  0
  145.8770  158.3010  133.4550 C   0  0  0  0  0  0  0  0  0  0  0  0
  144.6920  158.9170  133.6670 N   0  0  0  0  0  0  0  0  0  0  0  0
  143.4500  158.2790  134.0020 C   0  0  0  0  0  0  0  0  0  0  0  0
  143.1880  158.0040  135.2040 O   0  0  0  0  0  0  0  0  0  0  0  0
  142.5260  157.9940  132.9920 O   0  0  0  0  0  0  0  0  0  0  0  0
  141.6950  156.8350  133.0030 C   0  0  0  0  0  0  0  0  0  0  0  0
  140.3870  157.1530  132.5790 O   0  0  0  0  0  0  0  0  0  0  0  0
  140.0370  158.7720  132.9960 P   0  0  1  0  0  0  0  0  0  0  0  0
  140.6760  159.7140  131.9980 O   0  0  0  0  0  0  0  0  0  0  0  0
  138.3610  158.9900  132.9530 O   0  0  0  0  0  0  0  0  0  0  0  0
  140.5910  159.1260  134.5580 O   0  0  0  0  0  0  0  0  0  0  0  0
  142.2000  160.1060  133.4580 H   0  0  0  0  0  0  0  0  0  0  0  0
  146.8148  161.4476  133.2710 H   0  0  0  0  0  0  0  0  0  0  0  0
  148.9730  159.6149  132.8752 H   0  0  0  0  0  0  0  0  0  0  0  0
  149.5299  157.1643  132.8084 H   0  0  0  0  0  0  0  0  0  0  0  0
  145.3554  156.1930  133.6171 H   0  0  0  0  0  0  0  0  0  0  0  0
  142.1202  156.0798  132.3257 H   0  0  0  0  0  0  0  0  0  0  0  0
  141.6478  156.4443  134.0302 H   0  0  0  0  0  0  0  0  0  0  0  0
  141.5670  159.2610  134.4640 H   0  0  0  0  0  0  0  0  0  0  0  0
  1  2  1  0
  2  3  2  0
  2  4  1  0
  4  5  2  0
  5  6  1  0
  6  7  2  0
  7  8  1  0
  8  9  2  0
  9 10  1  0
 10 11  1  0
 10 12  1  0
 10 13  1  0
  9 14  1  0
 14 15  2  0
 15 16  1  0
 16 17  1  0
 17 18  2  0
 17 19  1  0
 19 20  1  0
 20 21  1  0
 21 22  1  0
 22 23  2  0
 22 24  1  1
 22 25  1  0
 16  4  1  0
 15  6  1  0
  1 26  1  0
  5 27  1  0
  7 28  1  0
  8 29  1  0
 14 30  1  0
 20 31  1  0
 20 32  1  0
 25 33  1  0
M  CHG  2   1  -1  24  -1
M  END
>  <UniqueID>  (93) 
92

>  <SMILES>  (93) 
[NH-]C(=O)c1cc2ccc(C(F)(F)F)cc2n1C(=O)OCO[P@@](=O)([O-])O

>  <Energy>  (93) 
70.38352576848564

>  <Genealogy>  (93) 
[NH-]C(=O)c1cc2ccc(C(F)(F)F)cc2n1C(=O)OCOP(=O)([O-])O (protonated)
[NH-]C(=O)c1cc2ccc(C(F)(F)F)cc2n1C(=O)OCO[P@@](=O)([O-])O (chirality)
[NH-]C(=O)c1cc2ccc(C(F)(F)F)cc2n1C(=O)OCO[P@@](=O)([O-])O (3D coordinates assigned)
[NH-]C(=O)c1cc2ccc(C(F)(F)F)cc2n1C(=O)OCO[P@@](=O)([O-])O (optimized conformer: 70.38352576848564 kcal/mol)

>  <smiles>  (93) 
NC(=O)c1cc2ccc(C(F)(F)F)cc2n1C(=O)OCOP(=O)(O)O

>  <score_type>  (93) 
oracle

>  <origin>  (93) 
adg

>  <m_score__min__energy>  (93) 
-4.9800000000000004

>  <m_primary>  (93) 
energy

$$$$
94:0
     RDKit          3D

 39 41  0  0  0  0  0  0  0  0999 V2000
  149.2830  159.4510  130.4790 C   0  0  0  0  0  0  0  0  0  0  0  0
  148.8410  160.5440  131.0990 C   0  0  0  0  0  0  0  0  0  0  0  0
  147.8970  160.5100  132.1380 O   0  0  0  0  0  0  0  0  0  0  0  0
  147.8150  159.5250  133.1310 C   0  0  0  0  0  0  0  0  0  0  0  0
  148.8450  159.1570  133.7590 O   0  0  0  0  0  0  0  0  0  0  0  0
  146.5590  158.8740  133.3800 N   0  0  0  0  0  0  0  0  0  0  0  0
  145.3510  159.4630  133.6090 C   0  0  0  0  0  0  0  0  0  0  0  0
  145.1150  160.9060  133.8210 C   0  0  0  0  0  0  0  0  0  0  0  0
  146.1950  161.7910  134.1090 N   0  0  0  0  0  0  0  0  0  0  0  0
  143.9390  161.3560  133.7940 O   0  0  0  0  0  0  0  0  0  0  0  0
  144.3480  158.5000  133.7020 C   0  0  0  0  0  0  0  0  0  0  0  0
  144.9850  157.2930  133.5290 C   0  0  0  0  0  0  0  0  0  0  0  0
  144.4680  156.0030  133.5160 C   0  0  0  0  0  0  0  0  0  0  0  0
  145.3530  154.9380  133.2840 C   0  0  0  0  0  0  0  0  0  0  0  0
  146.7380  155.1730  133.0620 C   0  0  0  0  0  0  0  0  0  0  0  0
  147.6400  154.0690  132.8120 N   0  0  0  0  0  0  0  0  0  0  0  0
  149.0820  154.2130  132.6740 C   0  0  0  0  0  0  0  0  0  0  0  0
  149.6380  152.7980  132.6110 C   0  0  0  0  0  0  0  0  0  0  0  0
  148.4520  151.9100  132.2370 C   0  0  1  0  0  0  0  0  0  0  0  0
  148.5170  150.6670  132.8850 O   0  0  0  0  0  0  0  0  0  0  0  0
  147.2130  152.6840  132.6780 C   0  0  0  0  0  0  0  0  0  0  0  0
  147.2210  156.5050  133.0840 C   0  0  0  0  0  0  0  0  0  0  0  0
  146.3180  157.5450  133.3360 C   0  0  0  0  0  0  0  0  0  0  0  0
  150.0240  159.5388  129.6708 H   0  0  0  0  0  0  0  0  0  0  0  0
  148.9070  158.4606  130.7752 H   0  0  0  0  0  0  0  0  0  0  0  0
  149.2347  161.5209  130.7816 H   0  0  0  0  0  0  0  0  0  0  0  0
  146.9270  161.9960  133.3940 H   0  0  0  0  0  0  0  0  0  0  0  0
  143.2752  158.6690  133.8766 H   0  0  0  0  0  0  0  0  0  0  0  0
  143.3960  155.8216  133.6827 H   0  0  0  0  0  0  0  0  0  0  0  0
  144.9696  153.9070  133.2738 H   0  0  0  0  0  0  0  0  0  0  0  0
  149.3253  154.7612  131.7519 H   0  0  0  0  0  0  0  0  0  0  0  0
  149.5135  154.7796  133.5123 H   0  0  0  0  0  0  0  0  0  0  0  0
  150.4264  152.7284  131.8471 H   0  0  0  0  0  0  0  0  0  0  0  0
  150.0902  152.4941  133.5666 H   0  0  0  0  0  0  0  0  0  0  0  0
  148.4406  151.6907  131.1591 H   0  0  0  0  0  0  0  0  0  0  0  0
  147.9550  150.7460  133.6990 H   0  0  0  0  0  0  0  0  0  0  0  0
  146.4186  152.5991  131.9218 H   0  0  0  0  0  0  0  0  0  0  0  0
  146.8044  152.2924  133.6212 H   0  0  0  0  0  0  0  0  0  0  0  0
  148.2855  156.7180  132.9064 H   0  0  0  0  0  0  0  0  0  0  0  0
  1  2  2  0
  2  3  1  0
  3  4  1  0
  4  5  2  0
  4  6  1  0
  6  7  1  0
  7  8  1  0
  8  9  1  0
  8 10  2  0
  7 11  2  0
 11 12  1  0
 12 13  2  0
 13 14  1  0
 14 15  2  0
 15 16  1  0
 16 17  1  0
 17 18  1  0
 18 19  1  0
 19 20  1  0
 19 21  1  0
 15 22  1  0
 22 23  2  0
 23  6  1  0
 23 12  1  0
 21 16  1  0
  1 24  1  0
  1 25  1  0
  2 26  1  0
  9 27  1  0
 11 28  1  0
 13 29  1  0
 14 30  1  0
 17 31  1  0
 17 32  1  0
 18 33  1  0
 18 34  1  0
 19 35  1  6
 20 36  1  0
 21 37  1  0
 21 38  1  0
 22 39  1  0
M  CHG  1   9  -1
M  END
>  <UniqueID>  (94) 
93

>  <SMILES>  (94) 
C=COC(=O)n1c(C([NH-])=O)cc2ccc(N3CC[C@@H](O)C3)cc21

>  <Energy>  (94) 
84.78593230459292

>  <Genealogy>  (94) 
C=COC(=O)n1c(C([NH-])=O)cc2ccc(N3CC[C@@H](O)C3)cc21 (protonated)
C=COC(=O)n1c(C([NH-])=O)cc2ccc(N3CC[C@@H](O)C3)cc21 (3D coordinates assigned)
C=COC(=O)n1c(C([NH-])=O)cc2ccc(N3CC[C@@H](O)C3)cc21 (nonaromatic ring conformer: 84.78593230459292 kcal/mol)

>  <smiles>  (94) 
C=COC(=O)n1c(C(N)=O)cc2ccc(N3CC[C@@H](O)C3)cc21

>  <score_type>  (94) 
oracle

>  <origin>  (94) 
adg

>  <m_score__min__energy>  (94) 
-6.9900000000000002

>  <m_primary>  (94) 
energy

$$$$
95:0
     RDKit          3D

 42 43  0  0  0  0  0  0  0  0999 V2000
  138.4010  160.4640  130.4940 C   0  0  0  0  0  0  0  0  0  0  0  0
  138.2530  159.4920  131.5250 O   0  0  0  0  0  0  0  0  0  0  0  0
  139.3290  158.7560  132.0240 C   0  0  0  0  0  0  0  0  0  0  0  0
  140.5130  159.1790  131.8940 O   0  0  0  0  0  0  0  0  0  0  0  0
  139.0730  157.4700  132.7430 C   0  0  0  0  0  0  0  0  0  0  0  0
  140.3310  156.8670  133.1770 N   0  0  0  0  0  0  0  0  0  0  0  0
  140.4980  155.4560  133.3490 C   0  0  0  0  0  0  0  0  0  0  0  0
  139.5310  154.6690  133.1460 O   0  0  0  0  0  0  0  0  0  0  0  0
  141.7460  154.9610  133.7370 O   0  0  0  0  0  0  0  0  0  0  0  0
  142.9420  155.2180  133.0120 C   0  0  0  0  0  0  0  0  0  0  0  0
  143.0800  156.6190  132.7950 O   0  0  0  0  0  0  0  0  0  0  0  0
  143.2230  157.5340  133.8420 C   0  0  0  0  0  0  0  0  0  0  0  0
  142.6350  157.3380  134.9410 O   0  0  0  0  0  0  0  0  0  0  0  0
  144.0320  158.7080  133.6600 N   0  0  0  0  0  0  0  0  0  0  0  0
  143.6380  160.0110  133.7570 C   0  0  0  0  0  0  0  0  0  0  0  0
  142.2500  160.4820  133.9250 C   0  0  0  0  0  0  0  0  0  0  0  0
  141.2410  159.5730  134.3610 N   0  0  0  0  0  0  0  0  0  0  0  0
  141.9510  161.6900  133.7310 O   0  0  0  0  0  0  0  0  0  0  0  0
  144.7260  160.8670  133.6080 C   0  0  0  0  0  0  0  0  0  0  0  0
  145.8110  160.0440  133.4080 C   0  0  0  0  0  0  0  0  0  0  0  0
  147.1500  160.3640  133.2040 C   0  0  0  0  0  0  0  0  0  0  0  0
  148.0640  159.3080  133.0500 C   0  0  0  0  0  0  0  0  0  0  0  0
  147.6290  157.9630  133.1250 C   0  0  0  0  0  0  0  0  0  0  0  0
  148.6130  156.8430  132.9520 C   0  0  0  0  0  0  0  0  0  0  0  0
  146.2590  157.6760  133.3140 C   0  0  0  0  0  0  0  0  0  0  0  0
  145.3670  158.7470  133.4460 C   0  0  0  0  0  0  0  0  0  0  0  0
  138.5521  161.4561  130.9444 H   0  0  0  0  0  0  0  0  0  0  0  0
  139.2705  160.2080  129.8708 H   0  0  0  0  0  0  0  0  0  0  0  0
  137.4947  160.4784  129.8708 H   0  0  0  0  0  0  0  0  0  0  0  0
  138.4432  157.6666  133.6232 H   0  0  0  0  0  0  0  0  0  0  0  0
  138.5630  156.7756  132.0591 H   0  0  0  0  0  0  0  0  0  0  0  0
  141.1440  157.4920  133.3780 H   0  0  0  0  0  0  0  0  0  0  0  0
  143.8045  154.8504  133.5873 H   0  0  0  0  0  0  0  0  0  0  0  0
  142.8980  154.7016  132.0417 H   0  0  0  0  0  0  0  0  0  0  0  0
  141.1540  158.6260  133.9370 H   0  0  0  0  0  0  0  0  0  0  0  0
  144.7198  161.9664  133.6427 H   0  0  0  0  0  0  0  0  0  0  0  0
  147.4826  161.4118  133.1645 H   0  0  0  0  0  0  0  0  0  0  0  0
  149.1265  159.5283  132.8697 H   0  0  0  0  0  0  0  0  0  0  0  0
  148.9323  156.4796  133.9399 H   0  0  0  0  0  0  0  0  0  0  0  0
  148.1392  156.0215  132.3946 H   0  0  0  0  0  0  0  0  0  0  0  0
  149.4887  157.2071  132.3946 H   0  0  0  0  0  0  0  0  0  0  0  0
  145.9017  156.6365  133.3564 H   0  0  0  0  0  0  0  0  0  0  0  0
  1  2  1  0
  2  3  1  0
  3  4  2  0
  3  5  1  0
  5  6  1  0
  6  7  1  0
  7  8  2  0
  7  9  1  0
  9 10  1  0
 10 11  1  0
 11 12  1  0
 12 13  2  0
 12 14  1  0
 14 15  1  0
 15 16  1  0
 16 17  1  0
 16 18  2  0
 15 19  2  0
 19 20  1  0
 20 21  2  0
 21 22  1  0
 22 23  2  0
 23 24  1  0
 23 25  1  0
 25 26  2  0
 26 14  1  0
 26 20  1  0
  1 27  1  0
  1 28  1  0
  1 29  1  0
  5 30  1  0
  5 31  1  0
  6 32  1  0
 10 33  1  0
 10 34  1  0
 17 35  1  0
 19 36  1  0
 21 37  1  0
 22 38  1  0
 24 39  1  0
 24 40  1  0
 24 41  1  0
 25 42  1  0
M  CHG  1  17  -1
M  END
>  <UniqueID>  (95) 
94

>  <SMILES>  (95) 
COC(=O)CNC(=O)OCOC(=O)n1c(C([NH-])=O)cc2ccc(C)cc21

>  <Energy>  (95) 
71.09858990285981

>  <Genealogy>  (95) 
COC(=O)CNC(=O)OCOC(=O)n1c(C([NH-])=O)cc2ccc(C)cc21 (protonated)
COC(=O)CNC(=O)OCOC(=O)n1c(C([NH-])=O)cc2ccc(C)cc21 (3D coordinates assigned)
COC(=O)CNC(=O)OCOC(=O)n1c(C([NH-])=O)cc2ccc(C)cc21 (optimized conformer: 71.09858990285981 kcal/mol)

>  <smiles>  (95) 
COC(=O)CNC(=O)OCOC(=O)n1c(C(N)=O)cc2ccc(C)cc21

>  <score_type>  (95) 
oracle

>  <origin>  (95) 
adg

>  <m_score__min__energy>  (95) 
-5.9500000000000002

>  <m_primary>  (95) 
energy

$$$$
96:0
     RDKit          3D

 60 63  0  0  0  0  0  0  0  0999 V2000
  147.5310  153.3590  133.7740 N   0  0  0  0  0  0  0  0  0  0  0  0
  148.3470  154.3080  133.0900 C   0  0  0  0  0  0  0  0  0  0  0  0
  149.3750  153.9170  132.4770 O   0  0  0  0  0  0  0  0  0  0  0  0
  148.0660  155.7440  133.1940 C   0  0  0  0  0  0  0  0  0  0  0  0
  148.9040  156.6790  132.6000 C   0  0  0  0  0  0  0  0  0  0  0  0
  148.2950  157.8890  132.7960 C   0  0  0  0  0  0  0  0  0  0  0  0
  148.6860  159.1500  132.3640 C   0  0  0  0  0  0  0  0  0  0  0  0
  147.8580  160.2420  132.6750 C   0  0  0  0  0  0  0  0  0  0  0  0
  146.6560  160.0490  133.4000 C   0  0  0  0  0  0  0  0  0  0  0  0
  145.7700  161.2200  133.7170 C   0  0  0  0  0  0  0  0  0  0  0  0
  146.5380  162.2760  134.1650 F   0  0  0  0  0  0  0  0  0  0  0  0
  144.8540  160.8810  134.6940 F   0  0  0  0  0  0  0  0  0  0  0  0
  146.3040  158.7540  133.8400 C   0  0  0  0  0  0  0  0  0  0  0  0
  147.1350  157.6690  133.5030 C   0  0  0  0  0  0  0  0  0  0  0  0
  146.9610  156.3400  133.7510 N   0  0  0  0  0  0  0  0  0  0  0  0
  145.8030  155.7180  134.3810 C   0  0  0  0  0  0  0  0  0  0  0  0
  145.9710  154.9100  135.3340 O   0  0  0  0  0  0  0  0  0  0  0  0
  144.3800  155.9930  133.9800 C   0  0  0  0  0  0  0  0  0  0  0  0
  143.5710  154.6900  133.7770 C   0  0  0  0  0  0  0  0  0  0  0  0
  144.3960  153.6690  132.9700 C   0  0  0  0  0  0  0  0  0  0  0  0
  143.5920  152.3880  132.6600 C   0  0  0  0  0  0  0  0  0  0  0  0
  142.4170  152.2700  133.5370 N   0  0  0  0  0  0  0  0  0  0  0  0
  141.1080  152.0360  132.9840 C   0  0  0  0  0  0  0  0  0  0  0  0
  140.0180  153.2640  132.9830 S   0  0  0  0  0  0  0  0  0  0  0  0
  140.7470  150.7330  132.4830 N   0  0  0  0  0  0  0  0  0  0  0  0
  141.4210  149.5370  133.0080 C   0  0  0  0  0  0  0  0  0  0  0  0
  140.9950  148.2950  132.2280 C   0  0  0  0  0  0  0  0  0  0  0  0
  139.5860  148.2280  132.1660 O   0  0  0  0  0  0  0  0  0  0  0  0
  139.0200  149.2900  131.4090 C   0  0  2  0  0  0  0  0  0  0  0  0
  138.6030  148.7740  130.0640 C   0  0  0  0  0  0  0  0  0  0  0  0
  138.2670  149.5720  129.1440 O   0  0  0  0  0  0  0  0  0  0  0  0
  138.7420  147.4250  129.7750 O   0  0  0  0  0  0  0  0  0  0  0  0
  139.8850  150.5840  131.3010 C   0  0  0  0  0  0  0  0  0  0  0  0
  142.5660  152.6240  134.9550 C   0  0  0  0  0  0  0  0  0  0  0  0
  143.1120  154.0620  135.1190 C   0  0  0  0  0  0  0  0  0  0  0  0
  147.7780  152.3430  133.7400 H   0  0  0  0  0  0  0  0  0  0  0  0
  146.7030  153.6660  134.3350 H   0  0  0  0  0  0  0  0  0  0  0  0
  149.8553  156.4876  132.0820 H   0  0  0  0  0  0  0  0  0  0  0  0
  149.6169  159.2897  131.7949 H   0  0  0  0  0  0  0  0  0  0  0  0
  148.1451  161.2540  132.3533 H   0  0  0  0  0  0  0  0  0  0  0  0
  145.2317  161.5096  132.8025 H   0  0  0  0  0  0  0  0  0  0  0  0
  145.3939  158.5956  134.4372 H   0  0  0  0  0  0  0  0  0  0  0  0
  143.8984  156.5905  134.7681 H   0  0  0  0  0  0  0  0  0  0  0  0
  144.3962  156.5346  133.0227 H   0  0  0  0  0  0  0  0  0  0  0  0
  142.6642  154.9579  133.2148 H   0  0  0  0  0  0  0  0  0  0  0  0
  144.7042  154.1326  132.0213 H   0  0  0  0  0  0  0  0  0  0  0  0
  145.2681  153.3832  133.5764 H   0  0  0  0  0  0  0  0  0  0  0  0
  143.2561  152.4202  131.6130 H   0  0  0  0  0  0  0  0  0  0  0  0
  144.2433  151.5186  132.8328 H   0  0  0  0  0  0  0  0  0  0  0  0
  142.5096  149.6658  132.9164 H   0  0  0  0  0  0  0  0  0  0  0  0
  141.1412  149.4065  134.0638 H   0  0  0  0  0  0  0  0  0  0  0  0
  141.4032  148.3468  131.2079 H   0  0  0  0  0  0  0  0  0  0  0  0
  141.3788  147.3981  132.7362 H   0  0  0  0  0  0  0  0  0  0  0  0
  138.1404  149.6313  131.9745 H   0  0  0  0  0  0  0  0  0  0  0  0
  140.5140  150.5238  130.4006 H   0  0  0  0  0  0  0  0  0  0  0  0
  139.2143  151.4538  131.2404 H   0  0  0  0  0  0  0  0  0  0  0  0
  141.5846  152.5547  135.4470 H   0  0  0  0  0  0  0  0  0  0  0  0
  143.2809  151.9258  135.4147 H   0  0  0  0  0  0  0  0  0  0  0  0
  142.3188  154.6918  135.5481 H   0  0  0  0  0  0  0  0  0  0  0  0
  143.9923  154.0079  135.7764 H   0  0  0  0  0  0  0  0  0  0  0  0
  1  2  1  0
  2  3  2  0
  2  4  1  0
  4  5  2  0
  5  6  1  0
  6  7  2  0
  7  8  1  0
  8  9  2  0
  9 10  1  0
 10 11  1  0
 10 12  1  0
  9 13  1  0
 13 14  2  0
 14 15  1  0
 15 16  1  0
 16 17  2  0
 16 18  1  0
 18 19  1  0
 19 20  1  0
 20 21  1  0
 21 22  1  0
 22 23  1  0
 23 24  2  0
 23 25  1  0
 25 26  1  0
 26 27  1  0
 27 28  1  0
 28 29  1  0
 29 30  1  0
 30 31  2  0
 30 32  1  0
 29 33  1  0
 22 34  1  0
 34 35  1  0
 15  4  1  0
 35 19  1  0
 14  6  1  0
 33 25  1  0
  1 36  1  0
  1 37  1  0
  5 38  1  0
  7 39  1  0
  8 40  1  0
 10 41  1  0
 13 42  1  0
 18 43  1  0
 18 44  1  0
 19 45  1  0
 20 46  1  0
 20 47  1  0
 21 48  1  0
 21 49  1  0
 26 50  1  0
 26 51  1  0
 27 52  1  0
 27 53  1  0
 29 54  1  1
 33 55  1  0
 33 56  1  0
 34 57  1  0
 34 58  1  0
 35 59  1  0
 35 60  1  0
M  CHG  1  32  -1
M  END
>  <UniqueID>  (96) 
95

>  <SMILES>  (96) 
NC(=O)c1cc2ccc(C(F)F)cc2n1C(=O)CC1CCN(C(=S)N2CCO[C@H](C(=O)[O-])C2)CC1

>  <Energy>  (96) 
127.92733001530756

>  <Genealogy>  (96) 
NC(=O)c1cc2ccc(C(F)F)cc2n1C(=O)CC1CCN(C(=S)N2CCOC(C(=O)[O-])C2)CC1 (protonated)
NC(=O)c1cc2ccc(C(F)F)cc2n1C(=O)CC1CCN(C(=S)N2CCO[C@H](C(=O)[O-])C2)CC1 (chirality)
NC(=O)c1cc2ccc(C(F)F)cc2n1C(=O)CC1CCN(C(=S)N2CCO[C@H](C(=O)[O-])C2)CC1 (3D coordinates assigned)
NC(=O)c1cc2ccc(C(F)F)cc2n1C(=O)CC1CCN(C(=S)N2CCO[C@H](C(=O)[O-])C2)CC1 (nonaromatic ring conformer: 127.92733001530756 kcal/mol)

>  <smiles>  (96) 
NC(=O)c1cc2ccc(C(F)F)cc2n1C(=O)CC1CCN(C(=S)N2CCOC(C(=O)O)C2)CC1

>  <score_type>  (96) 
oracle

>  <origin>  (96) 
adg

>  <m_score__min__energy>  (96) 
-9.6400000000000006

>  <m_primary>  (96) 
energy

$$$$
97:0
     RDKit          3D

 55 56  0  0  0  0  0  0  0  0999 V2000
  148.8740  158.2300  132.9670 C   0  0  0  0  0  0  0  0  0  0  0  0
  147.4600  158.6820  133.1820 C   0  0  0  0  0  0  0  0  0  0  0  0
  147.1690  160.0550  133.3730 C   0  0  0  0  0  0  0  0  0  0  0  0
  145.8450  160.4860  133.5590 C   0  0  0  0  0  0  0  0  0  0  0  0
  144.8390  159.5240  133.5520 C   0  0  0  0  0  0  0  0  0  0  0  0
  143.4800  159.6640  133.7130 C   0  0  0  0  0  0  0  0  0  0  0  0
  142.9620  158.3740  133.6200 C   0  0  0  0  0  0  0  0  0  0  0  0
  141.5280  158.0540  133.7910 C   0  0  0  0  0  0  0  0  0  0  0  0
  140.7370  157.6040  132.6950 N   0  0  0  0  0  0  0  0  0  0  0  0
  140.9970  158.1600  134.9300 O   0  0  0  0  0  0  0  0  0  0  0  0
  143.9620  157.4710  133.4110 N   0  0  0  0  0  0  0  0  0  0  0  0
  143.8230  156.0560  133.2000 C   0  0  0  0  0  0  0  0  0  0  0  0
  144.5000  155.5070  132.2880 O   0  0  0  0  0  0  0  0  0  0  0  0
  142.9330  155.1980  134.0760 C   0  0  2  0  0  0  0  0  0  0  0  0
  141.5480  155.2890  133.5970 N   0  0  0  0  0  0  0  0  0  0  0  0
  143.0260  155.5930  135.5720 C   0  0  0  0  0  0  0  0  0  0  0  0
  143.2970  154.1330  136.6440 S   0  0  0  0  0  0  0  0  0  0  0  0
  144.9620  153.7380  136.0040 C   0  0  0  0  0  0  0  0  0  0  0  0
  145.8920  153.3690  137.1570 C   0  0  0  0  0  0  0  0  0  0  0  0
  147.2770  153.3360  136.7030 N   0  0  0  0  0  0  0  0  0  0  0  0
  147.7500  154.1270  135.6100 C   0  0  0  0  0  0  0  0  0  0  0  0
  147.5170  155.3640  135.6030 O   0  0  0  0  0  0  0  0  0  0  0  0
  148.4630  153.5130  134.5670 O   0  0  0  0  0  0  0  0  0  0  0  0
  148.1220  153.5260  133.1740 C   0  0  0  0  0  0  0  0  0  0  0  0
  148.3500  154.9590  132.6650 C   0  0  0  0  0  0  0  0  0  0  0  0
  149.0340  152.5690  132.3840 C   0  0  0  0  0  0  0  0  0  0  0  0
  146.6400  153.1550  132.9700 C   0  0  0  0  0  0  0  0  0  0  0  0
  145.1050  158.1920  133.3630 C   0  0  0  0  0  0  0  0  0  0  0  0
  146.4100  157.7400  133.1480 C   0  0  0  0  0  0  0  0  0  0  0  0
  149.3612  158.0742  133.9408 H   0  0  0  0  0  0  0  0  0  0  0  0
  148.8754  157.2866  132.4012 H   0  0  0  0  0  0  0  0  0  0  0  0
  149.4223  158.9976  132.4012 H   0  0  0  0  0  0  0  0  0  0  0  0
  147.9871  160.7903  133.3757 H   0  0  0  0  0  0  0  0  0  0  0  0
  145.6105  161.5507  133.7056 H   0  0  0  0  0  0  0  0  0  0  0  0
  142.9209  160.5965  133.8798 H   0  0  0  0  0  0  0  0  0  0  0  0
  141.0270  156.7800  132.1250 H   0  0  0  0  0  0  0  0  0  0  0  0
  143.2817  154.1572  134.0044 H   0  0  0  0  0  0  0  0  0  0  0  0
  141.0360  156.0150  134.1480 H   0  0  0  0  0  0  0  0  0  0  0  0
  141.5410  155.5820  132.5930 H   0  0  0  0  0  0  0  0  0  0  0  0
  143.8644  156.2927  135.7043 H   0  0  0  0  0  0  0  0  0  0  0  0
  142.0731  156.0592  135.8629 H   0  0  0  0  0  0  0  0  0  0  0  0
  144.8923  152.8900  135.3068 H   0  0  0  0  0  0  0  0  0  0  0  0
  145.3660  154.6183  135.4825 H   0  0  0  0  0  0  0  0  0  0  0  0
  145.7908  154.1166  137.9576 H   0  0  0  0  0  0  0  0  0  0  0  0
  145.6161  152.3727  137.5327 H   0  0  0  0  0  0  0  0  0  0  0  0
  148.4583  155.6397  133.5222 H   0  0  0  0  0  0  0  0  0  0  0  0
  149.2644  154.9901  132.0543 H   0  0  0  0  0  0  0  0  0  0  0  0
  147.4904  155.2723  132.0543 H   0  0  0  0  0  0  0  0  0  0  0  0
  149.6182  151.9560  133.0862 H   0  0  0  0  0  0  0  0  0  0  0  0
  148.4174  151.9141  131.7508 H   0  0  0  0  0  0  0  0  0  0  0  0
  149.7178  153.1533  131.7508 H   0  0  0  0  0  0  0  0  0  0  0  0
  146.1543  153.0334  133.9494 H   0  0  0  0  0  0  0  0  0  0  0  0
  146.1359  153.9547  132.4075 H   0  0  0  0  0  0  0  0  0  0  0  0
  146.5721  152.2121  132.4075 H   0  0  0  0  0  0  0  0  0  0  0  0
  146.6135  156.6760  132.9569 H   0  0  0  0  0  0  0  0  0  0  0  0
  1  2  1  0
  2  3  2  0
  3  4  1  0
  4  5  2  0
  5  6  1  0
  6  7  2  0
  7  8  1  0
  8  9  1  0
  8 10  2  0
  7 11  1  0
 11 12  1  0
 12 13  2  0
 12 14  1  0
 14 15  1  0
 14 16  1  0
 16 17  1  0
 17 18  1  0
 18 19  1  0
 19 20  1  0
 20 21  1  0
 21 22  2  0
 21 23  1  0
 23 24  1  0
 24 25  1  0
 24 26  1  0
 24 27  1  0
 11 28  1  0
 28 29  2  0
 29  2  1  0
 28  5  1  0
  1 30  1  0
  1 31  1  0
  1 32  1  0
  3 33  1  0
  4 34  1  0
  6 35  1  0
  9 36  1  0
 14 37  1  1
 15 38  1  0
 15 39  1  0
 16 40  1  0
 16 41  1  0
 18 42  1  0
 18 43  1  0
 19 44  1  0
 19 45  1  0
 25 46  1  0
 25 47  1  0
 25 48  1  0
 26 49  1  0
 26 50  1  0
 26 51  1  0
 27 52  1  0
 27 53  1  0
 27 54  1  0
 29 55  1  0
M  CHG  2   9  -1  20  -1
M  END
>  <UniqueID>  (97) 
96

>  <SMILES>  (97) 
Cc1ccc2cc(C([NH-])=O)n(C(=O)[C@H](N)CSCC[N-]C(=O)OC(C)(C)C)c2c1

>  <Energy>  (97) 
76.74253761864055

>  <Genealogy>  (97) 
Cc1ccc2cc(C([NH-])=O)n(C(=O)C(N)CSCC[N-]C(=O)OC(C)(C)C)c2c1 (protonated)
Cc1ccc2cc(C([NH-])=O)n(C(=O)[C@H](N)CSCC[N-]C(=O)OC(C)(C)C)c2c1 (chirality)
Cc1ccc2cc(C([NH-])=O)n(C(=O)[C@H](N)CSCC[N-]C(=O)OC(C)(C)C)c2c1 (3D coordinates assigned)
Cc1ccc2cc(C([NH-])=O)n(C(=O)[C@H](N)CSCC[N-]C(=O)OC(C)(C)C)c2c1 (optimized conformer: 76.74253761864055 kcal/mol)

>  <smiles>  (97) 
Cc1ccc2cc(C(N)=O)n(C(=O)C(N)CSCCNC(=O)OC(C)(C)C)c2c1

>  <score_type>  (97) 
oracle

>  <origin>  (97) 
adg

>  <m_score__min__energy>  (97) 
-7.9400000000000004

>  <m_primary>  (97) 
energy

$$$$
