0:0
     RDKit          3D

 37 39  0  0  0  0  0  0  0  0999 V2000
  140.3620  155.8800  133.1440 N   0  0  0  0  0  0  0  0  0  0  0  0
  141.2890  156.1230  134.1990 C   0  0  0  0  0  0  0  0  0  0  0  0
  141.2530  155.4010  135.2310 O   0  0  0  0  0  0  0  0  0  0  0  0
  142.2720  157.2220  134.0760 C   0  0  0  0  0  0  0  0  0  0  0  0
  143.4380  157.1390  133.3170 C   0  0  0  0  0  0  0  0  0  0  0  0
  144.0370  158.3730  133.4340 C   0  0  0  0  0  0  0  0  0  0  0  0
  145.2340  158.8430  132.9050 C   0  0  0  0  0  0  0  0  0  0  0  0
  145.6250  160.1550  133.2220 C   0  0  0  0  0  0  0  0  0  0  0  0
  144.8130  160.9740  134.0500 C   0  0  0  0  0  0  0  0  0  0  0  0
  145.2620  162.3610  134.4300 C   0  0  0  0  0  0  0  0  0  0  0  0
  146.5860  162.5250  134.0670 F   0  0  0  0  0  0  0  0  0  0  0  0
  144.4960  163.3210  133.7890 F   0  0  0  0  0  0  0  0  0  0  0  0
  145.1400  162.5520  135.7960 F   0  0  0  0  0  0  0  0  0  0  0  0
  143.6150  160.4480  134.5860 C   0  0  0  0  0  0  0  0  0  0  0  0
  143.2430  159.1480  134.2360 C   0  0  0  0  0  0  0  0  0  0  0  0
  142.1550  158.4580  134.6360 N   0  0  0  0  0  0  0  0  0  0  0  0
  141.1060  158.9340  135.4930 C   0  0  0  0  0  0  0  0  0  0  0  0
  141.3930  159.6540  136.4860 O   0  0  0  0  0  0  0  0  0  0  0  0
  139.6850  158.5090  135.2620 C   0  0  0  0  0  0  0  0  0  0  0  0
  139.3290  158.6350  133.8510 N   0  0  0  0  0  0  0  0  0  0  0  0
  139.8160  159.5270  132.9710 C   0  0  0  0  0  0  0  0  0  0  0  0
  139.1950  159.2540  131.7730 C   0  0  0  0  0  0  0  0  0  0  0  0
  139.4590  159.9150  130.4590 C   0  0  0  0  0  0  0  0  0  0  0  0
  138.3560  159.7540  129.6110 O   0  0  0  0  0  0  0  0  0  0  0  0
  138.3760  158.1970  131.9460 N   0  0  0  0  0  0  0  0  0  0  0  0
  138.4720  157.8460  133.2210 N   0  0  0  0  0  0  0  0  0  0  0  0
  139.7400  156.6430  132.7870 H   0  0  0  0  0  0  0  0  0  0  0  0
  143.8021  156.2721  132.7461 H   0  0  0  0  0  0  0  0  0  0  0  0
  145.8560  158.2070  132.2580 H   0  0  0  0  0  0  0  0  0  0  0  0
  146.5707  160.5519  132.8242 H   0  0  0  0  0  0  0  0  0  0  0  0
  142.9902  161.0489  135.2632 H   0  0  0  0  0  0  0  0  0  0  0  0
  139.5675  157.4600  135.5713 H   0  0  0  0  0  0  0  0  0  0  0  0
  139.0222  159.1587  135.8523 H   0  0  0  0  0  0  0  0  0  0  0  0
  140.5588  160.3141  133.1679 H   0  0  0  0  0  0  0  0  0  0  0  0
  139.6403  160.9878  130.6209 H   0  0  0  0  0  0  0  0  0  0  0  0
  140.3423  159.4531  129.9937 H   0  0  0  0  0  0  0  0  0  0  0  0
  137.8320  158.9920  129.9710 H   0  0  0  0  0  0  0  0  0  0  0  0
  1  2  1  0
  2  3  2  0
  2  4  1  0
  4  5  2  0
  5  6  1  0
  6  7  2  0
  7  8  1  0
  8  9  2  0
  9 10  1  0
 10 11  1  0
 10 12  1  0
 10 13  1  0
  9 14  1  0
 14 15  2  0
 15 16  1  0
 16 17  1  0
 17 18  2  0
 17 19  1  0
 19 20  1  0
 20 21  1  0
 21 22  2  0
 22 23  1  0
 23 24  1  0
 22 25  1  0
 25 26  2  0
 16  4  1  0
 26 20  1  0
 15  6  1  0
  1 27  1  0
  5 28  1  0
  7 29  1  0
  8 30  1  0
 14 31  1  0
 19 32  1  0
 19 33  1  0
 21 34  1  0
 23 35  1  0
 23 36  1  0
 24 37  1  0
M  CHG  1   1  -1
M  END
>  <UniqueID>  (1) 
1

>  <SMILES>  (1) 
[NH-]C(=O)c1cc2ccc(C(F)(F)F)cc2n1C(=O)Cn1cc(CO)nn1

>  <Energy>  (1) 
111.52997821104671

>  <Genealogy>  (1) 
[NH-]C(=O)c1cc2ccc(C(F)(F)F)cc2n1C(=O)Cn1cc(CO)nn1 (protonated)
[NH-]C(=O)c1cc2ccc(C(F)(F)F)cc2n1C(=O)Cn1cc(CO)nn1 (3D coordinates assigned)
[NH-]C(=O)c1cc2ccc(C(F)(F)F)cc2n1C(=O)Cn1cc(CO)nn1 (optimized conformer: 111.52997821104671 kcal/mol)

>  <smiles>  (1) 
NC(=O)c1cc2ccc(C(F)(F)F)cc2n1C(=O)Cn1cc(CO)nn1

>  <score_type>  (1) 
oracle

>  <origin>  (1) 
adg

>  <m_score__min__energy>  (1) 
-6.7000000000000002

>  <m_primary>  (1) 
energy

$$$$
1:0
     RDKit          3D

 43 44  0  0  0  0  0  0  0  0999 V2000
  139.9250  159.3710  133.3370 C   0  0  0  0  0  0  0  0  0  0  0  0
  140.7680  158.6450  134.3040 N   0  0  0  0  0  0  0  0  0  0  0  0
  140.5810  159.2220  135.6490 C   0  0  0  0  0  0  0  0  0  0  0  0
  140.4400  157.1950  134.2900 C   0  0  0  0  0  0  0  0  0  0  0  0
  141.2290  156.3940  135.3520 C   0  0  0  0  0  0  0  0  0  0  0  0
  142.7180  156.2610  135.0160 C   0  0  0  0  0  0  0  0  0  0  0  0
  143.2970  157.5470  134.8300 O   0  0  0  0  0  0  0  0  0  0  0  0
  143.7040  158.0290  133.5840 C   0  0  0  0  0  0  0  0  0  0  0  0
  143.0030  157.8120  132.5580 O   0  0  0  0  0  0  0  0  0  0  0  0
  144.9400  158.7560  133.4740 N   0  0  0  0  0  0  0  0  0  0  0  0
  145.1280  160.1070  133.5160 C   0  0  0  0  0  0  0  0  0  0  0  0
  144.0900  161.1230  133.7900 C   0  0  0  0  0  0  0  0  0  0  0  0
  142.7140  160.7510  133.7730 N   0  0  0  0  0  0  0  0  0  0  0  0
  144.4010  162.3250  133.9990 O   0  0  0  0  0  0  0  0  0  0  0  0
  146.4780  160.4160  133.3660 C   0  0  0  0  0  0  0  0  0  0  0  0
  147.1200  159.2060  133.2430 C   0  0  0  0  0  0  0  0  0  0  0  0
  148.4730  158.9220  133.0970 C   0  0  0  0  0  0  0  0  0  0  0  0
  148.8580  157.5740  133.0010 C   0  0  0  0  0  0  0  0  0  0  0  0
  147.8870  156.5390  133.0200 C   0  0  0  0  0  0  0  0  0  0  0  0
  148.3140  155.0940  132.9670 C   0  0  0  0  0  0  0  0  0  0  0  0
  148.4280  154.6080  134.2560 F   0  0  0  0  0  0  0  0  0  0  0  0
  147.3840  154.3330  132.2790 F   0  0  0  0  0  0  0  0  0  0  0  0
  149.5350  154.9680  132.3260 F   0  0  0  0  0  0  0  0  0  0  0  0
  146.5220  156.8700  133.1840 C   0  0  0  0  0  0  0  0  0  0  0  0
  146.1700  158.2190  133.3070 C   0  0  0  0  0  0  0  0  0  0  0  0
  139.1998  159.9956  133.8792 H   0  0  0  0  0  0  0  0  0  0  0  0
  140.5592  160.0102  132.7051 H   0  0  0  0  0  0  0  0  0  0  0  0
  139.3870  158.6491  132.7051 H   0  0  0  0  0  0  0  0  0  0  0  0
  141.7640  158.7950  134.0230 H   0  0  0  0  0  0  0  0  0  0  0  0
  140.8260  158.4660  136.4096 H   0  0  0  0  0  0  0  0  0  0  0  0
  141.2432  160.0920  135.7701 H   0  0  0  0  0  0  0  0  0  0  0  0
  139.5344  159.5381  135.7701 H   0  0  0  0  0  0  0  0  0  0  0  0
  139.3643  157.0757  134.4867 H   0  0  0  0  0  0  0  0  0  0  0  0
  140.7191  156.8009  133.3017 H   0  0  0  0  0  0  0  0  0  0  0  0
  141.1325  156.9061  136.3207 H   0  0  0  0  0  0  0  0  0  0  0  0
  140.8058  155.3791  135.3807 H   0  0  0  0  0  0  0  0  0  0  0  0
  143.2322  155.7471  135.8416 H   0  0  0  0  0  0  0  0  0  0  0  0
  142.8258  155.6814  134.0873 H   0  0  0  0  0  0  0  0  0  0  0  0
  142.4160  159.8050  133.4460 H   0  0  0  0  0  0  0  0  0  0  0  0
  146.9343  161.4168  133.3494 H   0  0  0  0  0  0  0  0  0  0  0  0
  149.2200  159.7285  133.0578 H   0  0  0  0  0  0  0  0  0  0  0  0
  149.9239  157.3180  132.9101 H   0  0  0  0  0  0  0  0  0  0  0  0
  145.7532  156.0839  133.2143 H   0  0  0  0  0  0  0  0  0  0  0  0
  1  2  1  0
  2  3  1  0
  2  4  1  0
  4  5  1  0
  5  6  1  0
  6  7  1  0
  7  8  1  0
  8  9  2  0
  8 10  1  0
 10 11  1  0
 11 12  1  0
 12 13  1  0
 12 14  2  0
 11 15  2  0
 15 16  1  0
 16 17  2  0
 17 18  1  0
 18 19  2  0
 19 20  1  0
 20 21  1  0
 20 22  1  0
 20 23  1  0
 19 24  1  0
 24 25  2  0
 25 10  1  0
 25 16  1  0
  1 26  1  0
  1 27  1  0
  1 28  1  0
  2 29  1  0
  3 30  1  0
  3 31  1  0
  3 32  1  0
  4 33  1  0
  4 34  1  0
  5 35  1  0
  5 36  1  0
  6 37  1  0
  6 38  1  0
 13 39  1  0
 15 40  1  0
 17 41  1  0
 18 42  1  0
 24 43  1  0
M  CHG  2   2   1  13  -1
M  END
>  <UniqueID>  (2) 
2

>  <SMILES>  (2) 
C[NH+](C)CCCOC(=O)n1c(C([NH-])=O)cc2ccc(C(F)(F)F)cc21

>  <Energy>  (2) 
78.29153824066455

>  <Genealogy>  (2) 
C[NH+](C)CCCOC(=O)n1c(C([NH-])=O)cc2ccc(C(F)(F)F)cc21 (protonated)
C[NH+](C)CCCOC(=O)n1c(C([NH-])=O)cc2ccc(C(F)(F)F)cc21 (3D coordinates assigned)
C[NH+](C)CCCOC(=O)n1c(C([NH-])=O)cc2ccc(C(F)(F)F)cc21 (optimized conformer: 78.29153824066455 kcal/mol)

>  <smiles>  (2) 
CN(C)CCCOC(=O)n1c(C(N)=O)cc2ccc(C(F)(F)F)cc21

>  <score_type>  (2) 
oracle

>  <origin>  (2) 
adg

>  <m_score__min__energy>  (2) 
-4.9100000000000001

>  <m_primary>  (2) 
energy

$$$$
2:0
     RDKit          3D

 49 50  0  0  0  0  0  0  0  0999 V2000
  145.0770  161.0070  133.8540 C   0  0  0  0  0  0  0  0  0  0  0  0
  144.8290  159.5800  133.6200 N   0  0  0  0  0  0  0  0  0  0  0  0
  143.4520  159.0790  133.6220 C   0  0  0  0  0  0  0  0  0  0  0  0
  145.9340  158.6780  133.3750 C   0  0  0  0  0  0  0  0  0  0  0  0
  147.2020  159.1820  132.9750 C   0  0  0  0  0  0  0  0  0  0  0  0
  148.2780  158.3130  132.7280 C   0  0  0  0  0  0  0  0  0  0  0  0
  148.0670  156.9480  132.8890 C   0  0  0  0  0  0  0  0  0  0  0  0
  148.9170  155.8900  132.6630 C   0  0  0  0  0  0  0  0  0  0  0  0
  148.1670  154.7510  132.9400 C   0  0  0  0  0  0  0  0  0  0  0  0
  148.7080  153.3800  132.8550 C   0  0  0  0  0  0  0  0  0  0  0  0
  147.9280  152.2500  133.2520 N   0  0  0  0  0  0  0  0  0  0  0  0
  149.8950  153.2050  132.4740 O   0  0  0  0  0  0  0  0  0  0  0  0
  146.9010  155.0870  133.3160 N   0  0  0  0  0  0  0  0  0  0  0  0
  145.7870  154.2000  133.5120 C   0  0  0  0  0  0  0  0  0  0  0  0
  145.4530  153.3990  132.5970 O   0  0  0  0  0  0  0  0  0  0  0  0
  145.0380  154.2440  134.7310 N   0  0  0  0  0  0  0  0  0  0  0  0
  145.5690  154.7770  135.9800 C   0  0  0  0  0  0  0  0  0  0  0  0
  146.9470  154.2460  136.2330 C   0  0  0  0  0  0  0  0  0  0  0  0
  147.9450  154.9400  135.9030 O   0  0  0  0  0  0  0  0  0  0  0  0
  147.1000  153.0020  136.8660 O   0  0  0  0  0  0  0  0  0  0  0  0
  148.2860  152.5080  137.5040 C   0  0  0  0  0  0  0  0  0  0  0  0
  149.2280  151.8630  136.4690 C   0  0  0  0  0  0  0  0  0  0  0  0
  149.0030  153.6420  138.2610 C   0  0  0  0  0  0  0  0  0  0  0  0
  147.8470  151.4350  138.5120 C   0  0  0  0  0  0  0  0  0  0  0  0
  146.8570  156.4390  133.2840 C   0  0  0  0  0  0  0  0  0  0  0  0
  145.7650  157.2820  133.5240 C   0  0  0  0  0  0  0  0  0  0  0  0
  145.1107  161.2007  134.9363 H   0  0  0  0  0  0  0  0  0  0  0  0
  146.0380  161.2913  133.4006 H   0  0  0  0  0  0  0  0  0  0  0  0
  144.2683  161.5989  133.4006 H   0  0  0  0  0  0  0  0  0  0  0  0
  143.1088  158.9541  134.6596 H   0  0  0  0  0  0  0  0  0  0  0  0
  142.7997  159.7974  133.1039 H   0  0  0  0  0  0  0  0  0  0  0  0
  143.4138  158.1094  133.1039 H   0  0  0  0  0  0  0  0  0  0  0  0
  147.3423  160.2667  132.8574 H   0  0  0  0  0  0  0  0  0  0  0  0
  149.2589  158.7012  132.4163 H   0  0  0  0  0  0  0  0  0  0  0  0
  149.9656  155.9349  132.3336 H   0  0  0  0  0  0  0  0  0  0  0  0
  148.3160  151.2850  133.1530 H   0  0  0  0  0  0  0  0  0  0  0  0
  147.0060  152.3700  133.7260 H   0  0  0  0  0  0  0  0  0  0  0  0
  145.6098  155.8744  135.9170 H   0  0  0  0  0  0  0  0  0  0  0  0
  144.9116  154.4689  136.8064 H   0  0  0  0  0  0  0  0  0  0  0  0
  150.0269  151.3160  136.9911 H   0  0  0  0  0  0  0  0  0  0  0  0
  148.6574  151.1652  135.8385 H   0  0  0  0  0  0  0  0  0  0  0  0
  149.6722  152.6474  135.8385 H   0  0  0  0  0  0  0  0  0  0  0  0
  148.9013  153.4812  139.3444 H   0  0  0  0  0  0  0  0  0  0  0  0
  150.0690  153.6473  137.9896 H   0  0  0  0  0  0  0  0  0  0  0  0
  148.5507  154.6073  137.9896 H   0  0  0  0  0  0  0  0  0  0  0  0
  147.9999  151.8087  139.5352 H   0  0  0  0  0  0  0  0  0  0  0  0
  146.7821  151.2041  138.3613 H   0  0  0  0  0  0  0  0  0  0  0  0
  148.4447  150.5239  138.3613 H   0  0  0  0  0  0  0  0  0  0  0  0
  144.7920  156.8653  133.8234 H   0  0  0  0  0  0  0  0  0  0  0  0
  1  2  1  0
  2  3  1  0
  2  4  1  0
  4  5  2  0
  5  6  1  0
  6  7  2  0
  7  8  1  0
  8  9  2  0
  9 10  1  0
 10 11  1  0
 10 12  2  0
  9 13  1  0
 13 14  1  0
 14 15  2  0
 14 16  1  0
 16 17  1  0
 17 18  1  0
 18 19  2  0
 18 20  1  0
 20 21  1  0
 21 22  1  0
 21 23  1  0
 21 24  1  0
 13 25  1  0
 25 26  2  0
 26  4  1  0
 25  7  1  0
  1 27  1  0
  1 28  1  0
  1 29  1  0
  3 30  1  0
  3 31  1  0
  3 32  1  0
  5 33  1  0
  6 34  1  0
  8 35  1  0
 11 36  1  0
 11 37  1  0
 17 38  1  0
 17 39  1  0
 22 40  1  0
 22 41  1  0
 22 42  1  0
 23 43  1  0
 23 44  1  0
 23 45  1  0
 24 46  1  0
 24 47  1  0
 24 48  1  0
 26 49  1  0
M  CHG  1  16  -1
M  END
>  <UniqueID>  (3) 
3

>  <SMILES>  (3) 
CN(C)c1ccc2cc(C(N)=O)n(C(=O)[N-]CC(=O)OC(C)(C)C)c2c1

>  <Energy>  (3) 
79.73694975495614

>  <Genealogy>  (3) 
CN(C)c1ccc2cc(C(N)=O)n(C(=O)[N-]CC(=O)OC(C)(C)C)c2c1 (protonated)
CN(C)c1ccc2cc(C(N)=O)n(C(=O)[N-]CC(=O)OC(C)(C)C)c2c1 (3D coordinates assigned)
CN(C)c1ccc2cc(C(N)=O)n(C(=O)[N-]CC(=O)OC(C)(C)C)c2c1 (optimized conformer: 79.73694975495614 kcal/mol)

>  <smiles>  (3) 
CN(C)c1ccc2cc(C(N)=O)n(C(=O)NCC(=O)OC(C)(C)C)c2c1

>  <score_type>  (3) 
oracle

>  <origin>  (3) 
adg

>  <m_score__min__energy>  (3) 
-7.4000000000000004

>  <m_primary>  (3) 
energy

$$$$
3:0
     RDKit          3D

 42 43  0  0  0  0  0  0  0  0999 V2000
  142.8200  156.7110  135.4490 C   0  0  0  0  0  0  0  0  0  0  0  0
  142.5100  157.1830  134.0870 N   0  0  2  0  0  0  0  0  0  0  0  0
  141.6210  156.2440  133.3560 C   0  0  0  0  0  0  0  0  0  0  0  0
  140.2520  156.0120  134.0370 C   0  0  0  0  0  0  0  0  0  0  0  0
  139.0590  156.6970  133.3440 C   0  0  0  0  0  0  0  0  0  0  0  0
  139.0510  158.2190  133.5380 C   0  0  0  0  0  0  0  0  0  0  0  0
  140.2640  158.7690  133.1010 O   0  0  0  0  0  0  0  0  0  0  0  0
  143.7560  157.3550  133.3680 C   0  0  0  0  0  0  0  0  0  0  0  0
  144.2550  156.3940  132.7180 O   0  0  0  0  0  0  0  0  0  0  0  0
  144.4760  158.5950  133.4510 N   0  0  0  0  0  0  0  0  0  0  0  0
  143.9910  159.8220  133.7920 C   0  0  0  0  0  0  0  0  0  0  0  0
  142.5790  160.1550  134.0860 C   0  0  0  0  0  0  0  0  0  0  0  0
  141.8800  159.5320  135.1600 N   0  0  0  0  0  0  0  0  0  0  0  0
  141.9730  160.9910  133.3640 O   0  0  0  0  0  0  0  0  0  0  0  0
  145.0180  160.7660  133.7960 C   0  0  0  0  0  0  0  0  0  0  0  0
  146.1550  160.0720  133.4520 C   0  0  0  0  0  0  0  0  0  0  0  0
  147.4710  160.5100  133.3310 C   0  0  0  0  0  0  0  0  0  0  0  0
  148.4530  159.5590  133.0050 C   0  0  0  0  0  0  0  0  0  0  0  0
  148.1050  158.1990  132.8180 C   0  0  0  0  0  0  0  0  0  0  0  0
  149.1180  157.2370  132.5190 N   0  0  0  0  0  0  0  0  0  0  0  0
  146.7600  157.7940  132.9450 C   0  0  0  0  0  0  0  0  0  0  0  0
  145.8010  158.7640  133.2520 C   0  0  0  0  0  0  0  0  0  0  0  0
  142.3712  157.3944  136.1849 H   0  0  0  0  0  0  0  0  0  0  0  0
  142.4094  155.7002  135.5891 H   0  0  0  0  0  0  0  0  0  0  0  0
  143.9108  156.6863  135.5891 H   0  0  0  0  0  0  0  0  0  0  0  0
  142.0510  158.1170  134.1690 H   0  0  0  0  0  0  0  0  0  0  0  0
  141.4419  156.6504  132.3496 H   0  0  0  0  0  0  0  0  0  0  0  0
  142.1344  155.2714  133.3359 H   0  0  0  0  0  0  0  0  0  0  0  0
  140.0596  154.9291  134.0575 H   0  0  0  0  0  0  0  0  0  0  0  0
  140.3258  156.4600  135.0389 H   0  0  0  0  0  0  0  0  0  0  0  0
  139.1071  156.4805  132.2666 H   0  0  0  0  0  0  0  0  0  0  0  0
  138.1397  156.3007  133.7999 H   0  0  0  0  0  0  0  0  0  0  0  0
  138.2244  158.6549  132.9577 H   0  0  0  0  0  0  0  0  0  0  0  0
  138.9192  158.4440  134.6066 H   0  0  0  0  0  0  0  0  0  0  0  0
  140.5360  159.4350  133.7850 H   0  0  0  0  0  0  0  0  0  0  0  0
  141.1810  158.7780  134.9810 H   0  0  0  0  0  0  0  0  0  0  0  0
  144.9361  161.8386  134.0257 H   0  0  0  0  0  0  0  0  0  0  0  0
  147.7338  161.5669  133.4856 H   0  0  0  0  0  0  0  0  0  0  0  0
  149.5012  159.8737  132.8941 H   0  0  0  0  0  0  0  0  0  0  0  0
  149.9350  157.1050  133.1580 H   0  0  0  0  0  0  0  0  0  0  0  0
  149.0700  156.6620  131.6490 H   0  0  0  0  0  0  0  0  0  0  0  0
  146.4727  156.7413  132.8060 H   0  0  0  0  0  0  0  0  0  0  0  0
  1  2  1  0
  2  3  1  0
  3  4  1  0
  4  5  1  0
  5  6  1  0
  6  7  1  0
  2  8  1  0
  8  9  2  0
  8 10  1  0
 10 11  1  0
 11 12  1  0
 12 13  1  0
 12 14  2  0
 11 15  2  0
 15 16  1  0
 16 17  2  0
 17 18  1  0
 18 19  2  0
 19 20  1  0
 19 21  1  0
 21 22  2  0
 22 10  1  0
 22 16  1  0
  1 23  1  0
  1 24  1  0
  1 25  1  0
  2 26  1  1
  3 27  1  0
  3 28  1  0
  4 29  1  0
  4 30  1  0
  5 31  1  0
  5 32  1  0
  6 33  1  0
  6 34  1  0
  7 35  1  0
 13 36  1  0
 15 37  1  0
 17 38  1  0
 18 39  1  0
 20 40  1  0
 20 41  1  0
 21 42  1  0
M  CHG  2   2   1  13  -1
M  END
>  <UniqueID>  (4) 
4

>  <SMILES>  (4) 
C[N@H+](CCCCO)C(=O)n1c(C([NH-])=O)cc2ccc(N)cc21

>  <Energy>  (4) 
79.03315474347855

>  <Genealogy>  (4) 
C[NH+](CCCCO)C(=O)n1c(C([NH-])=O)cc2ccc(N)cc21 (protonated)
C[N@H+](CCCCO)C(=O)n1c(C([NH-])=O)cc2ccc(N)cc21 (chirality)
C[N@H+](CCCCO)C(=O)n1c(C([NH-])=O)cc2ccc(N)cc21 (3D coordinates assigned)
C[N@H+](CCCCO)C(=O)n1c(C([NH-])=O)cc2ccc(N)cc21 (optimized conformer: 79.03315474347855 kcal/mol)

>  <smiles>  (4) 
CN(CCCCO)C(=O)n1c(C(N)=O)cc2ccc(N)cc21

>  <score_type>  (4) 
oracle

>  <origin>  (4) 
adg

>  <m_score__min__energy>  (4) 
-5.5099999999999998

>  <m_primary>  (4) 
energy

$$$$
4:0
     RDKit          3D

 52 56  0  0  0  0  0  0  0  0999 V2000
  148.1350  160.5200  131.8920 C   0  0  0  0  0  0  0  0  0  0  0  0
  147.3210  159.4860  132.5220 N   0  0  0  0  0  0  0  0  0  0  0  0
  146.0890  159.6270  133.0640 C   0  0  0  0  0  0  0  0  0  0  0  0
  145.5980  158.4700  133.5750 N   0  0  0  0  0  0  0  0  0  0  0  0
  146.5790  157.5760  133.3360 C   0  0  0  0  0  0  0  0  0  0  0  0
  146.6080  156.2060  133.6540 C   0  0  0  0  0  0  0  0  0  0  0  0
  145.4990  155.5030  134.3460 C   0  0  0  0  0  0  0  0  0  0  0  0
  144.3010  155.0530  133.8170 C   0  0  0  0  0  0  0  0  0  0  0  0
  143.6290  154.4930  134.8350 N   0  0  0  0  0  0  0  0  0  0  0  0
  142.2760  153.9480  134.7920 C   0  0  0  0  0  0  0  0  0  0  0  0
  141.3610  154.9160  134.0970 C   0  0  0  0  0  0  0  0  0  0  0  0
  140.2650  154.4370  133.3350 C   0  0  0  0  0  0  0  0  0  0  0  0
  139.4370  155.3290  132.6350 C   0  0  0  0  0  0  0  0  0  0  0  0
  139.7290  156.6880  132.7110 C   0  0  0  0  0  0  0  0  0  0  0  0
  139.1140  157.7600  132.1080 C   0  0  0  0  0  0  0  0  0  0  0  0
  139.8380  158.8790  132.5160 C   0  0  0  0  0  0  0  0  0  0  0  0
  139.4610  160.2640  132.1640 C   0  0  0  0  0  0  0  0  0  0  0  0
  138.3760  160.5270  131.2780 N   0  0  0  0  0  0  0  0  0  0  0  0
  140.1380  161.2280  132.6130 O   0  0  0  0  0  0  0  0  0  0  0  0
  140.8670  158.5110  133.3320 N   0  0  0  0  0  0  0  0  0  0  0  0
  141.8900  159.3460  133.8950 C   0  0  0  0  0  0  0  0  0  0  0  0
  142.6790  159.9720  133.1350 O   0  0  0  0  0  0  0  0  0  0  0  0
  142.0210  159.4420  135.2850 O   0  0  0  0  0  0  0  0  0  0  0  0
  140.9100  159.5850  136.1680 C   0  0  0  0  0  0  0  0  0  0  0  0
  140.3900  158.2440  136.5730 C   0  0  0  0  0  0  0  0  0  0  0  0
  141.1210  157.4540  137.2260 O   0  0  0  0  0  0  0  0  0  0  0  0
  139.1090  157.8530  136.2060 O   0  0  0  0  0  0  0  0  0  0  0  0
  140.7830  157.1680  133.4460 C   0  0  0  0  0  0  0  0  0  0  0  0
  141.6350  156.3000  134.1390 C   0  0  0  0  0  0  0  0  0  0  0  0
  144.3550  154.6060  135.9350 N   0  0  0  0  0  0  0  0  0  0  0  0
  145.5020  155.2110  135.6640 N   0  0  0  0  0  0  0  0  0  0  0  0
  147.7710  155.4910  133.2760 C   0  0  0  0  0  0  0  0  0  0  0  0
  148.8410  156.1360  132.6180 C   0  0  0  0  0  0  0  0  0  0  0  0
  148.7740  157.5060  132.3200 C   0  0  0  0  0  0  0  0  0  0  0  0
  147.6210  158.1910  132.6970 C   0  0  0  0  0  0  0  0  0  0  0  0
  148.6166  161.1317  132.6691 H   0  0  0  0  0  0  0  0  0  0  0  0
  148.9068  160.0484  131.2660 H   0  0  0  0  0  0  0  0  0  0  0  0
  147.4954  161.1595  131.2660 H   0  0  0  0  0  0  0  0  0  0  0  0
  145.5421  160.5811  133.0878 H   0  0  0  0  0  0  0  0  0  0  0  0
  143.9671  155.1375  132.7723 H   0  0  0  0  0  0  0  0  0  0  0  0
  142.2834  152.9943  134.2440 H   0  0  0  0  0  0  0  0  0  0  0  0
  141.9178  153.7818  135.8187 H   0  0  0  0  0  0  0  0  0  0  0  0
  140.0618  153.3568  133.2920 H   0  0  0  0  0  0  0  0  0  0  0  0
  138.5834  154.9650  132.0444 H   0  0  0  0  0  0  0  0  0  0  0  0
  138.2369  157.7389  131.4445 H   0  0  0  0  0  0  0  0  0  0  0  0
  137.7060  161.3040  131.4650 H   0  0  0  0  0  0  0  0  0  0  0  0
  141.2287  160.1361  137.0651 H   0  0  0  0  0  0  0  0  0  0  0  0
  140.1111  160.1357  135.6497 H   0  0  0  0  0  0  0  0  0  0  0  0
  142.4968  156.6870  134.7025 H   0  0  0  0  0  0  0  0  0  0  0  0
  147.8417  154.4161  133.4986 H   0  0  0  0  0  0  0  0  0  0  0  0
  149.7348  155.5598  132.3365 H   0  0  0  0  0  0  0  0  0  0  0  0
  149.6010  158.0196  131.8079 H   0  0  0  0  0  0  0  0  0  0  0  0
  1  2  1  0
  2  3  1  0
  3  4  2  0
  4  5  1  0
  5  6  2  0
  6  7  1  0
  7  8  2  0
  8  9  1  0
  9 10  1  0
 10 11  1  0
 11 12  2  0
 12 13  1  0
 13 14  2  0
 14 15  1  0
 15 16  2  0
 16 17  1  0
 17 18  1  0
 17 19  2  0
 16 20  1  0
 20 21  1  0
 21 22  2  0
 21 23  1  0
 23 24  1  0
 24 25  1  0
 25 26  2  0
 25 27  1  0
 20 28  1  0
 28 29  2  0
  9 30  1  0
 30 31  2  0
  6 32  1  0
 32 33  2  0
 33 34  1  0
 34 35  2  0
 35  2  1  0
 35  5  1  0
 31  7  1  0
 29 11  1  0
 28 14  1  0
  1 36  1  0
  1 37  1  0
  1 38  1  0
  3 39  1  0
  8 40  1  0
 10 41  1  0
 10 42  1  0
 12 43  1  0
 13 44  1  0
 15 45  1  0
 18 46  1  0
 24 47  1  0
 24 48  1  0
 29 49  1  0
 32 50  1  0
 33 51  1  0
 34 52  1  0
M  CHG  2  18  -1  27  -1
M  END
>  <UniqueID>  (5) 
5

>  <SMILES>  (5) 
Cn1cnc2c(-c3cn(Cc4ccc5cc(C([NH-])=O)n(C(=O)OCC(=O)[O-])c5c4)nn3)cccc21

>  <Energy>  (5) 
167.25855302663248

>  <Genealogy>  (5) 
Cn1cnc2c(-c3cn(Cc4ccc5cc(C([NH-])=O)n(C(=O)OCC(=O)[O-])c5c4)nn3)cccc21 (protonated)
Cn1cnc2c(-c3cn(Cc4ccc5cc(C([NH-])=O)n(C(=O)OCC(=O)[O-])c5c4)nn3)cccc21 (3D coordinates assigned)
Cn1cnc2c(-c3cn(Cc4ccc5cc(C([NH-])=O)n(C(=O)OCC(=O)[O-])c5c4)nn3)cccc21 (optimized conformer: 167.25855302663248 kcal/mol)

>  <smiles>  (5) 
Cn1cnc2c(-c3cn(Cc4ccc5cc(C(N)=O)n(C(=O)OCC(=O)O)c5c4)nn3)cccc21

>  <score_type>  (5) 
oracle

>  <origin>  (5) 
adg

>  <m_score__min__energy>  (5) 
-9.8900000000000006

>  <m_primary>  (5) 
energy

$$$$
5:0
     RDKit          3D

 38 39  0  0  0  0  0  0  0  0999 V2000
  139.8826  156.6973  134.7520 H   0  0  0  0  0  0  0  0  0  0  0  0
  139.8000  156.4040  133.6950 C   0  0  0  0  0  0  0  0  0  0  0  0
  140.0990  155.0100  133.3220 C   0  0  0  0  0  0  0  0  0  0  0  0
  139.1540  154.2610  132.9550 O   0  0  0  0  0  0  0  0  0  0  0  0
  141.4380  154.4890  133.3530 N   0  0  0  0  0  0  0  0  0  0  0  0
  142.5980  155.2010  133.3350 C   0  0  0  0  0  0  0  0  0  0  0  0
  142.7110  156.6700  133.4420 C   0  0  0  0  0  0  0  0  0  0  0  0
  142.7440  157.2060  134.5830 O   0  0  0  0  0  0  0  0  0  0  0  0
  142.7350  157.5010  132.2800 N   0  0  0  0  0  0  0  0  0  0  0  0
  142.5120  157.1190  131.3360 H   0  0  0  0  0  0  0  0  0  0  0  0
  142.8770  158.5300  132.3780 H   0  0  0  0  0  0  0  0  0  0  0  0
  143.6920  154.3500  133.2020 C   0  0  0  0  0  0  0  0  0  0  0  0
  144.7543  154.6315  133.1555 H   0  0  0  0  0  0  0  0  0  0  0  0
  143.1610  153.0810  133.1410 C   0  0  0  0  0  0  0  0  0  0  0  0
  143.7900  151.8530  132.9690 C   0  0  0  0  0  0  0  0  0  0  0  0
  144.8857  151.7825  132.9015 H   0  0  0  0  0  0  0  0  0  0  0  0
  142.9850  150.7050  132.8840 C   0  0  0  0  0  0  0  0  0  0  0  0
  143.4552  149.7204  132.7446 H   0  0  0  0  0  0  0  0  0  0  0  0
  141.5710  150.8010  132.9760 C   0  0  0  0  0  0  0  0  0  0  0  0
  140.7130  149.5710  132.8230 C   0  0  0  0  0  0  0  0  0  0  0  0
  140.2240  149.1610  134.0510 F   0  0  0  0  0  0  0  0  0  0  0  0
  141.4450  148.5300  132.2790 F   0  0  0  0  0  0  0  0  0  0  0  0
  139.6500  149.8590  131.9870 F   0  0  0  0  0  0  0  0  0  0  0  0
  140.9690  152.0730  133.1190 C   0  0  0  0  0  0  0  0  0  0  0  0
  139.8743  152.1779  133.1454 H   0  0  0  0  0  0  0  0  0  0  0  0
  141.7980  153.1940  133.2260 C   0  0  0  0  0  0  0  0  0  0  0  0
  139.4320  157.3270  132.7990 C   0  0  0  0  0  0  0  0  0  0  0  0
  139.3621  157.0478  131.7373 H   0  0  0  0  0  0  0  0  0  0  0  0
  139.1130  158.7320  133.2090 C   0  0  0  0  0  0  0  0  0  0  0  0
  139.3480  158.8600  134.2760 H   0  0  0  0  0  0  0  0  0  0  0  0
  138.0440  158.9207  133.0310 H   0  0  0  0  0  0  0  0  0  0  0  0
  139.9160  159.7060  132.4080 C   0  0  0  0  0  0  0  0  0  0  0  0
  141.1580  159.8070  132.6030 O   0  0  0  0  0  0  0  0  0  0  0  0
  139.2710  160.5230  131.4740 O   0  0  0  0  0  0  0  0  0  0  0  0
  138.3620  160.0100  130.5080 C   0  0  0  0  0  0  0  0  0  0  0  0
  137.5142  159.5315  131.0201 H   0  0  0  0  0  0  0  0  0  0  0  0
  137.9930  160.8330  129.8784 H   0  0  0  0  0  0  0  0  0  0  0  0
  138.8758  159.2687  129.8784 H   0  0  0  0  0  0  0  0  0  0  0  0
  1  2  1  0
  2  3  1  0
  3  4  2  0
  3  5  1  0
  5  6  1  0
  6  7  1  0
  7  8  2  0
  7  9  1  0
  9 10  1  0
  9 11  1  0
  6 12  2  0
 12 13  1  0
 12 14  1  0
 14 15  2  0
 15 16  1  0
 15 17  1  0
 17 18  1  0
 17 19  2  0
 19 20  1  0
 20 21  1  0
 20 22  1  0
 20 23  1  0
 19 24  1  0
 24 25  1  0
 24 26  2  0
  2 27  2  0
 27 28  1  0
 27 29  1  0
 29 30  1  0
 29 31  1  0
 29 32  1  0
 32 33  2  0
 32 34  1  0
 34 35  1  0
 35 36  1  0
 35 37  1  0
 35 38  1  0
 26  5  1  0
 26 14  1  0
M  END
>  <UniqueID>  (6) 
6

>  <SMILES>  (6) 
COC(=O)C/C=C/C(=O)n1c(C(N)=O)cc2ccc(C(F)(F)F)cc21

>  <Energy>  (6) 
72.76257145239676

>  <Genealogy>  (6) 
COC(=O)C/C=C/C(=O)n1c(C(N)=O)cc2ccc(C(F)(F)F)cc21 (cis-trans isomerization)
COC(=O)C/C=C/C(=O)n1c(C(N)=O)cc2ccc(C(F)(F)F)cc21 (3D coordinates assigned)
COC(=O)C/C=C/C(=O)n1c(C(N)=O)cc2ccc(C(F)(F)F)cc21 (optimized conformer: 72.76257145239676 kcal/mol)

>  <smiles>  (6) 
COC(=O)C/C=C/C(=O)n1c(C(N)=O)cc2ccc(C(F)(F)F)cc21

>  <score_type>  (6) 
oracle

>  <origin>  (6) 
adg

>  <m_score__min__energy>  (6) 
-6.6900000000000004

>  <m_primary>  (6) 
energy

$$$$
6:0
     RDKit          3D

 46 47  0  0  0  0  0  0  0  0999 V2000
  148.1520  155.0680  132.6080 C   0  0  0  0  0  0  0  0  0  0  0  0
  147.8390  156.5280  132.7600 C   0  0  0  0  0  0  0  0  0  0  0  0
  148.8830  157.4850  132.7240 C   0  0  0  0  0  0  0  0  0  0  0  0
  148.6110  158.8500  132.9170 C   0  0  0  0  0  0  0  0  0  0  0  0
  147.2920  159.2240  133.1510 C   0  0  0  0  0  0  0  0  0  0  0  0
  146.7550  160.4670  133.3920 C   0  0  0  0  0  0  0  0  0  0  0  0
  145.3890  160.2530  133.5710 C   0  0  0  0  0  0  0  0  0  0  0  0
  144.3980  161.3360  133.7600 C   0  0  0  0  0  0  0  0  0  0  0  0
  142.9980  161.0700  133.6590 N   0  0  0  0  0  0  0  0  0  0  0  0
  144.7780  162.5010  134.0480 O   0  0  0  0  0  0  0  0  0  0  0  0
  145.0960  158.9260  133.4450 N   0  0  0  0  0  0  0  0  0  0  0  0
  143.8190  158.2870  133.5950 C   0  0  0  0  0  0  0  0  0  0  0  0
  142.9210  158.4620  132.7270 O   0  0  0  0  0  0  0  0  0  0  0  0
  143.5800  157.4740  134.7110 O   0  0  0  0  0  0  0  0  0  0  0  0
  142.2980  157.3240  135.3210 C   0  0  1  0  0  0  0  0  0  0  0  0
  141.9380  158.6180  135.9950 C   0  0  0  0  0  0  0  0  0  0  0  0
  141.9260  159.6680  135.3640 O   0  0  0  0  0  0  0  0  0  0  0  0
  141.2500  156.9220  134.2610 C   0  0  0  0  0  0  0  0  0  0  0  0
  140.2890  158.0290  134.0320 N   0  0  0  0  0  0  0  0  0  0  0  0
  139.0910  157.8580  134.8750 C   0  0  0  0  0  0  0  0  0  0  0  0
  139.9050  158.1550  132.6060 C   0  0  0  0  0  0  0  0  0  0  0  0
  139.8300  159.6330  132.2170 C   0  0  0  0  0  0  0  0  0  0  0  0
  140.7050  160.3870  133.0080 O   0  0  0  0  0  0  0  0  0  0  0  0
  146.2690  158.3110  133.1870 C   0  0  0  0  0  0  0  0  0  0  0  0
  146.5130  156.9440  133.0140 C   0  0  0  0  0  0  0  0  0  0  0  0
  148.2505  154.6086  133.6026 H   0  0  0  0  0  0  0  0  0  0  0  0
  147.3393  154.5744  132.0550 H   0  0  0  0  0  0  0  0  0  0  0  0
  149.0956  154.9509  132.0550 H   0  0  0  0  0  0  0  0  0  0  0  0
  149.9170  157.1562  132.5431 H   0  0  0  0  0  0  0  0  0  0  0  0
  149.4158  159.5991  132.8841 H   0  0  0  0  0  0  0  0  0  0  0  0
  147.2902  161.4271  133.4345 H   0  0  0  0  0  0  0  0  0  0  0  0
  142.6400  160.1380  133.3580 H   0  0  0  0  0  0  0  0  0  0  0  0
  142.3080  161.8310  133.8530 H   0  0  0  0  0  0  0  0  0  0  0  0
  142.3211  156.5238  136.0754 H   0  0  0  0  0  0  0  0  0  0  0  0
  141.6829  158.6224  137.0650 H   0  0  0  0  0  0  0  0  0  0  0  0
  141.7626  156.6869  133.3166 H   0  0  0  0  0  0  0  0  0  0  0  0
  140.6982  156.0421  134.6232 H   0  0  0  0  0  0  0  0  0  0  0  0
  139.3800  157.8993  135.9356 H   0  0  0  0  0  0  0  0  0  0  0  0
  138.3728  158.6627  134.6591 H   0  0  0  0  0  0  0  0  0  0  0  0
  138.6267  156.8845  134.6591 H   0  0  0  0  0  0  0  0  0  0  0  0
  140.6556  157.6504  131.9799 H   0  0  0  0  0  0  0  0  0  0  0  0
  138.9203  157.6892  132.4530 H   0  0  0  0  0  0  0  0  0  0  0  0
  140.1092  159.7447  131.1589 H   0  0  0  0  0  0  0  0  0  0  0  0
  138.8029  159.9936  132.3749 H   0  0  0  0  0  0  0  0  0  0  0  0
  141.3210  159.7410  133.4450 H   0  0  0  0  0  0  0  0  0  0  0  0
  145.6937  156.2124  133.0742 H   0  0  0  0  0  0  0  0  0  0  0  0
  1  2  1  0
  2  3  2  0
  3  4  1  0
  4  5  2  0
  5  6  1  0
  6  7  2  0
  7  8  1  0
  8  9  1  0
  8 10  2  0
  7 11  1  0
 11 12  1  0
 12 13  2  0
 12 14  1  0
 14 15  1  0
 15 16  1  0
 16 17  2  0
 15 18  1  0
 18 19  1  0
 19 20  1  0
 19 21  1  0
 21 22  1  0
 22 23  1  0
 11 24  1  0
 24 25  2  0
 25  2  1  0
 24  5  1  0
  1 26  1  0
  1 27  1  0
  1 28  1  0
  3 29  1  0
  4 30  1  0
  6 31  1  0
  9 32  1  0
  9 33  1  0
 15 34  1  1
 16 35  1  0
 18 36  1  0
 18 37  1  0
 20 38  1  0
 20 39  1  0
 20 40  1  0
 21 41  1  0
 21 42  1  0
 22 43  1  0
 22 44  1  0
 23 45  1  0
 25 46  1  0
M  END
>  <UniqueID>  (7) 
7

>  <SMILES>  (7) 
Cc1ccc2cc(C(N)=O)n(C(=O)O[C@@H](C=O)CN(C)CCO)c2c1

>  <Energy>  (7) 
81.9580864177239

>  <Genealogy>  (7) 
Cc1ccc2cc(C(N)=O)n(C(=O)O[C@@H](C=O)CN(C)CCO)c2c1 (chirality)
Cc1ccc2cc(C(N)=O)n(C(=O)O[C@@H](C=O)CN(C)CCO)c2c1 (3D coordinates assigned)
Cc1ccc2cc(C(N)=O)n(C(=O)O[C@@H](C=O)CN(C)CCO)c2c1 (optimized conformer: 81.9580864177239 kcal/mol)

>  <smiles>  (7) 
Cc1ccc2cc(C(N)=O)n(C(=O)OC(C=O)CN(C)CCO)c2c1

>  <score_type>  (7) 
oracle

>  <origin>  (7) 
adg

>  <m_score__min__energy>  (7) 
-6.5099999999999998

>  <m_primary>  (7) 
energy

$$$$
7:0
     RDKit          3D

 39 40  0  0  0  0  0  0  0  0999 V2000
  144.8770  153.7780  133.9100 C   0  0  0  0  0  0  0  0  0  0  0  0
  145.4700  154.6380  135.0460 C   0  0  0  0  0  0  0  0  0  0  0  0
  146.0690  155.9190  134.4380 C   0  0  0  0  0  0  0  0  0  0  0  0
  144.4010  155.0030  135.9920 N   0  0  0  0  0  0  0  0  0  0  0  0
  143.1700  155.6430  135.6130 C   0  0  0  0  0  0  0  0  0  0  0  0
  142.9510  155.9500  134.4100 O   0  0  0  0  0  0  0  0  0  0  0  0
  142.1720  155.9190  136.6060 N   0  0  0  0  0  0  0  0  0  0  0  0
  141.5570  157.1070  136.8670 C   0  0  0  0  0  0  0  0  0  0  0  0
  141.8910  158.4090  136.2510 C   0  0  0  0  0  0  0  0  0  0  0  0
  142.8330  158.4980  135.1860 N   0  0  0  0  0  0  0  0  0  0  0  0
  141.3610  159.4620  136.6950 O   0  0  0  0  0  0  0  0  0  0  0  0
  140.5930  156.9470  137.8610 C   0  0  0  0  0  0  0  0  0  0  0  0
  140.6390  155.6150  138.2050 C   0  0  0  0  0  0  0  0  0  0  0  0
  139.8920  154.9010  139.1390 C   0  0  0  0  0  0  0  0  0  0  0  0
  140.1380  153.5240  139.2650 C   0  0  0  0  0  0  0  0  0  0  0  0
  141.1050  152.8850  138.4490 C   0  0  0  0  0  0  0  0  0  0  0  0
  141.3760  151.4150  138.6070 C   0  0  0  0  0  0  0  0  0  0  0  0
  140.4480  150.6270  137.7400 C   0  0  0  0  0  0  0  0  0  0  0  0
  139.4770  150.0080  138.2490 O   0  0  0  0  0  0  0  0  0  0  0  0
  140.6250  150.6170  136.3620 O   0  0  0  0  0  0  0  0  0  0  0  0
  141.8500  153.6430  137.5190 C   0  0  0  0  0  0  0  0  0  0  0  0
  141.5980  155.0170  137.4300 C   0  0  0  0  0  0  0  0  0  0  0  0
  146.5760  153.9030  135.7730 C   0  0  0  0  0  0  0  0  0  0  0  0
  147.7290  153.8110  135.2720 O   0  0  0  0  0  0  0  0  0  0  0  0
  146.3510  153.3930  137.0470 O   0  0  0  0  0  0  0  0  0  0  0  0
  144.3028  152.9452  134.3421 H   0  0  0  0  0  0  0  0  0  0  0  0
  144.2134  154.3978  133.2891 H   0  0  0  0  0  0  0  0  0  0  0  0
  145.6922  153.3781  133.2891 H   0  0  0  0  0  0  0  0  0  0  0  0
  146.3852  156.5952  135.2459 H   0  0  0  0  0  0  0  0  0  0  0  0
  146.9385  155.6582  133.8168 H   0  0  0  0  0  0  0  0  0  0  0  0
  145.3113  156.4190  133.8168 H   0  0  0  0  0  0  0  0  0  0  0  0
  144.5430  154.8180  137.0120 H   0  0  0  0  0  0  0  0  0  0  0  0
  143.6590  157.8600  135.1440 H   0  0  0  0  0  0  0  0  0  0  0  0
  139.9347  157.7214  138.2816 H   0  0  0  0  0  0  0  0  0  0  0  0
  139.1327  155.4003  139.7589 H   0  0  0  0  0  0  0  0  0  0  0  0
  139.5747  152.9356  140.0042 H   0  0  0  0  0  0  0  0  0  0  0  0
  142.4152  151.2029  138.3151 H   0  0  0  0  0  0  0  0  0  0  0  0
  141.2175  151.1299  139.6575 H   0  0  0  0  0  0  0  0  0  0  0  0
  142.6087  153.1660  136.8811 H   0  0  0  0  0  0  0  0  0  0  0  0
  1  2  1  0
  2  3  1  0
  2  4  1  0
  4  5  1  0
  5  6  2  0
  5  7  1  0
  7  8  1  0
  8  9  1  0
  9 10  1  0
  9 11  2  0
  8 12  2  0
 12 13  1  0
 13 14  2  0
 14 15  1  0
 15 16  2  0
 16 17  1  0
 17 18  1  0
 18 19  2  0
 18 20  1  0
 16 21  1  0
 21 22  2  0
  2 23  1  0
 23 24  2  0
 23 25  1  0
 22  7  1  0
 22 13  1  0
  1 26  1  0
  1 27  1  0
  1 28  1  0
  3 29  1  0
  3 30  1  0
  3 31  1  0
  4 32  1  0
 10 33  1  0
 12 34  1  0
 14 35  1  0
 15 36  1  0
 17 37  1  0
 17 38  1  0
 21 39  1  0
M  CHG  3  10  -1  20  -1  25  -1
M  END
>  <UniqueID>  (8) 
8

>  <SMILES>  (8) 
CC(C)(NC(=O)n1c(C([NH-])=O)cc2ccc(CC(=O)[O-])cc21)C(=O)[O-]

>  <Energy>  (8) 
73.87137225449185

>  <Genealogy>  (8) 
CC(C)(NC(=O)n1c(C([NH-])=O)cc2ccc(CC(=O)[O-])cc21)C(=O)[O-] (protonated)
CC(C)(NC(=O)n1c(C([NH-])=O)cc2ccc(CC(=O)[O-])cc21)C(=O)[O-] (3D coordinates assigned)
CC(C)(NC(=O)n1c(C([NH-])=O)cc2ccc(CC(=O)[O-])cc21)C(=O)[O-] (optimized conformer: 73.87137225449185 kcal/mol)

>  <smiles>  (8) 
CC(C)(NC(=O)n1c(C(N)=O)cc2ccc(CC(=O)O)cc21)C(=O)O

>  <score_type>  (8) 
oracle

>  <origin>  (8) 
adg

>  <m_score__min__energy>  (8) 
-7.6600000000000001

>  <m_primary>  (8) 
energy

$$$$
8:0
     RDKit          3D

 35 36  0  0  0  0  0  0  0  0999 V2000
  149.0320  161.7070  130.3770 C   0  0  0  0  0  0  0  0  0  0  0  0
  148.8840  160.4650  131.2040 C   0  0  0  0  0  0  0  0  0  0  0  0
  149.9850  159.5900  131.3750 C   0  0  0  0  0  0  0  0  0  0  0  0
  149.8510  158.4100  132.1270 C   0  0  0  0  0  0  0  0  0  0  0  0
  148.6030  158.1240  132.6740 C   0  0  0  0  0  0  0  0  0  0  0  0
  148.2010  157.0690  133.4630 C   0  0  0  0  0  0  0  0  0  0  0  0
  146.8510  157.2990  133.7310 C   0  0  0  0  0  0  0  0  0  0  0  0
  145.9830  156.3880  134.5120 C   0  0  0  0  0  0  0  0  0  0  0  0
  144.5600  156.4950  134.4470 N   0  0  0  0  0  0  0  0  0  0  0  0
  146.4960  155.5120  135.2580 O   0  0  0  0  0  0  0  0  0  0  0  0
  146.4370  158.4460  133.1220 N   0  0  0  0  0  0  0  0  0  0  0  0
  145.1390  159.0570  133.2030 C   0  0  0  0  0  0  0  0  0  0  0  0
  144.1610  158.5200  132.6170 O   0  0  0  0  0  0  0  0  0  0  0  0
  144.9390  160.3040  133.9560 C   0  0  0  0  0  0  0  0  0  0  0  0
  145.8440  161.1820  133.9690 O   0  0  0  0  0  0  0  0  0  0  0  0
  143.7120  160.5210  134.6580 N   0  0  0  0  0  0  0  0  0  0  0  0
  142.4040  160.5510  134.0100 C   0  0  0  0  0  0  0  0  0  0  0  0
  141.6760  159.2220  134.1970 C   0  0  0  0  0  0  0  0  0  0  0  0
  142.5340  158.2850  134.7850 O   0  0  0  0  0  0  0  0  0  0  0  0
  147.5200  158.9430  132.4870 C   0  0  0  0  0  0  0  0  0  0  0  0
  147.6300  160.1350  131.7620 C   0  0  0  0  0  0  0  0  0  0  0  0
  149.1359  162.5787  131.0399 H   0  0  0  0  0  0  0  0  0  0  0  0
  149.9262  161.6205  129.7422 H   0  0  0  0  0  0  0  0  0  0  0  0
  148.1425  161.8330  129.7422 H   0  0  0  0  0  0  0  0  0  0  0  0
  150.9535  159.8362  130.9152 H   0  0  0  0  0  0  0  0  0  0  0  0
  150.7053  157.7338  132.2786 H   0  0  0  0  0  0  0  0  0  0  0  0
  148.8144  156.2239  133.8087 H   0  0  0  0  0  0  0  0  0  0  0  0
  143.9620  155.8690  135.0320 H   0  0  0  0  0  0  0  0  0  0  0  0
  144.0900  157.1580  133.7930 H   0  0  0  0  0  0  0  0  0  0  0  0
  141.8010  161.3579  134.4519 H   0  0  0  0  0  0  0  0  0  0  0  0
  142.5476  160.7261  132.9336 H   0  0  0  0  0  0  0  0  0  0  0  0
  140.8018  159.3738  134.8472 H   0  0  0  0  0  0  0  0  0  0  0  0
  141.3502  158.8474  133.2154 H   0  0  0  0  0  0  0  0  0  0  0  0
  143.4530  158.6450  134.6730 H   0  0  0  0  0  0  0  0  0  0  0  0
  146.7619  160.7976  131.6304 H   0  0  0  0  0  0  0  0  0  0  0  0
  1  2  1  0
  2  3  2  0
  3  4  1  0
  4  5  2  0
  5  6  1  0
  6  7  2  0
  7  8  1  0
  8  9  1  0
  8 10  2  0
  7 11  1  0
 11 12  1  0
 12 13  2  0
 12 14  1  0
 14 15  2  0
 14 16  1  0
 16 17  1  0
 17 18  1  0
 18 19  1  0
 11 20  1  0
 20 21  2  0
 21  2  1  0
 20  5  1  0
  1 22  1  0
  1 23  1  0
  1 24  1  0
  3 25  1  0
  4 26  1  0
  6 27  1  0
  9 28  1  0
  9 29  1  0
 17 30  1  0
 17 31  1  0
 18 32  1  0
 18 33  1  0
 19 34  1  0
 21 35  1  0
M  CHG  1  16  -1
M  END
>  <UniqueID>  (9) 
9

>  <SMILES>  (9) 
Cc1ccc2cc(C(N)=O)n(C(=O)C(=O)[N-]CCO)c2c1

>  <Energy>  (9) 
68.49644977427836

>  <Genealogy>  (9) 
Cc1ccc2cc(C(N)=O)n(C(=O)C(=O)[N-]CCO)c2c1 (protonated)
Cc1ccc2cc(C(N)=O)n(C(=O)C(=O)[N-]CCO)c2c1 (3D coordinates assigned)
Cc1ccc2cc(C(N)=O)n(C(=O)C(=O)[N-]CCO)c2c1 (optimized conformer: 68.49644977427836 kcal/mol)

>  <smiles>  (9) 
Cc1ccc2cc(C(N)=O)n(C(=O)C(=O)NCCO)c2c1

>  <score_type>  (9) 
oracle

>  <origin>  (9) 
adg

>  <m_score__min__energy>  (9) 
-6.8099999999999996

>  <m_primary>  (9) 
energy

$$$$
9:0
     RDKit          3D

 37 38  0  0  0  0  0  0  0  0999 V2000
  148.8740  158.9830  129.9580 C   0  0  0  0  0  0  0  0  0  0  0  0
  148.6870  159.8080  131.2450 C   0  0  0  0  0  0  0  0  0  0  0  0
  149.1000  161.2610  130.9690 C   0  0  0  0  0  0  0  0  0  0  0  0
  149.5620  159.2490  132.3830 C   0  0  0  0  0  0  0  0  0  0  0  0
  147.3070  159.8290  131.6360 O   0  0  0  0  0  0  0  0  0  0  0  0
  146.8140  159.9350  132.9450 C   0  0  0  0  0  0  0  0  0  0  0  0
  147.2470  160.8180  133.7330 O   0  0  0  0  0  0  0  0  0  0  0  0
  145.7800  159.0390  133.3810 N   0  0  0  0  0  0  0  0  0  0  0  0
  144.4790  159.3330  133.6640 C   0  0  0  0  0  0  0  0  0  0  0  0
  143.8880  160.6850  133.7330 C   0  0  0  0  0  0  0  0  0  0  0  0
  144.7120  161.8390  133.8810 N   0  0  0  0  0  0  0  0  0  0  0  0
  142.6370  160.8210  133.7070 O   0  0  0  0  0  0  0  0  0  0  0  0
  143.7730  158.1720  133.9710 C   0  0  0  0  0  0  0  0  0  0  0  0
  144.6910  157.1500  133.8770 C   0  0  0  0  0  0  0  0  0  0  0  0
  144.5270  155.7810  134.0570 C   0  0  0  0  0  0  0  0  0  0  0  0
  145.6450  154.9520  133.8590 C   0  0  0  0  0  0  0  0  0  0  0  0
  146.9010  155.5020  133.4960 C   0  0  0  0  0  0  0  0  0  0  0  0
  148.0760  154.5970  133.2260 C   0  0  0  0  0  0  0  0  0  0  0  0
  147.7410  153.6240  132.3010 F   0  0  0  0  0  0  0  0  0  0  0  0
  148.4860  153.9680  134.3880 F   0  0  0  0  0  0  0  0  0  0  0  0
  149.1250  155.3490  132.7280 F   0  0  0  0  0  0  0  0  0  0  0  0
  147.0190  156.8970  133.2970 C   0  0  0  0  0  0  0  0  0  0  0  0
  145.8940  157.7000  133.5200 C   0  0  0  0  0  0  0  0  0  0  0  0
  149.1101  157.9414  130.2212 H   0  0  0  0  0  0  0  0  0  0  0  0
  147.9468  159.0107  129.3668 H   0  0  0  0  0  0  0  0  0  0  0  0
  149.6986  159.4077  129.3668 H   0  0  0  0  0  0  0  0  0  0  0  0
  149.2496  161.7873  131.9233 H   0  0  0  0  0  0  0  0  0  0  0  0
  150.0371  161.2727  130.3930 H   0  0  0  0  0  0  0  0  0  0  0  0
  148.3092  161.7639  130.3930 H   0  0  0  0  0  0  0  0  0  0  0  0
  149.1246  159.5284  133.3529 H   0  0  0  0  0  0  0  0  0  0  0  0
  149.6095  158.1528  132.3044 H   0  0  0  0  0  0  0  0  0  0  0  0
  150.5766  159.6666  132.3044 H   0  0  0  0  0  0  0  0  0  0  0  0
  145.6220  161.9190  133.3750 H   0  0  0  0  0  0  0  0  0  0  0  0
  142.7079  158.0892  134.2330 H   0  0  0  0  0  0  0  0  0  0  0  0
  143.5527  155.3597  134.3454 H   0  0  0  0  0  0  0  0  0  0  0  0
  145.5445  153.8641  133.9871 H   0  0  0  0  0  0  0  0  0  0  0  0
  147.9724  157.3409  132.9745 H   0  0  0  0  0  0  0  0  0  0  0  0
  1  2  1  0
  2  3  1  0
  2  4  1  0
  2  5  1  0
  5  6  1  0
  6  7  2  0
  6  8  1  0
  8  9  1  0
  9 10  1  0
 10 11  1  0
 10 12  2  0
  9 13  2  0
 13 14  1  0
 14 15  2  0
 15 16  1  0
 16 17  2  0
 17 18  1  0
 18 19  1  0
 18 20  1  0
 18 21  1  0
 17 22  1  0
 22 23  2  0
 23  8  1  0
 23 14  1  0
  1 24  1  0
  1 25  1  0
  1 26  1  0
  3 27  1  0
  3 28  1  0
  3 29  1  0
  4 30  1  0
  4 31  1  0
  4 32  1  0
 11 33  1  0
 13 34  1  0
 15 35  1  0
 16 36  1  0
 22 37  1  0
M  CHG  1  11  -1
M  END
>  <UniqueID>  (10) 
10

>  <SMILES>  (10) 
CC(C)(C)OC(=O)n1c(C([NH-])=O)cc2ccc(C(F)(F)F)cc21

>  <Energy>  (10) 
71.83183249511848

>  <Genealogy>  (10) 
CC(C)(C)OC(=O)n1c(C([NH-])=O)cc2ccc(C(F)(F)F)cc21 (protonated)
CC(C)(C)OC(=O)n1c(C([NH-])=O)cc2ccc(C(F)(F)F)cc21 (3D coordinates assigned)
CC(C)(C)OC(=O)n1c(C([NH-])=O)cc2ccc(C(F)(F)F)cc21 (optimized conformer: 71.83183249511848 kcal/mol)

>  <smiles>  (10) 
CC(C)(C)OC(=O)n1c(C(N)=O)cc2ccc(C(F)(F)F)cc21

>  <score_type>  (10) 
oracle

>  <origin>  (10) 
adg

>  <m_score__min__energy>  (10) 
-6.2000000000000002

>  <m_primary>  (10) 
energy

$$$$
10:0
     RDKit          3D

 44 45  0  0  0  0  0  0  0  0999 V2000
  148.5020  155.2240  132.6350 C   0  0  0  0  0  0  0  0  0  0  0  0
  148.0500  156.6480  132.7730 C   0  0  0  0  0  0  0  0  0  0  0  0
  148.9900  157.7040  132.6900 C   0  0  0  0  0  0  0  0  0  0  0  0
  148.5830  159.0380  132.8630 C   0  0  0  0  0  0  0  0  0  0  0  0
  147.2370  159.2810  133.1240 C   0  0  0  0  0  0  0  0  0  0  0  0
  146.5840  160.4680  133.3600 C   0  0  0  0  0  0  0  0  0  0  0  0
  145.2540  160.1200  133.5810 C   0  0  0  0  0  0  0  0  0  0  0  0
  144.1810  161.1160  133.7830 C   0  0  0  0  0  0  0  0  0  0  0  0
  142.8330  160.7060  133.9990 N   0  0  0  0  0  0  0  0  0  0  0  0
  144.4480  162.3440  133.7120 O   0  0  0  0  0  0  0  0  0  0  0  0
  145.0910  158.7680  133.5000 N   0  0  0  0  0  0  0  0  0  0  0  0
  143.9020  158.0070  133.7730 C   0  0  0  0  0  0  0  0  0  0  0  0
  143.8500  157.2770  134.8000 O   0  0  0  0  0  0  0  0  0  0  0  0
  142.8320  158.0420  132.8700 O   0  0  0  0  0  0  0  0  0  0  0  0
  141.4910  158.2280  133.2310 C   0  0  0  0  0  0  0  0  0  0  0  0
  141.1160  158.1110  134.4290 O   0  0  0  0  0  0  0  0  0  0  0  0
  140.4910  158.5850  132.1740 C   0  0  0  0  0  0  0  0  0  0  0  0
  139.1560  159.0510  132.7780 C   0  0  0  0  0  0  0  0  0  0  0  0
  137.9700  158.9520  131.7990 C   0  0  0  0  0  0  0  0  0  0  0  0
  137.6200  160.2570  131.1960 N   0  0  0  0  0  0  0  0  0  0  0  0
  136.4130  160.1140  130.3650 C   0  0  0  0  0  0  0  0  0  0  0  0
  138.7210  160.7740  130.3640 C   0  0  0  0  0  0  0  0  0  0  0  0
  146.3140  158.2700  133.2100 C   0  0  0  0  0  0  0  0  0  0  0  0
  146.6960  156.9320  133.0540 C   0  0  0  0  0  0  0  0  0  0  0  0
  148.6413  154.7851  133.6340 H   0  0  0  0  0  0  0  0  0  0  0  0
  147.7420  154.6497  132.0849 H   0  0  0  0  0  0  0  0  0  0  0  0
  149.4541  155.1932  132.0849 H   0  0  0  0  0  0  0  0  0  0  0  0
  150.0475  157.4782  132.4884 H   0  0  0  0  0  0  0  0  0  0  0  0
  149.3055  159.8646  132.7944 H   0  0  0  0  0  0  0  0  0  0  0  0
  147.0198  161.4779  133.3717 H   0  0  0  0  0  0  0  0  0  0  0  0
  142.6060  159.7180  134.2540 H   0  0  0  0  0  0  0  0  0  0  0  0
  140.9028  159.3956  131.5548 H   0  0  0  0  0  0  0  0  0  0  0  0
  140.2961  157.6847  131.5727 H   0  0  0  0  0  0  0  0  0  0  0  0
  138.9350  158.4273  133.6568 H   0  0  0  0  0  0  0  0  0  0  0  0
  139.2723  160.1133  133.0387 H   0  0  0  0  0  0  0  0  0  0  0  0
  138.2355  158.2515  130.9935 H   0  0  0  0  0  0  0  0  0  0  0  0
  137.0960  158.6028  132.3684 H   0  0  0  0  0  0  0  0  0  0  0  0
  135.5312  160.0095  131.0142 H   0  0  0  0  0  0  0  0  0  0  0  0
  136.2974  161.0047  129.7300 H   0  0  0  0  0  0  0  0  0  0  0  0
  136.5087  159.2209  129.7300 H   0  0  0  0  0  0  0  0  0  0  0  0
  139.5249  161.1515  131.0130 H   0  0  0  0  0  0  0  0  0  0  0  0
  139.1117  159.9652  129.7290 H   0  0  0  0  0  0  0  0  0  0  0  0
  138.3482  161.5912  129.7290 H   0  0  0  0  0  0  0  0  0  0  0  0
  145.9585  156.1213  133.1482 H   0  0  0  0  0  0  0  0  0  0  0  0
  1  2  1  0
  2  3  2  0
  3  4  1  0
  4  5  2  0
  5  6  1  0
  6  7  2  0
  7  8  1  0
  8  9  1  0
  8 10  2  0
  7 11  1  0
 11 12  1  0
 12 13  2  0
 12 14  1  0
 14 15  1  0
 15 16  2  0
 15 17  1  0
 17 18  1  0
 18 19  1  0
 19 20  1  0
 20 21  1  0
 20 22  1  0
 11 23  1  0
 23 24  2  0
 24  2  1  0
 23  5  1  0
  1 25  1  0
  1 26  1  0
  1 27  1  0
  3 28  1  0
  4 29  1  0
  6 30  1  0
  9 31  1  0
 17 32  1  0
 17 33  1  0
 18 34  1  0
 18 35  1  0
 19 36  1  0
 19 37  1  0
 21 38  1  0
 21 39  1  0
 21 40  1  0
 22 41  1  0
 22 42  1  0
 22 43  1  0
 24 44  1  0
M  CHG  1   9  -1
M  END
>  <UniqueID>  (11) 
11

>  <SMILES>  (11) 
Cc1ccc2cc(C([NH-])=O)n(C(=O)OC(=O)CCCN(C)C)c2c1

>  <Energy>  (11) 
77.7359710207376

>  <Genealogy>  (11) 
Cc1ccc2cc(C([NH-])=O)n(C(=O)OC(=O)CCCN(C)C)c2c1 (protonated)
Cc1ccc2cc(C([NH-])=O)n(C(=O)OC(=O)CCCN(C)C)c2c1 (3D coordinates assigned)
Cc1ccc2cc(C([NH-])=O)n(C(=O)OC(=O)CCCN(C)C)c2c1 (optimized conformer: 77.7359710207376 kcal/mol)

>  <smiles>  (11) 
Cc1ccc2cc(C(N)=O)n(C(=O)OC(=O)CCCN(C)C)c2c1

>  <score_type>  (11) 
oracle

>  <origin>  (11) 
adg

>  <m_score__min__energy>  (11) 
-6.9000000000000004

>  <m_primary>  (11) 
energy

$$$$
11:0
     RDKit          3D

 39 40  0  0  0  0  0  0  0  0999 V2000
  147.9290  152.5980  134.4660 H   0  0  0  0  0  0  0  0  0  0  0  0
  147.9810  153.6370  134.5610 N   0  0  0  0  0  0  0  0  0  0  0  0
  148.1330  154.4700  133.4150 C   0  0  0  0  0  0  0  0  0  0  0  0
  148.6980  154.0090  132.3870 O   0  0  0  0  0  0  0  0  0  0  0  0
  147.6490  155.8670  133.4510 C   0  0  0  0  0  0  0  0  0  0  0  0
  148.4830  156.9790  133.3600 C   0  0  0  0  0  0  0  0  0  0  0  0
  149.5806  156.9853  133.2876 H   0  0  0  0  0  0  0  0  0  0  0  0
  147.6410  158.0690  133.3800 C   0  0  0  0  0  0  0  0  0  0  0  0
  147.9330  159.4290  133.3270 C   0  0  0  0  0  0  0  0  0  0  0  0
  148.9705  159.7828  133.2354 H   0  0  0  0  0  0  0  0  0  0  0  0
  146.8620  160.3360  133.3940 C   0  0  0  0  0  0  0  0  0  0  0  0
  147.0585  161.4169  133.3396 H   0  0  0  0  0  0  0  0  0  0  0  0
  145.5310  159.8700  133.5310 C   0  0  0  0  0  0  0  0  0  0  0  0
  144.3930  160.8460  133.5740 C   0  0  0  0  0  0  0  0  0  0  0  0
  144.1374  161.0652  134.6212 H   0  0  0  0  0  0  0  0  0  0  0  0
  144.6882  161.7760  133.0662 H   0  0  0  0  0  0  0  0  0  0  0  0
  143.5188  160.4125  133.0662 H   0  0  0  0  0  0  0  0  0  0  0  0
  145.2710  158.4830  133.5670 C   0  0  0  0  0  0  0  0  0  0  0  0
  144.2428  158.1035  133.6602 H   0  0  0  0  0  0  0  0  0  0  0  0
  146.3560  157.6040  133.4810 C   0  0  0  0  0  0  0  0  0  0  0  0
  146.3450  156.2540  133.5190 N   0  0  0  0  0  0  0  0  0  0  0  0
  145.1900  155.4130  133.6670 C   0  0  0  0  0  0  0  0  0  0  0  0
  144.6970  155.2470  134.8140 O   0  0  0  0  0  0  0  0  0  0  0  0
  144.6020  154.7670  132.4690 C   0  0  0  0  0  0  0  0  0  0  0  0
  144.0772  155.4254  131.7611 H   0  0  0  0  0  0  0  0  0  0  0  0
  144.6440  153.4610  132.1590 C   0  0  0  0  0  0  0  0  0  0  0  0
  144.1255  153.1479  131.2408 H   0  0  0  0  0  0  0  0  0  0  0  0
  145.3370  152.3860  132.9550 C   0  0  0  0  0  0  0  0  0  0  0  0
  145.3172  152.6580  134.0207 H   0  0  0  0  0  0  0  0  0  0  0  0
  144.8112  151.4339  132.7909 H   0  0  0  0  0  0  0  0  0  0  0  0
  146.7380  152.2300  132.5230 N   0  0  0  0  0  0  0  0  0  0  0  0
  147.3810  152.4500  133.3180 H   0  0  0  0  0  0  0  0  0  0  0  0
  146.9430  152.9040  131.7480 H   0  0  0  0  0  0  0  0  0  0  0  0
  147.0260  150.8570  132.0760 C   0  0  0  0  0  0  0  0  0  0  0  0
  146.2584  150.1821  132.4826 H   0  0  0  0  0  0  0  0  0  0  0  0
  147.0193  150.8477  130.9761 H   0  0  0  0  0  0  0  0  0  0  0  0
  148.3750  150.3910  132.5370 C   0  0  0  0  0  0  0  0  0  0  0  0
  148.7880  149.2420  132.2290 O   0  0  0  0  0  0  0  0  0  0  0  0
  149.1610  151.2120  133.3370 O   0  0  0  0  0  0  0  0  0  0  0  0
  1  2  1  0
  2  3  1  0
  3  4  2  0
  3  5  1  0
  5  6  2  0
  6  7  1  0
  6  8  1  0
  8  9  2  0
  9 10  1  0
  9 11  1  0
 11 12  1  0
 11 13  2  0
 13 14  1  0
 14 15  1  0
 14 16  1  0
 14 17  1  0
 13 18  1  0
 18 19  1  0
 18 20  2  0
 20 21  1  0
 21 22  1  0
 22 23  2  0
 22 24  1  0
 24 25  1  0
 24 26  2  0
 26 27  1  0
 26 28  1  0
 28 29  1  0
 28 30  1  0
 28 31  1  0
 31 32  1  0
 31 33  1  0
 31 34  1  0
 34 35  1  0
 34 36  1  0
 34 37  1  0
 37 38  2  0
 37 39  1  0
 21  5  1  0
 20  8  1  0
M  CHG  3   2  -1  31   1  39  -1
M  END
>  <UniqueID>  (12) 
12

>  <SMILES>  (12) 
Cc1ccc2cc(C([NH-])=O)n(C(=O)/C=C\C[NH2+]CC(=O)[O-])c2c1

>  <Energy>  (12) 
78.43044435875

>  <Genealogy>  (12) 
Cc1ccc2cc(C([NH-])=O)n(C(=O)C=CC[NH2+]CC(=O)[O-])c2c1 (protonated)
Cc1ccc2cc(C([NH-])=O)n(C(=O)/C=C\C[NH2+]CC(=O)[O-])c2c1 (cis-trans isomerization)
Cc1ccc2cc(C([NH-])=O)n(C(=O)/C=C\C[NH2+]CC(=O)[O-])c2c1 (3D coordinates assigned)
Cc1ccc2cc(C([NH-])=O)n(C(=O)/C=C\C[NH2+]CC(=O)[O-])c2c1 (optimized conformer: 78.43044435875 kcal/mol)

>  <smiles>  (12) 
Cc1ccc2cc(C(N)=O)n(C(=O)C=CCNCC(=O)O)c2c1

>  <score_type>  (12) 
oracle

>  <origin>  (12) 
adg

>  <m_score__min__energy>  (12) 
-5.75

>  <m_primary>  (12) 
energy

$$$$
12:0
     RDKit          3D

 42 44  0  0  0  0  0  0  0  0999 V2000
  148.2330  156.7930  132.7140 N   0  0  0  0  0  0  0  0  0  0  0  0
  147.9230  158.0810  133.2430 C   0  0  0  0  0  0  0  0  0  0  0  0
  148.8610  158.8520  133.5770 O   0  0  0  0  0  0  0  0  0  0  0  0
  146.5120  158.4980  133.3850 C   0  0  0  0  0  0  0  0  0  0  0  0
  146.1000  159.8300  133.4290 C   0  0  0  0  0  0  0  0  0  0  0  0
  144.7370  159.7850  133.6150 C   0  0  0  0  0  0  0  0  0  0  0  0
  143.8130  160.8200  133.7310 C   0  0  0  0  0  0  0  0  0  0  0  0
  142.4610  160.4770  133.9070 C   0  0  0  0  0  0  0  0  0  0  0  0
  142.0590  159.1180  133.9400 C   0  0  0  0  0  0  0  0  0  0  0  0
  140.6180  158.7610  134.1740 C   0  0  0  0  0  0  0  0  0  0  0  0
  139.8600  158.9370  132.9400 N   0  0  0  0  0  0  0  0  0  0  0  0
  139.7700  160.0730  132.2230 C   0  0  0  0  0  0  0  0  0  0  0  0
  139.0400  159.8090  131.0850 C   0  0  0  0  0  0  0  0  0  0  0  0
  138.7250  158.4660  131.1730 C   0  0  0  0  0  0  0  0  0  0  0  0
  139.2420  157.9540  132.3070 N   0  0  0  0  0  0  0  0  0  0  0  0
  143.0260  158.0960  133.8270 C   0  0  0  0  0  0  0  0  0  0  0  0
  144.3660  158.4670  133.6770 C   0  0  0  0  0  0  0  0  0  0  0  0
  145.4440  157.6650  133.5420 N   0  0  0  0  0  0  0  0  0  0  0  0
  145.4440  156.2290  133.5500 C   0  0  0  0  0  0  0  0  0  0  0  0
  145.2000  155.5960  132.4860 O   0  0  0  0  0  0  0  0  0  0  0  0
  145.7420  155.4720  134.8100 C   0  0  0  0  0  0  0  0  0  0  0  0
  147.2090  155.2080  134.9200 C   0  0  0  0  0  0  0  0  0  0  0  0
  147.9560  156.0440  135.4980 O   0  0  0  0  0  0  0  0  0  0  0  0
  147.7360  154.0240  134.3870 O   0  0  0  0  0  0  0  0  0  0  0  0
  147.6510  153.6830  133.0050 C   0  0  0  0  0  0  0  0  0  0  0  0
  149.0120  153.6460  132.3800 C   0  0  0  0  0  0  0  0  0  0  0  0
  149.8190  154.5350  132.6040 O   0  0  0  0  0  0  0  0  0  0  0  0
  148.3440  155.9670  133.3430 H   0  0  0  0  0  0  0  0  0  0  0  0
  146.7307  160.7263  133.3350 H   0  0  0  0  0  0  0  0  0  0  0  0
  144.1306  161.8722  133.6864 H   0  0  0  0  0  0  0  0  0  0  0  0
  141.7079  161.2708  134.0202 H   0  0  0  0  0  0  0  0  0  0  0  0
  140.5494  157.7122  134.4986 H   0  0  0  0  0  0  0  0  0  0  0  0
  140.2025  159.4173  134.9529 H   0  0  0  0  0  0  0  0  0  0  0  0
  140.2048  161.0451  132.4986 H   0  0  0  0  0  0  0  0  0  0  0  0
  138.7679  160.5116  130.2835 H   0  0  0  0  0  0  0  0  0  0  0  0
  138.1415  157.9016  130.4308 H   0  0  0  0  0  0  0  0  0  0  0  0
  142.7334  157.0360  133.8561 H   0  0  0  0  0  0  0  0  0  0  0  0
  145.4138  156.0652  135.6763 H   0  0  0  0  0  0  0  0  0  0  0  0
  145.2057  154.5119  134.7867 H   0  0  0  0  0  0  0  0  0  0  0  0
  147.1821  152.6928  132.9063 H   0  0  0  0  0  0  0  0  0  0  0  0
  147.0482  154.4459  132.4907 H   0  0  0  0  0  0  0  0  0  0  0  0
  149.2861  152.8133  131.7155 H   0  0  0  0  0  0  0  0  0  0  0  0
  1  2  1  0
  2  3  2  0
  2  4  1  0
  4  5  2  0
  5  6  1  0
  6  7  2  0
  7  8  1  0
  8  9  2  0
  9 10  1  0
 10 11  1  0
 11 12  1  0
 12 13  2  0
 13 14  1  0
 14 15  2  0
  9 16  1  0
 16 17  2  0
 17 18  1  0
 18 19  1  0
 19 20  2  0
 19 21  1  0
 21 22  1  0
 22 23  2  0
 22 24  1  0
 24 25  1  0
 25 26  1  0
 26 27  2  0
 18  4  1  0
 17  6  1  0
 15 11  1  0
  1 28  1  0
  5 29  1  0
  7 30  1  0
  8 31  1  0
 10 32  1  0
 10 33  1  0
 12 34  1  0
 13 35  1  0
 14 36  1  0
 16 37  1  0
 21 38  1  0
 21 39  1  0
 25 40  1  0
 25 41  1  0
 26 42  1  0
M  CHG  1   1  -1
M  END
>  <UniqueID>  (13) 
13

>  <SMILES>  (13) 
[NH-]C(=O)c1cc2ccc(Cn3cccn3)cc2n1C(=O)CC(=O)OCC=O

>  <Energy>  (13) 
105.22950034889966

>  <Genealogy>  (13) 
[NH-]C(=O)c1cc2ccc(Cn3cccn3)cc2n1C(=O)CC(=O)OCC=O (protonated)
[NH-]C(=O)c1cc2ccc(Cn3cccn3)cc2n1C(=O)CC(=O)OCC=O (3D coordinates assigned)
[NH-]C(=O)c1cc2ccc(Cn3cccn3)cc2n1C(=O)CC(=O)OCC=O (optimized conformer: 105.22950034889966 kcal/mol)

>  <smiles>  (13) 
NC(=O)c1cc2ccc(Cn3cccn3)cc2n1C(=O)CC(=O)OCC=O

>  <score_type>  (13) 
oracle

>  <origin>  (13) 
adg

>  <m_score__min__energy>  (13) 
-7.1799999999999997

>  <m_primary>  (13) 
energy

$$$$
13:0
     RDKit          3D

 54 55  0  0  0  0  0  0  0  0999 V2000
  139.1210  149.1970  129.4910 C   0  0  0  0  0  0  0  0  0  0  0  0
  139.0760  148.1830  130.5560 N   0  0  0  0  0  0  0  0  0  0  0  0
  139.0800  146.8370  129.9600 C   0  0  0  0  0  0  0  0  0  0  0  0
  140.2100  148.3340  131.4880 C   0  0  0  0  0  0  0  0  0  0  0  0
  140.2730  149.7340  132.0470 C   0  0  0  0  0  0  0  0  0  0  0  0
  139.1950  150.3680  132.2010 O   0  0  0  0  0  0  0  0  0  0  0  0
  141.5260  150.3850  132.3530 N   0  0  0  0  0  0  0  0  0  0  0  0
  142.7660  149.6080  132.2210 C   0  0  0  0  0  0  0  0  0  0  0  0
  141.5880  151.7820  132.8170 C   0  0  0  0  0  0  0  0  0  0  0  0
  143.0380  152.2670  132.9860 C   0  0  0  0  0  0  0  0  0  0  0  0
  143.1720  153.7210  133.4740 C   0  0  0  0  0  0  0  0  0  0  0  0
  144.3220  154.5010  132.8170 C   0  0  0  0  0  0  0  0  0  0  0  0
  145.4580  154.7750  133.7680 C   0  0  0  0  0  0  0  0  0  0  0  0
  145.4930  154.1800  134.8790 O   0  0  0  0  0  0  0  0  0  0  0  0
  146.4680  155.7480  133.4490 N   0  0  0  0  0  0  0  0  0  0  0  0
  147.8000  155.5290  133.2410 C   0  0  0  0  0  0  0  0  0  0  0  0
  148.4820  154.2150  133.2330 C   0  0  0  0  0  0  0  0  0  0  0  0
  148.2110  153.2710  134.2660 N   0  0  0  0  0  0  0  0  0  0  0  0
  149.3020  153.9160  132.3240 O   0  0  0  0  0  0  0  0  0  0  0  0
  148.4640  156.7350  133.0260 C   0  0  0  0  0  0  0  0  0  0  0  0
  147.4960  157.7100  133.1210 C   0  0  0  0  0  0  0  0  0  0  0  0
  147.6140  159.0920  133.0390 C   0  0  0  0  0  0  0  0  0  0  0  0
  146.4590  159.8630  133.2400 C   0  0  0  0  0  0  0  0  0  0  0  0
  145.2140  159.2440  133.5140 C   0  0  0  0  0  0  0  0  0  0  0  0
  144.0040  160.1060  133.7720 C   0  0  0  0  0  0  0  0  0  0  0  0
  143.6350  159.9900  135.1000 F   0  0  0  0  0  0  0  0  0  0  0  0
  142.9350  159.7350  132.9780 F   0  0  0  0  0  0  0  0  0  0  0  0
  144.3060  161.4290  133.5030 F   0  0  0  0  0  0  0  0  0  0  0  0
  145.1400  157.8330  133.6050 C   0  0  0  0  0  0  0  0  0  0  0  0
  146.3020  157.0890  133.3800 C   0  0  0  0  0  0  0  0  0  0  0  0
  139.1655  150.1997  129.9411 H   0  0  0  0  0  0  0  0  0  0  0  0
  140.0128  149.0349  128.8678 H   0  0  0  0  0  0  0  0  0  0  0  0
  138.2183  149.1145  128.8678 H   0  0  0  0  0  0  0  0  0  0  0  0
  139.0822  146.0819  130.7598 H   0  0  0  0  0  0  0  0  0  0  0  0
  138.1822  146.7090  129.3374 H   0  0  0  0  0  0  0  0  0  0  0  0
  139.9785  146.7143  129.3374 H   0  0  0  0  0  0  0  0  0  0  0  0
  140.0904  147.6214  132.3174 H   0  0  0  0  0  0  0  0  0  0  0  0
  141.1419  148.1358  130.9383 H   0  0  0  0  0  0  0  0  0  0  0  0
  143.1544  149.3646  133.2209 H   0  0  0  0  0  0  0  0  0  0  0  0
  142.5591  148.6778  131.6716 H   0  0  0  0  0  0  0  0  0  0  0  0
  143.5129  150.1999  131.6716 H   0  0  0  0  0  0  0  0  0  0  0  0
  141.0819  152.4239  132.0809 H   0  0  0  0  0  0  0  0  0  0  0  0
  141.0937  151.8374  133.7981 H   0  0  0  0  0  0  0  0  0  0  0  0
  143.5364  151.6123  133.7160 H   0  0  0  0  0  0  0  0  0  0  0  0
  143.4992  152.2281  131.9881 H   0  0  0  0  0  0  0  0  0  0  0  0
  142.2302  154.2462  133.2569 H   0  0  0  0  0  0  0  0  0  0  0  0
  143.3948  153.6747  134.5502 H   0  0  0  0  0  0  0  0  0  0  0  0
  144.7063  153.9139  131.9699 H   0  0  0  0  0  0  0  0  0  0  0  0
  143.9207  155.4719  132.4910 H   0  0  0  0  0  0  0  0  0  0  0  0
  147.2350  152.9630  134.4690 H   0  0  0  0  0  0  0  0  0  0  0  0
  149.5356  156.8781  132.8231 H   0  0  0  0  0  0  0  0  0  0  0  0
  148.5825  159.5668  132.8233 H   0  0  0  0  0  0  0  0  0  0  0  0
  146.5206  160.9599  133.1843 H   0  0  0  0  0  0  0  0  0  0  0  0
  144.1902  157.3337  133.8471 H   0  0  0  0  0  0  0  0  0  0  0  0
  1  2  1  0
  2  3  1  0
  2  4  1  0
  4  5  1  0
  5  6  2  0
  5  7  1  0
  7  8  1  0
  7  9  1  0
  9 10  1  0
 10 11  1  0
 11 12  1  0
 12 13  1  0
 13 14  2  0
 13 15  1  0
 15 16  1  0
 16 17  1  0
 17 18  1  0
 17 19  2  0
 16 20  2  0
 20 21  1  0
 21 22  2  0
 22 23  1  0
 23 24  2  0
 24 25  1  0
 25 26  1  0
 25 27  1  0
 25 28  1  0
 24 29  1  0
 29 30  2  0
 30 15  1  0
 30 21  1  0
  1 31  1  0
  1 32  1  0
  1 33  1  0
  3 34  1  0
  3 35  1  0
  3 36  1  0
  4 37  1  0
  4 38  1  0
  8 39  1  0
  8 40  1  0
  8 41  1  0
  9 42  1  0
  9 43  1  0
 10 44  1  0
 10 45  1  0
 11 46  1  0
 11 47  1  0
 12 48  1  0
 12 49  1  0
 18 50  1  0
 20 51  1  0
 22 52  1  0
 23 53  1  0
 29 54  1  0
M  CHG  1  18  -1
M  END
>  <UniqueID>  (14) 
14

>  <SMILES>  (14) 
CN(C)CC(=O)N(C)CCCCC(=O)n1c(C([NH-])=O)cc2ccc(C(F)(F)F)cc21

>  <Energy>  (14) 
86.74854192157889

>  <Genealogy>  (14) 
CN(C)CC(=O)N(C)CCCCC(=O)n1c(C([NH-])=O)cc2ccc(C(F)(F)F)cc21 (protonated)
CN(C)CC(=O)N(C)CCCCC(=O)n1c(C([NH-])=O)cc2ccc(C(F)(F)F)cc21 (3D coordinates assigned)
CN(C)CC(=O)N(C)CCCCC(=O)n1c(C([NH-])=O)cc2ccc(C(F)(F)F)cc21 (optimized conformer: 86.74854192157889 kcal/mol)

>  <smiles>  (14) 
CN(C)CC(=O)N(C)CCCCC(=O)n1c(C(N)=O)cc2ccc(C(F)(F)F)cc21

>  <score_type>  (14) 
oracle

>  <origin>  (14) 
adg

>  <m_score__min__energy>  (14) 
-7.4900000000000002

>  <m_primary>  (14) 
energy

$$$$
15:0
     RDKit          3D

 31 32  0  0  0  0  0  0  0  0999 V2000
  139.1740  156.2920  132.4830 N   0  0  0  0  0  0  0  0  0  0  0  0
  140.4120  155.9420  133.1060 C   0  0  0  0  0  0  0  0  0  0  0  0
  140.5550  154.7810  133.5720 O   0  0  0  0  0  0  0  0  0  0  0  0
  141.5240  156.9160  133.1890 C   0  0  0  0  0  0  0  0  0  0  0  0
  142.8750  156.5820  133.0970 C   0  0  0  0  0  0  0  0  0  0  0  0
  143.5590  157.7580  133.3150 C   0  0  0  0  0  0  0  0  0  0  0  0
  144.9260  158.0140  133.3300 C   0  0  0  0  0  0  0  0  0  0  0  0
  145.3470  159.3350  133.5640 C   0  0  0  0  0  0  0  0  0  0  0  0
  144.4000  160.3680  133.7750 C   0  0  0  0  0  0  0  0  0  0  0  0
  144.8520  161.7810  134.0080 C   0  0  0  0  0  0  0  0  0  0  0  0
  145.1160  161.9720  135.3530 F   0  0  0  0  0  0  0  0  0  0  0  0
  143.8600  162.6580  133.6080 F   0  0  0  0  0  0  0  0  0  0  0  0
  143.0200  160.0700  133.7530 C   0  0  0  0  0  0  0  0  0  0  0  0
  142.6330  158.7450  133.5280 C   0  0  0  0  0  0  0  0  0  0  0  0
  141.3830  158.2460  133.4510 N   0  0  0  0  0  0  0  0  0  0  0  0
  140.1680  158.9990  133.5610 C   0  0  0  0  0  0  0  0  0  0  0  0
  139.4400  158.8650  134.5810 O   0  0  0  0  0  0  0  0  0  0  0  0
  139.8170  160.0300  132.5330 C   0  0  0  0  0  0  0  0  0  0  0  0
  138.5020  159.3960  131.4510 P   0  0  0  0  0  0  0  0  0  0  0  0
  137.5070  158.6140  132.2770 O   0  0  0  0  0  0  0  0  0  0  0  0
  137.7130  160.6870  130.6960 O   0  0  0  0  0  0  0  0  0  0  0  0
  139.1750  158.3820  130.2760 O   0  0  0  0  0  0  0  0  0  0  0  0
  138.9890  157.2610  132.1430 H   0  0  0  0  0  0  0  0  0  0  0  0
  138.4140  155.5820  132.3980 H   0  0  0  0  0  0  0  0  0  0  0  0
  143.3037  155.5896  132.8935 H   0  0  0  0  0  0  0  0  0  0  0  0
  145.6555  157.2076  133.1639 H   0  0  0  0  0  0  0  0  0  0  0  0
  146.4217  159.5689  133.5835 H   0  0  0  0  0  0  0  0  0  0  0  0
  145.7661  161.9676  133.4252 H   0  0  0  0  0  0  0  0  0  0  0  0
  142.2694  160.8589  133.9087 H   0  0  0  0  0  0  0  0  0  0  0  0
  139.4673  160.9435  133.0363 H   0  0  0  0  0  0  0  0  0  0  0  0
  140.7071  160.2581  131.9282 H   0  0  0  0  0  0  0  0  0  0  0  0
  1  2  1  0
  2  3  2  0
  2  4  1  0
  4  5  2  0
  5  6  1  0
  6  7  2  0
  7  8  1  0
  8  9  2  0
  9 10  1  0
 10 11  1  0
 10 12  1  0
  9 13  1  0
 13 14  2  0
 14 15  1  0
 15 16  1  0
 16 17  2  0
 16 18  1  0
 18 19  1  0
 19 20  2  0
 19 21  1  0
 19 22  1  0
 15  4  1  0
 14  6  1  0
  1 23  1  0
  1 24  1  0
  5 25  1  0
  7 26  1  0
  8 27  1  0
 10 28  1  0
 13 29  1  0
 18 30  1  0
 18 31  1  0
M  CHG  2  21  -1  22  -1
M  END
>  <UniqueID>  (15) 
15

>  <SMILES>  (15) 
NC(=O)c1cc2ccc(C(F)F)cc2n1C(=O)CP(=O)([O-])[O-]

>  <Energy>  (15) 
64.74102091683316

>  <Genealogy>  (15) 
NC(=O)c1cc2ccc(C(F)F)cc2n1C(=O)CP(=O)([O-])[O-] (protonated)
NC(=O)c1cc2ccc(C(F)F)cc2n1C(=O)CP(=O)([O-])[O-] (3D coordinates assigned)
NC(=O)c1cc2ccc(C(F)F)cc2n1C(=O)CP(=O)([O-])[O-] (optimized conformer: 64.74102091683316 kcal/mol)

>  <smiles>  (15) 
NC(=O)c1cc2ccc(C(F)F)cc2n1C(=O)CP(=O)(O)O

>  <score_type>  (15) 
oracle

>  <origin>  (15) 
adg

>  <m_score__min__energy>  (15) 
-5.7400000000000002

>  <m_primary>  (15) 
energy

$$$$
16:0
     RDKit          3D

 44 45  0  0  0  0  0  0  0  0999 V2000
  139.2020  157.7790  132.7450 C   0  0  0  0  0  0  0  0  0  0  0  0
  139.4430  156.9550  134.0110 C   0  0  1  0  0  0  0  0  0  0  0  0
  140.5920  156.1210  133.8610 O   0  0  0  0  0  0  0  0  0  0  0  0
  140.5620  154.8680  133.2360 C   0  0  0  0  0  0  0  0  0  0  0  0
  139.4640  154.3410  132.9090 O   0  0  0  0  0  0  0  0  0  0  0  0
  141.7910  154.1700  132.9900 N   0  0  0  0  0  0  0  0  0  0  0  0
  143.0500  154.6850  133.0030 C   0  0  0  0  0  0  0  0  0  0  0  0
  143.3930  156.1180  133.0790 C   0  0  0  0  0  0  0  0  0  0  0  0
  142.5040  157.1170  132.5780 N   0  0  0  0  0  0  0  0  0  0  0  0
  144.5090  156.4640  133.5480 O   0  0  0  0  0  0  0  0  0  0  0  0
  143.9970  153.6720  132.8750 C   0  0  0  0  0  0  0  0  0  0  0  0
  143.2700  152.5080  132.7680 C   0  0  0  0  0  0  0  0  0  0  0  0
  143.7010  151.1920  132.6450 C   0  0  0  0  0  0  0  0  0  0  0  0
  142.7270  150.1800  132.6010 C   0  0  0  0  0  0  0  0  0  0  0  0
  141.3450  150.4980  132.6680 C   0  0  0  0  0  0  0  0  0  0  0  0
  140.3100  149.4020  132.6830 C   0  0  0  0  0  0  0  0  0  0  0  0
  140.6660  148.3780  131.8220 F   0  0  0  0  0  0  0  0  0  0  0  0
  139.0780  149.8920  132.2880 F   0  0  0  0  0  0  0  0  0  0  0  0
  140.2040  148.8960  133.9650 F   0  0  0  0  0  0  0  0  0  0  0  0
  140.9480  151.8480  132.8170 C   0  0  0  0  0  0  0  0  0  0  0  0
  141.9400  152.8350  132.8400 C   0  0  0  0  0  0  0  0  0  0  0  0
  139.5960  157.8500  135.2190 C   0  0  0  0  0  0  0  0  0  0  0  0
  138.5480  158.2320  135.8090 O   0  0  0  0  0  0  0  0  0  0  0  0
  140.8780  158.3360  135.6780 N   0  0  0  0  0  0  0  0  0  0  0  0
  141.8010  157.3810  136.2990 C   0  0  0  0  0  0  0  0  0  0  0  0
  141.3450  159.6980  135.3850 C   0  0  0  0  0  0  0  0  0  0  0  0
  142.0660  159.7230  134.0750 C   0  0  0  0  0  0  0  0  0  0  0  0
  141.4190  159.8270  133.0010 O   0  0  0  0  0  0  0  0  0  0  0  0
  143.4540  159.6690  134.0380 O   0  0  0  0  0  0  0  0  0  0  0  0
  138.9033  158.8004  133.0236 H   0  0  0  0  0  0  0  0  0  0  0  0
  140.1267  157.8167  132.1505 H   0  0  0  0  0  0  0  0  0  0  0  0
  138.4027  157.3125  132.1505 H   0  0  0  0  0  0  0  0  0  0  0  0
  138.5638  156.3128  134.1676 H   0  0  0  0  0  0  0  0  0  0  0  0
  142.7420  158.1280  132.6790 H   0  0  0  0  0  0  0  0  0  0  0  0
  141.6490  156.8580  132.0380 H   0  0  0  0  0  0  0  0  0  0  0  0
  145.0917  153.7791  132.8621 H   0  0  0  0  0  0  0  0  0  0  0  0
  144.7724  150.9502  132.5840 H   0  0  0  0  0  0  0  0  0  0  0  0
  143.0391  149.1288  132.5136 H   0  0  0  0  0  0  0  0  0  0  0  0
  139.8852  152.1153  132.9125 H   0  0  0  0  0  0  0  0  0  0  0  0
  141.7265  157.4580  137.3938 H   0  0  0  0  0  0  0  0  0  0  0  0
  141.5386  156.3601  135.9846 H   0  0  0  0  0  0  0  0  0  0  0  0
  142.8303  157.6084  135.9846 H   0  0  0  0  0  0  0  0  0  0  0  0
  140.4807  160.3767  135.3377 H   0  0  0  0  0  0  0  0  0  0  0  0
  142.0321  160.0221  136.1805 H   0  0  0  0  0  0  0  0  0  0  0  0
  1  2  1  0
  2  3  1  0
  3  4  1  0
  4  5  2  0
  4  6  1  0
  6  7  1  0
  7  8  1  0
  8  9  1  0
  8 10  2  0
  7 11  2  0
 11 12  1  0
 12 13  2  0
 13 14  1  0
 14 15  2  0
 15 16  1  0
 16 17  1  0
 16 18  1  0
 16 19  1  0
 15 20  1  0
 20 21  2  0
  2 22  1  0
 22 23  2  0
 22 24  1  0
 24 25  1  0
 24 26  1  0
 26 27  1  0
 27 28  2  0
 27 29  1  0
 21  6  1  0
 21 12  1  0
  1 30  1  0
  1 31  1  0
  1 32  1  0
  2 33  1  1
  9 34  1  0
  9 35  1  0
 11 36  1  0
 13 37  1  0
 14 38  1  0
 20 39  1  0
 25 40  1  0
 25 41  1  0
 25 42  1  0
 26 43  1  0
 26 44  1  0
M  CHG  1  29  -1
M  END
>  <UniqueID>  (16) 
16

>  <SMILES>  (16) 
C[C@@H](OC(=O)n1c(C(N)=O)cc2ccc(C(F)(F)F)cc21)C(=O)N(C)CC(=O)[O-]

>  <Energy>  (16) 
78.85720632251831

>  <Genealogy>  (16) 
CC(OC(=O)n1c(C(N)=O)cc2ccc(C(F)(F)F)cc21)C(=O)N(C)CC(=O)[O-] (protonated)
C[C@@H](OC(=O)n1c(C(N)=O)cc2ccc(C(F)(F)F)cc21)C(=O)N(C)CC(=O)[O-] (chirality)
C[C@@H](OC(=O)n1c(C(N)=O)cc2ccc(C(F)(F)F)cc21)C(=O)N(C)CC(=O)[O-] (3D coordinates assigned)
C[C@@H](OC(=O)n1c(C(N)=O)cc2ccc(C(F)(F)F)cc21)C(=O)N(C)CC(=O)[O-] (optimized conformer: 78.85720632251831 kcal/mol)

>  <smiles>  (16) 
CC(OC(=O)n1c(C(N)=O)cc2ccc(C(F)(F)F)cc21)C(=O)N(C)CC(=O)O

>  <score_type>  (16) 
oracle

>  <origin>  (16) 
adg

>  <m_score__min__energy>  (16) 
-6.7000000000000002

>  <m_primary>  (16) 
energy

$$$$
17:0
     RDKit          3D

 46 47  0  0  0  0  0  0  0  0999 V2000
  148.1150  154.8640  133.4880 C   0  0  0  0  0  0  0  0  0  0  0  0
  147.4730  156.2080  133.3070 C   0  0  0  0  0  0  0  0  0  0  0  0
  148.2300  157.2930  132.8030 C   0  0  0  0  0  0  0  0  0  0  0  0
  147.6470  158.5630  132.6520 C   0  0  0  0  0  0  0  0  0  0  0  0
  146.3180  158.7190  133.0330 C   0  0  0  0  0  0  0  0  0  0  0  0
  145.5040  159.8270  132.9710 C   0  0  0  0  0  0  0  0  0  0  0  0
  144.2750  159.4120  133.4770 C   0  0  0  0  0  0  0  0  0  0  0  0
  143.1250  160.3200  133.6660 C   0  0  0  0  0  0  0  0  0  0  0  0
  141.7940  159.8160  133.7170 N   0  0  0  0  0  0  0  0  0  0  0  0
  143.3250  161.5520  133.8340 O   0  0  0  0  0  0  0  0  0  0  0  0
  144.3230  158.0970  133.8310 N   0  0  0  0  0  0  0  0  0  0  0  0
  143.2390  157.2740  134.2910 C   0  0  0  0  0  0  0  0  0  0  0  0
  142.6220  157.5750  135.3490 O   0  0  0  0  0  0  0  0  0  0  0  0
  142.8880  156.1270  133.5720 O   0  0  0  0  0  0  0  0  0  0  0  0
  143.0680  154.8110  134.0850 C   0  0  0  0  0  0  0  0  0  0  0  0
  141.7990  154.2030  134.2940 O   0  0  0  0  0  0  0  0  0  0  0  0
  140.7940  154.1940  133.3220 C   0  0  0  0  0  0  0  0  0  0  0  0
  140.5980  153.1730  132.6060 O   0  0  0  0  0  0  0  0  0  0  0  0
  139.9780  155.4250  133.0920 C   0  0  0  0  0  0  0  0  0  0  0  0
  140.2520  156.4220  134.1260 N   0  0  0  0  0  0  0  0  0  0  0  0
  139.4010  157.5560  134.3180 C   0  0  0  0  0  0  0  0  0  0  0  0
  138.3970  157.7290  133.5730 O   0  0  0  0  0  0  0  0  0  0  0  0
  139.7060  158.4760  135.3270 O   0  0  0  0  0  0  0  0  0  0  0  0
  139.8440  158.1240  136.7030 C   0  0  0  0  0  0  0  0  0  0  0  0
  140.9610  158.9340  137.3630 C   0  0  0  0  0  0  0  0  0  0  0  0
  141.6160  159.7450  136.4270 O   0  0  0  0  0  0  0  0  0  0  0  0
  145.5810  157.6870  133.5550 C   0  0  0  0  0  0  0  0  0  0  0  0
  146.1310  156.4070  133.6980 C   0  0  0  0  0  0  0  0  0  0  0  0
  148.2180  154.6485  134.5618 H   0  0  0  0  0  0  0  0  0  0  0  0
  147.4884  154.0920  133.0175 H   0  0  0  0  0  0  0  0  0  0  0  0
  149.1093  154.8662  133.0175 H   0  0  0  0  0  0  0  0  0  0  0  0
  149.2839  157.1407  132.5271 H   0  0  0  0  0  0  0  0  0  0  0  0
  148.2234  159.4071  132.2454 H   0  0  0  0  0  0  0  0  0  0  0  0
  145.7683  160.8283  132.6002 H   0  0  0  0  0  0  0  0  0  0  0  0
  141.5320  159.0570  134.3850 H   0  0  0  0  0  0  0  0  0  0  0  0
  143.6463  154.2133  133.3651 H   0  0  0  0  0  0  0  0  0  0  0  0
  143.6105  154.8623  135.0405 H   0  0  0  0  0  0  0  0  0  0  0  0
  140.2285  155.8465  132.1073 H   0  0  0  0  0  0  0  0  0  0  0  0
  138.9118  155.1571  133.1299 H   0  0  0  0  0  0  0  0  0  0  0  0
  141.0810  156.3170  134.7550 H   0  0  0  0  0  0  0  0  0  0  0  0
  138.8963  158.3263  137.2235 H   0  0  0  0  0  0  0  0  0  0  0  0
  140.0976  157.0557  136.7693 H   0  0  0  0  0  0  0  0  0  0  0  0
  140.5275  159.5702  138.1487 H   0  0  0  0  0  0  0  0  0  0  0  0
  141.6932  158.2344  137.7925 H   0  0  0  0  0  0  0  0  0  0  0  0
  141.4250  159.3580  135.5330 H   0  0  0  0  0  0  0  0  0  0  0  0
  145.5329  155.5781  134.1044 H   0  0  0  0  0  0  0  0  0  0  0  0
  1  2  1  0
  2  3  2  0
  3  4  1  0
  4  5  2  0
  5  6  1  0
  6  7  2  0
  7  8  1  0
  8  9  1  0
  8 10  2  0
  7 11  1  0
 11 12  1  0
 12 13  2  0
 12 14  1  0
 14 15  1  0
 15 16  1  0
 16 17  1  0
 17 18  2  0
 17 19  1  0
 19 20  1  0
 20 21  1  0
 21 22  2  0
 21 23  1  0
 23 24  1  0
 24 25  1  0
 25 26  1  0
 11 27  1  0
 27 28  2  0
 28  2  1  0
 27  5  1  0
  1 29  1  0
  1 30  1  0
  1 31  1  0
  3 32  1  0
  4 33  1  0
  6 34  1  0
  9 35  1  0
 15 36  1  0
 15 37  1  0
 19 38  1  0
 19 39  1  0
 20 40  1  0
 24 41  1  0
 24 42  1  0
 25 43  1  0
 25 44  1  0
 26 45  1  0
 28 46  1  0
M  CHG  1   9  -1
M  END
>  <UniqueID>  (17) 
17

>  <SMILES>  (17) 
Cc1ccc2cc(C([NH-])=O)n(C(=O)OCOC(=O)CNC(=O)OCCO)c2c1

>  <Energy>  (17) 
74.27407548278448

>  <Genealogy>  (17) 
Cc1ccc2cc(C([NH-])=O)n(C(=O)OCOC(=O)CNC(=O)OCCO)c2c1 (protonated)
Cc1ccc2cc(C([NH-])=O)n(C(=O)OCOC(=O)CNC(=O)OCCO)c2c1 (3D coordinates assigned)
Cc1ccc2cc(C([NH-])=O)n(C(=O)OCOC(=O)CNC(=O)OCCO)c2c1 (optimized conformer: 74.27407548278448 kcal/mol)

>  <smiles>  (17) 
Cc1ccc2cc(C(N)=O)n(C(=O)OCOC(=O)CNC(=O)OCCO)c2c1

>  <score_type>  (17) 
oracle

>  <origin>  (17) 
adg

>  <m_score__min__energy>  (17) 
-5.4299999999999997

>  <m_primary>  (17) 
energy

$$$$
18:0
     RDKit          3D

 40 41  0  0  0  0  0  0  0  0999 V2000
  141.6830  157.9990  132.6290 C   0  0  0  0  0  0  0  0  0  0  0  0
  140.5480  157.8780  133.5540 N   0  0  0  0  0  0  0  0  0  0  0  0
  140.4260  158.8360  134.6540 C   0  0  0  0  0  0  0  0  0  0  0  0
  141.6960  158.8960  135.4360 C   0  0  0  0  0  0  0  0  0  0  0  0
  141.8340  158.2030  136.4800 O   0  0  0  0  0  0  0  0  0  0  0  0
  142.7350  159.7210  135.0090 O   0  0  0  0  0  0  0  0  0  0  0  0
  139.6120  156.7800  133.4390 C   0  0  0  0  0  0  0  0  0  0  0  0
  138.3730  157.0170  133.4230 O   0  0  0  0  0  0  0  0  0  0  0  0
  140.0650  155.3530  133.2650 C   0  0  0  0  0  0  0  0  0  0  0  0
  141.1540  155.0040  134.2450 C   0  0  0  0  0  0  0  0  0  0  0  0
  140.9820  155.2550  135.4710 O   0  0  0  0  0  0  0  0  0  0  0  0
  142.3160  154.2530  133.8340 N   0  0  0  0  0  0  0  0  0  0  0  0
  143.5960  154.7010  133.6930 C   0  0  0  0  0  0  0  0  0  0  0  0
  144.1100  156.0110  134.1180 C   0  0  0  0  0  0  0  0  0  0  0  0
  143.3930  156.7720  135.0970 N   0  0  0  0  0  0  0  0  0  0  0  0
  145.1270  156.5110  133.5660 O   0  0  0  0  0  0  0  0  0  0  0  0
  144.4210  153.6910  133.2050 C   0  0  0  0  0  0  0  0  0  0  0  0
  143.6060  152.5950  133.0580 C   0  0  0  0  0  0  0  0  0  0  0  0
  143.9100  151.3100  132.6160 C   0  0  0  0  0  0  0  0  0  0  0  0
  142.8700  150.3670  132.5670 C   0  0  0  0  0  0  0  0  0  0  0  0
  141.5430  150.7320  132.9140 C   0  0  0  0  0  0  0  0  0  0  0  0
  140.4530  149.6860  132.9080 C   0  0  0  0  0  0  0  0  0  0  0  0
  140.2200  149.2180  134.1910 F   0  0  0  0  0  0  0  0  0  0  0  0
  139.2910  150.2510  132.4210 F   0  0  0  0  0  0  0  0  0  0  0  0
  140.8090  148.6080  132.1170 F   0  0  0  0  0  0  0  0  0  0  0  0
  141.2770  152.0470  133.3700 C   0  0  0  0  0  0  0  0  0  0  0  0
  142.3390  152.9590  133.4380 C   0  0  0  0  0  0  0  0  0  0  0  0
  142.6155  158.0984  133.2039 H   0  0  0  0  0  0  0  0  0  0  0  0
  141.7368  157.1015  131.9953 H   0  0  0  0  0  0  0  0  0  0  0  0
  141.5464  158.8877  131.9953 H   0  0  0  0  0  0  0  0  0  0  0  0
  140.2057  159.8326  134.2438 H   0  0  0  0  0  0  0  0  0  0  0  0
  139.6123  158.5126  135.3198 H   0  0  0  0  0  0  0  0  0  0  0  0
  139.2083  154.6823  133.4268 H   0  0  0  0  0  0  0  0  0  0  0  0
  140.4625  155.2355  132.2461 H   0  0  0  0  0  0  0  0  0  0  0  0
  143.6450  157.7680  135.2880 H   0  0  0  0  0  0  0  0  0  0  0  0
  142.5990  156.3460  135.6260 H   0  0  0  0  0  0  0  0  0  0  0  0
  145.4966  153.7568  132.9842 H   0  0  0  0  0  0  0  0  0  0  0  0
  144.9332  151.0416  132.3144 H   0  0  0  0  0  0  0  0  0  0  0  0
  143.0864  149.3342  132.2563 H   0  0  0  0  0  0  0  0  0  0  0  0
  140.2598  152.3453  133.6640 H   0  0  0  0  0  0  0  0  0  0  0  0
  1  2  1  0
  2  3  1  0
  3  4  1  0
  4  5  2  0
  4  6  1  0
  2  7  1  0
  7  8  2  0
  7  9  1  0
  9 10  1  0
 10 11  2  0
 10 12  1  0
 12 13  1  0
 13 14  1  0
 14 15  1  0
 14 16  2  0
 13 17  2  0
 17 18  1  0
 18 19  2  0
 19 20  1  0
 20 21  2  0
 21 22  1  0
 22 23  1  0
 22 24  1  0
 22 25  1  0
 21 26  1  0
 26 27  2  0
 27 12  1  0
 27 18  1  0
  1 28  1  0
  1 29  1  0
  1 30  1  0
  3 31  1  0
  3 32  1  0
  9 33  1  0
  9 34  1  0
 15 35  1  0
 15 36  1  0
 17 37  1  0
 19 38  1  0
 20 39  1  0
 26 40  1  0
M  CHG  1   6  -1
M  END
>  <UniqueID>  (18) 
18

>  <SMILES>  (18) 
CN(CC(=O)[O-])C(=O)CC(=O)n1c(C(N)=O)cc2ccc(C(F)(F)F)cc21

>  <Energy>  (18) 
79.36289421778723

>  <Genealogy>  (18) 
CN(CC(=O)[O-])C(=O)CC(=O)n1c(C(N)=O)cc2ccc(C(F)(F)F)cc21 (protonated)
CN(CC(=O)[O-])C(=O)CC(=O)n1c(C(N)=O)cc2ccc(C(F)(F)F)cc21 (3D coordinates assigned)
CN(CC(=O)[O-])C(=O)CC(=O)n1c(C(N)=O)cc2ccc(C(F)(F)F)cc21 (optimized conformer: 79.36289421778723 kcal/mol)

>  <smiles>  (18) 
CN(CC(=O)O)C(=O)CC(=O)n1c(C(N)=O)cc2ccc(C(F)(F)F)cc21

>  <score_type>  (18) 
oracle

>  <origin>  (18) 
adg

>  <m_score__min__energy>  (18) 
-6.7699999999999996

>  <m_primary>  (18) 
energy

$$$$
19:0
     RDKit          3D

 41 43  0  0  0  0  0  0  0  0999 V2000
  142.1040  158.4330  132.6240 N   0  0  0  0  0  0  0  0  0  0  0  0
  142.4800  157.5540  133.6830 C   0  0  0  0  0  0  0  0  0  0  0  0
  142.8790  158.0400  134.7740 O   0  0  0  0  0  0  0  0  0  0  0  0
  142.4280  156.0880  133.5010 C   0  0  0  0  0  0  0  0  0  0  0  0
  143.5320  155.2460  133.6160 C   0  0  0  0  0  0  0  0  0  0  0  0
  143.0430  153.9760  133.4060 C   0  0  0  0  0  0  0  0  0  0  0  0
  143.7130  152.7580  133.3500 C   0  0  0  0  0  0  0  0  0  0  0  0
  142.9700  151.6110  133.0220 C   0  0  0  0  0  0  0  0  0  0  0  0
  141.5810  151.7010  132.7490 C   0  0  0  0  0  0  0  0  0  0  0  0
  140.8450  150.5400  132.3160 N   0  0  0  0  0  0  0  0  0  0  0  0
  139.4520  150.7290  131.8720 C   0  0  0  0  0  0  0  0  0  0  0  0
  138.7460  149.4070  131.5550 C   0  0  0  0  0  0  0  0  0  0  0  0
  139.6210  148.5020  130.9150 O   0  0  0  0  0  0  0  0  0  0  0  0
  140.6120  148.1060  131.8390 C   0  0  0  0  0  0  0  0  0  0  0  0
  141.5670  149.2700  132.1190 C   0  0  0  0  0  0  0  0  0  0  0  0
  140.9330  152.9540  132.8390 C   0  0  0  0  0  0  0  0  0  0  0  0
  141.6950  154.0760  133.1810 C   0  0  0  0  0  0  0  0  0  0  0  0
  141.3020  155.3670  133.2440 N   0  0  0  0  0  0  0  0  0  0  0  0
  139.9900  155.8730  132.9540 C   0  0  0  0  0  0  0  0  0  0  0  0
  138.9710  155.2010  133.2730 O   0  0  0  0  0  0  0  0  0  0  0  0
  139.8500  157.0970  132.2880 O   0  0  0  0  0  0  0  0  0  0  0  0
  138.7710  157.9980  132.5290 C   0  0  0  0  0  0  0  0  0  0  0  0
  139.0080  159.2890  131.8110 C   0  0  0  0  0  0  0  0  0  0  0  0
  138.0370  160.0080  131.4640 O   0  0  0  0  0  0  0  0  0  0  0  0
  140.3050  159.7350  131.5850 O   0  0  0  0  0  0  0  0  0  0  0  0
  142.1780  159.4690  132.7510 H   0  0  0  0  0  0  0  0  0  0  0  0
  141.7200  158.0660  131.7260 H   0  0  0  0  0  0  0  0  0  0  0  0
  144.5720  155.5341  133.8290 H   0  0  0  0  0  0  0  0  0  0  0  0
  144.7916  152.6946  133.5562 H   0  0  0  0  0  0  0  0  0  0  0  0
  143.4711  150.6328  132.9765 H   0  0  0  0  0  0  0  0  0  0  0  0
  138.8953  151.2423  132.6698 H   0  0  0  0  0  0  0  0  0  0  0  0
  139.4769  151.3218  130.9457 H   0  0  0  0  0  0  0  0  0  0  0  0
  138.3879  148.9575  132.4929 H   0  0  0  0  0  0  0  0  0  0  0  0
  137.9039  149.6150  130.8786 H   0  0  0  0  0  0  0  0  0  0  0  0
  140.1305  147.7966  132.7784 H   0  0  0  0  0  0  0  0  0  0  0  0
  141.1829  147.2662  131.4162 H   0  0  0  0  0  0  0  0  0  0  0  0
  142.1447  149.0450  133.0277 H   0  0  0  0  0  0  0  0  0  0  0  0
  142.2273  149.3857  131.2469 H   0  0  0  0  0  0  0  0  0  0  0  0
  139.8541  153.0447  132.6445 H   0  0  0  0  0  0  0  0  0  0  0  0
  137.8341  157.5481  132.1686 H   0  0  0  0  0  0  0  0  0  0  0  0
  138.7010  158.1947  133.6090 H   0  0  0  0  0  0  0  0  0  0  0  0
  1  2  1  0
  2  3  2  0
  2  4  1  0
  4  5  2  0
  5  6  1  0
  6  7  2  0
  7  8  1  0
  8  9  2  0
  9 10  1  0
 10 11  1  0
 11 12  1  0
 12 13  1  0
 13 14  1  0
 14 15  1  0
  9 16  1  0
 16 17  2  0
 17 18  1  0
 18 19  1  0
 19 20  2  0
 19 21  1  0
 21 22  1  0
 22 23  1  0
 23 24  2  0
 23 25  1  0
 18  4  1  0
 17  6  1  0
 15 10  1  0
  1 26  1  0
  1 27  1  0
  5 28  1  0
  7 29  1  0
  8 30  1  0
 11 31  1  0
 11 32  1  0
 12 33  1  0
 12 34  1  0
 14 35  1  0
 14 36  1  0
 15 37  1  0
 15 38  1  0
 16 39  1  0
 22 40  1  0
 22 41  1  0
M  CHG  1  25  -1
M  END
>  <UniqueID>  (19) 
19

>  <SMILES>  (19) 
NC(=O)c1cc2ccc(N3CCOCC3)cc2n1C(=O)OCC(=O)[O-]

>  <Energy>  (19) 
86.59344586031983

>  <Genealogy>  (19) 
NC(=O)c1cc2ccc(N3CCOCC3)cc2n1C(=O)OCC(=O)[O-] (protonated)
NC(=O)c1cc2ccc(N3CCOCC3)cc2n1C(=O)OCC(=O)[O-] (3D coordinates assigned)
NC(=O)c1cc2ccc(N3CCOCC3)cc2n1C(=O)OCC(=O)[O-] (nonaromatic ring conformer: 86.59344586031983 kcal/mol)

>  <smiles>  (19) 
NC(=O)c1cc2ccc(N3CCOCC3)cc2n1C(=O)OCC(=O)O

>  <score_type>  (19) 
oracle

>  <origin>  (19) 
adg

>  <m_score__min__energy>  (19) 
-7.6299999999999999

>  <m_primary>  (19) 
energy

$$$$
20:0
     RDKit          3D

 37 39  0  0  0  0  0  0  0  0999 V2000
  139.5040  157.8580  135.9040 C   0  0  0  0  0  0  0  0  0  0  0  0
  139.4270  157.8630  134.4120 C   0  0  0  0  0  0  0  0  0  0  0  0
  138.5720  158.5710  133.7120 O   0  0  0  0  0  0  0  0  0  0  0  0
  138.8310  158.3040  132.4530 C   0  0  0  0  0  0  0  0  0  0  0  0
  138.2020  158.8090  131.4880 O   0  0  0  0  0  0  0  0  0  0  0  0
  139.8200  157.4510  132.3100 O   0  0  0  0  0  0  0  0  0  0  0  0
  140.2170  157.1520  133.5250 C   0  0  0  0  0  0  0  0  0  0  0  0
  141.3300  156.2010  133.8400 C   0  0  0  0  0  0  0  0  0  0  0  0
  142.5030  156.9170  134.2150 O   0  0  0  0  0  0  0  0  0  0  0  0
  143.5740  157.1520  133.3440 C   0  0  0  0  0  0  0  0  0  0  0  0
  143.9700  156.2440  132.5650 O   0  0  0  0  0  0  0  0  0  0  0  0
  144.2290  158.4320  133.3490 N   0  0  0  0  0  0  0  0  0  0  0  0
  143.6680  159.6430  133.6200 C   0  0  0  0  0  0  0  0  0  0  0  0
  142.2260  159.9080  133.7830 C   0  0  0  0  0  0  0  0  0  0  0  0
  141.2970  159.5940  132.7440 N   0  0  0  0  0  0  0  0  0  0  0  0
  141.8140  160.4730  134.8300 O   0  0  0  0  0  0  0  0  0  0  0  0
  144.6400  160.6380  133.6700 C   0  0  0  0  0  0  0  0  0  0  0  0
  145.8290  159.9970  133.4060 C   0  0  0  0  0  0  0  0  0  0  0  0
  147.1240  160.5030  133.3440 C   0  0  0  0  0  0  0  0  0  0  0  0
  148.1720  159.6030  133.0900 C   0  0  0  0  0  0  0  0  0  0  0  0
  147.9090  158.2240  132.9120 C   0  0  0  0  0  0  0  0  0  0  0  0
  148.9870  157.3170  132.6670 N   0  0  0  0  0  0  0  0  0  0  0  0
  146.5840  157.7430  132.9830 C   0  0  0  0  0  0  0  0  0  0  0  0
  145.5550  158.6650  133.2170 C   0  0  0  0  0  0  0  0  0  0  0  0
  138.4894  157.9240  136.3237 H   0  0  0  0  0  0  0  0  0  0  0  0
  139.9814  156.9269  136.2434 H   0  0  0  0  0  0  0  0  0  0  0  0
  140.0979  158.7194  136.2434 H   0  0  0  0  0  0  0  0  0  0  0  0
  141.0239  155.5467  134.6695 H   0  0  0  0  0  0  0  0  0  0  0  0
  141.5495  155.5994  132.9456 H   0  0  0  0  0  0  0  0  0  0  0  0
  140.2750  159.7490  132.8890 H   0  0  0  0  0  0  0  0  0  0  0  0
  141.6280  159.2840  131.8040 H   0  0  0  0  0  0  0  0  0  0  0  0
  144.4900  161.7080  133.8764 H   0  0  0  0  0  0  0  0  0  0  0  0
  147.3208  161.5754  133.4895 H   0  0  0  0  0  0  0  0  0  0  0  0
  149.2060  159.9733  133.0289 H   0  0  0  0  0  0  0  0  0  0  0  0
  149.7670  157.2170  133.3540 H   0  0  0  0  0  0  0  0  0  0  0  0
  149.0120  156.7400  131.7980 H   0  0  0  0  0  0  0  0  0  0  0  0
  146.3648  156.6723  132.8579 H   0  0  0  0  0  0  0  0  0  0  0  0
  1  2  1  0
  2  3  1  0
  3  4  1  0
  4  5  2  0
  4  6  1  0
  6  7  1  0
  7  8  1  0
  8  9  1  0
  9 10  1  0
 10 11  2  0
 10 12  1  0
 12 13  1  0
 13 14  1  0
 14 15  1  0
 14 16  2  0
 13 17  2  0
 17 18  1  0
 18 19  2  0
 19 20  1  0
 20 21  2  0
 21 22  1  0
 21 23  1  0
 23 24  2  0
  7  2  2  0
 24 12  1  0
 24 18  1  0
  1 25  1  0
  1 26  1  0
  1 27  1  0
  8 28  1  0
  8 29  1  0
 15 30  1  0
 15 31  1  0
 17 32  1  0
 19 33  1  0
 20 34  1  0
 22 35  1  0
 22 36  1  0
 23 37  1  0
M  END
>  <UniqueID>  (20) 
20

>  <SMILES>  (20) 
Cc1oc(=O)oc1COC(=O)n1c(C(N)=O)cc2ccc(N)cc21

>  <Energy>  (20) 
106.89408568063116

>  <Genealogy>  (20) 
Cc1oc(=O)oc1COC(=O)n1c(C(N)=O)cc2ccc(N)cc21 (3D coordinates assigned)
Cc1oc(=O)oc1COC(=O)n1c(C(N)=O)cc2ccc(N)cc21 (optimized conformer: 106.89408568063116 kcal/mol)

>  <smiles>  (20) 
Cc1oc(=O)oc1COC(=O)n1c(C(N)=O)cc2ccc(N)cc21

>  <score_type>  (20) 
oracle

>  <origin>  (20) 
adg

>  <m_score__min__energy>  (20) 
-7.04

>  <m_primary>  (20) 
energy

$$$$
21:0
     RDKit          3D

 37 38  0  0  0  0  0  0  0  0999 V2000
  144.4610  153.3340  138.4290 N   0  0  0  0  0  0  0  0  0  0  0  0
  143.0760  153.4110  138.0860 C   0  0  0  0  0  0  0  0  0  0  0  0
  142.3290  152.4260  138.3270 O   0  0  0  0  0  0  0  0  0  0  0  0
  142.5130  154.6450  137.4920 C   0  0  0  0  0  0  0  0  0  0  0  0
  141.3860  155.2980  137.9860 C   0  0  0  0  0  0  0  0  0  0  0  0
  141.1420  156.3230  137.1020 C   0  0  0  0  0  0  0  0  0  0  0  0
  140.1400  157.2870  137.1080 C   0  0  0  0  0  0  0  0  0  0  0  0
  140.1360  158.2420  136.0790 C   0  0  0  0  0  0  0  0  0  0  0  0
  141.1410  158.2320  135.0780 C   0  0  0  0  0  0  0  0  0  0  0  0
  141.1090  159.2380  133.9540 C   0  0  0  0  0  0  0  0  0  0  0  0
  142.0480  158.9230  132.9880 F   0  0  0  0  0  0  0  0  0  0  0  0
  141.3880  160.4930  134.4600 F   0  0  0  0  0  0  0  0  0  0  0  0
  139.8620  159.2590  133.3550 F   0  0  0  0  0  0  0  0  0  0  0  0
  142.1280  157.2190  135.0920 C   0  0  0  0  0  0  0  0  0  0  0  0
  142.0990  156.2710  136.1230 C   0  0  0  0  0  0  0  0  0  0  0  0
  142.9510  155.2460  136.3480 N   0  0  0  0  0  0  0  0  0  0  0  0
  144.1220  154.9180  135.5790 C   0  0  0  0  0  0  0  0  0  0  0  0
  144.0170  154.6680  134.3470 O   0  0  0  0  0  0  0  0  0  0  0  0
  145.3730  154.8610  136.2010 O   0  0  0  0  0  0  0  0  0  0  0  0
  146.3380  153.8470  135.9220 C   0  0  0  0  0  0  0  0  0  0  0  0
  146.6160  153.0730  137.0670 O   0  0  0  0  0  0  0  0  0  0  0  0
  148.3070  153.0030  137.3210 P   0  0  2  0  0  0  0  0  0  0  0  0
  148.8330  154.4170  137.4230 O   0  0  0  0  0  0  0  0  0  0  0  0
  149.1160  152.2210  136.0530 O   0  0  0  0  0  0  0  0  0  0  0  0
  148.6470  152.2030  138.7830 O   0  0  0  0  0  0  0  0  0  0  0  0
  147.2100  152.1620  139.6940 P   0  0  0  0  0  0  0  0  0  0  0  0
  147.4880  151.6300  141.0810 O   0  0  0  0  0  0  0  0  0  0  0  0
  146.5120  153.7000  139.8070 O   0  0  0  0  0  0  0  0  0  0  0  0
  146.1150  151.1290  138.9240 O   0  0  0  0  0  0  0  0  0  0  0  0
  144.8400  152.4740  138.8840 H   0  0  0  0  0  0  0  0  0  0  0  0
  145.1210  154.1080  138.1970 H   0  0  0  0  0  0  0  0  0  0  0  0
  140.8130  155.0472  138.8908 H   0  0  0  0  0  0  0  0  0  0  0  0
  139.3727  157.3010  137.8961 H   0  0  0  0  0  0  0  0  0  0  0  0
  139.3452  159.0061  136.0487 H   0  0  0  0  0  0  0  0  0  0  0  0
  142.9012  157.1765  134.3107 H   0  0  0  0  0  0  0  0  0  0  0  0
  145.9477  153.1893  135.1314 H   0  0  0  0  0  0  0  0  0  0  0  0
  147.2695  154.3348  135.5991 H   0  0  0  0  0  0  0  0  0  0  0  0
  1  2  1  0
  2  3  2  0
  2  4  1  0
  4  5  2  0
  5  6  1  0
  6  7  2  0
  7  8  1  0
  8  9  2  0
  9 10  1  0
 10 11  1  0
 10 12  1  0
 10 13  1  0
  9 14  1  0
 14 15  2  0
 15 16  1  0
 16 17  1  0
 17 18  2  0
 17 19  1  0
 19 20  1  0
 20 21  1  0
 21 22  1  0
 22 23  2  0
 22 24  1  6
 22 25  1  0
 25 26  1  0
 26 27  2  0
 26 28  1  0
 26 29  1  0
 16  4  1  0
 15  6  1  0
  1 30  1  0
  1 31  1  0
  5 32  1  0
  7 33  1  0
  8 34  1  0
 14 35  1  0
 20 36  1  0
 20 37  1  0
M  CHG  3  24  -1  28  -1  29  -1
M  END
>  <UniqueID>  (21) 
21

>  <SMILES>  (21) 
NC(=O)c1cc2ccc(C(F)(F)F)cc2n1C(=O)OCO[P@](=O)([O-])OP(=O)([O-])[O-]

>  <Energy>  (21) 
72.34241129496252

>  <Genealogy>  (21) 
NC(=O)c1cc2ccc(C(F)(F)F)cc2n1C(=O)OCOP(=O)([O-])OP(=O)([O-])[O-] (protonated)
NC(=O)c1cc2ccc(C(F)(F)F)cc2n1C(=O)OCO[P@](=O)([O-])OP(=O)([O-])[O-] (chirality)
NC(=O)c1cc2ccc(C(F)(F)F)cc2n1C(=O)OCO[P@](=O)([O-])OP(=O)([O-])[O-] (3D coordinates assigned)
NC(=O)c1cc2ccc(C(F)(F)F)cc2n1C(=O)OCO[P@](=O)([O-])OP(=O)([O-])[O-] (optimized conformer: 72.34241129496252 kcal/mol)

>  <smiles>  (21) 
NC(=O)c1cc2ccc(C(F)(F)F)cc2n1C(=O)OCOP(=O)(O)OP(=O)(O)O

>  <score_type>  (21) 
oracle

>  <origin>  (21) 
adg

>  <m_score__min__energy>  (21) 
-5.8499999999999996

>  <m_primary>  (21) 
energy

$$$$
22:0
     RDKit          3D

 61 63  0  0  0  0  0  0  0  0999 V2000
  145.4980  153.3220  137.7590 C   0  0  0  0  0  0  0  0  0  0  0  0
  144.4390  153.6900  136.8820 O   0  0  0  0  0  0  0  0  0  0  0  0
  144.5250  153.7030  135.4790 C   0  0  0  0  0  0  0  0  0  0  0  0
  145.7090  154.0930  134.8190 C   0  0  0  0  0  0  0  0  0  0  0  0
  145.7880  154.0860  133.4140 C   0  0  0  0  0  0  0  0  0  0  0  0
  146.9850  154.4820  132.7150 N   0  0  0  0  0  0  0  0  0  0  0  0
  148.0830  155.2530  133.3020 C   0  0  0  0  0  0  0  0  0  0  0  0
  149.4090  154.9580  132.5890 C   0  0  0  0  0  0  0  0  0  0  0  0
  149.7040  153.5250  132.6060 N   0  0  0  0  0  0  0  0  0  0  0  0
  149.2240  152.6480  133.6310 C   0  0  0  0  0  0  0  0  0  0  0  0
  148.5470  153.1030  134.5940 O   0  0  0  0  0  0  0  0  0  0  0  0
  149.5280  151.2840  133.5580 O   0  0  0  0  0  0  0  0  0  0  0  0
  149.9190  150.6310  132.3520 C   0  0  0  0  0  0  0  0  0  0  0  0
  148.8210  150.7610  131.2920 C   0  0  0  0  0  0  0  0  0  0  0  0
  147.4330  150.4580  131.8620 C   0  0  0  0  0  0  0  0  0  0  0  0
  146.9110  151.5830  132.5180 O   0  0  0  0  0  0  0  0  0  0  0  0
  144.6760  153.6690  132.6740 C   0  0  0  0  0  0  0  0  0  0  0  0
  143.4990  153.2830  133.3150 C   0  0  0  0  0  0  0  0  0  0  0  0
  143.4060  153.2980  134.7160 C   0  0  0  0  0  0  0  0  0  0  0  0
  142.1340  152.8880  135.3630 C   0  0  0  0  0  0  0  0  0  0  0  0
  141.3990  152.0180  134.8210 O   0  0  0  0  0  0  0  0  0  0  0  0
  141.7240  153.4650  136.6130 N   0  0  0  0  0  0  0  0  0  0  0  0
  141.3040  152.8150  137.7350 C   0  0  0  0  0  0  0  0  0  0  0  0
  141.3160  151.3510  137.9410 C   0  0  0  0  0  0  0  0  0  0  0  0
  140.5780  150.4830  137.0830 N   0  0  0  0  0  0  0  0  0  0  0  0
  142.0110  150.8570  138.8680 O   0  0  0  0  0  0  0  0  0  0  0  0
  140.9060  153.7290  138.7070 C   0  0  0  0  0  0  0  0  0  0  0  0
  141.0950  154.9700  138.1410 C   0  0  0  0  0  0  0  0  0  0  0  0
  140.8620  156.2390  138.6630 C   0  0  0  0  0  0  0  0  0  0  0  0
  141.1320  157.3480  137.8430 C   0  0  0  0  0  0  0  0  0  0  0  0
  141.6040  157.1710  136.5150 C   0  0  0  0  0  0  0  0  0  0  0  0
  141.9310  158.3700  135.6620 C   0  0  0  0  0  0  0  0  0  0  0  0
  142.4650  159.3880  136.4340 F   0  0  0  0  0  0  0  0  0  0  0  0
  140.7930  158.8520  135.0380 F   0  0  0  0  0  0  0  0  0  0  0  0
  142.8520  158.0050  134.6990 F   0  0  0  0  0  0  0  0  0  0  0  0
  141.8480  155.8660  136.0320 C   0  0  0  0  0  0  0  0  0  0  0  0
  141.5860  154.7820  136.8770 C   0  0  0  0  0  0  0  0  0  0  0  0
  145.1672  153.4370  138.8018 H   0  0  0  0  0  0  0  0  0  0  0  0
  145.7778  152.2740  137.5765 H   0  0  0  0  0  0  0  0  0  0  0  0
  146.3674  153.9707  137.5765 H   0  0  0  0  0  0  0  0  0  0  0  0
  146.5819  154.4067  135.4102 H   0  0  0  0  0  0  0  0  0  0  0  0
  147.0790  154.2200  131.7070 H   0  0  0  0  0  0  0  0  0  0  0  0
  147.8573  156.3258  133.2111 H   0  0  0  0  0  0  0  0  0  0  0  0
  148.1841  154.9670  134.3594 H   0  0  0  0  0  0  0  0  0  0  0  0
  149.3404  155.2991  131.5455 H   0  0  0  0  0  0  0  0  0  0  0  0
  150.2162  155.4890  133.1148 H   0  0  0  0  0  0  0  0  0  0  0  0
  150.3250  153.1330  131.8640 H   0  0  0  0  0  0  0  0  0  0  0  0
  150.8436  151.0918  131.9741 H   0  0  0  0  0  0  0  0  0  0  0  0
  150.0860  149.5643  132.5627 H   0  0  0  0  0  0  0  0  0  0  0  0
  148.8268  151.7885  130.8992 H   0  0  0  0  0  0  0  0  0  0  0  0
  149.0284  150.0293  130.4973 H   0  0  0  0  0  0  0  0  0  0  0  0
  146.7591  150.1739  131.0403 H   0  0  0  0  0  0  0  0  0  0  0  0
  147.5196  149.6344  132.5860 H   0  0  0  0  0  0  0  0  0  0  0  0
  147.3790  151.6500  133.3910 H   0  0  0  0  0  0  0  0  0  0  0  0
  144.7307  153.6454  131.5756 H   0  0  0  0  0  0  0  0  0  0  0  0
  142.6335  152.9631  132.7161 H   0  0  0  0  0  0  0  0  0  0  0  0
  140.8500  150.3590  136.0830 H   0  0  0  0  0  0  0  0  0  0  0  0
  140.5220  153.5069  139.7136 H   0  0  0  0  0  0  0  0  0  0  0  0
  140.4784  156.3699  139.6856 H   0  0  0  0  0  0  0  0  0  0  0  0
  140.9761  158.3643  138.2339 H   0  0  0  0  0  0  0  0  0  0  0  0
  142.2351  155.7058  135.0149 H   0  0  0  0  0  0  0  0  0  0  0  0
  1  2  1  0
  2  3  1  0
  3  4  2  0
  4  5  1  0
  5  6  1  0
  6  7  1  0
  7  8  1  0
  8  9  1  0
  9 10  1  0
 10 11  2  0
 10 12  1  0
 12 13  1  0
 13 14  1  0
 14 15  1  0
 15 16  1  0
  5 17  2  0
 17 18  1  0
 18 19  2  0
 19 20  1  0
 20 21  2  0
 20 22  1  0
 22 23  1  0
 23 24  1  0
 24 25  1  0
 24 26  2  0
 23 27  2  0
 27 28  1  0
 28 29  2  0
 29 30  1  0
 30 31  2  0
 31 32  1  0
 32 33  1  0
 32 34  1  0
 32 35  1  0
 31 36  1  0
 36 37  2  0
 19  3  1  0
 37 22  1  0
 37 28  1  0
  1 38  1  0
  1 39  1  0
  1 40  1  0
  4 41  1  0
  6 42  1  0
  7 43  1  0
  7 44  1  0
  8 45  1  0
  8 46  1  0
  9 47  1  0
 13 48  1  0
 13 49  1  0
 14 50  1  0
 14 51  1  0
 15 52  1  0
 15 53  1  0
 16 54  1  0
 17 55  1  0
 18 56  1  0
 25 57  1  0
 27 58  1  0
 29 59  1  0
 30 60  1  0
 36 61  1  0
M  CHG  1  25  -1
M  END
>  <UniqueID>  (22) 
22

>  <SMILES>  (22) 
COc1cc(NCCNC(=O)OCCCO)ccc1C(=O)n1c(C([NH-])=O)cc2ccc(C(F)(F)F)cc21

>  <Energy>  (22) 
94.9128588077683

>  <Genealogy>  (22) 
COc1cc(NCCNC(=O)OCCCO)ccc1C(=O)n1c(C([NH-])=O)cc2ccc(C(F)(F)F)cc21 (protonated)
COc1cc(NCCNC(=O)OCCCO)ccc1C(=O)n1c(C([NH-])=O)cc2ccc(C(F)(F)F)cc21 (3D coordinates assigned)
COc1cc(NCCNC(=O)OCCCO)ccc1C(=O)n1c(C([NH-])=O)cc2ccc(C(F)(F)F)cc21 (optimized conformer: 94.9128588077683 kcal/mol)

>  <smiles>  (22) 
COc1cc(NCCNC(=O)OCCCO)ccc1C(=O)n1c(C(N)=O)cc2ccc(C(F)(F)F)cc21

>  <score_type>  (22) 
oracle

>  <origin>  (22) 
adg

>  <m_score__min__energy>  (22) 
-8.2699999999999996

>  <m_primary>  (22) 
energy

$$$$
23:0
     RDKit          3D

 36 37  0  0  0  0  0  0  0  0999 V2000
  142.9000  160.6630  133.7050 N   0  0  0  0  0  0  0  0  0  0  0  0
  144.2990  160.9460  133.7530 C   0  0  0  0  0  0  0  0  0  0  0  0
  144.6800  162.1190  134.0060 O   0  0  0  0  0  0  0  0  0  0  0  0
  145.2940  159.8850  133.4790 C   0  0  0  0  0  0  0  0  0  0  0  0
  146.6140  160.1320  133.1020 C   0  0  0  0  0  0  0  0  0  0  0  0
  147.2120  158.8940  133.0360 C   0  0  0  0  0  0  0  0  0  0  0  0
  148.5180  158.5500  132.7030 C   0  0  0  0  0  0  0  0  0  0  0  0
  148.8560  157.1860  132.6910 C   0  0  0  0  0  0  0  0  0  0  0  0
  147.8850  156.1940  132.9830 C   0  0  0  0  0  0  0  0  0  0  0  0
  148.2680  154.7360  132.9990 C   0  0  0  0  0  0  0  0  0  0  0  0
  147.2590  153.9940  132.4140 F   0  0  0  0  0  0  0  0  0  0  0  0
  148.4570  154.2950  134.2970 F   0  0  0  0  0  0  0  0  0  0  0  0
  149.4430  154.5320  132.2980 F   0  0  0  0  0  0  0  0  0  0  0  0
  146.5740  156.5880  133.3410 C   0  0  0  0  0  0  0  0  0  0  0  0
  146.2710  157.9540  133.3630 C   0  0  0  0  0  0  0  0  0  0  0  0
  145.0880  158.5470  133.6420 N   0  0  0  0  0  0  0  0  0  0  0  0
  143.8520  157.8860  133.9510 C   0  0  0  0  0  0  0  0  0  0  0  0
  143.2130  158.2000  134.9910 O   0  0  0  0  0  0  0  0  0  0  0  0
  143.3710  156.8830  133.1000 O   0  0  0  0  0  0  0  0  0  0  0  0
  142.1950  156.1210  133.3680 C   0  0  0  0  0  0  0  0  0  0  0  0
  140.9420  156.9050  132.9830 C   0  0  0  0  0  0  0  0  0  0  0  0
  141.3140  158.1950  132.5610 O   0  0  0  0  0  0  0  0  0  0  0  0
  140.3370  159.3280  133.3790 P   0  0  0  0  0  0  0  0  0  0  0  0
  140.7920  159.4230  134.8170 O   0  0  0  0  0  0  0  0  0  0  0  0
  140.4840  160.8490  132.6530 O   0  0  0  0  0  0  0  0  0  0  0  0
  138.7180  158.8380  133.3430 O   0  0  0  0  0  0  0  0  0  0  0  0
  142.5450  159.6930  133.5550 H   0  0  0  0  0  0  0  0  0  0  0  0
  142.2060  161.4290  133.8620 H   0  0  0  0  0  0  0  0  0  0  0  0
  147.0784  161.1086  132.9003 H   0  0  0  0  0  0  0  0  0  0  0  0
  149.2627  159.3213  132.4568 H   0  0  0  0  0  0  0  0  0  0  0  0
  149.8864  156.8838  132.4522 H   0  0  0  0  0  0  0  0  0  0  0  0
  145.8108  155.8380  133.5961 H   0  0  0  0  0  0  0  0  0  0  0  0
  142.2295  155.1879  132.7866 H   0  0  0  0  0  0  0  0  0  0  0  0
  142.1558  155.8997  134.4448 H   0  0  0  0  0  0  0  0  0  0  0  0
  140.4206  156.3865  132.1649 H   0  0  0  0  0  0  0  0  0  0  0  0
  140.2716  156.9797  133.8519 H   0  0  0  0  0  0  0  0  0  0  0  0
  1  2  1  0
  2  3  2  0
  2  4  1  0
  4  5  2  0
  5  6  1  0
  6  7  2  0
  7  8  1  0
  8  9  2  0
  9 10  1  0
 10 11  1  0
 10 12  1  0
 10 13  1  0
  9 14  1  0
 14 15  2  0
 15 16  1  0
 16 17  1  0
 17 18  2  0
 17 19  1  0
 19 20  1  0
 20 21  1  0
 21 22  1  0
 22 23  1  0
 23 24  2  0
 23 25  1  0
 23 26  1  0
 16  4  1  0
 15  6  1  0
  1 27  1  0
  1 28  1  0
  5 29  1  0
  7 30  1  0
  8 31  1  0
 14 32  1  0
 20 33  1  0
 20 34  1  0
 21 35  1  0
 21 36  1  0
M  CHG  2  25  -1  26  -1
M  END
>  <UniqueID>  (23) 
23

>  <SMILES>  (23) 
NC(=O)c1cc2ccc(C(F)(F)F)cc2n1C(=O)OCCOP(=O)([O-])[O-]

>  <Energy>  (23) 
70.17737364418386

>  <Genealogy>  (23) 
NC(=O)c1cc2ccc(C(F)(F)F)cc2n1C(=O)OCCOP(=O)([O-])[O-] (protonated)
NC(=O)c1cc2ccc(C(F)(F)F)cc2n1C(=O)OCCOP(=O)([O-])[O-] (3D coordinates assigned)
NC(=O)c1cc2ccc(C(F)(F)F)cc2n1C(=O)OCCOP(=O)([O-])[O-] (optimized conformer: 70.17737364418386 kcal/mol)

>  <smiles>  (23) 
NC(=O)c1cc2ccc(C(F)(F)F)cc2n1C(=O)OCCOP(=O)(O)O

>  <score_type>  (23) 
oracle

>  <origin>  (23) 
adg

>  <m_score__min__energy>  (23) 
-5.8700000000000001

>  <m_primary>  (23) 
energy

$$$$
24:0
     RDKit          3D

 38 39  0  0  0  0  0  0  0  0999 V2000
  149.2330  161.6170  130.4160 C   0  0  0  0  0  0  0  0  0  0  0  0
  149.5080  160.3520  130.0850 C   0  0  0  0  0  0  0  0  0  0  0  0
  149.6350  159.2810  131.1300 C   0  0  0  0  0  0  0  0  0  0  0  0
  148.3510  158.7940  131.5130 O   0  0  0  0  0  0  0  0  0  0  0  0
  147.8230  158.9490  132.8000 C   0  0  0  0  0  0  0  0  0  0  0  0
  148.4050  159.6850  133.6440 O   0  0  0  0  0  0  0  0  0  0  0  0
  146.5980  158.2880  133.1520 N   0  0  0  0  0  0  0  0  0  0  0  0
  145.3990  158.8570  133.4640 C   0  0  0  0  0  0  0  0  0  0  0  0
  145.1500  160.2990  133.6680 C   0  0  0  0  0  0  0  0  0  0  0  0
  146.2290  161.2270  133.7450 N   0  0  0  0  0  0  0  0  0  0  0  0
  143.9700  160.7120  133.8220 O   0  0  0  0  0  0  0  0  0  0  0  0
  144.4290  157.8760  133.6530 C   0  0  0  0  0  0  0  0  0  0  0  0
  145.0770  156.6780  133.4570 C   0  0  0  0  0  0  0  0  0  0  0  0
  144.5900  155.3770  133.5100 C   0  0  0  0  0  0  0  0  0  0  0  0
  145.4800  154.3280  133.2330 C   0  0  0  0  0  0  0  0  0  0  0  0
  146.8330  154.5890  132.8960 C   0  0  0  0  0  0  0  0  0  0  0  0
  147.7050  153.4770  132.6110 N   0  0  0  0  0  0  0  0  0  0  0  0
  148.8560  153.0860  133.4240 C   0  0  0  0  0  0  0  0  0  0  0  0
  149.4210  151.4170  132.9690 P   0  0  1  0  0  0  0  0  0  0  0  0
  149.3520  150.5200  134.1840 O   0  0  0  0  0  0  0  0  0  0  0  0
  148.4080  150.7980  131.7620 O   0  0  0  0  0  0  0  0  0  0  0  0
  151.0120  151.4610  132.3950 O   0  0  0  0  0  0  0  0  0  0  0  0
  147.2920  155.9290  132.8610 C   0  0  0  0  0  0  0  0  0  0  0  0
  146.3850  156.9530  133.1570 C   0  0  0  0  0  0  0  0  0  0  0  0
  149.1449  162.3839  129.6323 H   0  0  0  0  0  0  0  0  0  0  0  0
  149.0947  161.8915  131.4722 H   0  0  0  0  0  0  0  0  0  0  0  0
  149.6441  160.0898  129.0254 H   0  0  0  0  0  0  0  0  0  0  0  0
  150.2299  158.4496  130.7241 H   0  0  0  0  0  0  0  0  0  0  0  0
  150.1290  159.7082  132.0151 H   0  0  0  0  0  0  0  0  0  0  0  0
  146.9830  161.2360  133.0240 H   0  0  0  0  0  0  0  0  0  0  0  0
  143.3691  158.0268  133.9055 H   0  0  0  0  0  0  0  0  0  0  0  0
  143.5382  155.1758  133.7616 H   0  0  0  0  0  0  0  0  0  0  0  0
  145.1234  153.2884  133.2778 H   0  0  0  0  0  0  0  0  0  0  0  0
  147.5020  152.8930  131.7700 H   0  0  0  0  0  0  0  0  0  0  0  0
  149.6746  153.8023  133.2605 H   0  0  0  0  0  0  0  0  0  0  0  0
  148.5591  153.0844  134.4832 H   0  0  0  0  0  0  0  0  0  0  0  0
  151.0870  152.3300  131.9240 H   0  0  0  0  0  0  0  0  0  0  0  0
  148.3372  156.1592  132.6070 H   0  0  0  0  0  0  0  0  0  0  0  0
  1  2  2  0
  2  3  1  0
  3  4  1  0
  4  5  1  0
  5  6  2  0
  5  7  1  0
  7  8  1  0
  8  9  1  0
  9 10  1  0
  9 11  2  0
  8 12  2  0
 12 13  1  0
 13 14  2  0
 14 15  1  0
 15 16  2  0
 16 17  1  0
 17 18  1  0
 18 19  1  0
 19 20  2  0
 19 21  1  6
 19 22  1  0
 16 23  1  0
 23 24  2  0
 24  7  1  0
 24 13  1  0
  1 25  1  0
  1 26  1  0
  2 27  1  0
  3 28  1  0
  3 29  1  0
 10 30  1  0
 12 31  1  0
 14 32  1  0
 15 33  1  0
 17 34  1  0
 18 35  1  0
 18 36  1  0
 22 37  1  0
 23 38  1  0
M  CHG  2  10  -1  21  -1
M  END
>  <UniqueID>  (24) 
24

>  <SMILES>  (24) 
C=CCOC(=O)n1c(C([NH-])=O)cc2ccc(NC[P@@](=O)([O-])O)cc21

>  <Energy>  (24) 
67.66781095288057

>  <Genealogy>  (24) 
C=CCOC(=O)n1c(C([NH-])=O)cc2ccc(NCP(=O)([O-])O)cc21 (protonated)
C=CCOC(=O)n1c(C([NH-])=O)cc2ccc(NC[P@@](=O)([O-])O)cc21 (chirality)
C=CCOC(=O)n1c(C([NH-])=O)cc2ccc(NC[P@@](=O)([O-])O)cc21 (3D coordinates assigned)
C=CCOC(=O)n1c(C([NH-])=O)cc2ccc(NC[P@@](=O)([O-])O)cc21 (optimized conformer: 67.66781095288057 kcal/mol)

>  <smiles>  (24) 
C=CCOC(=O)n1c(C(N)=O)cc2ccc(NCP(=O)(O)O)cc21

>  <score_type>  (24) 
oracle

>  <origin>  (24) 
adg

>  <m_score__min__energy>  (24) 
-7

>  <m_primary>  (24) 
energy

$$$$
25:0
     RDKit          3D

 31 32  0  0  0  0  0  0  0  0999 V2000
  141.0720  159.4050  132.4810 N   0  0  0  0  0  0  0  0  0  0  0  0
  141.4310  159.6790  133.8320 C   0  0  0  0  0  0  0  0  0  0  0  0
  141.5350  160.8710  134.2260 O   0  0  0  0  0  0  0  0  0  0  0  0
  141.7400  158.5560  134.7660 C   0  0  0  0  0  0  0  0  0  0  0  0
  143.1360  158.2870  134.7280 O   0  0  0  0  0  0  0  0  0  0  0  0
  143.8030  157.9080  133.5600 C   0  0  0  0  0  0  0  0  0  0  0  0
  143.1540  157.4510  132.5790 O   0  0  0  0  0  0  0  0  0  0  0  0
  145.2330  158.0240  133.4840 N   0  0  0  0  0  0  0  0  0  0  0  0
  145.9800  159.1640  133.5100 C   0  0  0  0  0  0  0  0  0  0  0  0
  145.4610  160.5260  133.7740 C   0  0  0  0  0  0  0  0  0  0  0  0
  144.0680  160.8140  133.6390 N   0  0  0  0  0  0  0  0  0  0  0  0
  146.2500  161.4540  134.0910 O   0  0  0  0  0  0  0  0  0  0  0  0
  147.3330  158.8670  133.3490 C   0  0  0  0  0  0  0  0  0  0  0  0
  147.3920  157.4980  133.2240 C   0  0  0  0  0  0  0  0  0  0  0  0
  148.4910  156.6640  133.0330 C   0  0  0  0  0  0  0  0  0  0  0  0
  148.2570  155.2840  132.9130 C   0  0  0  0  0  0  0  0  0  0  0  0
  146.9400  154.7690  132.9770 C   0  0  0  0  0  0  0  0  0  0  0  0
  146.7140  153.3640  132.8390 N   0  0  0  0  0  0  0  0  0  0  0  0
  145.8500  155.6430  133.1710 C   0  0  0  0  0  0  0  0  0  0  0  0
  146.1120  157.0120  133.3080 C   0  0  0  0  0  0  0  0  0  0  0  0
  141.7410  158.9320  131.8340 H   0  0  0  0  0  0  0  0  0  0  0  0
  141.4471  158.8366  135.7885 H   0  0  0  0  0  0  0  0  0  0  0  0
  141.1821  157.6581  134.4618 H   0  0  0  0  0  0  0  0  0  0  0  0
  143.7170  161.7860  133.7890 H   0  0  0  0  0  0  0  0  0  0  0  0
  143.3750  160.0610  133.4330 H   0  0  0  0  0  0  0  0  0  0  0  0
  148.1737  159.5760  133.3267 H   0  0  0  0  0  0  0  0  0  0  0  0
  149.5106  157.0732  132.9778 H   0  0  0  0  0  0  0  0  0  0  0  0
  149.1044  154.5978  132.7680 H   0  0  0  0  0  0  0  0  0  0  0  0
  146.6460  152.7490  133.6810 H   0  0  0  0  0  0  0  0  0  0  0  0
  146.6120  152.9290  131.8950 H   0  0  0  0  0  0  0  0  0  0  0  0
  144.8201  155.2590  133.2136 H   0  0  0  0  0  0  0  0  0  0  0  0
  1  2  1  0
  2  3  2  0
  2  4  1  0
  4  5  1  0
  5  6  1  0
  6  7  2  0
  6  8  1  0
  8  9  1  0
  9 10  1  0
 10 11  1  0
 10 12  2  0
  9 13  2  0
 13 14  1  0
 14 15  2  0
 15 16  1  0
 16 17  2  0
 17 18  1  0
 17 19  1  0
 19 20  2  0
 20  8  1  0
 20 14  1  0
  1 21  1  0
  4 22  1  0
  4 23  1  0
 11 24  1  0
 11 25  1  0
 13 26  1  0
 15 27  1  0
 16 28  1  0
 18 29  1  0
 18 30  1  0
 19 31  1  0
M  CHG  1   1  -1
M  END
>  <UniqueID>  (25) 
25

>  <SMILES>  (25) 
[NH-]C(=O)COC(=O)n1c(C(N)=O)cc2ccc(N)cc21

>  <Energy>  (25) 
65.16710662832375

>  <Genealogy>  (25) 
[NH-]C(=O)COC(=O)n1c(C(N)=O)cc2ccc(N)cc21 (protonated)
[NH-]C(=O)COC(=O)n1c(C(N)=O)cc2ccc(N)cc21 (3D coordinates assigned)
[NH-]C(=O)COC(=O)n1c(C(N)=O)cc2ccc(N)cc21 (optimized conformer: 65.16710662832375 kcal/mol)

>  <smiles>  (25) 
NC(=O)COC(=O)n1c(C(N)=O)cc2ccc(N)cc21

>  <score_type>  (25) 
oracle

>  <origin>  (25) 
adg

>  <m_score__min__energy>  (25) 
-5.7000000000000002

>  <m_primary>  (25) 
energy

$$$$
26:0
     RDKit          3D

 32 33  0  0  0  0  0  0  0  0999 V2000
  149.9320  158.3060  131.8650 C   0  0  0  0  0  0  0  0  0  0  0  0
  148.9510  159.3930  131.5400 C   0  0  0  0  0  0  0  0  0  0  0  0
  149.3770  160.5330  130.4400 S   0  0  0  0  0  0  0  0  0  0  0  0
  147.6500  159.4440  132.1560 N   0  0  0  0  0  0  0  0  0  0  0  0
  146.6480  160.1100  131.5260 O   0  0  0  0  0  0  0  0  0  0  0  0
  147.3450  158.7490  133.3770 C   0  0  0  0  0  0  0  0  0  0  0  0
  148.0370  158.9450  134.4130 O   0  0  0  0  0  0  0  0  0  0  0  0
  146.2690  157.8020  133.4170 N   0  0  0  0  0  0  0  0  0  0  0  0
  144.9340  158.0550  133.5080 C   0  0  0  0  0  0  0  0  0  0  0  0
  144.3200  159.3880  133.6860 C   0  0  0  0  0  0  0  0  0  0  0  0
  145.1200  160.5620  133.5620 N   0  0  0  0  0  0  0  0  0  0  0  0
  143.0890  159.5040  133.9280 O   0  0  0  0  0  0  0  0  0  0  0  0
  144.2090  156.8660  133.4630 C   0  0  0  0  0  0  0  0  0  0  0  0
  145.1510  155.8690  133.3360 C   0  0  0  0  0  0  0  0  0  0  0  0
  144.9930  154.4910  133.2410 C   0  0  0  0  0  0  0  0  0  0  0  0
  146.1490  153.7030  133.0960 C   0  0  0  0  0  0  0  0  0  0  0  0
  147.4320  154.3030  133.0210 C   0  0  0  0  0  0  0  0  0  0  0  0
  148.6670  153.4470  132.9050 C   0  0  0  0  0  0  0  0  0  0  0  0
  148.4640  152.4860  131.9320 F   0  0  0  0  0  0  0  0  0  0  0  0
  148.9410  152.8190  134.1070 F   0  0  0  0  0  0  0  0  0  0  0  0
  149.7640  154.2160  132.5580 F   0  0  0  0  0  0  0  0  0  0  0  0
  147.5510  155.7080  133.1450 C   0  0  0  0  0  0  0  0  0  0  0  0
  146.3860  156.4620  133.3080 C   0  0  0  0  0  0  0  0  0  0  0  0
  150.0213  158.2071  132.9569 H   0  0  0  0  0  0  0  0  0  0  0  0
  149.5804  157.3551  131.4382 H   0  0  0  0  0  0  0  0  0  0  0  0
  150.9139  158.5586  131.4382 H   0  0  0  0  0  0  0  0  0  0  0  0
  146.1220  160.5340  132.2520 H   0  0  0  0  0  0  0  0  0  0  0  0
  145.1050  161.1320  132.6870 H   0  0  0  0  0  0  0  0  0  0  0  0
  143.1166  156.7485  133.5173 H   0  0  0  0  0  0  0  0  0  0  0  0
  143.9945  154.0311  133.2781 H   0  0  0  0  0  0  0  0  0  0  0  0
  146.0569  152.6083  133.0401 H   0  0  0  0  0  0  0  0  0  0  0  0
  148.5370  156.1946  133.1138 H   0  0  0  0  0  0  0  0  0  0  0  0
  1  2  1  0
  2  3  2  0
  2  4  1  0
  4  5  1  0
  4  6  1  0
  6  7  2  0
  6  8  1  0
  8  9  1  0
  9 10  1  0
 10 11  1  0
 10 12  2  0
  9 13  2  0
 13 14  1  0
 14 15  2  0
 15 16  1  0
 16 17  2  0
 17 18  1  0
 18 19  1  0
 18 20  1  0
 18 21  1  0
 17 22  1  0
 22 23  2  0
 23  8  1  0
 23 14  1  0
  1 24  1  0
  1 25  1  0
  1 26  1  0
  5 27  1  0
 11 28  1  0
 13 29  1  0
 15 30  1  0
 16 31  1  0
 22 32  1  0
M  CHG  1  11  -1
M  END
>  <UniqueID>  (26) 
26

>  <SMILES>  (26) 
CC(=S)N(O)C(=O)n1c(C([NH-])=O)cc2ccc(C(F)(F)F)cc21

>  <Energy>  (26) 
72.93328862192885

>  <Genealogy>  (26) 
CC(=S)N(O)C(=O)n1c(C([NH-])=O)cc2ccc(C(F)(F)F)cc21 (protonated)
CC(=S)N(O)C(=O)n1c(C([NH-])=O)cc2ccc(C(F)(F)F)cc21 (3D coordinates assigned)
CC(=S)N(O)C(=O)n1c(C([NH-])=O)cc2ccc(C(F)(F)F)cc21 (optimized conformer: 72.93328862192885 kcal/mol)

>  <smiles>  (26) 
CC(=S)N(O)C(=O)n1c(C(N)=O)cc2ccc(C(F)(F)F)cc21

>  <score_type>  (26) 
oracle

>  <origin>  (26) 
adg

>  <m_score__min__energy>  (26) 
-6.46

>  <m_primary>  (26) 
energy

$$$$
27:0
     RDKit          3D

 34 36  0  0  0  0  0  0  0  0999 V2000
  147.3430  153.6460  135.9540 N   0  0  0  0  0  0  0  0  0  0  0  0
  146.4060  154.2270  135.0520 C   0  0  0  0  0  0  0  0  0  0  0  0
  145.2730  153.6940  134.9110 O   0  0  0  0  0  0  0  0  0  0  0  0
  146.7220  155.4740  134.3240 C   0  0  0  0  0  0  0  0  0  0  0  0
  145.9780  156.6440  134.4490 C   0  0  0  0  0  0  0  0  0  0  0  0
  146.6420  157.5820  133.6910 C   0  0  0  0  0  0  0  0  0  0  0  0
  146.3290  158.9130  133.4400 C   0  0  0  0  0  0  0  0  0  0  0  0
  147.1740  159.6390  132.5830 C   0  0  0  0  0  0  0  0  0  0  0  0
  148.3170  159.0290  132.0040 C   0  0  0  0  0  0  0  0  0  0  0  0
  149.1800  159.8010  131.0370 C   0  0  0  0  0  0  0  0  0  0  0  0
  149.1800  161.1490  131.3510 F   0  0  0  0  0  0  0  0  0  0  0  0
  148.6870  159.6360  129.7570 F   0  0  0  0  0  0  0  0  0  0  0  0
  150.4870  159.3470  131.0810 F   0  0  0  0  0  0  0  0  0  0  0  0
  148.5870  157.6660  132.2650 C   0  0  0  0  0  0  0  0  0  0  0  0
  147.7390  156.9730  133.1360 C   0  0  0  0  0  0  0  0  0  0  0  0
  147.8000  155.6760  133.5130 N   0  0  0  0  0  0  0  0  0  0  0  0
  148.7500  154.6980  133.0640 C   0  0  0  0  0  0  0  0  0  0  0  0
  149.6560  155.0310  132.2540 O   0  0  0  0  0  0  0  0  0  0  0  0
  148.6190  153.3670  133.4780 O   0  0  0  0  0  0  0  0  0  0  0  0
  148.8080  152.2790  132.6460 N   0  0  0  0  0  0  0  0  0  0  0  0
  147.8530  151.3920  132.3110 C   0  0  0  0  0  0  0  0  0  0  0  0
  148.3310  150.3740  131.5630 N   0  0  0  0  0  0  0  0  0  0  0  0
  149.6470  150.6530  131.4500 C   0  0  0  0  0  0  0  0  0  0  0  0
  150.5780  149.8220  130.7520 N   0  0  0  0  0  0  0  0  0  0  0  0
  151.6060  150.3200  130.2470 O   0  0  0  0  0  0  0  0  0  0  0  0
  150.3520  148.4700  130.6350 O   0  0  0  0  0  0  0  0  0  0  0  0
  149.9570  151.8160  132.1200 C   0  0  0  0  0  0  0  0  0  0  0  0
  148.1730  153.1190  135.6010 H   0  0  0  0  0  0  0  0  0  0  0  0
  145.0553  156.7884  135.0302 H   0  0  0  0  0  0  0  0  0  0  0  0
  145.4467  159.3838  133.8982 H   0  0  0  0  0  0  0  0  0  0  0  0
  146.9468  160.6916  132.3586 H   0  0  0  0  0  0  0  0  0  0  0  0
  149.4439  157.1619  131.7942 H   0  0  0  0  0  0  0  0  0  0  0  0
  146.7994  151.4857  132.6130 H   0  0  0  0  0  0  0  0  0  0  0  0
  150.9517  152.2772  132.2081 H   0  0  0  0  0  0  0  0  0  0  0  0
  1  2  1  0
  2  3  2  0
  2  4  1  0
  4  5  2  0
  5  6  1  0
  6  7  2  0
  7  8  1  0
  8  9  2  0
  9 10  1  0
 10 11  1  0
 10 12  1  0
 10 13  1  0
  9 14  1  0
 14 15  2  0
 15 16  1  0
 16 17  1  0
 17 18  2  0
 17 19  1  0
 19 20  1  0
 20 21  1  0
 21 22  2  0
 22 23  1  0
 23 24  1  0
 24 25  2  0
 24 26  1  0
 23 27  2  0
 16  4  1  0
 27 20  1  0
 15  6  1  0
  1 28  1  0
  5 29  1  0
  7 30  1  0
  8 31  1  0
 14 32  1  0
 21 33  1  0
 27 34  1  0
M  CHG  3   1  -1  24   1  26  -1
M  END
>  <UniqueID>  (27) 
27

>  <SMILES>  (27) 
[NH-]C(=O)c1cc2ccc(C(F)(F)F)cc2n1C(=O)On1cnc([N+](=O)[O-])c1

>  <Energy>  (27) 
109.53217111873555

>  <Genealogy>  (27) 
[NH-]C(=O)c1cc2ccc(C(F)(F)F)cc2n1C(=O)On1cnc([N+](=O)[O-])c1 (protonated)
[NH-]C(=O)c1cc2ccc(C(F)(F)F)cc2n1C(=O)On1cnc([N+](=O)[O-])c1 (3D coordinates assigned)
[NH-]C(=O)c1cc2ccc(C(F)(F)F)cc2n1C(=O)On1cnc([N+](=O)[O-])c1 (optimized conformer: 109.53217111873555 kcal/mol)

>  <smiles>  (27) 
NC(=O)c1cc2ccc(C(F)(F)F)cc2n1C(=O)On1cnc([N+](=O)[O-])c1

>  <score_type>  (27) 
oracle

>  <origin>  (27) 
adg

>  <m_score__min__energy>  (27) 
-7.21

>  <m_primary>  (27) 
energy

$$$$
28:0
     RDKit          3D

 30 31  0  0  0  0  0  0  0  0999 V2000
  142.0330  157.7720  134.7480 C   0  0  0  0  0  0  0  0  0  0  0  0
  143.2940  158.4450  134.2950 C   0  0  0  0  0  0  0  0  0  0  0  0
  143.3090  159.8440  134.0690 C   0  0  0  0  0  0  0  0  0  0  0  0
  144.4770  160.4820  133.6190 C   0  0  0  0  0  0  0  0  0  0  0  0
  145.6020  159.6960  133.3860 C   0  0  0  0  0  0  0  0  0  0  0  0
  146.8640  160.0550  132.9710 C   0  0  0  0  0  0  0  0  0  0  0  0
  147.5880  158.8660  132.9170 C   0  0  0  0  0  0  0  0  0  0  0  0
  148.9930  158.7840  132.4630 C   0  0  0  0  0  0  0  0  0  0  0  0
  149.6170  157.5260  132.2230 N   0  0  0  0  0  0  0  0  0  0  0  0
  149.6430  159.8420  132.2530 O   0  0  0  0  0  0  0  0  0  0  0  0
  146.8040  157.8130  133.2860 N   0  0  0  0  0  0  0  0  0  0  0  0
  147.2000  156.4400  133.4320 C   0  0  0  0  0  0  0  0  0  0  0  0
  147.2540  155.6980  132.4140 O   0  0  0  0  0  0  0  0  0  0  0  0
  147.4370  155.8590  134.7960 C   0  0  0  0  0  0  0  0  0  0  0  0
  146.3060  154.4720  135.1410 P   0  0  0  0  0  0  0  0  0  0  0  0
  146.1350  153.6470  133.8860 O   0  0  0  0  0  0  0  0  0  0  0  0
  146.9570  153.5000  136.3620 O   0  0  0  0  0  0  0  0  0  0  0  0
  144.7990  155.0570  135.6350 O   0  0  0  0  0  0  0  0  0  0  0  0
  145.5930  158.3380  133.5720 C   0  0  0  0  0  0  0  0  0  0  0  0
  144.4500  157.6790  134.0360 C   0  0  0  0  0  0  0  0  0  0  0  0
  142.0011  157.7550  135.8474 H   0  0  0  0  0  0  0  0  0  0  0  0
  141.1635  158.3260  134.3645 H   0  0  0  0  0  0  0  0  0  0  0  0
  142.0093  156.7413  134.3645 H   0  0  0  0  0  0  0  0  0  0  0  0
  142.3987  160.4352  134.2474 H   0  0  0  0  0  0  0  0  0  0  0  0
  144.5018  161.5695  133.4558 H   0  0  0  0  0  0  0  0  0  0  0  0
  147.2247  161.0664  132.7324 H   0  0  0  0  0  0  0  0  0  0  0  0
  149.0730  156.7190  131.8440 H   0  0  0  0  0  0  0  0  0  0  0  0
  148.4740  155.4968  134.8544 H   0  0  0  0  0  0  0  0  0  0  0  0
  147.2530  156.6463  135.5418 H   0  0  0  0  0  0  0  0  0  0  0  0
  144.4523  156.5906  134.1950 H   0  0  0  0  0  0  0  0  0  0  0  0
  1  2  1  0
  2  3  2  0
  3  4  1  0
  4  5  2  0
  5  6  1  0
  6  7  2  0
  7  8  1  0
  8  9  1  0
  8 10  2  0
  7 11  1  0
 11 12  1  0
 12 13  2  0
 12 14  1  0
 14 15  1  0
 15 16  2  0
 15 17  1  0
 15 18  1  0
 11 19  1  0
 19 20  2  0
 20  2  1  0
 19  5  1  0
  1 21  1  0
  1 22  1  0
  1 23  1  0
  3 24  1  0
  4 25  1  0
  6 26  1  0
  9 27  1  0
 14 28  1  0
 14 29  1  0
 20 30  1  0
M  CHG  3   9  -1  17  -1  18  -1
M  END
>  <UniqueID>  (28) 
28

>  <SMILES>  (28) 
Cc1ccc2cc(C([NH-])=O)n(C(=O)CP(=O)([O-])[O-])c2c1

>  <Energy>  (28) 
65.46187502978907

>  <Genealogy>  (28) 
Cc1ccc2cc(C([NH-])=O)n(C(=O)CP(=O)([O-])[O-])c2c1 (protonated)
Cc1ccc2cc(C([NH-])=O)n(C(=O)CP(=O)([O-])[O-])c2c1 (3D coordinates assigned)
Cc1ccc2cc(C([NH-])=O)n(C(=O)CP(=O)([O-])[O-])c2c1 (optimized conformer: 65.46187502978907 kcal/mol)

>  <smiles>  (28) 
Cc1ccc2cc(C(N)=O)n(C(=O)CP(=O)(O)O)c2c1

>  <score_type>  (28) 
oracle

>  <origin>  (28) 
adg

>  <m_score__min__energy>  (28) 
-5.9100000000000001

>  <m_primary>  (28) 
energy

$$$$
29:0
     RDKit          3D

 32 33  0  0  0  0  0  0  0  0999 V2000
  147.9350  155.0230  132.6050 C   0  0  0  0  0  0  0  0  0  0  0  0
  147.7390  156.4990  132.7840 C   0  0  0  0  0  0  0  0  0  0  0  0
  148.8520  157.3730  132.7340 C   0  0  0  0  0  0  0  0  0  0  0  0
  148.6850  158.7560  132.9250 C   0  0  0  0  0  0  0  0  0  0  0  0
  147.4010  159.2270  133.1830 C   0  0  0  0  0  0  0  0  0  0  0  0
  146.9550  160.5130  133.3860 C   0  0  0  0  0  0  0  0  0  0  0  0
  145.5820  160.3990  133.5950 C   0  0  0  0  0  0  0  0  0  0  0  0
  144.7120  161.5450  133.9360 C   0  0  0  0  0  0  0  0  0  0  0  0
  143.3080  161.4960  133.7010 N   0  0  0  0  0  0  0  0  0  0  0  0
  145.2090  162.5640  134.4850 O   0  0  0  0  0  0  0  0  0  0  0  0
  145.1940  159.0950  133.5190 N   0  0  0  0  0  0  0  0  0  0  0  0
  143.8610  158.5680  133.6010 C   0  0  0  0  0  0  0  0  0  0  0  0
  143.3700  157.9440  132.6220 O   0  0  0  0  0  0  0  0  0  0  0  0
  143.0980  158.7420  134.8000 N   0  0  0  0  0  0  0  0  0  0  0  0
  141.8000  158.1190  135.0240 C   0  0  0  0  0  0  0  0  0  0  0  0
  140.7670  158.7360  134.1330 C   0  0  0  0  0  0  0  0  0  0  0  0
  139.5460  158.4910  134.3250 O   0  0  0  0  0  0  0  0  0  0  0  0
  141.1630  159.5830  133.0530 N   0  0  0  0  0  0  0  0  0  0  0  0
  140.2360  160.1300  132.2330 O   0  0  0  0  0  0  0  0  0  0  0  0
  146.3190  158.3900  133.2680 C   0  0  0  0  0  0  0  0  0  0  0  0
  146.4530  157.0120  133.0640 C   0  0  0  0  0  0  0  0  0  0  0  0
  147.9992  154.5394  133.5909 H   0  0  0  0  0  0  0  0  0  0  0  0
  147.0844  154.6052  132.0464 H   0  0  0  0  0  0  0  0  0  0  0  0
  148.8651  154.8417  132.0464 H   0  0  0  0  0  0  0  0  0  0  0  0
  149.8563  156.9664  132.5440 H   0  0  0  0  0  0  0  0  0  0  0  0
  149.5418  159.4438  132.8722 H   0  0  0  0  0  0  0  0  0  0  0  0
  147.5549  161.4350  133.3838 H   0  0  0  0  0  0  0  0  0  0  0  0
  142.7160  160.7490  134.1270 H   0  0  0  0  0  0  0  0  0  0  0  0
  141.8714  157.0432  134.8061 H   0  0  0  0  0  0  0  0  0  0  0  0
  141.5057  158.2723  136.0728 H   0  0  0  0  0  0  0  0  0  0  0  0
  142.1740  159.7830  132.8850 H   0  0  0  0  0  0  0  0  0  0  0  0
  145.5796  156.3457  133.1202 H   0  0  0  0  0  0  0  0  0  0  0  0
  1  2  1  0
  2  3  2  0
  3  4  1  0
  4  5  2  0
  5  6  1  0
  6  7  2  0
  7  8  1  0
  8  9  1  0
  8 10  2  0
  7 11  1  0
 11 12  1  0
 12 13  2  0
 12 14  1  0
 14 15  1  0
 15 16  1  0
 16 17  2  0
 16 18  1  0
 18 19  1  0
 11 20  1  0
 20 21  2  0
 21  2  1  0
 20  5  1  0
  1 22  1  0
  1 23  1  0
  1 24  1  0
  3 25  1  0
  4 26  1  0
  6 27  1  0
  9 28  1  0
 15 29  1  0
 15 30  1  0
 18 31  1  0
 21 32  1  0
M  CHG  3   9  -1  14  -1  19  -1
M  END
>  <UniqueID>  (29) 
29

>  <SMILES>  (29) 
Cc1ccc2cc(C([NH-])=O)n(C(=O)[N-]CC(=O)N[O-])c2c1

>  <Energy>  (29) 
66.84683053050632

>  <Genealogy>  (29) 
Cc1ccc2cc(C([NH-])=O)n(C(=O)[N-]CC(=O)N[O-])c2c1 (protonated)
Cc1ccc2cc(C([NH-])=O)n(C(=O)[N-]CC(=O)N[O-])c2c1 (3D coordinates assigned)
Cc1ccc2cc(C([NH-])=O)n(C(=O)[N-]CC(=O)N[O-])c2c1 (optimized conformer: 66.84683053050632 kcal/mol)

>  <smiles>  (29) 
Cc1ccc2cc(C(N)=O)n(C(=O)NCC(=O)NO)c2c1

>  <score_type>  (29) 
oracle

>  <origin>  (29) 
adg

>  <m_score__min__energy>  (29) 
-6.5499999999999998

>  <m_primary>  (29) 
energy

$$$$
30:0
     RDKit          3D

 31 32  0  0  0  0  0  0  0  0999 V2000
  149.5970  158.9860  132.4390 C   0  0  0  0  0  0  0  0  0  0  0  0
  148.2110  158.5680  132.8320 C   0  0  0  0  0  0  0  0  0  0  0  0
  147.1210  159.4500  132.6290 C   0  0  0  0  0  0  0  0  0  0  0  0
  145.8220  159.0840  133.0210 C   0  0  0  0  0  0  0  0  0  0  0  0
  145.6480  157.8410  133.6230 C   0  0  0  0  0  0  0  0  0  0  0  0
  144.5050  157.2300  134.0900 C   0  0  0  0  0  0  0  0  0  0  0  0
  144.9240  156.0000  134.5960 C   0  0  0  0  0  0  0  0  0  0  0  0
  144.0270  155.0420  135.2740 C   0  0  0  0  0  0  0  0  0  0  0  0
  144.4800  153.7200  135.5560 N   0  0  0  0  0  0  0  0  0  0  0  0
  142.8520  155.3720  135.5840 O   0  0  0  0  0  0  0  0  0  0  0  0
  146.2700  155.8560  134.4390 N   0  0  0  0  0  0  0  0  0  0  0  0
  147.0840  154.7230  134.7770 C   0  0  0  0  0  0  0  0  0  0  0  0
  147.2180  153.7810  133.9500 O   0  0  0  0  0  0  0  0  0  0  0  0
  147.7010  154.6040  136.1350 C   0  0  0  0  0  0  0  0  0  0  0  0
  147.2190  153.4330  136.7490 O   0  0  0  0  0  0  0  0  0  0  0  0
  148.0190  153.2380  138.2420 P   0  0  0  0  0  0  0  0  0  0  0  0
  149.4500  153.7140  138.1290 O   0  0  0  0  0  0  0  0  0  0  0  0
  148.0170  151.5980  138.6540 O   0  0  0  0  0  0  0  0  0  0  0  0
  147.2250  154.1100  139.4540 O   0  0  0  0  0  0  0  0  0  0  0  0
  146.6980  156.9900  133.8480 C   0  0  0  0  0  0  0  0  0  0  0  0
  148.0010  157.3230  133.4610 C   0  0  0  0  0  0  0  0  0  0  0  0
  150.1959  159.1666  133.3438 H   0  0  0  0  0  0  0  0  0  0  0  0
  150.0651  158.1890  131.8425 H   0  0  0  0  0  0  0  0  0  0  0  0
  149.5464  159.9088  131.8425 H   0  0  0  0  0  0  0  0  0  0  0  0
  147.2930  160.4302  132.1603 H   0  0  0  0  0  0  0  0  0  0  0  0
  144.9690  159.7590  132.8572 H   0  0  0  0  0  0  0  0  0  0  0  0
  143.4797  157.6279  134.0683 H   0  0  0  0  0  0  0  0  0  0  0  0
  145.4760  153.4510  135.4040 H   0  0  0  0  0  0  0  0  0  0  0  0
  148.7956  154.5487  136.0406 H   0  0  0  0  0  0  0  0  0  0  0  0
  147.4384  155.4816  136.7440 H   0  0  0  0  0  0  0  0  0  0  0  0
  148.8383  156.6330  133.6423 H   0  0  0  0  0  0  0  0  0  0  0  0
  1  2  1  0
  2  3  2  0
  3  4  1  0
  4  5  2  0
  5  6  1  0
  6  7  2  0
  7  8  1  0
  8  9  1  0
  8 10  2  0
  7 11  1  0
 11 12  1  0
 12 13  2  0
 12 14  1  0
 14 15  1  0
 15 16  1  0
 16 17  2  0
 16 18  1  0
 16 19  1  0
 11 20  1  0
 20 21  2  0
 21  2  1  0
 20  5  1  0
  1 22  1  0
  1 23  1  0
  1 24  1  0
  3 25  1  0
  4 26  1  0
  6 27  1  0
  9 28  1  0
 14 29  1  0
 14 30  1  0
 21 31  1  0
M  CHG  3   9  -1  18  -1  19  -1
M  END
>  <UniqueID>  (30) 
30

>  <SMILES>  (30) 
Cc1ccc2cc(C([NH-])=O)n(C(=O)COP(=O)([O-])[O-])c2c1

>  <Energy>  (30) 
68.18093036380218

>  <Genealogy>  (30) 
Cc1ccc2cc(C([NH-])=O)n(C(=O)COP(=O)([O-])[O-])c2c1 (protonated)
Cc1ccc2cc(C([NH-])=O)n(C(=O)COP(=O)([O-])[O-])c2c1 (3D coordinates assigned)
Cc1ccc2cc(C([NH-])=O)n(C(=O)COP(=O)([O-])[O-])c2c1 (optimized conformer: 68.18093036380218 kcal/mol)

>  <smiles>  (30) 
Cc1ccc2cc(C(N)=O)n(C(=O)COP(=O)(O)O)c2c1

>  <score_type>  (30) 
oracle

>  <origin>  (30) 
adg

>  <m_score__min__energy>  (30) 
-6.0899999999999999

>  <m_primary>  (30) 
energy

$$$$
31:0
     RDKit          3D

 52 54  0  0  0  0  0  0  0  0999 V2000
  140.8401  147.4069  132.1152 H   0  0  0  0  0  0  0  0  0  0  0  0
  140.6010  148.3210  131.5520 C   0  0  0  0  0  0  0  0  0  0  0  0
  139.6660  148.2280  130.5880 C   0  0  0  0  0  0  0  0  0  0  0  0
  139.1480  146.9200  130.2660 C   0  0  0  0  0  0  0  0  0  0  0  0
  138.7310  145.8720  130.0080 N   0  0  0  0  0  0  0  0  0  0  0  0
  139.0870  149.3950  129.8840 C   0  0  0  0  0  0  0  0  0  0  0  0
  139.8290  150.3520  129.5380 O   0  0  0  0  0  0  0  0  0  0  0  0
  137.7400  149.4280  129.5370 O   0  0  0  0  0  0  0  0  0  0  0  0
  141.3320  149.5540  131.9140 C   0  0  0  0  0  0  0  0  0  0  0  0
  140.6100  150.7180  132.2100 C   0  0  0  0  0  0  0  0  0  0  0  0
  139.5125  150.7145  132.1360 H   0  0  0  0  0  0  0  0  0  0  0  0
  141.2770  151.8840  132.5990 C   0  0  0  0  0  0  0  0  0  0  0  0
  140.7011  152.7969  132.8113 H   0  0  0  0  0  0  0  0  0  0  0  0
  142.6780  151.8990  132.7210 C   0  0  0  0  0  0  0  0  0  0  0  0
  143.3850  153.1370  133.1340 C   0  0  0  0  0  0  0  0  0  0  0  0
  142.6570  154.2340  133.6660 C   0  0  0  0  0  0  0  0  0  0  0  0
  141.5656  154.1578  133.7798 H   0  0  0  0  0  0  0  0  0  0  0  0
  143.3140  155.4160  134.0490 C   0  0  0  0  0  0  0  0  0  0  0  0
  142.7532  156.2702  134.4563 H   0  0  0  0  0  0  0  0  0  0  0  0
  144.6950  155.4720  133.8970 C   0  0  0  0  0  0  0  0  0  0  0  0
  145.5720  156.5000  134.1630 C   0  0  0  0  0  0  0  0  0  0  0  0
  145.3312  157.4948  134.5660 H   0  0  0  0  0  0  0  0  0  0  0  0
  146.8290  156.0120  133.8130 C   0  0  0  0  0  0  0  0  0  0  0  0
  148.0900  156.7590  134.0170 C   0  0  0  0  0  0  0  0  0  0  0  0
  148.3840  157.2040  135.1580 O   0  0  0  0  0  0  0  0  0  0  0  0
  148.9710  157.0170  132.9230 N   0  0  0  0  0  0  0  0  0  0  0  0
  149.8390  157.5780  133.0700 H   0  0  0  0  0  0  0  0  0  0  0  0
  148.7890  156.6200  131.9750 H   0  0  0  0  0  0  0  0  0  0  0  0
  146.7330  154.7350  133.3490 N   0  0  0  0  0  0  0  0  0  0  0  0
  147.7910  153.9180  132.8200 C   0  0  0  0  0  0  0  0  0  0  0  0
  148.8120  154.4620  132.3210 O   0  0  0  0  0  0  0  0  0  0  0  0
  147.6750  152.5200  132.8780 O   0  0  0  0  0  0  0  0  0  0  0  0
  148.7140  151.5690  132.6060 C   0  0  0  0  0  0  0  0  0  0  0  0
  149.5900  152.0430  131.4300 C   0  0  0  0  0  0  0  0  0  0  0  0
  150.4944  152.5324  131.8205 H   0  0  0  0  0  0  0  0  0  0  0  0
  149.8778  151.1775  130.8151 H   0  0  0  0  0  0  0  0  0  0  0  0
  149.0230  152.7574  130.8151 H   0  0  0  0  0  0  0  0  0  0  0  0
  149.5850  151.4780  133.8680 C   0  0  0  0  0  0  0  0  0  0  0  0
  148.9455  151.5448  134.7605 H   0  0  0  0  0  0  0  0  0  0  0  0
  150.1233  150.5187  133.8736 H   0  0  0  0  0  0  0  0  0  0  0  0
  150.3100  152.3053  133.8736 H   0  0  0  0  0  0  0  0  0  0  0  0
  148.1170  150.1800  132.3130 C   0  0  0  0  0  0  0  0  0  0  0  0
  147.8969  149.6680  133.2614 H   0  0  0  0  0  0  0  0  0  0  0  0
  147.1887  150.2946  131.7342 H   0  0  0  0  0  0  0  0  0  0  0  0
  148.8390  149.5853  131.7342 H   0  0  0  0  0  0  0  0  0  0  0  0
  145.4200  154.4190  133.4050 C   0  0  0  0  0  0  0  0  0  0  0  0
  144.7900  153.2370  132.9980 C   0  0  0  0  0  0  0  0  0  0  0  0
  145.3747  152.4036  132.5813 H   0  0  0  0  0  0  0  0  0  0  0  0
  143.3960  150.7200  132.4540 C   0  0  0  0  0  0  0  0  0  0  0  0
  144.4915  150.7140  132.5526 H   0  0  0  0  0  0  0  0  0  0  0  0
  142.7280  149.5550  132.0640 C   0  0  0  0  0  0  0  0  0  0  0  0
  143.2993  148.6344  131.8737 H   0  0  0  0  0  0  0  0  0  0  0  0
  1  2  1  0
  2  3  2  0
  3  4  1  0
  4  5  3  0
  3  6  1  0
  6  7  2  0
  6  8  1  0
  2  9  1  0
  9 10  2  0
 10 11  1  0
 10 12  1  0
 12 13  1  0
 12 14  2  0
 14 15  1  0
 15 16  2  0
 16 17  1  0
 16 18  1  0
 18 19  1  0
 18 20  2  0
 20 21  1  0
 21 22  1  0
 21 23  2  0
 23 24  1  0
 24 25  2  0
 24 26  1  0
 26 27  1  0
 26 28  1  0
 23 29  1  0
 29 30  1  0
 30 31  2  0
 30 32  1  0
 32 33  1  0
 33 34  1  0
 34 35  1  0
 34 36  1  0
 34 37  1  0
 33 38  1  0
 38 39  1  0
 38 40  1  0
 38 41  1  0
 33 42  1  0
 42 43  1  0
 42 44  1  0
 42 45  1  0
 29 46  1  0
 46 47  2  0
 47 48  1  0
 14 49  1  0
 49 50  1  0
 49 51  2  0
 51 52  1  0
 51  9  1  0
 47 15  1  0
 46 20  1  0
M  CHG  1   8  -1
M  END
>  <UniqueID>  (31) 
31

>  <SMILES>  (31) 
CC(C)(C)OC(=O)n1c(C(N)=O)cc2ccc(-c3ccc(/C=C(/C#N)C(=O)[O-])cc3)cc21

>  <Energy>  (31) 
100.86017909176661

>  <Genealogy>  (31) 
CC(C)(C)OC(=O)n1c(C(N)=O)cc2ccc(-c3ccc(C=C(C#N)C(=O)[O-])cc3)cc21 (protonated)
CC(C)(C)OC(=O)n1c(C(N)=O)cc2ccc(-c3ccc(/C=C(/C#N)C(=O)[O-])cc3)cc21 (cis-trans isomerization)
CC(C)(C)OC(=O)n1c(C(N)=O)cc2ccc(-c3ccc(/C=C(/C#N)C(=O)[O-])cc3)cc21 (3D coordinates assigned)
CC(C)(C)OC(=O)n1c(C(N)=O)cc2ccc(-c3ccc(/C=C(/C#N)C(=O)[O-])cc3)cc21 (optimized conformer: 100.86017909176661 kcal/mol)

>  <smiles>  (31) 
CC(C)(C)OC(=O)n1c(C(N)=O)cc2ccc(-c3ccc(C=C(C#N)C(=O)O)cc3)cc21

>  <score_type>  (31) 
oracle

>  <origin>  (31) 
adg

>  <m_score__min__energy>  (31) 
-10.359999999999999

>  <m_primary>  (31) 
energy

$$$$
32:0
     RDKit          3D

 36 38  0  0  0  0  0  0  0  0999 V2000
  143.9800  155.3000  133.1190 C   0  0  0  0  0  0  0  0  0  0  0  0
  144.6230  156.6410  133.3060 C   0  0  0  0  0  0  0  0  0  0  0  0
  146.0280  156.7780  133.1720 C   0  0  0  0  0  0  0  0  0  0  0  0
  146.6390  158.0380  133.3000 C   0  0  0  0  0  0  0  0  0  0  0  0
  145.8220  159.1350  133.5590 C   0  0  0  0  0  0  0  0  0  0  0  0
  146.1420  160.4680  133.7010 C   0  0  0  0  0  0  0  0  0  0  0  0
  144.9280  161.1180  133.9210 C   0  0  0  0  0  0  0  0  0  0  0  0
  144.8060  162.5680  134.1790 C   0  0  0  0  0  0  0  0  0  0  0  0
  143.9860  163.3930  133.3570 N   0  0  0  0  0  0  0  0  0  0  0  0
  145.4140  163.0820  135.1540 O   0  0  0  0  0  0  0  0  0  0  0  0
  143.9030  160.2210  133.9150 N   0  0  0  0  0  0  0  0  0  0  0  0
  142.4980  160.4890  134.0340 C   0  0  0  0  0  0  0  0  0  0  0  0
  142.0350  161.5610  133.5590 O   0  0  0  0  0  0  0  0  0  0  0  0
  141.6170  159.5450  134.6730 N   0  0  0  0  0  0  0  0  0  0  0  0
  141.9080  159.0900  136.0440 C   0  0  0  0  0  0  0  0  0  0  0  0
  140.6130  158.8350  136.8070 C   0  0  0  0  0  0  0  0  0  0  0  0
  139.7970  157.8850  136.0700 N   0  0  0  0  0  0  0  0  0  0  0  0
  139.6990  157.9710  134.6500 C   0  0  0  0  0  0  0  0  0  0  0  0
  138.9290  157.1900  134.0320 O   0  0  0  0  0  0  0  0  0  0  0  0
  140.4940  158.9970  133.8910 C   0  0  0  0  0  0  0  0  0  0  0  0
  144.4640  159.0150  133.6900 C   0  0  0  0  0  0  0  0  0  0  0  0
  143.8250  157.7800  133.5460 C   0  0  0  0  0  0  0  0  0  0  0  0
  143.7668  154.8553  134.1022 H   0  0  0  0  0  0  0  0  0  0  0  0
  143.0408  155.4186  132.5588 H   0  0  0  0  0  0  0  0  0  0  0  0
  144.6605  154.6420  132.5588 H   0  0  0  0  0  0  0  0  0  0  0  0
  146.6452  155.8910  132.9662 H   0  0  0  0  0  0  0  0  0  0  0  0
  147.7283  158.1532  133.1987 H   0  0  0  0  0  0  0  0  0  0  0  0
  147.1424  160.9226  133.6514 H   0  0  0  0  0  0  0  0  0  0  0  0
  143.3650  162.9780  132.6280 H   0  0  0  0  0  0  0  0  0  0  0  0
  142.4920  158.1588  136.0003 H   0  0  0  0  0  0  0  0  0  0  0  0
  142.4803  159.8718  136.5648 H   0  0  0  0  0  0  0  0  0  0  0  0
  140.8472  158.4245  137.8003 H   0  0  0  0  0  0  0  0  0  0  0  0
  140.0624  159.7803  136.9221 H   0  0  0  0  0  0  0  0  0  0  0  0
  140.8959  158.5271  132.9812 H   0  0  0  0  0  0  0  0  0  0  0  0
  139.8171  159.8315  133.6555 H   0  0  0  0  0  0  0  0  0  0  0  0
  142.7304  157.6982  133.6178 H   0  0  0  0  0  0  0  0  0  0  0  0
  1  2  1  0
  2  3  2  0
  3  4  1  0
  4  5  2  0
  5  6  1  0
  6  7  2  0
  7  8  1  0
  8  9  1  0
  8 10  2  0
  7 11  1  0
 11 12  1  0
 12 13  2  0
 12 14  1  0
 14 15  1  0
 15 16  1  0
 16 17  1  0
 17 18  1  0
 18 19  2  0
 18 20  1  0
 11 21  1  0
 21 22  2  0
 22  2  1  0
 21  5  1  0
 20 14  1  0
  1 23  1  0
  1 24  1  0
  1 25  1  0
  3 26  1  0
  4 27  1  0
  6 28  1  0
  9 29  1  0
 15 30  1  0
 15 31  1  0
 16 32  1  0
 16 33  1  0
 20 34  1  0
 20 35  1  0
 22 36  1  0
M  CHG  2   9  -1  17  -1
M  END
>  <UniqueID>  (32) 
32

>  <SMILES>  (32) 
Cc1ccc2cc(C([NH-])=O)n(C(=O)N3CC[N-]C(=O)C3)c2c1

>  <Energy>  (32) 
75.56394677964667

>  <Genealogy>  (32) 
Cc1ccc2cc(C([NH-])=O)n(C(=O)N3CC[N-]C(=O)C3)c2c1 (protonated)
Cc1ccc2cc(C([NH-])=O)n(C(=O)N3CC[N-]C(=O)C3)c2c1 (3D coordinates assigned)
Cc1ccc2cc(C([NH-])=O)n(C(=O)N3CC[N-]C(=O)C3)c2c1 (nonaromatic ring conformer: 75.56394677964667 kcal/mol)

>  <smiles>  (32) 
Cc1ccc2cc(C(N)=O)n(C(=O)N3CCNC(=O)C3)c2c1

>  <score_type>  (32) 
oracle

>  <origin>  (32) 
adg

>  <m_score__min__energy>  (32) 
-7.1900000000000004

>  <m_primary>  (32) 
energy

$$$$
33:0
     RDKit          3D

 31 32  0  0  0  0  0  0  0  0999 V2000
  141.4680  159.4000  132.8540 N   0  0  0  0  0  0  0  0  0  0  0  0
  142.4020  159.8070  133.8510 C   0  0  0  0  0  0  0  0  0  0  0  0
  141.9880  160.4210  134.8700 O   0  0  0  0  0  0  0  0  0  0  0  0
  143.8500  159.5670  133.6790 C   0  0  0  0  0  0  0  0  0  0  0  0
  144.8010  160.5840  133.6870 C   0  0  0  0  0  0  0  0  0  0  0  0
  145.9990  159.9640  133.4130 C   0  0  0  0  0  0  0  0  0  0  0  0
  147.2800  160.4990  133.3070 C   0  0  0  0  0  0  0  0  0  0  0  0
  148.3420  159.6180  133.0430 C   0  0  0  0  0  0  0  0  0  0  0  0
  148.1080  158.2270  132.9100 C   0  0  0  0  0  0  0  0  0  0  0  0
  149.2470  157.2990  132.6050 C   0  0  0  0  0  0  0  0  0  0  0  0
  150.2490  157.9980  131.9570 F   0  0  0  0  0  0  0  0  0  0  0  0
  146.7930  157.7210  133.0090 C   0  0  0  0  0  0  0  0  0  0  0  0
  145.7520  158.6250  133.2550 C   0  0  0  0  0  0  0  0  0  0  0  0
  144.4350  158.3650  133.4160 N   0  0  0  0  0  0  0  0  0  0  0  0
  143.8200  157.0680  133.4190 C   0  0  0  0  0  0  0  0  0  0  0  0
  142.5860  156.9580  133.1830 O   0  0  0  0  0  0  0  0  0  0  0  0
  144.5990  155.9320  133.6660 O   0  0  0  0  0  0  0  0  0  0  0  0
  144.8460  155.4160  134.9710 C   0  0  0  0  0  0  0  0  0  0  0  0
  146.5380  154.7590  135.0830 P   0  0  0  0  0  0  0  0  0  0  0  0
  146.9550  154.1680  133.7560 O   0  0  0  0  0  0  0  0  0  0  0  0
  146.5940  153.5580  136.2720 O   0  0  0  0  0  0  0  0  0  0  0  0
  147.6000  156.0080  135.4990 O   0  0  0  0  0  0  0  0  0  0  0  0
  141.7310  158.7000  132.1250 H   0  0  0  0  0  0  0  0  0  0  0  0
  144.6311  161.6548  133.8727 H   0  0  0  0  0  0  0  0  0  0  0  0
  147.4552  161.5784  133.4263 H   0  0  0  0  0  0  0  0  0  0  0  0
  149.3639  160.0115  132.9387 H   0  0  0  0  0  0  0  0  0  0  0  0
  149.6398  156.8796  133.5430 H   0  0  0  0  0  0  0  0  0  0  0  0
  148.8923  156.4823  131.9591 H   0  0  0  0  0  0  0  0  0  0  0  0
  146.5919  156.6455  132.8959 H   0  0  0  0  0  0  0  0  0  0  0  0
  144.7205  156.2218  135.7092 H   0  0  0  0  0  0  0  0  0  0  0  0
  144.1333  154.6031  135.1741 H   0  0  0  0  0  0  0  0  0  0  0  0
  1  2  1  0
  2  3  2  0
  2  4  1  0
  4  5  2  0
  5  6  1  0
  6  7  2  0
  7  8  1  0
  8  9  2  0
  9 10  1  0
 10 11  1  0
  9 12  1  0
 12 13  2  0
 13 14  1  0
 14 15  1  0
 15 16  2  0
 15 17  1  0
 17 18  1  0
 18 19  1  0
 19 20  2  0
 19 21  1  0
 19 22  1  0
 14  4  1  0
 13  6  1  0
  1 23  1  0
  5 24  1  0
  7 25  1  0
  8 26  1  0
 10 27  1  0
 10 28  1  0
 12 29  1  0
 18 30  1  0
 18 31  1  0
M  CHG  3   1  -1  21  -1  22  -1
M  END
>  <UniqueID>  (33) 
33

>  <SMILES>  (33) 
[NH-]C(=O)c1cc2ccc(CF)cc2n1C(=O)OCP(=O)([O-])[O-]

>  <Energy>  (33) 
64.94655587036692

>  <Genealogy>  (33) 
[NH-]C(=O)c1cc2ccc(CF)cc2n1C(=O)OCP(=O)([O-])[O-] (protonated)
[NH-]C(=O)c1cc2ccc(CF)cc2n1C(=O)OCP(=O)([O-])[O-] (3D coordinates assigned)
[NH-]C(=O)c1cc2ccc(CF)cc2n1C(=O)OCP(=O)([O-])[O-] (optimized conformer: 64.94655587036692 kcal/mol)

>  <smiles>  (33) 
NC(=O)c1cc2ccc(CF)cc2n1C(=O)OCP(=O)(O)O

>  <score_type>  (33) 
oracle

>  <origin>  (33) 
adg

>  <m_score__min__energy>  (33) 
-5.6600000000000001

>  <m_primary>  (33) 
energy

$$$$
34:0
     RDKit          3D

 30 31  0  0  0  0  0  0  0  0999 V2000
  139.6950  160.6250  132.2430 C   0  0  0  0  0  0  0  0  0  0  0  0
  139.3500  159.3330  132.2440 C   0  0  0  0  0  0  0  0  0  0  0  0
  138.6690  158.7760  131.0560 C   0  0  0  0  0  0  0  0  0  0  0  0
  138.5600  157.5320  130.8890 O   0  0  0  0  0  0  0  0  0  0  0  0
  139.6710  158.4780  133.4170 C   0  0  0  0  0  0  0  0  0  0  0  0
  138.8330  158.3570  134.3510 O   0  0  0  0  0  0  0  0  0  0  0  0
  140.9270  157.7870  133.5110 N   0  0  0  0  0  0  0  0  0  0  0  0
  141.1410  156.4470  133.3900 C   0  0  0  0  0  0  0  0  0  0  0  0
  140.0930  155.4110  133.2980 C   0  0  0  0  0  0  0  0  0  0  0  0
  138.7440  155.7450  132.9670 N   0  0  0  0  0  0  0  0  0  0  0  0
  140.3830  154.2130  133.5600 O   0  0  0  0  0  0  0  0  0  0  0  0
  142.5070  156.1680  133.3740 C   0  0  0  0  0  0  0  0  0  0  0  0
  143.1290  157.3900  133.4910 C   0  0  0  0  0  0  0  0  0  0  0  0
  144.4840  157.7080  133.5050 C   0  0  0  0  0  0  0  0  0  0  0  0
  144.8410  159.0650  133.5900 C   0  0  0  0  0  0  0  0  0  0  0  0
  143.8440  160.0700  133.6450 C   0  0  0  0  0  0  0  0  0  0  0  0
  144.2210  161.4470  133.7170 N   0  0  0  0  0  0  0  0  0  0  0  0
  142.4800  159.7110  133.6250 C   0  0  0  0  0  0  0  0  0  0  0  0
  142.1530  158.3520  133.5640 C   0  0  0  0  0  0  0  0  0  0  0  0
  140.2026  161.0594  133.1169 H   0  0  0  0  0  0  0  0  0  0  0  0
  139.4713  161.2533  131.3683 H   0  0  0  0  0  0  0  0  0  0  0  0
  138.2497  159.4604  130.3038 H   0  0  0  0  0  0  0  0  0  0  0  0
  138.0330  154.9910  132.8510 H   0  0  0  0  0  0  0  0  0  0  0  0
  138.4250  156.7380  132.9330 H   0  0  0  0  0  0  0  0  0  0  0  0
  142.9855  155.1814  133.2865 H   0  0  0  0  0  0  0  0  0  0  0  0
  145.2516  156.9219  133.4512 H   0  0  0  0  0  0  0  0  0  0  0  0
  145.9035  159.3489  133.6140 H   0  0  0  0  0  0  0  0  0  0  0  0
  143.8460  162.0660  134.4700 H   0  0  0  0  0  0  0  0  0  0  0  0
  144.8760  161.8590  133.0150 H   0  0  0  0  0  0  0  0  0  0  0  0
  141.6937  160.4796  133.6565 H   0  0  0  0  0  0  0  0  0  0  0  0
  1  2  2  0
  2  3  1  0
  3  4  2  0
  2  5  1  0
  5  6  2  0
  5  7  1  0
  7  8  1  0
  8  9  1  0
  9 10  1  0
  9 11  2  0
  8 12  2  0
 12 13  1  0
 13 14  2  0
 14 15  1  0
 15 16  2  0
 16 17  1  0
 16 18  1  0
 18 19  2  0
 19  7  1  0
 19 13  1  0
  1 20  1  0
  1 21  1  0
  3 22  1  0
 10 23  1  0
 10 24  1  0
 12 25  1  0
 14 26  1  0
 15 27  1  0
 17 28  1  0
 17 29  1  0
 18 30  1  0
M  END
>  <UniqueID>  (34) 
34

>  <SMILES>  (34) 
C=C(C=O)C(=O)n1c(C(N)=O)cc2ccc(N)cc21

>  <Energy>  (34) 
70.34373130969459

>  <Genealogy>  (34) 
C=C(C=O)C(=O)n1c(C(N)=O)cc2ccc(N)cc21 (3D coordinates assigned)
C=C(C=O)C(=O)n1c(C(N)=O)cc2ccc(N)cc21 (optimized conformer: 70.34373130969459 kcal/mol)

>  <smiles>  (34) 
C=C(C=O)C(=O)n1c(C(N)=O)cc2ccc(N)cc21

>  <score_type>  (34) 
oracle

>  <origin>  (34) 
adg

>  <m_score__min__energy>  (34) 
-5.9800000000000004

>  <m_primary>  (34) 
energy

$$$$
35:0
     RDKit          3D

 45 47  0  0  0  0  0  0  0  0999 V2000
  140.2640  157.2660  133.0080 C   0  0  0  0  0  0  0  0  0  0  0  0
  141.5930  157.9430  133.1550 C   0  0  0  0  0  0  0  0  0  0  0  0
  141.6490  159.3410  133.3790 C   0  0  0  0  0  0  0  0  0  0  0  0
  142.8810  159.9870  133.5740 C   0  0  0  0  0  0  0  0  0  0  0  0
  144.0370  159.2100  133.5430 C   0  0  0  0  0  0  0  0  0  0  0  0
  145.3500  159.5630  133.7550 C   0  0  0  0  0  0  0  0  0  0  0  0
  146.0760  158.3770  133.6430 C   0  0  0  0  0  0  0  0  0  0  0  0
  147.5480  158.2740  133.7780 C   0  0  0  0  0  0  0  0  0  0  0  0
  148.1920  157.0030  133.8890 N   0  0  0  0  0  0  0  0  0  0  0  0
  148.2530  159.3170  133.8010 O   0  0  0  0  0  0  0  0  0  0  0  0
  145.2420  157.3390  133.3490 N   0  0  0  0  0  0  0  0  0  0  0  0
  145.5850  155.9490  133.2280 C   0  0  0  0  0  0  0  0  0  0  0  0
  146.2720  155.5740  132.2380 O   0  0  0  0  0  0  0  0  0  0  0  0
  145.1780  154.9860  134.2270 N   0  0  0  0  0  0  0  0  0  0  0  0
  146.0580  153.8450  134.5320 C   0  0  0  0  0  0  0  0  0  0  0  0
  146.9060  154.1240  135.7390 C   0  0  0  0  0  0  0  0  0  0  0  0
  147.5980  155.1750  135.7920 O   0  0  0  0  0  0  0  0  0  0  0  0
  146.9840  153.2040  136.7800 O   0  0  0  0  0  0  0  0  0  0  0  0
  143.8540  155.0650  134.8690 C   0  0  0  0  0  0  0  0  0  0  0  0
  142.9590  153.9550  134.3880 C   0  0  0  0  0  0  0  0  0  0  0  0
  142.6480  153.8370  133.0230 C   0  0  0  0  0  0  0  0  0  0  0  0
  141.7850  152.8320  132.5780 C   0  0  0  0  0  0  0  0  0  0  0  0
  141.2270  151.9340  133.4920 C   0  0  0  0  0  0  0  0  0  0  0  0
  141.5370  152.0380  134.8520 C   0  0  0  0  0  0  0  0  0  0  0  0
  140.9860  151.1410  135.7590 O   0  0  0  0  0  0  0  0  0  0  0  0
  142.4030  153.0410  135.2990 C   0  0  0  0  0  0  0  0  0  0  0  0
  143.9980  157.8600  133.3180 C   0  0  0  0  0  0  0  0  0  0  0  0
  142.7850  157.1880  133.1390 C   0  0  0  0  0  0  0  0  0  0  0  0
  139.8482  157.0542  134.0041 H   0  0  0  0  0  0  0  0  0  0  0  0
  139.5765  157.9238  132.4560 H   0  0  0  0  0  0  0  0  0  0  0  0
  140.3919  156.3232  132.4560 H   0  0  0  0  0  0  0  0  0  0  0  0
  140.7180  159.9265  133.4004 H   0  0  0  0  0  0  0  0  0  0  0  0
  142.9315  161.0723  133.7458 H   0  0  0  0  0  0  0  0  0  0  0  0
  145.7439  160.5678  133.9678 H   0  0  0  0  0  0  0  0  0  0  0  0
  147.6530  156.1100  133.8600 H   0  0  0  0  0  0  0  0  0  0  0  0
  149.2340  156.9490  133.9110 H   0  0  0  0  0  0  0  0  0  0  0  0
  145.4397  152.9560  134.7251 H   0  0  0  0  0  0  0  0  0  0  0  0
  146.7210  153.6752  133.6709 H   0  0  0  0  0  0  0  0  0  0  0  0
  143.9764  154.9827  135.9591 H   0  0  0  0  0  0  0  0  0  0  0  0
  143.3923  156.0284  134.6069 H   0  0  0  0  0  0  0  0  0  0  0  0
  143.0867  154.5403  132.2998 H   0  0  0  0  0  0  0  0  0  0  0  0
  141.5448  152.7477  131.5079 H   0  0  0  0  0  0  0  0  0  0  0  0
  140.5443  151.1457  133.1420 H   0  0  0  0  0  0  0  0  0  0  0  0
  142.6500  153.1147  136.3684 H   0  0  0  0  0  0  0  0  0  0  0  0
  142.7606  156.0985  132.9895 H   0  0  0  0  0  0  0  0  0  0  0  0
  1  2  1  0
  2  3  2  0
  3  4  1  0
  4  5  2  0
  5  6  1  0
  6  7  2  0
  7  8  1  0
  8  9  1  0
  8 10  2  0
  7 11  1  0
 11 12  1  0
 12 13  2  0
 12 14  1  0
 14 15  1  0
 15 16  1  0
 16 17  2  0
 16 18  1  0
 14 19  1  0
 19 20  1  0
 20 21  2  0
 21 22  1  0
 22 23  2  0
 23 24  1  0
 24 25  1  0
 24 26  2  0
 11 27  1  0
 27 28  2  0
 28  2  1  0
 27  5  1  0
 26 20  1  0
  1 29  1  0
  1 30  1  0
  1 31  1  0
  3 32  1  0
  4 33  1  0
  6 34  1  0
  9 35  1  0
  9 36  1  0
 15 37  1  0
 15 38  1  0
 19 39  1  0
 19 40  1  0
 21 41  1  0
 22 42  1  0
 23 43  1  0
 26 44  1  0
 28 45  1  0
M  CHG  2  18  -1  25  -1
M  END
>  <UniqueID>  (35) 
35

>  <SMILES>  (35) 
Cc1ccc2cc(C(N)=O)n(C(=O)N(CC(=O)[O-])Cc3cccc([O-])c3)c2c1

>  <Energy>  (35) 
82.3567130034293

>  <Genealogy>  (35) 
Cc1ccc2cc(C(N)=O)n(C(=O)N(CC(=O)[O-])Cc3cccc([O-])c3)c2c1 (protonated)
Cc1ccc2cc(C(N)=O)n(C(=O)N(CC(=O)[O-])Cc3cccc([O-])c3)c2c1 (3D coordinates assigned)
Cc1ccc2cc(C(N)=O)n(C(=O)N(CC(=O)[O-])Cc3cccc([O-])c3)c2c1 (optimized conformer: 82.3567130034293 kcal/mol)

>  <smiles>  (35) 
Cc1ccc2cc(C(N)=O)n(C(=O)N(CC(=O)O)Cc3cccc(O)c3)c2c1

>  <score_type>  (35) 
oracle

>  <origin>  (35) 
adg

>  <m_score__min__energy>  (35) 
-8.3000000000000007

>  <m_primary>  (35) 
energy

$$$$
36:0
     RDKit          3D

 50 52  0  0  0  0  0  0  0  0999 V2000
  142.5350  153.7860  135.2930 N   0  0  0  0  0  0  0  0  0  0  0  0
  141.7940  154.8630  135.8690 C   0  0  0  0  0  0  0  0  0  0  0  0
  141.6320  154.8970  137.1170 O   0  0  0  0  0  0  0  0  0  0  0  0
  141.2540  155.9480  135.0200 C   0  0  0  0  0  0  0  0  0  0  0  0
  141.3300  157.3020  135.3460 C   0  0  0  0  0  0  0  0  0  0  0  0
  140.6310  157.9550  134.3560 C   0  0  0  0  0  0  0  0  0  0  0  0
  140.4020  159.3160  134.1730 C   0  0  0  0  0  0  0  0  0  0  0  0
  139.6700  159.7150  133.0420 C   0  0  0  0  0  0  0  0  0  0  0  0
  139.1720  158.7530  132.1230 C   0  0  0  0  0  0  0  0  0  0  0  0
  138.4420  159.2000  130.8800 C   0  0  0  0  0  0  0  0  0  0  0  0
  138.7680  158.3900  129.8060 F   0  0  0  0  0  0  0  0  0  0  0  0
  137.0800  159.1280  131.1020 F   0  0  0  0  0  0  0  0  0  0  0  0
  138.7790  160.5020  130.5580 F   0  0  0  0  0  0  0  0  0  0  0  0
  139.4460  157.3820  132.3340 C   0  0  0  0  0  0  0  0  0  0  0  0
  140.1630  157.0110  133.4790 C   0  0  0  0  0  0  0  0  0  0  0  0
  140.5380  155.7730  133.8720 N   0  0  0  0  0  0  0  0  0  0  0  0
  140.2960  154.5400  133.1740 C   0  0  0  0  0  0  0  0  0  0  0  0
  139.1130  154.1470  132.9800 O   0  0  0  0  0  0  0  0  0  0  0  0
  141.3760  153.7890  132.6980 O   0  0  0  0  0  0  0  0  0  0  0  0
  141.3450  152.3690  132.5910 C   0  0  0  0  0  0  0  0  0  0  0  0
  142.2920  151.8000  133.4910 O   0  0  0  0  0  0  0  0  0  0  0  0
  143.6720  151.8950  133.2960 C   0  0  0  0  0  0  0  0  0  0  0  0
  144.2190  151.3280  132.3100 O   0  0  0  0  0  0  0  0  0  0  0  0
  144.4340  152.6360  134.2060 O   0  0  0  0  0  0  0  0  0  0  0  0
  145.5020  153.4980  133.8150 C   0  0  0  0  0  0  0  0  0  0  0  0
  144.9980  154.9000  133.5880 C   0  0  0  0  0  0  0  0  0  0  0  0
  143.9360  155.1420  132.7020 C   0  0  0  0  0  0  0  0  0  0  0  0
  143.4760  156.4460  132.4930 C   0  0  0  0  0  0  0  0  0  0  0  0
  144.0540  157.5250  133.1730 C   0  0  0  0  0  0  0  0  0  0  0  0
  143.5300  158.8070  132.9440 O   0  0  0  0  0  0  0  0  0  0  0  0
  143.6540  160.1290  134.0410 P   0  0  0  0  0  0  0  0  0  0  0  0
  143.1420  159.6980  135.3960 O   0  0  0  0  0  0  0  0  0  0  0  0
  145.2740  160.5990  134.1800 O   0  0  0  0  0  0  0  0  0  0  0  0
  142.7250  161.4310  133.4830 O   0  0  0  0  0  0  0  0  0  0  0  0
  145.1240  157.2820  134.0590 C   0  0  0  0  0  0  0  0  0  0  0  0
  145.5940  155.9790  134.2570 C   0  0  0  0  0  0  0  0  0  0  0  0
  142.9320  153.0400  135.9050 H   0  0  0  0  0  0  0  0  0  0  0  0
  142.6590  153.7030  134.2600 H   0  0  0  0  0  0  0  0  0  0  0  0
  141.8400  157.7523  136.2103 H   0  0  0  0  0  0  0  0  0  0  0  0
  140.7825  160.0564  134.8920 H   0  0  0  0  0  0  0  0  0  0  0  0
  139.4804  160.7842  132.8662 H   0  0  0  0  0  0  0  0  0  0  0  0
  139.1037  156.6233  131.6149 H   0  0  0  0  0  0  0  0  0  0  0  0
  140.3376  152.0051  132.8416 H   0  0  0  0  0  0  0  0  0  0  0  0
  141.5977  152.0751  131.5616 H   0  0  0  0  0  0  0  0  0  0  0  0
  146.2638  153.5120  134.6084 H   0  0  0  0  0  0  0  0  0  0  0  0
  145.9355  153.1214  132.8768 H   0  0  0  0  0  0  0  0  0  0  0  0
  143.4640  154.3027  132.1702 H   0  0  0  0  0  0  0  0  0  0  0  0
  142.6517  156.6259  131.7872 H   0  0  0  0  0  0  0  0  0  0  0  0
  145.5910  158.1203  134.5967 H   0  0  0  0  0  0  0  0  0  0  0  0
  146.4361  155.7998  134.9416 H   0  0  0  0  0  0  0  0  0  0  0  0
  1  2  1  0
  2  3  2  0
  2  4  1  0
  4  5  2  0
  5  6  1  0
  6  7  2  0
  7  8  1  0
  8  9  2  0
  9 10  1  0
 10 11  1  0
 10 12  1  0
 10 13  1  0
  9 14  1  0
 14 15  2  0
 15 16  1  0
 16 17  1  0
 17 18  2  0
 17 19  1  0
 19 20  1  0
 20 21  1  0
 21 22  1  0
 22 23  2  0
 22 24  1  0
 24 25  1  0
 25 26  1  0
 26 27  2  0
 27 28  1  0
 28 29  2  0
 29 30  1  0
 30 31  1  0
 31 32  2  0
 31 33  1  0
 31 34  1  0
 29 35  1  0
 35 36  2  0
 16  4  1  0
 36 26  1  0
 15  6  1  0
  1 37  1  0
  1 38  1  0
  5 39  1  0
  7 40  1  0
  8 41  1  0
 14 42  1  0
 20 43  1  0
 20 44  1  0
 25 45  1  0
 25 46  1  0
 27 47  1  0
 28 48  1  0
 35 49  1  0
 36 50  1  0
M  CHG  2  33  -1  34  -1
M  END
>  <UniqueID>  (36) 
36

>  <SMILES>  (36) 
NC(=O)c1cc2ccc(C(F)(F)F)cc2n1C(=O)OCOC(=O)OCc1ccc(OP(=O)([O-])[O-])cc1

>  <Energy>  (36) 
86.02185609793291

>  <Genealogy>  (36) 
NC(=O)c1cc2ccc(C(F)(F)F)cc2n1C(=O)OCOC(=O)OCc1ccc(OP(=O)([O-])[O-])cc1 (protonated)
NC(=O)c1cc2ccc(C(F)(F)F)cc2n1C(=O)OCOC(=O)OCc1ccc(OP(=O)([O-])[O-])cc1 (3D coordinates assigned)
NC(=O)c1cc2ccc(C(F)(F)F)cc2n1C(=O)OCOC(=O)OCc1ccc(OP(=O)([O-])[O-])cc1 (optimized conformer: 86.02185609793291 kcal/mol)

>  <smiles>  (36) 
NC(=O)c1cc2ccc(C(F)(F)F)cc2n1C(=O)OCOC(=O)OCc1ccc(OP(=O)(O)O)cc1

>  <score_type>  (36) 
oracle

>  <origin>  (36) 
adg

>  <m_score__min__energy>  (36) 
-7.5199999999999996

>  <m_primary>  (36) 
energy

$$$$
37:0
     RDKit          3D

 35 36  0  0  0  0  0  0  0  0999 V2000
  148.2120  155.0970  132.7570 C   0  0  0  0  0  0  0  0  0  0  0  0
  147.8480  156.5460  132.8890 C   0  0  0  0  0  0  0  0  0  0  0  0
  148.8560  157.5390  132.8120 C   0  0  0  0  0  0  0  0  0  0  0  0
  148.5310  158.8980  132.9560 C   0  0  0  0  0  0  0  0  0  0  0  0
  147.2000  159.2300  133.1960 C   0  0  0  0  0  0  0  0  0  0  0  0
  146.6110  160.4650  133.3400 C   0  0  0  0  0  0  0  0  0  0  0  0
  145.2600  160.2030  133.5510 C   0  0  0  0  0  0  0  0  0  0  0  0
  144.2590  161.2580  133.8120 C   0  0  0  0  0  0  0  0  0  0  0  0
  142.8590  160.9790  133.7600 N   0  0  0  0  0  0  0  0  0  0  0  0
  144.6460  162.4110  134.1390 O   0  0  0  0  0  0  0  0  0  0  0  0
  145.0180  158.8620  133.5260 N   0  0  0  0  0  0  0  0  0  0  0  0
  143.7410  158.2050  133.5930 C   0  0  0  0  0  0  0  0  0  0  0  0
  143.2790  157.6240  132.5730 O   0  0  0  0  0  0  0  0  0  0  0  0
  142.9920  158.2160  134.8110 N   0  0  0  0  0  0  0  0  0  0  0  0
  141.6020  157.7870  134.8890 C   0  0  0  0  0  0  0  0  0  0  0  0
  140.6820  159.0140  134.9290 C   0  0  1  0  0  0  0  0  0  0  0  0
  141.3270  160.1140  135.5220 O   0  0  0  0  0  0  0  0  0  0  0  0
  140.2030  159.3690  133.5500 C   0  0  0  0  0  0  0  0  0  0  0  0
  139.5000  158.5550  132.8950 O   0  0  0  0  0  0  0  0  0  0  0  0
  140.5450  160.5910  132.9810 O   0  0  0  0  0  0  0  0  0  0  0  0
  146.2180  158.2790  133.3080 C   0  0  0  0  0  0  0  0  0  0  0  0
  146.5110  156.9180  133.1460 C   0  0  0  0  0  0  0  0  0  0  0  0
  148.3232  154.6542  133.7578 H   0  0  0  0  0  0  0  0  0  0  0  0
  147.4188  154.5682  132.2082 H   0  0  0  0  0  0  0  0  0  0  0  0
  149.1610  155.0058  132.2082 H   0  0  0  0  0  0  0  0  0  0  0  0
  149.9011  157.2433  132.6381 H   0  0  0  0  0  0  0  0  0  0  0  0
  149.3045  159.6765  132.8814 H   0  0  0  0  0  0  0  0  0  0  0  0
  147.1021  161.4484  133.2975 H   0  0  0  0  0  0  0  0  0  0  0  0
  142.5060  160.0020  133.6670 H   0  0  0  0  0  0  0  0  0  0  0  0
  142.1670  161.7470  133.9050 H   0  0  0  0  0  0  0  0  0  0  0  0
  141.3582  157.1761  134.0073 H   0  0  0  0  0  0  0  0  0  0  0  0
  141.4556  157.1928  135.8031 H   0  0  0  0  0  0  0  0  0  0  0  0
  139.8086  158.7557  135.5458 H   0  0  0  0  0  0  0  0  0  0  0  0
  142.3030  159.9270  135.5280 H   0  0  0  0  0  0  0  0  0  0  0  0
  145.7185  156.1585  133.2174 H   0  0  0  0  0  0  0  0  0  0  0  0
  1  2  1  0
  2  3  2  0
  3  4  1  0
  4  5  2  0
  5  6  1  0
  6  7  2  0
  7  8  1  0
  8  9  1  0
  8 10  2  0
  7 11  1  0
 11 12  1  0
 12 13  2  0
 12 14  1  0
 14 15  1  0
 15 16  1  0
 16 17  1  0
 16 18  1  0
 18 19  2  0
 18 20  1  0
 11 21  1  0
 21 22  2  0
 22  2  1  0
 21  5  1  0
  1 23  1  0
  1 24  1  0
  1 25  1  0
  3 26  1  0
  4 27  1  0
  6 28  1  0
  9 29  1  0
  9 30  1  0
 15 31  1  0
 15 32  1  0
 16 33  1  1
 17 34  1  0
 22 35  1  0
M  CHG  2  14  -1  20  -1
M  END
>  <UniqueID>  (37) 
37

>  <SMILES>  (37) 
Cc1ccc2cc(C(N)=O)n(C(=O)[N-]C[C@@H](O)C(=O)[O-])c2c1

>  <Energy>  (37) 
70.41363051820585

>  <Genealogy>  (37) 
Cc1ccc2cc(C(N)=O)n(C(=O)[N-]CC(O)C(=O)[O-])c2c1 (protonated)
Cc1ccc2cc(C(N)=O)n(C(=O)[N-]C[C@@H](O)C(=O)[O-])c2c1 (chirality)
Cc1ccc2cc(C(N)=O)n(C(=O)[N-]C[C@@H](O)C(=O)[O-])c2c1 (3D coordinates assigned)
Cc1ccc2cc(C(N)=O)n(C(=O)[N-]C[C@@H](O)C(=O)[O-])c2c1 (optimized conformer: 70.41363051820585 kcal/mol)

>  <smiles>  (37) 
Cc1ccc2cc(C(N)=O)n(C(=O)NCC(O)C(=O)O)c2c1

>  <score_type>  (37) 
oracle

>  <origin>  (37) 
adg

>  <m_score__min__energy>  (37) 
-6.5800000000000001

>  <m_primary>  (37) 
energy

$$$$
38:0
     RDKit          3D

 47 51  0  0  0  0  0  0  0  0999 V2000
  148.1040  161.1650  131.4140 N   0  0  0  0  0  0  0  0  0  0  0  0
  149.0320  160.0950  131.6140 C   0  0  0  0  0  0  0  0  0  0  0  0
  150.2300  160.2530  131.2600 O   0  0  0  0  0  0  0  0  0  0  0  0
  148.6040  158.8230  132.2420 C   0  0  0  0  0  0  0  0  0  0  0  0
  149.2560  157.6010  132.0770 C   0  0  0  0  0  0  0  0  0  0  0  0
  148.5020  156.6870  132.7790 C   0  0  0  0  0  0  0  0  0  0  0  0
  148.6990  155.3230  132.9780 C   0  0  0  0  0  0  0  0  0  0  0  0
  147.7760  154.6350  133.7830 C   0  0  0  0  0  0  0  0  0  0  0  0
  146.6740  155.3130  134.3680 C   0  0  0  0  0  0  0  0  0  0  0  0
  145.7260  154.5770  135.2790 C   0  0  0  0  0  0  0  0  0  0  0  0
  144.6360  155.3700  135.5930 F   0  0  0  0  0  0  0  0  0  0  0  0
  146.3880  154.2380  136.4450 F   0  0  0  0  0  0  0  0  0  0  0  0
  145.2610  153.4230  134.6720 F   0  0  0  0  0  0  0  0  0  0  0  0
  146.5260  156.7050  134.1640 C   0  0  0  0  0  0  0  0  0  0  0  0
  147.4450  157.3560  133.3370 C   0  0  0  0  0  0  0  0  0  0  0  0
  147.4920  158.6640  133.0110 N   0  0  0  0  0  0  0  0  0  0  0  0
  146.5660  159.6760  133.4290 C   0  0  0  0  0  0  0  0  0  0  0  0
  146.9850  160.8190  133.7480 O   0  0  0  0  0  0  0  0  0  0  0  0
  145.1660  159.4010  133.4620 N   0  0  0  0  0  0  0  0  0  0  0  0
  143.9290  160.1360  133.7890 C   0  0  0  0  0  0  0  0  0  0  0  0
  142.9870  159.0380  133.3850 C   0  0  0  0  0  0  0  0  0  0  0  0
  142.1760  158.4580  134.4870 N   0  0  0  0  0  0  0  0  0  0  0  0
  140.8080  158.0000  134.1780 C   0  0  0  0  0  0  0  0  0  0  0  0
  139.9350  158.2850  135.3870 C   0  0  1  0  0  0  0  0  0  0  0  0
  140.4120  157.7160  136.7150 C   0  0  0  0  0  0  0  0  0  0  0  0
  140.7500  159.1460  136.3180 C   0  0  1  0  0  0  0  0  0  0  0  0
  142.0940  159.3620  135.6430 C   0  0  0  0  0  0  0  0  0  0  0  0
  144.2580  158.3170  133.0370 C   0  0  0  0  0  0  0  0  0  0  0  0
  147.0890  161.0570  131.6270 H   0  0  0  0  0  0  0  0  0  0  0  0
  148.4310  162.0680  131.0030 H   0  0  0  0  0  0  0  0  0  0  0  0
  150.1769  157.4082  131.5071 H   0  0  0  0  0  0  0  0  0  0  0  0
  149.5511  154.8003  132.5190 H   0  0  0  0  0  0  0  0  0  0  0  0
  147.9085  153.5578  133.9624 H   0  0  0  0  0  0  0  0  0  0  0  0
  145.7076  157.2612  134.6446 H   0  0  0  0  0  0  0  0  0  0  0  0
  143.8542  160.3894  134.8568 H   0  0  0  0  0  0  0  0  0  0  0  0
  143.7880  161.1192  133.3163 H   0  0  0  0  0  0  0  0  0  0  0  0
  142.1501  159.1637  132.6823 H   0  0  0  0  0  0  0  0  0  0  0  0
  140.4216  158.5418  133.3022 H   0  0  0  0  0  0  0  0  0  0  0  0
  140.8070  156.9238  133.9504 H   0  0  0  0  0  0  0  0  0  0  0  0
  138.9455  158.2784  134.9064 H   0  0  0  0  0  0  0  0  0  0  0  0
  139.6914  157.5235  137.5235 H   0  0  0  0  0  0  0  0  0  0  0  0
  140.9909  156.8332  137.0241 H   0  0  0  0  0  0  0  0  0  0  0  0
  140.6657  160.0925  136.8720 H   0  0  0  0  0  0  0  0  0  0  0  0
  142.1786  160.4059  135.3065 H   0  0  0  0  0  0  0  0  0  0  0  0
  142.9120  159.1534  136.3482 H   0  0  0  0  0  0  0  0  0  0  0  0
  144.3963  157.3934  133.6182 H   0  0  0  0  0  0  0  0  0  0  0  0
  144.3617  157.9485  132.0058 H   0  0  0  0  0  0  0  0  0  0  0  0
  1  2  1  0
  2  3  2  0
  2  4  1  0
  4  5  2  0
  5  6  1  0
  6  7  2  0
  7  8  1  0
  8  9  2  0
  9 10  1  0
 10 11  1  0
 10 12  1  0
 10 13  1  0
  9 14  1  0
 14 15  2  0
 15 16  1  0
 16 17  1  0
 17 18  2  0
 17 19  1  0
 19 20  1  0
 20 21  1  0
 21 22  1  0
 22 23  1  0
 23 24  1  0
 24 25  1  0
 25 26  1  0
 26 27  1  0
 21 28  1  0
 16  4  1  0
 28 19  1  0
 15  6  1  0
 27 22  1  0
 26 24  1  0
  1 29  1  0
  1 30  1  0
  5 31  1  0
  7 32  1  0
  8 33  1  0
 14 34  1  0
 20 35  1  0
 20 36  1  0
 21 37  1  0
 23 38  1  0
 23 39  1  0
 24 40  1  6
 25 41  1  0
 25 42  1  0
 26 43  1  1
 27 44  1  0
 27 45  1  0
 28 46  1  0
 28 47  1  0
M  END
>  <UniqueID>  (38) 
38

>  <SMILES>  (38) 
NC(=O)c1cc2ccc(C(F)(F)F)cc2n1C(=O)N1CC(N2C[C@H]3C[C@H]3C2)C1

>  <Energy>  (38) 
408.4075248616415

>  <Genealogy>  (38) 
NC(=O)c1cc2ccc(C(F)(F)F)cc2n1C(=O)N1CC(N2C[C@H]3C[C@H]3C2)C1 (chirality)
NC(=O)c1cc2ccc(C(F)(F)F)cc2n1C(=O)N1CC(N2C[C@H]3C[C@H]3C2)C1 (3D coordinates assigned)
NC(=O)c1cc2ccc(C(F)(F)F)cc2n1C(=O)N1CC(N2C[C@H]3C[C@H]3C2)C1 (nonaromatic ring conformer: 408.4075248616415 kcal/mol)

>  <smiles>  (38) 
NC(=O)c1cc2ccc(C(F)(F)F)cc2n1C(=O)N1CC(N2CC3CC3C2)C1

>  <score_type>  (38) 
oracle

>  <origin>  (38) 
adg

>  <m_score__min__energy>  (38) 
-8.8900000000000006

>  <m_primary>  (38) 
energy

$$$$
39:0
     RDKit          3D

 42 44  0  0  0  0  0  0  0  0999 V2000
  148.6240  156.9820  133.6020 N   0  0  0  0  0  0  0  0  0  0  0  0
  148.2170  158.3450  133.4610 C   0  0  0  0  0  0  0  0  0  0  0  0
  149.0910  159.2260  133.2530 O   0  0  0  0  0  0  0  0  0  0  0  0
  146.7950  158.7280  133.5830 C   0  0  0  0  0  0  0  0  0  0  0  0
  146.3420  160.0450  133.6770 C   0  0  0  0  0  0  0  0  0  0  0  0
  144.9690  159.9600  133.6740 C   0  0  0  0  0  0  0  0  0  0  0  0
  144.0080  160.9630  133.7500 C   0  0  0  0  0  0  0  0  0  0  0  0
  142.6560  160.5810  133.7420 C   0  0  0  0  0  0  0  0  0  0  0  0
  142.2850  159.2130  133.6610 C   0  0  0  0  0  0  0  0  0  0  0  0
  140.8930  158.8300  133.6690 N   0  0  0  0  0  0  0  0  0  0  0  0
  139.9670  159.4100  132.6840 C   0  0  0  0  0  0  0  0  0  0  0  0
  138.8300  158.4310  132.3100 C   0  0  0  0  0  0  0  0  0  0  0  0
  138.5610  157.4020  133.3310 N   0  0  0  0  0  0  0  0  0  0  0  0
  138.8550  157.8750  134.6840 C   0  0  0  0  0  0  0  0  0  0  0  0
  140.3620  158.0800  134.8160 C   0  0  0  0  0  0  0  0  0  0  0  0
  143.2940  158.2240  133.5840 C   0  0  0  0  0  0  0  0  0  0  0  0
  144.6310  158.6370  133.5820 C   0  0  0  0  0  0  0  0  0  0  0  0
  145.7400  157.8680  133.5270 N   0  0  0  0  0  0  0  0  0  0  0  0
  145.7670  156.4320  133.4910 C   0  0  0  0  0  0  0  0  0  0  0  0
  145.7960  155.8420  132.3770 O   0  0  0  0  0  0  0  0  0  0  0  0
  145.5880  155.6410  134.7570 C   0  0  0  0  0  0  0  0  0  0  0  0
  147.1110  154.7650  135.2440 P   0  0  0  0  0  0  0  0  0  0  0  0
  148.0900  155.7330  135.8710 O   0  0  0  0  0  0  0  0  0  0  0  0
  146.7230  153.5590  136.3630 O   0  0  0  0  0  0  0  0  0  0  0  0
  147.8200  154.0530  133.8830 O   0  0  0  0  0  0  0  0  0  0  0  0
  149.6360  156.7310  133.5490 H   0  0  0  0  0  0  0  0  0  0  0  0
  147.9260  156.2150  133.7150 H   0  0  0  0  0  0  0  0  0  0  0  0
  146.9533  160.9573  133.7401 H   0  0  0  0  0  0  0  0  0  0  0  0
  144.2976  162.0222  133.8144 H   0  0  0  0  0  0  0  0  0  0  0  0
  141.8741  161.3525  133.7993 H   0  0  0  0  0  0  0  0  0  0  0  0
  139.5240  160.3232  133.1081 H   0  0  0  0  0  0  0  0  0  0  0  0
  140.5383  159.6315  131.7705 H   0  0  0  0  0  0  0  0  0  0  0  0
  137.9096  159.0133  132.1557 H   0  0  0  0  0  0  0  0  0  0  0  0
  139.1543  157.9002  131.4027 H   0  0  0  0  0  0  0  0  0  0  0  0
  137.5460  157.1480  133.2860 H   0  0  0  0  0  0  0  0  0  0  0  0
  138.3350  158.8275  134.8640 H   0  0  0  0  0  0  0  0  0  0  0  0
  138.5121  157.1347  135.4218 H   0  0  0  0  0  0  0  0  0  0  0  0
  140.5695  158.6403  135.7396 H   0  0  0  0  0  0  0  0  0  0  0  0
  140.8489  157.0941  134.8463 H   0  0  0  0  0  0  0  0  0  0  0  0
  143.0338  157.1567  133.5271 H   0  0  0  0  0  0  0  0  0  0  0  0
  145.3006  156.3283  135.5663 H   0  0  0  0  0  0  0  0  0  0  0  0
  144.8081  154.8867  134.5761 H   0  0  0  0  0  0  0  0  0  0  0  0
  1  2  1  0
  2  3  2  0
  2  4  1  0
  4  5  2  0
  5  6  1  0
  6  7  2  0
  7  8  1  0
  8  9  2  0
  9 10  1  0
 10 11  1  0
 11 12  1  0
 12 13  1  0
 13 14  1  0
 14 15  1  0
  9 16  1  0
 16 17  2  0
 17 18  1  0
 18 19  1  0
 19 20  2  0
 19 21  1  0
 21 22  1  0
 22 23  2  0
 22 24  1  0
 22 25  1  0
 18  4  1  0
 17  6  1  0
 15 10  1  0
  1 26  1  0
  1 27  1  0
  5 28  1  0
  7 29  1  0
  8 30  1  0
 11 31  1  0
 11 32  1  0
 12 33  1  0
 12 34  1  0
 13 35  1  0
 14 36  1  0
 14 37  1  0
 15 38  1  0
 15 39  1  0
 16 40  1  0
 21 41  1  0
 21 42  1  0
M  CHG  2  24  -1  25  -1
M  END
>  <UniqueID>  (39) 
39

>  <SMILES>  (39) 
NC(=O)c1cc2ccc(N3CCNCC3)cc2n1C(=O)CP(=O)([O-])[O-]

>  <Energy>  (39) 
86.78140201017818

>  <Genealogy>  (39) 
NC(=O)c1cc2ccc(N3CCNCC3)cc2n1C(=O)CP(=O)([O-])[O-] (protonated)
NC(=O)c1cc2ccc(N3CCNCC3)cc2n1C(=O)CP(=O)([O-])[O-] (3D coordinates assigned)
NC(=O)c1cc2ccc(N3CCNCC3)cc2n1C(=O)CP(=O)([O-])[O-] (nonaromatic ring conformer: 86.78140201017818 kcal/mol)

>  <smiles>  (39) 
NC(=O)c1cc2ccc(N3CCNCC3)cc2n1C(=O)CP(=O)(O)O

>  <score_type>  (39) 
oracle

>  <origin>  (39) 
adg

>  <m_score__min__energy>  (39) 
-7.8799999999999999

>  <m_primary>  (39) 
energy

$$$$
40:0
     RDKit          3D

 37 38  0  0  0  0  0  0  0  0999 V2000
  149.3030  157.1760  131.8770 N   0  0  0  0  0  0  0  0  0  0  0  0
  148.9490  158.5110  132.2430 C   0  0  0  0  0  0  0  0  0  0  0  0
  149.8130  159.4230  132.1450 O   0  0  0  0  0  0  0  0  0  0  0  0
  147.6010  158.8180  132.7660 C   0  0  0  0  0  0  0  0  0  0  0  0
  147.1260  160.1110  132.9810 C   0  0  0  0  0  0  0  0  0  0  0  0
  145.8150  159.9590  133.3690 C   0  0  0  0  0  0  0  0  0  0  0  0
  144.8660  160.9180  133.7060 C   0  0  0  0  0  0  0  0  0  0  0  0
  143.5880  160.4760  134.0870 C   0  0  0  0  0  0  0  0  0  0  0  0
  143.2880  159.0900  134.1490 C   0  0  0  0  0  0  0  0  0  0  0  0
  141.9030  158.6300  134.5230 C   0  0  0  0  0  0  0  0  0  0  0  0
  141.7660  157.2670  134.3120 F   0  0  0  0  0  0  0  0  0  0  0  0
  140.9750  159.3000  133.7470 F   0  0  0  0  0  0  0  0  0  0  0  0
  141.6440  158.8870  135.8580 F   0  0  0  0  0  0  0  0  0  0  0  0
  144.2740  158.1470  133.7740 C   0  0  0  0  0  0  0  0  0  0  0  0
  145.5330  158.6180  133.3820 C   0  0  0  0  0  0  0  0  0  0  0  0
  146.6200  157.9030  133.0130 N   0  0  0  0  0  0  0  0  0  0  0  0
  146.7310  156.4710  132.9760 C   0  0  0  0  0  0  0  0  0  0  0  0
  145.9760  155.7990  132.2210 O   0  0  0  0  0  0  0  0  0  0  0  0
  147.6830  155.8050  133.8110 N   0  0  0  0  0  0  0  0  0  0  0  0
  147.3680  154.5990  134.5650 C   0  0  0  0  0  0  0  0  0  0  0  0
  147.5580  153.3620  133.6780 C   0  0  1  0  0  0  0  0  0  0  0  0
  146.4920  153.2580  132.7690 O   0  0  0  0  0  0  0  0  0  0  0  0
  148.8770  153.4580  132.9010 C   0  0  0  0  0  0  0  0  0  0  0  0
  148.7630  154.3840  131.8550 O   0  0  0  0  0  0  0  0  0  0  0  0
  148.6000  156.4050  131.8960 H   0  0  0  0  0  0  0  0  0  0  0  0
  150.2690  156.9620  131.5450 H   0  0  0  0  0  0  0  0  0  0  0  0
  147.6818  161.0531  132.8650 H   0  0  0  0  0  0  0  0  0  0  0  0
  145.1087  161.9905  133.6752 H   0  0  0  0  0  0  0  0  0  0  0  0
  142.8110  161.2124  134.3402 H   0  0  0  0  0  0  0  0  0  0  0  0
  144.0565  157.0688  133.7901 H   0  0  0  0  0  0  0  0  0  0  0  0
  148.0361  154.5289  135.4361 H   0  0  0  0  0  0  0  0  0  0  0  0
  146.3215  154.6457  134.9007 H   0  0  0  0  0  0  0  0  0  0  0  0
  147.5835  152.4712  134.3228 H   0  0  0  0  0  0  0  0  0  0  0  0
  146.7350  153.8010  131.9740 H   0  0  0  0  0  0  0  0  0  0  0  0
  149.6771  153.7796  133.5839 H   0  0  0  0  0  0  0  0  0  0  0  0
  149.1142  152.4705  132.4784 H   0  0  0  0  0  0  0  0  0  0  0  0
  147.8290  154.7210  131.8720 H   0  0  0  0  0  0  0  0  0  0  0  0
  1  2  1  0
  2  3  2  0
  2  4  1  0
  4  5  2  0
  5  6  1  0
  6  7  2  0
  7  8  1  0
  8  9  2  0
  9 10  1  0
 10 11  1  0
 10 12  1  0
 10 13  1  0
  9 14  1  0
 14 15  2  0
 15 16  1  0
 16 17  1  0
 17 18  2  0
 17 19  1  0
 19 20  1  0
 20 21  1  0
 21 22  1  0
 21 23  1  0
 23 24  1  0
 16  4  1  0
 15  6  1  0
  1 25  1  0
  1 26  1  0
  5 27  1  0
  7 28  1  0
  8 29  1  0
 14 30  1  0
 20 31  1  0
 20 32  1  0
 21 33  1  1
 22 34  1  0
 23 35  1  0
 23 36  1  0
 24 37  1  0
M  CHG  1  19  -1
M  END
>  <UniqueID>  (40) 
40

>  <SMILES>  (40) 
NC(=O)c1cc2ccc(C(F)(F)F)cc2n1C(=O)[N-]C[C@@H](O)CO

>  <Energy>  (40) 
70.67452149256147

>  <Genealogy>  (40) 
NC(=O)c1cc2ccc(C(F)(F)F)cc2n1C(=O)[N-]CC(O)CO (protonated)
NC(=O)c1cc2ccc(C(F)(F)F)cc2n1C(=O)[N-]C[C@@H](O)CO (chirality)
NC(=O)c1cc2ccc(C(F)(F)F)cc2n1C(=O)[N-]C[C@@H](O)CO (3D coordinates assigned)
NC(=O)c1cc2ccc(C(F)(F)F)cc2n1C(=O)[N-]C[C@@H](O)CO (optimized conformer: 70.67452149256147 kcal/mol)

>  <smiles>  (40) 
NC(=O)c1cc2ccc(C(F)(F)F)cc2n1C(=O)NCC(O)CO

>  <score_type>  (40) 
oracle

>  <origin>  (40) 
adg

>  <m_score__min__energy>  (40) 
-5.5800000000000001

>  <m_primary>  (40) 
energy

$$$$
41:0
     RDKit          3D

 37 39  0  0  0  0  0  0  0  0999 V2000
  149.1040  157.2470  131.8630 N   0  0  0  0  0  0  0  0  0  0  0  0
  148.7880  158.5110  132.4490 C   0  0  0  0  0  0  0  0  0  0  0  0
  149.7100  159.3500  132.6290 O   0  0  0  0  0  0  0  0  0  0  0  0
  147.3970  158.8490  132.8260 C   0  0  0  0  0  0  0  0  0  0  0  0
  146.9190  160.1490  133.0030 C   0  0  0  0  0  0  0  0  0  0  0  0
  145.6140  160.0040  133.4200 C   0  0  0  0  0  0  0  0  0  0  0  0
  144.6590  160.9660  133.7300 C   0  0  0  0  0  0  0  0  0  0  0  0
  143.3800  160.5260  134.1100 C   0  0  0  0  0  0  0  0  0  0  0  0
  143.0750  159.1390  134.1710 C   0  0  0  0  0  0  0  0  0  0  0  0
  141.7150  158.6850  134.5620 C   0  0  0  0  0  0  0  0  0  0  0  0
  140.7910  158.2690  133.5880 C   0  0  0  0  0  0  0  0  0  0  0  0
  139.5190  157.8440  133.9790 C   0  0  0  0  0  0  0  0  0  0  0  0
  139.1770  157.8310  135.2940 N   0  0  0  0  0  0  0  0  0  0  0  0
  140.0480  158.2280  136.2600 C   0  0  0  0  0  0  0  0  0  0  0  0
  141.3300  158.6600  135.9130 C   0  0  0  0  0  0  0  0  0  0  0  0
  144.0780  158.1940  133.8510 C   0  0  0  0  0  0  0  0  0  0  0  0
  145.3430  158.6640  133.4860 C   0  0  0  0  0  0  0  0  0  0  0  0
  146.4240  157.9440  133.1230 N   0  0  0  0  0  0  0  0  0  0  0  0
  146.4830  156.5160  133.0080 C   0  0  0  0  0  0  0  0  0  0  0  0
  146.3890  155.9760  131.8730 O   0  0  0  0  0  0  0  0  0  0  0  0
  146.7790  155.6710  134.2070 C   0  0  0  0  0  0  0  0  0  0  0  0
  147.9940  154.4000  133.7610 P   0  0  0  0  0  0  0  0  0  0  0  0
  148.3880  153.3430  134.7670 O   0  0  0  0  0  0  0  0  0  0  0  0
  148.6960  154.4070  132.2240 O   0  0  0  0  0  0  0  0  0  0  0  0
  148.3840  156.5000  131.7540 H   0  0  0  0  0  0  0  0  0  0  0  0
  150.0850  157.0360  131.5730 H   0  0  0  0  0  0  0  0  0  0  0  0
  147.4677  161.0889  132.8434 H   0  0  0  0  0  0  0  0  0  0  0  0
  144.8976  162.0386  133.6793 H   0  0  0  0  0  0  0  0  0  0  0  0
  142.6049  161.2642  134.3635 H   0  0  0  0  0  0  0  0  0  0  0  0
  141.0680  158.2780  132.5235 H   0  0  0  0  0  0  0  0  0  0  0  0
  138.7921  157.5189  133.2201 H   0  0  0  0  0  0  0  0  0  0  0  0
  139.7423  158.2088  137.3165 H   0  0  0  0  0  0  0  0  0  0  0  0
  142.0354  158.9794  136.6942 H   0  0  0  0  0  0  0  0  0  0  0  0
  143.8675  157.1150  133.8885 H   0  0  0  0  0  0  0  0  0  0  0  0
  147.1864  156.3028  135.0101 H   0  0  0  0  0  0  0  0  0  0  0  0
  145.8535  155.1893  134.5554 H   0  0  0  0  0  0  0  0  0  0  0  0
  147.9310  154.4870  131.6000 H   0  0  0  0  0  0  0  0  0  0  0  0
  1  2  1  0
  2  3  2  0
  2  4  1  0
  4  5  2  0
  5  6  1  0
  6  7  2  0
  7  8  1  0
  8  9  2  0
  9 10  1  0
 10 11  2  0
 11 12  1  0
 12 13  2  0
 13 14  1  0
 14 15  2  0
  9 16  1  0
 16 17  2  0
 17 18  1  0
 18 19  1  0
 19 20  2  0
 19 21  1  0
 21 22  1  0
 22 23  2  0
 22 24  1  0
 18  4  1  0
 17  6  1  0
 15 10  1  0
  1 25  1  0
  1 26  1  0
  5 27  1  0
  7 28  1  0
  8 29  1  0
 11 30  1  0
 12 31  1  0
 14 32  1  0
 15 33  1  0
 16 34  1  0
 21 35  1  0
 21 36  1  0
 24 37  1  0
M  CHG  1  22   1
M  END
>  <UniqueID>  (41) 
41

>  <SMILES>  (41) 
NC(=O)c1cc2ccc(-c3ccncc3)cc2n1C(=O)C[P+](=O)O

>  <Energy>  (41) 
102.42901898000046

>  <Genealogy>  (41) 
NC(=O)c1cc2ccc(-c3ccncc3)cc2n1C(=O)C[P+](=O)O (chirality)
NC(=O)c1cc2ccc(-c3ccncc3)cc2n1C(=O)C[P+](=O)O (3D coordinates assigned)
NC(=O)c1cc2ccc(-c3ccncc3)cc2n1C(=O)C[P+](=O)O (optimized conformer: 102.42901898000046 kcal/mol)

>  <smiles>  (41) 
NC(=O)c1cc2ccc(-c3ccncc3)cc2n1C(=O)C[P+](=O)O

>  <score_type>  (41) 
oracle

>  <origin>  (41) 
adg

>  <m_score__min__energy>  (41) 
-7.8399999999999999

>  <m_primary>  (41) 
energy

$$$$
42:0
     RDKit          3D

 55 56  0  0  0  0  0  0  0  0999 V2000
  138.7130  160.8250  130.3530 C   0  0  0  0  0  0  0  0  0  0  0  0
  137.4950  160.0920  130.8960 C   0  0  0  0  0  0  0  0  0  0  0  0
  137.8230  158.7390  131.2010 O   0  0  0  0  0  0  0  0  0  0  0  0
  138.9220  158.3770  131.9840 C   0  0  0  0  0  0  0  0  0  0  0  0
  140.0920  158.6200  131.5880 O   0  0  0  0  0  0  0  0  0  0  0  0
  138.7150  157.7450  133.2090 O   0  0  0  0  0  0  0  0  0  0  0  0
  139.4460  156.5870  133.5990 C   0  0  0  0  0  0  0  0  0  0  0  0
  140.1380  156.8310  134.7970 O   0  0  0  0  0  0  0  0  0  0  0  0
  141.3850  155.6800  135.0060 P   0  0  2  0  0  0  0  0  0  0  0  0
  141.4030  155.1240  136.4170 O   0  0  0  0  0  0  0  0  0  0  0  0
  142.9760  156.4940  134.6470 C   0  0  0  0  0  0  0  0  0  0  0  0
  142.8260  157.5300  133.5690 C   0  0  0  0  0  0  0  0  0  0  0  0
  142.0390  157.2950  132.6110 O   0  0  0  0  0  0  0  0  0  0  0  0
  143.6130  158.7340  133.5680 N   0  0  0  0  0  0  0  0  0  0  0  0
  143.1840  160.0190  133.7470 C   0  0  0  0  0  0  0  0  0  0  0  0
  141.7780  160.4480  133.7760 C   0  0  0  0  0  0  0  0  0  0  0  0
  140.7580  159.5310  134.1630 N   0  0  0  0  0  0  0  0  0  0  0  0
  141.4710  161.6290  133.4600 O   0  0  0  0  0  0  0  0  0  0  0  0
  144.2540  160.9090  133.7430 C   0  0  0  0  0  0  0  0  0  0  0  0
  145.3670  160.1270  133.5320 C   0  0  0  0  0  0  0  0  0  0  0  0
  146.7050  160.4910  133.4190 C   0  0  0  0  0  0  0  0  0  0  0  0
  147.6520  159.4720  133.2160 C   0  0  0  0  0  0  0  0  0  0  0  0
  147.2470  158.1150  133.1050 C   0  0  0  0  0  0  0  0  0  0  0  0
  148.2880  157.0320  132.9780 C   0  0  0  0  0  0  0  0  0  0  0  0
  147.7990  156.0280  132.1650 F   0  0  0  0  0  0  0  0  0  0  0  0
  149.4530  157.5300  132.4260 F   0  0  0  0  0  0  0  0  0  0  0  0
  148.5880  156.4990  134.2190 F   0  0  0  0  0  0  0  0  0  0  0  0
  145.8760  157.7850  133.2210 C   0  0  0  0  0  0  0  0  0  0  0  0
  144.9550  158.8200  133.4270 C   0  0  0  0  0  0  0  0  0  0  0  0
  141.1120  154.4220  133.8800 O   0  0  0  0  0  0  0  0  0  0  0  0
  142.3340  153.8040  133.5390 C   0  0  0  0  0  0  0  0  0  0  0  0
  142.1200  152.5370  132.9190 O   0  0  0  0  0  0  0  0  0  0  0  0
  141.2990  151.5460  133.4630 C   0  0  0  0  0  0  0  0  0  0  0  0
  141.3520  151.2730  134.6930 O   0  0  0  0  0  0  0  0  0  0  0  0
  140.4060  150.8750  132.6280 O   0  0  0  0  0  0  0  0  0  0  0  0
  140.3470  149.4560  132.5550 C   0  0  0  0  0  0  0  0  0  0  0  0
  139.3236  161.1924  131.1910 H   0  0  0  0  0  0  0  0  0  0  0  0
  139.3111  160.1367  129.7377 H   0  0  0  0  0  0  0  0  0  0  0  0
  138.3848  161.6757  129.7377 H   0  0  0  0  0  0  0  0  0  0  0  0
  137.1471  160.5953  131.8102 H   0  0  0  0  0  0  0  0  0  0  0  0
  136.7029  160.1032  130.1328 H   0  0  0  0  0  0  0  0  0  0  0  0
  138.7483  155.7494  133.7464 H   0  0  0  0  0  0  0  0  0  0  0  0
  140.1709  156.3375  132.8101 H   0  0  0  0  0  0  0  0  0  0  0  0
  143.3450  156.9797  135.5624 H   0  0  0  0  0  0  0  0  0  0  0  0
  143.6871  155.7302  134.2992 H   0  0  0  0  0  0  0  0  0  0  0  0
  140.6430  158.6170  133.6720 H   0  0  0  0  0  0  0  0  0  0  0  0
  144.2181  162.0000  133.8789 H   0  0  0  0  0  0  0  0  0  0  0  0
  147.0128  161.5449  133.4865 H   0  0  0  0  0  0  0  0  0  0  0  0
  148.7191  159.7285  133.1423 H   0  0  0  0  0  0  0  0  0  0  0  0
  145.5411  156.7396  133.1510 H   0  0  0  0  0  0  0  0  0  0  0  0
  142.8827  154.4553  132.8427 H   0  0  0  0  0  0  0  0  0  0  0  0
  142.9117  153.6454  134.4616 H   0  0  0  0  0  0  0  0  0  0  0  0
  140.3296  149.0369  133.5719 H   0  0  0  0  0  0  0  0  0  0  0  0
  139.4355  149.1540  132.0183 H   0  0  0  0  0  0  0  0  0  0  0  0
  141.2303  149.0794  132.0183 H   0  0  0  0  0  0  0  0  0  0  0  0
  1  2  1  0
  2  3  1  0
  3  4  1  0
  4  5  2  0
  4  6  1  0
  6  7  1  0
  7  8  1  0
  9  8  1  1
  9 10  2  0
  9 11  1  0
 11 12  1  0
 12 13  2  0
 12 14  1  0
 14 15  1  0
 15 16  1  0
 16 17  1  0
 16 18  2  0
 15 19  2  0
 19 20  1  0
 20 21  2  0
 21 22  1  0
 22 23  2  0
 23 24  1  0
 24 25  1  0
 24 26  1  0
 24 27  1  0
 23 28  1  0
 28 29  2  0
  9 30  1  0
 30 31  1  0
 31 32  1  0
 32 33  1  0
 33 34  2  0
 33 35  1  0
 35 36  1  0
 29 14  1  0
 29 20  1  0
  1 37  1  0
  1 38  1  0
  1 39  1  0
  2 40  1  0
  2 41  1  0
  7 42  1  0
  7 43  1  0
 11 44  1  0
 11 45  1  0
 17 46  1  0
 19 47  1  0
 21 48  1  0
 22 49  1  0
 28 50  1  0
 31 51  1  0
 31 52  1  0
 36 53  1  0
 36 54  1  0
 36 55  1  0
M  CHG  1  17  -1
M  END
>  <UniqueID>  (42) 
42

>  <SMILES>  (42) 
CCOC(=O)OCO[P@](=O)(CC(=O)n1c(C([NH-])=O)cc2ccc(C(F)(F)F)cc21)OCOC(=O)OC

>  <Energy>  (42) 
84.9909590656476

>  <Genealogy>  (42) 
CCOC(=O)OCOP(=O)(CC(=O)n1c(C([NH-])=O)cc2ccc(C(F)(F)F)cc21)OCOC(=O)OC (protonated)
CCOC(=O)OCO[P@](=O)(CC(=O)n1c(C([NH-])=O)cc2ccc(C(F)(F)F)cc21)OCOC(=O)OC (chirality)
CCOC(=O)OCO[P@](=O)(CC(=O)n1c(C([NH-])=O)cc2ccc(C(F)(F)F)cc21)OCOC(=O)OC (3D coordinates assigned)
CCOC(=O)OCO[P@](=O)(CC(=O)n1c(C([NH-])=O)cc2ccc(C(F)(F)F)cc21)OCOC(=O)OC (optimized conformer: 84.9909590656476 kcal/mol)

>  <smiles>  (42) 
CCOC(=O)OCOP(=O)(CC(=O)n1c(C(N)=O)cc2ccc(C(F)(F)F)cc21)OCOC(=O)OC

>  <score_type>  (42) 
oracle

>  <origin>  (42) 
adg

>  <m_score__min__energy>  (42) 
-6.0199999999999996

>  <m_primary>  (42) 
energy

$$$$
43:0
     RDKit          3D

 31 32  0  0  0  0  0  0  0  0999 V2000
  142.8230  161.1560  133.4200 N   0  0  0  0  0  0  0  0  0  0  0  0
  144.2070  161.3100  133.7290 C   0  0  0  0  0  0  0  0  0  0  0  0
  144.6290  162.4310  134.1170 O   0  0  0  0  0  0  0  0  0  0  0  0
  145.1220  160.1560  133.6040 C   0  0  0  0  0  0  0  0  0  0  0  0
  146.5070  160.2730  133.4940 C   0  0  0  0  0  0  0  0  0  0  0  0
  146.9750  158.9850  133.3700 C   0  0  0  0  0  0  0  0  0  0  0  0
  148.2780  158.5100  133.2620 C   0  0  0  0  0  0  0  0  0  0  0  0
  148.4700  157.1200  133.1920 C   0  0  0  0  0  0  0  0  0  0  0  0
  147.3630  156.2320  133.2220 C   0  0  0  0  0  0  0  0  0  0  0  0
  147.5860  154.7410  133.2110 C   0  0  0  0  0  0  0  0  0  0  0  0
  146.5250  154.0920  132.6050 F   0  0  0  0  0  0  0  0  0  0  0  0
  148.7410  154.4250  132.5170 F   0  0  0  0  0  0  0  0  0  0  0  0
  147.7060  154.2890  134.5130 F   0  0  0  0  0  0  0  0  0  0  0  0
  146.0560  156.7540  133.3610 C   0  0  0  0  0  0  0  0  0  0  0  0
  145.8950  158.1420  133.4060 C   0  0  0  0  0  0  0  0  0  0  0  0
  144.7510  158.8460  133.5440 N   0  0  0  0  0  0  0  0  0  0  0  0
  143.4240  158.3050  133.6380 C   0  0  0  0  0  0  0  0  0  0  0  0
  142.7090  158.2210  132.6050 O   0  0  0  0  0  0  0  0  0  0  0  0
  142.9040  157.7850  134.9430 C   0  0  0  0  0  0  0  0  0  0  0  0
  141.2790  158.5130  135.3010 P   0  0  1  0  0  0  0  0  0  0  0  0
  140.2380  157.4190  135.3890 O   0  0  0  0  0  0  0  0  0  0  0  0
  141.3510  159.3380  136.7760 O   0  0  0  0  0  0  0  0  0  0  0  0
  140.8600  159.5980  134.0710 O   0  0  0  0  0  0  0  0  0  0  0  0
  142.4940  160.3710  132.8150 H   0  0  0  0  0  0  0  0  0  0  0  0
  147.1002  161.1993  133.5042 H   0  0  0  0  0  0  0  0  0  0  0  0
  149.1325  159.2020  133.2323 H   0  0  0  0  0  0  0  0  0  0  0  0
  149.4898  156.7152  133.1131 H   0  0  0  0  0  0  0  0  0  0  0  0
  145.1867  156.0838  133.4320 H   0  0  0  0  0  0  0  0  0  0  0  0
  142.8081  156.6907  134.8865 H   0  0  0  0  0  0  0  0  0  0  0  0
  143.6057  158.0579  135.7449 H   0  0  0  0  0  0  0  0  0  0  0  0
  141.7220  159.8550  133.6570 H   0  0  0  0  0  0  0  0  0  0  0  0
  1  2  1  0
  2  3  2  0
  2  4  1  0
  4  5  2  0
  5  6  1  0
  6  7  2  0
  7  8  1  0
  8  9  2  0
  9 10  1  0
 10 11  1  0
 10 12  1  0
 10 13  1  0
  9 14  1  0
 14 15  2  0
 15 16  1  0
 16 17  1  0
 17 18  2  0
 17 19  1  0
 19 20  1  0
 20 21  2  0
 20 22  1  1
 20 23  1  0
 16  4  1  0
 15  6  1  0
  1 24  1  0
  5 25  1  0
  7 26  1  0
  8 27  1  0
 14 28  1  0
 19 29  1  0
 19 30  1  0
 23 31  1  0
M  CHG  2   1  -1  22  -1
M  END
>  <UniqueID>  (43) 
43

>  <SMILES>  (43) 
[NH-]C(=O)c1cc2ccc(C(F)(F)F)cc2n1C(=O)C[P@@](=O)([O-])O

>  <Energy>  (43) 
64.94115863522703

>  <Genealogy>  (43) 
[NH-]C(=O)c1cc2ccc(C(F)(F)F)cc2n1C(=O)CP(=O)([O-])O (protonated)
[NH-]C(=O)c1cc2ccc(C(F)(F)F)cc2n1C(=O)C[P@@](=O)([O-])O (chirality)
[NH-]C(=O)c1cc2ccc(C(F)(F)F)cc2n1C(=O)C[P@@](=O)([O-])O (3D coordinates assigned)
[NH-]C(=O)c1cc2ccc(C(F)(F)F)cc2n1C(=O)C[P@@](=O)([O-])O (optimized conformer: 64.94115863522703 kcal/mol)

>  <smiles>  (43) 
NC(=O)c1cc2ccc(C(F)(F)F)cc2n1C(=O)CP(=O)(O)O

>  <score_type>  (43) 
oracle

>  <origin>  (43) 
adg

>  <m_score__min__energy>  (43) 
-5.5700000000000003

>  <m_primary>  (43) 
energy

$$$$
44:0
     RDKit          3D

 48 49  0  0  0  0  0  0  0  0999 V2000
  148.8430  156.3930  132.6480 C   0  0  0  0  0  0  0  0  0  0  0  0
  148.0190  157.6210  132.8960 C   0  0  0  0  0  0  0  0  0  0  0  0
  148.6510  158.8700  133.1140 C   0  0  0  0  0  0  0  0  0  0  0  0
  147.8890  160.0190  133.3880 C   0  0  0  0  0  0  0  0  0  0  0  0
  146.5060  159.8840  133.4520 C   0  0  0  0  0  0  0  0  0  0  0  0
  145.5330  160.8240  133.7080 C   0  0  0  0  0  0  0  0  0  0  0  0
  144.3260  160.1310  133.6470 C   0  0  0  0  0  0  0  0  0  0  0  0
  143.0050  160.7850  133.7390 C   0  0  0  0  0  0  0  0  0  0  0  0
  141.8380  160.0310  134.0500 N   0  0  0  0  0  0  0  0  0  0  0  0
  142.8990  162.0170  133.4950 O   0  0  0  0  0  0  0  0  0  0  0  0
  144.5450  158.8100  133.3900 N   0  0  0  0  0  0  0  0  0  0  0  0
  143.5830  157.7440  133.3450 C   0  0  0  0  0  0  0  0  0  0  0  0
  142.7200  157.7260  132.4280 O   0  0  0  0  0  0  0  0  0  0  0  0
  143.6170  156.6200  134.3590 C   0  0  0  0  0  0  0  0  0  0  0  0
  142.2740  156.1100  134.7410 N   0  0  1  0  0  0  0  0  0  0  0  0
  142.0960  154.7090  134.3090 C   0  0  0  0  0  0  0  0  0  0  0  0
  141.9550  156.2310  136.1890 C   0  0  0  0  0  0  0  0  0  0  0  0
  140.9180  157.3290  136.5450 C   0  0  0  0  0  0  0  0  0  0  0  0
  140.5030  158.1500  135.3940 N   0  0  0  0  0  0  0  0  0  0  0  0
  139.1270  157.8690  134.9550 C   0  0  0  0  0  0  0  0  0  0  0  0
  139.0600  157.8350  133.4270 C   0  0  0  0  0  0  0  0  0  0  0  0
  140.3490  157.7500  132.8860 O   0  0  0  0  0  0  0  0  0  0  0  0
  145.8820  158.6790  133.2540 C   0  0  0  0  0  0  0  0  0  0  0  0
  146.6130  157.5200  132.9810 C   0  0  0  0  0  0  0  0  0  0  0  0
  149.1401  155.9503  133.6102 H   0  0  0  0  0  0  0  0  0  0  0  0
  148.2509  155.6635  132.0759 H   0  0  0  0  0  0  0  0  0  0  0  0
  149.7425  156.6644  132.0759 H   0  0  0  0  0  0  0  0  0  0  0  0
  149.7477  158.9413  133.0684 H   0  0  0  0  0  0  0  0  0  0  0  0
  148.3714  160.9947  133.5469 H   0  0  0  0  0  0  0  0  0  0  0  0
  145.6779  161.8943  133.9163 H   0  0  0  0  0  0  0  0  0  0  0  0
  141.8120  158.9970  133.9060 H   0  0  0  0  0  0  0  0  0  0  0  0
  144.1951  155.7869  133.9327 H   0  0  0  0  0  0  0  0  0  0  0  0
  144.0740  157.0288  135.2723 H   0  0  0  0  0  0  0  0  0  0  0  0
  141.5720  156.6630  134.1990 H   0  0  0  0  0  0  0  0  0  0  0  0
  142.0136  154.0602  135.1935 H   0  0  0  0  0  0  0  0  0  0  0  0
  141.1799  154.6248  133.7059 H   0  0  0  0  0  0  0  0  0  0  0  0
  142.9619  154.3984  133.7059 H   0  0  0  0  0  0  0  0  0  0  0  0
  141.5590  155.2640  136.5327 H   0  0  0  0  0  0  0  0  0  0  0  0
  142.8922  156.5221  136.6859 H   0  0  0  0  0  0  0  0  0  0  0  0
  140.0252  156.8406  136.9626 H   0  0  0  0  0  0  0  0  0  0  0  0
  141.4022  158.0063  137.2639 H   0  0  0  0  0  0  0  0  0  0  0  0
  141.1590  158.0260  134.5920 H   0  0  0  0  0  0  0  0  0  0  0  0
  138.8091  156.8949  135.3550 H   0  0  0  0  0  0  0  0  0  0  0  0
  138.4611  158.6614  135.3273 H   0  0  0  0  0  0  0  0  0  0  0  0
  138.4744  156.9599  133.1088 H   0  0  0  0  0  0  0  0  0  0  0  0
  138.5818  158.7587  133.0690 H   0  0  0  0  0  0  0  0  0  0  0  0
  140.8690  158.5040  133.2680 H   0  0  0  0  0  0  0  0  0  0  0  0
  146.1067  156.5543  132.8361 H   0  0  0  0  0  0  0  0  0  0  0  0
  1  2  1  0
  2  3  2  0
  3  4  1  0
  4  5  2  0
  5  6  1  0
  6  7  2  0
  7  8  1  0
  8  9  1  0
  8 10  2  0
  7 11  1  0
 11 12  1  0
 12 13  2  0
 12 14  1  0
 14 15  1  0
 15 16  1  0
 15 17  1  0
 17 18  1  0
 18 19  1  0
 19 20  1  0
 20 21  1  0
 21 22  1  0
 11 23  1  0
 23 24  2  0
 24  2  1  0
 23  5  1  0
  1 25  1  0
  1 26  1  0
  1 27  1  0
  3 28  1  0
  4 29  1  0
  6 30  1  0
  9 31  1  0
 14 32  1  0
 14 33  1  0
 15 34  1  6
 16 35  1  0
 16 36  1  0
 16 37  1  0
 17 38  1  0
 17 39  1  0
 18 40  1  0
 18 41  1  0
 19 42  1  0
 20 43  1  0
 20 44  1  0
 21 45  1  0
 21 46  1  0
 22 47  1  0
 24 48  1  0
M  CHG  2   9  -1  15   1
M  END
>  <UniqueID>  (44) 
44

>  <SMILES>  (44) 
Cc1ccc2cc(C([NH-])=O)n(C(=O)C[N@@H+](C)CCNCCO)c2c1

>  <Energy>  (44) 
89.5121544100911

>  <Genealogy>  (44) 
Cc1ccc2cc(C([NH-])=O)n(C(=O)C[NH+](C)CCNCCO)c2c1 (protonated)
Cc1ccc2cc(C([NH-])=O)n(C(=O)C[N@@H+](C)CCNCCO)c2c1 (chirality)
Cc1ccc2cc(C([NH-])=O)n(C(=O)C[N@@H+](C)CCNCCO)c2c1 (3D coordinates assigned)
Cc1ccc2cc(C([NH-])=O)n(C(=O)C[N@@H+](C)CCNCCO)c2c1 (optimized conformer: 89.5121544100911 kcal/mol)

>  <smiles>  (44) 
Cc1ccc2cc(C(N)=O)n(C(=O)CN(C)CCNCCO)c2c1

>  <score_type>  (44) 
oracle

>  <origin>  (44) 
adg

>  <m_score__min__energy>  (44) 
-5.4400000000000004

>  <m_primary>  (44) 
energy

$$$$
45:0
     RDKit          3D

 35 36  0  0  0  0  0  0  0  0999 V2000
  141.2320  157.6810  133.8540 C   0  0  0  0  0  0  0  0  0  0  0  0
  142.5440  158.3910  133.7110 C   0  0  0  0  0  0  0  0  0  0  0  0
  142.6060  159.8020  133.8390 C   0  0  0  0  0  0  0  0  0  0  0  0
  143.8340  160.4770  133.7340 C   0  0  0  0  0  0  0  0  0  0  0  0
  144.9800  159.7160  133.5230 C   0  0  0  0  0  0  0  0  0  0  0  0
  146.2910  160.1070  133.3650 C   0  0  0  0  0  0  0  0  0  0  0  0
  147.0100  158.9270  133.1740 C   0  0  0  0  0  0  0  0  0  0  0  0
  148.4780  158.8760  133.0200 C   0  0  0  0  0  0  0  0  0  0  0  0
  149.0740  158.4250  131.8050 N   0  0  0  0  0  0  0  0  0  0  0  0
  149.2200  159.2020  133.9850 O   0  0  0  0  0  0  0  0  0  0  0  0
  146.1730  157.8530  133.2100 N   0  0  0  0  0  0  0  0  0  0  0  0
  146.4950  156.4750  132.9720 C   0  0  0  0  0  0  0  0  0  0  0  0
  147.2290  156.1680  131.9940 O   0  0  0  0  0  0  0  0  0  0  0  0
  146.0320  155.4590  133.8780 N   0  0  0  0  0  0  0  0  0  0  0  0
  145.0840  154.4390  133.4320 C   0  0  0  0  0  0  0  0  0  0  0  0
  146.4070  155.5000  135.1870 O   0  0  0  0  0  0  0  0  0  0  0  0
  147.6660  154.8780  135.2760 C   0  0  0  0  0  0  0  0  0  0  0  0
  147.7420  154.1280  136.5640 C   0  0  0  0  0  0  0  0  0  0  0  0
  148.5680  154.4720  137.4500 O   0  0  0  0  0  0  0  0  0  0  0  0
  146.9310  153.0200  136.7690 O   0  0  0  0  0  0  0  0  0  0  0  0
  144.9380  158.3490  133.4260 C   0  0  0  0  0  0  0  0  0  0  0  0
  143.7300  157.6510  133.5110 C   0  0  0  0  0  0  0  0  0  0  0  0
  140.9980  157.5544  134.9214 H   0  0  0  0  0  0  0  0  0  0  0  0
  140.4400  158.2736  133.3728 H   0  0  0  0  0  0  0  0  0  0  0  0
  141.2949  156.6938  133.3728 H   0  0  0  0  0  0  0  0  0  0  0  0
  141.6841  160.3735  134.0222 H   0  0  0  0  0  0  0  0  0  0  0  0
  143.8878  161.5726  133.8160 H   0  0  0  0  0  0  0  0  0  0  0  0
  146.6874  161.1329  133.3852 H   0  0  0  0  0  0  0  0  0  0  0  0
  148.8550  157.4800  131.4180 H   0  0  0  0  0  0  0  0  0  0  0  0
  144.6309  153.9515  134.3078 H   0  0  0  0  0  0  0  0  0  0  0  0
  144.2961  154.9105  132.8263 H   0  0  0  0  0  0  0  0  0  0  0  0
  145.6118  153.6876  132.8263 H   0  0  0  0  0  0  0  0  0  0  0  0
  147.7945  154.1814  134.4344 H   0  0  0  0  0  0  0  0  0  0  0  0
  148.4613  155.6370  135.2380 H   0  0  0  0  0  0  0  0  0  0  0  0
  143.7039  156.5547  133.4244 H   0  0  0  0  0  0  0  0  0  0  0  0
  1  2  1  0
  2  3  2  0
  3  4  1  0
  4  5  2  0
  5  6  1  0
  6  7  2  0
  7  8  1  0
  8  9  1  0
  8 10  2  0
  7 11  1  0
 11 12  1  0
 12 13  2  0
 12 14  1  0
 14 15  1  0
 14 16  1  0
 16 17  1  0
 17 18  1  0
 18 19  2  0
 18 20  1  0
 11 21  1  0
 21 22  2  0
 22  2  1  0
 21  5  1  0
  1 23  1  0
  1 24  1  0
  1 25  1  0
  3 26  1  0
  4 27  1  0
  6 28  1  0
  9 29  1  0
 15 30  1  0
 15 31  1  0
 15 32  1  0
 17 33  1  0
 17 34  1  0
 22 35  1  0
M  CHG  2   9  -1  20  -1
M  END
>  <UniqueID>  (45) 
45

>  <SMILES>  (45) 
Cc1ccc2cc(C([NH-])=O)n(C(=O)N(C)OCC(=O)[O-])c2c1

>  <Energy>  (45) 
68.08904395948755

>  <Genealogy>  (45) 
Cc1ccc2cc(C([NH-])=O)n(C(=O)N(C)OCC(=O)[O-])c2c1 (protonated)
Cc1ccc2cc(C([NH-])=O)n(C(=O)N(C)OCC(=O)[O-])c2c1 (3D coordinates assigned)
Cc1ccc2cc(C([NH-])=O)n(C(=O)N(C)OCC(=O)[O-])c2c1 (optimized conformer: 68.08904395948755 kcal/mol)

>  <smiles>  (45) 
Cc1ccc2cc(C(N)=O)n(C(=O)N(C)OCC(=O)O)c2c1

>  <score_type>  (45) 
oracle

>  <origin>  (45) 
adg

>  <m_score__min__energy>  (45) 
-6.1799999999999997

>  <m_primary>  (45) 
energy

$$$$
46:0
     RDKit          3D

 37 38  0  0  0  0  0  0  0  0999 V2000
  143.3720  161.7800  133.6450 N   0  0  0  0  0  0  0  0  0  0  0  0
  144.7530  161.7350  133.9930 C   0  0  0  0  0  0  0  0  0  0  0  0
  145.3030  162.7670  134.4650 O   0  0  0  0  0  0  0  0  0  0  0  0
  145.5580  160.5170  133.7650 C   0  0  0  0  0  0  0  0  0  0  0  0
  146.9230  160.5370  133.4870 C   0  0  0  0  0  0  0  0  0  0  0  0
  147.2730  159.2220  133.2770 C   0  0  0  0  0  0  0  0  0  0  0  0
  148.5130  158.6590  132.9930 C   0  0  0  0  0  0  0  0  0  0  0  0
  148.5890  157.2620  132.8690 C   0  0  0  0  0  0  0  0  0  0  0  0
  147.4310  156.4540  133.0200 C   0  0  0  0  0  0  0  0  0  0  0  0
  147.5410  154.9530  132.9500 C   0  0  0  0  0  0  0  0  0  0  0  0
  148.6720  154.5770  132.2460 F   0  0  0  0  0  0  0  0  0  0  0  0
  147.6220  154.4100  134.2210 F   0  0  0  0  0  0  0  0  0  0  0  0
  146.4250  154.4440  132.3130 F   0  0  0  0  0  0  0  0  0  0  0  0
  146.1950  157.0640  133.3330 C   0  0  0  0  0  0  0  0  0  0  0  0
  146.1450  158.4590  133.4310 C   0  0  0  0  0  0  0  0  0  0  0  0
  145.0830  159.2390  133.7310 N   0  0  0  0  0  0  0  0  0  0  0  0
  143.7580  158.7850  134.0430 C   0  0  0  0  0  0  0  0  0  0  0  0
  143.1710  159.2390  135.0610 O   0  0  0  0  0  0  0  0  0  0  0  0
  143.0710  157.8470  133.1310 C   0  0  0  0  0  0  0  0  0  0  0  0
  141.7950  157.9400  132.7310 C   0  0  0  0  0  0  0  0  0  0  0  0
  140.7940  158.8760  133.2890 C   0  0  0  0  0  0  0  0  0  0  0  0
  141.0470  160.1120  133.3030 O   0  0  0  0  0  0  0  0  0  0  0  0
  139.5720  158.3920  133.8820 N   0  0  0  0  0  0  0  0  0  0  0  0
  139.5200  157.9220  135.5520 S   0  0  0  0  0  0  0  0  0  0  0  0
  138.3620  158.2220  133.0750 C   0  0  0  0  0  0  0  0  0  0  0  0
  138.4780  158.9940  131.7980 C   0  0  0  0  0  0  0  0  0  0  0  0
  138.2730  160.2350  131.7890 O   0  0  0  0  0  0  0  0  0  0  0  0
  138.7800  158.3360  130.6130 O   0  0  0  0  0  0  0  0  0  0  0  0
  142.7290  160.9980  133.8960 H   0  0  0  0  0  0  0  0  0  0  0  0
  147.5817  161.4170  133.4443 H   0  0  0  0  0  0  0  0  0  0  0  0
  149.4065  159.2886  132.8693 H   0  0  0  0  0  0  0  0  0  0  0  0
  149.5576  156.7879  132.6522 H   0  0  0  0  0  0  0  0  0  0  0  0
  145.2929  156.4560  133.4958 H   0  0  0  0  0  0  0  0  0  0  0  0
  143.6574  156.9992  132.7472 H   0  0  0  0  0  0  0  0  0  0  0  0
  141.4663  157.2678  131.9247 H   0  0  0  0  0  0  0  0  0  0  0  0
  138.2270  157.1552  132.8434 H   0  0  0  0  0  0  0  0  0  0  0  0
  137.4972  158.5962  133.6426 H   0  0  0  0  0  0  0  0  0  0  0  0
  1  2  1  0
  2  3  2  0
  2  4  1  0
  4  5  2  0
  5  6  1  0
  6  7  2  0
  7  8  1  0
  8  9  2  0
  9 10  1  0
 10 11  1  0
 10 12  1  0
 10 13  1  0
  9 14  1  0
 14 15  2  0
 15 16  1  0
 16 17  1  0
 17 18  2  0
 17 19  1  0
 19 20  2  3
 20 21  1  0
 21 22  2  0
 21 23  1  0
 23 24  1  0
 23 25  1  0
 25 26  1  0
 26 27  2  0
 26 28  1  0
 16  4  1  0
 15  6  1  0
  1 29  1  0
  5 30  1  0
  7 31  1  0
  8 32  1  0
 14 33  1  0
 19 34  1  0
 20 35  1  0
 25 36  1  0
 25 37  1  0
M  CHG  3   1  -1  24  -1  28  -1
M  END
>  <UniqueID>  (46) 
46

>  <SMILES>  (46) 
[NH-]C(=O)c1cc2ccc(C(F)(F)F)cc2n1C(=O)C=CC(=O)N([S-])CC(=O)[O-]

>  <Energy>  (46) 
82.37146902309205

>  <Genealogy>  (46) 
[NH-]C(=O)c1cc2ccc(C(F)(F)F)cc2n1C(=O)C=CC(=O)N([S-])CC(=O)[O-] (protonated)
[NH-]C(=O)c1cc2ccc(C(F)(F)F)cc2n1C(=O)C=CC(=O)N([S-])CC(=O)[O-] (3D coordinates assigned)
[NH-]C(=O)c1cc2ccc(C(F)(F)F)cc2n1C(=O)C=CC(=O)N([S-])CC(=O)[O-] (optimized conformer: 82.37146902309205 kcal/mol)

>  <smiles>  (46) 
NC(=O)c1cc2ccc(C(F)(F)F)cc2n1C(=O)C=CC(=O)N(S)CC(=O)O

>  <score_type>  (46) 
oracle

>  <origin>  (46) 
adg

>  <m_score__min__energy>  (46) 
-6.6699999999999999

>  <m_primary>  (46) 
energy

$$$$
47:0
     RDKit          3D

 42 43  0  0  0  0  0  0  0  0999 V2000
  148.1670  154.0020  137.2940 C   0  0  0  0  0  0  0  0  0  0  0  0
  147.3790  153.3770  136.2370 N   0  0  0  0  0  0  0  0  0  0  0  0
  146.6340  154.0870  135.2400 C   0  0  0  0  0  0  0  0  0  0  0  0
  145.3890  154.2100  135.3900 O   0  0  0  0  0  0  0  0  0  0  0  0
  147.2790  154.6550  134.0030 C   0  0  0  0  0  0  0  0  0  0  0  0
  147.0270  156.1360  133.9070 C   0  0  0  0  0  0  0  0  0  0  0  0
  148.1120  157.0490  133.8510 C   0  0  0  0  0  0  0  0  0  0  0  0
  147.8820  158.4340  133.7600 C   0  0  0  0  0  0  0  0  0  0  0  0
  146.5610  158.8730  133.7250 C   0  0  0  0  0  0  0  0  0  0  0  0
  146.0510  160.1520  133.6720 C   0  0  0  0  0  0  0  0  0  0  0  0
  144.6640  159.9970  133.6890 C   0  0  0  0  0  0  0  0  0  0  0  0
  143.6920  161.1090  133.5990 C   0  0  0  0  0  0  0  0  0  0  0  0
  142.3060  160.8580  133.3590 N   0  0  0  0  0  0  0  0  0  0  0  0
  144.0820  162.2990  133.7440 O   0  0  0  0  0  0  0  0  0  0  0  0
  144.3370  158.6770  133.7420 N   0  0  0  0  0  0  0  0  0  0  0  0
  143.0320  158.0980  133.8780 C   0  0  0  0  0  0  0  0  0  0  0  0
  142.3690  157.8000  132.8480 O   0  0  0  0  0  0  0  0  0  0  0  0
  142.5060  157.7290  135.2310 C   0  0  0  0  0  0  0  0  0  0  0  0
  141.5660  158.7880  135.7130 C   0  0  0  0  0  0  0  0  0  0  0  0
  141.6270  159.1870  136.9080 O   0  0  0  0  0  0  0  0  0  0  0  0
  140.6160  159.3560  134.8040 N   0  0  0  0  0  0  0  0  0  0  0  0
  139.7220  158.5600  133.9740 C   0  0  0  0  0  0  0  0  0  0  0  0
  139.4860  159.2490  132.6680 C   0  0  0  0  0  0  0  0  0  0  0  0
  138.7810  158.6980  131.7820 O   0  0  0  0  0  0  0  0  0  0  0  0
  140.0060  160.5160  132.4400 O   0  0  0  0  0  0  0  0  0  0  0  0
  145.5040  158.0030  133.7670 C   0  0  0  0  0  0  0  0  0  0  0  0
  145.7010  156.6230  133.8680 C   0  0  0  0  0  0  0  0  0  0  0  0
  147.7764  153.6922  138.2745 H   0  0  0  0  0  0  0  0  0  0  0  0
  149.2175  153.6888  137.2022 H   0  0  0  0  0  0  0  0  0  0  0  0
  148.1012  155.0962  137.2022 H   0  0  0  0  0  0  0  0  0  0  0  0
  148.3633  154.4747  134.0453 H   0  0  0  0  0  0  0  0  0  0  0  0
  146.8459  154.1634  133.1194 H   0  0  0  0  0  0  0  0  0  0  0  0
  149.1441  156.6697  133.8790 H   0  0  0  0  0  0  0  0  0  0  0  0
  148.7186  159.1470  133.7178 H   0  0  0  0  0  0  0  0  0  0  0  0
  146.6165  161.0944  133.6261 H   0  0  0  0  0  0  0  0  0  0  0  0
  141.6330  161.6550  133.3150 H   0  0  0  0  0  0  0  0  0  0  0  0
  141.9460  159.8950  133.1840 H   0  0  0  0  0  0  0  0  0  0  0  0
  141.9730  156.7689  135.1666 H   0  0  0  0  0  0  0  0  0  0  0  0
  143.3456  157.6392  135.9360 H   0  0  0  0  0  0  0  0  0  0  0  0
  140.1768  157.5756  133.7893 H   0  0  0  0  0  0  0  0  0  0  0  0
  138.7612  158.4359  134.4950 H   0  0  0  0  0  0  0  0  0  0  0  0
  144.8454  155.9333  133.9159 H   0  0  0  0  0  0  0  0  0  0  0  0
  1  2  1  0
  2  3  1  0
  3  4  2  0
  3  5  1  0
  5  6  1  0
  6  7  2  0
  7  8  1  0
  8  9  2  0
  9 10  1  0
 10 11  2  0
 11 12  1  0
 12 13  1  0
 12 14  2  0
 11 15  1  0
 15 16  1  0
 16 17  2  0
 16 18  1  0
 18 19  1  0
 19 20  2  0
 19 21  1  0
 21 22  1  0
 22 23  1  0
 23 24  2  0
 23 25  1  0
 15 26  1  0
 26 27  2  0
 27  6  1  0
 26  9  1  0
  1 28  1  0
  1 29  1  0
  1 30  1  0
  5 31  1  0
  5 32  1  0
  7 33  1  0
  8 34  1  0
 10 35  1  0
 13 36  1  0
 13 37  1  0
 18 38  1  0
 18 39  1  0
 22 40  1  0
 22 41  1  0
 27 42  1  0
M  CHG  3   2  -1  21  -1  25  -1
M  END
>  <UniqueID>  (47) 
47

>  <SMILES>  (47) 
C[N-]C(=O)Cc1ccc2cc(C(N)=O)n(C(=O)CC(=O)[N-]CC(=O)[O-])c2c1

>  <Energy>  (47) 
71.9815595952391

>  <Genealogy>  (47) 
C[N-]C(=O)Cc1ccc2cc(C(N)=O)n(C(=O)CC(=O)[N-]CC(=O)[O-])c2c1 (protonated)
C[N-]C(=O)Cc1ccc2cc(C(N)=O)n(C(=O)CC(=O)[N-]CC(=O)[O-])c2c1 (3D coordinates assigned)
C[N-]C(=O)Cc1ccc2cc(C(N)=O)n(C(=O)CC(=O)[N-]CC(=O)[O-])c2c1 (optimized conformer: 71.9815595952391 kcal/mol)

>  <smiles>  (47) 
CNC(=O)Cc1ccc2cc(C(N)=O)n(C(=O)CC(=O)NCC(=O)O)c2c1

>  <score_type>  (47) 
oracle

>  <origin>  (47) 
adg

>  <m_score__min__energy>  (47) 
-7.04

>  <m_primary>  (47) 
energy

$$$$
48:0
     RDKit          3D

 40 41  0  0  0  0  0  0  0  0999 V2000
  141.3690  155.9860  132.3290 H   0  0  0  0  0  0  0  0  0  0  0  0
  140.7430  155.5840  132.9890 O   0  0  0  0  0  0  0  0  0  0  0  0
  139.5370  156.2920  132.8800 C   0  0  0  0  0  0  0  0  0  0  0  0
  138.9142  156.0879  133.7634 H   0  0  0  0  0  0  0  0  0  0  0  0
  139.0115  155.9698  131.9689 H   0  0  0  0  0  0  0  0  0  0  0  0
  139.8150  157.7940  132.7930 C   0  0  0  0  0  0  0  0  0  0  0  0
  138.8609  158.3335  132.7005 H   0  0  0  0  0  0  0  0  0  0  0  0
  140.4481  157.9872  131.9144 H   0  0  0  0  0  0  0  0  0  0  0  0
  140.5200  158.2610  133.9980 N   0  0  0  0  0  0  0  0  0  0  0  0
  141.8510  158.8080  133.9010 C   0  0  0  0  0  0  0  0  0  0  0  0
  142.0420  160.2140  133.8420 C   0  0  0  0  0  0  0  0  0  0  0  0
  141.1698  160.8831  133.8812 H   0  0  0  0  0  0  0  0  0  0  0  0
  143.3330  160.7610  133.7340 C   0  0  0  0  0  0  0  0  0  0  0  0
  143.4855  161.8492  133.6827 H   0  0  0  0  0  0  0  0  0  0  0  0
  144.4110  159.8830  133.6940 C   0  0  0  0  0  0  0  0  0  0  0  0
  145.7580  160.1380  133.5490 C   0  0  0  0  0  0  0  0  0  0  0  0
  146.2454  161.1200  133.4595 H   0  0  0  0  0  0  0  0  0  0  0  0
  146.3710  158.8850  133.5400 C   0  0  0  0  0  0  0  0  0  0  0  0
  147.8340  158.6650  133.4340 C   0  0  0  0  0  0  0  0  0  0  0  0
  148.5660  159.5430  132.9040 O   0  0  0  0  0  0  0  0  0  0  0  0
  148.4320  157.4620  133.9150 N   0  0  0  0  0  0  0  0  0  0  0  0
  149.4600  157.3090  133.8070 H   0  0  0  0  0  0  0  0  0  0  0  0
  147.8760  156.7400  134.4240 H   0  0  0  0  0  0  0  0  0  0  0  0
  145.4410  157.9020  133.6850 N   0  0  0  0  0  0  0  0  0  0  0  0
  145.6640  156.4840  133.6670 C   0  0  0  0  0  0  0  0  0  0  0  0
  146.5200  156.0090  132.8740 O   0  0  0  0  0  0  0  0  0  0  0  0
  144.8350  155.6010  134.5160 C   0  0  0  0  0  0  0  0  0  0  0  0
  143.7446  155.7324  134.4546 H   0  0  0  0  0  0  0  0  0  0  0  0
  145.2860  154.6550  135.3540 C   0  0  0  0  0  0  0  0  0  0  0  0
  144.5411  153.9619  135.7721 H   0  0  0  0  0  0  0  0  0  0  0  0
  146.6880  154.4590  135.7660 C   0  0  0  0  0  0  0  0  0  0  0  0
  147.0100  153.4010  136.3680 O   0  0  0  0  0  0  0  0  0  0  0  0
  147.6390  155.4580  135.5980 O   0  0  0  0  0  0  0  0  0  0  0  0
  144.2480  158.5270  133.7680 C   0  0  0  0  0  0  0  0  0  0  0  0
  142.9750  157.9530  133.8540 C   0  0  0  0  0  0  0  0  0  0  0  0
  142.8519  156.8603  133.8844 H   0  0  0  0  0  0  0  0  0  0  0  0
  139.8600  158.2160  135.3050 C   0  0  0  0  0  0  0  0  0  0  0  0
  140.6180  158.2677  136.1005 H   0  0  0  0  0  0  0  0  0  0  0  0
  139.1721  159.0693  135.3980 H   0  0  0  0  0  0  0  0  0  0  0  0
  139.2943  157.2772  135.3980 H   0  0  0  0  0  0  0  0  0  0  0  0
  1  2  1  0
  2  3  1  0
  3  4  1  0
  3  5  1  0
  3  6  1  0
  6  7  1  0
  6  8  1  0
  6  9  1  0
  9 10  1  0
 10 11  2  0
 11 12  1  0
 11 13  1  0
 13 14  1  0
 13 15  2  0
 15 16  1  0
 16 17  1  0
 16 18  2  0
 18 19  1  0
 19 20  2  0
 19 21  1  0
 21 22  1  0
 21 23  1  0
 18 24  1  0
 24 25  1  0
 25 26  2  0
 25 27  1  0
 27 28  1  0
 27 29  2  0
 29 30  1  0
 29 31  1  0
 31 32  2  0
 31 33  1  0
 24 34  1  0
 34 35  2  0
 35 36  1  0
  9 37  1  0
 37 38  1  0
 37 39  1  0
 37 40  1  0
 35 10  1  0
 34 15  1  0
M  CHG  1  33  -1
M  END
>  <UniqueID>  (48) 
48

>  <SMILES>  (48) 
CN(CCO)c1ccc2cc(C(N)=O)n(C(=O)/C=C\C(=O)[O-])c2c1

>  <Energy>  (48) 
85.37058536251264

>  <Genealogy>  (48) 
CN(CCO)c1ccc2cc(C(N)=O)n(C(=O)/C=C\C(=O)[O-])c2c1 (protonated)
CN(CCO)c1ccc2cc(C(N)=O)n(C(=O)/C=C\C(=O)[O-])c2c1 (cis-trans isomerization)
CN(CCO)c1ccc2cc(C(N)=O)n(C(=O)/C=C\C(=O)[O-])c2c1 (3D coordinates assigned)
CN(CCO)c1ccc2cc(C(N)=O)n(C(=O)/C=C\C(=O)[O-])c2c1 (optimized conformer: 85.37058536251264 kcal/mol)

>  <smiles>  (48) 
CN(CCO)c1ccc2cc(C(N)=O)n(C(=O)/C=C\C(=O)O)c2c1

>  <score_type>  (48) 
oracle

>  <origin>  (48) 
adg

>  <m_score__min__energy>  (48) 
-7.0499999999999998

>  <m_primary>  (48) 
energy

$$$$
49:0
     RDKit          3D

 47 48  0  0  0  0  0  0  0  0999 V2000
  148.9010  160.8690  130.3730 C   0  0  0  0  0  0  0  0  0  0  0  0
  148.1240  160.4880  131.5020 O   0  0  0  0  0  0  0  0  0  0  0  0
  148.6450  159.7230  132.5490 C   0  0  0  0  0  0  0  0  0  0  0  0
  148.4210  160.0390  133.7500 O   0  0  0  0  0  0  0  0  0  0  0  0
  149.4650  158.5070  132.2390 C   0  0  0  0  0  0  0  0  0  0  0  0
  148.8520  157.2150  132.8130 C   0  0  0  0  0  0  0  0  0  0  0  0
  147.4820  156.8170  132.2210 C   0  0  2  0  0  0  0  0  0  0  0  0
  146.4490  157.7640  132.6290 N   0  0  0  0  0  0  0  0  0  0  0  0
  145.5470  157.5480  133.7180 C   0  0  0  0  0  0  0  0  0  0  0  0
  145.9210  156.8800  134.7200 O   0  0  0  0  0  0  0  0  0  0  0  0
  144.2130  158.0860  133.6680 N   0  0  0  0  0  0  0  0  0  0  0  0
  143.8530  159.3970  133.5620 C   0  0  0  0  0  0  0  0  0  0  0  0
  144.7680  160.5570  133.5900 C   0  0  0  0  0  0  0  0  0  0  0  0
  146.0830  160.4810  133.0380 N   0  0  0  0  0  0  0  0  0  0  0  0
  144.4030  161.6160  134.1650 O   0  0  0  0  0  0  0  0  0  0  0  0
  142.4710  159.5240  133.4720 C   0  0  0  0  0  0  0  0  0  0  0  0
  141.9830  158.2400  133.5420 C   0  0  0  0  0  0  0  0  0  0  0  0
  140.6690  157.7830  133.4930 C   0  0  0  0  0  0  0  0  0  0  0  0
  140.4520  156.3960  133.5580 C   0  0  0  0  0  0  0  0  0  0  0  0
  141.5430  155.5020  133.6710 C   0  0  0  0  0  0  0  0  0  0  0  0
  141.3030  154.0210  133.6870 C   0  0  0  0  0  0  0  0  0  0  0  0
  142.8630  156.0000  133.6980 C   0  0  0  0  0  0  0  0  0  0  0  0
  143.0530  157.3890  133.6560 C   0  0  0  0  0  0  0  0  0  0  0  0
  147.0830  155.4260  132.6230 C   0  0  0  0  0  0  0  0  0  0  0  0
  145.9380  154.9950  132.3190 O   0  0  0  0  0  0  0  0  0  0  0  0
  147.9960  154.6050  133.2960 O   0  0  0  0  0  0  0  0  0  0  0  0
  148.8230  153.6660  132.6230 C   0  0  0  0  0  0  0  0  0  0  0  0
  149.8403  161.3296  130.7129 H   0  0  0  0  0  0  0  0  0  0  0  0
  149.1272  159.9796  129.7665 H   0  0  0  0  0  0  0  0  0  0  0  0
  148.3363  161.5924  129.7665 H   0  0  0  0  0  0  0  0  0  0  0  0
  149.5434  158.4044  131.1466 H   0  0  0  0  0  0  0  0  0  0  0  0
  150.4515  158.6432  132.7063 H   0  0  0  0  0  0  0  0  0  0  0  0
  149.5563  156.3913  132.6245 H   0  0  0  0  0  0  0  0  0  0  0  0
  148.6778  157.4086  133.8817 H   0  0  0  0  0  0  0  0  0  0  0  0
  147.5837  156.8402  131.1260 H   0  0  0  0  0  0  0  0  0  0  0  0
  146.4750  159.5760  132.6990 H   0  0  0  0  0  0  0  0  0  0  0  0
  146.7010  161.3220  133.0390 H   0  0  0  0  0  0  0  0  0  0  0  0
  141.8917  160.4532  133.3672 H   0  0  0  0  0  0  0  0  0  0  0  0
  139.8270  158.4855  133.4061 H   0  0  0  0  0  0  0  0  0  0  0  0
  139.4256  156.0021  133.5207 H   0  0  0  0  0  0  0  0  0  0  0  0
  141.2461  153.6700  134.7279 H   0  0  0  0  0  0  0  0  0  0  0  0
  140.3569  153.7973  133.1724 H   0  0  0  0  0  0  0  0  0  0  0  0
  142.1300  153.5099  133.1724 H   0  0  0  0  0  0  0  0  0  0  0  0
  143.7223  155.3153  133.7507 H   0  0  0  0  0  0  0  0  0  0  0  0
  149.3611  153.0550  133.3627 H   0  0  0  0  0  0  0  0  0  0  0  0
  148.2001  153.0144  131.9926 H   0  0  0  0  0  0  0  0  0  0  0  0
  149.5481  154.2016  131.9926 H   0  0  0  0  0  0  0  0  0  0  0  0
  1  2  1  0
  2  3  1  0
  3  4  2  0
  3  5  1  0
  5  6  1  0
  6  7  1  0
  7  8  1  0
  8  9  1  0
  9 10  2  0
  9 11  1  0
 11 12  1  0
 12 13  1  0
 13 14  1  0
 13 15  2  0
 12 16  2  0
 16 17  1  0
 17 18  2  0
 18 19  1  0
 19 20  2  0
 20 21  1  0
 20 22  1  0
 22 23  2  0
  7 24  1  0
 24 25  2  0
 24 26  1  0
 26 27  1  0
 23 11  1  0
 23 17  1  0
  1 28  1  0
  1 29  1  0
  1 30  1  0
  5 31  1  0
  5 32  1  0
  6 33  1  0
  6 34  1  0
  7 35  1  6
 14 36  1  0
 14 37  1  0
 16 38  1  0
 18 39  1  0
 19 40  1  0
 21 41  1  0
 21 42  1  0
 21 43  1  0
 22 44  1  0
 27 45  1  0
 27 46  1  0
 27 47  1  0
M  CHG  1   8  -1
M  END
>  <UniqueID>  (49) 
49

>  <SMILES>  (49) 
COC(=O)CC[C@H]([N-]C(=O)n1c(C(N)=O)cc2ccc(C)cc21)C(=O)OC

>  <Energy>  (49) 
72.82689418534223

>  <Genealogy>  (49) 
COC(=O)CC[C@H]([N-]C(=O)n1c(C(N)=O)cc2ccc(C)cc21)C(=O)OC (protonated)
COC(=O)CC[C@H]([N-]C(=O)n1c(C(N)=O)cc2ccc(C)cc21)C(=O)OC (3D coordinates assigned)
COC(=O)CC[C@H]([N-]C(=O)n1c(C(N)=O)cc2ccc(C)cc21)C(=O)OC (optimized conformer: 72.82689418534223 kcal/mol)

>  <smiles>  (49) 
COC(=O)CC[C@H](NC(=O)n1c(C(N)=O)cc2ccc(C)cc21)C(=O)OC

>  <score_type>  (49) 
oracle

>  <origin>  (49) 
adg

>  <m_score__min__energy>  (49) 
-6.8899999999999997

>  <m_primary>  (49) 
energy

$$$$
50:0
     RDKit          3D

 32 33  0  0  0  0  0  0  0  0999 V2000
  148.6270  156.9050  133.4840 N   0  0  0  0  0  0  0  0  0  0  0  0
  148.2820  158.2780  133.3000 C   0  0  0  0  0  0  0  0  0  0  0  0
  149.1960  159.1180  133.0770 O   0  0  0  0  0  0  0  0  0  0  0  0
  146.8850  158.7430  133.4190 C   0  0  0  0  0  0  0  0  0  0  0  0
  146.5250  160.0860  133.5070 C   0  0  0  0  0  0  0  0  0  0  0  0
  145.1540  160.0870  133.6280 C   0  0  0  0  0  0  0  0  0  0  0  0
  144.2650  161.1540  133.7220 C   0  0  0  0  0  0  0  0  0  0  0  0
  142.8920  160.8640  133.7810 C   0  0  0  0  0  0  0  0  0  0  0  0
  142.4340  159.5240  133.7320 C   0  0  0  0  0  0  0  0  0  0  0  0
  140.9630  159.2190  133.7690 C   0  0  0  0  0  0  0  0  0  0  0  0
  140.2820  160.1020  132.9530 F   0  0  0  0  0  0  0  0  0  0  0  0
  140.4970  159.3420  135.0660 F   0  0  0  0  0  0  0  0  0  0  0  0
  143.3660  158.4670  133.6290 C   0  0  0  0  0  0  0  0  0  0  0  0
  144.7290  158.7840  133.6000 C   0  0  0  0  0  0  0  0  0  0  0  0
  145.7820  157.9460  133.4760 N   0  0  0  0  0  0  0  0  0  0  0  0
  145.7280  156.5220  133.2910 C   0  0  0  0  0  0  0  0  0  0  0  0
  146.3750  156.0020  132.3430 O   0  0  0  0  0  0  0  0  0  0  0  0
  144.9650  155.6880  134.2480 C   0  0  0  0  0  0  0  0  0  0  0  0
  145.4710  154.8250  135.1420 C   0  0  0  0  0  0  0  0  0  0  0  0
  147.2130  154.4460  135.3590 P   0  0  0  0  0  0  0  0  0  0  0  0
  147.8210  154.0360  134.0360 O   0  0  0  0  0  0  0  0  0  0  0  0
  147.3670  153.1700  136.4570 O   0  0  0  0  0  0  0  0  0  0  0  0
  148.0280  155.7970  135.9680 O   0  0  0  0  0  0  0  0  0  0  0  0
  149.6120  156.5900  133.3420 H   0  0  0  0  0  0  0  0  0  0  0  0
  147.9350  156.2180  133.8540 H   0  0  0  0  0  0  0  0  0  0  0  0
  147.1937  160.9591  133.4846 H   0  0  0  0  0  0  0  0  0  0  0  0
  144.6267  162.1925  133.7492 H   0  0  0  0  0  0  0  0  0  0  0  0
  142.1651  161.6852  133.8661 H   0  0  0  0  0  0  0  0  0  0  0  0
  140.7982  158.1912  133.4133 H   0  0  0  0  0  0  0  0  0  0  0  0
  143.0289  157.4214  133.5730 H   0  0  0  0  0  0  0  0  0  0  0  0
  143.8697  155.7864  134.2232 H   0  0  0  0  0  0  0  0  0  0  0  0
  144.7577  154.3050  135.7983 H   0  0  0  0  0  0  0  0  0  0  0  0
  1  2  1  0
  2  3  2  0
  2  4  1  0
  4  5  2  0
  5  6  1  0
  6  7  2  0
  7  8  1  0
  8  9  2  0
  9 10  1  0
 10 11  1  0
 10 12  1  0
  9 13  1  0
 13 14  2  0
 14 15  1  0
 15 16  1  0
 16 17  2  0
 16 18  1  0
 18 19  2  3
 19 20  1  0
 20 21  2  0
 20 22  1  0
 20 23  1  0
 15  4  1  0
 14  6  1  0
  1 24  1  0
  1 25  1  0
  5 26  1  0
  7 27  1  0
  8 28  1  0
 10 29  1  0
 13 30  1  0
 18 31  1  0
 19 32  1  0
M  CHG  2  22  -1  23  -1
M  END
>  <UniqueID>  (50) 
50

>  <SMILES>  (50) 
NC(=O)c1cc2ccc(C(F)F)cc2n1C(=O)C=CP(=O)([O-])[O-]

>  <Energy>  (50) 
72.46434736159141

>  <Genealogy>  (50) 
NC(=O)c1cc2ccc(C(F)F)cc2n1C(=O)C=CP(=O)([O-])[O-] (protonated)
NC(=O)c1cc2ccc(C(F)F)cc2n1C(=O)C=CP(=O)([O-])[O-] (3D coordinates assigned)
NC(=O)c1cc2ccc(C(F)F)cc2n1C(=O)C=CP(=O)([O-])[O-] (optimized conformer: 72.46434736159141 kcal/mol)

>  <smiles>  (50) 
NC(=O)c1cc2ccc(C(F)F)cc2n1C(=O)C=CP(=O)(O)O

>  <score_type>  (50) 
oracle

>  <origin>  (50) 
adg

>  <m_score__min__energy>  (50) 
-6.5

>  <m_primary>  (50) 
energy

$$$$
51:0
     RDKit          3D

 36 37  0  0  0  0  0  0  0  0999 V2000
  146.0320  160.8010  133.7410 C   0  0  0  0  0  0  0  0  0  0  0  0
  146.2840  159.3600  133.6270 N   0  0  0  0  0  0  0  0  0  0  0  0
  147.6700  158.8900  133.5010 C   0  0  0  0  0  0  0  0  0  0  0  0
  145.1830  158.4140  133.6400 C   0  0  0  0  0  0  0  0  0  0  0  0
  145.4090  157.0390  133.9360 C   0  0  0  0  0  0  0  0  0  0  0  0
  144.3470  156.1210  133.9620 C   0  0  0  0  0  0  0  0  0  0  0  0
  143.0700  156.5870  133.6770 C   0  0  0  0  0  0  0  0  0  0  0  0
  141.8680  155.9190  133.6690 C   0  0  0  0  0  0  0  0  0  0  0  0
  140.9170  156.8790  133.3340 C   0  0  0  0  0  0  0  0  0  0  0  0
  139.4830  156.5770  133.1600 C   0  0  0  0  0  0  0  0  0  0  0  0
  138.5050  157.6180  133.1220 N   0  0  0  0  0  0  0  0  0  0  0  0
  139.1190  155.3840  132.9870 O   0  0  0  0  0  0  0  0  0  0  0  0
  141.5050  158.0950  133.1540 N   0  0  0  0  0  0  0  0  0  0  0  0
  140.8510  159.3520  132.9070 C   0  0  0  0  0  0  0  0  0  0  0  0
  140.9500  160.2880  133.7450 O   0  0  0  0  0  0  0  0  0  0  0  0
  140.0840  159.5380  131.7140 N   0  0  0  0  0  0  0  0  0  0  0  0
  139.0810  160.5810  131.5720 C   0  0  0  0  0  0  0  0  0  0  0  0
  137.8310  159.9900  131.0130 C   0  0  0  0  0  0  0  0  0  0  0  0
  137.2300  159.0760  131.6360 O   0  0  0  0  0  0  0  0  0  0  0  0
  137.2980  160.4820  129.8290 O   0  0  0  0  0  0  0  0  0  0  0  0
  142.8270  157.8980  133.3670 C   0  0  0  0  0  0  0  0  0  0  0  0
  143.8600  158.8430  133.3610 C   0  0  0  0  0  0  0  0  0  0  0  0
  145.9829  161.0817  134.8034 H   0  0  0  0  0  0  0  0  0  0  0  0
  146.8468  161.3555  133.2525 H   0  0  0  0  0  0  0  0  0  0  0  0
  145.0774  161.0461  133.2525 H   0  0  0  0  0  0  0  0  0  0  0  0
  148.1002  158.7441  134.5028 H   0  0  0  0  0  0  0  0  0  0  0  0
  147.6854  157.9364  132.9529 H   0  0  0  0  0  0  0  0  0  0  0  0
  148.2623  159.6375  132.9529 H   0  0  0  0  0  0  0  0  0  0  0  0
  146.4309  156.6912  134.1474 H   0  0  0  0  0  0  0  0  0  0  0  0
  144.5215  155.0617  134.2015 H   0  0  0  0  0  0  0  0  0  0  0  0
  141.6949  154.8538  133.8818 H   0  0  0  0  0  0  0  0  0  0  0  0
  138.7870  158.6220  133.0850 H   0  0  0  0  0  0  0  0  0  0  0  0
  137.4910  157.3810  133.0420 H   0  0  0  0  0  0  0  0  0  0  0  0
  138.8697  161.0240  132.5564 H   0  0  0  0  0  0  0  0  0  0  0  0
  139.4549  161.3618  130.8934 H   0  0  0  0  0  0  0  0  0  0  0  0
  143.6492  159.9005  133.1435 H   0  0  0  0  0  0  0  0  0  0  0  0
  1  2  1  0
  2  3  1  0
  2  4  1  0
  4  5  2  0
  5  6  1  0
  6  7  2  0
  7  8  1  0
  8  9  2  0
  9 10  1  0
 10 11  1  0
 10 12  2  0
  9 13  1  0
 13 14  1  0
 14 15  2  0
 14 16  1  0
 16 17  1  0
 17 18  1  0
 18 19  2  0
 18 20  1  0
 13 21  1  0
 21 22  2  0
 22  4  1  0
 21  7  1  0
  1 23  1  0
  1 24  1  0
  1 25  1  0
  3 26  1  0
  3 27  1  0
  3 28  1  0
  5 29  1  0
  6 30  1  0
  8 31  1  0
 11 32  1  0
 11 33  1  0
 17 34  1  0
 17 35  1  0
 22 36  1  0
M  CHG  2  16  -1  20  -1
M  END
>  <UniqueID>  (51) 
51

>  <SMILES>  (51) 
CN(C)c1ccc2cc(C(N)=O)n(C(=O)[N-]CC(=O)[O-])c2c1

>  <Energy>  (51) 
73.47278837131635

>  <Genealogy>  (51) 
CN(C)c1ccc2cc(C(N)=O)n(C(=O)[N-]CC(=O)[O-])c2c1 (protonated)
CN(C)c1ccc2cc(C(N)=O)n(C(=O)[N-]CC(=O)[O-])c2c1 (3D coordinates assigned)
CN(C)c1ccc2cc(C(N)=O)n(C(=O)[N-]CC(=O)[O-])c2c1 (optimized conformer: 73.47278837131635 kcal/mol)

>  <smiles>  (51) 
CN(C)c1ccc2cc(C(N)=O)n(C(=O)NCC(=O)O)c2c1

>  <score_type>  (51) 
oracle

>  <origin>  (51) 
adg

>  <m_score__min__energy>  (51) 
-6.54

>  <m_primary>  (51) 
energy

$$$$
52:0
     RDKit          3D

 48 49  0  0  0  0  0  0  0  0999 V2000
  148.2660  161.1980  131.2390 N   0  0  0  0  0  0  0  0  0  0  0  0
  149.1110  160.1340  131.6730 C   0  0  0  0  0  0  0  0  0  0  0  0
  150.3550  160.2280  131.5010 O   0  0  0  0  0  0  0  0  0  0  0  0
  148.5210  158.9320  132.2970 C   0  0  0  0  0  0  0  0  0  0  0  0
  149.0810  157.6590  132.2100 C   0  0  0  0  0  0  0  0  0  0  0  0
  148.2570  156.8450  132.9550 C   0  0  0  0  0  0  0  0  0  0  0  0
  148.3320  155.4780  133.2040 C   0  0  0  0  0  0  0  0  0  0  0  0
  147.3240  154.8960  133.9920 C   0  0  0  0  0  0  0  0  0  0  0  0
  146.2570  155.6810  134.4960 C   0  0  0  0  0  0  0  0  0  0  0  0
  145.1990  155.0520  135.3610 C   0  0  0  0  0  0  0  0  0  0  0  0
  143.8480  155.0400  134.6330 C   0  0  0  0  0  0  0  0  0  0  0  0
  143.1610  156.4140  134.6310 C   0  0  0  0  0  0  0  0  0  0  0  0
  142.7690  156.8810  133.2150 C   0  0  0  0  0  0  0  0  0  0  0  0
  142.2900  158.2790  133.2040 N   0  0  0  0  0  0  0  0  0  0  0  0
  140.8640  158.4070  133.5910 C   0  0  1  0  0  0  0  0  0  0  0  0
  140.6720  159.4750  134.6910 C   0  0  0  0  0  0  0  0  0  0  0  0
  141.3780  159.1370  135.9710 C   0  0  0  0  0  0  0  0  0  0  0  0
  142.6280  158.9860  135.9860 O   0  0  0  0  0  0  0  0  0  0  0  0
  140.6510  158.9650  137.1430 O   0  0  0  0  0  0  0  0  0  0  0  0
  139.9790  158.7070  132.4020 C   0  0  0  0  0  0  0  0  0  0  0  0
  140.4960  159.0500  131.3070 O   0  0  0  0  0  0  0  0  0  0  0  0
  138.5990  158.5650  132.4900 O   0  0  0  0  0  0  0  0  0  0  0  0
  146.2200  157.0680  134.2290 C   0  0  0  0  0  0  0  0  0  0  0  0
  147.2470  157.6230  133.4590 C   0  0  0  0  0  0  0  0  0  0  0  0
  147.4000  158.9070  133.0690 N   0  0  0  0  0  0  0  0  0  0  0  0
  146.5120  159.9980  133.3620 C   0  0  0  0  0  0  0  0  0  0  0  0
  146.9870  161.1130  133.7050 O   0  0  0  0  0  0  0  0  0  0  0  0
  145.0540  159.8290  133.2740 C   0  0  0  0  0  0  0  0  0  0  0  0
  144.5570  158.9810  132.4870 O   0  0  0  0  0  0  0  0  0  0  0  0
  144.2150  160.5940  134.0740 O   0  0  0  0  0  0  0  0  0  0  0  0
  147.8980  161.9030  131.9160 H   0  0  0  0  0  0  0  0  0  0  0  0
  149.9889  157.3663  131.6623 H   0  0  0  0  0  0  0  0  0  0  0  0
  149.1545  154.8717  132.7968 H   0  0  0  0  0  0  0  0  0  0  0  0
  147.3637  153.8206  134.2198 H   0  0  0  0  0  0  0  0  0  0  0  0
  145.4920  154.0185  135.5977 H   0  0  0  0  0  0  0  0  0  0  0  0
  145.0999  155.6389  136.2860 H   0  0  0  0  0  0  0  0  0  0  0  0
  144.0129  154.7279  133.5912 H   0  0  0  0  0  0  0  0  0  0  0  0
  143.1891  154.3409  135.1688 H   0  0  0  0  0  0  0  0  0  0  0  0
  142.2511  156.3534  135.2461 H   0  0  0  0  0  0  0  0  0  0  0  0
  143.8774  157.1443  135.0353 H   0  0  0  0  0  0  0  0  0  0  0  0
  143.6486  156.8022  132.5592 H   0  0  0  0  0  0  0  0  0  0  0  0
  141.9489  156.2389  132.8612 H   0  0  0  0  0  0  0  0  0  0  0  0
  142.8850  158.8500  133.8500 H   0  0  0  0  0  0  0  0  0  0  0  0
  142.4290  158.6690  132.2420 H   0  0  0  0  0  0  0  0  0  0  0  0
  140.5581  157.4319  133.9980 H   0  0  0  0  0  0  0  0  0  0  0  0
  141.0618  160.4341  134.3192 H   0  0  0  0  0  0  0  0  0  0  0  0
  139.5960  159.5255  134.9140 H   0  0  0  0  0  0  0  0  0  0  0  0
  145.4040  157.6954  134.6170 H   0  0  0  0  0  0  0  0  0  0  0  0
  1  2  1  0
  2  3  2  0
  2  4  1  0
  4  5  2  0
  5  6  1  0
  6  7  2  0
  7  8  1  0
  8  9  2  0
  9 10  1  0
 10 11  1  0
 11 12  1  0
 12 13  1  0
 13 14  1  0
 14 15  1  0
 15 16  1  0
 16 17  1  0
 17 18  2  0
 17 19  1  0
 15 20  1  0
 20 21  2  0
 20 22  1  0
  9 23  1  0
 23 24  2  0
 24 25  1  0
 25 26  1  0
 26 27  2  0
 26 28  1  0
 28 29  2  0
 28 30  1  0
 25  4  1  0
 24  6  1  0
  1 31  1  0
  5 32  1  0
  7 33  1  0
  8 34  1  0
 10 35  1  0
 10 36  1  0
 11 37  1  0
 11 38  1  0
 12 39  1  0
 12 40  1  0
 13 41  1  0
 13 42  1  0
 14 43  1  0
 14 44  1  0
 15 45  1  1
 16 46  1  0
 16 47  1  0
 23 48  1  0
M  CHG  5   1  -1  14   1  19  -1  22  -1  30  -1
M  END
>  <UniqueID>  (52) 
52

>  <SMILES>  (52) 
[NH-]C(=O)c1cc2ccc(CCCC[NH2+][C@@H](CC(=O)[O-])C(=O)[O-])cc2n1C(=O)C(=O)[O-]

>  <Energy>  (52) 
82.6809848614163

>  <Genealogy>  (52) 
[NH-]C(=O)c1cc2ccc(CCCC[NH2+][C@@H](CC(=O)[O-])C(=O)[O-])cc2n1C(=O)C(=O)[O-] (protonated)
[NH-]C(=O)c1cc2ccc(CCCC[NH2+][C@@H](CC(=O)[O-])C(=O)[O-])cc2n1C(=O)C(=O)[O-] (3D coordinates assigned)
[NH-]C(=O)c1cc2ccc(CCCC[NH2+][C@@H](CC(=O)[O-])C(=O)[O-])cc2n1C(=O)C(=O)[O-] (optimized conformer: 82.6809848614163 kcal/mol)

>  <smiles>  (52) 
NC(=O)c1cc2ccc(CCCCN[C@@H](CC(=O)O)C(=O)O)cc2n1C(=O)C(=O)O

>  <score_type>  (52) 
oracle

>  <origin>  (52) 
adg

>  <m_score__min__energy>  (52) 
-6.9299999999999997

>  <m_primary>  (52) 
energy

$$$$
53:0
     RDKit          3D

 37 38  0  0  0  0  0  0  0  0999 V2000
  137.4540  160.1310  130.7300 C   0  0  0  0  0  0  0  0  0  0  0  0
  138.6310  159.2710  131.1780 C   0  0  0  0  0  0  0  0  0  0  0  0
  138.3710  158.6920  132.4910 N   0  0  0  0  0  0  0  0  0  0  0  0
  139.4100  158.3520  133.4110 C   0  0  0  0  0  0  0  0  0  0  0  0
  139.1320  158.2250  134.6330 O   0  0  0  0  0  0  0  0  0  0  0  0
  140.7220  158.1820  132.9540 O   0  0  0  0  0  0  0  0  0  0  0  0
  141.4220  156.9400  132.9840 C   0  0  0  0  0  0  0  0  0  0  0  0
  142.7880  157.1480  132.6370 O   0  0  0  0  0  0  0  0  0  0  0  0
  143.8010  157.3590  133.5790 C   0  0  0  0  0  0  0  0  0  0  0  0
  144.0780  156.4710  134.4310 O   0  0  0  0  0  0  0  0  0  0  0  0
  144.5080  158.6080  133.5920 N   0  0  0  0  0  0  0  0  0  0  0  0
  144.0040  159.8530  133.8210 C   0  0  0  0  0  0  0  0  0  0  0  0
  142.6190  160.1670  134.2360 C   0  0  0  0  0  0  0  0  0  0  0  0
  141.9840  159.3780  135.2410 N   0  0  0  0  0  0  0  0  0  0  0  0
  141.9780  161.1020  133.6910 O   0  0  0  0  0  0  0  0  0  0  0  0
  145.0050  160.8150  133.6960 C   0  0  0  0  0  0  0  0  0  0  0  0
  146.1480  160.1150  133.3890 C   0  0  0  0  0  0  0  0  0  0  0  0
  147.4410  160.5710  133.1500 C   0  0  0  0  0  0  0  0  0  0  0  0
  148.4270  159.6200  132.8330 C   0  0  0  0  0  0  0  0  0  0  0  0
  148.1010  158.2450  132.7550 C   0  0  0  0  0  0  0  0  0  0  0  0
  149.1110  157.2890  132.4190 N   0  0  0  0  0  0  0  0  0  0  0  0
  146.7800  157.8170  133.0030 C   0  0  0  0  0  0  0  0  0  0  0  0
  145.8220  158.7840  133.3330 C   0  0  0  0  0  0  0  0  0  0  0  0
  136.9250  160.5175  131.6136 H   0  0  0  0  0  0  0  0  0  0  0  0
  137.8239  160.9731  130.1266 H   0  0  0  0  0  0  0  0  0  0  0  0
  136.7641  159.5227  130.1266 H   0  0  0  0  0  0  0  0  0  0  0  0
  138.7854  158.4613  130.4496 H   0  0  0  0  0  0  0  0  0  0  0  0
  139.5295  159.9026  131.2397 H   0  0  0  0  0  0  0  0  0  0  0  0
  141.3632  156.5119  133.9956 H   0  0  0  0  0  0  0  0  0  0  0  0
  140.9649  156.2477  132.2617 H   0  0  0  0  0  0  0  0  0  0  0  0
  141.2130  158.7190  134.9970 H   0  0  0  0  0  0  0  0  0  0  0  0
  144.9023  161.9035  133.8173 H   0  0  0  0  0  0  0  0  0  0  0  0
  147.6841  161.6423  133.2073 H   0  0  0  0  0  0  0  0  0  0  0  0
  149.4600  159.9473  132.6441 H   0  0  0  0  0  0  0  0  0  0  0  0
  149.9330  157.1380  133.0450 H   0  0  0  0  0  0  0  0  0  0  0  0
  149.0420  156.7260  131.5430 H   0  0  0  0  0  0  0  0  0  0  0  0
  146.5096  156.7527  132.9390 H   0  0  0  0  0  0  0  0  0  0  0  0
  1  2  1  0
  2  3  1  0
  3  4  1  0
  4  5  2  0
  4  6  1  0
  6  7  1  0
  7  8  1  0
  8  9  1  0
  9 10  2  0
  9 11  1  0
 11 12  1  0
 12 13  1  0
 13 14  1  0
 13 15  2  0
 12 16  2  0
 16 17  1  0
 17 18  2  0
 18 19  1  0
 19 20  2  0
 20 21  1  0
 20 22  1  0
 22 23  2  0
 23 11  1  0
 23 17  1  0
  1 24  1  0
  1 25  1  0
  1 26  1  0
  2 27  1  0
  2 28  1  0
  7 29  1  0
  7 30  1  0
 14 31  1  0
 16 32  1  0
 18 33  1  0
 19 34  1  0
 21 35  1  0
 21 36  1  0
 22 37  1  0
M  CHG  2   3  -1  14  -1
M  END
>  <UniqueID>  (53) 
53

>  <SMILES>  (53) 
CC[N-]C(=O)OCOC(=O)n1c(C([NH-])=O)cc2ccc(N)cc21

>  <Energy>  (53) 
68.37776535689673

>  <Genealogy>  (53) 
CC[N-]C(=O)OCOC(=O)n1c(C([NH-])=O)cc2ccc(N)cc21 (protonated)
CC[N-]C(=O)OCOC(=O)n1c(C([NH-])=O)cc2ccc(N)cc21 (3D coordinates assigned)
CC[N-]C(=O)OCOC(=O)n1c(C([NH-])=O)cc2ccc(N)cc21 (optimized conformer: 68.37776535689673 kcal/mol)

>  <smiles>  (53) 
CCNC(=O)OCOC(=O)n1c(C(N)=O)cc2ccc(N)cc21

>  <score_type>  (53) 
oracle

>  <origin>  (53) 
adg

>  <m_score__min__energy>  (53) 
-6.0800000000000001

>  <m_primary>  (53) 
energy

$$$$
54:0
     RDKit          3D

 40 41  0  0  0  0  0  0  0  0999 V2000
  142.6210  160.8670  133.6720 N   0  0  0  0  0  0  0  0  0  0  0  0
  144.0160  161.1540  133.7810 C   0  0  0  0  0  0  0  0  0  0  0  0
  144.3900  162.3440  133.9550 O   0  0  0  0  0  0  0  0  0  0  0  0
  145.0310  160.0900  133.6360 C   0  0  0  0  0  0  0  0  0  0  0  0
  146.3700  160.3410  133.3500 C   0  0  0  0  0  0  0  0  0  0  0  0
  146.9580  159.1010  133.2490 C   0  0  0  0  0  0  0  0  0  0  0  0
  148.2810  158.7570  132.9910 C   0  0  0  0  0  0  0  0  0  0  0  0
  148.6180  157.3930  132.9900 C   0  0  0  0  0  0  0  0  0  0  0  0
  147.6420  156.4040  133.2740 C   0  0  0  0  0  0  0  0  0  0  0  0
  148.0140  154.9430  133.2490 C   0  0  0  0  0  0  0  0  0  0  0  0
  149.2200  154.7580  132.5940 F   0  0  0  0  0  0  0  0  0  0  0  0
  147.0470  154.2030  132.5920 F   0  0  0  0  0  0  0  0  0  0  0  0
  148.1280  154.4820  134.5470 F   0  0  0  0  0  0  0  0  0  0  0  0
  146.3020  156.7930  133.5060 C   0  0  0  0  0  0  0  0  0  0  0  0
  145.9890  158.1570  133.4790 C   0  0  0  0  0  0  0  0  0  0  0  0
  144.8000  158.7500  133.7200 N   0  0  0  0  0  0  0  0  0  0  0  0
  143.5820  158.0940  134.1060 C   0  0  0  0  0  0  0  0  0  0  0  0
  143.2780  156.9870  133.5840 O   0  0  0  0  0  0  0  0  0  0  0  0
  142.7570  158.6810  135.0760 O   0  0  0  0  0  0  0  0  0  0  0  0
  141.5650  158.1230  135.5550 C   0  0  0  0  0  0  0  0  0  0  0  0
  141.5720  157.0910  136.2800 O   0  0  0  0  0  0  0  0  0  0  0  0
  140.2580  158.7530  135.1840 C   0  0  0  0  0  0  0  0  0  0  0  0
  139.3010  157.7490  134.5240 C   0  0  0  0  0  0  0  0  0  0  0  0
  138.7810  158.1880  133.1450 C   0  0  0  0  0  0  0  0  0  0  0  0
  140.0270  159.1170  132.1880 P   0  0  0  0  0  0  0  0  0  0  0  0
  141.3390  158.3680  132.2250 O   0  0  0  0  0  0  0  0  0  0  0  0
  139.5260  159.2730  130.5800 O   0  0  0  0  0  0  0  0  0  0  0  0
  140.2480  160.6540  132.8590 O   0  0  0  0  0  0  0  0  0  0  0  0
  142.2850  159.9320  133.3530 H   0  0  0  0  0  0  0  0  0  0  0  0
  141.9190  161.6240  133.8220 H   0  0  0  0  0  0  0  0  0  0  0  0
  146.8546  161.3212  133.2303 H   0  0  0  0  0  0  0  0  0  0  0  0
  149.0396  159.5288  132.7939 H   0  0  0  0  0  0  0  0  0  0  0  0
  149.6511  157.0886  132.7663 H   0  0  0  0  0  0  0  0  0  0  0  0
  145.5238  156.0409  133.7031 H   0  0  0  0  0  0  0  0  0  0  0  0
  139.7841  159.1496  136.0940 H   0  0  0  0  0  0  0  0  0  0  0  0
  140.4614  159.5549  134.4590 H   0  0  0  0  0  0  0  0  0  0  0  0
  139.8323  156.7933  134.4043 H   0  0  0  0  0  0  0  0  0  0  0  0
  138.4234  157.6687  135.1823 H   0  0  0  0  0  0  0  0  0  0  0  0
  138.4951  157.2919  132.5747 H   0  0  0  0  0  0  0  0  0  0  0  0
  137.9222  158.8553  133.3098 H   0  0  0  0  0  0  0  0  0  0  0  0
  1  2  1  0
  2  3  2  0
  2  4  1  0
  4  5  2  0
  5  6  1  0
  6  7  2  0
  7  8  1  0
  8  9  2  0
  9 10  1  0
 10 11  1  0
 10 12  1  0
 10 13  1  0
  9 14  1  0
 14 15  2  0
 15 16  1  0
 16 17  1  0
 17 18  2  0
 17 19  1  0
 19 20  1  0
 20 21  2  0
 20 22  1  0
 22 23  1  0
 23 24  1  0
 24 25  1  0
 25 26  2  0
 25 27  1  0
 25 28  1  0
 16  4  1  0
 15  6  1  0
  1 29  1  0
  1 30  1  0
  5 31  1  0
  7 32  1  0
  8 33  1  0
 14 34  1  0
 22 35  1  0
 22 36  1  0
 23 37  1  0
 23 38  1  0
 24 39  1  0
 24 40  1  0
M  CHG  2  27  -1  28  -1
M  END
>  <UniqueID>  (54) 
54

>  <SMILES>  (54) 
NC(=O)c1cc2ccc(C(F)(F)F)cc2n1C(=O)OC(=O)CCCP(=O)([O-])[O-]

>  <Energy>  (54) 
71.81942171839319

>  <Genealogy>  (54) 
NC(=O)c1cc2ccc(C(F)(F)F)cc2n1C(=O)OC(=O)CCCP(=O)([O-])[O-] (protonated)
NC(=O)c1cc2ccc(C(F)(F)F)cc2n1C(=O)OC(=O)CCCP(=O)([O-])[O-] (3D coordinates assigned)
NC(=O)c1cc2ccc(C(F)(F)F)cc2n1C(=O)OC(=O)CCCP(=O)([O-])[O-] (optimized conformer: 71.81942171839319 kcal/mol)

>  <smiles>  (54) 
NC(=O)c1cc2ccc(C(F)(F)F)cc2n1C(=O)OC(=O)CCCP(=O)(O)O

>  <score_type>  (54) 
oracle

>  <origin>  (54) 
adg

>  <m_score__min__energy>  (54) 
-6.7999999999999998

>  <m_primary>  (54) 
energy

$$$$
55:0
     RDKit          3D

 44 45  0  0  0  0  0  0  0  0999 V2000
  143.6310  155.8810  132.5980 C   0  0  0  0  0  0  0  0  0  0  0  0
  143.3520  157.2630  132.5340 O   0  0  0  0  0  0  0  0  0  0  0  0
  142.0010  157.4850  132.8900 C   0  0  0  0  0  0  0  0  0  0  0  0
  141.8820  157.6530  134.4110 C   0  0  1  0  0  0  0  0  0  0  0  0
  142.8050  158.6800  134.8880 N   0  0  0  0  0  0  0  0  0  0  0  0
  142.8590  160.0130  134.3650 C   0  0  0  0  0  0  0  0  0  0  0  0
  141.8540  160.7690  134.4460 O   0  0  0  0  0  0  0  0  0  0  0  0
  144.1030  160.5190  133.6960 C   0  0  0  0  0  0  0  0  0  0  0  0
  145.0960  159.4530  133.5620 N   0  0  0  0  0  0  0  0  0  0  0  0
  146.4920  159.7220  133.3670 C   0  0  0  0  0  0  0  0  0  0  0  0
  146.9370  160.8940  133.4950 O   0  0  0  0  0  0  0  0  0  0  0  0
  147.3890  158.6540  133.0310 N   0  0  0  0  0  0  0  0  0  0  0  0
  148.5350  158.7220  132.2980 C   0  0  0  0  0  0  0  0  0  0  0  0
  149.0580  159.9220  131.6050 C   0  0  0  0  0  0  0  0  0  0  0  0
  148.1780  160.8980  131.0540 N   0  0  0  0  0  0  0  0  0  0  0  0
  150.3010  160.0680  131.4670 O   0  0  0  0  0  0  0  0  0  0  0  0
  149.1440  157.4700  132.2300 C   0  0  0  0  0  0  0  0  0  0  0  0
  148.3260  156.6260  132.9450 C   0  0  0  0  0  0  0  0  0  0  0  0
  148.4630  155.2700  133.2250 C   0  0  0  0  0  0  0  0  0  0  0  0
  147.4790  154.6590  134.0210 C   0  0  0  0  0  0  0  0  0  0  0  0
  146.3780  155.4050  134.5160 C   0  0  0  0  0  0  0  0  0  0  0  0
  145.3670  154.7560  135.4260 C   0  0  0  0  0  0  0  0  0  0  0  0
  144.3180  155.6310  135.6390 F   0  0  0  0  0  0  0  0  0  0  0  0
  145.9410  154.4370  136.6450 F   0  0  0  0  0  0  0  0  0  0  0  0
  144.8770  153.5930  134.8610 F   0  0  0  0  0  0  0  0  0  0  0  0
  146.2910  156.7880  134.2310 C   0  0  0  0  0  0  0  0  0  0  0  0
  147.2740  157.3650  133.4190 C   0  0  0  0  0  0  0  0  0  0  0  0
  140.4800  158.0330  134.7900 C   0  0  0  0  0  0  0  0  0  0  0  0
  139.6330  158.2910  133.8960 O   0  0  0  0  0  0  0  0  0  0  0  0
  140.1180  158.1350  136.1290 O   0  0  0  0  0  0  0  0  0  0  0  0
  143.6942  155.5681  133.6507 H   0  0  0  0  0  0  0  0  0  0  0  0
  142.8277  155.3212  132.0966 H   0  0  0  0  0  0  0  0  0  0  0  0
  144.5885  155.6766  132.0966 H   0  0  0  0  0  0  0  0  0  0  0  0
  141.6380  158.3967  132.3929 H   0  0  0  0  0  0  0  0  0  0  0  0
  141.3966  156.6224  132.5727 H   0  0  0  0  0  0  0  0  0  0  0  0
  142.1372  156.6909  134.8792 H   0  0  0  0  0  0  0  0  0  0  0  0
  143.8451  160.8983  132.6962 H   0  0  0  0  0  0  0  0  0  0  0  0
  144.5316  161.3220  134.3136 H   0  0  0  0  0  0  0  0  0  0  0  0
  144.7500  158.4770  133.4190 H   0  0  0  0  0  0  0  0  0  0  0  0
  147.7650  161.6480  131.6500 H   0  0  0  0  0  0  0  0  0  0  0  0
  150.0804  157.2115  131.7139 H   0  0  0  0  0  0  0  0  0  0  0  0
  149.3152  154.6939  132.8354 H   0  0  0  0  0  0  0  0  0  0  0  0
  147.5633  153.5893  134.2633 H   0  0  0  0  0  0  0  0  0  0  0  0
  145.4696  157.3958  134.6383 H   0  0  0  0  0  0  0  0  0  0  0  0
  1  2  1  0
  2  3  1  0
  3  4  1  0
  4  5  1  0
  5  6  1  0
  6  7  2  0
  6  8  1  0
  8  9  1  0
  9 10  1  0
 10 11  2  0
 10 12  1  0
 12 13  1  0
 13 14  1  0
 14 15  1  0
 14 16  2  0
 13 17  2  0
 17 18  1  0
 18 19  2  0
 19 20  1  0
 20 21  2  0
 21 22  1  0
 22 23  1  0
 22 24  1  0
 22 25  1  0
 21 26  1  0
 26 27  2  0
  4 28  1  0
 28 29  2  0
 28 30  1  0
 27 12  1  0
 27 18  1  0
  1 31  1  0
  1 32  1  0
  1 33  1  0
  3 34  1  0
  3 35  1  0
  4 36  1  1
  8 37  1  0
  8 38  1  0
  9 39  1  0
 15 40  1  0
 17 41  1  0
 19 42  1  0
 20 43  1  0
 26 44  1  0
M  CHG  3   5  -1  15  -1  30  -1
M  END
>  <UniqueID>  (55) 
55

>  <SMILES>  (55) 
COC[C@@H]([N-]C(=O)CNC(=O)n1c(C([NH-])=O)cc2ccc(C(F)(F)F)cc21)C(=O)[O-]

>  <Energy>  (55) 
77.69602797577816

>  <Genealogy>  (55) 
COCC([N-]C(=O)CNC(=O)n1c(C([NH-])=O)cc2ccc(C(F)(F)F)cc21)C(=O)[O-] (protonated)
COC[C@@H]([N-]C(=O)CNC(=O)n1c(C([NH-])=O)cc2ccc(C(F)(F)F)cc21)C(=O)[O-] (chirality)
COC[C@@H]([N-]C(=O)CNC(=O)n1c(C([NH-])=O)cc2ccc(C(F)(F)F)cc21)C(=O)[O-] (3D coordinates assigned)
COC[C@@H]([N-]C(=O)CNC(=O)n1c(C([NH-])=O)cc2ccc(C(F)(F)F)cc21)C(=O)[O-] (optimized conformer: 77.69602797577816 kcal/mol)

>  <smiles>  (55) 
COCC(NC(=O)CNC(=O)n1c(C(N)=O)cc2ccc(C(F)(F)F)cc21)C(=O)O

>  <score_type>  (55) 
oracle

>  <origin>  (55) 
adg

>  <m_score__min__energy>  (55) 
-6.7300000000000004

>  <m_primary>  (55) 
energy

$$$$
56:0
     RDKit          3D

 42 43  0  0  0  0  0  0  0  0999 V2000
  148.6550  160.0940  132.6750 C   0  0  0  0  0  0  0  0  0  0  0  0
  147.4980  159.9310  132.9680 C   0  0  0  0  0  0  0  0  0  0  0  0
  146.1150  159.7380  133.3180 C   0  0  0  0  0  0  0  0  0  0  0  0
  145.3290  160.8420  133.7260 C   0  0  0  0  0  0  0  0  0  0  0  0
  143.9800  160.6630  134.0780 C   0  0  0  0  0  0  0  0  0  0  0  0
  143.4510  159.3760  134.0030 C   0  0  0  0  0  0  0  0  0  0  0  0
  142.1900  158.9150  134.3070 C   0  0  0  0  0  0  0  0  0  0  0  0
  142.2280  157.5430  134.0600 C   0  0  0  0  0  0  0  0  0  0  0  0
  141.0590  156.6510  134.2100 C   0  0  0  0  0  0  0  0  0  0  0  0
  140.8010  155.6120  133.2690 N   0  0  0  0  0  0  0  0  0  0  0  0
  140.2600  156.8240  135.1690 O   0  0  0  0  0  0  0  0  0  0  0  0
  143.4640  157.1730  133.6220 N   0  0  0  0  0  0  0  0  0  0  0  0
  143.9280  155.8480  133.3250 C   0  0  0  0  0  0  0  0  0  0  0  0
  143.5970  155.2990  132.2410 O   0  0  0  0  0  0  0  0  0  0  0  0
  144.7960  155.1280  134.2670 C   0  0  0  0  0  0  0  0  0  0  0  0
  146.0460  155.1360  134.1010 O   0  0  0  0  0  0  0  0  0  0  0  0
  144.2240  154.4310  135.3370 O   0  0  0  0  0  0  0  0  0  0  0  0
  142.8270  154.4410  135.6170 C   0  0  0  0  0  0  0  0  0  0  0  0
  142.1600  153.2560  134.9690 C   0  0  0  0  0  0  0  0  0  0  0  0
  141.6860  152.3830  135.6850 O   0  0  0  0  0  0  0  0  0  0  0  0
  142.0710  153.1440  133.5250 N   0  0  1  0  0  0  0  0  0  0  0  0
  143.2440  152.4100  133.0180 C   0  0  0  0  0  0  0  0  0  0  0  0
  140.8040  152.4750  133.1480 C   0  0  0  0  0  0  0  0  0  0  0  0
  140.9590  150.9830  133.0950 C   0  0  0  0  0  0  0  0  0  0  0  0
  141.0520  150.3930  131.9860 O   0  0  0  0  0  0  0  0  0  0  0  0
  140.9690  150.2450  134.2710 O   0  0  0  0  0  0  0  0  0  0  0  0
  144.2010  158.3030  133.5950 C   0  0  0  0  0  0  0  0  0  0  0  0
  145.5510  158.4480  133.2560 C   0  0  0  0  0  0  0  0  0  0  0  0
  149.7115  160.2428  132.4074 H   0  0  0  0  0  0  0  0  0  0  0  0
  145.7764  161.8460  133.7679 H   0  0  0  0  0  0  0  0  0  0  0  0
  143.3611  161.5125  134.4026 H   0  0  0  0  0  0  0  0  0  0  0  0
  141.3340  159.5039  134.6682 H   0  0  0  0  0  0  0  0  0  0  0  0
  141.5440  155.2850  132.6120 H   0  0  0  0  0  0  0  0  0  0  0  0
  142.6738  154.3944  136.7053 H   0  0  0  0  0  0  0  0  0  0  0  0
  142.3863  155.3656  135.2159 H   0  0  0  0  0  0  0  0  0  0  0  0
  142.0840  154.1030  133.1040 H   0  0  0  0  0  0  0  0  0  0  0  0
  143.8383  152.0381  133.8656 H   0  0  0  0  0  0  0  0  0  0  0  0
  142.9082  151.5606  132.4050 H   0  0  0  0  0  0  0  0  0  0  0  0
  143.8611  153.0834  132.4050 H   0  0  0  0  0  0  0  0  0  0  0  0
  140.0329  152.7272  133.8908 H   0  0  0  0  0  0  0  0  0  0  0  0
  140.5157  152.8258  132.1461 H   0  0  0  0  0  0  0  0  0  0  0  0
  146.1542  157.5805  132.9501 H   0  0  0  0  0  0  0  0  0  0  0  0
  1  2  3  0
  2  3  1  0
  3  4  2  0
  4  5  1  0
  5  6  2  0
  6  7  1  0
  7  8  2  0
  8  9  1  0
  9 10  1  0
  9 11  2  0
  8 12  1  0
 12 13  1  0
 13 14  2  0
 13 15  1  0
 15 16  2  0
 15 17  1  0
 17 18  1  0
 18 19  1  0
 19 20  2  0
 19 21  1  0
 21 22  1  0
 21 23  1  0
 23 24  1  0
 24 25  2  0
 24 26  1  0
 12 27  1  0
 27 28  2  0
 28  3  1  0
 27  6  1  0
  1 29  1  0
  4 30  1  0
  5 31  1  0
  7 32  1  0
 10 33  1  0
 18 34  1  0
 18 35  1  0
 21 36  1  6
 22 37  1  0
 22 38  1  0
 22 39  1  0
 23 40  1  0
 23 41  1  0
 28 42  1  0
M  CHG  3  10  -1  21   1  26  -1
M  END
>  <UniqueID>  (56) 
56

>  <SMILES>  (56) 
C#Cc1ccc2cc(C([NH-])=O)n(C(=O)C(=O)OCC(=O)[N@@H+](C)CC(=O)[O-])c2c1

>  <Energy>  (56) 
77.04716670857299

>  <Genealogy>  (56) 
C#Cc1ccc2cc(C([NH-])=O)n(C(=O)C(=O)OCC(=O)[NH+](C)CC(=O)[O-])c2c1 (protonated)
C#Cc1ccc2cc(C([NH-])=O)n(C(=O)C(=O)OCC(=O)[N@@H+](C)CC(=O)[O-])c2c1 (chirality)
C#Cc1ccc2cc(C([NH-])=O)n(C(=O)C(=O)OCC(=O)[N@@H+](C)CC(=O)[O-])c2c1 (3D coordinates assigned)
C#Cc1ccc2cc(C([NH-])=O)n(C(=O)C(=O)OCC(=O)[N@@H+](C)CC(=O)[O-])c2c1 (optimized conformer: 77.04716670857299 kcal/mol)

>  <smiles>  (56) 
C#Cc1ccc2cc(C(N)=O)n(C(=O)C(=O)OCC(=O)N(C)CC(=O)O)c2c1

>  <score_type>  (56) 
oracle

>  <origin>  (56) 
adg

>  <m_score__min__energy>  (56) 
-6.2699999999999996

>  <m_primary>  (56) 
energy

$$$$
57:0
     RDKit          3D

 32 33  0  0  0  0  0  0  0  0999 V2000
  141.5100  157.0690  134.6160 C   0  0  0  0  0  0  0  0  0  0  0  0
  142.7200  157.8680  134.2300 C   0  0  0  0  0  0  0  0  0  0  0  0
  142.5930  159.2460  133.9280 C   0  0  0  0  0  0  0  0  0  0  0  0
  143.7100  159.9930  133.5140 C   0  0  0  0  0  0  0  0  0  0  0  0
  144.9330  159.3360  133.4120 C   0  0  0  0  0  0  0  0  0  0  0  0
  146.1620  159.8060  133.0090 C   0  0  0  0  0  0  0  0  0  0  0  0
  147.0200  158.7100  133.0810 C   0  0  0  0  0  0  0  0  0  0  0  0
  148.4700  158.7880  132.8030 C   0  0  0  0  0  0  0  0  0  0  0  0
  149.0150  158.0880  131.6870 N   0  0  0  0  0  0  0  0  0  0  0  0
  149.2290  159.4890  133.5230 O   0  0  0  0  0  0  0  0  0  0  0  0
  146.3440  157.6050  133.5080 N   0  0  0  0  0  0  0  0  0  0  0  0
  146.8470  156.2720  133.6810 C   0  0  0  0  0  0  0  0  0  0  0  0
  147.6390  155.7800  132.8300 O   0  0  0  0  0  0  0  0  0  0  0  0
  146.4340  155.5150  134.7820 O   0  0  0  0  0  0  0  0  0  0  0  0
  147.3450  154.7800  135.5980 C   0  0  0  0  0  0  0  0  0  0  0  0
  146.6570  153.8620  136.4140 O   0  0  0  0  0  0  0  0  0  0  0  0
  147.6390  153.4290  137.7430 P   0  0  0  0  0  0  0  0  0  0  0  0
  149.0400  153.9540  137.5290 O   0  0  0  0  0  0  0  0  0  0  0  0
  147.0240  154.0440  139.1960 O   0  0  0  0  0  0  0  0  0  0  0  0
  147.6980  151.7420  137.8500 O   0  0  0  0  0  0  0  0  0  0  0  0
  145.0710  158.0040  133.7060 C   0  0  0  0  0  0  0  0  0  0  0  0
  143.9720  157.2310  134.0960 C   0  0  0  0  0  0  0  0  0  0  0  0
  141.4369  157.0208  135.7125 H   0  0  0  0  0  0  0  0  0  0  0  0
  140.6081  157.5497  134.2092 H   0  0  0  0  0  0  0  0  0  0  0  0
  141.5979  156.0508  134.2092 H   0  0  0  0  0  0  0  0  0  0  0  0
  141.6123  159.7359  134.0181 H   0  0  0  0  0  0  0  0  0  0  0  0
  143.6202  161.0636  133.2780 H   0  0  0  0  0  0  0  0  0  0  0  0
  146.4139  160.8301  132.6962 H   0  0  0  0  0  0  0  0  0  0  0  0
  148.7290  157.1050  131.4800 H   0  0  0  0  0  0  0  0  0  0  0  0
  148.0469  154.2325  134.9518 H   0  0  0  0  0  0  0  0  0  0  0  0
  147.8890  155.4859  136.2428 H   0  0  0  0  0  0  0  0  0  0  0  0
  144.0811  156.1543  134.2931 H   0  0  0  0  0  0  0  0  0  0  0  0
  1  2  1  0
  2  3  2  0
  3  4  1  0
  4  5  2  0
  5  6  1  0
  6  7  2  0
  7  8  1  0
  8  9  1  0
  8 10  2  0
  7 11  1  0
 11 12  1  0
 12 13  2  0
 12 14  1  0
 14 15  1  0
 15 16  1  0
 16 17  1  0
 17 18  2  0
 17 19  1  0
 17 20  1  0
 11 21  1  0
 21 22  2  0
 22  2  1  0
 21  5  1  0
  1 23  1  0
  1 24  1  0
  1 25  1  0
  3 26  1  0
  4 27  1  0
  6 28  1  0
  9 29  1  0
 15 30  1  0
 15 31  1  0
 22 32  1  0
M  CHG  3   9  -1  19  -1  20  -1
M  END
>  <UniqueID>  (57) 
57

>  <SMILES>  (57) 
Cc1ccc2cc(C([NH-])=O)n(C(=O)OCOP(=O)([O-])[O-])c2c1

>  <Energy>  (57) 
67.99825208966696

>  <Genealogy>  (57) 
Cc1ccc2cc(C([NH-])=O)n(C(=O)OCOP(=O)([O-])[O-])c2c1 (protonated)
Cc1ccc2cc(C([NH-])=O)n(C(=O)OCOP(=O)([O-])[O-])c2c1 (3D coordinates assigned)
Cc1ccc2cc(C([NH-])=O)n(C(=O)OCOP(=O)([O-])[O-])c2c1 (optimized conformer: 67.99825208966696 kcal/mol)

>  <smiles>  (57) 
Cc1ccc2cc(C(N)=O)n(C(=O)OCOP(=O)(O)O)c2c1

>  <score_type>  (57) 
oracle

>  <origin>  (57) 
adg

>  <m_score__min__energy>  (57) 
-6.4500000000000002

>  <m_primary>  (57) 
energy

$$$$
58:0
     RDKit          3D

 36 37  0  0  0  0  0  0  0  0999 V2000
  141.2160  158.2300  134.5940 C   0  0  0  0  0  0  0  0  0  0  0  0
  142.5630  158.8030  134.2650 C   0  0  0  0  0  0  0  0  0  0  0  0
  142.7130  160.1970  134.0610 C   0  0  0  0  0  0  0  0  0  0  0  0
  143.9620  160.7390  133.7140 C   0  0  0  0  0  0  0  0  0  0  0  0
  145.0360  159.8650  133.5730 C   0  0  0  0  0  0  0  0  0  0  0  0
  146.3420  160.1170  133.2260 C   0  0  0  0  0  0  0  0  0  0  0  0
  146.9720  158.8740  133.2250 C   0  0  0  0  0  0  0  0  0  0  0  0
  148.4200  158.6980  132.9840 C   0  0  0  0  0  0  0  0  0  0  0  0
  148.8960  157.9990  131.8360 N   0  0  0  0  0  0  0  0  0  0  0  0
  149.2490  159.1250  133.8300 O   0  0  0  0  0  0  0  0  0  0  0  0
  146.0870  157.8900  133.5520 N   0  0  0  0  0  0  0  0  0  0  0  0
  146.3170  156.4720  133.5660 C   0  0  0  0  0  0  0  0  0  0  0  0
  147.0590  155.9450  132.6920 O   0  0  0  0  0  0  0  0  0  0  0  0
  145.7350  155.6860  134.5650 O   0  0  0  0  0  0  0  0  0  0  0  0
  146.1230  154.3390  134.8120 C   0  0  0  0  0  0  0  0  0  0  0  0
  147.1370  154.3220  135.9050 C   0  0  0  0  0  0  0  0  0  0  0  0
  147.9890  155.2470  135.9850 O   0  0  0  0  0  0  0  0  0  0  0  0
  147.0890  153.2920  136.8960 N   0  0  0  0  0  0  0  0  0  0  0  0
  148.2490  152.8990  137.6810 C   0  0  0  0  0  0  0  0  0  0  0  0
  148.4170  153.8460  138.8210 C   0  0  0  0  0  0  0  0  0  0  0  0
  149.5430  154.3610  139.0570 O   0  0  0  0  0  0  0  0  0  0  0  0
  147.3420  154.1270  139.6570 O   0  0  0  0  0  0  0  0  0  0  0  0
  144.9070  158.5130  133.7660 C   0  0  0  0  0  0  0  0  0  0  0  0
  143.6700  157.9440  134.0920 C   0  0  0  0  0  0  0  0  0  0  0  0
  141.0961  158.1790  135.6862 H   0  0  0  0  0  0  0  0  0  0  0  0
  140.4306  158.8719  134.1685 H   0  0  0  0  0  0  0  0  0  0  0  0
  141.1337  157.2190  134.1685 H   0  0  0  0  0  0  0  0  0  0  0  0
  141.8436  160.8611  134.1753 H   0  0  0  0  0  0  0  0  0  0  0  0
  144.0872  161.8207  133.5586 H   0  0  0  0  0  0  0  0  0  0  0  0
  146.7942  161.0934  132.9974 H   0  0  0  0  0  0  0  0  0  0  0  0
  148.4270  157.1270  131.5050 H   0  0  0  0  0  0  0  0  0  0  0  0
  145.2440  153.7509  135.1144 H   0  0  0  0  0  0  0  0  0  0  0  0
  146.5517  153.9008  133.8986 H   0  0  0  0  0  0  0  0  0  0  0  0
  148.1023  151.8800  138.0684 H   0  0  0  0  0  0  0  0  0  0  0  0
  149.1477  152.9224  137.0472 H   0  0  0  0  0  0  0  0  0  0  0  0
  143.5634  156.8556  134.2103 H   0  0  0  0  0  0  0  0  0  0  0  0
  1  2  1  0
  2  3  2  0
  3  4  1  0
  4  5  2  0
  5  6  1  0
  6  7  2  0
  7  8  1  0
  8  9  1  0
  8 10  2  0
  7 11  1  0
 11 12  1  0
 12 13  2  0
 12 14  1  0
 14 15  1  0
 15 16  1  0
 16 17  2  0
 16 18  1  0
 18 19  1  0
 19 20  1  0
 20 21  2  0
 20 22  1  0
 11 23  1  0
 23 24  2  0
 24  2  1  0
 23  5  1  0
  1 25  1  0
  1 26  1  0
  1 27  1  0
  3 28  1  0
  4 29  1  0
  6 30  1  0
  9 31  1  0
 15 32  1  0
 15 33  1  0
 19 34  1  0
 19 35  1  0
 24 36  1  0
M  CHG  3   9  -1  18  -1  22  -1
M  END
>  <UniqueID>  (58) 
58

>  <SMILES>  (58) 
Cc1ccc2cc(C([NH-])=O)n(C(=O)OCC(=O)[N-]CC(=O)[O-])c2c1

>  <Energy>  (58) 
67.47703203642388

>  <Genealogy>  (58) 
Cc1ccc2cc(C([NH-])=O)n(C(=O)OCC(=O)[N-]CC(=O)[O-])c2c1 (protonated)
Cc1ccc2cc(C([NH-])=O)n(C(=O)OCC(=O)[N-]CC(=O)[O-])c2c1 (3D coordinates assigned)
Cc1ccc2cc(C([NH-])=O)n(C(=O)OCC(=O)[N-]CC(=O)[O-])c2c1 (optimized conformer: 67.47703203642388 kcal/mol)

>  <smiles>  (58) 
Cc1ccc2cc(C(N)=O)n(C(=O)OCC(=O)NCC(=O)O)c2c1

>  <score_type>  (58) 
oracle

>  <origin>  (58) 
adg

>  <m_score__min__energy>  (58) 
-6.7400000000000002

>  <m_primary>  (58) 
energy

$$$$
59:0
     RDKit          3D

 42 43  0  0  0  0  0  0  0  0999 V2000
  140.0220  155.5620  133.0500 C   0  0  0  0  0  0  0  0  0  0  0  0
  140.4660  156.9890  133.1880 C   0  0  0  0  0  0  0  0  0  0  0  0
  139.5030  158.0170  133.3330 C   0  0  0  0  0  0  0  0  0  0  0  0
  139.9030  159.3520  133.5110 C   0  0  0  0  0  0  0  0  0  0  0  0
  141.2680  159.6260  133.5450 C   0  0  0  0  0  0  0  0  0  0  0  0
  141.9290  160.8160  133.7470 C   0  0  0  0  0  0  0  0  0  0  0  0
  143.2850  160.4950  133.7210 C   0  0  0  0  0  0  0  0  0  0  0  0
  144.3620  161.5010  133.8300 C   0  0  0  0  0  0  0  0  0  0  0  0
  145.7200  161.1060  134.0010 N   0  0  0  0  0  0  0  0  0  0  0  0
  144.0840  162.7260  133.7270 O   0  0  0  0  0  0  0  0  0  0  0  0
  143.4560  159.1580  133.5150 N   0  0  0  0  0  0  0  0  0  0  0  0
  144.6800  158.4090  133.5430 C   0  0  0  0  0  0  0  0  0  0  0  0
  145.6750  158.8040  132.8770 O   0  0  0  0  0  0  0  0  0  0  0  0
  144.7750  157.2660  134.3460 O   0  0  0  0  0  0  0  0  0  0  0  0
  145.4020  156.0600  133.9160 C   0  0  0  0  0  0  0  0  0  0  0  0
  146.6580  155.8400  134.6950 C   0  0  0  0  0  0  0  0  0  0  0  0
  146.6640  155.0320  135.6630 O   0  0  0  0  0  0  0  0  0  0  0  0
  147.8600  156.5060  134.2970 N   0  0  0  0  0  0  0  0  0  0  0  0
  148.4580  156.3650  132.9740 C   0  0  0  0  0  0  0  0  0  0  0  0
  149.2330  157.6270  132.6070 C   0  0  0  0  0  0  0  0  0  0  0  0
  148.6240  158.2360  131.4950 O   0  0  0  0  0  0  0  0  0  0  0  0
  148.4050  159.8920  131.8430 P   0  0  1  0  0  0  0  0  0  0  0  0
  148.3720  160.1060  133.3390 O   0  0  0  0  0  0  0  0  0  0  0  0
  149.6970  160.7650  131.1910 O   0  0  0  0  0  0  0  0  0  0  0  0
  146.9600  160.4530  131.1630 O   0  0  0  0  0  0  0  0  0  0  0  0
  142.2120  158.6410  133.4050 C   0  0  0  0  0  0  0  0  0  0  0  0
  141.8410  157.3010  133.2410 C   0  0  0  0  0  0  0  0  0  0  0  0
  139.8852  155.1223  134.0490 H   0  0  0  0  0  0  0  0  0  0  0  0
  139.0701  155.5257  132.4999 H   0  0  0  0  0  0  0  0  0  0  0  0
  140.7853  154.9921  132.4999 H   0  0  0  0  0  0  0  0  0  0  0  0
  138.4319  157.7680  133.3060 H   0  0  0  0  0  0  0  0  0  0  0  0
  139.1606  160.1563  133.6202 H   0  0  0  0  0  0  0  0  0  0  0  0
  141.4819  161.8098  133.8971 H   0  0  0  0  0  0  0  0  0  0  0  0
  146.3190  160.8750  133.1780 H   0  0  0  0  0  0  0  0  0  0  0  0
  144.7179  155.2141  134.0787 H   0  0  0  0  0  0  0  0  0  0  0  0
  145.6457  156.1375  132.8461 H   0  0  0  0  0  0  0  0  0  0  0  0
  149.1441  155.5052  132.9755 H   0  0  0  0  0  0  0  0  0  0  0  0
  147.6589  156.2076  132.2346 H   0  0  0  0  0  0  0  0  0  0  0  0
  149.2258  158.3239  133.4581 H   0  0  0  0  0  0  0  0  0  0  0  0
  150.2726  157.3643  132.3616 H   0  0  0  0  0  0  0  0  0  0  0  0
  146.3690  160.6300  131.9400 H   0  0  0  0  0  0  0  0  0  0  0  0
  142.6022  156.5115  133.1556 H   0  0  0  0  0  0  0  0  0  0  0  0
  1  2  1  0
  2  3  2  0
  3  4  1  0
  4  5  2  0
  5  6  1  0
  6  7  2  0
  7  8  1  0
  8  9  1  0
  8 10  2  0
  7 11  1  0
 11 12  1  0
 12 13  2  0
 12 14  1  0
 14 15  1  0
 15 16  1  0
 16 17  2  0
 16 18  1  0
 18 19  1  0
 19 20  1  0
 20 21  1  0
 21 22  1  0
 22 23  2  0
 22 24  1  6
 22 25  1  0
 11 26  1  0
 26 27  2  0
 27  2  1  0
 26  5  1  0
  1 28  1  0
  1 29  1  0
  1 30  1  0
  3 31  1  0
  4 32  1  0
  6 33  1  0
  9 34  1  0
 15 35  1  0
 15 36  1  0
 19 37  1  0
 19 38  1  0
 20 39  1  0
 20 40  1  0
 25 41  1  0
 27 42  1  0
M  CHG  3   9  -1  18  -1  24  -1
M  END
>  <UniqueID>  (59) 
59

>  <SMILES>  (59) 
Cc1ccc2cc(C([NH-])=O)n(C(=O)OCC(=O)[N-]CCO[P@@](=O)([O-])O)c2c1

>  <Energy>  (59) 
68.9997988620493

>  <Genealogy>  (59) 
Cc1ccc2cc(C([NH-])=O)n(C(=O)OCC(=O)[N-]CCOP(=O)([O-])O)c2c1 (protonated)
Cc1ccc2cc(C([NH-])=O)n(C(=O)OCC(=O)[N-]CCO[P@@](=O)([O-])O)c2c1 (chirality)
Cc1ccc2cc(C([NH-])=O)n(C(=O)OCC(=O)[N-]CCO[P@@](=O)([O-])O)c2c1 (3D coordinates assigned)
Cc1ccc2cc(C([NH-])=O)n(C(=O)OCC(=O)[N-]CCO[P@@](=O)([O-])O)c2c1 (optimized conformer: 68.9997988620493 kcal/mol)

>  <smiles>  (59) 
Cc1ccc2cc(C(N)=O)n(C(=O)OCC(=O)NCCOP(=O)(O)O)c2c1

>  <score_type>  (59) 
oracle

>  <origin>  (59) 
adg

>  <m_score__min__energy>  (59) 
-6.9000000000000004

>  <m_primary>  (59) 
energy

$$$$
60:0
     RDKit          3D

 41 42  0  0  0  0  0  0  0  0999 V2000
  138.1220  159.7730  130.7710 C   0  0  0  0  0  0  0  0  0  0  0  0
  139.4290  159.2420  131.3590 C   0  0  0  0  0  0  0  0  0  0  0  0
  139.9610  160.1210  132.4970 C   0  0  0  0  0  0  0  0  0  0  0  0
  141.0080  159.4290  133.2500 N   0  0  0  0  0  0  0  0  0  0  0  0
  140.7220  158.4790  134.2890 C   0  0  0  0  0  0  0  0  0  0  0  0
  139.5290  158.2280  134.6140 O   0  0  0  0  0  0  0  0  0  0  0  0
  141.8380  157.7730  134.9970 C   0  0  0  0  0  0  0  0  0  0  0  0
  143.0690  158.4650  134.7930 O   0  0  0  0  0  0  0  0  0  0  0  0
  143.7820  158.4190  133.5900 C   0  0  0  0  0  0  0  0  0  0  0  0
  143.2840  157.8620  132.5730 O   0  0  0  0  0  0  0  0  0  0  0  0
  145.0960  158.9970  133.5180 N   0  0  0  0  0  0  0  0  0  0  0  0
  145.4330  160.3170  133.5680 C   0  0  0  0  0  0  0  0  0  0  0  0
  144.5180  161.4390  133.8680 C   0  0  0  0  0  0  0  0  0  0  0  0
  143.1060  161.2920  133.7350 N   0  0  0  0  0  0  0  0  0  0  0  0
  144.9850  162.5280  134.2930 O   0  0  0  0  0  0  0  0  0  0  0  0
  146.8040  160.4780  133.3780 C   0  0  0  0  0  0  0  0  0  0  0  0
  147.3040  159.2050  133.2230 C   0  0  0  0  0  0  0  0  0  0  0  0
  148.6070  158.7760  132.9930 C   0  0  0  0  0  0  0  0  0  0  0  0
  148.8310  157.3970  132.8450 C   0  0  0  0  0  0  0  0  0  0  0  0
  147.7560  156.4800  132.9310 C   0  0  0  0  0  0  0  0  0  0  0  0
  148.0050  155.0160  132.7230 C   0  0  0  0  0  0  0  0  0  0  0  0
  146.4430  156.9530  133.1470 C   0  0  0  0  0  0  0  0  0  0  0  0
  146.2530  158.3290  133.3110 C   0  0  0  0  0  0  0  0  0  0  0  0
  137.4388  160.0506  131.5872 H   0  0  0  0  0  0  0  0  0  0  0  0
  138.3313  160.6574  130.1513 H   0  0  0  0  0  0  0  0  0  0  0  0
  137.6552  158.9932  130.1513 H   0  0  0  0  0  0  0  0  0  0  0  0
  139.2544  158.2282  131.7485 H   0  0  0  0  0  0  0  0  0  0  0  0
  140.1812  159.2430  130.5564 H   0  0  0  0  0  0  0  0  0  0  0  0
  140.3759  161.0470  132.0722 H   0  0  0  0  0  0  0  0  0  0  0  0
  139.1302  160.3487  133.1811 H   0  0  0  0  0  0  0  0  0  0  0  0
  142.0000  159.5750  132.9530 H   0  0  0  0  0  0  0  0  0  0  0  0
  141.6176  157.7341  136.0740 H   0  0  0  0  0  0  0  0  0  0  0  0
  141.9293  156.7534  134.5944 H   0  0  0  0  0  0  0  0  0  0  0  0
  142.6240  160.4300  134.0730 H   0  0  0  0  0  0  0  0  0  0  0  0
  147.3674  161.4225  133.3565 H   0  0  0  0  0  0  0  0  0  0  0  0
  149.4371  159.4949  132.9289 H   0  0  0  0  0  0  0  0  0  0  0  0
  149.8503  157.0267  132.6607 H   0  0  0  0  0  0  0  0  0  0  0  0
  148.0900  154.5162  133.6992 H   0  0  0  0  0  0  0  0  0  0  0  0
  147.1684  154.5783  132.1586 H   0  0  0  0  0  0  0  0  0  0  0  0
  148.9393  154.8795  132.1586 H   0  0  0  0  0  0  0  0  0  0  0  0
  145.5918  156.2573  133.1853 H   0  0  0  0  0  0  0  0  0  0  0  0
  1  2  1  0
  2  3  1  0
  3  4  1  0
  4  5  1  0
  5  6  2  0
  5  7  1  0
  7  8  1  0
  8  9  1  0
  9 10  2  0
  9 11  1  0
 11 12  1  0
 12 13  1  0
 13 14  1  0
 13 15  2  0
 12 16  2  0
 16 17  1  0
 17 18  2  0
 18 19  1  0
 19 20  2  0
 20 21  1  0
 20 22  1  0
 22 23  2  0
 23 11  1  0
 23 17  1  0
  1 24  1  0
  1 25  1  0
  1 26  1  0
  2 27  1  0
  2 28  1  0
  3 29  1  0
  3 30  1  0
  4 31  1  0
  7 32  1  0
  7 33  1  0
 14 34  1  0
 16 35  1  0
 18 36  1  0
 19 37  1  0
 21 38  1  0
 21 39  1  0
 21 40  1  0
 22 41  1  0
M  CHG  1  14  -1
M  END
>  <UniqueID>  (60) 
60

>  <SMILES>  (60) 
CCCNC(=O)COC(=O)n1c(C([NH-])=O)cc2ccc(C)cc21

>  <Energy>  (60) 
70.81255237122089

>  <Genealogy>  (60) 
CCCNC(=O)COC(=O)n1c(C([NH-])=O)cc2ccc(C)cc21 (protonated)
CCCNC(=O)COC(=O)n1c(C([NH-])=O)cc2ccc(C)cc21 (3D coordinates assigned)
CCCNC(=O)COC(=O)n1c(C([NH-])=O)cc2ccc(C)cc21 (optimized conformer: 70.81255237122089 kcal/mol)

>  <smiles>  (60) 
CCCNC(=O)COC(=O)n1c(C(N)=O)cc2ccc(C)cc21

>  <score_type>  (60) 
oracle

>  <origin>  (60) 
adg

>  <m_score__min__energy>  (60) 
-7.1600000000000001

>  <m_primary>  (60) 
energy

$$$$
61:0
     RDKit          3D

 39 40  0  0  0  0  0  0  0  0999 V2000
  140.9760  158.8830  132.2790 C   0  0  0  0  0  0  0  0  0  0  0  0
  141.5920  159.0930  133.6010 N   0  0  1  0  0  0  0  0  0  0  0  0
  141.9440  160.5090  133.8520 C   0  0  0  0  0  0  0  0  0  0  0  0
  143.4190  160.7920  133.7490 C   0  0  0  0  0  0  0  0  0  0  0  0
  144.2450  159.8440  133.6930 O   0  0  0  0  0  0  0  0  0  0  0  0
  143.8770  162.1040  133.7270 O   0  0  0  0  0  0  0  0  0  0  0  0
  140.7690  158.5570  134.6620 C   0  0  0  0  0  0  0  0  0  0  0  0
  140.8340  159.0370  135.8290 O   0  0  0  0  0  0  0  0  0  0  0  0
  139.8860  157.5070  134.3800 O   0  0  0  0  0  0  0  0  0  0  0  0
  140.2210  156.1730  134.5300 N   0  0  0  0  0  0  0  0  0  0  0  0
  140.4120  155.2610  133.4430 C   0  0  0  0  0  0  0  0  0  0  0  0
  139.4830  155.0600  132.6160 O   0  0  0  0  0  0  0  0  0  0  0  0
  141.6400  154.5240  133.3320 N   0  0  0  0  0  0  0  0  0  0  0  0
  142.9130  155.0100  133.3880 C   0  0  0  0  0  0  0  0  0  0  0  0
  143.2970  156.4030  133.6990 C   0  0  0  0  0  0  0  0  0  0  0  0
  143.0020  156.9490  134.9840 N   0  0  0  0  0  0  0  0  0  0  0  0
  143.8510  157.1290  132.8340 O   0  0  0  0  0  0  0  0  0  0  0  0
  143.8350  153.9830  133.1900 C   0  0  0  0  0  0  0  0  0  0  0  0
  143.0810  152.8450  133.0100 C   0  0  0  0  0  0  0  0  0  0  0  0
  143.4830  151.5340  132.7760 C   0  0  0  0  0  0  0  0  0  0  0  0
  142.4850  150.5590  132.6110 C   0  0  0  0  0  0  0  0  0  0  0  0
  141.1110  150.9110  132.6580 C   0  0  0  0  0  0  0  0  0  0  0  0
  140.0490  149.8510  132.5140 C   0  0  0  0  0  0  0  0  0  0  0  0
  140.4020  148.9300  131.5430 F   0  0  0  0  0  0  0  0  0  0  0  0
  139.8930  149.1950  133.7210 F   0  0  0  0  0  0  0  0  0  0  0  0
  138.8390  150.4190  132.1510 F   0  0  0  0  0  0  0  0  0  0  0  0
  140.7450  152.2520  132.9220 C   0  0  0  0  0  0  0  0  0  0  0  0
  141.7610  153.1980  133.1000 C   0  0  0  0  0  0  0  0  0  0  0  0
  139.9420  158.5305  132.4081 H   0  0  0  0  0  0  0  0  0  0  0  0
  140.9732  159.8310  131.7210 H   0  0  0  0  0  0  0  0  0  0  0  0
  141.5529  158.1308  131.7210 H   0  0  0  0  0  0  0  0  0  0  0  0
  142.4890  158.5520  133.6030 H   0  0  0  0  0  0  0  0  0  0  0  0
  141.4180  161.1337  133.1151 H   0  0  0  0  0  0  0  0  0  0  0  0
  141.6437  160.7372  134.8853 H   0  0  0  0  0  0  0  0  0  0  0  0
  142.0180  157.1390  135.2750 H   0  0  0  0  0  0  0  0  0  0  0  0
  144.9319  154.0646  133.1798 H   0  0  0  0  0  0  0  0  0  0  0  0
  144.5492  151.2689  132.7218 H   0  0  0  0  0  0  0  0  0  0  0  0
  142.7720  149.5104  132.4434 H   0  0  0  0  0  0  0  0  0  0  0  0
  139.6865  152.5443  132.9859 H   0  0  0  0  0  0  0  0  0  0  0  0
  1  2  1  0
  2  3  1  0
  3  4  1  0
  4  5  2  0
  4  6  1  0
  2  7  1  0
  7  8  2  0
  7  9  1  0
  9 10  1  0
 10 11  1  0
 11 12  2  0
 11 13  1  0
 13 14  1  0
 14 15  1  0
 15 16  1  0
 15 17  2  0
 14 18  2  0
 18 19  1  0
 19 20  2  0
 20 21  1  0
 21 22  2  0
 22 23  1  0
 23 24  1  0
 23 25  1  0
 23 26  1  0
 22 27  1  0
 27 28  2  0
 28 13  1  0
 28 19  1  0
  1 29  1  0
  1 30  1  0
  1 31  1  0
  2 32  1  6
  3 33  1  0
  3 34  1  0
 16 35  1  0
 18 36  1  0
 20 37  1  0
 21 38  1  0
 27 39  1  0
M  CHG  4   2   1   6  -1  10  -1  16  -1
M  END
>  <UniqueID>  (61) 
61

>  <SMILES>  (61) 
C[N@@H+](CC(=O)[O-])C(=O)O[N-]C(=O)n1c(C([NH-])=O)cc2ccc(C(F)(F)F)cc21

>  <Energy>  (61) 
87.49436359404253

>  <Genealogy>  (61) 
C[NH+](CC(=O)[O-])C(=O)O[N-]C(=O)n1c(C([NH-])=O)cc2ccc(C(F)(F)F)cc21 (protonated)
C[N@@H+](CC(=O)[O-])C(=O)O[N-]C(=O)n1c(C([NH-])=O)cc2ccc(C(F)(F)F)cc21 (chirality)
C[N@@H+](CC(=O)[O-])C(=O)O[N-]C(=O)n1c(C([NH-])=O)cc2ccc(C(F)(F)F)cc21 (3D coordinates assigned)
C[N@@H+](CC(=O)[O-])C(=O)O[N-]C(=O)n1c(C([NH-])=O)cc2ccc(C(F)(F)F)cc21 (optimized conformer: 87.49436359404253 kcal/mol)

>  <smiles>  (61) 
CN(CC(=O)O)C(=O)ONC(=O)n1c(C(N)=O)cc2ccc(C(F)(F)F)cc21

>  <score_type>  (61) 
oracle

>  <origin>  (61) 
adg

>  <m_score__min__energy>  (61) 
-5.46

>  <m_primary>  (61) 
energy

$$$$
62:0
     RDKit          3D

 42 43  0  0  0  0  0  0  0  0999 V2000
  149.6020  150.3550  134.7970 C   0  0  0  0  0  0  0  0  0  0  0  0
  149.8570  151.2130  133.7070 O   0  0  0  0  0  0  0  0  0  0  0  0
  149.5500  150.5470  132.5020 C   0  0  0  0  0  0  0  0  0  0  0  0
  148.2210  151.0690  131.9190 C   0  0  0  0  0  0  0  0  0  0  0  0
  147.5540  152.1400  132.7040 N   0  0  2  0  0  0  0  0  0  0  0  0
  146.0860  152.1380  132.5630 C   0  0  0  0  0  0  0  0  0  0  0  0
  148.1270  153.4450  132.4310 C   0  0  0  0  0  0  0  0  0  0  0  0
  149.3270  153.5530  132.0530 O   0  0  0  0  0  0  0  0  0  0  0  0
  147.3300  154.6780  132.6150 C   0  0  0  0  0  0  0  0  0  0  0  0
  146.2770  154.8590  131.9470 O   0  0  0  0  0  0  0  0  0  0  0  0
  147.7500  155.6790  133.5530 N   0  0  0  0  0  0  0  0  0  0  0  0
  147.9410  155.5370  134.8930 C   0  0  0  0  0  0  0  0  0  0  0  0
  147.6970  154.3050  135.6710 C   0  0  0  0  0  0  0  0  0  0  0  0
  148.3570  153.0940  135.3090 N   0  0  0  0  0  0  0  0  0  0  0  0
  146.9190  154.3120  136.6620 O   0  0  0  0  0  0  0  0  0  0  0  0
  148.3690  156.7410  135.4520 C   0  0  0  0  0  0  0  0  0  0  0  0
  148.4370  157.6290  134.4000 C   0  0  0  0  0  0  0  0  0  0  0  0
  148.8250  158.9660  134.3740 C   0  0  0  0  0  0  0  0  0  0  0  0
  148.8270  159.6260  133.1330 C   0  0  0  0  0  0  0  0  0  0  0  0
  148.4440  158.9430  131.9510 C   0  0  0  0  0  0  0  0  0  0  0  0
  148.4980  159.6440  130.6250 C   0  0  0  0  0  0  0  0  0  0  0  0
  150.1900  160.0010  130.2030 Cl  0  0  0  0  0  0  0  0  0  0  0  0
  148.0730  157.5830  132.0150 C   0  0  0  0  0  0  0  0  0  0  0  0
  148.0610  156.9600  133.2660 C   0  0  0  0  0  0  0  0  0  0  0  0
  149.7640  150.9002  135.7385 H   0  0  0  0  0  0  0  0  0  0  0  0
  148.5606  150.0037  134.7513 H   0  0  0  0  0  0  0  0  0  0  0  0
  150.2825  149.4919  134.7513 H   0  0  0  0  0  0  0  0  0  0  0  0
  150.3574  150.7223  131.7758 H   0  0  0  0  0  0  0  0  0  0  0  0
  149.4503  149.4707  132.7061 H   0  0  0  0  0  0  0  0  0  0  0  0
  148.4243  151.4634  130.9125 H   0  0  0  0  0  0  0  0  0  0  0  0
  147.5303  150.2129  131.9291 H   0  0  0  0  0  0  0  0  0  0  0  0
  147.7350  151.9230  133.7130 H   0  0  0  0  0  0  0  0  0  0  0  0
  145.6219  152.1374  133.5603 H   0  0  0  0  0  0  0  0  0  0  0  0
  145.7694  153.0357  132.0118 H   0  0  0  0  0  0  0  0  0  0  0  0
  145.7718  151.2394  132.0118 H   0  0  0  0  0  0  0  0  0  0  0  0
  148.8150  152.9910  134.3760 H   0  0  0  0  0  0  0  0  0  0  0  0
  148.6027  156.9397  136.5083 H   0  0  0  0  0  0  0  0  0  0  0  0
  149.1206  159.4891  135.2954 H   0  0  0  0  0  0  0  0  0  0  0  0
  149.1286  160.6824  133.0783 H   0  0  0  0  0  0  0  0  0  0  0  0
  148.0569  158.9979  129.8517 H   0  0  0  0  0  0  0  0  0  0  0  0
  147.9320  160.5851  130.6874 H   0  0  0  0  0  0  0  0  0  0  0  0
  147.8006  157.0283  131.1050 H   0  0  0  0  0  0  0  0  0  0  0  0
  1  2  1  0
  2  3  1  0
  3  4  1  0
  4  5  1  0
  5  6  1  0
  5  7  1  0
  7  8  2  0
  7  9  1  0
  9 10  2  0
  9 11  1  0
 11 12  1  0
 12 13  1  0
 13 14  1  0
 13 15  2  0
 12 16  2  0
 16 17  1  0
 17 18  2  0
 18 19  1  0
 19 20  2  0
 20 21  1  0
 21 22  1  0
 20 23  1  0
 23 24  2  0
 24 11  1  0
 24 17  1  0
  1 25  1  0
  1 26  1  0
  1 27  1  0
  3 28  1  0
  3 29  1  0
  4 30  1  0
  4 31  1  0
  5 32  1  1
  6 33  1  0
  6 34  1  0
  6 35  1  0
 14 36  1  0
 16 37  1  0
 18 38  1  0
 19 39  1  0
 21 40  1  0
 21 41  1  0
 23 42  1  0
M  CHG  2   5   1  14  -1
M  END
>  <UniqueID>  (62) 
62

>  <SMILES>  (62) 
COCC[N@H+](C)C(=O)C(=O)n1c(C([NH-])=O)cc2ccc(CCl)cc21

>  <Energy>  (62) 
84.29301856962749

>  <Genealogy>  (62) 
COCC[NH+](C)C(=O)C(=O)n1c(C([NH-])=O)cc2ccc(CCl)cc21 (protonated)
COCC[N@H+](C)C(=O)C(=O)n1c(C([NH-])=O)cc2ccc(CCl)cc21 (chirality)
COCC[N@H+](C)C(=O)C(=O)n1c(C([NH-])=O)cc2ccc(CCl)cc21 (3D coordinates assigned)
COCC[N@H+](C)C(=O)C(=O)n1c(C([NH-])=O)cc2ccc(CCl)cc21 (optimized conformer: 84.29301856962749 kcal/mol)

>  <smiles>  (62) 
COCCN(C)C(=O)C(=O)n1c(C(N)=O)cc2ccc(CCl)cc21

>  <score_type>  (62) 
oracle

>  <origin>  (62) 
adg

>  <m_score__min__energy>  (62) 
-5.46

>  <m_primary>  (62) 
energy

$$$$
63:0
     RDKit          3D

 43 44  0  0  0  0  0  0  0  0999 V2000
  140.0750  154.8790  132.9910 C   0  0  0  0  0  0  0  0  0  0  0  0
  140.9950  155.8400  133.6080 N   0  0  0  0  0  0  0  0  0  0  0  0
  140.4560  156.8860  134.4890 C   0  0  0  0  0  0  0  0  0  0  0  0
  139.6770  157.9180  133.6690 C   0  0  0  0  0  0  0  0  0  0  0  0
  140.3200  159.2650  133.7710 C   0  0  0  0  0  0  0  0  0  0  0  0
  140.6270  159.7370  134.8980 O   0  0  0  0  0  0  0  0  0  0  0  0
  140.6270  159.9790  132.6190 O   0  0  0  0  0  0  0  0  0  0  0  0
  142.4200  155.7740  133.3590 C   0  0  0  0  0  0  0  0  0  0  0  0
  143.0730  154.7590  133.7260 O   0  0  0  0  0  0  0  0  0  0  0  0
  143.1810  156.9110  132.7300 C   0  0  0  0  0  0  0  0  0  0  0  0
  143.7880  157.7730  133.7970 C   0  0  0  0  0  0  0  0  0  0  0  0
  143.2460  157.8380  134.9330 O   0  0  0  0  0  0  0  0  0  0  0  0
  145.0160  158.4760  133.5530 N   0  0  0  0  0  0  0  0  0  0  0  0
  145.2060  159.8230  133.4700 C   0  0  0  0  0  0  0  0  0  0  0  0
  144.1790  160.8470  133.7590 C   0  0  0  0  0  0  0  0  0  0  0  0
  142.7960  160.4960  133.8370 N   0  0  0  0  0  0  0  0  0  0  0  0
  144.5140  162.0510  133.9200 O   0  0  0  0  0  0  0  0  0  0  0  0
  146.5320  160.1070  133.1460 C   0  0  0  0  0  0  0  0  0  0  0  0
  147.1510  158.8810  133.0320 C   0  0  0  0  0  0  0  0  0  0  0  0
  148.4670  158.5660  132.7060 C   0  0  0  0  0  0  0  0  0  0  0  0
  148.8190  157.2080  132.6260 C   0  0  0  0  0  0  0  0  0  0  0  0
  147.8570  156.1970  132.8690 C   0  0  0  0  0  0  0  0  0  0  0  0
  148.2480  154.7510  132.7550 C   0  0  0  0  0  0  0  0  0  0  0  0
  149.5720  154.6570  132.3660 F   0  0  0  0  0  0  0  0  0  0  0  0
  148.0840  154.1240  133.9760 F   0  0  0  0  0  0  0  0  0  0  0  0
  146.5300  156.5540  133.1990 C   0  0  0  0  0  0  0  0  0  0  0  0
  146.2130  157.9140  133.2850 C   0  0  0  0  0  0  0  0  0  0  0  0
  139.5432  154.3235  133.7776 H   0  0  0  0  0  0  0  0  0  0  0  0
  139.3471  155.4174  132.3663 H   0  0  0  0  0  0  0  0  0  0  0  0
  140.6446  154.1752  132.3663 H   0  0  0  0  0  0  0  0  0  0  0  0
  139.7836  156.4271  135.2288 H   0  0  0  0  0  0  0  0  0  0  0  0
  141.2897  157.3892  135.0006 H   0  0  0  0  0  0  0  0  0  0  0  0
  139.6602  157.6042  132.6148 H   0  0  0  0  0  0  0  0  0  0  0  0
  138.6519  157.9834  134.0627 H   0  0  0  0  0  0  0  0  0  0  0  0
  143.9793  156.5058  132.0908 H   0  0  0  0  0  0  0  0  0  0  0  0
  142.4907  157.5170  132.1248 H   0  0  0  0  0  0  0  0  0  0  0  0
  142.0760  161.2350  133.9960 H   0  0  0  0  0  0  0  0  0  0  0  0
  142.4840  159.5020  133.7750 H   0  0  0  0  0  0  0  0  0  0  0  0
  146.9874  161.0990  133.0102 H   0  0  0  0  0  0  0  0  0  0  0  0
  149.2087  159.3559  132.5168 H   0  0  0  0  0  0  0  0  0  0  0  0
  149.8518  156.9272  132.3722 H   0  0  0  0  0  0  0  0  0  0  0  0
  147.6082  154.2631  132.0050 H   0  0  0  0  0  0  0  0  0  0  0  0
  145.7670  155.7834  133.3833 H   0  0  0  0  0  0  0  0  0  0  0  0
  1  2  1  0
  2  3  1  0
  3  4  1  0
  4  5  1  0
  5  6  2  0
  5  7  1  0
  2  8  1  0
  8  9  2  0
  8 10  1  0
 10 11  1  0
 11 12  2  0
 11 13  1  0
 13 14  1  0
 14 15  1  0
 15 16  1  0
 15 17  2  0
 14 18  2  0
 18 19  1  0
 19 20  2  0
 20 21  1  0
 21 22  2  0
 22 23  1  0
 23 24  1  0
 23 25  1  0
 22 26  1  0
 26 27  2  0
 27 13  1  0
 27 19  1  0
  1 28  1  0
  1 29  1  0
  1 30  1  0
  3 31  1  0
  3 32  1  0
  4 33  1  0
  4 34  1  0
 10 35  1  0
 10 36  1  0
 16 37  1  0
 16 38  1  0
 18 39  1  0
 20 40  1  0
 21 41  1  0
 23 42  1  0
 26 43  1  0
M  CHG  1   7  -1
M  END
>  <UniqueID>  (63) 
63

>  <SMILES>  (63) 
CN(CCC(=O)[O-])C(=O)CC(=O)n1c(C(N)=O)cc2ccc(C(F)F)cc21

>  <Energy>  (63) 
75.26026222387698

>  <Genealogy>  (63) 
CN(CCC(=O)[O-])C(=O)CC(=O)n1c(C(N)=O)cc2ccc(C(F)F)cc21 (protonated)
CN(CCC(=O)[O-])C(=O)CC(=O)n1c(C(N)=O)cc2ccc(C(F)F)cc21 (3D coordinates assigned)
CN(CCC(=O)[O-])C(=O)CC(=O)n1c(C(N)=O)cc2ccc(C(F)F)cc21 (optimized conformer: 75.26026222387698 kcal/mol)

>  <smiles>  (63) 
CN(CCC(=O)O)C(=O)CC(=O)n1c(C(N)=O)cc2ccc(C(F)F)cc21

>  <score_type>  (63) 
oracle

>  <origin>  (63) 
adg

>  <m_score__min__energy>  (63) 
-6.6799999999999997

>  <m_primary>  (63) 
energy

$$$$
64:0
     RDKit          3D

 39 41  0  0  0  0  0  0  0  0999 V2000
  142.9620  160.3640  133.3390 N   0  0  0  0  0  0  0  0  0  0  0  0
  144.3370  160.5470  133.6620 C   0  0  0  0  0  0  0  0  0  0  0  0
  144.7240  161.6690  134.0880 O   0  0  0  0  0  0  0  0  0  0  0  0
  145.3190  159.4560  133.4820 C   0  0  0  0  0  0  0  0  0  0  0  0
  146.6910  159.6710  133.3630 C   0  0  0  0  0  0  0  0  0  0  0  0
  147.2400  158.4250  133.1690 C   0  0  0  0  0  0  0  0  0  0  0  0
  148.5680  158.0490  133.0090 C   0  0  0  0  0  0  0  0  0  0  0  0
  148.8530  156.6830  132.8530 C   0  0  0  0  0  0  0  0  0  0  0  0
  147.8140  155.7100  132.8740 C   0  0  0  0  0  0  0  0  0  0  0  0
  148.1180  154.3040  132.7090 N   0  0  0  0  0  0  0  0  0  0  0  0
  147.1730  153.2290  132.9780 C   0  0  0  0  0  0  0  0  0  0  0  0
  147.8670  151.9440  132.5470 C   0  0  0  0  0  0  0  0  0  0  0  0
  149.3510  152.2860  132.4590 C   0  0  2  0  0  0  0  0  0  0  0  0
  149.9830  151.9270  133.6390 F   0  0  0  0  0  0  0  0  0  0  0  0
  149.4140  153.7980  132.2790 C   0  0  0  0  0  0  0  0  0  0  0  0
  146.4760  156.1410  133.0600 C   0  0  0  0  0  0  0  0  0  0  0  0
  146.2200  157.5110  133.1770 C   0  0  0  0  0  0  0  0  0  0  0  0
  145.0320  158.1300  133.3640 N   0  0  0  0  0  0  0  0  0  0  0  0
  143.7520  157.4910  133.5080 C   0  0  0  0  0  0  0  0  0  0  0  0
  142.9220  157.5370  132.5590 O   0  0  0  0  0  0  0  0  0  0  0  0
  143.3850  156.7760  134.7750 C   0  0  0  0  0  0  0  0  0  0  0  0
  143.6890  154.9890  134.6180 P   0  0  0  0  0  0  0  0  0  0  0  0
  143.8220  154.6310  133.1560 O   0  0  0  0  0  0  0  0  0  0  0  0
  145.1180  154.5760  135.4250 O   0  0  0  0  0  0  0  0  0  0  0  0
  142.3940  154.1310  135.2860 O   0  0  0  0  0  0  0  0  0  0  0  0
  142.6690  159.7070  132.5810 H   0  0  0  0  0  0  0  0  0  0  0  0
  147.2220  160.6330  133.4135 H   0  0  0  0  0  0  0  0  0  0  0  0
  149.3723  158.7993  133.0047 H   0  0  0  0  0  0  0  0  0  0  0  0
  149.8950  156.3597  132.7124 H   0  0  0  0  0  0  0  0  0  0  0  0
  146.9312  153.1918  134.0505 H   0  0  0  0  0  0  0  0  0  0  0  0
  146.2275  153.3781  132.4360 H   0  0  0  0  0  0  0  0  0  0  0  0
  147.6998  151.1500  133.2897 H   0  0  0  0  0  0  0  0  0  0  0  0
  147.4778  151.5747  131.5867 H   0  0  0  0  0  0  0  0  0  0  0  0
  149.8473  151.7548  131.6334 H   0  0  0  0  0  0  0  0  0  0  0  0
  150.2164  154.2243  132.8991 H   0  0  0  0  0  0  0  0  0  0  0  0
  149.6296  154.0725  131.2358 H   0  0  0  0  0  0  0  0  0  0  0  0
  145.6545  155.4113  133.1113 H   0  0  0  0  0  0  0  0  0  0  0  0
  143.9910  157.1738  135.6024 H   0  0  0  0  0  0  0  0  0  0  0  0
  142.3150  156.9360  134.9735 H   0  0  0  0  0  0  0  0  0  0  0  0
  1  2  1  0
  2  3  2  0
  2  4  1  0
  4  5  2  0
  5  6  1  0
  6  7  2  0
  7  8  1  0
  8  9  2  0
  9 10  1  0
 10 11  1  0
 11 12  1  0
 12 13  1  0
 13 14  1  0
 13 15  1  0
  9 16  1  0
 16 17  2  0
 17 18  1  0
 18 19  1  0
 19 20  2  0
 19 21  1  0
 21 22  1  0
 22 23  2  0
 22 24  1  0
 22 25  1  0
 18  4  1  0
 17  6  1  0
 15 10  1  0
  1 26  1  0
  5 27  1  0
  7 28  1  0
  8 29  1  0
 11 30  1  0
 11 31  1  0
 12 32  1  0
 12 33  1  0
 13 34  1  6
 15 35  1  0
 15 36  1  0
 16 37  1  0
 21 38  1  0
 21 39  1  0
M  CHG  3   1  -1  24  -1  25  -1
M  END
>  <UniqueID>  (64) 
64

>  <SMILES>  (64) 
[NH-]C(=O)c1cc2ccc(N3CC[C@H](F)C3)cc2n1C(=O)CP(=O)([O-])[O-]

>  <Energy>  (64) 
76.4718463997046

>  <Genealogy>  (64) 
[NH-]C(=O)c1cc2ccc(N3CC[C@H](F)C3)cc2n1C(=O)CP(=O)([O-])[O-] (protonated)
[NH-]C(=O)c1cc2ccc(N3CC[C@H](F)C3)cc2n1C(=O)CP(=O)([O-])[O-] (3D coordinates assigned)
[NH-]C(=O)c1cc2ccc(N3CC[C@H](F)C3)cc2n1C(=O)CP(=O)([O-])[O-] (nonaromatic ring conformer: 76.4718463997046 kcal/mol)

>  <smiles>  (64) 
NC(=O)c1cc2ccc(N3CC[C@H](F)C3)cc2n1C(=O)CP(=O)(O)O

>  <score_type>  (64) 
oracle

>  <origin>  (64) 
adg

>  <m_score__min__energy>  (64) 
-6.9400000000000004

>  <m_primary>  (64) 
energy

$$$$
65:0
     RDKit          3D

 37 38  0  0  0  0  0  0  0  0999 V2000
  141.7460  159.3640  132.1250 H   0  0  0  0  0  0  0  0  0  0  0  0
  141.1020  159.9240  132.6310 O   0  0  0  0  0  0  0  0  0  0  0  0
  140.5260  159.0970  133.6050 C   0  0  0  0  0  0  0  0  0  0  0  0
  140.7578  158.0467  133.3746 H   0  0  0  0  0  0  0  0  0  0  0  0
  139.4362  159.2464  133.6073 H   0  0  0  0  0  0  0  0  0  0  0  0
  141.0760  159.4430  134.9650 C   0  0  0  0  0  0  0  0  0  0  0  0
  140.7886  160.4107  135.4019 H   0  0  0  0  0  0  0  0  0  0  0  0
  141.8940  158.6510  135.6820 C   0  0  0  0  0  0  0  0  0  0  0  0
  142.2640  159.0316  136.6454 H   0  0  0  0  0  0  0  0  0  0  0  0
  142.3350  157.2800  135.2520 C   0  0  0  0  0  0  0  0  0  0  0  0
  141.6820  156.9232  134.4418 H   0  0  0  0  0  0  0  0  0  0  0  0
  142.2715  156.5919  136.1078 H   0  0  0  0  0  0  0  0  0  0  0  0
  143.6790  157.3320  134.7880 O   0  0  0  0  0  0  0  0  0  0  0  0
  144.0430  157.9260  133.5780 C   0  0  0  0  0  0  0  0  0  0  0  0
  143.2460  157.9090  132.5990 O   0  0  0  0  0  0  0  0  0  0  0  0
  145.3290  158.5560  133.4480 N   0  0  0  0  0  0  0  0  0  0  0  0
  145.6040  159.8910  133.4670 C   0  0  0  0  0  0  0  0  0  0  0  0
  144.6450  160.9680  133.7860 C   0  0  0  0  0  0  0  0  0  0  0  0
  145.0270  161.9530  134.4720 O   0  0  0  0  0  0  0  0  0  0  0  0
  143.2770  160.8800  133.3860 N   0  0  0  0  0  0  0  0  0  0  0  0
  142.6210  161.6670  133.5880 H   0  0  0  0  0  0  0  0  0  0  0  0
  142.8930  160.0060  132.9640 H   0  0  0  0  0  0  0  0  0  0  0  0
  146.9520  160.1210  133.2060 C   0  0  0  0  0  0  0  0  0  0  0  0
  147.4637  161.0927  133.1435 H   0  0  0  0  0  0  0  0  0  0  0  0
  147.5070  158.8730  133.0430 C   0  0  0  0  0  0  0  0  0  0  0  0
  148.8210  158.5110  132.7600 C   0  0  0  0  0  0  0  0  0  0  0  0
  149.6075  159.2722  132.6501 H   0  0  0  0  0  0  0  0  0  0  0  0
  149.1120  157.1440  132.6190 C   0  0  0  0  0  0  0  0  0  0  0  0
  150.1424  156.8254  132.4027 H   0  0  0  0  0  0  0  0  0  0  0  0
  148.0900  156.1720  132.7530 C   0  0  0  0  0  0  0  0  0  0  0  0
  148.4010  154.7120  132.5860 C   0  0  0  0  0  0  0  0  0  0  0  0
  147.7968  154.3077  131.7605 H   0  0  0  0  0  0  0  0  0  0  0  0
  148.1000  154.0350  133.7540 F   0  0  0  0  0  0  0  0  0  0  0  0
  149.7440  154.5500  132.2960 F   0  0  0  0  0  0  0  0  0  0  0  0
  146.7670  156.5770  133.0330 C   0  0  0  0  0  0  0  0  0  0  0  0
  145.9587  155.8365  133.1242 H   0  0  0  0  0  0  0  0  0  0  0  0
  146.5080  157.9450  133.1920 C   0  0  0  0  0  0  0  0  0  0  0  0
  1  2  1  0
  2  3  1  0
  3  4  1  0
  3  5  1  0
  3  6  1  0
  6  7  1  0
  6  8  2  0
  8  9  1  0
  8 10  1  0
 10 11  1  0
 10 12  1  0
 10 13  1  0
 13 14  1  0
 14 15  2  0
 14 16  1  0
 16 17  1  0
 17 18  1  0
 18 19  2  0
 18 20  1  0
 20 21  1  0
 20 22  1  0
 17 23  2  0
 23 24  1  0
 23 25  1  0
 25 26  2  0
 26 27  1  0
 26 28  1  0
 28 29  1  0
 28 30  2  0
 30 31  1  0
 31 32  1  0
 31 33  1  0
 31 34  1  0
 30 35  1  0
 35 36  1  0
 35 37  2  0
 37 16  1  0
 37 25  1  0
M  END
>  <UniqueID>  (65) 
65

>  <SMILES>  (65) 
NC(=O)c1cc2ccc(C(F)F)cc2n1C(=O)OC/C=C\CO

>  <Energy>  (65) 
71.25690448766422

>  <Genealogy>  (65) 
NC(=O)c1cc2ccc(C(F)F)cc2n1C(=O)OC/C=C\CO (cis-trans isomerization)
NC(=O)c1cc2ccc(C(F)F)cc2n1C(=O)OC/C=C\CO (3D coordinates assigned)
NC(=O)c1cc2ccc(C(F)F)cc2n1C(=O)OC/C=C\CO (optimized conformer: 71.25690448766422 kcal/mol)

>  <smiles>  (65) 
NC(=O)c1cc2ccc(C(F)F)cc2n1C(=O)OC/C=C\CO

>  <score_type>  (65) 
oracle

>  <origin>  (65) 
adg

>  <m_score__min__energy>  (65) 
-6.4199999999999999

>  <m_primary>  (65) 
energy

$$$$
66:0
     RDKit          3D

 45 46  0  0  0  0  0  0  0  0999 V2000
  142.1320  148.8050  132.5740 C   0  0  0  0  0  0  0  0  0  0  0  0
  141.6440  150.2110  132.7580 C   0  0  0  0  0  0  0  0  0  0  0  0
  140.2930  150.5360  132.4760 C   0  0  0  0  0  0  0  0  0  0  0  0
  139.8330  151.8580  132.6080 C   0  0  0  0  0  0  0  0  0  0  0  0
  140.7440  152.8290  133.0150 C   0  0  0  0  0  0  0  0  0  0  0  0
  140.5770  154.1820  133.2090 C   0  0  0  0  0  0  0  0  0  0  0  0
  141.8310  154.6580  133.5920 C   0  0  0  0  0  0  0  0  0  0  0  0
  142.1030  156.0610  133.9640 C   0  0  0  0  0  0  0  0  0  0  0  0
  143.3480  156.6610  133.6150 N   0  0  0  0  0  0  0  0  0  0  0  0
  141.2290  156.7500  134.5540 O   0  0  0  0  0  0  0  0  0  0  0  0
  142.7350  153.6400  133.6220 N   0  0  0  0  0  0  0  0  0  0  0  0
  144.1440  153.7110  133.8880 C   0  0  0  0  0  0  0  0  0  0  0  0
  144.5830  153.1950  134.9550 O   0  0  0  0  0  0  0  0  0  0  0  0
  145.0350  154.4130  132.9820 N   0  0  2  0  0  0  0  0  0  0  0  0
  144.4540  154.4980  131.6290 C   0  0  0  0  0  0  0  0  0  0  0  0
  146.3330  153.7610  132.9250 C   0  0  0  0  0  0  0  0  0  0  0  0
  146.4460  152.6630  132.3090 O   0  0  0  0  0  0  0  0  0  0  0  0
  147.4860  154.2870  133.6300 N   0  0  0  0  0  0  0  0  0  0  0  0
  147.7300  153.8380  135.0050 C   0  0  0  0  0  0  0  0  0  0  0  0
  148.3880  155.2890  133.0380 C   0  0  0  0  0  0  0  0  0  0  0  0
  148.0650  156.6990  133.5470 C   0  0  0  0  0  0  0  0  0  0  0  0
  146.6050  156.8560  133.8380 C   0  0  0  0  0  0  0  0  0  0  0  0
  145.8520  157.4240  133.0030 O   0  0  0  0  0  0  0  0  0  0  0  0
  146.0700  156.3480  135.0150 O   0  0  0  0  0  0  0  0  0  0  0  0
  142.0560  152.5290  133.2770 C   0  0  0  0  0  0  0  0  0  0  0  0
  142.5440  151.2260  133.1470 C   0  0  0  0  0  0  0  0  0  0  0  0
  142.2930  148.3410  133.5583 H   0  0  0  0  0  0  0  0  0  0  0  0
  141.3820  148.2268  132.0144 H   0  0  0  0  0  0  0  0  0  0  0  0
  143.0790  148.8158  132.0144 H   0  0  0  0  0  0  0  0  0  0  0  0
  139.5988  149.7470  132.1511 H   0  0  0  0  0  0  0  0  0  0  0  0
  138.7852  152.1173  132.3962 H   0  0  0  0  0  0  0  0  0  0  0  0
  139.6514  154.7638  133.0877 H   0  0  0  0  0  0  0  0  0  0  0  0
  144.2520  156.2200  133.8920 H   0  0  0  0  0  0  0  0  0  0  0  0
  145.1370  155.3940  133.3160 H   0  0  0  0  0  0  0  0  0  0  0  0
  143.3682  154.6569  131.7055 H   0  0  0  0  0  0  0  0  0  0  0  0
  144.9102  155.3390  131.0862 H   0  0  0  0  0  0  0  0  0  0  0  0
  144.6502  153.5616  131.0862 H   0  0  0  0  0  0  0  0  0  0  0  0
  147.3268  154.5799  135.7100 H   0  0  0  0  0  0  0  0  0  0  0  0
  147.2339  152.8698  135.1681 H   0  0  0  0  0  0  0  0  0  0  0  0
  148.8122  153.7275  135.1681 H   0  0  0  0  0  0  0  0  0  0  0  0
  149.4254  155.0401  133.3061 H   0  0  0  0  0  0  0  0  0  0  0  0
  148.2542  155.2748  131.9463 H   0  0  0  0  0  0  0  0  0  0  0  0
  148.6353  156.8856  134.4689 H   0  0  0  0  0  0  0  0  0  0  0  0
  148.3403  157.4203  132.7635 H   0  0  0  0  0  0  0  0  0  0  0  0
  143.6020  150.9975  133.3428 H   0  0  0  0  0  0  0  0  0  0  0  0
  1  2  1  0
  2  3  2  0
  3  4  1  0
  4  5  2  0
  5  6  1  0
  6  7  2  0
  7  8  1  0
  8  9  1  0
  8 10  2  0
  7 11  1  0
 11 12  1  0
 12 13  2  0
 12 14  1  0
 14 15  1  0
 14 16  1  0
 16 17  2  0
 16 18  1  0
 18 19  1  0
 18 20  1  0
 20 21  1  0
 21 22  1  0
 22 23  2  0
 22 24  1  0
 11 25  1  0
 25 26  2  0
 26  2  1  0
 25  5  1  0
  1 27  1  0
  1 28  1  0
  1 29  1  0
  3 30  1  0
  4 31  1  0
  6 32  1  0
  9 33  1  0
 14 34  1  1
 15 35  1  0
 15 36  1  0
 15 37  1  0
 19 38  1  0
 19 39  1  0
 19 40  1  0
 20 41  1  0
 20 42  1  0
 21 43  1  0
 21 44  1  0
 26 45  1  0
M  CHG  3   9  -1  14   1  24  -1
M  END
>  <UniqueID>  (66) 
66

>  <SMILES>  (66) 
Cc1ccc2cc(C([NH-])=O)n(C(=O)[NH+](C)C(=O)N(C)CCC(=O)[O-])c2c1

>  <Energy>  (66) 
85.41816593658142

>  <Genealogy>  (66) 
Cc1ccc2cc(C([NH-])=O)n(C(=O)[NH+](C)C(=O)N(C)CCC(=O)[O-])c2c1 (protonated)
Cc1ccc2cc(C([NH-])=O)n(C(=O)[NH+](C)C(=O)N(C)CCC(=O)[O-])c2c1 (3D coordinates assigned)
Cc1ccc2cc(C([NH-])=O)n(C(=O)[NH+](C)C(=O)N(C)CCC(=O)[O-])c2c1 (optimized conformer: 85.41816593658142 kcal/mol)

>  <smiles>  (66) 
Cc1ccc2cc(C(N)=O)n(C(=O)N(C)C(=O)N(C)CCC(=O)O)c2c1

>  <score_type>  (66) 
oracle

>  <origin>  (66) 
adg

>  <m_score__min__energy>  (66) 
-6.8300000000000001

>  <m_primary>  (66) 
energy

$$$$
67:0
     RDKit          3D

 40 42  0  0  0  0  0  0  0  0999 V2000
  140.9820  161.1810  133.3620 N   0  0  0  0  0  0  0  0  0  0  0  0
  141.7150  160.4240  134.3230 C   0  0  0  0  0  0  0  0  0  0  0  0
  141.1750  160.1420  135.4250 O   0  0  0  0  0  0  0  0  0  0  0  0
  143.1050  159.9980  134.0570 C   0  0  0  0  0  0  0  0  0  0  0  0
  144.1900  160.8730  134.0310 C   0  0  0  0  0  0  0  0  0  0  0  0
  145.2780  160.0970  133.6940 C   0  0  0  0  0  0  0  0  0  0  0  0
  146.6160  160.4430  133.5420 C   0  0  0  0  0  0  0  0  0  0  0  0
  147.5280  159.4240  133.2160 C   0  0  0  0  0  0  0  0  0  0  0  0
  147.0880  158.0850  133.0400 C   0  0  0  0  0  0  0  0  0  0  0  0
  148.0800  156.9900  132.7420 C   0  0  0  0  0  0  0  0  0  0  0  0
  149.1910  157.5000  132.0930 F   0  0  0  0  0  0  0  0  0  0  0  0
  147.5110  156.0240  131.9310 F   0  0  0  0  0  0  0  0  0  0  0  0
  148.4800  156.4040  133.9290 F   0  0  0  0  0  0  0  0  0  0  0  0
  145.7240  157.7710  133.2340 C   0  0  0  0  0  0  0  0  0  0  0  0
  144.8380  158.8100  133.5360 C   0  0  0  0  0  0  0  0  0  0  0  0
  143.5080  158.7340  133.7500 N   0  0  0  0  0  0  0  0  0  0  0  0
  142.7190  157.5350  133.7300 C   0  0  0  0  0  0  0  0  0  0  0  0
  143.2180  156.4600  134.1600 O   0  0  0  0  0  0  0  0  0  0  0  0
  141.3890  157.5400  133.1770 N   0  0  0  0  0  0  0  0  0  0  0  0
  140.4700  156.4180  133.4200 C   0  0  0  0  0  0  0  0  0  0  0  0
  139.0700  156.9200  133.8190 C   0  0  0  0  0  0  0  0  0  0  0  0
  138.6740  158.2520  133.1510 C   0  0  0  0  0  0  0  0  0  0  0  0
  139.5070  158.5420  131.8910 C   0  0  1  0  0  0  0  0  0  0  0  0
  139.0820  159.7270  131.2650 O   0  0  0  0  0  0  0  0  0  0  0  0
  141.0030  158.6150  132.2510 C   0  0  0  0  0  0  0  0  0  0  0  0
  140.1600  160.7670  132.8670 H   0  0  0  0  0  0  0  0  0  0  0  0
  144.1799  161.9537  134.2360 H   0  0  0  0  0  0  0  0  0  0  0  0
  146.9509  161.4826  133.6729 H   0  0  0  0  0  0  0  0  0  0  0  0
  148.5942  159.6663  133.0959 H   0  0  0  0  0  0  0  0  0  0  0  0
  145.3675  156.7338  133.1495 H   0  0  0  0  0  0  0  0  0  0  0  0
  140.3874  155.8169  132.5025 H   0  0  0  0  0  0  0  0  0  0  0  0
  140.8710  155.8125  134.2462 H   0  0  0  0  0  0  0  0  0  0  0  0
  138.3326  156.1556  133.5328 H   0  0  0  0  0  0  0  0  0  0  0  0
  139.0905  157.0989  134.9042 H   0  0  0  0  0  0  0  0  0  0  0  0
  137.6116  158.2049  132.8698 H   0  0  0  0  0  0  0  0  0  0  0  0
  138.8624  159.0602  133.8730 H   0  0  0  0  0  0  0  0  0  0  0  0
  139.3576  157.7182  131.1776 H   0  0  0  0  0  0  0  0  0  0  0  0
  139.5340  160.4870  131.7170 H   0  0  0  0  0  0  0  0  0  0  0  0
  141.5970  158.5232  131.3297 H   0  0  0  0  0  0  0  0  0  0  0  0
  141.1918  159.5795  132.7450 H   0  0  0  0  0  0  0  0  0  0  0  0
  1  2  1  0
  2  3  2  0
  2  4  1  0
  4  5  2  0
  5  6  1  0
  6  7  2  0
  7  8  1  0
  8  9  2  0
  9 10  1  0
 10 11  1  0
 10 12  1  0
 10 13  1  0
  9 14  1  0
 14 15  2  0
 15 16  1  0
 16 17  1  0
 17 18  2  0
 17 19  1  0
 19 20  1  0
 20 21  1  0
 21 22  1  0
 22 23  1  0
 23 24  1  0
 23 25  1  0
 16  4  1  0
 25 19  1  0
 15  6  1  0
  1 26  1  0
  5 27  1  0
  7 28  1  0
  8 29  1  0
 14 30  1  0
 20 31  1  0
 20 32  1  0
 21 33  1  0
 21 34  1  0
 22 35  1  0
 22 36  1  0
 23 37  1  6
 24 38  1  0
 25 39  1  0
 25 40  1  0
M  CHG  1   1  -1
M  END
>  <UniqueID>  (67) 
67

>  <SMILES>  (67) 
[NH-]C(=O)c1cc2ccc(C(F)(F)F)cc2n1C(=O)N1CCC[C@@H](O)C1

>  <Energy>  (67) 
82.72738302677722

>  <Genealogy>  (67) 
[NH-]C(=O)c1cc2ccc(C(F)(F)F)cc2n1C(=O)N1CCCC(O)C1 (protonated)
[NH-]C(=O)c1cc2ccc(C(F)(F)F)cc2n1C(=O)N1CCC[C@@H](O)C1 (chirality)
[NH-]C(=O)c1cc2ccc(C(F)(F)F)cc2n1C(=O)N1CCC[C@@H](O)C1 (3D coordinates assigned)
[NH-]C(=O)c1cc2ccc(C(F)(F)F)cc2n1C(=O)N1CCC[C@@H](O)C1 (nonaromatic ring conformer: 82.72738302677722 kcal/mol)

>  <smiles>  (67) 
NC(=O)c1cc2ccc(C(F)(F)F)cc2n1C(=O)N1CCCC(O)C1

>  <score_type>  (67) 
oracle

>  <origin>  (67) 
adg

>  <m_score__min__energy>  (67) 
-6.9299999999999997

>  <m_primary>  (67) 
energy

$$$$
68:0
     RDKit          3D

 37 38  0  0  0  0  0  0  0  0999 V2000
  141.6120  157.5000  133.5860 C   0  0  0  0  0  0  0  0  0  0  0  0
  142.2950  158.4580  134.4620 N   0  0  0  0  0  0  0  0  0  0  0  0
  141.6660  158.8260  135.7380 C   0  0  0  0  0  0  0  0  0  0  0  0
  143.5700  159.0350  134.0750 C   0  0  0  0  0  0  0  0  0  0  0  0
  143.7710  160.4440  134.1070 C   0  0  0  0  0  0  0  0  0  0  0  0
  145.0040  161.0090  133.7440 C   0  0  0  0  0  0  0  0  0  0  0  0
  146.0230  160.1540  133.3430 C   0  0  0  0  0  0  0  0  0  0  0  0
  147.3150  160.4350  132.9640 C   0  0  0  0  0  0  0  0  0  0  0  0
  147.8920  159.1980  132.6780 C   0  0  0  0  0  0  0  0  0  0  0  0
  149.2600  159.0440  132.1420 C   0  0  0  0  0  0  0  0  0  0  0  0
  149.7930  157.7560  131.8500 N   0  0  0  0  0  0  0  0  0  0  0  0
  149.9530  160.0680  131.8960 O   0  0  0  0  0  0  0  0  0  0  0  0
  146.9920  158.1940  132.8820 N   0  0  0  0  0  0  0  0  0  0  0  0
  147.2120  156.7800  132.7740 C   0  0  0  0  0  0  0  0  0  0  0  0
  147.0040  156.1930  131.6760 O   0  0  0  0  0  0  0  0  0  0  0  0
  147.6820  156.0640  133.8810 O   0  0  0  0  0  0  0  0  0  0  0  0
  147.6950  154.6410  133.9500 C   0  0  0  0  0  0  0  0  0  0  0  0
  148.5480  154.0480  132.8270 C   0  0  0  0  0  0  0  0  0  0  0  0
  149.5340  154.9610  132.4230 O   0  0  0  0  0  0  0  0  0  0  0  0
  145.8520  158.7980  133.2850 C   0  0  0  0  0  0  0  0  0  0  0  0
  144.6420  158.2030  133.6600 C   0  0  0  0  0  0  0  0  0  0  0  0
  141.0817  156.7562  134.1989 H   0  0  0  0  0  0  0  0  0  0  0  0
  140.8897  158.0341  132.9511 H   0  0  0  0  0  0  0  0  0  0  0  0
  142.3524  156.9913  132.9511 H   0  0  0  0  0  0  0  0  0  0  0  0
  142.2864  158.4631  136.5707 H   0  0  0  0  0  0  0  0  0  0  0  0
  141.5740  159.9204  135.7992 H   0  0  0  0  0  0  0  0  0  0  0  0
  140.6668  158.3700  135.7992 H   0  0  0  0  0  0  0  0  0  0  0  0
  142.9466  161.1009  134.4213 H   0  0  0  0  0  0  0  0  0  0  0  0
  145.1588  162.0976  133.7762 H   0  0  0  0  0  0  0  0  0  0  0  0
  147.7915  161.4244  132.9001 H   0  0  0  0  0  0  0  0  0  0  0  0
  149.1660  156.9480  131.6430 H   0  0  0  0  0  0  0  0  0  0  0  0
  148.1108  154.3312  134.9201 H   0  0  0  0  0  0  0  0  0  0  0  0
  146.6639  154.2742  133.8393 H   0  0  0  0  0  0  0  0  0  0  0  0
  149.0323  153.1285  133.1875 H   0  0  0  0  0  0  0  0  0  0  0  0
  147.8984  153.8234  131.9682 H   0  0  0  0  0  0  0  0  0  0  0  0
  149.0630  155.8070  132.2050 H   0  0  0  0  0  0  0  0  0  0  0  0
  144.5240  157.1097  133.6335 H   0  0  0  0  0  0  0  0  0  0  0  0
  1  2  1  0
  2  3  1  0
  2  4  1  0
  4  5  2  0
  5  6  1  0
  6  7  2  0
  7  8  1  0
  8  9  2  0
  9 10  1  0
 10 11  1  0
 10 12  2  0
  9 13  1  0
 13 14  1  0
 14 15  2  0
 14 16  1  0
 16 17  1  0
 17 18  1  0
 18 19  1  0
 13 20  1  0
 20 21  2  0
 21  4  1  0
 20  7  1  0
  1 22  1  0
  1 23  1  0
  1 24  1  0
  3 25  1  0
  3 26  1  0
  3 27  1  0
  5 28  1  0
  6 29  1  0
  8 30  1  0
 11 31  1  0
 17 32  1  0
 17 33  1  0
 18 34  1  0
 18 35  1  0
 19 36  1  0
 21 37  1  0
M  CHG  1  11  -1
M  END
>  <UniqueID>  (68) 
68

>  <SMILES>  (68) 
CN(C)c1ccc2cc(C([NH-])=O)n(C(=O)OCCO)c2c1

>  <Energy>  (68) 
73.92003072965777

>  <Genealogy>  (68) 
CN(C)c1ccc2cc(C([NH-])=O)n(C(=O)OCCO)c2c1 (protonated)
CN(C)c1ccc2cc(C([NH-])=O)n(C(=O)OCCO)c2c1 (3D coordinates assigned)
CN(C)c1ccc2cc(C([NH-])=O)n(C(=O)OCCO)c2c1 (optimized conformer: 73.92003072965777 kcal/mol)

>  <smiles>  (68) 
CN(C)c1ccc2cc(C(N)=O)n(C(=O)OCCO)c2c1

>  <score_type>  (68) 
oracle

>  <origin>  (68) 
adg

>  <m_score__min__energy>  (68) 
-5.3499999999999996

>  <m_primary>  (68) 
energy

$$$$
69:0
     RDKit          3D

 35 36  0  0  0  0  0  0  0  0999 V2000
  138.6022  158.1469  134.0119 H   0  0  0  0  0  0  0  0  0  0  0  0
  139.4320  157.5820  133.5620 C   0  0  0  0  0  0  0  0  0  0  0  0
  139.2620  156.2680  133.2690 F   0  0  0  0  0  0  0  0  0  0  0  0
  140.5930  158.2040  133.3130 C   0  0  0  0  0  0  0  0  0  0  0  0
  140.7330  159.6550  133.5840 C   0  0  0  0  0  0  0  0  0  0  0  0
  140.5880  160.4920  132.6540 O   0  0  0  0  0  0  0  0  0  0  0  0
  141.0220  160.1140  134.8640 O   0  0  0  0  0  0  0  0  0  0  0  0
  141.7290  157.4550  132.6690 C   0  0  0  0  0  0  0  0  0  0  0  0
  141.4726  157.2254  131.6242 H   0  0  0  0  0  0  0  0  0  0  0  0
  141.9085  156.5167  133.2144 H   0  0  0  0  0  0  0  0  0  0  0  0
  142.9020  158.2600  132.7050 O   0  0  0  0  0  0  0  0  0  0  0  0
  143.8260  158.2060  133.7530 C   0  0  0  0  0  0  0  0  0  0  0  0
  143.5350  157.6140  134.8270 O   0  0  0  0  0  0  0  0  0  0  0  0
  145.1160  158.8200  133.5960 N   0  0  0  0  0  0  0  0  0  0  0  0
  145.4060  160.1520  133.6150 C   0  0  0  0  0  0  0  0  0  0  0  0
  144.4570  161.2320  133.9690 C   0  0  0  0  0  0  0  0  0  0  0  0
  144.8850  162.3180  134.4430 O   0  0  0  0  0  0  0  0  0  0  0  0
  143.0560  161.0750  133.7440 N   0  0  0  0  0  0  0  0  0  0  0  0
  142.4000  161.8560  133.9620 H   0  0  0  0  0  0  0  0  0  0  0  0
  142.6600  160.1720  133.4010 H   0  0  0  0  0  0  0  0  0  0  0  0
  146.7560  160.3630  133.3440 C   0  0  0  0  0  0  0  0  0  0  0  0
  147.2825  161.3273  133.2901 H   0  0  0  0  0  0  0  0  0  0  0  0
  147.2910  159.1090  133.1580 C   0  0  0  0  0  0  0  0  0  0  0  0
  148.5930  158.7300  132.8440 C   0  0  0  0  0  0  0  0  0  0  0  0
  149.3899  159.4797  132.7301 H   0  0  0  0  0  0  0  0  0  0  0  0
  148.8580  157.3600  132.6770 C   0  0  0  0  0  0  0  0  0  0  0  0
  149.8758  157.0286  132.4237 H   0  0  0  0  0  0  0  0  0  0  0  0
  147.8260  156.4020  132.8320 C   0  0  0  0  0  0  0  0  0  0  0  0
  148.1120  154.9490  132.5990 C   0  0  0  0  0  0  0  0  0  0  0  0
  148.2131  154.4355  133.5665 H   0  0  0  0  0  0  0  0  0  0  0  0
  147.2852  154.4992  132.0298 H   0  0  0  0  0  0  0  0  0  0  0  0
  149.0476  154.8461  132.0298 H   0  0  0  0  0  0  0  0  0  0  0  0
  146.5140  156.8240  133.1360 C   0  0  0  0  0  0  0  0  0  0  0  0
  145.6951  156.0957  133.2308 H   0  0  0  0  0  0  0  0  0  0  0  0
  146.2810  158.1940  133.3140 C   0  0  0  0  0  0  0  0  0  0  0  0
  1  2  1  0
  2  3  1  0
  2  4  2  0
  4  5  1  0
  5  6  2  0
  5  7  1  0
  4  8  1  0
  8  9  1  0
  8 10  1  0
  8 11  1  0
 11 12  1  0
 12 13  2  0
 12 14  1  0
 14 15  1  0
 15 16  1  0
 16 17  2  0
 16 18  1  0
 18 19  1  0
 18 20  1  0
 15 21  2  0
 21 22  1  0
 21 23  1  0
 23 24  2  0
 24 25  1  0
 24 26  1  0
 26 27  1  0
 26 28  2  0
 28 29  1  0
 29 30  1  0
 29 31  1  0
 29 32  1  0
 28 33  1  0
 33 34  1  0
 33 35  2  0
 35 14  1  0
 35 23  1  0
M  CHG  1   7  -1
M  END
>  <UniqueID>  (69) 
69

>  <SMILES>  (69) 
Cc1ccc2cc(C(N)=O)n(C(=O)OC/C(=C\F)C(=O)[O-])c2c1

>  <Energy>  (69) 
70.13368585568604

>  <Genealogy>  (69) 
Cc1ccc2cc(C(N)=O)n(C(=O)OC/C(=C\F)C(=O)[O-])c2c1 (protonated)
Cc1ccc2cc(C(N)=O)n(C(=O)OC/C(=C\F)C(=O)[O-])c2c1 (cis-trans isomerization)
Cc1ccc2cc(C(N)=O)n(C(=O)OC/C(=C\F)C(=O)[O-])c2c1 (3D coordinates assigned)
Cc1ccc2cc(C(N)=O)n(C(=O)OC/C(=C\F)C(=O)[O-])c2c1 (optimized conformer: 70.13368585568604 kcal/mol)

>  <smiles>  (69) 
Cc1ccc2cc(C(N)=O)n(C(=O)OC/C(=C\F)C(=O)O)c2c1

>  <score_type>  (69) 
oracle

>  <origin>  (69) 
adg

>  <m_score__min__energy>  (69) 
-6.4000000000000004

>  <m_primary>  (69) 
energy

$$$$
70:0
     RDKit          3D

 39 40  0  0  0  0  0  0  0  0999 V2000
  148.9860  154.2240  132.6040 C   0  0  0  0  0  0  0  0  0  0  0  0
  147.5660  154.5780  133.0380 C   0  0  0  0  0  0  0  0  0  0  0  0
  147.3770  156.0700  133.0700 C   0  0  0  0  0  0  0  0  0  0  0  0
  148.4470  156.9330  132.7250 C   0  0  0  0  0  0  0  0  0  0  0  0
  148.2670  158.3260  132.7110 C   0  0  0  0  0  0  0  0  0  0  0  0
  147.0080  158.8240  133.0320 C   0  0  0  0  0  0  0  0  0  0  0  0
  146.5530  160.1220  133.0840 C   0  0  0  0  0  0  0  0  0  0  0  0
  145.2140  160.0300  133.4580 C   0  0  0  0  0  0  0  0  0  0  0  0
  144.3710  161.2040  133.7630 C   0  0  0  0  0  0  0  0  0  0  0  0
  142.9500  161.1090  133.7340 N   0  0  0  0  0  0  0  0  0  0  0  0
  144.9120  162.2910  134.1000 O   0  0  0  0  0  0  0  0  0  0  0  0
  144.8480  158.7260  133.6060 N   0  0  0  0  0  0  0  0  0  0  0  0
  143.5410  158.1960  133.8870 C   0  0  0  0  0  0  0  0  0  0  0  0
  143.0320  158.3710  135.0260 O   0  0  0  0  0  0  0  0  0  0  0  0
  142.7840  157.4020  132.8460 C   0  0  0  0  0  0  0  0  0  0  0  0
  141.3430  157.2490  133.1360 N   0  0  0  0  0  0  0  0  0  0  0  0
  141.0810  156.4550  134.3430 C   0  0  0  0  0  0  0  0  0  0  0  0
  140.4970  158.7770  133.2030 S   0  0  0  0  0  0  0  0  0  0  0  0
  140.6110  159.4530  134.7900 N   0  0  0  0  0  0  0  0  0  0  0  0
  141.1270  159.7280  132.2250 O   0  0  0  0  0  0  0  0  0  0  0  0
  139.0480  158.5970  132.8430 O   0  0  0  0  0  0  0  0  0  0  0  0
  145.9620  158.0020  133.3620 C   0  0  0  0  0  0  0  0  0  0  0  0
  146.1130  156.6120  133.3870 C   0  0  0  0  0  0  0  0  0  0  0  0
  149.6132  154.0676  133.4940 H   0  0  0  0  0  0  0  0  0  0  0  0
  148.9668  153.3032  132.0026 H   0  0  0  0  0  0  0  0  0  0  0  0
  149.4013  155.0461  132.0026 H   0  0  0  0  0  0  0  0  0  0  0  0
  146.8508  154.1385  132.3271 H   0  0  0  0  0  0  0  0  0  0  0  0
  147.3944  154.1777  134.0481 H   0  0  0  0  0  0  0  0  0  0  0  0
  149.4278  156.5078  132.4657 H   0  0  0  0  0  0  0  0  0  0  0  0
  149.0957  159.0023  132.4542 H   0  0  0  0  0  0  0  0  0  0  0  0
  147.1252  161.0378  132.8747 H   0  0  0  0  0  0  0  0  0  0  0  0
  142.4680  160.2010  133.9220 H   0  0  0  0  0  0  0  0  0  0  0  0
  142.8894  157.9128  131.8775 H   0  0  0  0  0  0  0  0  0  0  0  0
  143.2164  156.3906  132.8413 H   0  0  0  0  0  0  0  0  0  0  0  0
  141.2827  157.0663  135.2350 H   0  0  0  0  0  0  0  0  0  0  0  0
  140.0291  156.1334  134.3491 H   0  0  0  0  0  0  0  0  0  0  0  0
  141.7349  155.5705  134.3491 H   0  0  0  0  0  0  0  0  0  0  0  0
  141.5390  159.9280  134.8550 H   0  0  0  0  0  0  0  0  0  0  0  0
  145.2680  155.9576  133.6471 H   0  0  0  0  0  0  0  0  0  0  0  0
  1  2  1  0
  2  3  1  0
  3  4  2  0
  4  5  1  0
  5  6  2  0
  6  7  1  0
  7  8  2  0
  8  9  1  0
  9 10  1  0
  9 11  2  0
  8 12  1  0
 12 13  1  0
 13 14  2  0
 13 15  1  0
 15 16  1  0
 16 17  1  0
 16 18  1  0
 18 19  1  0
 18 20  2  0
 18 21  2  0
 12 22  1  0
 22 23  2  0
 23  3  1  0
 22  6  1  0
  1 24  1  0
  1 25  1  0
  1 26  1  0
  2 27  1  0
  2 28  1  0
  4 29  1  0
  5 30  1  0
  7 31  1  0
 10 32  1  0
 15 33  1  0
 15 34  1  0
 17 35  1  0
 17 36  1  0
 17 37  1  0
 19 38  1  0
 23 39  1  0
M  CHG  2  10  -1  19  -1
M  END
>  <UniqueID>  (70) 
70

>  <SMILES>  (70) 
CCc1ccc2cc(C([NH-])=O)n(C(=O)CN(C)S([NH-])(=O)=O)c2c1

>  <Energy>  (70) 
73.98312647842758

>  <Genealogy>  (70) 
CCc1ccc2cc(C([NH-])=O)n(C(=O)CN(C)S([NH-])(=O)=O)c2c1 (protonated)
CCc1ccc2cc(C([NH-])=O)n(C(=O)CN(C)S([NH-])(=O)=O)c2c1 (3D coordinates assigned)
CCc1ccc2cc(C([NH-])=O)n(C(=O)CN(C)S([NH-])(=O)=O)c2c1 (optimized conformer: 73.98312647842758 kcal/mol)

>  <smiles>  (70) 
CCc1ccc2cc(C(N)=O)n(C(=O)CN(C)S(N)(=O)=O)c2c1

>  <score_type>  (70) 
oracle

>  <origin>  (70) 
adg

>  <m_score__min__energy>  (70) 
-7.1299999999999999

>  <m_primary>  (70) 
energy

$$$$
71:0
     RDKit          3D

 45 47  0  0  0  0  0  0  0  0999 V2000
  147.9350  155.1720  133.0860 C   0  0  0  0  0  0  0  0  0  0  0  0
  147.5230  156.6070  133.2220 C   0  0  0  0  0  0  0  0  0  0  0  0
  148.5000  157.6320  133.1860 C   0  0  0  0  0  0  0  0  0  0  0  0
  148.1250  158.9820  133.2920 C   0  0  0  0  0  0  0  0  0  0  0  0
  146.7700  159.2750  133.4120 C   0  0  0  0  0  0  0  0  0  0  0  0
  146.1330  160.4880  133.5480 C   0  0  0  0  0  0  0  0  0  0  0  0
  144.7730  160.1860  133.6280 C   0  0  0  0  0  0  0  0  0  0  0  0
  143.7130  161.2100  133.7270 C   0  0  0  0  0  0  0  0  0  0  0  0
  142.3340  160.8480  133.6940 N   0  0  0  0  0  0  0  0  0  0  0  0
  144.0270  162.4280  133.8080 O   0  0  0  0  0  0  0  0  0  0  0  0
  144.5800  158.8400  133.5430 N   0  0  0  0  0  0  0  0  0  0  0  0
  143.3390  158.1250  133.6420 C   0  0  0  0  0  0  0  0  0  0  0  0
  142.7060  157.8200  132.5960 O   0  0  0  0  0  0  0  0  0  0  0  0
  142.7780  157.7440  134.9770 C   0  0  0  0  0  0  0  0  0  0  0  0
  141.6430  158.5400  135.2420 O   0  0  0  0  0  0  0  0  0  0  0  0
  140.4660  157.7520  135.2340 C   0  0  0  0  0  0  0  0  0  0  0  0
  139.4340  158.3150  134.2470 C   0  0  0  0  0  0  0  0  0  0  0  0
  140.0860  158.9330  133.0720 N   0  0  1  0  0  0  0  0  0  0  0  0
  139.7890  158.2640  131.7960 C   0  0  0  0  0  0  0  0  0  0  0  0
  139.0430  159.4740  131.2520 C   0  0  1  0  0  0  0  0  0  0  0  0
  137.6690  159.2360  131.1170 O   0  0  0  0  0  0  0  0  0  0  0  0
  139.3730  160.1250  132.5860 C   0  0  0  0  0  0  0  0  0  0  0  0
  145.8100  158.2960  133.4130 C   0  0  0  0  0  0  0  0  0  0  0  0
  146.1560  156.9430  133.3300 C   0  0  0  0  0  0  0  0  0  0  0  0
  148.0617  154.7306  134.0856 H   0  0  0  0  0  0  0  0  0  0  0  0
  147.1595  154.6184  132.5363 H   0  0  0  0  0  0  0  0  0  0  0  0
  148.8861  155.1141  132.5363 H   0  0  0  0  0  0  0  0  0  0  0  0
  149.5621  157.3687  133.0740 H   0  0  0  0  0  0  0  0  0  0  0  0
  148.8793  159.7825  133.2805 H   0  0  0  0  0  0  0  0  0  0  0  0
  146.5978  161.4843  133.5856 H   0  0  0  0  0  0  0  0  0  0  0  0
  142.0430  159.8530  133.5650 H   0  0  0  0  0  0  0  0  0  0  0  0
  142.4899  156.6825  134.9667 H   0  0  0  0  0  0  0  0  0  0  0  0
  143.5355  157.9046  135.7583 H   0  0  0  0  0  0  0  0  0  0  0  0
  140.7232  156.7242  134.9383 H   0  0  0  0  0  0  0  0  0  0  0  0
  140.0289  157.7646  136.2433 H   0  0  0  0  0  0  0  0  0  0  0  0
  138.7834  157.4966  133.9050 H   0  0  0  0  0  0  0  0  0  0  0  0
  138.8501  159.0905  134.7644 H   0  0  0  0  0  0  0  0  0  0  0  0
  141.1070  159.1230  133.2040 H   0  0  0  0  0  0  0  0  0  0  0  0
  139.1554  157.3716  131.9061 H   0  0  0  0  0  0  0  0  0  0  0  0
  140.6192  157.8428  131.2100 H   0  0  0  0  0  0  0  0  0  0  0  0
  139.2767  159.9324  130.2798 H   0  0  0  0  0  0  0  0  0  0  0  0
  137.5780  158.6070  130.3550 H   0  0  0  0  0  0  0  0  0  0  0  0
  138.4837  160.3771  133.1824 H   0  0  0  0  0  0  0  0  0  0  0  0
  139.8927  161.0945  132.5907 H   0  0  0  0  0  0  0  0  0  0  0  0
  145.3827  156.1609  133.3484 H   0  0  0  0  0  0  0  0  0  0  0  0
  1  2  1  0
  2  3  2  0
  3  4  1  0
  4  5  2  0
  5  6  1  0
  6  7  2  0
  7  8  1  0
  8  9  1  0
  8 10  2  0
  7 11  1  0
 11 12  1  0
 12 13  2  0
 12 14  1  0
 14 15  1  0
 15 16  1  0
 16 17  1  0
 17 18  1  0
 18 19  1  0
 19 20  1  0
 20 21  1  0
 20 22  1  0
 11 23  1  0
 23 24  2  0
 24  2  1  0
 23  5  1  0
 22 18  1  0
  1 25  1  0
  1 26  1  0
  1 27  1  0
  3 28  1  0
  4 29  1  0
  6 30  1  0
  9 31  1  0
 14 32  1  0
 14 33  1  0
 16 34  1  0
 16 35  1  0
 17 36  1  0
 17 37  1  0
 18 38  1  1
 19 39  1  0
 19 40  1  0
 20 41  1  6
 21 42  1  0
 22 43  1  0
 22 44  1  0
 24 45  1  0
M  CHG  2   9  -1  18   1
M  END
>  <UniqueID>  (71) 
71

>  <SMILES>  (71) 
Cc1ccc2cc(C([NH-])=O)n(C(=O)COCC[NH+]3CC(O)C3)c2c1

>  <Energy>  (71) 
156.8910817758731

>  <Genealogy>  (71) 
Cc1ccc2cc(C([NH-])=O)n(C(=O)COCC[NH+]3CC(O)C3)c2c1 (protonated)
Cc1ccc2cc(C([NH-])=O)n(C(=O)COCC[NH+]3CC(O)C3)c2c1 (3D coordinates assigned)
Cc1ccc2cc(C([NH-])=O)n(C(=O)COCC[NH+]3CC(O)C3)c2c1 (nonaromatic ring conformer: 156.8910817758731 kcal/mol)

>  <smiles>  (71) 
Cc1ccc2cc(C(N)=O)n(C(=O)COCCN3CC(O)C3)c2c1

>  <score_type>  (71) 
oracle

>  <origin>  (71) 
adg

>  <m_score__min__energy>  (71) 
-6.4400000000000004

>  <m_primary>  (71) 
energy

$$$$
72:0
     RDKit          3D

 52 53  0  0  0  0  0  0  0  0999 V2000
  141.8290  150.7440  138.9340 C   0  0  0  0  0  0  0  0  0  0  0  0
  140.7030  151.3280  138.0600 C   0  0  0  0  0  0  0  0  0  0  0  0
  140.2570  152.7030  138.5950 C   0  0  0  0  0  0  0  0  0  0  0  0
  139.5030  150.3700  138.0920 C   0  0  0  0  0  0  0  0  0  0  0  0
  141.1270  151.4320  136.6910 O   0  0  0  0  0  0  0  0  0  0  0  0
  141.7640  152.5320  136.1020 C   0  0  0  0  0  0  0  0  0  0  0  0
  142.6660  153.1680  136.7100 O   0  0  0  0  0  0  0  0  0  0  0  0
  141.3750  152.9270  134.7840 N   0  0  0  0  0  0  0  0  0  0  0  0
  141.6340  152.1340  133.5870 C   0  0  0  0  0  0  0  0  0  0  0  0
  142.8480  152.6710  132.8260 C   0  0  0  0  0  0  0  0  0  0  0  0
  143.9320  152.9990  133.7630 N   0  0  0  0  0  0  0  0  0  0  0  0
  144.6500  154.2190  133.3640 C   0  0  0  0  0  0  0  0  0  0  0  0
  144.6780  155.2400  134.4710 C   0  0  0  0  0  0  0  0  0  0  0  0
  144.8750  154.8590  135.6560 O   0  0  0  0  0  0  0  0  0  0  0  0
  144.3970  156.6230  134.2060 N   0  0  0  0  0  0  0  0  0  0  0  0
  143.2460  157.3070  134.4540 C   0  0  0  0  0  0  0  0  0  0  0  0
  141.9750  156.7020  134.9120 C   0  0  0  0  0  0  0  0  0  0  0  0
  141.9070  155.3200  135.2620 N   0  0  0  0  0  0  0  0  0  0  0  0
  140.9430  157.4150  135.0210 O   0  0  0  0  0  0  0  0  0  0  0  0
  143.3950  158.6500  134.1110 C   0  0  0  0  0  0  0  0  0  0  0  0
  144.6820  158.7640  133.6360 C   0  0  0  0  0  0  0  0  0  0  0  0
  145.3630  159.8750  133.1490 C   0  0  0  0  0  0  0  0  0  0  0  0
  146.6940  159.7020  132.7330 C   0  0  0  0  0  0  0  0  0  0  0  0
  147.3260  158.4340  132.8300 C   0  0  0  0  0  0  0  0  0  0  0  0
  148.7440  158.2540  132.3490 C   0  0  0  0  0  0  0  0  0  0  0  0
  149.1830  156.9640  132.5900 F   0  0  0  0  0  0  0  0  0  0  0  0
  148.8310  158.4930  130.9880 F   0  0  0  0  0  0  0  0  0  0  0  0
  149.5660  159.1420  133.0150 F   0  0  0  0  0  0  0  0  0  0  0  0
  146.5900  157.3230  133.3030 C   0  0  0  0  0  0  0  0  0  0  0  0
  145.2630  157.5260  133.7000 C   0  0  0  0  0  0  0  0  0  0  0  0
  141.5747  150.8759  139.9960 H   0  0  0  0  0  0  0  0  0  0  0  0
  141.9447  149.6722  138.7151 H   0  0  0  0  0  0  0  0  0  0  0  0
  142.7717  151.2668  138.7151 H   0  0  0  0  0  0  0  0  0  0  0  0
  140.2620  152.6877  139.6949 H   0  0  0  0  0  0  0  0  0  0  0  0
  140.9497  153.4784  138.2360 H   0  0  0  0  0  0  0  0  0  0  0  0
  139.2410  152.9242  138.2360 H   0  0  0  0  0  0  0  0  0  0  0  0
  139.2334  150.1548  139.1365 H   0  0  0  0  0  0  0  0  0  0  0  0
  138.6477  150.8364  137.5812 H   0  0  0  0  0  0  0  0  0  0  0  0
  139.7684  149.4326  137.5812 H   0  0  0  0  0  0  0  0  0  0  0  0
  141.8258  151.0914  133.8807 H   0  0  0  0  0  0  0  0  0  0  0  0
  140.7539  152.1934  132.9299 H   0  0  0  0  0  0  0  0  0  0  0  0
  143.1995  151.9066  132.1174 H   0  0  0  0  0  0  0  0  0  0  0  0
  142.5561  153.5819  132.2828 H   0  0  0  0  0  0  0  0  0  0  0  0
  143.5290  153.1310  134.7210 H   0  0  0  0  0  0  0  0  0  0  0  0
  145.6839  153.9529  133.0991 H   0  0  0  0  0  0  0  0  0  0  0  0
  144.1225  154.6604  132.5056 H   0  0  0  0  0  0  0  0  0  0  0  0
  141.0140  154.9120  135.6180 H   0  0  0  0  0  0  0  0  0  0  0  0
  142.7280  154.6870  135.1380 H   0  0  0  0  0  0  0  0  0  0  0  0
  142.6440  159.4487  134.2008 H   0  0  0  0  0  0  0  0  0  0  0  0
  144.8745  160.8589  133.0913 H   0  0  0  0  0  0  0  0  0  0  0  0
  147.2527  160.5585  132.3276 H   0  0  0  0  0  0  0  0  0  0  0  0
  147.0485  156.3246  133.3576 H   0  0  0  0  0  0  0  0  0  0  0  0
  1  2  1  0
  2  3  1  0
  2  4  1  0
  2  5  1  0
  5  6  1  0
  6  7  2  0
  6  8  1  0
  8  9  1  0
  9 10  1  0
 10 11  1  0
 11 12  1  0
 12 13  1  0
 13 14  2  0
 13 15  1  0
 15 16  1  0
 16 17  1  0
 17 18  1  0
 17 19  2  0
 16 20  2  0
 20 21  1  0
 21 22  2  0
 22 23  1  0
 23 24  2  0
 24 25  1  0
 25 26  1  0
 25 27  1  0
 25 28  1  0
 24 29  1  0
 29 30  2  0
 30 15  1  0
 30 21  1  0
  1 31  1  0
  1 32  1  0
  1 33  1  0
  3 34  1  0
  3 35  1  0
  3 36  1  0
  4 37  1  0
  4 38  1  0
  4 39  1  0
  9 40  1  0
  9 41  1  0
 10 42  1  0
 10 43  1  0
 11 44  1  0
 12 45  1  0
 12 46  1  0
 18 47  1  0
 18 48  1  0
 20 49  1  0
 22 50  1  0
 23 51  1  0
 29 52  1  0
M  CHG  1   8  -1
M  END
>  <UniqueID>  (72) 
72

>  <SMILES>  (72) 
CC(C)(C)OC(=O)[N-]CCNCC(=O)n1c(C(N)=O)cc2ccc(C(F)(F)F)cc21

>  <Energy>  (72) 
81.5849462159167

>  <Genealogy>  (72) 
CC(C)(C)OC(=O)[N-]CCNCC(=O)n1c(C(N)=O)cc2ccc(C(F)(F)F)cc21 (protonated)
CC(C)(C)OC(=O)[N-]CCNCC(=O)n1c(C(N)=O)cc2ccc(C(F)(F)F)cc21 (3D coordinates assigned)
CC(C)(C)OC(=O)[N-]CCNCC(=O)n1c(C(N)=O)cc2ccc(C(F)(F)F)cc21 (optimized conformer: 81.5849462159167 kcal/mol)

>  <smiles>  (72) 
CC(C)(C)OC(=O)NCCNCC(=O)n1c(C(N)=O)cc2ccc(C(F)(F)F)cc21

>  <score_type>  (72) 
oracle

>  <origin>  (72) 
adg

>  <m_score__min__energy>  (72) 
-6.8899999999999997

>  <m_primary>  (72) 
energy

$$$$
73:0
     RDKit          3D

 37 38  0  0  0  0  0  0  0  0999 V2000
  148.3560  154.0100  132.6680 C   0  0  0  0  0  0  0  0  0  0  0  0
  148.1090  155.1840  132.7950 C   0  0  0  0  0  0  0  0  0  0  0  0
  147.8150  156.5840  132.9460 C   0  0  0  0  0  0  0  0  0  0  0  0
  148.8560  157.5370  132.8570 C   0  0  0  0  0  0  0  0  0  0  0  0
  148.5800  158.9080  132.9910 C   0  0  0  0  0  0  0  0  0  0  0  0
  147.2590  159.2890  133.2170 C   0  0  0  0  0  0  0  0  0  0  0  0
  146.7100  160.5430  133.3540 C   0  0  0  0  0  0  0  0  0  0  0  0
  145.3460  160.3290  133.5450 C   0  0  0  0  0  0  0  0  0  0  0  0
  144.3800  161.4170  133.8130 C   0  0  0  0  0  0  0  0  0  0  0  0
  142.9810  161.1650  133.7090 N   0  0  0  0  0  0  0  0  0  0  0  0
  144.7790  162.5760  134.1000 O   0  0  0  0  0  0  0  0  0  0  0  0
  145.0620  158.9970  133.5220 N   0  0  0  0  0  0  0  0  0  0  0  0
  143.7720  158.3720  133.6030 C   0  0  0  0  0  0  0  0  0  0  0  0
  143.2500  157.8720  132.5690 O   0  0  0  0  0  0  0  0  0  0  0  0
  143.0870  158.3470  134.8220 O   0  0  0  0  0  0  0  0  0  0  0  0
  141.7020  158.0300  134.9270 C   0  0  0  0  0  0  0  0  0  0  0  0
  140.9080  159.1700  134.6050 O   0  0  0  0  0  0  0  0  0  0  0  0
  140.3570  159.3770  133.3370 C   0  0  0  0  0  0  0  0  0  0  0  0
  140.7460  160.3340  132.6140 O   0  0  0  0  0  0  0  0  0  0  0  0
  139.2850  158.4610  132.8440 C   0  0  0  0  0  0  0  0  0  0  0  0
  139.0680  158.6480  131.0410 S   0  0  0  0  0  0  0  0  0  0  0  0
  137.9340  160.0710  131.1400 C   0  0  0  0  0  0  0  0  0  0  0  0
  146.2440  158.3720  133.3220 C   0  0  0  0  0  0  0  0  0  0  0  0
  146.4890  157.0020  133.1760 C   0  0  0  0  0  0  0  0  0  0  0  0
  148.5812  152.9395  132.5522 H   0  0  0  0  0  0  0  0  0  0  0  0
  149.8891  157.2025  132.6816 H   0  0  0  0  0  0  0  0  0  0  0  0
  149.3820  159.6575  132.9197 H   0  0  0  0  0  0  0  0  0  0  0  0
  147.2355  161.5088  133.3201 H   0  0  0  0  0  0  0  0  0  0  0  0
  142.6100  160.1890  133.7160 H   0  0  0  0  0  0  0  0  0  0  0  0
  141.4629  157.2127  134.2306 H   0  0  0  0  0  0  0  0  0  0  0  0
  141.4827  157.7211  135.9597 H   0  0  0  0  0  0  0  0  0  0  0  0
  139.5646  157.4213  133.0695 H   0  0  0  0  0  0  0  0  0  0  0  0
  138.3396  158.7154  133.3455 H   0  0  0  0  0  0  0  0  0  0  0  0
  137.7409  160.3133  132.1955 H   0  0  0  0  0  0  0  0  0  0  0  0
  138.3907  160.9391  130.6421 H   0  0  0  0  0  0  0  0  0  0  0  0
  136.9859  159.8196  130.6421 H   0  0  0  0  0  0  0  0  0  0  0  0
  145.6691  156.2714  133.2390 H   0  0  0  0  0  0  0  0  0  0  0  0
  1  2  3  0
  2  3  1  0
  3  4  2  0
  4  5  1  0
  5  6  2  0
  6  7  1  0
  7  8  2  0
  8  9  1  0
  9 10  1  0
  9 11  2  0
  8 12  1  0
 12 13  1  0
 13 14  2  0
 13 15  1  0
 15 16  1  0
 16 17  1  0
 17 18  1  0
 18 19  2  0
 18 20  1  0
 20 21  1  0
 21 22  1  0
 12 23  1  0
 23 24  2  0
 24  3  1  0
 23  6  1  0
  1 25  1  0
  4 26  1  0
  5 27  1  0
  7 28  1  0
 10 29  1  0
 16 30  1  0
 16 31  1  0
 20 32  1  0
 20 33  1  0
 22 34  1  0
 22 35  1  0
 22 36  1  0
 24 37  1  0
M  CHG  1  10  -1
M  END
>  <UniqueID>  (73) 
73

>  <SMILES>  (73) 
C#Cc1ccc2cc(C([NH-])=O)n(C(=O)OCOC(=O)CSC)c2c1

>  <Energy>  (73) 
65.96036478082752

>  <Genealogy>  (73) 
C#Cc1ccc2cc(C([NH-])=O)n(C(=O)OCOC(=O)CSC)c2c1 (protonated)
C#Cc1ccc2cc(C([NH-])=O)n(C(=O)OCOC(=O)CSC)c2c1 (3D coordinates assigned)
C#Cc1ccc2cc(C([NH-])=O)n(C(=O)OCOC(=O)CSC)c2c1 (optimized conformer: 65.96036478082752 kcal/mol)

>  <smiles>  (73) 
C#Cc1ccc2cc(C(N)=O)n(C(=O)OCOC(=O)CSC)c2c1

>  <score_type>  (73) 
oracle

>  <origin>  (73) 
adg

>  <m_score__min__energy>  (73) 
-6.7000000000000002

>  <m_primary>  (73) 
energy

$$$$
74:0
     RDKit          3D

 50 51  0  0  0  0  0  0  0  0999 V2000
  148.4150  155.7130  132.9090 C   0  0  0  0  0  0  0  0  0  0  0  0
  147.6660  157.0110  132.9720 C   0  0  0  0  0  0  0  0  0  0  0  0
  148.3470  158.2330  132.7510 C   0  0  0  0  0  0  0  0  0  0  0  0
  147.6680  159.4590  132.8530 C   0  0  0  0  0  0  0  0  0  0  0  0
  146.3150  159.4290  133.1820 C   0  0  0  0  0  0  0  0  0  0  0  0
  145.4290  160.4640  133.3750 C   0  0  0  0  0  0  0  0  0  0  0  0
  144.2190  159.8560  133.7040 C   0  0  0  0  0  0  0  0  0  0  0  0
  142.9610  160.6050  133.9140 C   0  0  0  0  0  0  0  0  0  0  0  0
  141.9570  160.0760  134.7760 N   0  0  0  0  0  0  0  0  0  0  0  0
  142.7790  161.7240  133.3690 O   0  0  0  0  0  0  0  0  0  0  0  0
  144.3530  158.5000  133.7210 N   0  0  0  0  0  0  0  0  0  0  0  0
  143.3640  157.5240  134.0820 C   0  0  0  0  0  0  0  0  0  0  0  0
  143.1510  157.2660  135.2980 O   0  0  0  0  0  0  0  0  0  0  0  0
  142.6300  156.8750  133.0820 O   0  0  0  0  0  0  0  0  0  0  0  0
  141.5520  155.9810  133.3530 C   0  0  0  0  0  0  0  0  0  0  0  0
  140.2080  156.7050  133.2240 C   0  0  0  0  0  0  0  0  0  0  0  0
  140.3010  158.0830  133.7590 N   0  0  0  0  0  0  0  0  0  0  0  0
  139.8530  159.0630  132.7520 C   0  0  0  0  0  0  0  0  0  0  0  0
  139.5000  158.2300  134.9960 C   0  0  0  0  0  0  0  0  0  0  0  0
  140.0990  157.4090  136.1430 C   0  0  0  0  0  0  0  0  0  0  0  0
  141.1340  158.2000  136.8520 N   0  0  0  0  0  0  0  0  0  0  0  0
  141.6420  157.4790  138.0310 C   0  0  0  0  0  0  0  0  0  0  0  0
  140.6070  159.5110  137.2650 C   0  0  0  0  0  0  0  0  0  0  0  0
  145.6420  158.2530  133.3970 C   0  0  0  0  0  0  0  0  0  0  0  0
  146.2970  157.0200  133.3200 C   0  0  0  0  0  0  0  0  0  0  0  0
  148.6199  155.3580  133.9298 H   0  0  0  0  0  0  0  0  0  0  0  0
  147.8093  154.9657  132.3755 H   0  0  0  0  0  0  0  0  0  0  0  0
  149.3651  155.8634  132.3755 H   0  0  0  0  0  0  0  0  0  0  0  0
  149.4173  158.2223  132.4972 H   0  0  0  0  0  0  0  0  0  0  0  0
  148.1886  160.4122  132.6785 H   0  0  0  0  0  0  0  0  0  0  0  0
  145.6325  161.5415  133.2881 H   0  0  0  0  0  0  0  0  0  0  0  0
  141.8830  159.0490  134.9480 H   0  0  0  0  0  0  0  0  0  0  0  0
  141.5842  155.1474  132.6360 H   0  0  0  0  0  0  0  0  0  0  0  0
  141.6543  155.6020  134.3806 H   0  0  0  0  0  0  0  0  0  0  0  0
  139.9219  156.7484  132.1628 H   0  0  0  0  0  0  0  0  0  0  0  0
  139.4522  156.1522  133.8013 H   0  0  0  0  0  0  0  0  0  0  0  0
  139.4472  159.9507  133.2594 H   0  0  0  0  0  0  0  0  0  0  0  0
  140.7057  159.3581  132.1228 H   0  0  0  0  0  0  0  0  0  0  0  0
  139.0720  158.6112  132.1228 H   0  0  0  0  0  0  0  0  0  0  0  0
  139.4792  159.2908  135.2864 H   0  0  0  0  0  0  0  0  0  0  0  0
  138.4821  157.8627  134.7984 H   0  0  0  0  0  0  0  0  0  0  0  0
  139.3017  157.1368  136.8502 H   0  0  0  0  0  0  0  0  0  0  0  0
  140.5613  156.4999  135.7309 H   0  0  0  0  0  0  0  0  0  0  0  0
  141.2902  157.9783  138.9458 H   0  0  0  0  0  0  0  0  0  0  0  0
  141.2735  156.4427  138.0140 H   0  0  0  0  0  0  0  0  0  0  0  0
  142.7419  157.4773  138.0140 H   0  0  0  0  0  0  0  0  0  0  0  0
  140.5843  159.5676  138.3633 H   0  0  0  0  0  0  0  0  0  0  0  0
  141.2548  160.3075  136.8701 H   0  0  0  0  0  0  0  0  0  0  0  0
  139.5881  159.6375  136.8701 H   0  0  0  0  0  0  0  0  0  0  0  0
  145.7604  156.0819  133.5250 H   0  0  0  0  0  0  0  0  0  0  0  0
  1  2  1  0
  2  3  2  0
  3  4  1  0
  4  5  2  0
  5  6  1  0
  6  7  2  0
  7  8  1  0
  8  9  1  0
  8 10  2  0
  7 11  1  0
 11 12  1  0
 12 13  2  0
 12 14  1  0
 14 15  1  0
 15 16  1  0
 16 17  1  0
 17 18  1  0
 17 19  1  0
 19 20  1  0
 20 21  1  0
 21 22  1  0
 21 23  1  0
 11 24  1  0
 24 25  2  0
 25  2  1  0
 24  5  1  0
  1 26  1  0
  1 27  1  0
  1 28  1  0
  3 29  1  0
  4 30  1  0
  6 31  1  0
  9 32  1  0
 15 33  1  0
 15 34  1  0
 16 35  1  0
 16 36  1  0
 18 37  1  0
 18 38  1  0
 18 39  1  0
 19 40  1  0
 19 41  1  0
 20 42  1  0
 20 43  1  0
 22 44  1  0
 22 45  1  0
 22 46  1  0
 23 47  1  0
 23 48  1  0
 23 49  1  0
 25 50  1  0
M  CHG  1   9  -1
M  END
>  <UniqueID>  (74) 
74

>  <SMILES>  (74) 
Cc1ccc2cc(C([NH-])=O)n(C(=O)OCCN(C)CCN(C)C)c2c1

>  <Energy>  (74) 
86.55746955841703

>  <Genealogy>  (74) 
Cc1ccc2cc(C([NH-])=O)n(C(=O)OCCN(C)CCN(C)C)c2c1 (protonated)
Cc1ccc2cc(C([NH-])=O)n(C(=O)OCCN(C)CCN(C)C)c2c1 (3D coordinates assigned)
Cc1ccc2cc(C([NH-])=O)n(C(=O)OCCN(C)CCN(C)C)c2c1 (optimized conformer: 86.55746955841703 kcal/mol)

>  <smiles>  (74) 
Cc1ccc2cc(C(N)=O)n(C(=O)OCCN(C)CCN(C)C)c2c1

>  <score_type>  (74) 
oracle

>  <origin>  (74) 
adg

>  <m_score__min__energy>  (74) 
-6.7300000000000004

>  <m_primary>  (74) 
energy

$$$$
75:0
     RDKit          3D

 53 57  0  0  0  0  0  0  0  0999 V2000
  146.3940  160.7980  133.2730 N   0  0  0  0  0  0  0  0  0  0  0  0
  145.1320  160.7660  133.9390 C   0  0  0  0  0  0  0  0  0  0  0  0
  144.7220  161.7970  134.5370 O   0  0  0  0  0  0  0  0  0  0  0  0
  144.2710  159.5670  133.8880 C   0  0  0  0  0  0  0  0  0  0  0  0
  142.8980  159.6000  134.1120 C   0  0  0  0  0  0  0  0  0  0  0  0
  142.4660  158.3110  133.9040 C   0  0  0  0  0  0  0  0  0  0  0  0
  141.1870  157.7720  134.0070 C   0  0  0  0  0  0  0  0  0  0  0  0
  141.0310  156.3980  133.7700 C   0  0  0  0  0  0  0  0  0  0  0  0
  142.1480  155.5850  133.4430 C   0  0  0  0  0  0  0  0  0  0  0  0
  141.9640  154.1330  133.2060 C   0  0  0  0  0  0  0  0  0  0  0  0
  140.6740  153.6150  132.9910 C   0  0  0  0  0  0  0  0  0  0  0  0
  140.4880  152.2510  132.7490 C   0  0  0  0  0  0  0  0  0  0  0  0
  141.5860  151.3820  132.7050 C   0  0  0  0  0  0  0  0  0  0  0  0
  141.3960  149.9410  132.4450 C   0  0  0  0  0  0  0  0  0  0  0  0
  142.1700  149.1130  132.9970 O   0  0  0  0  0  0  0  0  0  0  0  0
  140.3570  149.4670  131.5690 N   0  0  0  0  0  0  0  0  0  0  0  0
  138.9480  149.7390  131.8080 C   0  0  0  0  0  0  0  0  0  0  0  0
  138.1740  148.9030  130.7960 C   0  0  1  0  0  0  0  0  0  0  0  0
  138.4060  149.2330  129.3280 C   0  0  0  0  0  0  0  0  0  0  0  0
  139.1930  148.1120  129.9930 C   0  0  1  0  0  0  0  0  0  0  0  0
  140.5730  148.4830  130.5180 C   0  0  0  0  0  0  0  0  0  0  0  0
  142.8720  151.8900  132.9430 C   0  0  0  0  0  0  0  0  0  0  0  0
  143.0650  153.2540  133.1810 C   0  0  0  0  0  0  0  0  0  0  0  0
  144.3310  153.7190  133.3420 F   0  0  0  0  0  0  0  0  0  0  0  0
  143.4330  156.1700  133.3600 C   0  0  0  0  0  0  0  0  0  0  0  0
  143.5580  157.5480  133.5780 C   0  0  0  0  0  0  0  0  0  0  0  0
  144.6780  158.3070  133.5680 N   0  0  0  0  0  0  0  0  0  0  0  0
  146.0310  157.8490  133.4000 C   0  0  0  0  0  0  0  0  0  0  0  0
  146.2820  156.8820  132.6310 O   0  0  0  0  0  0  0  0  0  0  0  0
  147.0670  158.4760  134.1040 O   0  0  0  0  0  0  0  0  0  0  0  0
  148.4490  158.2630  133.8230 C   0  0  0  0  0  0  0  0  0  0  0  0
  148.8740  159.0590  132.6280 C   0  0  0  0  0  0  0  0  0  0  0  0
  149.3000  158.4730  131.5980 O   0  0  0  0  0  0  0  0  0  0  0  0
  148.7470  160.4440  132.6310 O   0  0  0  0  0  0  0  0  0  0  0  0
  146.6880  160.0240  132.6380 H   0  0  0  0  0  0  0  0  0  0  0  0
  147.0080  161.6390  133.3540 H   0  0  0  0  0  0  0  0  0  0  0  0
  142.2885  160.4709  134.3949 H   0  0  0  0  0  0  0  0  0  0  0  0
  140.3248  158.4039  134.2663 H   0  0  0  0  0  0  0  0  0  0  0  0
  140.0309  155.9451  133.8384 H   0  0  0  0  0  0  0  0  0  0  0  0
  139.8047  154.2887  133.0135 H   0  0  0  0  0  0  0  0  0  0  0  0
  139.4729  151.8573  132.5921 H   0  0  0  0  0  0  0  0  0  0  0  0
  138.6723  149.4485  132.8325 H   0  0  0  0  0  0  0  0  0  0  0  0
  138.7230  150.8101  131.6977 H   0  0  0  0  0  0  0  0  0  0  0  0
  137.2514  148.7333  131.3704 H   0  0  0  0  0  0  0  0  0  0  0  0
  137.6335  148.9955  128.5818 H   0  0  0  0  0  0  0  0  0  0  0  0
  138.6686  150.1416  128.7663 H   0  0  0  0  0  0  0  0  0  0  0  0
  139.3877  147.0725  129.6905 H   0  0  0  0  0  0  0  0  0  0  0  0
  141.0775  147.5945  130.9254 H   0  0  0  0  0  0  0  0  0  0  0  0
  141.2115  148.8852  129.7176 H   0  0  0  0  0  0  0  0  0  0  0  0
  143.7359  151.2091  132.9423 H   0  0  0  0  0  0  0  0  0  0  0  0
  144.3158  155.5557  133.1291 H   0  0  0  0  0  0  0  0  0  0  0  0
  149.0464  158.5715  134.6936 H   0  0  0  0  0  0  0  0  0  0  0  0
  148.6068  157.1951  133.6114 H   0  0  0  0  0  0  0  0  0  0  0  0
  1  2  1  0
  2  3  2  0
  2  4  1  0
  4  5  2  0
  5  6  1  0
  6  7  2  0
  7  8  1  0
  8  9  2  0
  9 10  1  0
 10 11  2  0
 11 12  1  0
 12 13  2  0
 13 14  1  0
 14 15  2  0
 14 16  1  0
 16 17  1  0
 17 18  1  0
 18 19  1  0
 19 20  1  0
 20 21  1  0
 13 22  1  0
 22 23  2  0
 23 24  1  0
  9 25  1  0
 25 26  2  0
 26 27  1  0
 27 28  1  0
 28 29  2  0
 28 30  1  0
 30 31  1  0
 31 32  1  0
 32 33  2  0
 32 34  1  0
 27  4  1  0
 26  6  1  0
 23 10  1  0
 21 16  1  0
 20 18  1  0
  1 35  1  0
  1 36  1  0
  5 37  1  0
  7 38  1  0
  8 39  1  0
 11 40  1  0
 12 41  1  0
 17 42  1  0
 17 43  1  0
 18 44  1  1
 19 45  1  0
 19 46  1  0
 20 47  1  6
 21 48  1  0
 21 49  1  0
 22 50  1  0
 25 51  1  0
 31 52  1  0
 31 53  1  0
M  CHG  1  34  -1
M  END
>  <UniqueID>  (75) 
75

>  <SMILES>  (75) 
NC(=O)c1cc2ccc(-c3ccc(C(=O)N4C[C@H]5C[C@H]5C4)cc3F)cc2n1C(=O)OCC(=O)[O-]

>  <Energy>  (75) 
370.7164975943523

>  <Genealogy>  (75) 
NC(=O)c1cc2ccc(-c3ccc(C(=O)N4CC5CC5C4)cc3F)cc2n1C(=O)OCC(=O)[O-] (protonated)
NC(=O)c1cc2ccc(-c3ccc(C(=O)N4C[C@H]5C[C@H]5C4)cc3F)cc2n1C(=O)OCC(=O)[O-] (chirality)
NC(=O)c1cc2ccc(-c3ccc(C(=O)N4C[C@H]5C[C@H]5C4)cc3F)cc2n1C(=O)OCC(=O)[O-] (3D coordinates assigned)
NC(=O)c1cc2ccc(-c3ccc(C(=O)N4C[C@H]5C[C@H]5C4)cc3F)cc2n1C(=O)OCC(=O)[O-] (nonaromatic ring conformer: 370.7164975943523 kcal/mol)

>  <smiles>  (75) 
NC(=O)c1cc2ccc(-c3ccc(C(=O)N4CC5CC5C4)cc3F)cc2n1C(=O)OCC(=O)O

>  <score_type>  (75) 
oracle

>  <origin>  (75) 
adg

>  <m_score__min__energy>  (75) 
-10.76

>  <m_primary>  (75) 
energy

$$$$
76:0
     RDKit          3D

 46 47  0  0  0  0  0  0  0  0999 V2000
  141.7190  158.6430  137.7390 C   0  0  0  0  0  0  0  0  0  0  0  0
  141.3830  157.3130  137.1960 N   0  0  0  0  0  0  0  0  0  0  0  0
  141.7920  156.2810  138.1610 C   0  0  0  0  0  0  0  0  0  0  0  0
  139.9330  157.2050  136.9130 C   0  0  0  0  0  0  0  0  0  0  0  0
  139.4940  158.2370  135.8630 C   0  0  0  0  0  0  0  0  0  0  0  0
  140.4170  158.2330  134.6830 C   0  0  0  0  0  0  0  0  0  0  0  0
  140.5020  157.2040  133.9560 O   0  0  0  0  0  0  0  0  0  0  0  0
  141.2110  159.3600  134.4270 O   0  0  0  0  0  0  0  0  0  0  0  0
  141.8110  159.6120  133.1600 C   0  0  0  0  0  0  0  0  0  0  0  0
  142.9630  158.7900  132.9890 O   0  0  0  0  0  0  0  0  0  0  0  0
  144.2050  159.1060  133.5560 C   0  0  0  0  0  0  0  0  0  0  0  0
  144.3950  160.2470  134.0590 O   0  0  0  0  0  0  0  0  0  0  0  0
  145.2680  158.1330  133.5520 N   0  0  0  0  0  0  0  0  0  0  0  0
  145.2310  156.8610  134.0440 C   0  0  0  0  0  0  0  0  0  0  0  0
  144.1350  156.2730  134.8430 C   0  0  0  0  0  0  0  0  0  0  0  0
  142.8140  156.8100  134.7680 N   0  0  0  0  0  0  0  0  0  0  0  0
  144.3480  155.2610  135.5600 O   0  0  0  0  0  0  0  0  0  0  0  0
  146.4300  156.1990  133.7870 C   0  0  0  0  0  0  0  0  0  0  0  0
  147.2150  157.1120  133.1230 C   0  0  0  0  0  0  0  0  0  0  0  0
  148.5120  156.9830  132.6380 C   0  0  0  0  0  0  0  0  0  0  0  0
  149.0820  158.0850  131.9830 C   0  0  0  0  0  0  0  0  0  0  0  0
  148.3460  159.2850  131.8050 C   0  0  0  0  0  0  0  0  0  0  0  0
  149.0020  160.4710  131.1400 C   0  0  0  0  0  0  0  0  0  0  0  0
  148.7980  160.4230  129.7720 F   0  0  0  0  0  0  0  0  0  0  0  0
  148.4830  161.6650  131.6150 F   0  0  0  0  0  0  0  0  0  0  0  0
  150.3600  160.4410  131.3920 F   0  0  0  0  0  0  0  0  0  0  0  0
  147.0340  159.3830  132.3270 C   0  0  0  0  0  0  0  0  0  0  0  0
  146.4940  158.2710  132.9920 C   0  0  0  0  0  0  0  0  0  0  0  0
  141.7090  158.6035  138.8382 H   0  0  0  0  0  0  0  0  0  0  0  0
  142.7200  158.9386  137.3918 H   0  0  0  0  0  0  0  0  0  0  0  0
  140.9785  159.3786  137.3918 H   0  0  0  0  0  0  0  0  0  0  0  0
  141.6433  156.6563  139.1842 H   0  0  0  0  0  0  0  0  0  0  0  0
  141.1844  155.3766  138.0102 H   0  0  0  0  0  0  0  0  0  0  0  0
  142.8543  156.0384  138.0102 H   0  0  0  0  0  0  0  0  0  0  0  0
  139.7151  156.1948  136.5363 H   0  0  0  0  0  0  0  0  0  0  0  0
  139.3807  157.3988  137.8444 H   0  0  0  0  0  0  0  0  0  0  0  0
  138.4763  157.9935  135.5238 H   0  0  0  0  0  0  0  0  0  0  0  0
  139.5200  159.2358  136.3231 H   0  0  0  0  0  0  0  0  0  0  0  0
  141.0851  159.3906  132.3637 H   0  0  0  0  0  0  0  0  0  0  0  0
  142.1131  160.6685  133.1095 H   0  0  0  0  0  0  0  0  0  0  0  0
  142.6120  157.6770  134.2220 H   0  0  0  0  0  0  0  0  0  0  0  0
  142.0430  156.3740  135.3140 H   0  0  0  0  0  0  0  0  0  0  0  0
  146.6926  155.1657  134.0578 H   0  0  0  0  0  0  0  0  0  0  0  0
  149.0737  156.0457  132.7641 H   0  0  0  0  0  0  0  0  0  0  0  0
  150.1120  158.0179  131.6028 H   0  0  0  0  0  0  0  0  0  0  0  0
  146.4511  160.3090  132.2142 H   0  0  0  0  0  0  0  0  0  0  0  0
  1  2  1  0
  2  3  1  0
  2  4  1  0
  4  5  1  0
  5  6  1  0
  6  7  2  0
  6  8  1  0
  8  9  1  0
  9 10  1  0
 10 11  1  0
 11 12  2  0
 11 13  1  0
 13 14  1  0
 14 15  1  0
 15 16  1  0
 15 17  2  0
 14 18  2  0
 18 19  1  0
 19 20  2  0
 20 21  1  0
 21 22  2  0
 22 23  1  0
 23 24  1  0
 23 25  1  0
 23 26  1  0
 22 27  1  0
 27 28  2  0
 28 13  1  0
 28 19  1  0
  1 29  1  0
  1 30  1  0
  1 31  1  0
  3 32  1  0
  3 33  1  0
  3 34  1  0
  4 35  1  0
  4 36  1  0
  5 37  1  0
  5 38  1  0
  9 39  1  0
  9 40  1  0
 16 41  1  0
 16 42  1  0
 18 43  1  0
 20 44  1  0
 21 45  1  0
 27 46  1  0
M  END
>  <UniqueID>  (76) 
76

>  <SMILES>  (76) 
CN(C)CCC(=O)OCOC(=O)n1c(C(N)=O)cc2ccc(C(F)(F)F)cc21

>  <Energy>  (76) 
76.60079305870094

>  <Genealogy>  (76) 
CN(C)CCC(=O)OCOC(=O)n1c(C(N)=O)cc2ccc(C(F)(F)F)cc21 (3D coordinates assigned)
CN(C)CCC(=O)OCOC(=O)n1c(C(N)=O)cc2ccc(C(F)(F)F)cc21 (optimized conformer: 76.60079305870094 kcal/mol)

>  <smiles>  (76) 
CN(C)CCC(=O)OCOC(=O)n1c(C(N)=O)cc2ccc(C(F)(F)F)cc21

>  <score_type>  (76) 
oracle

>  <origin>  (76) 
adg

>  <m_score__min__energy>  (76) 
-6.1500000000000004

>  <m_primary>  (76) 
energy

$$$$
77:0
     RDKit          3D

 38 39  0  0  0  0  0  0  0  0999 V2000
  149.7370  157.9280  131.8720 C   0  0  0  0  0  0  0  0  0  0  0  0
  148.9090  157.8640  133.0720 N   0  0  0  0  0  0  0  0  0  0  0  0
  147.7340  158.6720  133.2720 C   0  0  0  0  0  0  0  0  0  0  0  0
  147.8840  160.0610  133.5120 C   0  0  0  0  0  0  0  0  0  0  0  0
  146.7620  160.8860  133.7040 C   0  0  0  0  0  0  0  0  0  0  0  0
  145.5040  160.2950  133.6600 C   0  0  0  0  0  0  0  0  0  0  0  0
  144.2530  160.8570  133.7880 C   0  0  0  0  0  0  0  0  0  0  0  0
  143.3560  159.8000  133.6380 C   0  0  0  0  0  0  0  0  0  0  0  0
  141.8880  159.9430  133.7350 C   0  0  0  0  0  0  0  0  0  0  0  0
  141.0580  159.4850  132.6700 N   0  0  0  0  0  0  0  0  0  0  0  0
  141.3590  160.4790  134.7440 O   0  0  0  0  0  0  0  0  0  0  0  0
  144.0280  158.6340  133.4340 N   0  0  0  0  0  0  0  0  0  0  0  0
  143.4680  157.3350  133.1850 C   0  0  0  0  0  0  0  0  0  0  0  0
  142.7690  157.1610  132.1520 O   0  0  0  0  0  0  0  0  0  0  0  0
  143.7270  156.2190  134.1290 C   0  0  0  0  0  0  0  0  0  0  0  0
  142.8010  155.8880  134.9200 O   0  0  0  0  0  0  0  0  0  0  0  0
  144.9850  155.5060  134.1790 N   0  0  0  0  0  0  0  0  0  0  0  0
  145.5690  154.8940  132.9800 C   0  0  0  0  0  0  0  0  0  0  0  0
  145.6160  155.2450  135.4800 C   0  0  0  0  0  0  0  0  0  0  0  0
  147.0630  154.9160  135.2980 C   0  0  0  0  0  0  0  0  0  0  0  0
  147.8400  155.7450  134.7570 O   0  0  0  0  0  0  0  0  0  0  0  0
  147.5640  153.7070  135.7640 O   0  0  0  0  0  0  0  0  0  0  0  0
  145.3390  158.9520  133.4440 C   0  0  0  0  0  0  0  0  0  0  0  0
  146.4340  158.1100  133.2300 C   0  0  0  0  0  0  0  0  0  0  0  0
  150.7953  158.0098  132.1607 H   0  0  0  0  0  0  0  0  0  0  0  0
  149.5891  157.0157  131.2754 H   0  0  0  0  0  0  0  0  0  0  0  0
  149.4507  158.8067  131.2754 H   0  0  0  0  0  0  0  0  0  0  0  0
  149.1890  157.1880  133.8190 H   0  0  0  0  0  0  0  0  0  0  0  0
  148.8922  160.4994  133.5485 H   0  0  0  0  0  0  0  0  0  0  0  0
  146.8756  161.9653  133.8834 H   0  0  0  0  0  0  0  0  0  0  0  0
  144.0126  161.9149  133.9699 H   0  0  0  0  0  0  0  0  0  0  0  0
  141.4540  158.9160  131.8900 H   0  0  0  0  0  0  0  0  0  0  0  0
  146.2999  154.1280  133.2783 H   0  0  0  0  0  0  0  0  0  0  0  0
  144.7726  154.4276  132.3815 H   0  0  0  0  0  0  0  0  0  0  0  0
  146.0722  155.6677  132.3815 H   0  0  0  0  0  0  0  0  0  0  0  0
  145.5241  156.1393  136.1138 H   0  0  0  0  0  0  0  0  0  0  0  0
  145.1122  154.3915  135.9573 H   0  0  0  0  0  0  0  0  0  0  0  0
  146.2900  157.0373  133.0338 H   0  0  0  0  0  0  0  0  0  0  0  0
  1  2  1  0
  2  3  1  0
  3  4  2  0
  4  5  1  0
  5  6  2  0
  6  7  1  0
  7  8  2  0
  8  9  1  0
  9 10  1  0
  9 11  2  0
  8 12  1  0
 12 13  1  0
 13 14  2  0
 13 15  1  0
 15 16  2  0
 15 17  1  0
 17 18  1  0
 17 19  1  0
 19 20  1  0
 20 21  2  0
 20 22  1  0
 12 23  1  0
 23 24  2  0
 24  3  1  0
 23  6  1  0
  1 25  1  0
  1 26  1  0
  1 27  1  0
  2 28  1  0
  4 29  1  0
  5 30  1  0
  7 31  1  0
 10 32  1  0
 18 33  1  0
 18 34  1  0
 18 35  1  0
 19 36  1  0
 19 37  1  0
 24 38  1  0
M  CHG  2  10  -1  22  -1
M  END
>  <UniqueID>  (77) 
77

>  <SMILES>  (77) 
CNc1ccc2cc(C([NH-])=O)n(C(=O)C(=O)N(C)CC(=O)[O-])c2c1

>  <Energy>  (77) 
76.07162634879097

>  <Genealogy>  (77) 
CNc1ccc2cc(C([NH-])=O)n(C(=O)C(=O)N(C)CC(=O)[O-])c2c1 (protonated)
CNc1ccc2cc(C([NH-])=O)n(C(=O)C(=O)N(C)CC(=O)[O-])c2c1 (3D coordinates assigned)
CNc1ccc2cc(C([NH-])=O)n(C(=O)C(=O)N(C)CC(=O)[O-])c2c1 (optimized conformer: 76.07162634879097 kcal/mol)

>  <smiles>  (77) 
CNc1ccc2cc(C(N)=O)n(C(=O)C(=O)N(C)CC(=O)O)c2c1

>  <score_type>  (77) 
oracle

>  <origin>  (77) 
adg

>  <m_score__min__energy>  (77) 
-6.2300000000000004

>  <m_primary>  (77) 
energy

$$$$
78:0
     RDKit          3D

 36 37  0  0  0  0  0  0  0  0999 V2000
  148.8530  157.2930  133.2690 N   0  0  0  0  0  0  0  0  0  0  0  0
  148.3150  158.5960  133.0500 C   0  0  0  0  0  0  0  0  0  0  0  0
  149.0910  159.5480  132.7740 O   0  0  0  0  0  0  0  0  0  0  0  0
  146.8730  158.8560  133.2110 C   0  0  0  0  0  0  0  0  0  0  0  0
  146.3400  160.1320  133.3670 C   0  0  0  0  0  0  0  0  0  0  0  0
  144.9920  159.9390  133.5570 C   0  0  0  0  0  0  0  0  0  0  0  0
  143.9760  160.8700  133.7560 C   0  0  0  0  0  0  0  0  0  0  0  0
  142.6630  160.3950  133.8880 C   0  0  0  0  0  0  0  0  0  0  0  0
  142.3830  159.0070  133.7990 C   0  0  0  0  0  0  0  0  0  0  0  0
  140.9740  158.5020  133.9600 C   0  0  2  0  0  0  0  0  0  0  0  0
  140.0700  159.4080  133.4320 F   0  0  0  0  0  0  0  0  0  0  0  0
  140.5990  158.2280  135.7190 P   0  0  0  0  0  0  0  0  0  0  0  0
  139.1020  158.2380  135.9340 O   0  0  0  0  0  0  0  0  0  0  0  0
  141.3090  159.4510  136.6470 O   0  0  0  0  0  0  0  0  0  0  0  0
  141.2230  156.7300  136.1960 O   0  0  0  0  0  0  0  0  0  0  0  0
  143.4420  158.0910  133.6090 C   0  0  0  0  0  0  0  0  0  0  0  0
  144.7470  158.5900  133.5040 C   0  0  0  0  0  0  0  0  0  0  0  0
  145.8970  157.9080  133.2900 N   0  0  0  0  0  0  0  0  0  0  0  0
  146.0330  156.4970  133.0470 C   0  0  0  0  0  0  0  0  0  0  0  0
  146.7940  156.0860  132.1290 O   0  0  0  0  0  0  0  0  0  0  0  0
  145.3420  155.5810  133.8510 O   0  0  0  0  0  0  0  0  0  0  0  0
  145.6060  155.4010  135.2430 C   0  0  0  0  0  0  0  0  0  0  0  0
  147.0470  154.9500  135.4860 C   0  0  0  0  0  0  0  0  0  0  0  0
  147.6470  154.5730  134.2760 O   0  0  0  0  0  0  0  0  0  0  0  0
  149.8700  157.1110  133.1190 H   0  0  0  0  0  0  0  0  0  0  0  0
  148.2590  156.5280  133.6610 H   0  0  0  0  0  0  0  0  0  0  0  0
  146.8810  161.0895  133.3434 H   0  0  0  0  0  0  0  0  0  0  0  0
  144.1966  161.9464  133.8081 H   0  0  0  0  0  0  0  0  0  0  0  0
  141.8419  161.1059  134.0623 H   0  0  0  0  0  0  0  0  0  0  0  0
  140.8867  157.5494  133.4169 H   0  0  0  0  0  0  0  0  0  0  0  0
  143.2462  157.0105  133.5450 H   0  0  0  0  0  0  0  0  0  0  0  0
  145.4369  156.3543  135.7652 H   0  0  0  0  0  0  0  0  0  0  0  0
  144.9310  154.6207  135.6244 H   0  0  0  0  0  0  0  0  0  0  0  0
  147.6169  155.7787  135.9314 H   0  0  0  0  0  0  0  0  0  0  0  0
  147.0428  154.0874  136.1686 H   0  0  0  0  0  0  0  0  0  0  0  0
  146.9250  154.5160  133.5980 H   0  0  0  0  0  0  0  0  0  0  0  0
  1  2  1  0
  2  3  2  0
  2  4  1  0
  4  5  2  0
  5  6  1  0
  6  7  2  0
  7  8  1  0
  8  9  2  0
  9 10  1  0
 10 11  1  0
 10 12  1  0
 12 13  2  0
 12 14  1  0
 12 15  1  0
  9 16  1  0
 16 17  2  0
 17 18  1  0
 18 19  1  0
 19 20  2  0
 19 21  1  0
 21 22  1  0
 22 23  1  0
 23 24  1  0
 18  4  1  0
 17  6  1  0
  1 25  1  0
  1 26  1  0
  5 27  1  0
  7 28  1  0
  8 29  1  0
 10 30  1  6
 16 31  1  0
 22 32  1  0
 22 33  1  0
 23 34  1  0
 23 35  1  0
 24 36  1  0
M  CHG  2  14  -1  15  -1
M  END
>  <UniqueID>  (78) 
78

>  <SMILES>  (78) 
NC(=O)c1cc2ccc([C@H](F)P(=O)([O-])[O-])cc2n1C(=O)OCCO

>  <Energy>  (78) 
68.19725029026395

>  <Genealogy>  (78) 
NC(=O)c1cc2ccc(C(F)P(=O)([O-])[O-])cc2n1C(=O)OCCO (protonated)
NC(=O)c1cc2ccc([C@H](F)P(=O)([O-])[O-])cc2n1C(=O)OCCO (chirality)
NC(=O)c1cc2ccc([C@H](F)P(=O)([O-])[O-])cc2n1C(=O)OCCO (3D coordinates assigned)
NC(=O)c1cc2ccc([C@H](F)P(=O)([O-])[O-])cc2n1C(=O)OCCO (optimized conformer: 68.19725029026395 kcal/mol)

>  <smiles>  (78) 
NC(=O)c1cc2ccc(C(F)P(=O)(O)O)cc2n1C(=O)OCCO

>  <score_type>  (78) 
oracle

>  <origin>  (78) 
adg

>  <m_score__min__energy>  (78) 
-5.9000000000000004

>  <m_primary>  (78) 
energy

$$$$
79:0
     RDKit          3D

 42 43  0  0  0  0  0  0  0  0999 V2000
  141.8050  158.6010  135.8870 C   0  0  0  0  0  0  0  0  0  0  0  0
  142.3210  158.3120  134.5390 N   0  0  0  0  0  0  0  0  0  0  0  0
  141.5210  157.4450  133.6490 C   0  0  0  0  0  0  0  0  0  0  0  0
  140.4110  158.2360  132.9430 C   0  0  0  0  0  0  0  0  0  0  0  0
  140.9550  159.0120  131.8300 N   0  0  0  0  0  0  0  0  0  0  0  0
  143.5840  158.8920  134.1070 C   0  0  0  0  0  0  0  0  0  0  0  0
  143.7820  160.3050  134.1380 C   0  0  0  0  0  0  0  0  0  0  0  0
  144.9990  160.8790  133.7360 C   0  0  0  0  0  0  0  0  0  0  0  0
  146.0100  160.0320  133.3030 C   0  0  0  0  0  0  0  0  0  0  0  0
  147.2960  160.3180  132.9020 C   0  0  0  0  0  0  0  0  0  0  0  0
  147.8760  159.0840  132.6150 C   0  0  0  0  0  0  0  0  0  0  0  0
  149.2520  158.9260  132.0970 C   0  0  0  0  0  0  0  0  0  0  0  0
  149.7730  157.6200  131.8570 N   0  0  0  0  0  0  0  0  0  0  0  0
  149.9830  159.9310  131.8890 O   0  0  0  0  0  0  0  0  0  0  0  0
  146.9820  158.0780  132.8260 N   0  0  0  0  0  0  0  0  0  0  0  0
  147.2110  156.6630  132.7330 C   0  0  0  0  0  0  0  0  0  0  0  0
  147.0120  156.0680  131.6400 O   0  0  0  0  0  0  0  0  0  0  0  0
  147.6350  155.9530  133.8640 O   0  0  0  0  0  0  0  0  0  0  0  0
  147.6050  154.5280  133.9600 C   0  0  0  0  0  0  0  0  0  0  0  0
  148.5900  153.8920  132.9780 C   0  0  0  0  0  0  0  0  0  0  0  0
  149.5500  154.8260  132.5550 O   0  0  0  0  0  0  0  0  0  0  0  0
  145.8460  158.6760  133.2470 C   0  0  0  0  0  0  0  0  0  0  0  0
  144.6480  158.0720  133.6470 C   0  0  0  0  0  0  0  0  0  0  0  0
  142.5051  158.2089  136.6394 H   0  0  0  0  0  0  0  0  0  0  0  0
  141.7010  159.6886  136.0144 H   0  0  0  0  0  0  0  0  0  0  0  0
  140.8233  158.1214  136.0144 H   0  0  0  0  0  0  0  0  0  0  0  0
  142.1835  157.0034  132.8900 H   0  0  0  0  0  0  0  0  0  0  0  0
  141.0507  156.6616  134.2615 H   0  0  0  0  0  0  0  0  0  0  0  0
  139.6564  157.5340  132.5585 H   0  0  0  0  0  0  0  0  0  0  0  0
  139.9560  158.9282  133.6667 H   0  0  0  0  0  0  0  0  0  0  0  0
  141.7580  159.5740  132.1970 H   0  0  0  0  0  0  0  0  0  0  0  0
  141.3540  158.3480  131.1260 H   0  0  0  0  0  0  0  0  0  0  0  0
  142.9660  160.9568  134.4833 H   0  0  0  0  0  0  0  0  0  0  0  0
  145.1469  161.9687  133.7634 H   0  0  0  0  0  0  0  0  0  0  0  0
  147.7655  161.3097  132.8247 H   0  0  0  0  0  0  0  0  0  0  0  0
  149.1350  156.8010  131.7430 H   0  0  0  0  0  0  0  0  0  0  0  0
  147.8752  154.2306  134.9840 H   0  0  0  0  0  0  0  0  0  0  0  0
  146.5907  154.1813  133.7132 H   0  0  0  0  0  0  0  0  0  0  0  0
  149.0989  153.0512  133.4721 H   0  0  0  0  0  0  0  0  0  0  0  0
  148.0312  153.5397  132.0985 H   0  0  0  0  0  0  0  0  0  0  0  0
  149.0530  155.6280  132.2360 H   0  0  0  0  0  0  0  0  0  0  0  0
  144.5328  156.9788  133.6056 H   0  0  0  0  0  0  0  0  0  0  0  0
  1  2  1  0
  2  3  1  0
  3  4  1  0
  4  5  1  0
  2  6  1  0
  6  7  2  0
  7  8  1  0
  8  9  2  0
  9 10  1  0
 10 11  2  0
 11 12  1  0
 12 13  1  0
 12 14  2  0
 11 15  1  0
 15 16  1  0
 16 17  2  0
 16 18  1  0
 18 19  1  0
 19 20  1  0
 20 21  1  0
 15 22  1  0
 22 23  2  0
 23  6  1  0
 22  9  1  0
  1 24  1  0
  1 25  1  0
  1 26  1  0
  3 27  1  0
  3 28  1  0
  4 29  1  0
  4 30  1  0
  5 31  1  0
  5 32  1  0
  7 33  1  0
  8 34  1  0
 10 35  1  0
 13 36  1  0
 19 37  1  0
 19 38  1  0
 20 39  1  0
 20 40  1  0
 21 41  1  0
 23 42  1  0
M  CHG  1  13  -1
M  END
>  <UniqueID>  (79) 
79

>  <SMILES>  (79) 
CN(CCN)c1ccc2cc(C([NH-])=O)n(C(=O)OCCO)c2c1

>  <Energy>  (79) 
76.51851529364106

>  <Genealogy>  (79) 
CN(CCN)c1ccc2cc(C([NH-])=O)n(C(=O)OCCO)c2c1 (protonated)
CN(CCN)c1ccc2cc(C([NH-])=O)n(C(=O)OCCO)c2c1 (3D coordinates assigned)
CN(CCN)c1ccc2cc(C([NH-])=O)n(C(=O)OCCO)c2c1 (optimized conformer: 76.51851529364106 kcal/mol)

>  <smiles>  (79) 
CN(CCN)c1ccc2cc(C(N)=O)n(C(=O)OCCO)c2c1

>  <score_type>  (79) 
oracle

>  <origin>  (79) 
adg

>  <m_score__min__energy>  (79) 
-5.6399999999999997

>  <m_primary>  (79) 
energy

$$$$
80:0
     RDKit          3D

 39 41  0  0  0  0  0  0  0  0999 V2000
  140.9920  159.5620  134.7680 N   0  0  0  0  0  0  0  0  0  0  0  0
  141.9930  160.3160  134.0870 C   0  0  0  0  0  0  0  0  0  0  0  0
  141.7230  161.4770  133.6830 O   0  0  0  0  0  0  0  0  0  0  0  0
  143.3440  159.7490  133.9050 C   0  0  0  0  0  0  0  0  0  0  0  0
  144.4180  160.4720  133.3940 C   0  0  0  0  0  0  0  0  0  0  0  0
  145.4530  159.5690  133.2980 C   0  0  0  0  0  0  0  0  0  0  0  0
  146.7620  159.7500  132.8620 C   0  0  0  0  0  0  0  0  0  0  0  0
  147.6270  158.6450  132.8980 C   0  0  0  0  0  0  0  0  0  0  0  0
  147.1750  157.3880  133.3720 C   0  0  0  0  0  0  0  0  0  0  0  0
  148.1240  156.2240  133.4180 C   0  0  0  0  0  0  0  0  0  0  0  0
  148.0200  155.5870  134.6410 F   0  0  0  0  0  0  0  0  0  0  0  0
  147.8150  155.3310  132.4090 F   0  0  0  0  0  0  0  0  0  0  0  0
  145.8400  157.2420  133.8090 C   0  0  0  0  0  0  0  0  0  0  0  0
  144.9940  158.3570  133.7450 C   0  0  0  0  0  0  0  0  0  0  0  0
  143.7000  158.4510  134.1230 N   0  0  0  0  0  0  0  0  0  0  0  0
  142.9060  157.4130  134.7220 C   0  0  0  0  0  0  0  0  0  0  0  0
  142.4440  157.5660  135.8850 O   0  0  0  0  0  0  0  0  0  0  0  0
  142.6250  156.2490  133.9990 O   0  0  0  0  0  0  0  0  0  0  0  0
  141.3710  156.0260  133.3630 C   0  0  0  0  0  0  0  0  0  0  0  0
  140.8930  157.2440  132.8020 O   0  0  0  0  0  0  0  0  0  0  0  0
  139.6250  157.7650  133.0770 C   0  0  0  0  0  0  0  0  0  0  0  0
  139.0340  157.4700  134.1520 O   0  0  0  0  0  0  0  0  0  0  0  0
  138.9890  158.6670  132.1030 C   0  0  0  0  0  0  0  0  0  0  0  0
  139.7450  159.5240  131.2880 C   0  0  0  0  0  0  0  0  0  0  0  0
  139.1120  160.3410  130.4050 N   0  0  0  0  0  0  0  0  0  0  0  0
  137.7580  160.3440  130.2940 C   0  0  0  0  0  0  0  0  0  0  0  0
  137.0020  159.4930  131.1020 C   0  0  0  0  0  0  0  0  0  0  0  0
  137.6330  158.6770  131.9860 N   0  0  0  0  0  0  0  0  0  0  0  0
  140.9110  158.5310  134.6300 H   0  0  0  0  0  0  0  0  0  0  0  0
  144.4361  161.5382  133.1242 H   0  0  0  0  0  0  0  0  0  0  0  0
  147.1084  160.7293  132.5001 H   0  0  0  0  0  0  0  0  0  0  0  0
  148.6662  158.7558  132.5548 H   0  0  0  0  0  0  0  0  0  0  0  0
  149.1520  156.5908  133.2811 H   0  0  0  0  0  0  0  0  0  0  0  0
  145.4737  156.2773  134.1900 H   0  0  0  0  0  0  0  0  0  0  0  0
  141.4938  155.2793  132.5646 H   0  0  0  0  0  0  0  0  0  0  0  0
  140.6470  155.6584  134.1051 H   0  0  0  0  0  0  0  0  0  0  0  0
  140.8424  159.5344  131.3633 H   0  0  0  0  0  0  0  0  0  0  0  0
  137.2618  161.0111  129.5738 H   0  0  0  0  0  0  0  0  0  0  0  0
  135.9048  159.4832  131.0236 H   0  0  0  0  0  0  0  0  0  0  0  0
  1  2  1  0
  2  3  2  0
  2  4  1  0
  4  5  2  0
  5  6  1  0
  6  7  2  0
  7  8  1  0
  8  9  2  0
  9 10  1  0
 10 11  1  0
 10 12  1  0
  9 13  1  0
 13 14  2  0
 14 15  1  0
 15 16  1  0
 16 17  2  0
 16 18  1  0
 18 19  1  0
 19 20  1  0
 20 21  1  0
 21 22  2  0
 21 23  1  0
 23 24  2  0
 24 25  1  0
 25 26  2  0
 26 27  1  0
 27 28  2  0
 15  4  1  0
 28 23  1  0
 14  6  1  0
  1 29  1  0
  5 30  1  0
  7 31  1  0
  8 32  1  0
 10 33  1  0
 13 34  1  0
 19 35  1  0
 19 36  1  0
 24 37  1  0
 26 38  1  0
 27 39  1  0
M  CHG  1   1  -1
M  END
>  <UniqueID>  (80) 
80

>  <SMILES>  (80) 
[NH-]C(=O)c1cc2ccc(C(F)F)cc2n1C(=O)OCOC(=O)c1cnccn1

>  <Energy>  (80) 
78.34685289229165

>  <Genealogy>  (80) 
[NH-]C(=O)c1cc2ccc(C(F)F)cc2n1C(=O)OCOC(=O)c1cnccn1 (protonated)
[NH-]C(=O)c1cc2ccc(C(F)F)cc2n1C(=O)OCOC(=O)c1cnccn1 (3D coordinates assigned)
[NH-]C(=O)c1cc2ccc(C(F)F)cc2n1C(=O)OCOC(=O)c1cnccn1 (optimized conformer: 78.34685289229165 kcal/mol)

>  <smiles>  (80) 
NC(=O)c1cc2ccc(C(F)F)cc2n1C(=O)OCOC(=O)c1cnccn1

>  <score_type>  (80) 
oracle

>  <origin>  (80) 
adg

>  <m_score__min__energy>  (80) 
-6.6100000000000003

>  <m_primary>  (80) 
energy

$$$$
81:0
     RDKit          3D

 47 48  0  0  0  0  0  0  0  0999 V2000
  137.9450  159.3870  131.1280 C   0  0  0  0  0  0  0  0  0  0  0  0
  139.0010  158.8390  132.0820 C   0  0  0  0  0  0  0  0  0  0  0  0
  139.0760  157.4180  131.9830 O   0  0  0  0  0  0  0  0  0  0  0  0
  139.3240  156.5820  133.0780 C   0  0  0  0  0  0  0  0  0  0  0  0
  139.2770  155.3270  132.9560 O   0  0  0  0  0  0  0  0  0  0  0  0
  139.6760  157.1870  134.3970 C   0  0  0  0  0  0  0  0  0  0  0  0
  141.1600  157.0950  134.6220 C   0  0  0  0  0  0  0  0  0  0  0  0
  141.6530  155.9880  134.9660 O   0  0  0  0  0  0  0  0  0  0  0  0
  142.0260  158.2330  134.5270 N   0  0  0  0  0  0  0  0  0  0  0  0
  141.9410  159.2910  133.5240 C   0  0  0  0  0  0  0  0  0  0  0  0
  143.0550  160.3150  133.7290 C   0  0  0  0  0  0  0  0  0  0  0  0
  144.2110  159.9150  133.0010 O   0  0  0  0  0  0  0  0  0  0  0  0
  145.5110  160.1940  133.4330 C   0  0  0  0  0  0  0  0  0  0  0  0
  145.7510  161.2350  134.1040 O   0  0  0  0  0  0  0  0  0  0  0  0
  146.5810  159.3000  133.0890 N   0  0  0  0  0  0  0  0  0  0  0  0
  146.6710  157.9700  133.3740 C   0  0  0  0  0  0  0  0  0  0  0  0
  145.7470  157.2190  134.2540 C   0  0  0  0  0  0  0  0  0  0  0  0
  144.3320  157.3420  134.1010 N   0  0  0  0  0  0  0  0  0  0  0  0
  146.2030  156.4390  135.1310 O   0  0  0  0  0  0  0  0  0  0  0  0
  147.8140  157.4230  132.7930 C   0  0  0  0  0  0  0  0  0  0  0  0
  148.4230  158.4660  132.1340 C   0  0  0  0  0  0  0  0  0  0  0  0
  149.5900  158.4860  131.3760 C   0  0  0  0  0  0  0  0  0  0  0  0
  149.9700  159.7020  130.7840 C   0  0  0  0  0  0  0  0  0  0  0  0
  149.1730  160.8620  130.9450 C   0  0  0  0  0  0  0  0  0  0  0  0
  149.6030  162.1580  130.3220 C   0  0  0  0  0  0  0  0  0  0  0  0
  148.0050  160.8090  131.7370 C   0  0  0  0  0  0  0  0  0  0  0  0
  147.6600  159.5880  132.3280 C   0  0  0  0  0  0  0  0  0  0  0  0
  137.1152  159.8176  131.7077 H   0  0  0  0  0  0  0  0  0  0  0  0
  138.3927  160.1665  130.4941 H   0  0  0  0  0  0  0  0  0  0  0  0
  137.5653  158.5721  130.4941 H   0  0  0  0  0  0  0  0  0  0  0  0
  139.9794  159.2716  131.8259 H   0  0  0  0  0  0  0  0  0  0  0  0
  138.7241  159.1093  133.1117 H   0  0  0  0  0  0  0  0  0  0  0  0
  139.3703  158.2436  134.4069 H   0  0  0  0  0  0  0  0  0  0  0  0
  139.1537  156.6415  135.1968 H   0  0  0  0  0  0  0  0  0  0  0  0
  142.0369  158.8479  132.5218 H   0  0  0  0  0  0  0  0  0  0  0  0
  140.9699  159.7979  133.6239 H   0  0  0  0  0  0  0  0  0  0  0  0
  142.7185  161.2988  133.3700 H   0  0  0  0  0  0  0  0  0  0  0  0
  143.3009  160.3780  134.7993 H   0  0  0  0  0  0  0  0  0  0  0  0
  143.9140  158.0180  133.4250 H   0  0  0  0  0  0  0  0  0  0  0  0
  143.6900  156.7770  134.7020 H   0  0  0  0  0  0  0  0  0  0  0  0
  148.1563  156.3792  132.8494 H   0  0  0  0  0  0  0  0  0  0  0  0
  150.1962  157.5776  131.2445 H   0  0  0  0  0  0  0  0  0  0  0  0
  150.8945  159.7538  130.1902 H   0  0  0  0  0  0  0  0  0  0  0  0
  149.8436  162.8832  131.1133 H   0  0  0  0  0  0  0  0  0  0  0  0
  150.4927  161.9875  129.6980 H   0  0  0  0  0  0  0  0  0  0  0  0
  148.7878  162.5532  129.6980 H   0  0  0  0  0  0  0  0  0  0  0  0
  147.3827  161.7038  131.8855 H   0  0  0  0  0  0  0  0  0  0  0  0
  1  2  1  0
  2  3  1  0
  3  4  1  0
  4  5  2  0
  4  6  1  0
  6  7  1  0
  7  8  2  0
  7  9  1  0
  9 10  1  0
 10 11  1  0
 11 12  1  0
 12 13  1  0
 13 14  2  0
 13 15  1  0
 15 16  1  0
 16 17  1  0
 17 18  1  0
 17 19  2  0
 16 20  2  0
 20 21  1  0
 21 22  2  0
 22 23  1  0
 23 24  2  0
 24 25  1  0
 24 26  1  0
 26 27  2  0
 27 15  1  0
 27 21  1  0
  1 28  1  0
  1 29  1  0
  1 30  1  0
  2 31  1  0
  2 32  1  0
  6 33  1  0
  6 34  1  0
 10 35  1  0
 10 36  1  0
 11 37  1  0
 11 38  1  0
 18 39  1  0
 18 40  1  0
 20 41  1  0
 22 42  1  0
 23 43  1  0
 25 44  1  0
 25 45  1  0
 25 46  1  0
 26 47  1  0
M  CHG  1   9  -1
M  END
>  <UniqueID>  (81) 
81

>  <SMILES>  (81) 
CCOC(=O)CC(=O)[N-]CCOC(=O)n1c(C(N)=O)cc2ccc(C)cc21

>  <Energy>  (81) 
73.28611157756279

>  <Genealogy>  (81) 
CCOC(=O)CC(=O)[N-]CCOC(=O)n1c(C(N)=O)cc2ccc(C)cc21 (protonated)
CCOC(=O)CC(=O)[N-]CCOC(=O)n1c(C(N)=O)cc2ccc(C)cc21 (3D coordinates assigned)
CCOC(=O)CC(=O)[N-]CCOC(=O)n1c(C(N)=O)cc2ccc(C)cc21 (optimized conformer: 73.28611157756279 kcal/mol)

>  <smiles>  (81) 
CCOC(=O)CC(=O)NCCOC(=O)n1c(C(N)=O)cc2ccc(C)cc21

>  <score_type>  (81) 
oracle

>  <origin>  (81) 
adg

>  <m_score__min__energy>  (81) 
-6.6500000000000004

>  <m_primary>  (81) 
energy

$$$$
82:0
     RDKit          3D

 38 39  0  0  0  0  0  0  0  0999 V2000
  145.1330  161.4720  134.1140 C   0  0  0  0  0  0  0  0  0  0  0  0
  144.8430  160.0880  133.7200 N   0  0  0  0  0  0  0  0  0  0  0  0
  143.4430  159.6570  133.6200 C   0  0  0  0  0  0  0  0  0  0  0  0
  145.9240  159.1580  133.4410 C   0  0  0  0  0  0  0  0  0  0  0  0
  147.1460  159.6140  132.8680 C   0  0  0  0  0  0  0  0  0  0  0  0
  148.1900  158.7180  132.5780 C   0  0  0  0  0  0  0  0  0  0  0  0
  148.0020  157.3760  132.8820 C   0  0  0  0  0  0  0  0  0  0  0  0
  148.8250  156.2950  132.6610 C   0  0  0  0  0  0  0  0  0  0  0  0
  148.1160  155.1920  133.1320 C   0  0  0  0  0  0  0  0  0  0  0  0
  148.6390  153.8100  133.1040 C   0  0  0  0  0  0  0  0  0  0  0  0
  148.1880  152.8250  134.0350 N   0  0  0  0  0  0  0  0  0  0  0  0
  149.5330  153.5060  132.2700 O   0  0  0  0  0  0  0  0  0  0  0  0
  146.9050  155.5750  133.6220 N   0  0  0  0  0  0  0  0  0  0  0  0
  145.8350  154.7260  134.0670 C   0  0  0  0  0  0  0  0  0  0  0  0
  145.0550  154.2180  133.2190 O   0  0  0  0  0  0  0  0  0  0  0  0
  145.6860  154.4050  135.5020 C   0  0  0  0  0  0  0  0  0  0  0  0
  144.6770  154.8420  136.1170 O   0  0  0  0  0  0  0  0  0  0  0  0
  146.6370  153.6110  136.2240 N   0  0  0  0  0  0  0  0  0  0  0  0
  147.7970  154.1080  136.9580 C   0  0  0  0  0  0  0  0  0  0  0  0
  148.8100  153.0220  137.1350 C   0  0  0  0  0  0  0  0  0  0  0  0
  149.6000  153.0480  138.1160 O   0  0  0  0  0  0  0  0  0  0  0  0
  148.8780  151.9750  136.2250 O   0  0  0  0  0  0  0  0  0  0  0  0
  146.8480  156.9150  133.4560 C   0  0  0  0  0  0  0  0  0  0  0  0
  145.7800  157.7760  133.7280 C   0  0  0  0  0  0  0  0  0  0  0  0
  145.1483  161.5453  135.2114 H   0  0  0  0  0  0  0  0  0  0  0  0
  146.1130  161.7697  133.7129 H   0  0  0  0  0  0  0  0  0  0  0  0
  144.3549  162.1381  133.7129 H   0  0  0  0  0  0  0  0  0  0  0  0
  143.0259  159.5286  134.6297 H   0  0  0  0  0  0  0  0  0  0  0  0
  142.8629  160.4181  133.0777 H   0  0  0  0  0  0  0  0  0  0  0  0
  143.3914  158.7014  133.0777 H   0  0  0  0  0  0  0  0  0  0  0  0
  147.2748  160.6842  132.6489 H   0  0  0  0  0  0  0  0  0  0  0  0
  149.1281  159.0696  132.1237 H   0  0  0  0  0  0  0  0  0  0  0  0
  149.8279  156.3007  132.2092 H   0  0  0  0  0  0  0  0  0  0  0  0
  148.5310  151.8420  133.9620 H   0  0  0  0  0  0  0  0  0  0  0  0
  147.5970  153.0860  134.8550 H   0  0  0  0  0  0  0  0  0  0  0  0
  148.2511  154.9387  136.3978 H   0  0  0  0  0  0  0  0  0  0  0  0
  147.4691  154.4535  137.9495 H   0  0  0  0  0  0  0  0  0  0  0  0
  144.8443  157.3883  134.1571 H   0  0  0  0  0  0  0  0  0  0  0  0
  1  2  1  0
  2  3  1  0
  2  4  1  0
  4  5  2  0
  5  6  1  0
  6  7  2  0
  7  8  1  0
  8  9  2  0
  9 10  1  0
 10 11  1  0
 10 12  2  0
  9 13  1  0
 13 14  1  0
 14 15  2  0
 14 16  1  0
 16 17  2  0
 16 18  1  0
 18 19  1  0
 19 20  1  0
 20 21  2  0
 20 22  1  0
 13 23  1  0
 23 24  2  0
 24  4  1  0
 23  7  1  0
  1 25  1  0
  1 26  1  0
  1 27  1  0
  3 28  1  0
  3 29  1  0
  3 30  1  0
  5 31  1  0
  6 32  1  0
  8 33  1  0
 11 34  1  0
 11 35  1  0
 19 36  1  0
 19 37  1  0
 24 38  1  0
M  CHG  2  18  -1  22  -1
M  END
>  <UniqueID>  (82) 
82

>  <SMILES>  (82) 
CN(C)c1ccc2cc(C(N)=O)n(C(=O)C(=O)[N-]CC(=O)[O-])c2c1

>  <Energy>  (82) 
78.82490783054558

>  <Genealogy>  (82) 
CN(C)c1ccc2cc(C(N)=O)n(C(=O)C(=O)[N-]CC(=O)[O-])c2c1 (protonated)
CN(C)c1ccc2cc(C(N)=O)n(C(=O)C(=O)[N-]CC(=O)[O-])c2c1 (3D coordinates assigned)
CN(C)c1ccc2cc(C(N)=O)n(C(=O)C(=O)[N-]CC(=O)[O-])c2c1 (optimized conformer: 78.82490783054558 kcal/mol)

>  <smiles>  (82) 
CN(C)c1ccc2cc(C(N)=O)n(C(=O)C(=O)NCC(=O)O)c2c1

>  <score_type>  (82) 
oracle

>  <origin>  (82) 
adg

>  <m_score__min__energy>  (82) 
-6.6100000000000003

>  <m_primary>  (82) 
energy

$$$$
83:0
     RDKit          3D

 54 55  0  0  0  0  0  0  0  0999 V2000
  141.3360  157.1290  134.9120 C   0  0  0  0  0  0  0  0  0  0  0  0
  141.7380  158.6090  134.8130 C   0  0  0  0  0  0  0  0  0  0  0  0
  141.1050  159.2130  133.5450 C   0  0  0  0  0  0  0  0  0  0  0  0
  141.2430  159.3440  136.0730 C   0  0  0  0  0  0  0  0  0  0  0  0
  143.1700  158.6530  134.7330 O   0  0  0  0  0  0  0  0  0  0  0  0
  143.9520  158.3190  133.6160 C   0  0  0  0  0  0  0  0  0  0  0  0
  143.5310  157.5040  132.7510 O   0  0  0  0  0  0  0  0  0  0  0  0
  145.2400  158.9310  133.4500 N   0  0  0  0  0  0  0  0  0  0  0  0
  145.5740  160.2420  133.6170 C   0  0  0  0  0  0  0  0  0  0  0  0
  144.6350  161.3510  133.8850 C   0  0  0  0  0  0  0  0  0  0  0  0
  145.1370  162.6350  134.2450 N   0  0  0  0  0  0  0  0  0  0  0  0
  143.3920  161.1880  133.7610 O   0  0  0  0  0  0  0  0  0  0  0  0
  146.9410  160.4250  133.4180 C   0  0  0  0  0  0  0  0  0  0  0  0
  147.4360  159.1770  133.1140 C   0  0  0  0  0  0  0  0  0  0  0  0
  148.7370  158.7760  132.8300 C   0  0  0  0  0  0  0  0  0  0  0  0
  148.9670  157.4140  132.5740 C   0  0  0  0  0  0  0  0  0  0  0  0
  147.9010  156.4750  132.6180 C   0  0  0  0  0  0  0  0  0  0  0  0
  148.1100  155.0720  132.3670 N   0  0  0  0  0  0  0  0  0  0  0  0
  148.3860  154.0710  133.4000 C   0  0  0  0  0  0  0  0  0  0  0  0
  147.1120  153.7190  134.1770 C   0  0  0  0  0  0  0  0  0  0  0  0
  145.9630  154.1910  133.4980 O   0  0  0  0  0  0  0  0  0  0  0  0
  145.3560  153.1730  132.7200 C   0  0  0  0  0  0  0  0  0  0  0  0
  144.2210  153.7630  131.8690 C   0  0  2  0  0  0  0  0  0  0  0  0
  144.5370  155.0900  131.5330 O   0  0  0  0  0  0  0  0  0  0  0  0
  142.8850  153.7320  132.6270 C   0  0  0  0  0  0  0  0  0  0  0  0
  142.5030  155.0220  133.0220 O   0  0  0  0  0  0  0  0  0  0  0  0
  146.5930  156.9280  132.9080 C   0  0  0  0  0  0  0  0  0  0  0  0
  146.3900  158.2930  133.1390 C   0  0  0  0  0  0  0  0  0  0  0  0
  141.2576  156.8404  135.9706 H   0  0  0  0  0  0  0  0  0  0  0  0
  140.3646  156.9791  134.4182 H   0  0  0  0  0  0  0  0  0  0  0  0
  142.0981  156.5082  134.4182 H   0  0  0  0  0  0  0  0  0  0  0  0
  140.3368  159.9460  133.8322 H   0  0  0  0  0  0  0  0  0  0  0  0
  141.8831  159.7119  132.9487 H   0  0  0  0  0  0  0  0  0  0  0  0
  140.6431  158.4123  132.9487 H   0  0  0  0  0  0  0  0  0  0  0  0
  141.5990  158.8153  136.9695 H   0  0  0  0  0  0  0  0  0  0  0  0
  141.6332  160.3725  136.0746 H   0  0  0  0  0  0  0  0  0  0  0  0
  140.1433  159.3690  136.0746 H   0  0  0  0  0  0  0  0  0  0  0  0
  145.9380  163.0650  133.7290 H   0  0  0  0  0  0  0  0  0  0  0  0
  147.5049  161.3668  133.4888 H   0  0  0  0  0  0  0  0  0  0  0  0
  149.5615  159.5037  132.8065 H   0  0  0  0  0  0  0  0  0  0  0  0
  149.9845  157.0701  132.3366 H   0  0  0  0  0  0  0  0  0  0  0  0
  148.0790  154.7350  131.3780 H   0  0  0  0  0  0  0  0  0  0  0  0
  148.7798  153.1612  132.9234 H   0  0  0  0  0  0  0  0  0  0  0  0
  149.1225  154.4866  134.1035 H   0  0  0  0  0  0  0  0  0  0  0  0
  147.0447  152.6262  134.2833 H   0  0  0  0  0  0  0  0  0  0  0  0
  147.1586  154.1976  135.1663 H   0  0  0  0  0  0  0  0  0  0  0  0
  146.1104  152.7227  132.0581 H   0  0  0  0  0  0  0  0  0  0  0  0
  144.9410  152.4068  133.3913 H   0  0  0  0  0  0  0  0  0  0  0  0
  144.1150  153.1544  130.9589 H   0  0  0  0  0  0  0  0  0  0  0  0
  144.5470  155.6050  132.3810 H   0  0  0  0  0  0  0  0  0  0  0  0
  142.1085  153.3116  131.9709 H   0  0  0  0  0  0  0  0  0  0  0  0
  143.0060  153.1107  133.5266 H   0  0  0  0  0  0  0  0  0  0  0  0
  142.6390  155.6110  132.2330 H   0  0  0  0  0  0  0  0  0  0  0  0
  145.7515  156.2209  132.9511 H   0  0  0  0  0  0  0  0  0  0  0  0
  1  2  1  0
  2  3  1  0
  2  4  1  0
  2  5  1  0
  5  6  1  0
  6  7  2  0
  6  8  1  0
  8  9  1  0
  9 10  1  0
 10 11  1  0
 10 12  2  0
  9 13  2  0
 13 14  1  0
 14 15  2  0
 15 16  1  0
 16 17  2  0
 17 18  1  0
 18 19  1  0
 19 20  1  0
 20 21  1  0
 21 22  1  0
 22 23  1  0
 23 24  1  0
 23 25  1  0
 25 26  1  0
 17 27  1  0
 27 28  2  0
 28  8  1  0
 28 14  1  0
  1 29  1  0
  1 30  1  0
  1 31  1  0
  3 32  1  0
  3 33  1  0
  3 34  1  0
  4 35  1  0
  4 36  1  0
  4 37  1  0
 11 38  1  0
 13 39  1  0
 15 40  1  0
 16 41  1  0
 18 42  1  0
 19 43  1  0
 19 44  1  0
 20 45  1  0
 20 46  1  0
 22 47  1  0
 22 48  1  0
 23 49  1  6
 24 50  1  0
 25 51  1  0
 25 52  1  0
 26 53  1  0
 27 54  1  0
M  CHG  1  11  -1
M  END
>  <UniqueID>  (83) 
83

>  <SMILES>  (83) 
CC(C)(C)OC(=O)n1c(C([NH-])=O)cc2ccc(NCCOC[C@H](O)CO)cc21

>  <Energy>  (83) 
85.7050317498867

>  <Genealogy>  (83) 
CC(C)(C)OC(=O)n1c(C([NH-])=O)cc2ccc(NCCOC[C@H](O)CO)cc21 (protonated)
CC(C)(C)OC(=O)n1c(C([NH-])=O)cc2ccc(NCCOC[C@H](O)CO)cc21 (3D coordinates assigned)
CC(C)(C)OC(=O)n1c(C([NH-])=O)cc2ccc(NCCOC[C@H](O)CO)cc21 (optimized conformer: 85.7050317498867 kcal/mol)

>  <smiles>  (83) 
CC(C)(C)OC(=O)n1c(C(N)=O)cc2ccc(NCCOC[C@H](O)CO)cc21

>  <score_type>  (83) 
oracle

>  <origin>  (83) 
adg

>  <m_score__min__energy>  (83) 
-6.4900000000000002

>  <m_primary>  (83) 
energy

$$$$
84:0
     RDKit          3D

 38 39  0  0  0  0  0  0  0  0999 V2000
  138.1610  149.2830  131.1490 C   0  0  0  0  0  0  0  0  0  0  0  0
  139.5570  149.5990  131.5990 C   0  0  0  0  0  0  0  0  0  0  0  0
  140.5540  148.5930  131.5820 C   0  0  0  0  0  0  0  0  0  0  0  0
  141.8710  148.8850  131.9740 C   0  0  0  0  0  0  0  0  0  0  0  0
  142.1620  150.1910  132.3560 C   0  0  0  0  0  0  0  0  0  0  0  0
  143.3440  150.7400  132.8000 C   0  0  0  0  0  0  0  0  0  0  0  0
  143.0600  152.0810  133.0430 C   0  0  0  0  0  0  0  0  0  0  0  0
  144.0810  153.0650  133.4590 C   0  0  0  0  0  0  0  0  0  0  0  0
  144.2940  153.3610  134.8380 N   0  0  0  0  0  0  0  0  0  0  0  0
  144.7380  153.6910  132.5850 O   0  0  0  0  0  0  0  0  0  0  0  0
  141.7520  152.3520  132.7690 N   0  0  0  0  0  0  0  0  0  0  0  0
  141.0480  153.5850  132.9870 C   0  0  0  0  0  0  0  0  0  0  0  0
  139.8440  153.6960  132.6260 O   0  0  0  0  0  0  0  0  0  0  0  0
  141.6960  154.6500  133.6180 O   0  0  0  0  0  0  0  0  0  0  0  0
  141.3270  155.1220  134.9120 C   0  0  0  0  0  0  0  0  0  0  0  0
  142.4790  155.3130  135.7000 O   0  0  0  0  0  0  0  0  0  0  0  0
  142.3980  154.2900  137.0660 P   0  0  1  0  0  0  0  0  0  0  0  0
  143.7900  154.0210  137.5920 O   0  0  0  0  0  0  0  0  0  0  0  0
  141.5140  155.0690  138.2800 O   0  0  0  0  0  0  0  0  0  0  0  0
  141.6660  152.7960  136.6530 O   0  0  0  0  0  0  0  0  0  0  0  0
  141.2370  152.0990  137.8090 C   0  0  0  0  0  0  0  0  0  0  0  0
  142.2820  151.8350  138.6860 F   0  0  0  0  0  0  0  0  0  0  0  0
  140.3350  152.9050  138.4790 F   0  0  0  0  0  0  0  0  0  0  0  0
  140.5180  150.8360  137.4350 C   0  0  0  0  0  0  0  0  0  0  0  0
  139.8100  150.2280  138.2810 O   0  0  0  0  0  0  0  0  0  0  0  0
  140.6140  150.3420  136.1420 O   0  0  0  0  0  0  0  0  0  0  0  0
  141.2170  151.1830  132.3480 C   0  0  0  0  0  0  0  0  0  0  0  0
  139.8930  150.9160  131.9790 C   0  0  0  0  0  0  0  0  0  0  0  0
  137.5165  149.1371  132.0284 H   0  0  0  0  0  0  0  0  0  0  0  0
  137.7732  150.1161  130.5444 H   0  0  0  0  0  0  0  0  0  0  0  0
  138.1698  148.3641  130.5444 H   0  0  0  0  0  0  0  0  0  0  0  0
  140.2947  147.5740  131.2590 H   0  0  0  0  0  0  0  0  0  0  0  0
  142.6476  148.1059  131.9788 H   0  0  0  0  0  0  0  0  0  0  0  0
  144.3081  150.2277  132.9342 H   0  0  0  0  0  0  0  0  0  0  0  0
  143.4940  153.3980  135.5080 H   0  0  0  0  0  0  0  0  0  0  0  0
  140.7909  156.0773  134.8124 H   0  0  0  0  0  0  0  0  0  0  0  0
  140.6765  154.3788  135.3963 H   0  0  0  0  0  0  0  0  0  0  0  0
  139.1342  151.7123  131.9851 H   0  0  0  0  0  0  0  0  0  0  0  0
  1  2  1  0
  2  3  2  0
  3  4  1  0
  4  5  2  0
  5  6  1  0
  6  7  2  0
  7  8  1  0
  8  9  1  0
  8 10  2  0
  7 11  1  0
 11 12  1  0
 12 13  2  0
 12 14  1  0
 14 15  1  0
 15 16  1  0
 16 17  1  0
 17 18  2  0
 17 19  1  1
 17 20  1  0
 20 21  1  0
 21 22  1  0
 21 23  1  0
 21 24  1  0
 24 25  2  0
 24 26  1  0
 11 27  1  0
 27 28  2  0
 28  2  1  0
 27  5  1  0
  1 29  1  0
  1 30  1  0
  1 31  1  0
  3 32  1  0
  4 33  1  0
  6 34  1  0
  9 35  1  0
 15 36  1  0
 15 37  1  0
 28 38  1  0
M  CHG  3   9  -1  19  -1  26  -1
M  END
>  <UniqueID>  (84) 
84

>  <SMILES>  (84) 
Cc1ccc2cc(C([NH-])=O)n(C(=O)OCO[P@@](=O)([O-])OC(F)(F)C(=O)[O-])c2c1

>  <Energy>  (84) 
77.82007331266108

>  <Genealogy>  (84) 
Cc1ccc2cc(C([NH-])=O)n(C(=O)OCOP(=O)([O-])OC(F)(F)C(=O)[O-])c2c1 (protonated)
Cc1ccc2cc(C([NH-])=O)n(C(=O)OCO[P@@](=O)([O-])OC(F)(F)C(=O)[O-])c2c1 (chirality)
Cc1ccc2cc(C([NH-])=O)n(C(=O)OCO[P@@](=O)([O-])OC(F)(F)C(=O)[O-])c2c1 (3D coordinates assigned)
Cc1ccc2cc(C([NH-])=O)n(C(=O)OCO[P@@](=O)([O-])OC(F)(F)C(=O)[O-])c2c1 (optimized conformer: 77.82007331266108 kcal/mol)

>  <smiles>  (84) 
Cc1ccc2cc(C(N)=O)n(C(=O)OCOP(=O)(O)OC(F)(F)C(=O)O)c2c1

>  <score_type>  (84) 
oracle

>  <origin>  (84) 
adg

>  <m_score__min__energy>  (84) 
-6.9100000000000001

>  <m_primary>  (84) 
energy

$$$$
85:0
     RDKit          3D

 47 48  0  0  0  0  0  0  0  0999 V2000
  148.7440  157.0120  132.6140 C   0  0  0  0  0  0  0  0  0  0  0  0
  147.7740  158.1140  132.9210 C   0  0  0  0  0  0  0  0  0  0  0  0
  148.2500  159.4330  133.1040 C   0  0  0  0  0  0  0  0  0  0  0  0
  147.3600  160.4820  133.3990 C   0  0  0  0  0  0  0  0  0  0  0  0
  146.0060  160.1770  133.5040 C   0  0  0  0  0  0  0  0  0  0  0  0
  144.9320  161.0080  133.7340 C   0  0  0  0  0  0  0  0  0  0  0  0
  143.8120  160.1830  133.6780 C   0  0  0  0  0  0  0  0  0  0  0  0
  142.4280  160.6970  133.7070 C   0  0  0  0  0  0  0  0  0  0  0  0
  141.3190  159.7990  133.7330 N   0  0  0  0  0  0  0  0  0  0  0  0
  142.2150  161.9360  133.7330 O   0  0  0  0  0  0  0  0  0  0  0  0
  144.1770  158.8840  133.4620 N   0  0  0  0  0  0  0  0  0  0  0  0
  143.3300  157.7160  133.4270 C   0  0  0  0  0  0  0  0  0  0  0  0
  142.6430  157.4780  132.3960 O   0  0  0  0  0  0  0  0  0  0  0  0
  143.2230  156.7870  134.6070 C   0  0  0  0  0  0  0  0  0  0  0  0
  141.5040  156.5890  135.2270 P   0  0  0  0  0  0  0  0  0  0  0  0
  140.5730  155.9600  133.9040 S   0  0  0  0  0  0  0  0  0  0  0  0
  140.7880  158.1450  135.7110 N   0  0  0  0  0  0  0  0  0  0  0  0
  141.7060  158.8910  136.5920 C   0  0  0  0  0  0  0  0  0  0  0  0
  139.4990  157.9450  136.3880 C   0  0  0  0  0  0  0  0  0  0  0  0
  141.4460  155.4560  136.5970 N   0  0  0  0  0  0  0  0  0  0  0  0
  142.0660  156.0450  137.7960 C   0  0  0  0  0  0  0  0  0  0  0  0
  142.1310  154.1980  136.2520 C   0  0  0  0  0  0  0  0  0  0  0  0
  145.5250  158.9020  133.3350 C   0  0  0  0  0  0  0  0  0  0  0  0
  146.3930  157.8390  133.0470 C   0  0  0  0  0  0  0  0  0  0  0  0
  149.1214  156.5832  133.5541 H   0  0  0  0  0  0  0  0  0  0  0  0
  148.2368  156.2288  132.0314 H   0  0  0  0  0  0  0  0  0  0  0  0
  149.5852  157.4157  132.0314 H   0  0  0  0  0  0  0  0  0  0  0  0
  149.3265  159.6409  133.0148 H   0  0  0  0  0  0  0  0  0  0  0  0
  147.7227  161.5106  133.5421 H   0  0  0  0  0  0  0  0  0  0  0  0
  144.9544  162.0916  133.9217 H   0  0  0  0  0  0  0  0  0  0  0  0
  140.3430  160.1670  133.7750 H   0  0  0  0  0  0  0  0  0  0  0  0
  141.4610  158.7640  133.7190 H   0  0  0  0  0  0  0  0  0  0  0  0
  143.6018  155.7985  134.3080 H   0  0  0  0  0  0  0  0  0  0  0  0
  143.8135  157.2293  135.4229 H   0  0  0  0  0  0  0  0  0  0  0  0
  141.4535  158.6858  137.6428 H   0  0  0  0  0  0  0  0  0  0  0  0
  142.7410  158.5748  136.3951 H   0  0  0  0  0  0  0  0  0  0  0  0
  141.6082  159.9688  136.3951 H   0  0  0  0  0  0  0  0  0  0  0  0
  139.6495  157.9684  137.4774 H   0  0  0  0  0  0  0  0  0  0  0  0
  138.8036  158.7460  136.0967 H   0  0  0  0  0  0  0  0  0  0  0  0
  139.0791  156.9710  136.0967 H   0  0  0  0  0  0  0  0  0  0  0  0
  141.6082  155.6101  138.6967 H   0  0  0  0  0  0  0  0  0  0  0  0
  143.1450  155.8313  137.7934 H   0  0  0  0  0  0  0  0  0  0  0  0
  141.9078  157.1336  137.7934 H   0  0  0  0  0  0  0  0  0  0  0  0
  142.4176  153.6717  137.1744 H   0  0  0  0  0  0  0  0  0  0  0  0
  141.4546  153.5621  135.6620 H   0  0  0  0  0  0  0  0  0  0  0  0
  143.0322  154.4211  135.6620 H   0  0  0  0  0  0  0  0  0  0  0  0
  146.0087  156.8159  132.9221 H   0  0  0  0  0  0  0  0  0  0  0  0
  1  2  1  0
  2  3  2  0
  3  4  1  0
  4  5  2  0
  5  6  1  0
  6  7  2  0
  7  8  1  0
  8  9  1  0
  8 10  2  0
  7 11  1  0
 11 12  1  0
 12 13  2  0
 12 14  1  0
 14 15  1  0
 15 16  2  0
 15 17  1  0
 17 18  1  0
 17 19  1  0
 15 20  1  0
 20 21  1  0
 20 22  1  0
 11 23  1  0
 23 24  2  0
 24  2  1  0
 23  5  1  0
  1 25  1  0
  1 26  1  0
  1 27  1  0
  3 28  1  0
  4 29  1  0
  6 30  1  0
  9 31  1  0
  9 32  1  0
 14 33  1  0
 14 34  1  0
 18 35  1  0
 18 36  1  0
 18 37  1  0
 19 38  1  0
 19 39  1  0
 19 40  1  0
 21 41  1  0
 21 42  1  0
 21 43  1  0
 22 44  1  0
 22 45  1  0
 22 46  1  0
 24 47  1  0
M  END
>  <UniqueID>  (85) 
85

>  <SMILES>  (85) 
Cc1ccc2cc(C(N)=O)n(C(=O)CP(=S)(N(C)C)N(C)C)c2c1

>  <Energy>  (85) 
78.46455898909653

>  <Genealogy>  (85) 
Cc1ccc2cc(C(N)=O)n(C(=O)CP(=S)(N(C)C)N(C)C)c2c1 (3D coordinates assigned)
Cc1ccc2cc(C(N)=O)n(C(=O)CP(=S)(N(C)C)N(C)C)c2c1 (optimized conformer: 78.46455898909653 kcal/mol)

>  <smiles>  (85) 
Cc1ccc2cc(C(N)=O)n(C(=O)CP(=S)(N(C)C)N(C)C)c2c1

>  <score_type>  (85) 
oracle

>  <origin>  (85) 
adg

>  <m_score__min__energy>  (85) 
-7.25

>  <m_primary>  (85) 
energy

$$$$
86:0
     RDKit          3D

 43 44  0  0  0  0  0  0  0  0999 V2000
  140.5700  158.0470  133.2920 C   0  0  0  0  0  0  0  0  0  0  0  0
  141.9590  158.6050  133.3680 C   0  0  0  0  0  0  0  0  0  0  0  0
  142.1540  159.9820  133.6410 C   0  0  0  0  0  0  0  0  0  0  0  0
  143.4520  160.5100  133.7650 C   0  0  0  0  0  0  0  0  0  0  0  0
  144.5270  159.6400  133.6140 C   0  0  0  0  0  0  0  0  0  0  0  0
  145.8810  159.8750  133.7120 C   0  0  0  0  0  0  0  0  0  0  0  0
  146.4900  158.6350  133.5030 C   0  0  0  0  0  0  0  0  0  0  0  0
  147.9560  158.4010  133.5090 C   0  0  0  0  0  0  0  0  0  0  0  0
  148.4970  157.1010  133.7610 N   0  0  0  0  0  0  0  0  0  0  0  0
  148.7490  159.3570  133.2960 O   0  0  0  0  0  0  0  0  0  0  0  0
  145.5440  157.6820  133.2670 N   0  0  0  0  0  0  0  0  0  0  0  0
  145.7450  156.2730  133.0710 C   0  0  0  0  0  0  0  0  0  0  0  0
  146.5850  155.8930  132.2120 O   0  0  0  0  0  0  0  0  0  0  0  0
  145.0370  155.2980  133.8710 N   0  0  0  0  0  0  0  0  0  0  0  0
  145.4790  155.0290  135.2500 C   0  0  0  0  0  0  0  0  0  0  0  0
  146.7130  154.1780  135.2680 C   0  0  0  0  0  0  0  0  0  0  0  0
  147.4950  154.1730  134.2810 O   0  0  0  0  0  0  0  0  0  0  0  0
  147.0060  153.3930  136.3760 O   0  0  0  0  0  0  0  0  0  0  0  0
  143.8220  154.6320  133.3630 C   0  0  0  0  0  0  0  0  0  0  0  0
  144.1410  153.6320  132.2400 C   0  0  1  0  0  0  0  0  0  0  0  0
  144.7350  154.3260  131.1720 O   0  0  0  0  0  0  0  0  0  0  0  0
  145.0760  152.5070  132.7180 C   0  0  0  0  0  0  0  0  0  0  0  0
  146.4000  152.7400  132.3130 O   0  0  0  0  0  0  0  0  0  0  0  0
  144.3520  158.3080  133.3530 C   0  0  0  0  0  0  0  0  0  0  0  0
  143.0750  157.7500  133.2410 C   0  0  0  0  0  0  0  0  0  0  0  0
  140.1814  157.8909  134.3092 H   0  0  0  0  0  0  0  0  0  0  0  0
  139.9198  158.7537  132.7555 H   0  0  0  0  0  0  0  0  0  0  0  0
  140.5894  157.0869  132.7555 H   0  0  0  0  0  0  0  0  0  0  0  0
  141.2829  160.6436  133.7569 H   0  0  0  0  0  0  0  0  0  0  0  0
  143.6120  161.5779  133.9749 H   0  0  0  0  0  0  0  0  0  0  0  0
  146.3776  160.8358  133.9124 H   0  0  0  0  0  0  0  0  0  0  0  0
  149.5320  156.9620  133.7720 H   0  0  0  0  0  0  0  0  0  0  0  0
  147.8880  156.2670  133.9070 H   0  0  0  0  0  0  0  0  0  0  0  0
  145.6949  155.9845  135.7503 H   0  0  0  0  0  0  0  0  0  0  0  0
  144.6763  154.4893  135.7738 H   0  0  0  0  0  0  0  0  0  0  0  0
  143.3393  154.0934  134.1918 H   0  0  0  0  0  0  0  0  0  0  0  0
  143.1573  155.4055  132.9508 H   0  0  0  0  0  0  0  0  0  0  0  0
  143.2010  153.1597  131.9187 H   0  0  0  0  0  0  0  0  0  0  0  0
  145.7150  154.1700  131.2350 H   0  0  0  0  0  0  0  0  0  0  0  0
  145.0409  152.4538  133.8162 H   0  0  0  0  0  0  0  0  0  0  0  0
  144.7373  151.5600  132.2725 H   0  0  0  0  0  0  0  0  0  0  0  0
  146.5330  153.7240  132.3250 H   0  0  0  0  0  0  0  0  0  0  0  0
  142.9434  156.6732  133.0587 H   0  0  0  0  0  0  0  0  0  0  0  0
  1  2  1  0
  2  3  2  0
  3  4  1  0
  4  5  2  0
  5  6  1  0
  6  7  2  0
  7  8  1  0
  8  9  1  0
  8 10  2  0
  7 11  1  0
 11 12  1  0
 12 13  2  0
 12 14  1  0
 14 15  1  0
 15 16  1  0
 16 17  2  0
 16 18  1  0
 14 19  1  0
 19 20  1  0
 20 21  1  0
 20 22  1  0
 22 23  1  0
 11 24  1  0
 24 25  2  0
 25  2  1  0
 24  5  1  0
  1 26  1  0
  1 27  1  0
  1 28  1  0
  3 29  1  0
  4 30  1  0
  6 31  1  0
  9 32  1  0
  9 33  1  0
 15 34  1  0
 15 35  1  0
 19 36  1  0
 19 37  1  0
 20 38  1  6
 21 39  1  0
 22 40  1  0
 22 41  1  0
 23 42  1  0
 25 43  1  0
M  CHG  1  18  -1
M  END
>  <UniqueID>  (86) 
86

>  <SMILES>  (86) 
Cc1ccc2cc(C(N)=O)n(C(=O)N(CC(=O)[O-])C[C@@H](O)CO)c2c1

>  <Energy>  (86) 
76.45245205646714

>  <Genealogy>  (86) 
Cc1ccc2cc(C(N)=O)n(C(=O)N(CC(=O)[O-])CC(O)CO)c2c1 (protonated)
Cc1ccc2cc(C(N)=O)n(C(=O)N(CC(=O)[O-])C[C@@H](O)CO)c2c1 (chirality)
Cc1ccc2cc(C(N)=O)n(C(=O)N(CC(=O)[O-])C[C@@H](O)CO)c2c1 (3D coordinates assigned)
Cc1ccc2cc(C(N)=O)n(C(=O)N(CC(=O)[O-])C[C@@H](O)CO)c2c1 (optimized conformer: 76.45245205646714 kcal/mol)

>  <smiles>  (86) 
Cc1ccc2cc(C(N)=O)n(C(=O)N(CC(=O)O)CC(O)CO)c2c1

>  <score_type>  (86) 
oracle

>  <origin>  (86) 
adg

>  <m_score__min__energy>  (86) 
-6.1699999999999999

>  <m_primary>  (86) 
energy

$$$$
87:0
     RDKit          3D

 74 78  0  0  0  0  0  0  0  0999 V2000
  141.5180  153.1340  132.2370 N   0  0  0  0  0  0  0  0  0  0  0  0
  141.9860  153.5920  133.5050 C   0  0  0  0  0  0  0  0  0  0  0  0
  141.3970  153.2110  134.5560 O   0  0  0  0  0  0  0  0  0  0  0  0
  143.1440  154.5080  133.5760 C   0  0  0  0  0  0  0  0  0  0  0  0
  144.4350  154.0940  133.8960 C   0  0  0  0  0  0  0  0  0  0  0  0
  145.2160  155.2270  133.8030 C   0  0  0  0  0  0  0  0  0  0  0  0
  146.5750  155.4060  134.0490 C   0  0  0  0  0  0  0  0  0  0  0  0
  147.1070  156.7010  133.9170 C   0  0  0  0  0  0  0  0  0  0  0  0
  146.2790  157.7900  133.5320 C   0  0  0  0  0  0  0  0  0  0  0  0
  146.8350  159.1880  133.4470 C   0  0  0  0  0  0  0  0  0  0  0  0
  145.9680  160.1060  134.0150 F   0  0  0  0  0  0  0  0  0  0  0  0
  148.0440  159.2670  134.1160 F   0  0  0  0  0  0  0  0  0  0  0  0
  147.0330  159.5170  132.1180 F   0  0  0  0  0  0  0  0  0  0  0  0
  144.9000  157.5710  133.3130 C   0  0  0  0  0  0  0  0  0  0  0  0
  144.4050  156.2670  133.4360 C   0  0  0  0  0  0  0  0  0  0  0  0
  143.1280  155.8420  133.2980 N   0  0  0  0  0  0  0  0  0  0  0  0
  142.0000  156.6770  132.9990 C   0  0  0  0  0  0  0  0  0  0  0  0
  142.1350  157.6420  132.2010 O   0  0  0  0  0  0  0  0  0  0  0  0
  140.7420  156.4360  133.6400 N   0  0  0  0  0  0  0  0  0  0  0  0
  139.4740  156.3670  132.9140 C   0  0  0  0  0  0  0  0  0  0  0  0
  139.0930  157.7370  132.3370 C   0  0  0  0  0  0  0  0  0  0  0  0
  139.1830  158.8600  133.3840 C   0  0  0  0  0  0  0  0  0  0  0  0
  140.3180  159.7300  133.0880 N   0  0  0  0  0  0  0  0  0  0  0  0
  141.4590  159.9010  133.9340 C   0  0  0  0  0  0  0  0  0  0  0  0
  142.5500  160.2360  133.4070 O   0  0  0  0  0  0  0  0  0  0  0  0
  141.3520  159.7960  135.4400 C   0  0  0  0  0  0  0  0  0  0  0  0
  140.2590  158.8170  135.9060 C   0  0  0  0  0  0  0  0  0  0  0  0
  140.7820  157.7340  136.8050 C   0  0  0  0  0  0  0  0  0  0  0  0
  141.6830  158.0030  137.6440 O   0  0  0  0  0  0  0  0  0  0  0  0
  140.2870  156.4310  136.6910 O   0  0  0  0  0  0  0  0  0  0  0  0
  141.0610  155.3750  136.2480 N   0  0  0  0  0  0  0  0  0  0  0  0
  141.8540  154.5580  137.1220 C   0  0  0  0  0  0  0  0  0  0  0  0
  141.2850  153.9660  138.2790 C   0  0  0  0  0  0  0  0  0  0  0  0
  142.0800  153.2190  139.1680 C   0  0  0  0  0  0  0  0  0  0  0  0
  143.4340  153.0760  138.8740 C   0  0  0  0  0  0  0  0  0  0  0  0
  143.9890  153.6390  137.7460 C   0  0  0  0  0  0  0  0  0  0  0  0
  143.2300  154.3990  136.8590 C   0  0  0  0  0  0  0  0  0  0  0  0
  145.4110  153.3170  137.7420 C   0  0  0  0  0  0  0  0  0  0  0  0
  146.2410  153.6720  136.8630 O   0  0  0  0  0  0  0  0  0  0  0  0
  145.7400  152.5400  138.9000 N   0  0  0  0  0  0  0  0  0  0  0  0
  147.0800  152.1960  139.3900 C   0  0  2  0  0  0  0  0  0  0  0  0
  147.4850  153.1480  140.5350 C   0  0  0  0  0  0  0  0  0  0  0  0
  148.9340  152.9200  140.9770 C   0  0  0  0  0  0  0  0  0  0  0  0
  149.8680  153.0330  139.8080 C   0  0  0  0  0  0  0  0  0  0  0  0
  151.0540  153.4180  139.9850 O   0  0  0  0  0  0  0  0  0  0  0  0
  149.4280  152.6570  138.5000 N   0  0  0  0  0  0  0  0  0  0  0  0
  148.0840  152.2410  138.2590 C   0  0  0  0  0  0  0  0  0  0  0  0
  147.7560  151.8540  137.1080 O   0  0  0  0  0  0  0  0  0  0  0  0
  144.5040  152.4070  139.6070 C   0  0  0  0  0  0  0  0  0  0  0  0
  144.3780  151.8150  140.7100 O   0  0  0  0  0  0  0  0  0  0  0  0
  142.1920  152.8110  131.5040 H   0  0  0  0  0  0  0  0  0  0  0  0
  144.7621  153.0790  134.1656 H   0  0  0  0  0  0  0  0  0  0  0  0
  147.2140  154.5587  134.3383 H   0  0  0  0  0  0  0  0  0  0  0  0
  148.1755  156.8730  134.1139 H   0  0  0  0  0  0  0  0  0  0  0  0
  144.2317  158.4049  133.0522 H   0  0  0  0  0  0  0  0  0  0  0  0
  139.5704  155.6444  132.0903 H   0  0  0  0  0  0  0  0  0  0  0  0
  138.6868  156.0516  133.6146 H   0  0  0  0  0  0  0  0  0  0  0  0
  139.7750  157.9727  131.5068 H   0  0  0  0  0  0  0  0  0  0  0  0
  138.0486  157.6788  131.9967 H   0  0  0  0  0  0  0  0  0  0  0  0
  138.2558  159.4516  133.3641 H   0  0  0  0  0  0  0  0  0  0  0  0
  139.3203  158.4143  134.3802 H   0  0  0  0  0  0  0  0  0  0  0  0
  142.3195  159.4533  135.8357 H   0  0  0  0  0  0  0  0  0  0  0  0
  141.0793  160.7926  135.8175 H   0  0  0  0  0  0  0  0  0  0  0  0
  139.4906  159.3842  136.4518 H   0  0  0  0  0  0  0  0  0  0  0  0
  139.8513  158.3294  135.0082 H   0  0  0  0  0  0  0  0  0  0  0  0
  141.1610  155.2470  135.2150 H   0  0  0  0  0  0  0  0  0  0  0  0
  140.2115  154.0922  138.4832 H   0  0  0  0  0  0  0  0  0  0  0  0
  141.6449  152.7614  140.0687 H   0  0  0  0  0  0  0  0  0  0  0  0
  143.6925  154.8634  135.9756 H   0  0  0  0  0  0  0  0  0  0  0  0
  147.0648  151.1696  139.7854 H   0  0  0  0  0  0  0  0  0  0  0  0
  147.3771  154.1868  140.1897 H   0  0  0  0  0  0  0  0  0  0  0  0
  146.8291  152.9478  141.3950 H   0  0  0  0  0  0  0  0  0  0  0  0
  149.2050  153.6745  141.7302 H   0  0  0  0  0  0  0  0  0  0  0  0
  149.0196  151.9091  141.4023 H   0  0  0  0  0  0  0  0  0  0  0  0
  1  2  1  0
  2  3  2  0
  2  4  1  0
  4  5  2  0
  5  6  1  0
  6  7  2  0
  7  8  1  0
  8  9  2  0
  9 10  1  0
 10 11  1  0
 10 12  1  0
 10 13  1  0
  9 14  1  0
 14 15  2  0
 15 16  1  0
 16 17  1  0
 17 18  2  0
 17 19  1  0
 19 20  1  0
 20 21  1  0
 21 22  1  0
 22 23  1  0
 23 24  1  0
 24 25  2  0
 24 26  1  0
 26 27  1  0
 27 28  1  0
 28 29  2  0
 28 30  1  0
 30 31  1  0
 31 32  1  0
 32 33  2  0
 33 34  1  0
 34 35  2  0
 35 36  1  0
 36 37  2  0
 36 38  1  0
 38 39  2  0
 38 40  1  0
 40 41  1  0
 41 42  1  0
 42 43  1  0
 43 44  1  0
 44 45  2  0
 44 46  1  0
 46 47  1  0
 47 48  2  0
 40 49  1  0
 49 50  2  0
 16  4  1  0
 37 32  1  0
 47 41  1  0
 15  6  1  0
 49 35  1  0
  1 51  1  0
  5 52  1  0
  7 53  1  0
  8 54  1  0
 14 55  1  0
 20 56  1  0
 20 57  1  0
 21 58  1  0
 21 59  1  0
 22 60  1  0
 22 61  1  0
 26 62  1  0
 26 63  1  0
 27 64  1  0
 27 65  1  0
 31 66  1  0
 33 67  1  0
 34 68  1  0
 37 69  1  0
 41 70  1  1
 42 71  1  0
 42 72  1  0
 43 73  1  0
 43 74  1  0
M  CHG  4   1  -1  19  -1  23  -1  46  -1
M  END
>  <UniqueID>  (87) 
87

>  <SMILES>  (87) 
[NH-]C(=O)c1cc2ccc(C(F)(F)F)cc2n1C(=O)[N-]CCC[N-]C(=O)CCC(=O)ONc1ccc2c(c1)C(=O)N([C@@H]1CCC(=O)[N-]C1=O)C2=O

>  <Energy>  (87) 
149.05114180556777

>  <Genealogy>  (87) 
[NH-]C(=O)c1cc2ccc(C(F)(F)F)cc2n1C(=O)[N-]CCC[N-]C(=O)CCC(=O)ONc1ccc2c(c1)C(=O)N(C1CCC(=O)[N-]C1=O)C2=O (protonated)
[NH-]C(=O)c1cc2ccc(C(F)(F)F)cc2n1C(=O)[N-]CCC[N-]C(=O)CCC(=O)ONc1ccc2c(c1)C(=O)N([C@@H]1CCC(=O)[N-]C1=O)C2=O (chirality)
[NH-]C(=O)c1cc2ccc(C(F)(F)F)cc2n1C(=O)[N-]CCC[N-]C(=O)CCC(=O)ONc1ccc2c(c1)C(=O)N([C@@H]1CCC(=O)[N-]C1=O)C2=O (3D coordinates assigned)
[NH-]C(=O)c1cc2ccc(C(F)(F)F)cc2n1C(=O)[N-]CCC[N-]C(=O)CCC(=O)ONc1ccc2c(c1)C(=O)N([C@@H]1CCC(=O)[N-]C1=O)C2=O (nonaromatic ring conformer: 149.05114180556777 kcal/mol)

>  <smiles>  (87) 
NC(=O)c1cc2ccc(C(F)(F)F)cc2n1C(=O)NCCCNC(=O)CCC(=O)ONc1ccc2c(c1)C(=O)N(C1CCC(=O)NC1=O)C2=O

>  <score_type>  (87) 
oracle

>  <origin>  (87) 
adg

>  <m_score__min__energy>  (87) 
-11.859999999999999

>  <m_primary>  (87) 
energy

$$$$
88:0
     RDKit          3D

 30 31  0  0  0  0  0  0  0  0999 V2000
  149.3880  157.4730  132.2410 N   0  0  0  0  0  0  0  0  0  0  0  0
  148.8720  158.7470  132.6200 C   0  0  0  0  0  0  0  0  0  0  0  0
  149.6340  159.7490  132.6060 O   0  0  0  0  0  0  0  0  0  0  0  0
  147.4520  158.8800  133.0120 C   0  0  0  0  0  0  0  0  0  0  0  0
  146.7740  160.0970  133.0600 C   0  0  0  0  0  0  0  0  0  0  0  0
  145.5040  159.7900  133.4940 C   0  0  0  0  0  0  0  0  0  0  0  0
  144.4050  160.6170  133.7110 C   0  0  0  0  0  0  0  0  0  0  0  0
  143.2050  160.0210  134.1340 C   0  0  0  0  0  0  0  0  0  0  0  0
  143.1200  158.6170  134.3130 C   0  0  0  0  0  0  0  0  0  0  0  0
  141.8400  157.9940  134.7860 C   0  0  0  0  0  0  0  0  0  0  0  0
  141.4780  158.5500  136.4380 Cl  0  0  0  0  0  0  0  0  0  0  0  0
  144.2590  157.8110  134.0930 C   0  0  0  0  0  0  0  0  0  0  0  0
  145.4460  158.4360  133.6930 C   0  0  0  0  0  0  0  0  0  0  0  0
  146.6350  157.8650  133.4090 N   0  0  0  0  0  0  0  0  0  0  0  0
  146.9480  156.4650  133.4860 C   0  0  0  0  0  0  0  0  0  0  0  0
  146.9260  155.7610  132.4420 O   0  0  0  0  0  0  0  0  0  0  0  0
  147.3550  155.8460  134.7890 C   0  0  0  0  0  0  0  0  0  0  0  0
  146.2690  154.4450  135.1820 P   0  0  0  0  0  0  0  0  0  0  0  0
  146.0830  153.5820  133.9540 O   0  0  0  0  0  0  0  0  0  0  0  0
  146.9700  153.5230  136.4130 O   0  0  0  0  0  0  0  0  0  0  0  0
  144.7630  155.0170  135.7010 O   0  0  0  0  0  0  0  0  0  0  0  0
  148.7610  156.7350  131.8500 H   0  0  0  0  0  0  0  0  0  0  0  0
  147.1696  161.0913  132.8053 H   0  0  0  0  0  0  0  0  0  0  0  0
  144.4742  161.7038  133.5560 H   0  0  0  0  0  0  0  0  0  0  0  0
  142.3233  160.6494  134.3281 H   0  0  0  0  0  0  0  0  0  0  0  0
  141.0202  158.2869  134.1136 H   0  0  0  0  0  0  0  0  0  0  0  0
  141.9450  156.8990  134.7845 H   0  0  0  0  0  0  0  0  0  0  0  0
  144.2144  156.7208  134.2324 H   0  0  0  0  0  0  0  0  0  0  0  0
  148.3935  155.4912  134.7143 H   0  0  0  0  0  0  0  0  0  0  0  0
  147.2726  156.5994  135.5862 H   0  0  0  0  0  0  0  0  0  0  0  0
  1  2  1  0
  2  3  2  0
  2  4  1  0
  4  5  2  0
  5  6  1  0
  6  7  2  0
  7  8  1  0
  8  9  2  0
  9 10  1  0
 10 11  1  0
  9 12  1  0
 12 13  2  0
 13 14  1  0
 14 15  1  0
 15 16  2  0
 15 17  1  0
 17 18  1  0
 18 19  2  0
 18 20  1  0
 18 21  1  0
 14  4  1  0
 13  6  1  0
  1 22  1  0
  5 23  1  0
  7 24  1  0
  8 25  1  0
 10 26  1  0
 10 27  1  0
 12 28  1  0
 17 29  1  0
 17 30  1  0
M  CHG  3   1  -1  20  -1  21  -1
M  END
>  <UniqueID>  (88) 
88

>  <SMILES>  (88) 
[NH-]C(=O)c1cc2ccc(CCl)cc2n1C(=O)CP(=O)([O-])[O-]

>  <Energy>  (88) 
63.3937004601215

>  <Genealogy>  (88) 
[NH-]C(=O)c1cc2ccc(CCl)cc2n1C(=O)CP(=O)([O-])[O-] (protonated)
[NH-]C(=O)c1cc2ccc(CCl)cc2n1C(=O)CP(=O)([O-])[O-] (3D coordinates assigned)
[NH-]C(=O)c1cc2ccc(CCl)cc2n1C(=O)CP(=O)([O-])[O-] (optimized conformer: 63.3937004601215 kcal/mol)

>  <smiles>  (88) 
NC(=O)c1cc2ccc(CCl)cc2n1C(=O)CP(=O)(O)O

>  <score_type>  (88) 
oracle

>  <origin>  (88) 
adg

>  <m_score__min__energy>  (88) 
-6.0599999999999996

>  <m_primary>  (88) 
energy

$$$$
89:0
     RDKit          3D

 40 42  0  0  0  0  0  0  0  0999 V2000
  141.8740  156.5370  134.6950 C   0  0  0  0  0  0  0  0  0  0  0  0
  142.8950  157.5440  134.2550 C   0  0  0  0  0  0  0  0  0  0  0  0
  142.5030  158.8700  133.9340 C   0  0  0  0  0  0  0  0  0  0  0  0
  143.4600  159.8130  133.5220 C   0  0  0  0  0  0  0  0  0  0  0  0
  144.7870  159.4060  133.4370 C   0  0  0  0  0  0  0  0  0  0  0  0
  145.9000  160.1050  133.0360 C   0  0  0  0  0  0  0  0  0  0  0  0
  146.9510  159.1910  133.0980 C   0  0  0  0  0  0  0  0  0  0  0  0
  148.3250  159.4810  132.6310 C   0  0  0  0  0  0  0  0  0  0  0  0
  149.4160  158.6340  133.0030 N   0  0  0  0  0  0  0  0  0  0  0  0
  148.5520  160.4980  131.9250 O   0  0  0  0  0  0  0  0  0  0  0  0
  146.5040  157.9800  133.5360 N   0  0  0  0  0  0  0  0  0  0  0  0
  147.2690  156.7910  133.7860 C   0  0  0  0  0  0  0  0  0  0  0  0
  148.0200  156.7300  134.7980 O   0  0  0  0  0  0  0  0  0  0  0  0
  147.2340  155.6340  132.8300 C   0  0  0  0  0  0  0  0  0  0  0  0
  148.5980  155.0400  132.6760 C   0  0  0  0  0  0  0  0  0  0  0  0
  149.6060  155.7900  132.5880 O   0  0  0  0  0  0  0  0  0  0  0  0
  148.7640  153.6260  132.6160 N   0  0  0  0  0  0  0  0  0  0  0  0
  149.8860  152.6710  132.5450 C   0  0  0  0  0  0  0  0  0  0  0  0
  149.0380  151.4330  132.5450 C   0  0  0  0  0  0  0  0  0  0  0  0
  149.1690  150.6420  133.7050 O   0  0  0  0  0  0  0  0  0  0  0  0
  147.9110  152.4200  132.6090 C   0  0  0  0  0  0  0  0  0  0  0  0
  145.1760  158.1260  133.7280 C   0  0  0  0  0  0  0  0  0  0  0  0
  144.2540  157.1690  134.1630 C   0  0  0  0  0  0  0  0  0  0  0  0
  141.8410  156.5045  135.7940 H   0  0  0  0  0  0  0  0  0  0  0  0
  140.8854  156.8235  134.3068 H   0  0  0  0  0  0  0  0  0  0  0  0
  142.1468  155.5446  134.3068 H   0  0  0  0  0  0  0  0  0  0  0  0
  141.4448  159.1609  134.0081 H   0  0  0  0  0  0  0  0  0  0  0  0
  143.1677  160.8440  133.2738 H   0  0  0  0  0  0  0  0  0  0  0  0
  145.9509  161.1607  132.7311 H   0  0  0  0  0  0  0  0  0  0  0  0
  149.2560  157.7400  133.5190 H   0  0  0  0  0  0  0  0  0  0  0  0
  150.3880  158.8660  132.6990 H   0  0  0  0  0  0  0  0  0  0  0  0
  146.5465  154.8667  133.2154 H   0  0  0  0  0  0  0  0  0  0  0  0
  146.8898  155.9935  131.8490 H   0  0  0  0  0  0  0  0  0  0  0  0
  150.4792  152.7798  131.6251 H   0  0  0  0  0  0  0  0  0  0  0  0
  150.6610  152.7485  133.3217 H   0  0  0  0  0  0  0  0  0  0  0  0
  149.1192  150.6330  131.7944 H   0  0  0  0  0  0  0  0  0  0  0  0
  148.2690  150.4780  134.0950 H   0  0  0  0  0  0  0  0  0  0  0  0
  147.2520  152.3704  131.7297 H   0  0  0  0  0  0  0  0  0  0  0  0
  147.1919  152.3085  133.4339 H   0  0  0  0  0  0  0  0  0  0  0  0
  144.5781  156.1514  134.4265 H   0  0  0  0  0  0  0  0  0  0  0  0
  1  2  1  0
  2  3  2  0
  3  4  1  0
  4  5  2  0
  5  6  1  0
  6  7  2  0
  7  8  1  0
  8  9  1  0
  8 10  2  0
  7 11  1  0
 11 12  1  0
 12 13  2  0
 12 14  1  0
 14 15  1  0
 15 16  2  0
 15 17  1  0
 17 18  1  0
 18 19  1  0
 19 20  1  0
 19 21  1  0
 11 22  1  0
 22 23  2  0
 23  2  1  0
 22  5  1  0
 21 17  1  0
  1 24  1  0
  1 25  1  0
  1 26  1  0
  3 27  1  0
  4 28  1  0
  6 29  1  0
  9 30  1  0
  9 31  1  0
 14 32  1  0
 14 33  1  0
 18 34  1  0
 18 35  1  0
 19 36  1  0
 20 37  1  0
 21 38  1  0
 21 39  1  0
 23 40  1  0
M  END
>  <UniqueID>  (89) 
89

>  <SMILES>  (89) 
Cc1ccc2cc(C(N)=O)n(C(=O)CC(=O)N3CC(O)C3)c2c1

>  <Energy>  (89) 
122.66186734408042

>  <Genealogy>  (89) 
Cc1ccc2cc(C(N)=O)n(C(=O)CC(=O)N3CC(O)C3)c2c1 (3D coordinates assigned)
Cc1ccc2cc(C(N)=O)n(C(=O)CC(=O)N3CC(O)C3)c2c1 (nonaromatic ring conformer: 122.66186734408042 kcal/mol)

>  <smiles>  (89) 
Cc1ccc2cc(C(N)=O)n(C(=O)CC(=O)N3CC(O)C3)c2c1

>  <score_type>  (89) 
oracle

>  <origin>  (89) 
adg

>  <m_score__min__energy>  (89) 
-7.7699999999999996

>  <m_primary>  (89) 
energy

$$$$
90:0
     RDKit          3D

 39 40  0  0  0  0  0  0  0  0999 V2000
  144.8250  160.3440  133.6500 C   0  0  0  0  0  0  0  0  0  0  0  0
  145.9290  159.3730  133.3590 C   0  0  0  0  0  0  0  0  0  0  0  0
  147.1960  159.8450  132.9330 C   0  0  0  0  0  0  0  0  0  0  0  0
  148.2510  158.9470  132.6970 C   0  0  0  0  0  0  0  0  0  0  0  0
  148.0140  157.5910  132.9040 C   0  0  0  0  0  0  0  0  0  0  0  0
  148.8560  156.5100  132.7670 C   0  0  0  0  0  0  0  0  0  0  0  0
  148.0900  155.3990  133.1160 C   0  0  0  0  0  0  0  0  0  0  0  0
  148.5740  154.0060  133.0230 C   0  0  0  0  0  0  0  0  0  0  0  0
  148.0350  153.0070  133.8860 N   0  0  0  0  0  0  0  0  0  0  0  0
  149.4820  153.6940  132.2080 O   0  0  0  0  0  0  0  0  0  0  0  0
  146.8300  155.7820  133.4660 N   0  0  0  0  0  0  0  0  0  0  0  0
  145.7600  154.9580  133.9540 C   0  0  0  0  0  0  0  0  0  0  0  0
  145.8160  154.4910  135.1240 O   0  0  0  0  0  0  0  0  0  0  0  0
  144.6280  154.5570  133.0490 C   0  0  0  0  0  0  0  0  0  0  0  0
  144.3420  153.0750  133.1070 C   0  0  0  0  0  0  0  0  0  0  0  0
  145.2870  152.2520  132.9570 O   0  0  0  0  0  0  0  0  0  0  0  0
  142.9930  152.5830  133.2860 N   0  0  0  0  0  0  0  0  0  0  0  0
  141.8610  153.5140  133.3490 C   0  0  0  0  0  0  0  0  0  0  0  0
  142.7430  151.1370  133.3490 C   0  0  0  0  0  0  0  0  0  0  0  0
  141.3430  150.8790  133.8080 C   0  0  0  0  0  0  0  0  0  0  0  0
  140.4420  150.6030  132.9740 O   0  0  0  0  0  0  0  0  0  0  0  0
  141.0250  150.9880  135.1570 O   0  0  0  0  0  0  0  0  0  0  0  0
  146.7970  157.1220  133.3230 C   0  0  0  0  0  0  0  0  0  0  0  0
  145.7300  157.9910  133.5740 C   0  0  0  0  0  0  0  0  0  0  0  0
  144.7061  160.4486  134.7385 H   0  0  0  0  0  0  0  0  0  0  0  0
  145.0725  161.3224  133.2125 H   0  0  0  0  0  0  0  0  0  0  0  0
  143.8862  159.9736  133.2125 H   0  0  0  0  0  0  0  0  0  0  0  0
  147.3548  160.9235  132.7859 H   0  0  0  0  0  0  0  0  0  0  0  0
  149.2346  159.3050  132.3588 H   0  0  0  0  0  0  0  0  0  0  0  0
  149.9092  156.5209  132.4496 H   0  0  0  0  0  0  0  0  0  0  0  0
  147.0130  152.9750  134.0980 H   0  0  0  0  0  0  0  0  0  0  0  0
  143.7228  155.1036  133.3520 H   0  0  0  0  0  0  0  0  0  0  0  0
  144.9204  154.8021  132.0173 H   0  0  0  0  0  0  0  0  0  0  0  0
  141.6125  153.7184  134.4009 H   0  0  0  0  0  0  0  0  0  0  0  0
  142.1314  154.4545  132.8467 H   0  0  0  0  0  0  0  0  0  0  0  0
  140.9904  153.0672  132.8467 H   0  0  0  0  0  0  0  0  0  0  0  0
  142.8853  150.6989  132.3501 H   0  0  0  0  0  0  0  0  0  0  0  0
  143.4462  150.6798  134.0607 H   0  0  0  0  0  0  0  0  0  0  0  0
  144.7618  157.6085  133.9293 H   0  0  0  0  0  0  0  0  0  0  0  0
  1  2  1  0
  2  3  2  0
  3  4  1  0
  4  5  2  0
  5  6  1  0
  6  7  2  0
  7  8  1  0
  8  9  1  0
  8 10  2  0
  7 11  1  0
 11 12  1  0
 12 13  2  0
 12 14  1  0
 14 15  1  0
 15 16  2  0
 15 17  1  0
 17 18  1  0
 17 19  1  0
 19 20  1  0
 20 21  2  0
 20 22  1  0
 11 23  1  0
 23 24  2  0
 24  2  1  0
 23  5  1  0
  1 25  1  0
  1 26  1  0
  1 27  1  0
  3 28  1  0
  4 29  1  0
  6 30  1  0
  9 31  1  0
 14 32  1  0
 14 33  1  0
 18 34  1  0
 18 35  1  0
 18 36  1  0
 19 37  1  0
 19 38  1  0
 24 39  1  0
M  CHG  2   9  -1  22  -1
M  END
>  <UniqueID>  (90) 
90

>  <SMILES>  (90) 
Cc1ccc2cc(C([NH-])=O)n(C(=O)CC(=O)N(C)CC(=O)[O-])c2c1

>  <Energy>  (90) 
74.78278748260051

>  <Genealogy>  (90) 
Cc1ccc2cc(C([NH-])=O)n(C(=O)CC(=O)N(C)CC(=O)[O-])c2c1 (protonated)
Cc1ccc2cc(C([NH-])=O)n(C(=O)CC(=O)N(C)CC(=O)[O-])c2c1 (3D coordinates assigned)
Cc1ccc2cc(C([NH-])=O)n(C(=O)CC(=O)N(C)CC(=O)[O-])c2c1 (optimized conformer: 74.78278748260051 kcal/mol)

>  <smiles>  (90) 
Cc1ccc2cc(C(N)=O)n(C(=O)CC(=O)N(C)CC(=O)O)c2c1

>  <score_type>  (90) 
oracle

>  <origin>  (90) 
adg

>  <m_score__min__energy>  (90) 
-6.79

>  <m_primary>  (90) 
energy

$$$$
91:0
     RDKit          3D

 42 43  0  0  0  0  0  0  0  0999 V2000
  141.6500  152.8630  134.5420 C   0  0  0  0  0  0  0  0  0  0  0  0
  141.9010  154.2790  134.3040 N   0  0  0  0  0  0  0  0  0  0  0  0
  141.2510  154.8820  133.2430 O   0  0  0  0  0  0  0  0  0  0  0  0
  140.8180  156.2110  133.2710 C   0  0  0  0  0  0  0  0  0  0  0  0
  141.4790  157.1090  132.6850 O   0  0  0  0  0  0  0  0  0  0  0  0
  139.6670  156.5360  133.9960 O   0  0  0  0  0  0  0  0  0  0  0  0
  139.1310  157.8550  134.0570 C   0  0  0  0  0  0  0  0  0  0  0  0
  138.6660  158.2300  132.7810 O   0  0  0  0  0  0  0  0  0  0  0  0
  139.6230  159.5240  132.2120 P   0  0  2  0  0  0  0  0  0  0  0  0
  140.5180  160.0510  133.3120 O   0  0  0  0  0  0  0  0  0  0  0  0
  138.6020  160.7690  131.6910 O   0  0  0  0  0  0  0  0  0  0  0  0
  140.5690  159.0030  130.9110 O   0  0  0  0  0  0  0  0  0  0  0  0
  143.0160  154.9090  134.9650 C   0  0  0  0  0  0  0  0  0  0  0  0
  142.8020  155.7700  135.8590 O   0  0  0  0  0  0  0  0  0  0  0  0
  144.4060  154.5170  134.6640 C   0  0  0  0  0  0  0  0  0  0  0  0
  144.7220  153.2990  134.5840 O   0  0  0  0  0  0  0  0  0  0  0  0
  145.4250  155.5160  134.5300 N   0  0  0  0  0  0  0  0  0  0  0  0
  146.7670  155.3620  134.7010 C   0  0  0  0  0  0  0  0  0  0  0  0
  147.4410  154.1350  135.1780 C   0  0  0  0  0  0  0  0  0  0  0  0
  146.9580  153.4300  136.3170 N   0  0  0  0  0  0  0  0  0  0  0  0
  148.4680  153.7130  134.5830 O   0  0  0  0  0  0  0  0  0  0  0  0
  147.4350  156.5490  134.3980 C   0  0  0  0  0  0  0  0  0  0  0  0
  146.4490  157.4380  134.0300 C   0  0  0  0  0  0  0  0  0  0  0  0
  146.5430  158.7650  133.6200 C   0  0  0  0  0  0  0  0  0  0  0  0
  145.3540  159.4390  133.2920 C   0  0  0  0  0  0  0  0  0  0  0  0
  144.1060  158.7770  133.3760 C   0  0  0  0  0  0  0  0  0  0  0  0
  142.9050  159.4730  133.0390 N   0  0  0  0  0  0  0  0  0  0  0  0
  144.0490  157.4300  133.7930 C   0  0  0  0  0  0  0  0  0  0  0  0
  145.2460  156.7890  134.1160 C   0  0  0  0  0  0  0  0  0  0  0  0
  141.6164  152.6736  135.6250 H   0  0  0  0  0  0  0  0  0  0  0  0
  140.6877  152.5802  134.0903 H   0  0  0  0  0  0  0  0  0  0  0  0
  142.4564  152.2667  134.0903 H   0  0  0  0  0  0  0  0  0  0  0  0
  138.2968  157.8795  134.7736 H   0  0  0  0  0  0  0  0  0  0  0  0
  139.9139  158.5553  134.3835 H   0  0  0  0  0  0  0  0  0  0  0  0
  141.3720  158.5990  131.3290 H   0  0  0  0  0  0  0  0  0  0  0  0
  145.9930  153.0310  136.3330 H   0  0  0  0  0  0  0  0  0  0  0  0
  148.5182  156.7352  134.4433 H   0  0  0  0  0  0  0  0  0  0  0  0
  147.5178  159.2705  133.5547 H   0  0  0  0  0  0  0  0  0  0  0  0
  145.3938  160.4893  132.9675 H   0  0  0  0  0  0  0  0  0  0  0  0
  142.6580  160.3720  133.5100 H   0  0  0  0  0  0  0  0  0  0  0  0
  142.2510  159.0930  132.3180 H   0  0  0  0  0  0  0  0  0  0  0  0
  143.0876  156.8998  133.8616 H   0  0  0  0  0  0  0  0  0  0  0  0
  1  2  1  0
  2  3  1  0
  3  4  1  0
  4  5  2  0
  4  6  1  0
  6  7  1  0
  7  8  1  0
  8  9  1  0
  9 10  2  0
  9 11  1  6
  9 12  1  0
  2 13  1  0
 13 14  2  0
 13 15  1  0
 15 16  2  0
 15 17  1  0
 17 18  1  0
 18 19  1  0
 19 20  1  0
 19 21  2  0
 18 22  2  0
 22 23  1  0
 23 24  2  0
 24 25  1  0
 25 26  2  0
 26 27  1  0
 26 28  1  0
 28 29  2  0
 29 17  1  0
 29 23  1  0
  1 30  1  0
  1 31  1  0
  1 32  1  0
  7 33  1  0
  7 34  1  0
 12 35  1  0
 20 36  1  0
 22 37  1  0
 24 38  1  0
 25 39  1  0
 27 40  1  0
 27 41  1  0
 28 42  1  0
M  CHG  2  11  -1  20  -1
M  END
>  <UniqueID>  (91) 
91

>  <SMILES>  (91) 
CN(OC(=O)OCO[P@](=O)([O-])O)C(=O)C(=O)n1c(C([NH-])=O)cc2ccc(N)cc21

>  <Energy>  (91) 
83.10090062892415

>  <Genealogy>  (91) 
CN(OC(=O)OCOP(=O)([O-])O)C(=O)C(=O)n1c(C([NH-])=O)cc2ccc(N)cc21 (protonated)
CN(OC(=O)OCO[P@](=O)([O-])O)C(=O)C(=O)n1c(C([NH-])=O)cc2ccc(N)cc21 (chirality)
CN(OC(=O)OCO[P@](=O)([O-])O)C(=O)C(=O)n1c(C([NH-])=O)cc2ccc(N)cc21 (3D coordinates assigned)
CN(OC(=O)OCO[P@](=O)([O-])O)C(=O)C(=O)n1c(C([NH-])=O)cc2ccc(N)cc21 (optimized conformer: 83.10090062892415 kcal/mol)

>  <smiles>  (91) 
CN(OC(=O)OCOP(=O)(O)O)C(=O)C(=O)n1c(C(N)=O)cc2ccc(N)cc21

>  <score_type>  (91) 
oracle

>  <origin>  (91) 
adg

>  <m_score__min__energy>  (91) 
-6.9400000000000004

>  <m_primary>  (91) 
energy

$$$$
92:0
     RDKit          3D

 31 33  0  0  0  0  0  0  0  0999 V2000
  149.3380  157.3010  132.2320 N   0  0  0  0  0  0  0  0  0  0  0  0
  148.9160  158.6250  132.5450 C   0  0  0  0  0  0  0  0  0  0  0  0
  149.7730  159.5460  132.6130 O   0  0  0  0  0  0  0  0  0  0  0  0
  147.4990  158.9210  132.8480 C   0  0  0  0  0  0  0  0  0  0  0  0
  147.0030  160.2150  132.9910 C   0  0  0  0  0  0  0  0  0  0  0  0
  145.6840  160.0610  133.3530 C   0  0  0  0  0  0  0  0  0  0  0  0
  144.7100  161.0210  133.6100 C   0  0  0  0  0  0  0  0  0  0  0  0
  143.4170  160.5780  133.9320 C   0  0  0  0  0  0  0  0  0  0  0  0
  143.1180  159.1920  133.9880 C   0  0  0  0  0  0  0  0  0  0  0  0
  141.7430  158.7400  134.3080 C   0  0  0  0  0  0  0  0  0  0  0  0
  140.8710  158.3750  133.2670 C   0  0  0  0  0  0  0  0  0  0  0  0
  139.5740  157.9360  133.5490 C   0  0  0  0  0  0  0  0  0  0  0  0
  138.7430  157.5800  132.5380 F   0  0  0  0  0  0  0  0  0  0  0  0
  139.1340  157.8590  134.8720 C   0  0  0  0  0  0  0  0  0  0  0  0
  139.9870  158.2260  135.9160 C   0  0  0  0  0  0  0  0  0  0  0  0
  139.5480  158.1570  137.1980 F   0  0  0  0  0  0  0  0  0  0  0  0
  141.2870  158.6710  135.6410 C   0  0  0  0  0  0  0  0  0  0  0  0
  142.1060  159.0610  136.6960 O   0  0  0  0  0  0  0  0  0  0  0  0
  144.1350  158.2480  133.7130 C   0  0  0  0  0  0  0  0  0  0  0  0
  145.4190  158.7170  133.4150 C   0  0  0  0  0  0  0  0  0  0  0  0
  146.5230  158.0020  133.1030 N   0  0  0  0  0  0  0  0  0  0  0  0
  146.6040  156.5730  132.9850 C   0  0  0  0  0  0  0  0  0  0  0  0
  146.8270  156.0380  131.8670 O   0  0  0  0  0  0  0  0  0  0  0  0
  146.4100  155.7650  134.0980 O   0  0  0  0  0  0  0  0  0  0  0  0
  148.8410  156.7360  131.5090 H   0  0  0  0  0  0  0  0  0  0  0  0
  147.5491  161.1587  132.8456 H   0  0  0  0  0  0  0  0  0  0  0  0
  144.9458  162.0944  133.5624 H   0  0  0  0  0  0  0  0  0  0  0  0
  142.6270  161.3137  134.1432 H   0  0  0  0  0  0  0  0  0  0  0  0
  141.2119  158.4353  132.2229 H   0  0  0  0  0  0  0  0  0  0  0  0
  138.1147  157.5090  135.0925 H   0  0  0  0  0  0  0  0  0  0  0  0
  143.9211  157.1692  133.7330 H   0  0  0  0  0  0  0  0  0  0  0  0
  1  2  1  0
  2  3  2  0
  2  4  1  0
  4  5  2  0
  5  6  1  0
  6  7  2  0
  7  8  1  0
  8  9  2  0
  9 10  1  0
 10 11  2  0
 11 12  1  0
 12 13  1  0
 12 14  2  0
 14 15  1  0
 15 16  1  0
 15 17  2  0
 17 18  1  0
  9 19  1  0
 19 20  2  0
 20 21  1  0
 21 22  1  0
 22 23  2  0
 22 24  1  0
 21  4  1  0
 20  6  1  0
 17 10  1  0
  1 25  1  0
  5 26  1  0
  7 27  1  0
  8 28  1  0
 11 29  1  0
 14 30  1  0
 19 31  1  0
M  CHG  3   1  -1  18  -1  24  -1
M  END
>  <UniqueID>  (92) 
92

>  <SMILES>  (92) 
[NH-]C(=O)c1cc2ccc(-c3cc(F)cc(F)c3[O-])cc2n1C(=O)[O-]

>  <Energy>  (92) 
80.8693545896334

>  <Genealogy>  (92) 
[NH-]C(=O)c1cc2ccc(-c3cc(F)cc(F)c3[O-])cc2n1C(=O)[O-] (protonated)
[NH-]C(=O)c1cc2ccc(-c3cc(F)cc(F)c3[O-])cc2n1C(=O)[O-] (3D coordinates assigned)
[NH-]C(=O)c1cc2ccc(-c3cc(F)cc(F)c3[O-])cc2n1C(=O)[O-] (optimized conformer: 80.8693545896334 kcal/mol)

>  <smiles>  (92) 
NC(=O)c1cc2ccc(-c3cc(F)cc(F)c3O)cc2n1C(=O)O

>  <score_type>  (92) 
oracle

>  <origin>  (92) 
adg

>  <m_score__min__energy>  (92) 
-7.0300000000000002

>  <m_primary>  (92) 
energy

$$$$
93:0
     RDKit          3D

 35 36  0  0  0  0  0  0  0  0999 V2000
  145.3790  160.5480  133.7220 C   0  0  0  0  0  0  0  0  0  0  0  0
  146.3880  159.4740  133.4490 C   0  0  0  0  0  0  0  0  0  0  0  0
  147.6720  159.8150  132.9560 C   0  0  0  0  0  0  0  0  0  0  0  0
  148.6130  158.8140  132.6550 C   0  0  0  0  0  0  0  0  0  0  0  0
  148.2390  157.4880  132.8510 C   0  0  0  0  0  0  0  0  0  0  0  0
  148.9370  156.3230  132.6190 C   0  0  0  0  0  0  0  0  0  0  0  0
  148.0640  155.2910  132.9700 C   0  0  0  0  0  0  0  0  0  0  0  0
  148.3900  153.8460  132.9090 C   0  0  0  0  0  0  0  0  0  0  0  0
  147.4970  152.8640  133.4400 N   0  0  0  0  0  0  0  0  0  0  0  0
  149.4650  153.4640  132.3750 O   0  0  0  0  0  0  0  0  0  0  0  0
  146.8830  155.8050  133.4120 N   0  0  0  0  0  0  0  0  0  0  0  0
  145.7080  155.0840  133.8070 C   0  0  0  0  0  0  0  0  0  0  0  0
  145.6630  154.5690  134.9580 O   0  0  0  0  0  0  0  0  0  0  0  0
  144.5850  154.9510  132.9110 N   0  0  0  0  0  0  0  0  0  0  0  0
  143.5140  155.9520  132.9570 C   0  0  0  0  0  0  0  0  0  0  0  0
  144.5370  153.8640  131.9220 C   0  0  0  0  0  0  0  0  0  0  0  0
  144.4850  152.5330  132.6090 C   0  0  0  0  0  0  0  0  0  0  0  0
  145.4720  151.8150  132.6370 O   0  0  0  0  0  0  0  0  0  0  0  0
  147.0000  157.1460  133.3230 C   0  0  0  0  0  0  0  0  0  0  0  0
  146.0380  158.1170  133.6180 C   0  0  0  0  0  0  0  0  0  0  0  0
  145.2615  160.6731  134.8085 H   0  0  0  0  0  0  0  0  0  0  0  0
  145.7220  161.4946  133.2789 H   0  0  0  0  0  0  0  0  0  0  0  0
  144.4129  160.2646  133.2789 H   0  0  0  0  0  0  0  0  0  0  0  0
  147.9352  160.8726  132.8073 H   0  0  0  0  0  0  0  0  0  0  0  0
  149.6133  159.0712  132.2765 H   0  0  0  0  0  0  0  0  0  0  0  0
  149.9644  156.2262  132.2380 H   0  0  0  0  0  0  0  0  0  0  0  0
  147.7300  151.8500  133.3600 H   0  0  0  0  0  0  0  0  0  0  0  0
  146.6250  153.1310  133.9450 H   0  0  0  0  0  0  0  0  0  0  0  0
  143.2700  156.1800  134.0051 H   0  0  0  0  0  0  0  0  0  0  0  0
  143.8477  156.8695  132.4502 H   0  0  0  0  0  0  0  0  0  0  0  0
  142.6211  155.5572  132.4502 H   0  0  0  0  0  0  0  0  0  0  0  0
  143.6408  153.9836  131.2955 H   0  0  0  0  0  0  0  0  0  0  0  0
  145.4427  153.9085  131.2994 H   0  0  0  0  0  0  0  0  0  0  0  0
  143.5531  152.2015  133.0903 H   0  0  0  0  0  0  0  0  0  0  0  0
  145.0364  157.8313  133.9719 H   0  0  0  0  0  0  0  0  0  0  0  0
  1  2  1  0
  2  3  2  0
  3  4  1  0
  4  5  2  0
  5  6  1  0
  6  7  2  0
  7  8  1  0
  8  9  1  0
  8 10  2  0
  7 11  1  0
 11 12  1  0
 12 13  2  0
 12 14  1  0
 14 15  1  0
 14 16  1  0
 16 17  1  0
 17 18  2  0
 11 19  1  0
 19 20  2  0
 20  2  1  0
 19  5  1  0
  1 21  1  0
  1 22  1  0
  1 23  1  0
  3 24  1  0
  4 25  1  0
  6 26  1  0
  9 27  1  0
  9 28  1  0
 15 29  1  0
 15 30  1  0
 15 31  1  0
 16 32  1  0
 16 33  1  0
 17 34  1  0
 20 35  1  0
M  END
>  <UniqueID>  (93) 
93

>  <SMILES>  (93) 
Cc1ccc2cc(C(N)=O)n(C(=O)N(C)CC=O)c2c1

>  <Energy>  (93) 
69.75258817551736

>  <Genealogy>  (93) 
Cc1ccc2cc(C(N)=O)n(C(=O)N(C)CC=O)c2c1 (3D coordinates assigned)
Cc1ccc2cc(C(N)=O)n(C(=O)N(C)CC=O)c2c1 (optimized conformer: 69.75258817551736 kcal/mol)

>  <smiles>  (93) 
Cc1ccc2cc(C(N)=O)n(C(=O)N(C)CC=O)c2c1

>  <score_type>  (93) 
oracle

>  <origin>  (93) 
adg

>  <m_score__min__energy>  (93) 
-5.9500000000000002

>  <m_primary>  (93) 
energy

$$$$
94:0
     RDKit          3D

 38 39  0  0  0  0  0  0  0  0999 V2000
  142.2130  154.9900  133.3670 N   0  0  0  0  0  0  0  0  0  0  0  0
  143.3990  154.9420  134.1630 C   0  0  0  0  0  0  0  0  0  0  0  0
  143.4710  154.1100  135.1050 O   0  0  0  0  0  0  0  0  0  0  0  0
  144.5430  155.8330  133.8710 C   0  0  0  0  0  0  0  0  0  0  0  0
  145.8740  155.5070  134.1330 C   0  0  0  0  0  0  0  0  0  0  0  0
  146.5940  156.6400  133.8280 C   0  0  0  0  0  0  0  0  0  0  0  0
  147.9630  156.8760  133.8920 C   0  0  0  0  0  0  0  0  0  0  0  0
  148.4340  158.1400  133.4930 C   0  0  0  0  0  0  0  0  0  0  0  0
  147.5300  159.1390  133.0520 C   0  0  0  0  0  0  0  0  0  0  0  0
  148.0480  160.4650  132.5820 C   0  0  0  0  0  0  0  0  0  0  0  0
  149.2360  160.2820  131.9000 F   0  0  0  0  0  0  0  0  0  0  0  0
  146.1480  158.8590  132.9910 C   0  0  0  0  0  0  0  0  0  0  0  0
  145.7100  157.5950  133.4010 C   0  0  0  0  0  0  0  0  0  0  0  0
  144.4480  157.1120  133.4130 N   0  0  0  0  0  0  0  0  0  0  0  0
  143.2730  157.8100  132.9670 C   0  0  0  0  0  0  0  0  0  0  0  0
  142.7390  157.4890  131.8710 O   0  0  0  0  0  0  0  0  0  0  0  0
  142.6180  158.8550  133.8390 C   0  0  1  0  0  0  0  0  0  0  0  0
  141.7830  159.7290  133.0110 N   0  0  0  0  0  0  0  0  0  0  0  0
  141.7840  158.2010  134.9620 C   0  0  0  0  0  0  0  0  0  0  0  0
  140.2960  158.1090  134.6010 C   0  0  0  0  0  0  0  0  0  0  0  0
  140.1140  157.3860  133.3040 C   0  0  0  0  0  0  0  0  0  0  0  0
  140.0110  158.0310  132.2290 O   0  0  0  0  0  0  0  0  0  0  0  0
  140.0080  156.0010  133.2900 O   0  0  0  0  0  0  0  0  0  0  0  0
  142.0910  155.7040  132.6150 H   0  0  0  0  0  0  0  0  0  0  0  0
  141.4260  154.3310  133.5590 H   0  0  0  0  0  0  0  0  0  0  0  0
  146.2650  154.5483  134.5044 H   0  0  0  0  0  0  0  0  0  0  0  0
  148.6564  156.0980  134.2439 H   0  0  0  0  0  0  0  0  0  0  0  0
  149.5124  158.3550  133.5234 H   0  0  0  0  0  0  0  0  0  0  0  0
  147.3094  160.9305  131.9128 H   0  0  0  0  0  0  0  0  0  0  0  0
  148.2212  161.1185  133.4497 H   0  0  0  0  0  0  0  0  0  0  0  0
  145.4342  159.6144  132.6307 H   0  0  0  0  0  0  0  0  0  0  0  0
  143.4027  159.4569  134.3207 H   0  0  0  0  0  0  0  0  0  0  0  0
  140.8080  159.7170  133.3890 H   0  0  0  0  0  0  0  0  0  0  0  0
  141.7420  159.3520  132.0350 H   0  0  0  0  0  0  0  0  0  0  0  0
  142.1679  157.1862  135.1430 H   0  0  0  0  0  0  0  0  0  0  0  0
  141.8751  158.8299  135.8599 H   0  0  0  0  0  0  0  0  0  0  0  0
  139.7638  157.5657  135.3958 H   0  0  0  0  0  0  0  0  0  0  0  0
  139.8914  159.1269  134.5001 H   0  0  0  0  0  0  0  0  0  0  0  0
  1  2  1  0
  2  3  2  0
  2  4  1  0
  4  5  2  0
  5  6  1  0
  6  7  2  0
  7  8  1  0
  8  9  2  0
  9 10  1  0
 10 11  1  0
  9 12  1  0
 12 13  2  0
 13 14  1  0
 14 15  1  0
 15 16  2  0
 15 17  1  0
 17 18  1  0
 17 19  1  0
 19 20  1  0
 20 21  1  0
 21 22  2  0
 21 23  1  0
 14  4  1  0
 13  6  1  0
  1 24  1  0
  1 25  1  0
  5 26  1  0
  7 27  1  0
  8 28  1  0
 10 29  1  0
 10 30  1  0
 12 31  1  0
 17 32  1  1
 18 33  1  0
 18 34  1  0
 19 35  1  0
 19 36  1  0
 20 37  1  0
 20 38  1  0
M  CHG  1  23  -1
M  END
>  <UniqueID>  (94) 
94

>  <SMILES>  (94) 
NC(=O)c1cc2ccc(CF)cc2n1C(=O)[C@@H](N)CCC(=O)[O-]

>  <Energy>  (94) 
70.77599448698166

>  <Genealogy>  (94) 
NC(=O)c1cc2ccc(CF)cc2n1C(=O)[C@@H](N)CCC(=O)[O-] (protonated)
NC(=O)c1cc2ccc(CF)cc2n1C(=O)[C@@H](N)CCC(=O)[O-] (3D coordinates assigned)
NC(=O)c1cc2ccc(CF)cc2n1C(=O)[C@@H](N)CCC(=O)[O-] (optimized conformer: 70.77599448698166 kcal/mol)

>  <smiles>  (94) 
NC(=O)c1cc2ccc(CF)cc2n1C(=O)[C@@H](N)CCC(=O)O

>  <score_type>  (94) 
oracle

>  <origin>  (94) 
adg

>  <m_score__min__energy>  (94) 
-7.9900000000000002

>  <m_primary>  (94) 
energy

$$$$
95:0
     RDKit          3D

 60 62  0  0  0  0  0  0  0  0999 V2000
  146.5560  159.2020  133.0200 C   0  0  0  0  0  0  0  0  0  0  0  0
  148.2660  158.6130  133.2590 S   0  0  0  0  0  0  0  0  0  0  0  0
  147.8040  156.8490  133.3720 C   0  0  0  0  0  0  0  0  0  0  0  0
  147.1830  156.4970  134.7380 C   0  0  0  0  0  0  0  0  0  0  0  0
  146.4400  155.1410  134.8040 C   0  0  2  0  0  0  0  0  0  0  0  0
  144.9930  155.3410  134.7760 N   0  0  0  0  0  0  0  0  0  0  0  0
  144.2930  156.0110  133.7220 C   0  0  0  0  0  0  0  0  0  0  0  0
  144.2270  155.4920  132.5740 O   0  0  0  0  0  0  0  0  0  0  0  0
  143.6190  157.3260  133.9740 C   0  0  0  0  0  0  0  0  0  0  0  0
  142.1600  157.1630  134.1120 N   0  0  0  0  0  0  0  0  0  0  0  0
  141.3480  158.3480  134.4330 C   0  0  0  0  0  0  0  0  0  0  0  0
  140.2900  158.5550  133.3830 C   0  0  0  0  0  0  0  0  0  0  0  0
  140.5710  159.2820  132.2150 C   0  0  0  0  0  0  0  0  0  0  0  0
  139.5630  159.5080  131.2730 C   0  0  0  0  0  0  0  0  0  0  0  0
  138.2800  159.0060  131.5090 C   0  0  0  0  0  0  0  0  0  0  0  0
  138.0220  158.3020  132.6450 N   0  0  0  0  0  0  0  0  0  0  0  0
  138.9870  158.0690  133.5770 C   0  0  0  0  0  0  0  0  0  0  0  0
  141.5350  155.8650  133.9590 C   0  0  0  0  0  0  0  0  0  0  0  0
  140.7880  155.6250  132.9640 O   0  0  0  0  0  0  0  0  0  0  0  0
  141.6890  154.8550  134.9650 N   0  0  0  0  0  0  0  0  0  0  0  0
  141.9340  153.5280  134.7830 C   0  0  0  0  0  0  0  0  0  0  0  0
  141.9600  152.8260  133.4860 C   0  0  0  0  0  0  0  0  0  0  0  0
  142.3600  153.4920  132.2900 N   0  0  0  0  0  0  0  0  0  0  0  0
  141.5830  151.6260  133.4250 O   0  0  0  0  0  0  0  0  0  0  0  0
  142.2160  152.9150  136.0020 C   0  0  0  0  0  0  0  0  0  0  0  0
  142.1260  153.9190  136.9420 C   0  0  0  0  0  0  0  0  0  0  0  0
  142.3200  153.8820  138.3190 C   0  0  0  0  0  0  0  0  0  0  0  0
  142.1880  155.0860  139.0340 C   0  0  0  0  0  0  0  0  0  0  0  0
  141.8880  156.2970  138.3610 C   0  0  0  0  0  0  0  0  0  0  0  0
  141.7100  157.5670  139.1310 C   0  0  0  0  0  0  0  0  0  0  0  0
  141.6920  156.2930  136.9640 C   0  0  0  0  0  0  0  0  0  0  0  0
  141.8160  155.0800  136.2850 C   0  0  0  0  0  0  0  0  0  0  0  0
  146.8450  154.3450  136.0130 C   0  0  0  0  0  0  0  0  0  0  0  0
  146.1420  153.3650  136.3830 O   0  0  0  0  0  0  0  0  0  0  0  0
  148.0020  154.6600  136.7200 O   0  0  0  0  0  0  0  0  0  0  0  0
  146.0839  159.3646  134.0001 H   0  0  0  0  0  0  0  0  0  0  0  0
  146.5690  160.1474  132.4579 H   0  0  0  0  0  0  0  0  0  0  0  0
  145.9840  158.4491  132.4579 H   0  0  0  0  0  0  0  0  0  0  0  0
  147.0732  156.6227  132.5816 H   0  0  0  0  0  0  0  0  0  0  0  0
  148.7198  156.2514  133.2529 H   0  0  0  0  0  0  0  0  0  0  0  0
  147.9923  156.4763  135.4827 H   0  0  0  0  0  0  0  0  0  0  0  0
  146.4219  157.2674  134.9306 H   0  0  0  0  0  0  0  0  0  0  0  0
  146.7286  154.5618  133.9145 H   0  0  0  0  0  0  0  0  0  0  0  0
  144.0200  157.7623  134.9008 H   0  0  0  0  0  0  0  0  0  0  0  0
  143.8148  157.9863  133.1163 H   0  0  0  0  0  0  0  0  0  0  0  0
  140.8656  158.2035  135.4110 H   0  0  0  0  0  0  0  0  0  0  0  0
  142.0012  159.2326  134.4626 H   0  0  0  0  0  0  0  0  0  0  0  0
  141.5841  159.6736  132.0412 H   0  0  0  0  0  0  0  0  0  0  0  0
  139.7774  160.0752  130.3552 H   0  0  0  0  0  0  0  0  0  0  0  0
  137.4783  159.1800  130.7762 H   0  0  0  0  0  0  0  0  0  0  0  0
  138.7449  157.4978  134.4854 H   0  0  0  0  0  0  0  0  0  0  0  0
  142.5190  154.5210  132.2680 H   0  0  0  0  0  0  0  0  0  0  0  0
  142.3860  152.9700  131.3880 H   0  0  0  0  0  0  0  0  0  0  0  0
  142.4585  151.8564  136.1768 H   0  0  0  0  0  0  0  0  0  0  0  0
  142.5687  152.9414  138.8322 H   0  0  0  0  0  0  0  0  0  0  0  0
  142.3189  155.0879  140.1262 H   0  0  0  0  0  0  0  0  0  0  0  0
  141.7405  157.3496  140.2089 H   0  0  0  0  0  0  0  0  0  0  0  0
  142.5188  158.2673  138.8752 H   0  0  0  0  0  0  0  0  0  0  0  0
  140.7399  158.0180  138.8752 H   0  0  0  0  0  0  0  0  0  0  0  0
  141.4482  157.2203  136.4248 H   0  0  0  0  0  0  0  0  0  0  0  0
  1  2  1  0
  2  3  1  0
  3  4  1  0
  4  5  1  0
  5  6  1  0
  6  7  1  0
  7  8  2  0
  7  9  1  0
  9 10  1  0
 10 11  1  0
 11 12  1  0
 12 13  2  0
 13 14  1  0
 14 15  2  0
 15 16  1  0
 16 17  2  0
 10 18  1  0
 18 19  2  0
 18 20  1  0
 20 21  1  0
 21 22  1  0
 22 23  1  0
 22 24  2  0
 21 25  2  0
 25 26  1  0
 26 27  2  0
 27 28  1  0
 28 29  2  0
 29 30  1  0
 29 31  1  0
 31 32  2  0
  5 33  1  0
 33 34  2  0
 33 35  1  0
 17 12  1  0
 32 20  1  0
 32 26  1  0
  1 36  1  0
  1 37  1  0
  1 38  1  0
  3 39  1  0
  3 40  1  0
  4 41  1  0
  4 42  1  0
  5 43  1  6
  9 44  1  0
  9 45  1  0
 11 46  1  0
 11 47  1  0
 13 48  1  0
 14 49  1  0
 15 50  1  0
 17 51  1  0
 23 52  1  0
 23 53  1  0
 25 54  1  0
 27 55  1  0
 28 56  1  0
 30 57  1  0
 30 58  1  0
 30 59  1  0
 31 60  1  0
M  CHG  2   6  -1  35  -1
M  END
>  <UniqueID>  (95) 
95

>  <SMILES>  (95) 
CSCC[C@H]([N-]C(=O)CN(Cc1cccnc1)C(=O)n1c(C(N)=O)cc2ccc(C)cc21)C(=O)[O-]

>  <Energy>  (95) 
92.83910015312937

>  <Genealogy>  (95) 
CSCCC([N-]C(=O)CN(Cc1cccnc1)C(=O)n1c(C(N)=O)cc2ccc(C)cc21)C(=O)[O-] (protonated)
CSCC[C@H]([N-]C(=O)CN(Cc1cccnc1)C(=O)n1c(C(N)=O)cc2ccc(C)cc21)C(=O)[O-] (chirality)
CSCC[C@H]([N-]C(=O)CN(Cc1cccnc1)C(=O)n1c(C(N)=O)cc2ccc(C)cc21)C(=O)[O-] (3D coordinates assigned)
CSCC[C@H]([N-]C(=O)CN(Cc1cccnc1)C(=O)n1c(C(N)=O)cc2ccc(C)cc21)C(=O)[O-] (optimized conformer: 92.83910015312937 kcal/mol)

>  <smiles>  (95) 
CSCCC(NC(=O)CN(Cc1cccnc1)C(=O)n1c(C(N)=O)cc2ccc(C)cc21)C(=O)O

>  <score_type>  (95) 
oracle

>  <origin>  (95) 
adg

>  <m_score__min__energy>  (95) 
-10.050000000000001

>  <m_primary>  (95) 
energy

$$$$
96:0
     RDKit          3D

 34 35  0  0  0  0  0  0  0  0999 V2000
  145.1200  154.5260  137.1320 H   0  0  0  0  0  0  0  0  0  0  0  0
  144.6760  154.1270  136.2770 N   0  0  0  0  0  0  0  0  0  0  0  0
  144.2980  154.9660  135.1870 C   0  0  0  0  0  0  0  0  0  0  0  0
  143.1370  154.8680  134.7080 O   0  0  0  0  0  0  0  0  0  0  0  0
  145.2550  155.9270  134.5960 C   0  0  0  0  0  0  0  0  0  0  0  0
  146.6390  155.7800  134.6630 C   0  0  0  0  0  0  0  0  0  0  0  0
  147.1998  154.9522  135.1215 H   0  0  0  0  0  0  0  0  0  0  0  0
  147.1560  156.8900  134.0340 C   0  0  0  0  0  0  0  0  0  0  0  0
  148.4780  157.2480  133.7880 C   0  0  0  0  0  0  0  0  0  0  0  0
  149.3102  156.6198  134.1384 H   0  0  0  0  0  0  0  0  0  0  0  0
  148.7170  158.4370  133.0780 C   0  0  0  0  0  0  0  0  0  0  0  0
  149.7513  158.7469  132.8678 H   0  0  0  0  0  0  0  0  0  0  0  0
  147.6390  159.2410  132.6300 C   0  0  0  0  0  0  0  0  0  0  0  0
  147.9070  160.4860  131.8350 C   0  0  0  0  0  0  0  0  0  0  0  0
  147.0337  160.7110  131.2052 H   0  0  0  0  0  0  0  0  0  0  0  0
  148.0946  161.3217  132.5253 H   0  0  0  0  0  0  0  0  0  0  0  0
  149.0840  160.2930  130.9820 C   0  0  0  0  0  0  0  0  0  0  0  0
  150.0130  160.1400  130.3090 N   0  0  0  0  0  0  0  0  0  0  0  0
  146.3100  158.8380  132.8870 C   0  0  0  0  0  0  0  0  0  0  0  0
  145.4596  159.4349  132.5257 H   0  0  0  0  0  0  0  0  0  0  0  0
  146.1030  157.6600  133.6130 C   0  0  0  0  0  0  0  0  0  0  0  0
  144.9310  157.0850  133.9550 N   0  0  0  0  0  0  0  0  0  0  0  0
  143.6190  157.5680  133.6300 C   0  0  0  0  0  0  0  0  0  0  0  0
  143.3120  157.7370  132.4200 O   0  0  0  0  0  0  0  0  0  0  0  0
  142.6820  157.9270  134.7190 C   0  0  0  0  0  0  0  0  0  0  0  0
  142.3502  157.1119  135.3790 H   0  0  0  0  0  0  0  0  0  0  0  0
  142.1960  159.1600  134.9790 C   0  0  0  0  0  0  0  0  0  0  0  0
  142.4040  160.3300  134.0970 C   0  0  0  0  0  0  0  0  0  0  0  0
  141.4270  160.9890  133.6570 O   0  0  0  0  0  0  0  0  0  0  0  0
  143.6950  160.7620  133.8170 O   0  0  0  0  0  0  0  0  0  0  0  0
  141.4150  159.3670  136.2470 C   0  0  0  0  0  0  0  0  0  0  0  0
  142.0700  159.1934  137.1135 H   0  0  0  0  0  0  0  0  0  0  0  0
  141.0319  160.3977  136.2776 H   0  0  0  0  0  0  0  0  0  0  0  0
  140.5717  158.6614  136.2776 H   0  0  0  0  0  0  0  0  0  0  0  0
  1  2  1  0
  2  3  1  0
  3  4  2  0
  3  5  1  0
  5  6  2  0
  6  7  1  0
  6  8  1  0
  8  9  2  0
  9 10  1  0
  9 11  1  0
 11 12  1  0
 11 13  2  0
 13 14  1  0
 14 15  1  0
 14 16  1  0
 14 17  1  0
 17 18  3  0
 13 19  1  0
 19 20  1  0
 19 21  2  0
 21 22  1  0
 22 23  1  0
 23 24  2  0
 23 25  1  0
 25 26  1  0
 25 27  2  0
 27 28  1  0
 28 29  2  0
 28 30  1  0
 27 31  1  0
 31 32  1  0
 31 33  1  0
 31 34  1  0
 22  5  1  0
 21  8  1  0
M  CHG  2   2  -1  30  -1
M  END
>  <UniqueID>  (96) 
96

>  <SMILES>  (96) 
C/C(=C/C(=O)n1c(C([NH-])=O)cc2ccc(CC#N)cc21)C(=O)[O-]

>  <Energy>  (96) 
78.74684162891968

>  <Genealogy>  (96) 
CC(=CC(=O)n1c(C([NH-])=O)cc2ccc(CC#N)cc21)C(=O)[O-] (protonated)
C/C(=C/C(=O)n1c(C([NH-])=O)cc2ccc(CC#N)cc21)C(=O)[O-] (cis-trans isomerization)
C/C(=C/C(=O)n1c(C([NH-])=O)cc2ccc(CC#N)cc21)C(=O)[O-] (3D coordinates assigned)
C/C(=C/C(=O)n1c(C([NH-])=O)cc2ccc(CC#N)cc21)C(=O)[O-] (optimized conformer: 78.74684162891968 kcal/mol)

>  <smiles>  (96) 
CC(=CC(=O)n1c(C(N)=O)cc2ccc(CC#N)cc21)C(=O)O

>  <score_type>  (96) 
oracle

>  <origin>  (96) 
adg

>  <m_score__min__energy>  (96) 
-8.1099999999999994

>  <m_primary>  (96) 
energy

$$$$
