0:0
     RDKit          3D

 41 42  0  0  0  0  0  0  0  0999 V2000
  141.2830  154.9460  134.6190 C   0  0  0  0  0  0  0  0  0  0  0  0
  141.5300  156.3900  134.7750 N   0  0  1  0  0  0  0  0  0  0  0  0
  142.1310  156.7730  136.0810 C   0  0  0  0  0  0  0  0  0  0  0  0
  141.2000  157.4440  137.1380 C   0  0  2  0  0  0  0  0  0  0  0  0
  139.8440  157.1880  136.8770 O   0  0  0  0  0  0  0  0  0  0  0  0
  141.4300  158.9620  137.2670 C   0  0  0  0  0  0  0  0  0  0  0  0
  140.2690  159.6730  136.9350 O   0  0  0  0  0  0  0  0  0  0  0  0
  142.2510  156.9490  133.6490 C   0  0  0  0  0  0  0  0  0  0  0  0
  142.6380  156.2150  132.6980 O   0  0  0  0  0  0  0  0  0  0  0  0
  142.5380  158.3560  133.6040 N   0  0  0  0  0  0  0  0  0  0  0  0
  141.6560  159.3920  133.6900 C   0  0  0  0  0  0  0  0  0  0  0  0
  140.1810  159.2810  133.7270 C   0  0  0  0  0  0  0  0  0  0  0  0
  139.5330  158.3810  134.6190 N   0  0  0  0  0  0  0  0  0  0  0  0
  139.4810  159.9830  132.9450 O   0  0  0  0  0  0  0  0  0  0  0  0
  142.3350  160.6080  133.7300 C   0  0  0  0  0  0  0  0  0  0  0  0
  143.6710  160.2830  133.6800 C   0  0  0  0  0  0  0  0  0  0  0  0
  144.7920  161.1020  133.7600 C   0  0  0  0  0  0  0  0  0  0  0  0
  146.0570  160.4880  133.7630 C   0  0  0  0  0  0  0  0  0  0  0  0
  146.1780  159.0750  133.6840 C   0  0  0  0  0  0  0  0  0  0  0  0
  147.5310  158.4180  133.7630 C   0  0  0  0  0  0  0  0  0  0  0  0
  148.4850  159.3060  134.2310 F   0  0  0  0  0  0  0  0  0  0  0  0
  147.9250  157.9750  132.5120 F   0  0  0  0  0  0  0  0  0  0  0  0
  147.4610  157.3380  134.6250 F   0  0  0  0  0  0  0  0  0  0  0  0
  145.0110  158.2790  133.6370 C   0  0  0  0  0  0  0  0  0  0  0  0
  143.7660  158.9190  133.6090 C   0  0  0  0  0  0  0  0  0  0  0  0
  141.2030  154.4784  135.6114 H   0  0  0  0  0  0  0  0  0  0  0  0
  140.3455  154.7922  134.0645 H   0  0  0  0  0  0  0  0  0  0  0  0
  142.1161  154.4893  134.0645 H   0  0  0  0  0  0  0  0  0  0  0  0
  140.5830  156.8320  134.7720 H   0  0  0  0  0  0  0  0  0  0  0  0
  142.5390  155.8583  136.5359 H   0  0  0  0  0  0  0  0  0  0  0  0
  142.8711  157.5473  135.8304 H   0  0  0  0  0  0  0  0  0  0  0  0
  141.4708  156.9840  138.0998 H   0  0  0  0  0  0  0  0  0  0  0  0
  139.5690  157.7830  136.1290 H   0  0  0  0  0  0  0  0  0  0  0  0
  141.7121  159.1968  138.3040 H   0  0  0  0  0  0  0  0  0  0  0  0
  142.2327  159.2562  136.5748 H   0  0  0  0  0  0  0  0  0  0  0  0
  139.5740  158.9980  136.7240 H   0  0  0  0  0  0  0  0  0  0  0  0
  139.0810  158.7260  135.4950 H   0  0  0  0  0  0  0  0  0  0  0  0
  141.8959  161.6148  133.7891 H   0  0  0  0  0  0  0  0  0  0  0  0
  144.6923  162.1959  133.8191 H   0  0  0  0  0  0  0  0  0  0  0  0
  146.9628  161.1088  133.8272 H   0  0  0  0  0  0  0  0  0  0  0  0
  145.0794  157.1812  133.6227 H   0  0  0  0  0  0  0  0  0  0  0  0
  1  2  1  0
  2  3  1  0
  3  4  1  0
  4  5  1  0
  4  6  1  0
  6  7  1  0
  2  8  1  0
  8  9  2  0
  8 10  1  0
 10 11  1  0
 11 12  1  0
 12 13  1  0
 12 14  2  0
 11 15  2  0
 15 16  1  0
 16 17  2  0
 17 18  1  0
 18 19  2  0
 19 20  1  0
 20 21  1  0
 20 22  1  0
 20 23  1  0
 19 24  1  0
 24 25  2  0
 25 10  1  0
 25 16  1  0
  1 26  1  0
  1 27  1  0
  1 28  1  0
  2 29  1  1
  3 30  1  0
  3 31  1  0
  4 32  1  1
  5 33  1  0
  6 34  1  0
  6 35  1  0
  7 36  1  0
 13 37  1  0
 15 38  1  0
 17 39  1  0
 18 40  1  0
 24 41  1  0
M  CHG  2   2   1  13  -1
M  END
>  <UniqueID>  (1) 
1

>  <SMILES>  (1) 
C[N@@H+](C[C@H](O)CO)C(=O)n1c(C([NH-])=O)cc2ccc(C(F)(F)F)cc21

>  <Energy>  (1) 
90.34903663700625

>  <Genealogy>  (1) 
C[NH+](CC(O)CO)C(=O)n1c(C([NH-])=O)cc2ccc(C(F)(F)F)cc21 (protonated)
C[N@@H+](C[C@H](O)CO)C(=O)n1c(C([NH-])=O)cc2ccc(C(F)(F)F)cc21 (chirality)
C[N@@H+](C[C@H](O)CO)C(=O)n1c(C([NH-])=O)cc2ccc(C(F)(F)F)cc21 (3D coordinates assigned)
C[N@@H+](C[C@H](O)CO)C(=O)n1c(C([NH-])=O)cc2ccc(C(F)(F)F)cc21 (optimized conformer: 90.34903663700625 kcal/mol)

>  <smiles>  (1) 
CN(CC(O)CO)C(=O)n1c(C(N)=O)cc2ccc(C(F)(F)F)cc21

>  <score_type>  (1) 
oracle

>  <origin>  (1) 
adg

>  <m_score__min__energy>  (1) 
-4.3899999999999997

>  <m_primary>  (1) 
energy

$$$$
1:0
     RDKit          3D

 39 41  0  0  0  0  0  0  0  0999 V2000
  146.1030  153.8890  134.3750 N   0  0  0  0  0  0  0  0  0  0  0  0
  144.9990  154.0740  133.4920 C   0  0  0  0  0  0  0  0  0  0  0  0
  144.8220  155.1980  132.9520 O   0  0  0  0  0  0  0  0  0  0  0  0
  144.0840  152.9580  133.1760 C   0  0  0  0  0  0  0  0  0  0  0  0
  144.5110  151.7090  132.7350 C   0  0  0  0  0  0  0  0  0  0  0  0
  143.3670  150.9560  132.6080 C   0  0  0  0  0  0  0  0  0  0  0  0
  143.2030  149.6420  132.1810 C   0  0  0  0  0  0  0  0  0  0  0  0
  141.8970  149.1310  132.1060 C   0  0  0  0  0  0  0  0  0  0  0  0
  140.7840  149.9450  132.4360 C   0  0  0  0  0  0  0  0  0  0  0  0
  139.3960  149.3810  132.3800 C   0  0  0  0  0  0  0  0  0  0  0  0
  138.9050  148.8660  130.3670 I   0  0  0  0  0  0  0  0  0  0  0  0
  140.9890  151.2730  132.8700 C   0  0  0  0  0  0  0  0  0  0  0  0
  142.3030  151.7460  132.9580 C   0  0  0  0  0  0  0  0  0  0  0  0
  142.7280  152.9790  133.3120 N   0  0  0  0  0  0  0  0  0  0  0  0
  141.8990  154.1020  133.6490 C   0  0  0  0  0  0  0  0  0  0  0  0
  141.0080  153.9740  134.5330 O   0  0  0  0  0  0  0  0  0  0  0  0
  142.0900  155.3620  132.9950 N   0  0  0  0  0  0  0  0  0  0  0  0
  141.3530  156.5650  133.3950 C   0  0  2  0  0  0  0  0  0  0  0  0
  139.8430  156.3890  133.1630 C   0  0  0  0  0  0  0  0  0  0  0  0
  139.1870  157.7670  133.2230 C   0  0  0  0  0  0  0  0  0  0  0  0
  140.4270  158.8950  132.6590 S   0  0  0  0  0  0  0  0  0  0  0  0
  140.1000  159.4490  131.3010 O   0  0  0  0  0  0  0  0  0  0  0  0
  140.6520  160.0050  133.6470 O   0  0  0  0  0  0  0  0  0  0  0  0
  141.8060  157.7930  132.6000 C   0  0  0  0  0  0  0  0  0  0  0  0
  146.6260  152.9860  134.3990 H   0  0  0  0  0  0  0  0  0  0  0  0
  145.5442  151.3914  132.5312 H   0  0  0  0  0  0  0  0  0  0  0  0
  144.0703  149.0219  131.9103 H   0  0  0  0  0  0  0  0  0  0  0  0
  141.7362  148.0902  131.7885 H   0  0  0  0  0  0  0  0  0  0  0  0
  139.3417  148.4814  133.0107 H   0  0  0  0  0  0  0  0  0  0  0  0
  138.6829  150.1342  132.7464 H   0  0  0  0  0  0  0  0  0  0  0  0
  140.1380  151.9188  133.1321 H   0  0  0  0  0  0  0  0  0  0  0  0
  142.7940  155.4160  132.2240 H   0  0  0  0  0  0  0  0  0  0  0  0
  141.5612  156.7158  134.4645 H   0  0  0  0  0  0  0  0  0  0  0  0
  139.6683  155.9361  132.1759 H   0  0  0  0  0  0  0  0  0  0  0  0
  139.4146  155.7304  133.9329 H   0  0  0  0  0  0  0  0  0  0  0  0
  138.3050  157.8034  132.5667 H   0  0  0  0  0  0  0  0  0  0  0  0
  138.8379  158.0126  134.2368 H   0  0  0  0  0  0  0  0  0  0  0  0
  142.0395  157.5184  131.5608 H   0  0  0  0  0  0  0  0  0  0  0  0
  142.7193  158.2448  133.0145 H   0  0  0  0  0  0  0  0  0  0  0  0
  1  2  1  0
  2  3  2  0
  2  4  1  0
  4  5  2  0
  5  6  1  0
  6  7  2  0
  7  8  1  0
  8  9  2  0
  9 10  1  0
 10 11  1  0
  9 12  1  0
 12 13  2  0
 13 14  1  0
 14 15  1  0
 15 16  2  0
 15 17  1  0
 17 18  1  0
 18 19  1  0
 19 20  1  0
 20 21  1  0
 21 22  2  0
 21 23  2  0
 21 24  1  0
 14  4  1  0
 24 18  1  0
 13  6  1  0
  1 25  1  0
  5 26  1  0
  7 27  1  0
  8 28  1  0
 10 29  1  0
 10 30  1  0
 12 31  1  0
 17 32  1  0
 18 33  1  1
 19 34  1  0
 19 35  1  0
 20 36  1  0
 20 37  1  0
 24 38  1  0
 24 39  1  0
M  CHG  1   1  -1
M  END
>  <UniqueID>  (2) 
2

>  <SMILES>  (2) 
[NH-]C(=O)c1cc2ccc(CI)cc2n1C(=O)N[C@@H]1CCS(=O)(=O)C1

>  <Energy>  (2) 
74.10299718169696

>  <Genealogy>  (2) 
[NH-]C(=O)c1cc2ccc(CI)cc2n1C(=O)N[C@@H]1CCS(=O)(=O)C1 (protonated)
[NH-]C(=O)c1cc2ccc(CI)cc2n1C(=O)N[C@@H]1CCS(=O)(=O)C1 (3D coordinates assigned)
[NH-]C(=O)c1cc2ccc(CI)cc2n1C(=O)N[C@@H]1CCS(=O)(=O)C1 (nonaromatic ring conformer: 74.10299718169696 kcal/mol)

>  <smiles>  (2) 
NC(=O)c1cc2ccc(CI)cc2n1C(=O)N[C@@H]1CCS(=O)(=O)C1

>  <score_type>  (2) 
oracle

>  <origin>  (2) 
adg

>  <m_score__min__energy>  (2) 
-8.8399999999999999

>  <m_primary>  (2) 
energy

$$$$
2:0
     RDKit          3D

 47 48  0  0  0  0  0  0  0  0999 V2000
  140.6160  158.9870  133.4050 C   0  0  0  0  0  0  0  0  0  0  0  0
  142.0370  159.4510  133.5280 C   0  0  0  0  0  0  0  0  0  0  0  0
  142.3230  160.8280  133.7080 C   0  0  0  0  0  0  0  0  0  0  0  0
  143.6520  161.2780  133.7820 C   0  0  0  0  0  0  0  0  0  0  0  0
  144.6690  160.3340  133.6730 C   0  0  0  0  0  0  0  0  0  0  0  0
  146.0370  160.4960  133.6820 C   0  0  0  0  0  0  0  0  0  0  0  0
  146.5600  159.2150  133.5140 C   0  0  0  0  0  0  0  0  0  0  0  0
  148.0070  158.9180  133.5260 C   0  0  0  0  0  0  0  0  0  0  0  0
  148.4950  157.6000  133.7820 N   0  0  0  0  0  0  0  0  0  0  0  0
  148.8310  159.8550  133.3490 O   0  0  0  0  0  0  0  0  0  0  0  0
  145.5560  158.3010  133.3910 N   0  0  0  0  0  0  0  0  0  0  0  0
  145.6610  156.9050  133.0700 C   0  0  0  0  0  0  0  0  0  0  0  0
  146.6370  156.4940  132.3880 O   0  0  0  0  0  0  0  0  0  0  0  0
  144.6870  155.9150  133.6370 C   0  0  0  0  0  0  0  0  0  0  0  0
  144.8480  155.8230  135.1560 C   0  0  0  0  0  0  0  0  0  0  0  0
  145.7570  154.7220  135.5020 N   0  0  0  0  0  0  0  0  0  0  0  0
  145.3350  153.6960  136.4610 C   0  0  0  0  0  0  0  0  0  0  0  0
  147.0470  154.6090  134.8760 C   0  0  0  0  0  0  0  0  0  0  0  0
  148.0620  155.1270  135.4200 O   0  0  0  0  0  0  0  0  0  0  0  0
  147.1700  153.9250  133.6590 O   0  0  0  0  0  0  0  0  0  0  0  0
  148.3190  153.1670  133.2820 C   0  0  2  0  0  0  0  0  0  0  0  0
  148.8790  152.6290  134.4270 F   0  0  0  0  0  0  0  0  0  0  0  0
  149.3670  154.0630  132.6020 C   0  0  0  0  0  0  0  0  0  0  0  0
  149.0230  155.4800  132.6760 N   0  0  0  0  0  0  0  0  0  0  0  0
  144.4060  159.0010  133.4960 C   0  0  0  0  0  0  0  0  0  0  0  0
  143.0940  158.5240  133.4000 C   0  0  0  0  0  0  0  0  0  0  0  0
  140.1878  158.8472  134.4085 H   0  0  0  0  0  0  0  0  0  0  0  0
  140.0303  159.7405  132.8581 H   0  0  0  0  0  0  0  0  0  0  0  0
  140.5878  158.0330  132.8581 H   0  0  0  0  0  0  0  0  0  0  0  0
  141.4974  161.5502  133.7904 H   0  0  0  0  0  0  0  0  0  0  0  0
  143.8819  162.3446  133.9219 H   0  0  0  0  0  0  0  0  0  0  0  0
  146.5970  161.4357  133.7972 H   0  0  0  0  0  0  0  0  0  0  0  0
  147.8620  156.8420  134.1180 H   0  0  0  0  0  0  0  0  0  0  0  0
  149.5190  157.4030  133.7270 H   0  0  0  0  0  0  0  0  0  0  0  0
  143.6624  156.2369  133.3994 H   0  0  0  0  0  0  0  0  0  0  0  0
  144.8830  154.9267  133.1956 H   0  0  0  0  0  0  0  0  0  0  0  0
  145.2613  156.7690  135.5359 H   0  0  0  0  0  0  0  0  0  0  0  0
  143.8646  155.6343  135.6113 H   0  0  0  0  0  0  0  0  0  0  0  0
  145.4875  154.0667  137.4854 H   0  0  0  0  0  0  0  0  0  0  0  0
  144.2699  153.4675  136.3085 H   0  0  0  0  0  0  0  0  0  0  0  0
  145.9311  152.7842  136.3085 H   0  0  0  0  0  0  0  0  0  0  0  0
  148.0135  152.3799  132.5769 H   0  0  0  0  0  0  0  0  0  0  0  0
  150.3373  153.9091  133.0969 H   0  0  0  0  0  0  0  0  0  0  0  0
  149.4067  153.7835  131.5388 H   0  0  0  0  0  0  0  0  0  0  0  0
  148.5880  155.7800  131.7740 H   0  0  0  0  0  0  0  0  0  0  0  0
  148.3260  155.6250  133.4420 H   0  0  0  0  0  0  0  0  0  0  0  0
  142.8918  157.4563  133.2295 H   0  0  0  0  0  0  0  0  0  0  0  0
  1  2  1  0
  2  3  2  0
  3  4  1  0
  4  5  2  0
  5  6  1  0
  6  7  2  0
  7  8  1  0
  8  9  1  0
  8 10  2  0
  7 11  1  0
 11 12  1  0
 12 13  2  0
 12 14  1  0
 14 15  1  0
 15 16  1  0
 16 17  1  0
 16 18  1  0
 18 19  2  0
 18 20  1  0
 20 21  1  0
 21 22  1  0
 21 23  1  0
 23 24  1  0
 11 25  1  0
 25 26  2  0
 26  2  1  0
 25  5  1  0
  1 27  1  0
  1 28  1  0
  1 29  1  0
  3 30  1  0
  4 31  1  0
  6 32  1  0
  9 33  1  0
  9 34  1  0
 14 35  1  0
 14 36  1  0
 15 37  1  0
 15 38  1  0
 17 39  1  0
 17 40  1  0
 17 41  1  0
 21 42  1  6
 23 43  1  0
 23 44  1  0
 24 45  1  0
 24 46  1  0
 26 47  1  0
M  END
>  <UniqueID>  (3) 
3

>  <SMILES>  (3) 
Cc1ccc2cc(C(N)=O)n(C(=O)CCN(C)C(=O)O[C@H](F)CN)c2c1

>  <Energy>  (3) 
77.40794435155095

>  <Genealogy>  (3) 
Cc1ccc2cc(C(N)=O)n(C(=O)CCN(C)C(=O)O[C@H](F)CN)c2c1 (chirality)
Cc1ccc2cc(C(N)=O)n(C(=O)CCN(C)C(=O)O[C@H](F)CN)c2c1 (3D coordinates assigned)
Cc1ccc2cc(C(N)=O)n(C(=O)CCN(C)C(=O)O[C@H](F)CN)c2c1 (optimized conformer: 77.40794435155095 kcal/mol)

>  <smiles>  (3) 
Cc1ccc2cc(C(N)=O)n(C(=O)CCN(C)C(=O)OC(F)CN)c2c1

>  <score_type>  (3) 
oracle

>  <origin>  (3) 
adg

>  <m_score__min__energy>  (3) 
-7.2300000000000004

>  <m_primary>  (3) 
energy

$$$$
3:0
     RDKit          3D

 59 61  0  0  0  0  0  0  0  0999 V2000
  149.6240  155.1840  138.2250 C   0  0  0  0  0  0  0  0  0  0  0  0
  148.4400  154.4760  137.9350 O   0  0  0  0  0  0  0  0  0  0  0  0
  148.1460  153.5970  139.0010 C   0  0  0  0  0  0  0  0  0  0  0  0
  147.2480  152.4740  138.4980 C   0  0  0  0  0  0  0  0  0  0  0  0
  146.9450  152.6920  137.1240 O   0  0  0  0  0  0  0  0  0  0  0  0
  146.0520  153.6760  136.6830 C   0  0  0  0  0  0  0  0  0  0  0  0
  144.8370  153.6330  137.0310 O   0  0  0  0  0  0  0  0  0  0  0  0
  146.5190  154.7530  135.8380 N   0  0  0  0  0  0  0  0  0  0  0  0
  145.3850  155.5730  135.3270 C   0  0  0  0  0  0  0  0  0  0  0  0
  145.0350  155.3200  133.8470 C   0  0  0  0  0  0  0  0  0  0  0  0
  145.3070  153.9280  133.4720 N   0  0  0  0  0  0  0  0  0  0  0  0
  144.3540  153.1690  132.7040 C   0  0  0  0  0  0  0  0  0  0  0  0
  144.6270  151.9910  132.3460 O   0  0  0  0  0  0  0  0  0  0  0  0
  143.1140  153.7300  132.3760 O   0  0  0  0  0  0  0  0  0  0  0  0
  141.9070  152.9750  132.3170 C   0  0  0  0  0  0  0  0  0  0  0  0
  141.0410  153.3450  133.3870 O   0  0  0  0  0  0  0  0  0  0  0  0
  140.2550  154.5040  133.3570 C   0  0  0  0  0  0  0  0  0  0  0  0
  139.1470  154.5040  132.7530 O   0  0  0  0  0  0  0  0  0  0  0  0
  140.7200  155.7010  134.0040 N   0  0  0  0  0  0  0  0  0  0  0  0
  141.5610  155.7920  135.0720 C   0  0  0  0  0  0  0  0  0  0  0  0
  142.0090  154.6690  135.9150 C   0  0  0  0  0  0  0  0  0  0  0  0
  142.8800  153.6700  135.3910 N   0  0  0  0  0  0  0  0  0  0  0  0
  141.5690  154.5520  137.0890 O   0  0  0  0  0  0  0  0  0  0  0  0
  141.8590  157.1240  135.3490 C   0  0  0  0  0  0  0  0  0  0  0  0
  141.1590  157.8550  134.4180 C   0  0  0  0  0  0  0  0  0  0  0  0
  141.0860  159.2330  134.2340 C   0  0  0  0  0  0  0  0  0  0  0  0
  140.2940  159.7170  133.1800 C   0  0  0  0  0  0  0  0  0  0  0  0
  139.6010  158.8200  132.3230 C   0  0  0  0  0  0  0  0  0  0  0  0
  138.7470  159.3230  131.1870 C   0  0  0  0  0  0  0  0  0  0  0  0
  139.0080  160.6650  130.9730 F   0  0  0  0  0  0  0  0  0  0  0  0
  139.0510  158.6150  130.0370 F   0  0  0  0  0  0  0  0  0  0  0  0
  137.3970  159.1770  131.4570 F   0  0  0  0  0  0  0  0  0  0  0  0
  139.6980  157.4280  132.5470 C   0  0  0  0  0  0  0  0  0  0  0  0
  140.4790  156.9740  133.6160 C   0  0  0  0  0  0  0  0  0  0  0  0
  146.6320  153.3650  133.7550 C   0  0  0  0  0  0  0  0  0  0  0  0
  147.4000  154.2340  134.7670 C   0  0  0  0  0  0  0  0  0  0  0  0
  149.7488  155.2587  139.3153 H   0  0  0  0  0  0  0  0  0  0  0  0
  150.4845  154.6521  137.7930 H   0  0  0  0  0  0  0  0  0  0  0  0
  149.5626  156.1938  137.7930 H   0  0  0  0  0  0  0  0  0  0  0  0
  149.0810  153.1711  139.3940 H   0  0  0  0  0  0  0  0  0  0  0  0
  147.6308  154.1490  139.8009 H   0  0  0  0  0  0  0  0  0  0  0  0
  147.7665  151.5105  138.6114 H   0  0  0  0  0  0  0  0  0  0  0  0
  146.3162  152.4582  139.0823 H   0  0  0  0  0  0  0  0  0  0  0  0
  147.1100  155.3830  136.4340 H   0  0  0  0  0  0  0  0  0  0  0  0
  144.4960  155.3479  135.9345 H   0  0  0  0  0  0  0  0  0  0  0  0
  145.6985  156.6248  135.4010 H   0  0  0  0  0  0  0  0  0  0  0  0
  143.9675  155.5331  133.6885 H   0  0  0  0  0  0  0  0  0  0  0  0
  145.6568  155.9786  133.2227 H   0  0  0  0  0  0  0  0  0  0  0  0
  141.4035  153.1694  131.3585 H   0  0  0  0  0  0  0  0  0  0  0  0
  142.1485  151.9054  132.4048 H   0  0  0  0  0  0  0  0  0  0  0  0
  142.7440  153.2850  134.4310 H   0  0  0  0  0  0  0  0  0  0  0  0
  142.5149  157.5094  136.1436 H   0  0  0  0  0  0  0  0  0  0  0  0
  141.6324  159.9223  134.8945 H   0  0  0  0  0  0  0  0  0  0  0  0
  140.2093  160.8014  133.0162 H   0  0  0  0  0  0  0  0  0  0  0  0
  139.1707  156.7162  131.8948 H   0  0  0  0  0  0  0  0  0  0  0  0
  146.5112  152.3532  134.1694 H   0  0  0  0  0  0  0  0  0  0  0  0
  147.2052  153.3332  132.8167 H   0  0  0  0  0  0  0  0  0  0  0  0
  148.1947  153.6266  135.2248 H   0  0  0  0  0  0  0  0  0  0  0  0
  147.8176  155.0954  134.2252 H   0  0  0  0  0  0  0  0  0  0  0  0
  1  2  1  0
  2  3  1  0
  3  4  1  0
  4  5  1  0
  5  6  1  0
  6  7  2  0
  6  8  1  0
  8  9  1  0
  9 10  1  0
 10 11  1  0
 11 12  1  0
 12 13  2  0
 12 14  1  0
 14 15  1  0
 15 16  1  0
 16 17  1  0
 17 18  2  0
 17 19  1  0
 19 20  1  0
 20 21  1  0
 21 22  1  0
 21 23  2  0
 20 24  2  0
 24 25  1  0
 25 26  2  0
 26 27  1  0
 27 28  2  0
 28 29  1  0
 29 30  1  0
 29 31  1  0
 29 32  1  0
 28 33  1  0
 33 34  2  0
 11 35  1  0
 35 36  1  0
 36  8  1  0
 34 19  1  0
 34 25  1  0
  1 37  1  0
  1 38  1  0
  1 39  1  0
  3 40  1  0
  3 41  1  0
  4 42  1  0
  4 43  1  0
  8 44  1  0
  9 45  1  0
  9 46  1  0
 10 47  1  0
 10 48  1  0
 15 49  1  0
 15 50  1  0
 22 51  1  0
 24 52  1  0
 26 53  1  0
 27 54  1  0
 33 55  1  0
 35 56  1  0
 35 57  1  0
 36 58  1  0
 36 59  1  0
M  CHG  2   8   1  22  -1
M  END
>  <UniqueID>  (4) 
4

>  <SMILES>  (4) 
COCCOC(=O)[NH+]1CCN(C(=O)OCOC(=O)n2c(C([NH-])=O)cc3ccc(C(F)(F)F)cc32)CC1

>  <Energy>  (4) 
99.21671362817622

>  <Genealogy>  (4) 
COCCOC(=O)[NH+]1CCN(C(=O)OCOC(=O)n2c(C([NH-])=O)cc3ccc(C(F)(F)F)cc32)CC1 (protonated)
COCCOC(=O)[NH+]1CCN(C(=O)OCOC(=O)n2c(C([NH-])=O)cc3ccc(C(F)(F)F)cc32)CC1 (3D coordinates assigned)
COCCOC(=O)[NH+]1CCN(C(=O)OCOC(=O)n2c(C([NH-])=O)cc3ccc(C(F)(F)F)cc32)CC1 (nonaromatic ring conformer: 99.21671362817622 kcal/mol)

>  <smiles>  (4) 
COCCOC(=O)N1CCN(C(=O)OCOC(=O)n2c(C(N)=O)cc3ccc(C(F)(F)F)cc32)CC1

>  <score_type>  (4) 
oracle

>  <origin>  (4) 
adg

>  <m_score__min__energy>  (4) 
-6.4800000000000004

>  <m_primary>  (4) 
energy

$$$$
4:0
     RDKit          3D

 44 45  0  0  0  0  0  0  0  0999 V2000
  141.3340  158.7100  131.8930 H   0  0  0  0  0  0  0  0  0  0  0  0
  140.5920  158.8920  131.2580 O   0  0  0  0  0  0  0  0  0  0  0  0
  139.3940  158.6780  131.9580 C   0  0  2  0  0  0  0  0  0  0  0  0
  138.9859  157.6911  131.6942 H   0  0  0  0  0  0  0  0  0  0  0  0
  138.3600  159.7380  131.5620 C   0  0  0  0  0  0  0  0  0  0  0  0
  137.9256  160.1834  132.4692 H   0  0  0  0  0  0  0  0  0  0  0  0
  138.8491  160.5228  130.9663 H   0  0  0  0  0  0  0  0  0  0  0  0
  137.5633  159.2685  130.9663 H   0  0  0  0  0  0  0  0  0  0  0  0
  139.6620  158.6910  133.4770 C   0  0  2  0  0  0  0  0  0  0  0  0
  138.6971  158.7493  134.0019 H   0  0  0  0  0  0  0  0  0  0  0  0
  140.4640  159.8570  133.8490 N   0  0  0  0  0  0  0  0  0  0  0  0
  141.7460  159.7570  134.4830 C   0  0  0  0  0  0  0  0  0  0  0  0
  141.9050  158.9820  135.4640 O   0  0  0  0  0  0  0  0  0  0  0  0
  142.9220  160.4590  133.9360 C   0  0  0  0  0  0  0  0  0  0  0  0
  142.9121  161.5580  133.9815 H   0  0  0  0  0  0  0  0  0  0  0  0
  144.0030  159.8830  133.3880 C   0  0  0  0  0  0  0  0  0  0  0  0
  144.8655  160.5347  133.1845 H   0  0  0  0  0  0  0  0  0  0  0  0
  144.1440  158.4550  133.0320 C   0  0  0  0  0  0  0  0  0  0  0  0
  143.2610  157.8640  132.3550 O   0  0  0  0  0  0  0  0  0  0  0  0
  145.3320  157.7430  133.4030 N   0  0  0  0  0  0  0  0  0  0  0  0
  145.4090  156.5850  134.1140 C   0  0  0  0  0  0  0  0  0  0  0  0
  144.2640  155.9150  134.7680 C   0  0  0  0  0  0  0  0  0  0  0  0
  144.4340  154.8190  135.3640 O   0  0  0  0  0  0  0  0  0  0  0  0
  142.9530  156.4820  134.7160 N   0  0  0  0  0  0  0  0  0  0  0  0
  142.7800  157.4140  134.2800 H   0  0  0  0  0  0  0  0  0  0  0  0
  142.1510  155.9810  135.1560 H   0  0  0  0  0  0  0  0  0  0  0  0
  146.7330  156.1540  134.1970 C   0  0  0  0  0  0  0  0  0  0  0  0
  147.1115  155.2568  134.7086 H   0  0  0  0  0  0  0  0  0  0  0  0
  147.4660  157.0910  133.5020 C   0  0  0  0  0  0  0  0  0  0  0  0
  148.8310  157.1460  133.2400 C   0  0  0  0  0  0  0  0  0  0  0  0
  149.5150  156.3782  133.6307 H   0  0  0  0  0  0  0  0  0  0  0  0
  149.3090  158.2140  132.4600 C   0  0  0  0  0  0  0  0  0  0  0  0
  150.3824  158.2809  132.2292 H   0  0  0  0  0  0  0  0  0  0  0  0
  148.4220  159.2070  131.9670 C   0  0  0  0  0  0  0  0  0  0  0  0
  148.9360  160.3140  131.0810 C   0  0  0  0  0  0  0  0  0  0  0  0
  148.5060  161.5470  131.5360 F   0  0  0  0  0  0  0  0  0  0  0  0
  150.3190  160.2900  131.0800 F   0  0  0  0  0  0  0  0  0  0  0  0
  148.4820  160.1480  129.7840 F   0  0  0  0  0  0  0  0  0  0  0  0
  147.0380  159.0990  132.2350 C   0  0  0  0  0  0  0  0  0  0  0  0
  146.3263  159.8325  131.8281 H   0  0  0  0  0  0  0  0  0  0  0  0
  146.5960  158.0370  133.0300 C   0  0  0  0  0  0  0  0  0  0  0  0
  140.3710  157.4280  133.8840 C   0  0  0  0  0  0  0  0  0  0  0  0
  140.2070  156.9560  135.0380 O   0  0  0  0  0  0  0  0  0  0  0  0
  141.1730  156.7500  132.9730 O   0  0  0  0  0  0  0  0  0  0  0  0
  1  2  1  0
  2  3  1  0
  3  4  1  6
  3  5  1  0
  5  6  1  0
  5  7  1  0
  5  8  1  0
  3  9  1  0
  9 10  1  1
  9 11  1  0
 11 12  1  0
 12 13  2  0
 12 14  1  0
 14 15  1  0
 14 16  2  0
 16 17  1  0
 16 18  1  0
 18 19  2  0
 18 20  1  0
 20 21  1  0
 21 22  1  0
 22 23  2  0
 22 24  1  0
 24 25  1  0
 24 26  1  0
 21 27  2  0
 27 28  1  0
 27 29  1  0
 29 30  2  0
 30 31  1  0
 30 32  1  0
 32 33  1  0
 32 34  2  0
 34 35  1  0
 35 36  1  0
 35 37  1  0
 35 38  1  0
 34 39  1  0
 39 40  1  0
 39 41  2  0
  9 42  1  0
 42 43  2  0
 42 44  1  0
 41 20  1  0
 41 29  1  0
M  CHG  2  11  -1  44  -1
M  END
>  <UniqueID>  (5) 
5

>  <SMILES>  (5) 
C[C@@H](O)[C@H]([N-]C(=O)/C=C\C(=O)n1c(C(N)=O)cc2ccc(C(F)(F)F)cc21)C(=O)[O-]

>  <Energy>  (5) 
84.02904142105035

>  <Genealogy>  (5) 
CC(O)C([N-]C(=O)/C=C\C(=O)n1c(C(N)=O)cc2ccc(C(F)(F)F)cc21)C(=O)[O-] (protonated)
C[C@@H](O)[C@H]([N-]C(=O)/C=C\C(=O)n1c(C(N)=O)cc2ccc(C(F)(F)F)cc21)C(=O)[O-] (chirality)
C[C@@H](O)[C@H]([N-]C(=O)/C=C\C(=O)n1c(C(N)=O)cc2ccc(C(F)(F)F)cc21)C(=O)[O-] (cis-trans isomerization)
C[C@@H](O)[C@H]([N-]C(=O)/C=C\C(=O)n1c(C(N)=O)cc2ccc(C(F)(F)F)cc21)C(=O)[O-] (3D coordinates assigned)
C[C@@H](O)[C@H]([N-]C(=O)/C=C\C(=O)n1c(C(N)=O)cc2ccc(C(F)(F)F)cc21)C(=O)[O-] (optimized conformer: 84.02904142105035 kcal/mol)

>  <smiles>  (5) 
CC(O)C(NC(=O)/C=C\C(=O)n1c(C(N)=O)cc2ccc(C(F)(F)F)cc21)C(=O)O

>  <score_type>  (5) 
oracle

>  <origin>  (5) 
adg

>  <m_score__min__energy>  (5) 
-7.3499999999999996

>  <m_primary>  (5) 
energy

$$$$
5:0
     RDKit          3D

 36 37  0  0  0  0  0  0  0  0999 V2000
  148.7030  158.2130  131.5340 N   0  0  0  0  0  0  0  0  0  0  0  0
  148.3080  158.9230  132.7060 C   0  0  0  0  0  0  0  0  0  0  0  0
  149.1740  159.5640  133.3590 O   0  0  0  0  0  0  0  0  0  0  0  0
  146.8930  158.9630  133.1300 C   0  0  0  0  0  0  0  0  0  0  0  0
  146.1460  160.1380  133.1970 C   0  0  0  0  0  0  0  0  0  0  0  0
  144.8730  159.7420  133.5370 C   0  0  0  0  0  0  0  0  0  0  0  0
  143.7260  160.5010  133.7450 C   0  0  0  0  0  0  0  0  0  0  0  0
  142.5490  159.8280  134.1140 C   0  0  0  0  0  0  0  0  0  0  0  0
  142.5360  158.4170  134.2750 C   0  0  0  0  0  0  0  0  0  0  0  0
  141.2530  157.7250  134.6850 C   0  0  0  0  0  0  0  0  0  0  0  0
  140.6120  158.3850  136.2640 P   0  0  0  0  0  0  0  0  0  0  0  0
  139.2020  157.9010  136.5170 O   0  0  0  0  0  0  0  0  0  0  0  0
  141.6100  157.8770  137.5300 O   0  0  0  0  0  0  0  0  0  0  0  0
  140.6170  160.0750  136.2020 O   0  0  0  0  0  0  0  0  0  0  0  0
  139.9850  157.8300  133.3730 P   0  0  0  0  0  0  0  0  0  0  0  0
  138.7840  158.5850  133.8960 O   0  0  0  0  0  0  0  0  0  0  0  0
  139.5000  156.2870  132.8770 O   0  0  0  0  0  0  0  0  0  0  0  0
  140.6230  158.6600  132.0460 O   0  0  0  0  0  0  0  0  0  0  0  0
  143.7270  157.6840  134.0560 C   0  0  0  0  0  0  0  0  0  0  0  0
  144.8790  158.3790  133.6690 C   0  0  0  0  0  0  0  0  0  0  0  0
  146.1130  157.8850  133.4270 N   0  0  0  0  0  0  0  0  0  0  0  0
  146.5130  156.5110  133.5440 C   0  0  0  0  0  0  0  0  0  0  0  0
  147.1960  155.9740  132.6290 O   0  0  0  0  0  0  0  0  0  0  0  0
  146.1680  155.7830  134.6880 O   0  0  0  0  0  0  0  0  0  0  0  0
  146.4220  154.3890  134.8370 C   0  0  0  0  0  0  0  0  0  0  0  0
  147.1990  154.1320  136.0890 C   0  0  0  0  0  0  0  0  0  0  0  0
  148.1170  154.9180  136.4390 O   0  0  0  0  0  0  0  0  0  0  0  0
  146.9260  153.0050  136.8540 O   0  0  0  0  0  0  0  0  0  0  0  0
  148.5570  157.1830  131.4560 H   0  0  0  0  0  0  0  0  0  0  0  0
  146.4993  161.1640  133.0164 H   0  0  0  0  0  0  0  0  0  0  0  0
  143.7399  161.5943  133.6243 H   0  0  0  0  0  0  0  0  0  0  0  0
  141.6253  160.4017  134.2804 H   0  0  0  0  0  0  0  0  0  0  0  0
  141.4925  156.6621  134.8363 H   0  0  0  0  0  0  0  0  0  0  0  0
  143.7469  156.5920  134.1871 H   0  0  0  0  0  0  0  0  0  0  0  0
  145.4648  153.8494  134.8872 H   0  0  0  0  0  0  0  0  0  0  0  0
  147.0083  154.0387  133.9747 H   0  0  0  0  0  0  0  0  0  0  0  0
  1  2  1  0
  2  3  2  0
  2  4  1  0
  4  5  2  0
  5  6  1  0
  6  7  2  0
  7  8  1  0
  8  9  2  0
  9 10  1  0
 10 11  1  0
 11 12  2  0
 11 13  1  0
 11 14  1  0
 10 15  1  0
 15 16  2  0
 15 17  1  0
 15 18  1  0
  9 19  1  0
 19 20  2  0
 20 21  1  0
 21 22  1  0
 22 23  2  0
 22 24  1  0
 24 25  1  0
 25 26  1  0
 26 27  2  0
 26 28  1  0
 21  4  1  0
 20  6  1  0
  1 29  1  0
  5 30  1  0
  7 31  1  0
  8 32  1  0
 10 33  1  0
 19 34  1  0
 25 35  1  0
 25 36  1  0
M  CHG  6   1  -1  13  -1  14  -1  17  -1  18  -1  28  -1
M  END
>  <UniqueID>  (6) 
6

>  <SMILES>  (6) 
[NH-]C(=O)c1cc2ccc(C(P(=O)([O-])[O-])P(=O)([O-])[O-])cc2n1C(=O)OCC(=O)[O-]

>  <Energy>  (6) 
66.6238556818024

>  <Genealogy>  (6) 
[NH-]C(=O)c1cc2ccc(C(P(=O)([O-])[O-])P(=O)([O-])[O-])cc2n1C(=O)OCC(=O)[O-] (protonated)
[NH-]C(=O)c1cc2ccc(C(P(=O)([O-])[O-])P(=O)([O-])[O-])cc2n1C(=O)OCC(=O)[O-] (3D coordinates assigned)
[NH-]C(=O)c1cc2ccc(C(P(=O)([O-])[O-])P(=O)([O-])[O-])cc2n1C(=O)OCC(=O)[O-] (optimized conformer: 66.6238556818024 kcal/mol)

>  <smiles>  (6) 
NC(=O)c1cc2ccc(C(P(=O)(O)O)P(=O)(O)O)cc2n1C(=O)OCC(=O)O

>  <score_type>  (6) 
oracle

>  <origin>  (6) 
adg

>  <m_score__min__energy>  (6) 
-7.1799999999999997

>  <m_primary>  (6) 
energy

$$$$
6:0
     RDKit          3D

 33 34  0  0  0  0  0  0  0  0999 V2000
  144.6900  160.2060  133.4320 C   0  0  0  0  0  0  0  0  0  0  0  0
  145.8450  159.2570  133.2920 C   0  0  0  0  0  0  0  0  0  0  0  0
  147.1020  159.7300  132.8420 C   0  0  0  0  0  0  0  0  0  0  0  0
  148.1830  158.8460  132.6780 C   0  0  0  0  0  0  0  0  0  0  0  0
  147.9720  157.4980  132.9480 C   0  0  0  0  0  0  0  0  0  0  0  0
  148.8450  156.4380  132.8850 C   0  0  0  0  0  0  0  0  0  0  0  0
  148.0950  155.3230  133.2480 C   0  0  0  0  0  0  0  0  0  0  0  0
  148.6340  153.9470  133.2340 C   0  0  0  0  0  0  0  0  0  0  0  0
  148.1610  152.9570  134.1510 N   0  0  0  0  0  0  0  0  0  0  0  0
  149.4750  153.6200  132.3530 O   0  0  0  0  0  0  0  0  0  0  0  0
  146.8110  155.6760  133.5430 N   0  0  0  0  0  0  0  0  0  0  0  0
  145.7630  154.8290  134.0440 C   0  0  0  0  0  0  0  0  0  0  0  0
  145.5400  153.7110  133.5010 O   0  0  0  0  0  0  0  0  0  0  0  0
  144.9910  155.2490  135.1310 O   0  0  0  0  0  0  0  0  0  0  0  0
  144.8840  154.5040  136.3420 C   0  0  0  0  0  0  0  0  0  0  0  0
  145.7030  153.3590  136.2770 O   0  0  0  0  0  0  0  0  0  0  0  0
  147.2300  153.7320  136.9440 P   0  0  0  0  0  0  0  0  0  0  0  0
  147.7870  154.9470  136.2390 O   0  0  0  0  0  0  0  0  0  0  0  0
  148.2920  152.4340  136.7160 O   0  0  0  0  0  0  0  0  0  0  0  0
  147.0990  154.0750  138.5970 O   0  0  0  0  0  0  0  0  0  0  0  0
  146.7500  157.0150  133.3490 C   0  0  0  0  0  0  0  0  0  0  0  0
  145.6600  157.8790  133.5400 C   0  0  0  0  0  0  0  0  0  0  0  0
  144.4827  160.3764  134.4988 H   0  0  0  0  0  0  0  0  0  0  0  0
  144.9407  161.1624  132.9499 H   0  0  0  0  0  0  0  0  0  0  0  0
  143.8004  159.7745  132.9499 H   0  0  0  0  0  0  0  0  0  0  0  0
  147.2337  160.7990  132.6187 H   0  0  0  0  0  0  0  0  0  0  0  0
  149.1666  159.2098  132.3459 H   0  0  0  0  0  0  0  0  0  0  0  0
  149.9090  156.4651  132.6071 H   0  0  0  0  0  0  0  0  0  0  0  0
  147.3700  153.1640  134.8020 H   0  0  0  0  0  0  0  0  0  0  0  0
  148.5310  151.9790  134.1110 H   0  0  0  0  0  0  0  0  0  0  0  0
  145.2033  155.1329  137.1861 H   0  0  0  0  0  0  0  0  0  0  0  0
  143.8385  154.1928  136.4835 H   0  0  0  0  0  0  0  0  0  0  0  0
  144.6861  157.4923  133.8745 H   0  0  0  0  0  0  0  0  0  0  0  0
  1  2  1  0
  2  3  2  0
  3  4  1  0
  4  5  2  0
  5  6  1  0
  6  7  2  0
  7  8  1  0
  8  9  1  0
  8 10  2  0
  7 11  1  0
 11 12  1  0
 12 13  2  0
 12 14  1  0
 14 15  1  0
 15 16  1  0
 16 17  1  0
 17 18  2  0
 17 19  1  0
 17 20  1  0
 11 21  1  0
 21 22  2  0
 22  2  1  0
 21  5  1  0
  1 23  1  0
  1 24  1  0
  1 25  1  0
  3 26  1  0
  4 27  1  0
  6 28  1  0
  9 29  1  0
  9 30  1  0
 15 31  1  0
 15 32  1  0
 22 33  1  0
M  CHG  2  19  -1  20  -1
M  END
>  <UniqueID>  (7) 
7

>  <SMILES>  (7) 
Cc1ccc2cc(C(N)=O)n(C(=O)OCOP(=O)([O-])[O-])c2c1

>  <Energy>  (7) 
69.80099896233659

>  <Genealogy>  (7) 
Cc1ccc2cc(C(N)=O)n(C(=O)OCOP(=O)([O-])[O-])c2c1 (protonated)
Cc1ccc2cc(C(N)=O)n(C(=O)OCOP(=O)([O-])[O-])c2c1 (3D coordinates assigned)
Cc1ccc2cc(C(N)=O)n(C(=O)OCOP(=O)([O-])[O-])c2c1 (optimized conformer: 69.80099896233659 kcal/mol)

>  <smiles>  (7) 
Cc1ccc2cc(C(N)=O)n(C(=O)OCOP(=O)(O)O)c2c1

>  <score_type>  (7) 
oracle

>  <origin>  (7) 
adg

>  <m_score__min__energy>  (7) 
-6.1399999999999997

>  <m_primary>  (7) 
energy

$$$$
7:0
     RDKit          3D

 41 42  0  0  0  0  0  0  0  0999 V2000
  140.2890  158.4420  136.7890 C   0  0  0  0  0  0  0  0  0  0  0  0
  141.2370  159.3700  136.0210 C   0  0  0  0  0  0  0  0  0  0  0  0
  141.6840  158.8290  134.7200 N   0  0  0  0  0  0  0  0  0  0  0  0
  140.6130  158.3090  133.8440 C   0  0  0  0  0  0  0  0  0  0  0  0
  140.2970  159.2920  132.7630 C   0  0  0  0  0  0  0  0  0  0  0  0
  139.7830  158.9000  131.6830 O   0  0  0  0  0  0  0  0  0  0  0  0
  140.5420  160.6450  132.9570 O   0  0  0  0  0  0  0  0  0  0  0  0
  142.9740  158.0980  134.7140 C   0  0  0  0  0  0  0  0  0  0  0  0
  143.7490  158.1570  133.4180 C   0  0  0  0  0  0  0  0  0  0  0  0
  143.2100  157.8290  132.3280 O   0  0  0  0  0  0  0  0  0  0  0  0
  145.0520  158.7600  133.3950 N   0  0  0  0  0  0  0  0  0  0  0  0
  145.3430  160.0880  133.4830 C   0  0  0  0  0  0  0  0  0  0  0  0
  144.3550  161.1630  133.7320 C   0  0  0  0  0  0  0  0  0  0  0  0
  142.9670  160.9630  133.4560 N   0  0  0  0  0  0  0  0  0  0  0  0
  144.7340  162.2780  134.1780 O   0  0  0  0  0  0  0  0  0  0  0  0
  146.7190  160.2910  133.3680 C   0  0  0  0  0  0  0  0  0  0  0  0
  147.2610  159.0370  133.1980 C   0  0  0  0  0  0  0  0  0  0  0  0
  148.5860  158.6500  133.0230 C   0  0  0  0  0  0  0  0  0  0  0  0
  148.8540  157.2820  132.8460 C   0  0  0  0  0  0  0  0  0  0  0  0
  147.7990  156.3370  132.8270 C   0  0  0  0  0  0  0  0  0  0  0  0
  148.0990  154.8770  132.6640 C   0  0  0  0  0  0  0  0  0  0  0  0
  146.4690  156.7660  133.0230 C   0  0  0  0  0  0  0  0  0  0  0  0
  146.2330  158.1310  133.2140 C   0  0  0  0  0  0  0  0  0  0  0  0
  140.4336  158.5835  137.8702 H   0  0  0  0  0  0  0  0  0  0  0  0
  139.2483  158.6801  136.5239 H   0  0  0  0  0  0  0  0  0  0  0  0
  140.5049  157.3965  136.5239 H   0  0  0  0  0  0  0  0  0  0  0  0
  140.7172  160.3223  135.8395 H   0  0  0  0  0  0  0  0  0  0  0  0
  142.1370  159.4906  136.6419 H   0  0  0  0  0  0  0  0  0  0  0  0
  140.9447  157.3643  133.3885 H   0  0  0  0  0  0  0  0  0  0  0  0
  139.7091  158.1420  134.4482 H   0  0  0  0  0  0  0  0  0  0  0  0
  143.6074  158.5218  135.5073 H   0  0  0  0  0  0  0  0  0  0  0  0
  142.7215  157.0384  134.8670 H   0  0  0  0  0  0  0  0  0  0  0  0
  142.5980  160.0360  133.1510 H   0  0  0  0  0  0  0  0  0  0  0  0
  142.2880  161.7430  133.6030 H   0  0  0  0  0  0  0  0  0  0  0  0
  147.2566  161.2500  133.4053 H   0  0  0  0  0  0  0  0  0  0  0  0
  149.3983  159.3917  133.0232 H   0  0  0  0  0  0  0  0  0  0  0  0
  149.8926  156.9419  132.7210 H   0  0  0  0  0  0  0  0  0  0  0  0
  148.1951  154.4095  133.6551 H   0  0  0  0  0  0  0  0  0  0  0  0
  147.2813  154.3944  132.1087 H   0  0  0  0  0  0  0  0  0  0  0  0
  149.0408  154.7560  132.1087 H   0  0  0  0  0  0  0  0  0  0  0  0
  145.6386  156.0446  133.0255 H   0  0  0  0  0  0  0  0  0  0  0  0
  1  2  1  0
  2  3  1  0
  3  4  1  0
  4  5  1  0
  5  6  2  0
  5  7  1  0
  3  8  1  0
  8  9  1  0
  9 10  2  0
  9 11  1  0
 11 12  1  0
 12 13  1  0
 13 14  1  0
 13 15  2  0
 12 16  2  0
 16 17  1  0
 17 18  2  0
 18 19  1  0
 19 20  2  0
 20 21  1  0
 20 22  1  0
 22 23  2  0
 23 11  1  0
 23 17  1  0
  1 24  1  0
  1 25  1  0
  1 26  1  0
  2 27  1  0
  2 28  1  0
  4 29  1  0
  4 30  1  0
  8 31  1  0
  8 32  1  0
 14 33  1  0
 14 34  1  0
 16 35  1  0
 18 36  1  0
 19 37  1  0
 21 38  1  0
 21 39  1  0
 21 40  1  0
 22 41  1  0
M  CHG  1   7  -1
M  END
>  <UniqueID>  (8) 
8

>  <SMILES>  (8) 
CCN(CC(=O)[O-])CC(=O)n1c(C(N)=O)cc2ccc(C)cc21

>  <Energy>  (8) 
87.98330670488521

>  <Genealogy>  (8) 
CCN(CC(=O)[O-])CC(=O)n1c(C(N)=O)cc2ccc(C)cc21 (protonated)
CCN(CC(=O)[O-])CC(=O)n1c(C(N)=O)cc2ccc(C)cc21 (3D coordinates assigned)
CCN(CC(=O)[O-])CC(=O)n1c(C(N)=O)cc2ccc(C)cc21 (optimized conformer: 87.98330670488521 kcal/mol)

>  <smiles>  (8) 
CCN(CC(=O)O)CC(=O)n1c(C(N)=O)cc2ccc(C)cc21

>  <score_type>  (8) 
oracle

>  <origin>  (8) 
adg

>  <m_score__min__energy>  (8) 
-6.8499999999999996

>  <m_primary>  (8) 
energy

$$$$
8:0
     RDKit          3D

 33 34  0  0  0  0  0  0  0  0999 V2000
  149.3140  159.7830  131.1170 C   0  0  0  0  0  0  0  0  0  0  0  0
  149.2610  159.2860  132.5580 C   0  0  0  0  0  0  0  0  0  0  0  0
  147.8760  158.8180  132.9090 C   0  0  0  0  0  0  0  0  0  0  0  0
  146.7550  159.6460  132.6470 C   0  0  0  0  0  0  0  0  0  0  0  0
  145.4580  159.2280  132.9920 C   0  0  0  0  0  0  0  0  0  0  0  0
  145.3150  157.9880  133.6070 C   0  0  0  0  0  0  0  0  0  0  0  0
  144.1820  157.3300  134.0320 C   0  0  0  0  0  0  0  0  0  0  0  0
  144.6330  156.1260  134.5700 C   0  0  0  0  0  0  0  0  0  0  0  0
  143.7490  155.1320  135.2120 C   0  0  0  0  0  0  0  0  0  0  0  0
  143.9330  153.7350  134.9910 N   0  0  0  0  0  0  0  0  0  0  0  0
  142.8390  155.5180  135.9930 O   0  0  0  0  0  0  0  0  0  0  0  0
  145.9890  156.0420  134.4730 N   0  0  0  0  0  0  0  0  0  0  0  0
  146.8350  154.9400  134.8290 C   0  0  0  0  0  0  0  0  0  0  0  0
  146.7090  153.8380  134.2300 O   0  0  0  0  0  0  0  0  0  0  0  0
  147.7790  155.0510  135.9860 C   0  0  0  0  0  0  0  0  0  0  0  0
  147.5390  153.6480  137.1170 P   0  0  0  0  0  0  0  0  0  0  0  0
  146.2050  152.9920  136.8440 O   0  0  0  0  0  0  0  0  0  0  0  0
  148.7780  152.5180  136.8930 O   0  0  0  0  0  0  0  0  0  0  0  0
  147.5730  154.2050  138.7130 O   0  0  0  0  0  0  0  0  0  0  0  0
  146.3910  157.1880  133.8870 C   0  0  0  0  0  0  0  0  0  0  0  0
  147.6920  157.5710  133.5470 C   0  0  0  0  0  0  0  0  0  0  0  0
  149.4306  160.8768  131.1105 H   0  0  0  0  0  0  0  0  0  0  0  0
  150.1679  159.3201  130.6007 H   0  0  0  0  0  0  0  0  0  0  0  0
  148.3817  159.5106  130.6007 H   0  0  0  0  0  0  0  0  0  0  0  0
  149.9657  158.4498  132.6775 H   0  0  0  0  0  0  0  0  0  0  0  0
  149.5343  160.1147  133.2278 H   0  0  0  0  0  0  0  0  0  0  0  0
  146.9019  160.6257  132.1688 H   0  0  0  0  0  0  0  0  0  0  0  0
  144.5834  159.8614  132.7824 H   0  0  0  0  0  0  0  0  0  0  0  0
  143.1417  157.6805  133.9617 H   0  0  0  0  0  0  0  0  0  0  0  0
  144.8490  153.2760  135.1870 H   0  0  0  0  0  0  0  0  0  0  0  0
  148.8142  155.0466  135.6139 H   0  0  0  0  0  0  0  0  0  0  0  0
  147.5819  155.9891  136.5256 H   0  0  0  0  0  0  0  0  0  0  0  0
  148.5493  156.9189  133.7703 H   0  0  0  0  0  0  0  0  0  0  0  0
  1  2  1  0
  2  3  1  0
  3  4  2  0
  4  5  1  0
  5  6  2  0
  6  7  1  0
  7  8  2  0
  8  9  1  0
  9 10  1  0
  9 11  2  0
  8 12  1  0
 12 13  1  0
 13 14  2  0
 13 15  1  0
 15 16  1  0
 16 17  2  0
 16 18  1  0
 16 19  1  0
 12 20  1  0
 20 21  2  0
 21  3  1  0
 20  6  1  0
  1 22  1  0
  1 23  1  0
  1 24  1  0
  2 25  1  0
  2 26  1  0
  4 27  1  0
  5 28  1  0
  7 29  1  0
 10 30  1  0
 15 31  1  0
 15 32  1  0
 21 33  1  0
M  CHG  3  10  -1  18  -1  19  -1
M  END
>  <UniqueID>  (9) 
9

>  <SMILES>  (9) 
CCc1ccc2cc(C([NH-])=O)n(C(=O)CP(=O)([O-])[O-])c2c1

>  <Energy>  (9) 
64.12559816301956

>  <Genealogy>  (9) 
CCc1ccc2cc(C([NH-])=O)n(C(=O)CP(=O)([O-])[O-])c2c1 (protonated)
CCc1ccc2cc(C([NH-])=O)n(C(=O)CP(=O)([O-])[O-])c2c1 (3D coordinates assigned)
CCc1ccc2cc(C([NH-])=O)n(C(=O)CP(=O)([O-])[O-])c2c1 (optimized conformer: 64.12559816301956 kcal/mol)

>  <smiles>  (9) 
CCc1ccc2cc(C(N)=O)n(C(=O)CP(=O)(O)O)c2c1

>  <score_type>  (9) 
oracle

>  <origin>  (9) 
adg

>  <m_score__min__energy>  (9) 
-6.0700000000000003

>  <m_primary>  (9) 
energy

$$$$
9:0
     RDKit          3D

 41 42  0  0  0  0  0  0  0  0999 V2000
  143.9800  162.7010  133.3650 N   0  0  0  0  0  0  0  0  0  0  0  0
  145.0720  162.1690  134.1120 C   0  0  0  0  0  0  0  0  0  0  0  0
  145.4700  162.7790  135.1400 O   0  0  0  0  0  0  0  0  0  0  0  0
  145.7050  160.8900  133.7290 C   0  0  0  0  0  0  0  0  0  0  0  0
  147.0640  160.7600  133.4530 C   0  0  0  0  0  0  0  0  0  0  0  0
  147.2660  159.4150  133.2380 C   0  0  0  0  0  0  0  0  0  0  0  0
  148.4300  158.7250  132.9120 C   0  0  0  0  0  0  0  0  0  0  0  0
  148.3390  157.3370  132.7170 C   0  0  0  0  0  0  0  0  0  0  0  0
  147.0960  156.6690  132.8480 C   0  0  0  0  0  0  0  0  0  0  0  0
  147.0010  155.1860  132.5970 C   0  0  0  0  0  0  0  0  0  0  0  0
  145.6140  154.6290  132.9510 C   0  0  0  0  0  0  0  0  0  0  0  0
  144.6310  154.7160  131.7730 C   0  0  0  0  0  0  0  0  0  0  0  0
  143.6560  155.7850  131.9840 N   0  0  0  0  0  0  0  0  0  0  0  0
  145.9350  157.4040  133.1750 C   0  0  0  0  0  0  0  0  0  0  0  0
  146.0580  158.7820  133.3800 C   0  0  0  0  0  0  0  0  0  0  0  0
  145.0880  159.6750  133.6770 N   0  0  0  0  0  0  0  0  0  0  0  0
  143.6890  159.3900  133.8210 C   0  0  0  0  0  0  0  0  0  0  0  0
  142.8320  160.2420  133.4580 O   0  0  0  0  0  0  0  0  0  0  0  0
  143.2830  158.1540  134.3400 O   0  0  0  0  0  0  0  0  0  0  0  0
  141.9210  157.8220  134.6020 C   0  0  0  0  0  0  0  0  0  0  0  0
  141.1970  157.4200  133.3160 C   0  0  0  0  0  0  0  0  0  0  0  0
  142.0640  157.5060  132.2170 O   0  0  0  0  0  0  0  0  0  0  0  0
  143.1040  162.1510  133.2270 H   0  0  0  0  0  0  0  0  0  0  0  0
  147.8163  161.5616  133.4149 H   0  0  0  0  0  0  0  0  0  0  0  0
  149.3911  159.2503  132.8103 H   0  0  0  0  0  0  0  0  0  0  0  0
  149.2414  156.7628  132.4601 H   0  0  0  0  0  0  0  0  0  0  0  0
  147.2000  154.9927  131.5326 H   0  0  0  0  0  0  0  0  0  0  0  0
  147.7414  154.6853  133.2381 H   0  0  0  0  0  0  0  0  0  0  0  0
  145.7211  153.5744  133.2449 H   0  0  0  0  0  0  0  0  0  0  0  0
  145.2078  155.2366  133.7731 H   0  0  0  0  0  0  0  0  0  0  0  0
  145.1930  154.9185  130.8493 H   0  0  0  0  0  0  0  0  0  0  0  0
  144.0924  153.7602  131.6938 H   0  0  0  0  0  0  0  0  0  0  0  0
  143.5600  156.3590  131.1160 H   0  0  0  0  0  0  0  0  0  0  0  0
  143.9560  156.3940  132.7800 H   0  0  0  0  0  0  0  0  0  0  0  0
  142.7280  155.3600  132.2150 H   0  0  0  0  0  0  0  0  0  0  0  0
  144.9588  156.9052  133.2661 H   0  0  0  0  0  0  0  0  0  0  0  0
  141.8857  156.9826  135.3120 H   0  0  0  0  0  0  0  0  0  0  0  0
  141.4201  158.7057  135.0243 H   0  0  0  0  0  0  0  0  0  0  0  0
  140.8359  156.3854  133.4121 H   0  0  0  0  0  0  0  0  0  0  0  0
  140.3504  158.1037  133.1557 H   0  0  0  0  0  0  0  0  0  0  0  0
  142.5180  158.3870  132.2800 H   0  0  0  0  0  0  0  0  0  0  0  0
  1  2  1  0
  2  3  2  0
  2  4  1  0
  4  5  2  0
  5  6  1  0
  6  7  2  0
  7  8  1  0
  8  9  2  0
  9 10  1  0
 10 11  1  0
 11 12  1  0
 12 13  1  0
  9 14  1  0
 14 15  2  0
 15 16  1  0
 16 17  1  0
 17 18  2  0
 17 19  1  0
 19 20  1  0
 20 21  1  0
 21 22  1  0
 16  4  1  0
 15  6  1  0
  1 23  1  0
  5 24  1  0
  7 25  1  0
  8 26  1  0
 10 27  1  0
 10 28  1  0
 11 29  1  0
 11 30  1  0
 12 31  1  0
 12 32  1  0
 13 33  1  0
 13 34  1  0
 13 35  1  0
 14 36  1  0
 20 37  1  0
 20 38  1  0
 21 39  1  0
 21 40  1  0
 22 41  1  0
M  CHG  2   1  -1  13   1
M  END
>  <UniqueID>  (10) 
10

>  <SMILES>  (10) 
[NH-]C(=O)c1cc2ccc(CCC[NH3+])cc2n1C(=O)OCCO

>  <Energy>  (10) 
70.6068191290124

>  <Genealogy>  (10) 
[NH-]C(=O)c1cc2ccc(CCC[NH3+])cc2n1C(=O)OCCO (protonated)
[NH-]C(=O)c1cc2ccc(CCC[NH3+])cc2n1C(=O)OCCO (3D coordinates assigned)
[NH-]C(=O)c1cc2ccc(CCC[NH3+])cc2n1C(=O)OCCO (optimized conformer: 70.6068191290124 kcal/mol)

>  <smiles>  (10) 
NCCCc1ccc2cc(C(N)=O)n(C(=O)OCCO)c2c1

>  <score_type>  (10) 
oracle

>  <origin>  (10) 
adg

>  <m_score__min__energy>  (10) 
-5.2599999999999998

>  <m_primary>  (10) 
energy

$$$$
10:0
     RDKit          3D

 41 42  0  0  0  0  0  0  0  0999 V2000
  140.5220  158.8790  132.2250 C   0  0  0  0  0  0  0  0  0  0  0  0
  140.1360  159.0930  133.6950 C   0  0  1  0  0  0  0  0  0  0  0  0
  139.7070  157.7770  134.3590 C   0  0  0  0  0  0  0  0  0  0  0  0
  140.4340  156.5990  133.7860 C   0  0  0  0  0  0  0  0  0  0  0  0
  140.1860  156.2090  132.6150 O   0  0  0  0  0  0  0  0  0  0  0  0
  141.3650  155.9140  134.5570 O   0  0  0  0  0  0  0  0  0  0  0  0
  141.2550  159.6150  134.4130 O   0  0  0  0  0  0  0  0  0  0  0  0
  142.2020  160.4820  133.8550 C   0  0  0  0  0  0  0  0  0  0  0  0
  141.8530  161.6120  133.4160 O   0  0  0  0  0  0  0  0  0  0  0  0
  143.5730  160.0690  133.7640 N   0  0  0  0  0  0  0  0  0  0  0  0
  144.6910  160.8490  133.8030 C   0  0  0  0  0  0  0  0  0  0  0  0
  144.7340  162.2940  134.1090 C   0  0  0  0  0  0  0  0  0  0  0  0
  143.9560  163.2250  133.3600 N   0  0  0  0  0  0  0  0  0  0  0  0
  145.4290  162.7070  135.0750 O   0  0  0  0  0  0  0  0  0  0  0  0
  145.8320  160.0760  133.5990 C   0  0  0  0  0  0  0  0  0  0  0  0
  145.3770  158.7870  133.4390 C   0  0  0  0  0  0  0  0  0  0  0  0
  146.0820  157.6110  133.2030 C   0  0  0  0  0  0  0  0  0  0  0  0
  145.3490  156.4210  133.0570 C   0  0  0  0  0  0  0  0  0  0  0  0
  143.9320  156.4280  133.1350 C   0  0  0  0  0  0  0  0  0  0  0  0
  143.1880  155.1990  132.9950 N   0  0  0  0  0  0  0  0  0  0  0  0
  143.8940  154.2410  132.1310 C   0  0  0  0  0  0  0  0  0  0  0  0
  144.1310  152.9330  132.8300 C   0  0  0  0  0  0  0  0  0  0  0  0
  144.7900  152.0220  132.2640 O   0  0  0  0  0  0  0  0  0  0  0  0
  143.6600  152.7390  134.1230 O   0  0  0  0  0  0  0  0  0  0  0  0
  143.2530  157.6450  133.3790 C   0  0  0  0  0  0  0  0  0  0  0  0
  144.0100  158.8100  133.5410 C   0  0  0  0  0  0  0  0  0  0  0  0
  141.4829  158.3462  132.1721 H   0  0  0  0  0  0  0  0  0  0  0  0
  139.7444  158.2832  131.7247 H   0  0  0  0  0  0  0  0  0  0  0  0
  140.6154  159.8542  131.7247 H   0  0  0  0  0  0  0  0  0  0  0  0
  139.2921  159.7981  133.7202 H   0  0  0  0  0  0  0  0  0  0  0  0
  139.9199  157.8365  135.4366 H   0  0  0  0  0  0  0  0  0  0  0  0
  138.6317  157.6367  134.1743 H   0  0  0  0  0  0  0  0  0  0  0  0
  143.3020  162.9010  132.6130 H   0  0  0  0  0  0  0  0  0  0  0  0
  146.8756  160.4226  133.5716 H   0  0  0  0  0  0  0  0  0  0  0  0
  147.1798  157.6127  133.1328 H   0  0  0  0  0  0  0  0  0  0  0  0
  145.8794  155.4736  132.8803 H   0  0  0  0  0  0  0  0  0  0  0  0
  143.0630  154.7670  133.9410 H   0  0  0  0  0  0  0  0  0  0  0  0
  142.2300  155.3870  132.6150 H   0  0  0  0  0  0  0  0  0  0  0  0
  143.2886  154.0595  131.2307 H   0  0  0  0  0  0  0  0  0  0  0  0
  144.8715  154.6716  131.8684 H   0  0  0  0  0  0  0  0  0  0  0  0
  142.1551  157.6744  133.4399 H   0  0  0  0  0  0  0  0  0  0  0  0
  1  2  1  0
  2  3  1  0
  3  4  1  0
  4  5  2  0
  4  6  1  0
  2  7  1  0
  7  8  1  0
  8  9  2  0
  8 10  1  0
 10 11  1  0
 11 12  1  0
 12 13  1  0
 12 14  2  0
 11 15  2  0
 15 16  1  0
 16 17  2  0
 17 18  1  0
 18 19  2  0
 19 20  1  0
 20 21  1  0
 21 22  1  0
 22 23  2  0
 22 24  1  0
 19 25  1  0
 25 26  2  0
 26 10  1  0
 26 16  1  0
  1 27  1  0
  1 28  1  0
  1 29  1  0
  2 30  1  6
  3 31  1  0
  3 32  1  0
 13 33  1  0
 15 34  1  0
 17 35  1  0
 18 36  1  0
 20 37  1  0
 20 38  1  0
 21 39  1  0
 21 40  1  0
 25 41  1  0
M  CHG  4   6  -1  13  -1  20   1  24  -1
M  END
>  <UniqueID>  (11) 
11

>  <SMILES>  (11) 
C[C@@H](CC(=O)[O-])OC(=O)n1c(C([NH-])=O)cc2ccc([NH2+]CC(=O)[O-])cc21

>  <Energy>  (11) 
74.74535351659112

>  <Genealogy>  (11) 
CC(CC(=O)[O-])OC(=O)n1c(C([NH-])=O)cc2ccc([NH2+]CC(=O)[O-])cc21 (protonated)
C[C@@H](CC(=O)[O-])OC(=O)n1c(C([NH-])=O)cc2ccc([NH2+]CC(=O)[O-])cc21 (chirality)
C[C@@H](CC(=O)[O-])OC(=O)n1c(C([NH-])=O)cc2ccc([NH2+]CC(=O)[O-])cc21 (3D coordinates assigned)
C[C@@H](CC(=O)[O-])OC(=O)n1c(C([NH-])=O)cc2ccc([NH2+]CC(=O)[O-])cc21 (optimized conformer: 74.74535351659112 kcal/mol)

>  <smiles>  (11) 
CC(CC(=O)O)OC(=O)n1c(C(N)=O)cc2ccc(NCC(=O)O)cc21

>  <score_type>  (11) 
oracle

>  <origin>  (11) 
adg

>  <m_score__min__energy>  (11) 
-5.3700000000000001

>  <m_primary>  (11) 
energy

$$$$
11:0
     RDKit          3D

 58 59  0  0  0  0  0  0  0  0999 V2000
  140.8910  159.8510  136.3910 C   0  0  0  0  0  0  0  0  0  0  0  0
  140.6650  158.8310  135.3610 N   0  0  0  0  0  0  0  0  0  0  0  0
  139.7570  157.6990  135.6200 C   0  0  0  0  0  0  0  0  0  0  0  0
  139.8920  157.2060  137.0700 C   0  0  0  0  0  0  0  0  0  0  0  0
  141.3030  157.1130  137.4620 N   0  0  0  0  0  0  0  0  0  0  0  0
  141.7550  157.7240  138.7130 C   0  0  0  0  0  0  0  0  0  0  0  0
  142.2350  156.3570  136.6630 C   0  0  0  0  0  0  0  0  0  0  0  0
  142.8170  156.9060  135.6910 O   0  0  0  0  0  0  0  0  0  0  0  0
  142.4960  155.0190  136.9800 O   0  0  0  0  0  0  0  0  0  0  0  0
  141.7160  153.9330  136.4860 C   0  0  0  0  0  0  0  0  0  0  0  0
  142.3720  152.7210  136.7790 O   0  0  0  0  0  0  0  0  0  0  0  0
  141.3350  151.7650  137.7420 P   0  0  0  0  0  0  0  0  0  0  0  0
  142.1470  150.9870  138.7500 O   0  0  0  0  0  0  0  0  0  0  0  0
  140.2080  152.7400  138.5540 O   0  0  0  0  0  0  0  0  0  0  0  0
  140.5040  150.6810  136.7400 O   0  0  0  0  0  0  0  0  0  0  0  0
  141.3560  158.9190  134.1000 C   0  0  0  0  0  0  0  0  0  0  0  0
  141.0840  158.1050  133.1730 O   0  0  0  0  0  0  0  0  0  0  0  0
  142.3180  159.9140  133.9030 O   0  0  0  0  0  0  0  0  0  0  0  0
  143.6170  159.6550  133.3820 C   0  0  0  0  0  0  0  0  0  0  0  0
  144.2120  158.5920  134.1200 O   0  0  0  0  0  0  0  0  0  0  0  0
  144.4110  157.3170  133.5760 C   0  0  0  0  0  0  0  0  0  0  0  0
  143.4100  156.6160  133.2630 O   0  0  0  0  0  0  0  0  0  0  0  0
  145.7440  156.7830  133.4110 N   0  0  0  0  0  0  0  0  0  0  0  0
  146.1830  155.5460  133.8000 C   0  0  0  0  0  0  0  0  0  0  0  0
  145.3450  154.4320  134.2750 C   0  0  0  0  0  0  0  0  0  0  0  0
  144.1670  154.6780  135.0400 N   0  0  0  0  0  0  0  0  0  0  0  0
  145.6220  153.2510  133.9280 O   0  0  0  0  0  0  0  0  0  0  0  0
  147.5540  155.4190  133.6080 C   0  0  0  0  0  0  0  0  0  0  0  0
  147.9530  156.6120  133.0550 C   0  0  0  0  0  0  0  0  0  0  0  0
  149.2140  157.0030  132.6180 C   0  0  0  0  0  0  0  0  0  0  0  0
  149.3450  158.2770  132.0390 C   0  0  0  0  0  0  0  0  0  0  0  0
  148.2250  159.1400  131.9280 C   0  0  0  0  0  0  0  0  0  0  0  0
  148.3500  160.4710  131.2300 C   0  0  0  0  0  0  0  0  0  0  0  0
  147.3810  160.5560  130.2530 F   0  0  0  0  0  0  0  0  0  0  0  0
  148.1710  161.5040  132.1320 F   0  0  0  0  0  0  0  0  0  0  0  0
  149.5980  160.6130  130.6440 F   0  0  0  0  0  0  0  0  0  0  0  0
  146.9560  158.7010  132.3740 C   0  0  0  0  0  0  0  0  0  0  0  0
  146.8470  157.4220  132.9390 C   0  0  0  0  0  0  0  0  0  0  0  0
  140.7900  159.3951  137.3870 H   0  0  0  0  0  0  0  0  0  0  0  0
  141.9031  160.2671  136.2792 H   0  0  0  0  0  0  0  0  0  0  0  0
  140.1494  160.6557  136.2792 H   0  0  0  0  0  0  0  0  0  0  0  0
  138.7202  158.0220  135.4448 H   0  0  0  0  0  0  0  0  0  0  0  0
  140.0229  156.8740  134.9428 H   0  0  0  0  0  0  0  0  0  0  0  0
  139.3779  157.9112  137.7396 H   0  0  0  0  0  0  0  0  0  0  0  0
  139.4397  156.2061  137.1449 H   0  0  0  0  0  0  0  0  0  0  0  0
  141.3411  157.1645  139.5648 H   0  0  0  0  0  0  0  0  0  0  0  0
  142.8538  157.6992  138.7571 H   0  0  0  0  0  0  0  0  0  0  0  0
  141.4098  158.7675  138.7571 H   0  0  0  0  0  0  0  0  0  0  0  0
  140.7268  153.9417  136.9670 H   0  0  0  0  0  0  0  0  0  0  0  0
  141.5914  154.0323  135.3976 H   0  0  0  0  0  0  0  0  0  0  0  0
  143.5387  159.3692  132.3227 H   0  0  0  0  0  0  0  0  0  0  0  0
  144.2378  160.5589  133.4685 H   0  0  0  0  0  0  0  0  0  0  0  0
  143.6410  153.8780  135.4610 H   0  0  0  0  0  0  0  0  0  0  0  0
  143.8260  155.6580  135.2100 H   0  0  0  0  0  0  0  0  0  0  0  0
  148.1843  154.5499  133.8474 H   0  0  0  0  0  0  0  0  0  0  0  0
  150.0822  156.3357  132.7223 H   0  0  0  0  0  0  0  0  0  0  0  0
  150.3262  158.6081  131.6682 H   0  0  0  0  0  0  0  0  0  0  0  0
  146.0727  159.3498  132.2795 H   0  0  0  0  0  0  0  0  0  0  0  0
  1  2  1  0
  2  3  1  0
  3  4  1  0
  4  5  1  0
  5  6  1  0
  5  7  1  0
  7  8  2  0
  7  9  1  0
  9 10  1  0
 10 11  1  0
 11 12  1  0
 12 13  2  0
 12 14  1  0
 12 15  1  0
  2 16  1  0
 16 17  2  0
 16 18  1  0
 18 19  1  0
 19 20  1  0
 20 21  1  0
 21 22  2  0
 21 23  1  0
 23 24  1  0
 24 25  1  0
 25 26  1  0
 25 27  2  0
 24 28  2  0
 28 29  1  0
 29 30  2  0
 30 31  1  0
 31 32  2  0
 32 33  1  0
 33 34  1  0
 33 35  1  0
 33 36  1  0
 32 37  1  0
 37 38  2  0
 38 23  1  0
 38 29  1  0
  1 39  1  0
  1 40  1  0
  1 41  1  0
  3 42  1  0
  3 43  1  0
  4 44  1  0
  4 45  1  0
  6 46  1  0
  6 47  1  0
  6 48  1  0
 10 49  1  0
 10 50  1  0
 19 51  1  0
 19 52  1  0
 26 53  1  0
 26 54  1  0
 28 55  1  0
 30 56  1  0
 31 57  1  0
 37 58  1  0
M  CHG  2  14  -1  15  -1
M  END
>  <UniqueID>  (12) 
12

>  <SMILES>  (12) 
CN(CCN(C)C(=O)OCOP(=O)([O-])[O-])C(=O)OCOC(=O)n1c(C(N)=O)cc2ccc(C(F)(F)F)cc21

>  <Energy>  (12) 
85.14722961199047

>  <Genealogy>  (12) 
CN(CCN(C)C(=O)OCOP(=O)([O-])[O-])C(=O)OCOC(=O)n1c(C(N)=O)cc2ccc(C(F)(F)F)cc21 (protonated)
CN(CCN(C)C(=O)OCOP(=O)([O-])[O-])C(=O)OCOC(=O)n1c(C(N)=O)cc2ccc(C(F)(F)F)cc21 (3D coordinates assigned)
CN(CCN(C)C(=O)OCOP(=O)([O-])[O-])C(=O)OCOC(=O)n1c(C(N)=O)cc2ccc(C(F)(F)F)cc21 (optimized conformer: 85.14722961199047 kcal/mol)

>  <smiles>  (12) 
CN(CCN(C)C(=O)OCOP(=O)(O)O)C(=O)OCOC(=O)n1c(C(N)=O)cc2ccc(C(F)(F)F)cc21

>  <score_type>  (12) 
oracle

>  <origin>  (12) 
adg

>  <m_score__min__energy>  (12) 
-7.1900000000000004

>  <m_primary>  (12) 
energy

$$$$
12:0
     RDKit          3D

 38 39  0  0  0  0  0  0  0  0999 V2000
  138.8290  157.8610  132.6400 C   0  0  0  0  0  0  0  0  0  0  0  0
  139.2110  159.3390  132.5330 C   0  0  1  0  0  0  0  0  0  0  0  0
  140.6590  159.4860  132.3570 N   0  0  0  0  0  0  0  0  0  0  0  0
  141.6040  158.8480  133.2290 C   0  0  0  0  0  0  0  0  0  0  0  0
  141.1950  158.1160  134.1710 O   0  0  0  0  0  0  0  0  0  0  0  0
  143.0100  159.0570  133.0260 N   0  0  0  0  0  0  0  0  0  0  0  0
  144.0380  158.4550  133.8260 C   0  0  0  0  0  0  0  0  0  0  0  0
  143.7510  157.5810  134.6880 O   0  0  0  0  0  0  0  0  0  0  0  0
  145.4070  158.8500  133.6490 N   0  0  0  0  0  0  0  0  0  0  0  0
  145.9120  160.1160  133.6000 C   0  0  0  0  0  0  0  0  0  0  0  0
  145.1520  161.3610  133.8360 C   0  0  0  0  0  0  0  0  0  0  0  0
  145.7870  162.4710  134.4660 N   0  0  0  0  0  0  0  0  0  0  0  0
  143.9380  161.4480  133.5120 O   0  0  0  0  0  0  0  0  0  0  0  0
  147.2840  160.0830  133.3560 C   0  0  0  0  0  0  0  0  0  0  0  0
  147.6060  158.7480  133.2570 C   0  0  0  0  0  0  0  0  0  0  0  0
  148.8280  158.1380  132.9940 C   0  0  0  0  0  0  0  0  0  0  0  0
  148.8600  156.7360  132.9090 C   0  0  0  0  0  0  0  0  0  0  0  0
  147.6800  155.9700  133.0970 C   0  0  0  0  0  0  0  0  0  0  0  0
  147.7160  154.4710  132.9410 C   0  0  0  0  0  0  0  0  0  0  0  0
  146.4590  154.0200  132.5860 F   0  0  0  0  0  0  0  0  0  0  0  0
  148.0950  153.8650  134.1280 F   0  0  0  0  0  0  0  0  0  0  0  0
  148.6210  154.1040  131.9600 F   0  0  0  0  0  0  0  0  0  0  0  0
  146.4530  156.6300  133.3370 C   0  0  0  0  0  0  0  0  0  0  0  0
  146.4550  158.0260  133.4360 C   0  0  0  0  0  0  0  0  0  0  0  0
  138.4830  159.9750  131.3840 C   0  0  0  0  0  0  0  0  0  0  0  0
  139.1130  160.6420  130.5200 O   0  0  0  0  0  0  0  0  0  0  0  0
  137.1100  159.8040  131.2530 O   0  0  0  0  0  0  0  0  0  0  0  0
  138.7556  157.5771  133.7002 H   0  0  0  0  0  0  0  0  0  0  0  0
  137.8588  157.6965  132.1484 H   0  0  0  0  0  0  0  0  0  0  0  0
  139.5980  157.2470  132.1484 H   0  0  0  0  0  0  0  0  0  0  0  0
  138.9212  159.8447  133.4659 H   0  0  0  0  0  0  0  0  0  0  0  0
  141.0270  160.0780  131.5770 H   0  0  0  0  0  0  0  0  0  0  0  0
  143.3050  159.6860  132.2450 H   0  0  0  0  0  0  0  0  0  0  0  0
  146.8270  162.5220  134.5400 H   0  0  0  0  0  0  0  0  0  0  0  0
  147.9652  160.9416  133.2624 H   0  0  0  0  0  0  0  0  0  0  0  0
  149.7416  158.7351  132.8567 H   0  0  0  0  0  0  0  0  0  0  0  0
  149.8107  156.2260  132.6942 H   0  0  0  0  0  0  0  0  0  0  0  0
  145.5185  156.0596  133.4435 H   0  0  0  0  0  0  0  0  0  0  0  0
  1  2  1  0
  2  3  1  0
  3  4  1  0
  4  5  2  0
  4  6  1  0
  6  7  1  0
  7  8  2  0
  7  9  1  0
  9 10  1  0
 10 11  1  0
 11 12  1  0
 11 13  2  0
 10 14  2  0
 14 15  1  0
 15 16  2  0
 16 17  1  0
 17 18  2  0
 18 19  1  0
 19 20  1  0
 19 21  1  0
 19 22  1  0
 18 23  1  0
 23 24  2  0
  2 25  1  0
 25 26  2  0
 25 27  1  0
 24  9  1  0
 24 15  1  0
  1 28  1  0
  1 29  1  0
  1 30  1  0
  2 31  1  1
  3 32  1  0
  6 33  1  0
 12 34  1  0
 14 35  1  0
 16 36  1  0
 17 37  1  0
 23 38  1  0
M  CHG  2  12  -1  27  -1
M  END
>  <UniqueID>  (13) 
13

>  <SMILES>  (13) 
C[C@@H](NC(=O)NC(=O)n1c(C([NH-])=O)cc2ccc(C(F)(F)F)cc21)C(=O)[O-]

>  <Energy>  (13) 
73.27161803290271

>  <Genealogy>  (13) 
CC(NC(=O)NC(=O)n1c(C([NH-])=O)cc2ccc(C(F)(F)F)cc21)C(=O)[O-] (protonated)
C[C@@H](NC(=O)NC(=O)n1c(C([NH-])=O)cc2ccc(C(F)(F)F)cc21)C(=O)[O-] (chirality)
C[C@@H](NC(=O)NC(=O)n1c(C([NH-])=O)cc2ccc(C(F)(F)F)cc21)C(=O)[O-] (3D coordinates assigned)
C[C@@H](NC(=O)NC(=O)n1c(C([NH-])=O)cc2ccc(C(F)(F)F)cc21)C(=O)[O-] (optimized conformer: 73.27161803290271 kcal/mol)

>  <smiles>  (13) 
CC(NC(=O)NC(=O)n1c(C(N)=O)cc2ccc(C(F)(F)F)cc21)C(=O)O

>  <score_type>  (13) 
oracle

>  <origin>  (13) 
adg

>  <m_score__min__energy>  (13) 
-7.5700000000000003

>  <m_primary>  (13) 
energy

$$$$
13:0
     RDKit          3D

 32 33  0  0  0  0  0  0  0  0999 V2000
  147.2218  156.3832  135.3823 H   0  0  0  0  0  0  0  0  0  0  0  0
  147.2700  155.7690  134.4710 C   0  0  0  0  0  0  0  0  0  0  0  0
  147.0050  156.4080  133.1680 C   0  0  0  0  0  0  0  0  0  0  0  0
  147.0470  155.7310  132.1050 O   0  0  0  0  0  0  0  0  0  0  0  0
  146.6650  157.8020  133.1050 N   0  0  0  0  0  0  0  0  0  0  0  0
  147.5020  158.8440  132.8350 C   0  0  0  0  0  0  0  0  0  0  0  0
  148.9110  158.7300  132.4090 C   0  0  0  0  0  0  0  0  0  0  0  0
  149.6640  159.7370  132.4860 O   0  0  0  0  0  0  0  0  0  0  0  0
  149.4260  157.5160  131.8590 N   0  0  0  0  0  0  0  0  0  0  0  0
  148.7930  156.7260  131.6030 H   0  0  0  0  0  0  0  0  0  0  0  0
  150.4380  157.4400  131.6140 H   0  0  0  0  0  0  0  0  0  0  0  0
  146.8430  160.0590  132.9990 C   0  0  0  0  0  0  0  0  0  0  0  0
  147.2585  161.0676  132.8569 H   0  0  0  0  0  0  0  0  0  0  0  0
  145.5600  159.7300  133.3770 C   0  0  0  0  0  0  0  0  0  0  0  0
  144.4860  160.5510  133.7050 C   0  0  0  0  0  0  0  0  0  0  0  0
  144.5696  161.6461  133.6430 H   0  0  0  0  0  0  0  0  0  0  0  0
  143.2910  159.9380  134.1180 C   0  0  0  0  0  0  0  0  0  0  0  0
  142.4230  160.5595  134.3831 H   0  0  0  0  0  0  0  0  0  0  0  0
  143.1940  158.5270  134.1960 C   0  0  0  0  0  0  0  0  0  0  0  0
  141.9320  157.8880  134.6940 C   0  0  0  0  0  0  0  0  0  0  0  0
  141.9307  157.8873  135.7940 H   0  0  0  0  0  0  0  0  0  0  0  0
  141.0641  158.4553  134.3266 H   0  0  0  0  0  0  0  0  0  0  0  0
  141.8755  156.8527  134.3266 H   0  0  0  0  0  0  0  0  0  0  0  0
  144.3120  157.7260  133.8750 C   0  0  0  0  0  0  0  0  0  0  0  0
  144.2660  156.6307  133.9653 H   0  0  0  0  0  0  0  0  0  0  0  0
  145.4800  158.3620  133.4390 C   0  0  0  0  0  0  0  0  0  0  0  0
  147.5660  154.4730  134.5840 C   0  0  0  0  0  0  0  0  0  0  0  0
  147.6178  153.8442  133.6829 H   0  0  0  0  0  0  0  0  0  0  0  0
  147.8730  153.7650  136.1580 S   0  0  0  0  0  0  0  0  0  0  0  0
  148.8410  152.6260  136.0090 O   0  0  0  0  0  0  0  0  0  0  0  0
  148.4640  154.8010  137.0730 O   0  0  0  0  0  0  0  0  0  0  0  0
  146.4370  153.1850  136.8090 O   0  0  0  0  0  0  0  0  0  0  0  0
  1  2  1  0
  2  3  1  0
  3  4  2  0
  3  5  1  0
  5  6  1  0
  6  7  1  0
  7  8  2  0
  7  9  1  0
  9 10  1  0
  9 11  1  0
  6 12  2  0
 12 13  1  0
 12 14  1  0
 14 15  2  0
 15 16  1  0
 15 17  1  0
 17 18  1  0
 17 19  2  0
 19 20  1  0
 20 21  1  0
 20 22  1  0
 20 23  1  0
 19 24  1  0
 24 25  1  0
 24 26  2  0
  2 27  2  0
 27 28  1  0
 27 29  1  0
 29 30  2  0
 29 31  2  0
 29 32  1  0
 26  5  1  0
 26 14  1  0
M  CHG  1  32  -1
M  END
>  <UniqueID>  (14) 
14

>  <SMILES>  (14) 
Cc1ccc2cc(C(N)=O)n(C(=O)/C=C/S(=O)(=O)[O-])c2c1

>  <Energy>  (14) 
70.86707500199967

>  <Genealogy>  (14) 
Cc1ccc2cc(C(N)=O)n(C(=O)/C=C/S(=O)(=O)[O-])c2c1 (protonated)
Cc1ccc2cc(C(N)=O)n(C(=O)/C=C/S(=O)(=O)[O-])c2c1 (cis-trans isomerization)
Cc1ccc2cc(C(N)=O)n(C(=O)/C=C/S(=O)(=O)[O-])c2c1 (3D coordinates assigned)
Cc1ccc2cc(C(N)=O)n(C(=O)/C=C/S(=O)(=O)[O-])c2c1 (optimized conformer: 70.86707500199967 kcal/mol)

>  <smiles>  (14) 
Cc1ccc2cc(C(N)=O)n(C(=O)/C=C/S(=O)(=O)O)c2c1

>  <score_type>  (14) 
oracle

>  <origin>  (14) 
adg

>  <m_score__min__energy>  (14) 
-7.4199999999999999

>  <m_primary>  (14) 
energy

$$$$
14:0
     RDKit          3D

 46 48  0  0  0  0  0  0  0  0999 V2000
  138.7120  160.3580  131.0960 C   0  0  0  0  0  0  0  0  0  0  0  0
  139.4430  159.3370  131.5510 C   0  0  0  0  0  0  0  0  0  0  0  0
  138.8590  157.9660  131.7460 C   0  0  0  0  0  0  0  0  0  0  0  0
  139.7320  157.1680  132.5400 O   0  0  0  0  0  0  0  0  0  0  0  0
  139.6760  157.1250  133.9390 C   0  0  0  0  0  0  0  0  0  0  0  0
  138.7340  157.6960  134.5550 O   0  0  0  0  0  0  0  0  0  0  0  0
  140.7060  156.4450  134.6730 N   0  0  0  0  0  0  0  0  0  0  0  0
  141.3050  156.8440  135.8300 C   0  0  0  0  0  0  0  0  0  0  0  0
  141.1330  158.1540  136.4910 C   0  0  0  0  0  0  0  0  0  0  0  0
  139.8660  158.5550  137.0050 N   0  0  0  0  0  0  0  0  0  0  0  0
  142.1060  158.9520  136.5560 O   0  0  0  0  0  0  0  0  0  0  0  0
  142.1930  155.8710  136.2820 C   0  0  0  0  0  0  0  0  0  0  0  0
  142.1300  154.8600  135.3510 C   0  0  0  0  0  0  0  0  0  0  0  0
  142.7960  153.6400  135.3100 C   0  0  0  0  0  0  0  0  0  0  0  0
  142.5200  152.7740  134.2400 C   0  0  0  0  0  0  0  0  0  0  0  0
  141.5920  153.1370  133.2260 C   0  0  0  0  0  0  0  0  0  0  0  0
  141.3120  152.2320  132.1280 N   0  0  0  0  0  0  0  0  0  0  0  0
  140.8070  150.8910  132.5230 C   0  0  1  0  0  0  0  0  0  0  0  0
  139.3370  150.6880  132.2320 C   0  0  0  0  0  0  0  0  0  0  0  0
  139.3280  149.8910  130.9370 C   0  0  0  0  0  0  0  0  0  0  0  0
  140.6280  149.4190  130.6500 O   0  0  0  0  0  0  0  0  0  0  0  0
  141.4560  149.7370  131.7480 C   0  0  2  0  0  0  0  0  0  0  0  0
  141.6410  148.4890  132.6190 C   0  0  0  0  0  0  0  0  0  0  0  0
  140.9060  154.3720  133.3310 C   0  0  0  0  0  0  0  0  0  0  0  0
  141.2230  155.2280  134.3910 C   0  0  0  0  0  0  0  0  0  0  0  0
  139.1721  161.3486  130.9652 H   0  0  0  0  0  0  0  0  0  0  0  0
  137.6499  160.2083  130.8520 H   0  0  0  0  0  0  0  0  0  0  0  0
  140.5036  159.5045  131.7900 H   0  0  0  0  0  0  0  0  0  0  0  0
  137.8862  158.0540  132.2520 H   0  0  0  0  0  0  0  0  0  0  0  0
  138.7294  157.4879  130.7638 H   0  0  0  0  0  0  0  0  0  0  0  0
  139.1020  158.8660  136.3670 H   0  0  0  0  0  0  0  0  0  0  0  0
  142.8128  155.9038  137.1901 H   0  0  0  0  0  0  0  0  0  0  0  0
  143.5174  153.3618  136.0924 H   0  0  0  0  0  0  0  0  0  0  0  0
  143.0292  151.8005  134.1854 H   0  0  0  0  0  0  0  0  0  0  0  0
  142.1780  152.1090  131.5530 H   0  0  0  0  0  0  0  0  0  0  0  0
  140.6080  152.6740  131.4920 H   0  0  0  0  0  0  0  0  0  0  0  0
  141.0405  150.8735  133.5978 H   0  0  0  0  0  0  0  0  0  0  0  0
  138.8518  150.1240  133.0422 H   0  0  0  0  0  0  0  0  0  0  0  0
  138.7854  151.6362  132.1507 H   0  0  0  0  0  0  0  0  0  0  0  0
  138.6447  149.0353  131.0409 H   0  0  0  0  0  0  0  0  0  0  0  0
  138.9909  150.5408  130.1160 H   0  0  0  0  0  0  0  0  0  0  0  0
  142.4540  150.0593  131.4164 H   0  0  0  0  0  0  0  0  0  0  0  0
  141.5989  148.7734  133.6808 H   0  0  0  0  0  0  0  0  0  0  0  0
  140.8400  147.7674  132.4006 H   0  0  0  0  0  0  0  0  0  0  0  0
  142.6169  148.0308  132.4006 H   0  0  0  0  0  0  0  0  0  0  0  0
  140.1393  154.6523  132.5937 H   0  0  0  0  0  0  0  0  0  0  0  0
  1  2  2  0
  2  3  1  0
  3  4  1  0
  4  5  1  0
  5  6  2  0
  5  7  1  0
  7  8  1  0
  8  9  1  0
  9 10  1  0
  9 11  2  0
  8 12  2  0
 12 13  1  0
 13 14  2  0
 14 15  1  0
 15 16  2  0
 16 17  1  0
 17 18  1  0
 18 19  1  0
 19 20  1  0
 20 21  1  0
 21 22  1  0
 22 23  1  0
 16 24  1  0
 24 25  2  0
 25  7  1  0
 25 13  1  0
 22 18  1  0
  1 26  1  0
  1 27  1  0
  2 28  1  0
  3 29  1  0
  3 30  1  0
 10 31  1  0
 12 32  1  0
 14 33  1  0
 15 34  1  0
 17 35  1  0
 17 36  1  0
 18 37  1  1
 19 38  1  0
 19 39  1  0
 20 40  1  0
 20 41  1  0
 22 42  1  6
 23 43  1  0
 23 44  1  0
 23 45  1  0
 24 46  1  0
M  CHG  2  10  -1  17   1
M  END
>  <UniqueID>  (15) 
15

>  <SMILES>  (15) 
C=CCOC(=O)n1c(C([NH-])=O)cc2ccc([NH2+][C@H]3CCO[C@@H]3C)cc21

>  <Energy>  (15) 
87.70024806224916

>  <Genealogy>  (15) 
C=CCOC(=O)n1c(C([NH-])=O)cc2ccc([NH2+]C3CCOC3C)cc21 (protonated)
C=CCOC(=O)n1c(C([NH-])=O)cc2ccc([NH2+][C@H]3CCO[C@@H]3C)cc21 (chirality)
C=CCOC(=O)n1c(C([NH-])=O)cc2ccc([NH2+][C@H]3CCO[C@@H]3C)cc21 (3D coordinates assigned)
C=CCOC(=O)n1c(C([NH-])=O)cc2ccc([NH2+][C@H]3CCO[C@@H]3C)cc21 (nonaromatic ring conformer: 87.70024806224916 kcal/mol)

>  <smiles>  (15) 
C=CCOC(=O)n1c(C(N)=O)cc2ccc(NC3CCOC3C)cc21

>  <score_type>  (15) 
oracle

>  <origin>  (15) 
adg

>  <m_score__min__energy>  (15) 
-7.7400000000000002

>  <m_primary>  (15) 
energy

$$$$
15:0
     RDKit          3D

 38 40  0  0  0  0  0  0  0  0999 V2000
  149.6090  153.7170  138.5250 C   0  0  0  0  0  0  0  0  0  0  0  0
  148.6120  154.4680  137.7760 N   0  0  0  0  0  0  0  0  0  0  0  0
  147.5920  153.9110  136.9340 C   0  0  0  0  0  0  0  0  0  0  0  0
  146.9920  152.8780  137.3310 O   0  0  0  0  0  0  0  0  0  0  0  0
  147.2180  154.4940  135.6270 C   0  0  0  0  0  0  0  0  0  0  0  0
  146.2980  153.9540  134.7440 C   0  0  0  0  0  0  0  0  0  0  0  0
  146.2750  154.8330  133.6830 C   0  0  0  0  0  0  0  0  0  0  0  0
  147.1460  155.8300  133.9380 N   0  0  0  0  0  0  0  0  0  0  0  0
  147.4130  156.9640  133.1040 C   0  0  0  0  0  0  0  0  0  0  0  0
  148.3100  156.8920  132.2210 O   0  0  0  0  0  0  0  0  0  0  0  0
  146.6900  158.1930  133.2760 N   0  0  0  0  0  0  0  0  0  0  0  0
  147.1270  159.4610  133.0350 C   0  0  0  0  0  0  0  0  0  0  0  0
  148.5040  159.8260  132.6310 C   0  0  0  0  0  0  0  0  0  0  0  0
  149.6130  158.9910  132.9670 N   0  0  0  0  0  0  0  0  0  0  0  0
  148.7080  160.8790  131.9700 O   0  0  0  0  0  0  0  0  0  0  0  0
  146.1100  160.3810  133.2970 C   0  0  0  0  0  0  0  0  0  0  0  0
  145.0360  159.6290  133.7170 C   0  0  0  0  0  0  0  0  0  0  0  0
  143.7580  160.0250  134.1030 C   0  0  0  0  0  0  0  0  0  0  0  0
  142.8440  159.0250  134.4760 C   0  0  0  0  0  0  0  0  0  0  0  0
  143.2240  157.6590  134.4660 C   0  0  0  0  0  0  0  0  0  0  0  0
  142.2250  156.5990  134.8220 C   0  0  0  0  0  0  0  0  0  0  0  0
  144.5250  157.2940  134.0560 C   0  0  0  0  0  0  0  0  0  0  0  0
  145.4150  158.3120  133.6990 C   0  0  0  0  0  0  0  0  0  0  0  0
  147.7160  155.6360  135.1160 N   0  0  0  0  0  0  0  0  0  0  0  0
  149.4339  153.8489  139.6029 H   0  0  0  0  0  0  0  0  0  0  0  0
  149.5328  152.6499  138.2690 H   0  0  0  0  0  0  0  0  0  0  0  0
  150.6136  154.0847  138.2690 H   0  0  0  0  0  0  0  0  0  0  0  0
  145.7150  153.0288  134.8631 H   0  0  0  0  0  0  0  0  0  0  0  0
  145.6520  154.7375  132.7815 H   0  0  0  0  0  0  0  0  0  0  0  0
  150.5740  159.2460  132.6460 H   0  0  0  0  0  0  0  0  0  0  0  0
  149.5000  158.1480  133.5700 H   0  0  0  0  0  0  0  0  0  0  0  0
  146.1569  161.4748  133.1904 H   0  0  0  0  0  0  0  0  0  0  0  0
  143.4729  161.0873  134.1155 H   0  0  0  0  0  0  0  0  0  0  0  0
  141.8241  159.3045  134.7786 H   0  0  0  0  0  0  0  0  0  0  0  0
  142.1496  156.5190  135.9165 H   0  0  0  0  0  0  0  0  0  0  0  0
  141.2427  156.8662  134.4053 H   0  0  0  0  0  0  0  0  0  0  0  0
  142.5499  155.6342  134.4053 H   0  0  0  0  0  0  0  0  0  0  0  0
  144.8301  156.2378  134.0184 H   0  0  0  0  0  0  0  0  0  0  0  0
  1  2  1  0
  2  3  1  0
  3  4  2  0
  3  5  1  0
  5  6  1  0
  6  7  2  0
  7  8  1  0
  8  9  1  0
  9 10  2  0
  9 11  1  0
 11 12  1  0
 12 13  1  0
 13 14  1  0
 13 15  2  0
 12 16  2  0
 16 17  1  0
 17 18  2  0
 18 19  1  0
 19 20  2  0
 20 21  1  0
 20 22  1  0
 22 23  2  0
  8 24  1  0
 24  5  2  0
 23 11  1  0
 23 17  1  0
  1 25  1  0
  1 26  1  0
  1 27  1  0
  6 28  1  0
  7 29  1  0
 14 30  1  0
 14 31  1  0
 16 32  1  0
 18 33  1  0
 19 34  1  0
 21 35  1  0
 21 36  1  0
 21 37  1  0
 22 38  1  0
M  CHG  1   2  -1
M  END
>  <UniqueID>  (16) 
16

>  <SMILES>  (16) 
C[N-]C(=O)c1ccn(C(=O)n2c(C(N)=O)cc3ccc(C)cc32)n1

>  <Energy>  (16) 
107.02084477029643

>  <Genealogy>  (16) 
C[N-]C(=O)c1ccn(C(=O)n2c(C(N)=O)cc3ccc(C)cc32)n1 (protonated)
C[N-]C(=O)c1ccn(C(=O)n2c(C(N)=O)cc3ccc(C)cc32)n1 (3D coordinates assigned)
C[N-]C(=O)c1ccn(C(=O)n2c(C(N)=O)cc3ccc(C)cc32)n1 (optimized conformer: 107.02084477029643 kcal/mol)

>  <smiles>  (16) 
CNC(=O)c1ccn(C(=O)n2c(C(N)=O)cc3ccc(C)cc32)n1

>  <score_type>  (16) 
oracle

>  <origin>  (16) 
adg

>  <m_score__min__energy>  (16) 
-7.7300000000000004

>  <m_primary>  (16) 
energy

$$$$
16:0
     RDKit          3D

 39 40  0  0  0  0  0  0  0  0999 V2000
  141.3460  151.9430  134.5180 N   0  0  0  0  0  0  0  0  0  0  0  0
  141.0400  152.7070  133.3490 C   0  0  0  0  0  0  0  0  0  0  0  0
  140.9750  152.1280  132.2320 O   0  0  0  0  0  0  0  0  0  0  0  0
  140.8630  154.1720  133.4160 C   0  0  0  0  0  0  0  0  0  0  0  0
  139.7160  154.8260  132.9760 C   0  0  0  0  0  0  0  0  0  0  0  0
  139.9700  156.1650  133.1580 C   0  0  0  0  0  0  0  0  0  0  0  0
  139.1590  157.2690  132.9130 C   0  0  0  0  0  0  0  0  0  0  0  0
  139.6580  158.5400  133.2420 C   0  0  0  0  0  0  0  0  0  0  0  0
  140.9530  158.6890  133.8010 C   0  0  0  0  0  0  0  0  0  0  0  0
  141.4520  160.0510  134.2110 C   0  0  0  0  0  0  0  0  0  0  0  0
  142.8360  160.0810  134.2160 F   0  0  0  0  0  0  0  0  0  0  0  0
  140.9900  160.3420  135.4800 F   0  0  0  0  0  0  0  0  0  0  0  0
  141.0020  161.0230  133.3330 F   0  0  0  0  0  0  0  0  0  0  0  0
  141.7350  157.5400  134.0600 C   0  0  0  0  0  0  0  0  0  0  0  0
  141.2240  156.2870  133.6990 C   0  0  0  0  0  0  0  0  0  0  0  0
  141.7860  155.0670  133.8670 N   0  0  0  0  0  0  0  0  0  0  0  0
  143.0440  154.7800  134.5010 C   0  0  0  0  0  0  0  0  0  0  0  0
  144.1110  155.2500  134.0210 O   0  0  0  0  0  0  0  0  0  0  0  0
  143.0850  153.9680  135.6770 N   0  0  0  0  0  0  0  0  0  0  0  0
  142.3390  154.2880  136.8850 C   0  0  0  0  0  0  0  0  0  0  0  0
  142.0100  153.0250  137.6080 C   0  0  0  0  0  0  0  0  0  0  0  0
  142.9290  152.2140  137.9040 O   0  0  0  0  0  0  0  0  0  0  0  0
  140.6470  152.7190  137.9150 N   0  0  0  0  0  0  0  0  0  0  0  0
  140.2550  151.5270  138.6540 C   0  0  0  0  0  0  0  0  0  0  0  0
  139.9960  150.3810  137.6800 C   0  0  0  0  0  0  0  0  0  0  0  0
  140.6450  150.6230  136.4610 O   0  0  0  0  0  0  0  0  0  0  0  0
  141.4290  150.9040  134.4560 H   0  0  0  0  0  0  0  0  0  0  0  0
  141.5780  152.4100  135.4210 H   0  0  0  0  0  0  0  0  0  0  0  0
  138.8016  154.3693  132.5695 H   0  0  0  0  0  0  0  0  0  0  0  0
  138.1571  157.1498  132.4748 H   0  0  0  0  0  0  0  0  0  0  0  0
  139.0371  159.4304  133.0640 H   0  0  0  0  0  0  0  0  0  0  0  0
  142.7233  157.6282  134.5347 H   0  0  0  0  0  0  0  0  0  0  0  0
  142.9485  154.9348  137.5332 H   0  0  0  0  0  0  0  0  0  0  0  0
  141.4102  154.8131  136.6173 H   0  0  0  0  0  0  0  0  0  0  0  0
  141.0619  151.2437  139.3459 H   0  0  0  0  0  0  0  0  0  0  0  0
  139.3373  151.7362  139.2233 H   0  0  0  0  0  0  0  0  0  0  0  0
  140.3752  149.4437  138.1133 H   0  0  0  0  0  0  0  0  0  0  0  0
  138.9137  150.3019  137.4999 H   0  0  0  0  0  0  0  0  0  0  0  0
  141.4540  151.1600  136.6710 H   0  0  0  0  0  0  0  0  0  0  0  0
  1  2  1  0
  2  3  2  0
  2  4  1  0
  4  5  2  0
  5  6  1  0
  6  7  2  0
  7  8  1  0
  8  9  2  0
  9 10  1  0
 10 11  1  0
 10 12  1  0
 10 13  1  0
  9 14  1  0
 14 15  2  0
 15 16  1  0
 16 17  1  0
 17 18  2  0
 17 19  1  0
 19 20  1  0
 20 21  1  0
 21 22  2  0
 21 23  1  0
 23 24  1  0
 24 25  1  0
 25 26  1  0
 16  4  1  0
 15  6  1  0
  1 27  1  0
  1 28  1  0
  5 29  1  0
  7 30  1  0
  8 31  1  0
 14 32  1  0
 20 33  1  0
 20 34  1  0
 24 35  1  0
 24 36  1  0
 25 37  1  0
 25 38  1  0
 26 39  1  0
M  CHG  2  19  -1  23  -1
M  END
>  <UniqueID>  (17) 
17

>  <SMILES>  (17) 
NC(=O)c1cc2ccc(C(F)(F)F)cc2n1C(=O)[N-]CC(=O)[N-]CCO

>  <Energy>  (17) 
70.57216467281444

>  <Genealogy>  (17) 
NC(=O)c1cc2ccc(C(F)(F)F)cc2n1C(=O)[N-]CC(=O)[N-]CCO (protonated)
NC(=O)c1cc2ccc(C(F)(F)F)cc2n1C(=O)[N-]CC(=O)[N-]CCO (3D coordinates assigned)
NC(=O)c1cc2ccc(C(F)(F)F)cc2n1C(=O)[N-]CC(=O)[N-]CCO (optimized conformer: 70.57216467281444 kcal/mol)

>  <smiles>  (17) 
NC(=O)c1cc2ccc(C(F)(F)F)cc2n1C(=O)NCC(=O)NCCO

>  <score_type>  (17) 
oracle

>  <origin>  (17) 
adg

>  <m_score__min__energy>  (17) 
-5.6100000000000003

>  <m_primary>  (17) 
energy

$$$$
17:0
     RDKit          3D

 42 43  0  0  0  0  0  0  0  0999 V2000
  144.9120  155.9030  134.4750 C   0  0  0  0  0  0  0  0  0  0  0  0
  144.0070  156.9840  134.5200 O   0  0  0  0  0  0  0  0  0  0  0  0
  143.9440  157.6280  133.2610 C   0  0  0  0  0  0  0  0  0  0  0  0
  144.4810  159.0570  133.3690 C   0  0  0  0  0  0  0  0  0  0  0  0
  143.4180  160.0020  133.2710 O   0  0  0  0  0  0  0  0  0  0  0  0
  142.3360  160.0400  134.1590 C   0  0  0  0  0  0  0  0  0  0  0  0
  141.3410  160.7820  133.9260 O   0  0  0  0  0  0  0  0  0  0  0  0
  142.3700  159.2310  135.3380 N   0  0  0  0  0  0  0  0  0  0  0  0
  141.2670  159.2270  136.2960 C   0  0  0  0  0  0  0  0  0  0  0  0
  140.2250  158.2280  135.8920 C   0  0  0  0  0  0  0  0  0  0  0  0
  139.1010  158.2350  136.4640 O   0  0  0  0  0  0  0  0  0  0  0  0
  140.5330  157.1990  134.9410 N   0  0  0  0  0  0  0  0  0  0  0  0
  140.4080  157.2450  133.5860 C   0  0  0  0  0  0  0  0  0  0  0  0
  139.8030  158.3480  132.8130 C   0  0  0  0  0  0  0  0  0  0  0  0
  140.6050  159.1110  131.9150 N   0  0  0  0  0  0  0  0  0  0  0  0
  138.5750  158.6110  132.9210 O   0  0  0  0  0  0  0  0  0  0  0  0
  140.8740  156.0600  133.0150 C   0  0  0  0  0  0  0  0  0  0  0  0
  141.2840  155.2820  134.0750 C   0  0  0  0  0  0  0  0  0  0  0  0
  141.8500  154.0110  134.0910 C   0  0  0  0  0  0  0  0  0  0  0  0
  142.2010  153.4610  135.3360 C   0  0  0  0  0  0  0  0  0  0  0  0
  141.9670  154.1780  136.5390 C   0  0  0  0  0  0  0  0  0  0  0  0
  142.4010  153.6010  137.8620 C   0  0  0  0  0  0  0  0  0  0  0  0
  142.1740  154.5030  138.8870 F   0  0  0  0  0  0  0  0  0  0  0  0
  141.6990  152.4410  138.1420 F   0  0  0  0  0  0  0  0  0  0  0  0
  143.7520  153.3090  137.8100 F   0  0  0  0  0  0  0  0  0  0  0  0
  141.4100  155.4760  136.4780 C   0  0  0  0  0  0  0  0  0  0  0  0
  141.0630  155.9920  135.2250 C   0  0  0  0  0  0  0  0  0  0  0  0
  145.1685  155.5966  135.4999 H   0  0  0  0  0  0  0  0  0  0  0  0
  144.4480  155.0581  133.9450 H   0  0  0  0  0  0  0  0  0  0  0  0
  145.8253  156.2112  133.9450 H   0  0  0  0  0  0  0  0  0  0  0  0
  144.5502  157.0662  132.5351 H   0  0  0  0  0  0  0  0  0  0  0  0
  142.8960  157.6633  132.9287 H   0  0  0  0  0  0  0  0  0  0  0  0
  144.9864  159.1808  134.3381 H   0  0  0  0  0  0  0  0  0  0  0  0
  145.1885  159.2329  132.5453 H   0  0  0  0  0  0  0  0  0  0  0  0
  143.2100  158.6270  135.4960 H   0  0  0  0  0  0  0  0  0  0  0  0
  141.6534  158.9646  137.2919 H   0  0  0  0  0  0  0  0  0  0  0  0
  140.8110  160.2278  136.3181 H   0  0  0  0  0  0  0  0  0  0  0  0
  141.5540  159.4460  132.1940 H   0  0  0  0  0  0  0  0  0  0  0  0
  140.9069  155.8022  131.9461 H   0  0  0  0  0  0  0  0  0  0  0  0
  142.0177  153.4535  133.1577 H   0  0  0  0  0  0  0  0  0  0  0  0
  142.6624  152.4634  135.3788 H   0  0  0  0  0  0  0  0  0  0  0  0
  141.2534  156.0656  137.3933 H   0  0  0  0  0  0  0  0  0  0  0  0
  1  2  1  0
  2  3  1  0
  3  4  1  0
  4  5  1  0
  5  6  1  0
  6  7  2  0
  6  8  1  0
  8  9  1  0
  9 10  1  0
 10 11  2  0
 10 12  1  0
 12 13  1  0
 13 14  1  0
 14 15  1  0
 14 16  2  0
 13 17  2  0
 17 18  1  0
 18 19  2  0
 19 20  1  0
 20 21  2  0
 21 22  1  0
 22 23  1  0
 22 24  1  0
 22 25  1  0
 21 26  1  0
 26 27  2  0
 27 12  1  0
 27 18  1  0
  1 28  1  0
  1 29  1  0
  1 30  1  0
  3 31  1  0
  3 32  1  0
  4 33  1  0
  4 34  1  0
  8 35  1  0
  9 36  1  0
  9 37  1  0
 15 38  1  0
 17 39  1  0
 19 40  1  0
 20 41  1  0
 26 42  1  0
M  CHG  1  15  -1
M  END
>  <UniqueID>  (18) 
18

>  <SMILES>  (18) 
COCCOC(=O)NCC(=O)n1c(C([NH-])=O)cc2ccc(C(F)(F)F)cc21

>  <Energy>  (18) 
77.82597926524517

>  <Genealogy>  (18) 
COCCOC(=O)NCC(=O)n1c(C([NH-])=O)cc2ccc(C(F)(F)F)cc21 (protonated)
COCCOC(=O)NCC(=O)n1c(C([NH-])=O)cc2ccc(C(F)(F)F)cc21 (3D coordinates assigned)
COCCOC(=O)NCC(=O)n1c(C([NH-])=O)cc2ccc(C(F)(F)F)cc21 (optimized conformer: 77.82597926524517 kcal/mol)

>  <smiles>  (18) 
COCCOC(=O)NCC(=O)n1c(C(N)=O)cc2ccc(C(F)(F)F)cc21

>  <score_type>  (18) 
oracle

>  <origin>  (18) 
adg

>  <m_score__min__energy>  (18) 
-5.9000000000000004

>  <m_primary>  (18) 
energy

$$$$
18:0
     RDKit          3D

 37 38  0  0  0  0  0  0  0  0999 V2000
  138.2780  159.4310  130.8530 C   0  0  0  0  0  0  0  0  0  0  0  0
  139.3070  159.0720  131.8830 C   0  0  0  0  0  0  0  0  0  0  0  0
  140.0370  160.0940  132.5400 C   0  0  0  0  0  0  0  0  0  0  0  0
  140.9710  159.7740  133.5410 C   0  0  0  0  0  0  0  0  0  0  0  0
  141.1500  158.4310  133.8620 C   0  0  0  0  0  0  0  0  0  0  0  0
  141.9590  157.8440  134.8090 C   0  0  0  0  0  0  0  0  0  0  0  0
  141.7110  156.4760  134.7110 C   0  0  0  0  0  0  0  0  0  0  0  0
  142.4090  155.4560  135.5220 C   0  0  0  0  0  0  0  0  0  0  0  0
  141.7230  154.3020  136.0000 N   0  0  0  0  0  0  0  0  0  0  0  0
  143.6360  155.5910  135.7750 O   0  0  0  0  0  0  0  0  0  0  0  0
  140.7870  156.2290  133.7400 N   0  0  0  0  0  0  0  0  0  0  0  0
  140.2080  154.9650  133.3820 C   0  0  0  0  0  0  0  0  0  0  0  0
  138.9560  154.8590  133.2940 O   0  0  0  0  0  0  0  0  0  0  0  0
  141.0670  153.7930  133.1260 C   0  0  0  0  0  0  0  0  0  0  0  0
  142.3010  153.8660  133.3730 O   0  0  0  0  0  0  0  0  0  0  0  0
  140.5070  152.5770  132.6070 N   0  0  0  0  0  0  0  0  0  0  0  0
  141.3130  151.3640  132.4220 C   0  0  1  0  0  0  0  0  0  0  0  0
  142.0170  150.9740  133.7310 C   0  0  0  0  0  0  0  0  0  0  0  0
  141.3640  151.5250  134.8450 O   0  0  0  0  0  0  0  0  0  0  0  0
  140.4560  150.2340  131.9180 C   0  0  0  0  0  0  0  0  0  0  0  0
  139.2270  150.4170  131.7100 O   0  0  0  0  0  0  0  0  0  0  0  0
  141.0140  148.9870  131.6600 O   0  0  0  0  0  0  0  0  0  0  0  0
  140.4500  157.4340  133.2340 C   0  0  0  0  0  0  0  0  0  0  0  0
  139.5010  157.7230  132.2480 C   0  0  0  0  0  0  0  0  0  0  0  0
  137.3538  159.7534  131.3549 H   0  0  0  0  0  0  0  0  0  0  0  0
  138.6585  160.2495  130.2243 H   0  0  0  0  0  0  0  0  0  0  0  0
  138.0668  158.5534  130.2243 H   0  0  0  0  0  0  0  0  0  0  0  0
  139.8715  161.1460  132.2645 H   0  0  0  0  0  0  0  0  0  0  0  0
  141.5429  160.5607  134.0549 H   0  0  0  0  0  0  0  0  0  0  0  0
  142.6538  158.3479  135.4970 H   0  0  0  0  0  0  0  0  0  0  0  0
  141.3110  153.6080  135.3370 H   0  0  0  0  0  0  0  0  0  0  0  0
  139.4850  152.5480  132.3880 H   0  0  0  0  0  0  0  0  0  0  0  0
  142.0867  151.5730  131.6685 H   0  0  0  0  0  0  0  0  0  0  0  0
  142.0202  149.8779  133.8234 H   0  0  0  0  0  0  0  0  0  0  0  0
  143.0447  151.3650  133.7024 H   0  0  0  0  0  0  0  0  0  0  0  0
  141.6930  152.4550  134.9390 H   0  0  0  0  0  0  0  0  0  0  0  0
  138.9212  156.9198  131.7698 H   0  0  0  0  0  0  0  0  0  0  0  0
  1  2  1  0
  2  3  2  0
  3  4  1  0
  4  5  2  0
  5  6  1  0
  6  7  2  0
  7  8  1  0
  8  9  1  0
  8 10  2  0
  7 11  1  0
 11 12  1  0
 12 13  2  0
 12 14  1  0
 14 15  2  0
 14 16  1  0
 16 17  1  0
 17 18  1  0
 18 19  1  0
 17 20  1  0
 20 21  2  0
 20 22  1  0
 11 23  1  0
 23 24  2  0
 24  2  1  0
 23  5  1  0
  1 25  1  0
  1 26  1  0
  1 27  1  0
  3 28  1  0
  4 29  1  0
  6 30  1  0
  9 31  1  0
 16 32  1  0
 17 33  1  6
 18 34  1  0
 18 35  1  0
 19 36  1  0
 24 37  1  0
M  CHG  2   9  -1  22  -1
M  END
>  <UniqueID>  (19) 
19

>  <SMILES>  (19) 
Cc1ccc2cc(C([NH-])=O)n(C(=O)C(=O)N[C@@H](CO)C(=O)[O-])c2c1

>  <Energy>  (19) 
73.06724486012966

>  <Genealogy>  (19) 
Cc1ccc2cc(C([NH-])=O)n(C(=O)C(=O)NC(CO)C(=O)[O-])c2c1 (protonated)
Cc1ccc2cc(C([NH-])=O)n(C(=O)C(=O)N[C@@H](CO)C(=O)[O-])c2c1 (chirality)
Cc1ccc2cc(C([NH-])=O)n(C(=O)C(=O)N[C@@H](CO)C(=O)[O-])c2c1 (3D coordinates assigned)
Cc1ccc2cc(C([NH-])=O)n(C(=O)C(=O)N[C@@H](CO)C(=O)[O-])c2c1 (optimized conformer: 73.06724486012966 kcal/mol)

>  <smiles>  (19) 
Cc1ccc2cc(C(N)=O)n(C(=O)C(=O)NC(CO)C(=O)O)c2c1

>  <score_type>  (19) 
oracle

>  <origin>  (19) 
adg

>  <m_score__min__energy>  (19) 
-6.2699999999999996

>  <m_primary>  (19) 
energy

$$$$
19:0
     RDKit          3D

 44 45  0  0  0  0  0  0  0  0999 V2000
  147.8660  154.8510  132.5110 C   0  0  0  0  0  0  0  0  0  0  0  0
  147.7240  156.3210  132.7730 C   0  0  0  0  0  0  0  0  0  0  0  0
  148.8630  157.1620  132.7370 C   0  0  0  0  0  0  0  0  0  0  0  0
  148.7390  158.5440  132.9580 C   0  0  0  0  0  0  0  0  0  0  0  0
  147.4650  159.0550  133.1920 C   0  0  0  0  0  0  0  0  0  0  0  0
  147.0650  160.3450  133.4550 C   0  0  0  0  0  0  0  0  0  0  0  0
  145.6820  160.2780  133.6100 C   0  0  0  0  0  0  0  0  0  0  0  0
  144.8180  161.4590  133.8150 C   0  0  0  0  0  0  0  0  0  0  0  0
  143.3980  161.3520  133.7030 N   0  0  0  0  0  0  0  0  0  0  0  0
  145.3280  162.5680  134.1260 O   0  0  0  0  0  0  0  0  0  0  0  0
  145.2430  158.9970  133.4500 N   0  0  0  0  0  0  0  0  0  0  0  0
  143.9020  158.5090  133.6170 C   0  0  0  0  0  0  0  0  0  0  0  0
  143.1910  158.2580  132.6070 O   0  0  0  0  0  0  0  0  0  0  0  0
  143.3970  158.2970  134.9040 O   0  0  0  0  0  0  0  0  0  0  0  0
  142.1970  157.5690  135.1490 C   0  0  0  0  0  0  0  0  0  0  0  0
  141.1480  158.4750  135.4730 O   0  0  0  0  0  0  0  0  0  0  0  0
  139.9690  158.5710  134.7260 C   0  0  0  0  0  0  0  0  0  0  0  0
  138.8940  158.0710  135.1580 O   0  0  0  0  0  0  0  0  0  0  0  0
  139.9900  159.3150  133.4120 C   0  0  1  0  0  0  0  0  0  0  0  0
  141.2950  159.9380  133.1760 N   0  0  0  0  0  0  0  0  0  0  0  0
  139.6010  158.4170  132.2120 C   0  0  2  0  0  0  0  0  0  0  0  0
  139.5190  156.9300  132.5920 C   0  0  0  0  0  0  0  0  0  0  0  0
  140.4610  158.6130  131.1150 O   0  0  0  0  0  0  0  0  0  0  0  0
  146.3480  158.2590  133.1960 C   0  0  0  0  0  0  0  0  0  0  0  0
  146.4450  156.8770  132.9970 C   0  0  0  0  0  0  0  0  0  0  0  0
  147.9181  154.3113  133.4681 H   0  0  0  0  0  0  0  0  0  0  0  0
  146.9980  154.4954  131.9364 H   0  0  0  0  0  0  0  0  0  0  0  0
  148.7860  154.6682  131.9364 H   0  0  0  0  0  0  0  0  0  0  0  0
  149.8538  156.7293  132.5342 H   0  0  0  0  0  0  0  0  0  0  0  0
  149.6207  159.2017  132.9465 H   0  0  0  0  0  0  0  0  0  0  0  0
  147.7017  161.2391  133.5275 H   0  0  0  0  0  0  0  0  0  0  0  0
  142.9450  160.4610  133.4030 H   0  0  0  0  0  0  0  0  0  0  0  0
  142.7940  162.1850  133.8820 H   0  0  0  0  0  0  0  0  0  0  0  0
  141.9239  156.9992  134.2486 H   0  0  0  0  0  0  0  0  0  0  0  0
  142.3544  156.8761  135.9887 H   0  0  0  0  0  0  0  0  0  0  0  0
  139.2277  160.1040  133.4924 H   0  0  0  0  0  0  0  0  0  0  0  0
  141.9830  159.5470  133.8610 H   0  0  0  0  0  0  0  0  0  0  0  0
  141.6370  159.6950  132.2170 H   0  0  0  0  0  0  0  0  0  0  0  0
  138.5903  158.7273  131.9085 H   0  0  0  0  0  0  0  0  0  0  0  0
  139.5136  156.8313  133.6875 H   0  0  0  0  0  0  0  0  0  0  0  0
  138.5956  156.4967  132.1802 H   0  0  0  0  0  0  0  0  0  0  0  0
  140.3892  156.3978  132.1802 H   0  0  0  0  0  0  0  0  0  0  0  0
  141.3950  158.6060  131.4530 H   0  0  0  0  0  0  0  0  0  0  0  0
  145.5482  156.2402  133.0146 H   0  0  0  0  0  0  0  0  0  0  0  0
  1  2  1  0
  2  3  2  0
  3  4  1  0
  4  5  2  0
  5  6  1  0
  6  7  2  0
  7  8  1  0
  8  9  1  0
  8 10  2  0
  7 11  1  0
 11 12  1  0
 12 13  2  0
 12 14  1  0
 14 15  1  0
 15 16  1  0
 16 17  1  0
 17 18  2  0
 17 19  1  0
 19 20  1  0
 19 21  1  0
 21 22  1  0
 21 23  1  0
 11 24  1  0
 24 25  2  0
 25  2  1  0
 24  5  1  0
  1 26  1  0
  1 27  1  0
  1 28  1  0
  3 29  1  0
  4 30  1  0
  6 31  1  0
  9 32  1  0
  9 33  1  0
 15 34  1  0
 15 35  1  0
 19 36  1  1
 20 37  1  0
 20 38  1  0
 21 39  1  6
 22 40  1  0
 22 41  1  0
 22 42  1  0
 23 43  1  0
 25 44  1  0
M  END
>  <UniqueID>  (20) 
20

>  <SMILES>  (20) 
Cc1ccc2cc(C(N)=O)n(C(=O)OCOC(=O)[C@@H](N)[C@H](C)O)c2c1

>  <Energy>  (20) 
75.84479887647052

>  <Genealogy>  (20) 
Cc1ccc2cc(C(N)=O)n(C(=O)OCOC(=O)[C@@H](N)[C@H](C)O)c2c1 (chirality)
Cc1ccc2cc(C(N)=O)n(C(=O)OCOC(=O)[C@@H](N)[C@H](C)O)c2c1 (3D coordinates assigned)
Cc1ccc2cc(C(N)=O)n(C(=O)OCOC(=O)[C@@H](N)[C@H](C)O)c2c1 (optimized conformer: 75.84479887647052 kcal/mol)

>  <smiles>  (20) 
Cc1ccc2cc(C(N)=O)n(C(=O)OCOC(=O)[C@@H](N)C(C)O)c2c1

>  <score_type>  (20) 
oracle

>  <origin>  (20) 
adg

>  <m_score__min__energy>  (20) 
-6.04

>  <m_primary>  (20) 
energy

$$$$
20:0
     RDKit          3D

 40 41  0  0  0  0  0  0  0  0999 V2000
  140.5830  159.8840  133.0290 C   0  0  0  0  0  0  0  0  0  0  0  0
  141.6630  159.3970  133.8940 N   0  0  0  0  0  0  0  0  0  0  0  0
  141.3970  158.2940  134.8290 C   0  0  0  0  0  0  0  0  0  0  0  0
  140.4800  158.7540  135.9160 C   0  0  0  0  0  0  0  0  0  0  0  0
  140.8380  159.6730  136.6980 O   0  0  0  0  0  0  0  0  0  0  0  0
  139.2160  158.1940  136.0460 O   0  0  0  0  0  0  0  0  0  0  0  0
  142.9940  159.9580  133.8040 C   0  0  0  0  0  0  0  0  0  0  0  0
  143.1450  161.2080  133.7380 O   0  0  0  0  0  0  0  0  0  0  0  0
  144.2170  159.0880  133.7440 C   0  0  0  0  0  0  0  0  0  0  0  0
  145.1830  159.6750  132.8280 N   0  0  0  0  0  0  0  0  0  0  0  0
  146.5600  159.8600  133.1650 C   0  0  0  0  0  0  0  0  0  0  0  0
  146.9380  160.9290  133.7150 O   0  0  0  0  0  0  0  0  0  0  0  0
  147.5150  158.8310  132.8640 N   0  0  0  0  0  0  0  0  0  0  0  0
  148.6070  158.9150  132.0520 C   0  0  0  0  0  0  0  0  0  0  0  0
  149.1290  160.1460  131.4220 C   0  0  0  0  0  0  0  0  0  0  0  0
  148.2690  161.2460  131.1360 N   0  0  0  0  0  0  0  0  0  0  0  0
  150.3610  160.2460  131.1740 O   0  0  0  0  0  0  0  0  0  0  0  0
  149.2350  157.6750  131.9480 C   0  0  0  0  0  0  0  0  0  0  0  0
  148.4950  156.8240  132.7360 C   0  0  0  0  0  0  0  0  0  0  0  0
  148.6570  155.4640  132.9800 C   0  0  0  0  0  0  0  0  0  0  0  0
  147.7180  154.8270  133.8080 C   0  0  0  0  0  0  0  0  0  0  0  0
  146.6450  155.5550  134.3830 C   0  0  0  0  0  0  0  0  0  0  0  0
  145.6080  154.8480  135.2190 C   0  0  0  0  0  0  0  0  0  0  0  0
  145.1520  153.7120  134.5740 F   0  0  0  0  0  0  0  0  0  0  0  0
  146.1710  154.4840  136.4290 F   0  0  0  0  0  0  0  0  0  0  0  0
  144.5240  155.6750  135.4570 F   0  0  0  0  0  0  0  0  0  0  0  0
  146.5010  156.9310  134.0900 C   0  0  0  0  0  0  0  0  0  0  0  0
  147.4630  157.5440  133.2770 C   0  0  0  0  0  0  0  0  0  0  0  0
  139.7555  160.2571  133.6504 H   0  0  0  0  0  0  0  0  0  0  0  0
  140.9610  160.6988  132.3940 H   0  0  0  0  0  0  0  0  0  0  0  0
  140.2226  159.0613  132.3940 H   0  0  0  0  0  0  0  0  0  0  0  0
  140.9279  157.4608  134.2852 H   0  0  0  0  0  0  0  0  0  0  0  0
  142.3464  157.9619  135.2744 H   0  0  0  0  0  0  0  0  0  0  0  0
  144.6621  159.0109  134.7470 H   0  0  0  0  0  0  0  0  0  0  0  0
  143.9373  158.0848  133.3899 H   0  0  0  0  0  0  0  0  0  0  0  0
  147.7750  161.7540  131.9030 H   0  0  0  0  0  0  0  0  0  0  0  0
  150.1319  157.4290  131.3606 H   0  0  0  0  0  0  0  0  0  0  0  0
  149.4947  154.9047  132.5381 H   0  0  0  0  0  0  0  0  0  0  0  0
  147.8160  153.7507  134.0129 H   0  0  0  0  0  0  0  0  0  0  0  0
  145.6536  157.5063  134.4911 H   0  0  0  0  0  0  0  0  0  0  0  0
  1  2  1  0
  2  3  1  0
  3  4  1  0
  4  5  2  0
  4  6  1  0
  2  7  1  0
  7  8  2  0
  7  9  1  0
  9 10  1  0
 10 11  1  0
 11 12  2  0
 11 13  1  0
 13 14  1  0
 14 15  1  0
 15 16  1  0
 15 17  2  0
 14 18  2  0
 18 19  1  0
 19 20  2  0
 20 21  1  0
 21 22  2  0
 22 23  1  0
 23 24  1  0
 23 25  1  0
 23 26  1  0
 22 27  1  0
 27 28  2  0
 28 13  1  0
 28 19  1  0
  1 29  1  0
  1 30  1  0
  1 31  1  0
  3 32  1  0
  3 33  1  0
  9 34  1  0
  9 35  1  0
 16 36  1  0
 18 37  1  0
 20 38  1  0
 21 39  1  0
 27 40  1  0
M  CHG  3   6  -1  10  -1  16  -1
M  END
>  <UniqueID>  (21) 
21

>  <SMILES>  (21) 
CN(CC(=O)[O-])C(=O)C[N-]C(=O)n1c(C([NH-])=O)cc2ccc(C(F)(F)F)cc21

>  <Energy>  (21) 
74.17023666244393

>  <Genealogy>  (21) 
CN(CC(=O)[O-])C(=O)C[N-]C(=O)n1c(C([NH-])=O)cc2ccc(C(F)(F)F)cc21 (protonated)
CN(CC(=O)[O-])C(=O)C[N-]C(=O)n1c(C([NH-])=O)cc2ccc(C(F)(F)F)cc21 (3D coordinates assigned)
CN(CC(=O)[O-])C(=O)C[N-]C(=O)n1c(C([NH-])=O)cc2ccc(C(F)(F)F)cc21 (optimized conformer: 74.17023666244393 kcal/mol)

>  <smiles>  (21) 
CN(CC(=O)O)C(=O)CNC(=O)n1c(C(N)=O)cc2ccc(C(F)(F)F)cc21

>  <score_type>  (21) 
oracle

>  <origin>  (21) 
adg

>  <m_score__min__energy>  (21) 
-6.8300000000000001

>  <m_primary>  (21) 
energy

$$$$
21:0
     RDKit          3D

 31 32  0  0  0  0  0  0  0  0999 V2000
  142.7810  160.8190  133.3600 N   0  0  0  0  0  0  0  0  0  0  0  0
  144.1440  161.0630  133.6980 C   0  0  0  0  0  0  0  0  0  0  0  0
  144.4800  162.2050  134.1130 O   0  0  0  0  0  0  0  0  0  0  0  0
  145.1710  160.0120  133.5340 C   0  0  0  0  0  0  0  0  0  0  0  0
  146.5380  160.2770  133.4630 C   0  0  0  0  0  0  0  0  0  0  0  0
  147.1350  159.0540  133.2530 C   0  0  0  0  0  0  0  0  0  0  0  0
  148.4810  158.7260  133.1220 C   0  0  0  0  0  0  0  0  0  0  0  0
  148.8150  157.3730  132.9430 C   0  0  0  0  0  0  0  0  0  0  0  0
  147.8040  156.3780  132.9060 C   0  0  0  0  0  0  0  0  0  0  0  0
  148.1640  154.9310  132.7310 C   0  0  0  0  0  0  0  0  0  0  0  0
  147.8650  154.2330  133.8880 F   0  0  0  0  0  0  0  0  0  0  0  0
  149.5160  154.8160  132.4660 F   0  0  0  0  0  0  0  0  0  0  0  0
  146.4490  156.7510  133.0480 C   0  0  0  0  0  0  0  0  0  0  0  0
  146.1450  158.1070  133.2070 C   0  0  0  0  0  0  0  0  0  0  0  0
  144.9330  158.6790  133.3750 N   0  0  0  0  0  0  0  0  0  0  0  0
  143.6700  158.0020  133.4610 C   0  0  0  0  0  0  0  0  0  0  0  0
  142.9730  157.8530  132.4210 O   0  0  0  0  0  0  0  0  0  0  0  0
  143.2290  157.3760  134.7530 C   0  0  0  0  0  0  0  0  0  0  0  0
  141.6730  158.1070  135.3580 P   0  0  2  0  0  0  0  0  0  0  0  0
  141.9600  158.9990  136.5450 O   0  0  0  0  0  0  0  0  0  0  0  0
  140.5960  156.8900  135.8250 O   0  0  0  0  0  0  0  0  0  0  0  0
  140.9740  159.0320  134.1260 O   0  0  0  0  0  0  0  0  0  0  0  0
  142.5050  159.9660  132.8240 H   0  0  0  0  0  0  0  0  0  0  0  0
  147.0339  161.2546  133.5551 H   0  0  0  0  0  0  0  0  0  0  0  0
  149.2596  159.5022  133.1575 H   0  0  0  0  0  0  0  0  0  0  0  0
  149.8699  157.0824  132.8305 H   0  0  0  0  0  0  0  0  0  0  0  0
  147.5877  154.5157  131.8911 H   0  0  0  0  0  0  0  0  0  0  0  0
  145.6519  155.9931  133.0339 H   0  0  0  0  0  0  0  0  0  0  0  0
  143.0785  156.2980  134.5940 H   0  0  0  0  0  0  0  0  0  0  0  0
  144.0095  157.5575  135.5066 H   0  0  0  0  0  0  0  0  0  0  0  0
  141.7250  159.2490  133.5180 H   0  0  0  0  0  0  0  0  0  0  0  0
  1  2  1  0
  2  3  2  0
  2  4  1  0
  4  5  2  0
  5  6  1  0
  6  7  2  0
  7  8  1  0
  8  9  2  0
  9 10  1  0
 10 11  1  0
 10 12  1  0
  9 13  1  0
 13 14  2  0
 14 15  1  0
 15 16  1  0
 16 17  2  0
 16 18  1  0
 18 19  1  0
 19 20  2  0
 19 21  1  1
 19 22  1  0
 15  4  1  0
 14  6  1  0
  1 23  1  0
  5 24  1  0
  7 25  1  0
  8 26  1  0
 10 27  1  0
 13 28  1  0
 18 29  1  0
 18 30  1  0
 22 31  1  0
M  CHG  2   1  -1  21  -1
M  END
>  <UniqueID>  (22) 
22

>  <SMILES>  (22) 
[NH-]C(=O)c1cc2ccc(C(F)F)cc2n1C(=O)C[P@](=O)([O-])O

>  <Energy>  (22) 
65.63762024144347

>  <Genealogy>  (22) 
[NH-]C(=O)c1cc2ccc(C(F)F)cc2n1C(=O)CP(=O)([O-])O (protonated)
[NH-]C(=O)c1cc2ccc(C(F)F)cc2n1C(=O)C[P@](=O)([O-])O (chirality)
[NH-]C(=O)c1cc2ccc(C(F)F)cc2n1C(=O)C[P@](=O)([O-])O (3D coordinates assigned)
[NH-]C(=O)c1cc2ccc(C(F)F)cc2n1C(=O)C[P@](=O)([O-])O (optimized conformer: 65.63762024144347 kcal/mol)

>  <smiles>  (22) 
NC(=O)c1cc2ccc(C(F)F)cc2n1C(=O)CP(=O)(O)O

>  <score_type>  (22) 
oracle

>  <origin>  (22) 
adg

>  <m_score__min__energy>  (22) 
-5.3700000000000001

>  <m_primary>  (22) 
energy

$$$$
22:0
     RDKit          3D

 43 44  0  0  0  0  0  0  0  0999 V2000
  142.1720  160.0550  133.0380 N   0  0  0  0  0  0  0  0  0  0  0  0
  143.4840  160.4430  133.4390 C   0  0  0  0  0  0  0  0  0  0  0  0
  143.6740  161.6070  133.8840 O   0  0  0  0  0  0  0  0  0  0  0  0
  144.6080  159.4870  133.3870 C   0  0  0  0  0  0  0  0  0  0  0  0
  145.9470  159.8710  133.4260 C   0  0  0  0  0  0  0  0  0  0  0  0
  146.6630  158.6960  133.4110 C   0  0  0  0  0  0  0  0  0  0  0  0
  148.0380  158.4890  133.3940 C   0  0  0  0  0  0  0  0  0  0  0  0
  148.5040  157.1650  133.3200 C   0  0  0  0  0  0  0  0  0  0  0  0
  147.5940  156.0770  133.2730 C   0  0  0  0  0  0  0  0  0  0  0  0
  148.1070  154.6670  133.1250 C   0  0  0  0  0  0  0  0  0  0  0  0
  147.1260  153.8430  132.6000 F   0  0  0  0  0  0  0  0  0  0  0  0
  149.2010  154.6310  132.2790 F   0  0  0  0  0  0  0  0  0  0  0  0
  148.4800  154.1870  134.3670 F   0  0  0  0  0  0  0  0  0  0  0  0
  146.2030  156.3320  133.2690 C   0  0  0  0  0  0  0  0  0  0  0  0
  145.7680  157.6590  133.3640 C   0  0  0  0  0  0  0  0  0  0  0  0
  144.5010  158.1280  133.3500 N   0  0  0  0  0  0  0  0  0  0  0  0
  143.3090  157.3510  133.1710 C   0  0  0  0  0  0  0  0  0  0  0  0
  142.6200  157.4830  132.1240 O   0  0  0  0  0  0  0  0  0  0  0  0
  142.8940  156.4860  134.1860 O   0  0  0  0  0  0  0  0  0  0  0  0
  141.6800  156.6630  134.9090 C   0  0  0  0  0  0  0  0  0  0  0  0
  140.5270  155.9940  134.1490 C   0  0  2  0  0  0  0  0  0  0  0  0
  141.0100  155.1400  133.1430 O   0  0  0  0  0  0  0  0  0  0  0  0
  139.5760  157.0140  133.5710 C   0  0  0  0  0  0  0  0  0  0  0  0
  138.3330  156.8290  133.6840 O   0  0  0  0  0  0  0  0  0  0  0  0
  140.0700  158.1890  132.9100 N   0  0  0  0  0  0  0  0  0  0  0  0
  139.2090  159.3240  132.5880 C   0  0  0  0  0  0  0  0  0  0  0  0
  139.4330  159.7860  131.1450 C   0  0  0  0  0  0  0  0  0  0  0  0
  140.5880  159.1970  130.6120 O   0  0  0  0  0  0  0  0  0  0  0  0
  142.0200  159.4930  132.1710 H   0  0  0  0  0  0  0  0  0  0  0  0
  146.3465  160.8953  133.4613 H   0  0  0  0  0  0  0  0  0  0  0  0
  148.7393  159.3353  133.4371 H   0  0  0  0  0  0  0  0  0  0  0  0
  149.5863  156.9699  133.2983 H   0  0  0  0  0  0  0  0  0  0  0  0
  145.4797  155.5067  133.1930 H   0  0  0  0  0  0  0  0  0  0  0  0
  141.7766  156.2054  135.9046 H   0  0  0  0  0  0  0  0  0  0  0  0
  141.4720  157.7378  135.0168 H   0  0  0  0  0  0  0  0  0  0  0  0
  139.9669  155.3872  134.8757 H   0  0  0  0  0  0  0  0  0  0  0  0
  141.6690  155.6480  132.6010 H   0  0  0  0  0  0  0  0  0  0  0  0
  141.0800  158.2480  132.6540 H   0  0  0  0  0  0  0  0  0  0  0  0
  138.1576  159.0253  132.7117 H   0  0  0  0  0  0  0  0  0  0  0  0
  139.4538  160.1551  133.2658 H   0  0  0  0  0  0  0  0  0  0  0  0
  138.5650  159.4972  130.5341 H   0  0  0  0  0  0  0  0  0  0  0  0
  139.5566  160.8790  131.1377 H   0  0  0  0  0  0  0  0  0  0  0  0
  141.2180  159.0710  131.3670 H   0  0  0  0  0  0  0  0  0  0  0  0
  1  2  1  0
  2  3  2  0
  2  4  1  0
  4  5  2  0
  5  6  1  0
  6  7  2  0
  7  8  1  0
  8  9  2  0
  9 10  1  0
 10 11  1  0
 10 12  1  0
 10 13  1  0
  9 14  1  0
 14 15  2  0
 15 16  1  0
 16 17  1  0
 17 18  2  0
 17 19  1  0
 19 20  1  0
 20 21  1  0
 21 22  1  0
 21 23  1  0
 23 24  2  0
 23 25  1  0
 25 26  1  0
 26 27  1  0
 27 28  1  0
 16  4  1  0
 15  6  1  0
  1 29  1  0
  5 30  1  0
  7 31  1  0
  8 32  1  0
 14 33  1  0
 20 34  1  0
 20 35  1  0
 21 36  1  1
 22 37  1  0
 25 38  1  0
 26 39  1  0
 26 40  1  0
 27 41  1  0
 27 42  1  0
 28 43  1  0
M  CHG  1   1  -1
M  END
>  <UniqueID>  (23) 
23

>  <SMILES>  (23) 
[NH-]C(=O)c1cc2ccc(C(F)(F)F)cc2n1C(=O)OC[C@H](O)C(=O)NCCO

>  <Energy>  (23) 
73.06060204697145

>  <Genealogy>  (23) 
[NH-]C(=O)c1cc2ccc(C(F)(F)F)cc2n1C(=O)OC[C@H](O)C(=O)NCCO (protonated)
[NH-]C(=O)c1cc2ccc(C(F)(F)F)cc2n1C(=O)OC[C@H](O)C(=O)NCCO (3D coordinates assigned)
[NH-]C(=O)c1cc2ccc(C(F)(F)F)cc2n1C(=O)OC[C@H](O)C(=O)NCCO (optimized conformer: 73.06060204697145 kcal/mol)

>  <smiles>  (23) 
NC(=O)c1cc2ccc(C(F)(F)F)cc2n1C(=O)OC[C@H](O)C(=O)NCCO

>  <score_type>  (23) 
oracle

>  <origin>  (23) 
adg

>  <m_score__min__energy>  (23) 
-5.5800000000000001

>  <m_primary>  (23) 
energy

$$$$
23:0
     RDKit          3D

 31 32  0  0  0  0  0  0  0  0999 V2000
  144.5160  153.3830  135.2080 N   0  0  0  0  0  0  0  0  0  0  0  0
  144.1500  154.7490  135.3860 C   0  0  0  0  0  0  0  0  0  0  0  0
  143.1310  155.0320  136.0710 O   0  0  0  0  0  0  0  0  0  0  0  0
  144.9790  155.8170  134.7920 C   0  0  0  0  0  0  0  0  0  0  0  0
  144.4600  156.9870  134.2390 C   0  0  0  0  0  0  0  0  0  0  0  0
  145.5490  157.6650  133.7340 C   0  0  0  0  0  0  0  0  0  0  0  0
  145.6200  158.8970  133.0910 C   0  0  0  0  0  0  0  0  0  0  0  0
  146.8870  159.3640  132.7020 C   0  0  0  0  0  0  0  0  0  0  0  0
  148.0500  158.5920  132.9540 C   0  0  0  0  0  0  0  0  0  0  0  0
  149.4020  159.1210  132.5770 C   0  0  0  0  0  0  0  0  0  0  0  0
  149.4650  159.4100  130.8220 Cl  0  0  0  0  0  0  0  0  0  0  0  0
  147.9390  157.3510  133.6180 C   0  0  0  0  0  0  0  0  0  0  0  0
  146.6630  156.9110  133.9870 C   0  0  0  0  0  0  0  0  0  0  0  0
  146.3330  155.7800  134.6410 N   0  0  0  0  0  0  0  0  0  0  0  0
  147.2480  154.7920  135.1310 C   0  0  0  0  0  0  0  0  0  0  0  0
  147.4010  153.7130  134.4970 O   0  0  0  0  0  0  0  0  0  0  0  0
  148.1040  155.0740  136.3290 C   0  0  0  0  0  0  0  0  0  0  0  0
  147.9210  153.7490  137.5600 P   0  0  1  0  0  0  0  0  0  0  0  0
  149.2110  152.9650  137.6660 O   0  0  0  0  0  0  0  0  0  0  0  0
  147.5650  154.4380  139.0610 O   0  0  0  0  0  0  0  0  0  0  0  0
  146.6590  152.7120  137.1140 O   0  0  0  0  0  0  0  0  0  0  0  0
  145.5100  153.0770  135.3030 H   0  0  0  0  0  0  0  0  0  0  0  0
  143.4064  157.3019  134.2115 H   0  0  0  0  0  0  0  0  0  0  0  0
  144.7128  159.4869  132.8934 H   0  0  0  0  0  0  0  0  0  0  0  0
  146.9777  160.3372  132.1974 H   0  0  0  0  0  0  0  0  0  0  0  0
  149.5868  160.0654  133.1099 H   0  0  0  0  0  0  0  0  0  0  0  0
  150.1712  158.3846  132.8528 H   0  0  0  0  0  0  0  0  0  0  0  0
  148.8311  156.7466  133.8392 H   0  0  0  0  0  0  0  0  0  0  0  0
  149.1568  155.1362  136.0164 H   0  0  0  0  0  0  0  0  0  0  0  0
  147.7879  156.0268  136.7787 H   0  0  0  0  0  0  0  0  0  0  0  0
  146.3100  153.0810  136.2640 H   0  0  0  0  0  0  0  0  0  0  0  0
  1  2  1  0
  2  3  2  0
  2  4  1  0
  4  5  2  0
  5  6  1  0
  6  7  2  0
  7  8  1  0
  8  9  2  0
  9 10  1  0
 10 11  1  0
  9 12  1  0
 12 13  2  0
 13 14  1  0
 14 15  1  0
 15 16  2  0
 15 17  1  0
 17 18  1  0
 18 19  2  0
 18 20  1  1
 18 21  1  0
 14  4  1  0
 13  6  1  0
  1 22  1  0
  5 23  1  0
  7 24  1  0
  8 25  1  0
 10 26  1  0
 10 27  1  0
 12 28  1  0
 17 29  1  0
 17 30  1  0
 21 31  1  0
M  CHG  2   1  -1  20  -1
M  END
>  <UniqueID>  (24) 
24

>  <SMILES>  (24) 
[NH-]C(=O)c1cc2ccc(CCl)cc2n1C(=O)C[P@@](=O)([O-])O

>  <Energy>  (24) 
63.02400066911356

>  <Genealogy>  (24) 
[NH-]C(=O)c1cc2ccc(CCl)cc2n1C(=O)CP(=O)([O-])O (protonated)
[NH-]C(=O)c1cc2ccc(CCl)cc2n1C(=O)C[P@@](=O)([O-])O (chirality)
[NH-]C(=O)c1cc2ccc(CCl)cc2n1C(=O)C[P@@](=O)([O-])O (3D coordinates assigned)
[NH-]C(=O)c1cc2ccc(CCl)cc2n1C(=O)C[P@@](=O)([O-])O (optimized conformer: 63.02400066911356 kcal/mol)

>  <smiles>  (24) 
NC(=O)c1cc2ccc(CCl)cc2n1C(=O)CP(=O)(O)O

>  <score_type>  (24) 
oracle

>  <origin>  (24) 
adg

>  <m_score__min__energy>  (24) 
-5.9199999999999999

>  <m_primary>  (24) 
energy

$$$$
24:0
     RDKit          3D

 39 40  0  0  0  0  0  0  0  0999 V2000
  142.2100  160.1930  132.9710 N   0  0  0  0  0  0  0  0  0  0  0  0
  142.9250  159.6270  134.0680 C   0  0  0  0  0  0  0  0  0  0  0  0
  142.4690  159.7600  135.2350 O   0  0  0  0  0  0  0  0  0  0  0  0
  144.1740  158.8760  133.8250 C   0  0  0  0  0  0  0  0  0  0  0  0
  145.3640  159.4660  133.4010 C   0  0  0  0  0  0  0  0  0  0  0  0
  146.2540  158.4260  133.2550 C   0  0  0  0  0  0  0  0  0  0  0  0
  147.5880  158.4360  132.8620 C   0  0  0  0  0  0  0  0  0  0  0  0
  148.2740  157.2090  132.8210 C   0  0  0  0  0  0  0  0  0  0  0  0
  147.6260  156.0040  133.1980 C   0  0  0  0  0  0  0  0  0  0  0  0
  148.3600  154.6900  133.1130 C   0  0  0  0  0  0  0  0  0  0  0  0
  147.6830  153.8030  132.2920 F   0  0  0  0  0  0  0  0  0  0  0  0
  148.4770  154.1140  134.3660 F   0  0  0  0  0  0  0  0  0  0  0  0
  149.6230  154.9060  132.5960 F   0  0  0  0  0  0  0  0  0  0  0  0
  146.2630  156.0330  133.5720 C   0  0  0  0  0  0  0  0  0  0  0  0
  145.6030  157.2670  133.5850 C   0  0  0  0  0  0  0  0  0  0  0  0
  144.3230  157.5260  133.9300 N   0  0  0  0  0  0  0  0  0  0  0  0
  143.3520  156.5700  134.3840 C   0  0  0  0  0  0  0  0  0  0  0  0
  143.5710  155.9150  135.4370 O   0  0  0  0  0  0  0  0  0  0  0  0
  142.1000  156.3590  133.6320 C   0  0  0  0  0  0  0  0  0  0  0  0
  141.8710  155.2310  133.1150 O   0  0  0  0  0  0  0  0  0  0  0  0
  141.1510  157.4240  133.4770 N   0  0  0  0  0  0  0  0  0  0  0  0
  139.9040  157.2270  132.7370 C   0  0  0  0  0  0  0  0  0  0  0  0
  139.1550  158.5540  132.5330 C   0  0  1  0  0  0  0  0  0  0  0  0
  139.8100  159.5830  133.2320 O   0  0  0  0  0  0  0  0  0  0  0  0
  139.1050  158.9170  131.0460 C   0  0  0  0  0  0  0  0  0  0  0  0
  140.3540  159.4010  130.6360 O   0  0  0  0  0  0  0  0  0  0  0  0
  141.7950  159.5870  132.2300 H   0  0  0  0  0  0  0  0  0  0  0  0
  145.5517  160.5349  133.2214 H   0  0  0  0  0  0  0  0  0  0  0  0
  148.0916  159.3757  132.5913 H   0  0  0  0  0  0  0  0  0  0  0  0
  149.3237  157.1830  132.4933 H   0  0  0  0  0  0  0  0  0  0  0  0
  145.7341  155.1082  133.8461 H   0  0  0  0  0  0  0  0  0  0  0  0
  141.3500  158.3470  133.9230 H   0  0  0  0  0  0  0  0  0  0  0  0
  140.1367  156.7929  131.7534 H   0  0  0  0  0  0  0  0  0  0  0  0
  139.2594  156.5526  133.3198 H   0  0  0  0  0  0  0  0  0  0  0  0
  138.1295  158.4361  132.9130 H   0  0  0  0  0  0  0  0  0  0  0  0
  140.6460  159.7880  132.7370 H   0  0  0  0  0  0  0  0  0  0  0  0
  138.8491  158.0222  130.4596 H   0  0  0  0  0  0  0  0  0  0  0  0
  138.3428  159.6939  130.8860 H   0  0  0  0  0  0  0  0  0  0  0  0
  140.9590  159.2950  131.4150 H   0  0  0  0  0  0  0  0  0  0  0  0
  1  2  1  0
  2  3  2  0
  2  4  1  0
  4  5  2  0
  5  6  1  0
  6  7  2  0
  7  8  1  0
  8  9  2  0
  9 10  1  0
 10 11  1  0
 10 12  1  0
 10 13  1  0
  9 14  1  0
 14 15  2  0
 15 16  1  0
 16 17  1  0
 17 18  2  0
 17 19  1  0
 19 20  2  0
 19 21  1  0
 21 22  1  0
 22 23  1  0
 23 24  1  0
 23 25  1  0
 25 26  1  0
 16  4  1  0
 15  6  1  0
  1 27  1  0
  5 28  1  0
  7 29  1  0
  8 30  1  0
 14 31  1  0
 21 32  1  0
 22 33  1  0
 22 34  1  0
 23 35  1  1
 24 36  1  0
 25 37  1  0
 25 38  1  0
 26 39  1  0
M  CHG  1   1  -1
M  END
>  <UniqueID>  (25) 
25

>  <SMILES>  (25) 
[NH-]C(=O)c1cc2ccc(C(F)(F)F)cc2n1C(=O)C(=O)NC[C@@H](O)CO

>  <Energy>  (25) 
72.92222150595425

>  <Genealogy>  (25) 
[NH-]C(=O)c1cc2ccc(C(F)(F)F)cc2n1C(=O)C(=O)NC[C@@H](O)CO (protonated)
[NH-]C(=O)c1cc2ccc(C(F)(F)F)cc2n1C(=O)C(=O)NC[C@@H](O)CO (3D coordinates assigned)
[NH-]C(=O)c1cc2ccc(C(F)(F)F)cc2n1C(=O)C(=O)NC[C@@H](O)CO (optimized conformer: 72.92222150595425 kcal/mol)

>  <smiles>  (25) 
NC(=O)c1cc2ccc(C(F)(F)F)cc2n1C(=O)C(=O)NC[C@@H](O)CO

>  <score_type>  (25) 
oracle

>  <origin>  (25) 
adg

>  <m_score__min__energy>  (25) 
-5.25

>  <m_primary>  (25) 
energy

$$$$
25:0
     RDKit          3D

 33 34  0  0  0  0  0  0  0  0999 V2000
  143.0360  160.9240  133.3720 N   0  0  0  0  0  0  0  0  0  0  0  0
  144.3900  161.1160  133.7760 C   0  0  0  0  0  0  0  0  0  0  0  0
  144.7160  162.1850  134.3540 O   0  0  0  0  0  0  0  0  0  0  0  0
  145.3830  160.0450  133.5500 C   0  0  0  0  0  0  0  0  0  0  0  0
  146.7270  160.2880  133.2730 C   0  0  0  0  0  0  0  0  0  0  0  0
  147.2850  159.0500  133.0520 C   0  0  0  0  0  0  0  0  0  0  0  0
  148.5980  158.7000  132.7520 C   0  0  0  0  0  0  0  0  0  0  0  0
  148.8990  157.3350  132.6100 C   0  0  0  0  0  0  0  0  0  0  0  0
  147.8930  156.3510  132.7740 C   0  0  0  0  0  0  0  0  0  0  0  0
  148.2410  154.8970  132.6360 C   0  0  0  0  0  0  0  0  0  0  0  0
  147.9240  154.2300  133.8040 F   0  0  0  0  0  0  0  0  0  0  0  0
  149.5950  154.7640  132.3860 F   0  0  0  0  0  0  0  0  0  0  0  0
  146.5710  156.7440  133.0810 C   0  0  0  0  0  0  0  0  0  0  0  0
  146.2950  158.1120  133.1980 C   0  0  0  0  0  0  0  0  0  0  0  0
  145.1210  158.7070  133.5050 N   0  0  0  0  0  0  0  0  0  0  0  0
  143.8850  158.0450  133.8110 C   0  0  0  0  0  0  0  0  0  0  0  0
  143.5270  157.0390  133.1390 O   0  0  0  0  0  0  0  0  0  0  0  0
  143.0980  158.5010  134.8740 O   0  0  0  0  0  0  0  0  0  0  0  0
  141.7380  158.1130  135.0570 C   0  0  0  0  0  0  0  0  0  0  0  0
  140.8700  159.2140  134.9010 O   0  0  0  0  0  0  0  0  0  0  0  0
  140.4350  159.3650  133.2560 P   0  0  2  0  0  0  0  0  0  0  0  0
  140.2850  160.8240  132.8860 O   0  0  0  0  0  0  0  0  0  0  0  0
  138.9520  158.5890  133.0180 O   0  0  0  0  0  0  0  0  0  0  0  0
  141.5930  158.6310  132.2590 O   0  0  0  0  0  0  0  0  0  0  0  0
  142.5070  160.0710  133.6570 H   0  0  0  0  0  0  0  0  0  0  0  0
  147.2344  161.2634  133.2384 H   0  0  0  0  0  0  0  0  0  0  0  0
  149.3759  159.4680  132.6298 H   0  0  0  0  0  0  0  0  0  0  0  0
  149.9271  157.0269  132.3688 H   0  0  0  0  0  0  0  0  0  0  0  0
  147.6693  154.4667  131.8006 H   0  0  0  0  0  0  0  0  0  0  0  0
  145.7787  155.9945  133.2244 H   0  0  0  0  0  0  0  0  0  0  0  0
  141.4806  157.3445  134.3133 H   0  0  0  0  0  0  0  0  0  0  0  0
  141.6217  157.7184  136.0772 H   0  0  0  0  0  0  0  0  0  0  0  0
  142.4700  158.9400  132.6050 H   0  0  0  0  0  0  0  0  0  0  0  0
  1  2  1  0
  2  3  2  0
  2  4  1  0
  4  5  2  0
  5  6  1  0
  6  7  2  0
  7  8  1  0
  8  9  2  0
  9 10  1  0
 10 11  1  0
 10 12  1  0
  9 13  1  0
 13 14  2  0
 14 15  1  0
 15 16  1  0
 16 17  2  0
 16 18  1  0
 18 19  1  0
 19 20  1  0
 20 21  1  0
 21 22  2  0
 21 23  1  1
 21 24  1  0
 15  4  1  0
 14  6  1  0
  1 25  1  0
  5 26  1  0
  7 27  1  0
  8 28  1  0
 10 29  1  0
 13 30  1  0
 19 31  1  0
 19 32  1  0
 24 33  1  0
M  CHG  2   1  -1  23  -1
M  END
>  <UniqueID>  (26) 
26

>  <SMILES>  (26) 
[NH-]C(=O)c1cc2ccc(C(F)F)cc2n1C(=O)OCO[P@](=O)([O-])O

>  <Energy>  (26) 
69.11443277105782

>  <Genealogy>  (26) 
[NH-]C(=O)c1cc2ccc(C(F)F)cc2n1C(=O)OCOP(=O)([O-])O (protonated)
[NH-]C(=O)c1cc2ccc(C(F)F)cc2n1C(=O)OCO[P@](=O)([O-])O (chirality)
[NH-]C(=O)c1cc2ccc(C(F)F)cc2n1C(=O)OCO[P@](=O)([O-])O (3D coordinates assigned)
[NH-]C(=O)c1cc2ccc(C(F)F)cc2n1C(=O)OCO[P@](=O)([O-])O (optimized conformer: 69.11443277105782 kcal/mol)

>  <smiles>  (26) 
NC(=O)c1cc2ccc(C(F)F)cc2n1C(=O)OCOP(=O)(O)O

>  <score_type>  (26) 
oracle

>  <origin>  (26) 
adg

>  <m_score__min__energy>  (26) 
-5.3200000000000003

>  <m_primary>  (26) 
energy

$$$$
26:0
     RDKit          3D

 52 53  0  0  0  0  0  0  0  0999 V2000
  141.3580  158.0600  135.5340 N   0  0  0  0  0  0  0  0  0  0  0  0
  141.6400  158.0020  136.9330 C   0  0  0  0  0  0  0  0  0  0  0  0
  141.9900  159.0550  137.5380 O   0  0  0  0  0  0  0  0  0  0  0  0
  141.4560  156.7510  137.6960 C   0  0  0  0  0  0  0  0  0  0  0  0
  141.1380  156.7190  139.0510 C   0  0  0  0  0  0  0  0  0  0  0  0
  140.9730  155.3860  139.3510 C   0  0  0  0  0  0  0  0  0  0  0  0
  140.6790  154.7730  140.5660 C   0  0  0  0  0  0  0  0  0  0  0  0
  140.6210  153.3690  140.5990 C   0  0  0  0  0  0  0  0  0  0  0  0
  140.8490  152.6030  139.4250 C   0  0  0  0  0  0  0  0  0  0  0  0
  140.8700  151.0960  139.4940 C   0  0  0  0  0  0  0  0  0  0  0  0
  140.6220  150.6610  140.7860 F   0  0  0  0  0  0  0  0  0  0  0  0
  139.8930  150.5910  138.6520 F   0  0  0  0  0  0  0  0  0  0  0  0
  142.1020  150.6040  139.0980 F   0  0  0  0  0  0  0  0  0  0  0  0
  141.1630  153.2640  138.2140 C   0  0  0  0  0  0  0  0  0  0  0  0
  141.1940  154.6630  138.2060 C   0  0  0  0  0  0  0  0  0  0  0  0
  141.4990  155.4890  137.1830 N   0  0  0  0  0  0  0  0  0  0  0  0
  141.8830  155.0950  135.8580 C   0  0  0  0  0  0  0  0  0  0  0  0
  141.0290  155.1070  134.9290 O   0  0  0  0  0  0  0  0  0  0  0  0
  143.1890  154.6560  135.6160 O   0  0  0  0  0  0  0  0  0  0  0  0
  143.9340  155.0430  134.4650 C   0  0  0  0  0  0  0  0  0  0  0  0
  144.2040  156.5470  134.5000 C   0  0  0  0  0  0  0  0  0  0  0  0
  143.7560  157.2230  133.1980 C   0  0  0  0  0  0  0  0  0  0  0  0
  142.9770  158.3840  133.4790 O   0  0  0  0  0  0  0  0  0  0  0  0
  143.5400  159.6370  133.7470 C   0  0  0  0  0  0  0  0  0  0  0  0
  144.7560  159.7420  134.0670 O   0  0  0  0  0  0  0  0  0  0  0  0
  142.6800  160.8590  133.6910 C   0  0  0  0  0  0  0  0  0  0  0  0
  141.3010  160.5400  134.0440 N   0  0  0  0  0  0  0  0  0  0  0  0
  140.4790  159.6680  133.2630 C   0  0  0  0  0  0  0  0  0  0  0  0
  140.5590  159.7060  132.0040 O   0  0  0  0  0  0  0  0  0  0  0  0
  139.6270  158.7580  133.8970 O   0  0  0  0  0  0  0  0  0  0  0  0
  138.7490  157.8780  133.1950 C   0  0  0  0  0  0  0  0  0  0  0  0
  139.4870  156.6080  132.7720 C   0  0  0  0  0  0  0  0  0  0  0  0
  140.8660  156.7740  132.9530 O   0  0  0  0  0  0  0  0  0  0  0  0
  141.5360  158.9360  135.0010 H   0  0  0  0  0  0  0  0  0  0  0  0
  140.8960  157.2670  135.0410 H   0  0  0  0  0  0  0  0  0  0  0  0
  141.0397  157.5750  139.7348 H   0  0  0  0  0  0  0  0  0  0  0  0
  140.4976  155.3692  141.4724 H   0  0  0  0  0  0  0  0  0  0  0  0
  140.3961  152.8570  141.5462 H   0  0  0  0  0  0  0  0  0  0  0  0
  141.3778  152.6913  137.2998 H   0  0  0  0  0  0  0  0  0  0  0  0
  144.8911  154.5011  134.4512 H   0  0  0  0  0  0  0  0  0  0  0  0
  143.3555  154.8004  133.5614 H   0  0  0  0  0  0  0  0  0  0  0  0
  143.6530  156.9907  135.3423 H   0  0  0  0  0  0  0  0  0  0  0  0
  145.2864  156.7032  134.6183 H   0  0  0  0  0  0  0  0  0  0  0  0
  144.6438  157.5148  132.6178 H   0  0  0  0  0  0  0  0  0  0  0  0
  143.1423  156.5142  132.6227 H   0  0  0  0  0  0  0  0  0  0  0  0
  143.0693  161.6064  134.3980 H   0  0  0  0  0  0  0  0  0  0  0  0
  142.6981  161.2555  132.6651 H   0  0  0  0  0  0  0  0  0  0  0  0
  137.9086  157.6066  133.8508 H   0  0  0  0  0  0  0  0  0  0  0  0
  138.3784  158.3899  132.2947 H   0  0  0  0  0  0  0  0  0  0  0  0
  139.1382  155.7629  133.3836 H   0  0  0  0  0  0  0  0  0  0  0  0
  139.2831  156.4081  131.7097 H   0  0  0  0  0  0  0  0  0  0  0  0
  141.0780  157.7090  132.6990 H   0  0  0  0  0  0  0  0  0  0  0  0
  1  2  1  0
  2  3  2  0
  2  4  1  0
  4  5  2  0
  5  6  1  0
  6  7  2  0
  7  8  1  0
  8  9  2  0
  9 10  1  0
 10 11  1  0
 10 12  1  0
 10 13  1  0
  9 14  1  0
 14 15  2  0
 15 16  1  0
 16 17  1  0
 17 18  2  0
 17 19  1  0
 19 20  1  0
 20 21  1  0
 21 22  1  0
 22 23  1  0
 23 24  1  0
 24 25  2  0
 24 26  1  0
 26 27  1  0
 27 28  1  0
 28 29  2  0
 28 30  1  0
 30 31  1  0
 31 32  1  0
 32 33  1  0
 16  4  1  0
 15  6  1  0
  1 34  1  0
  1 35  1  0
  5 36  1  0
  7 37  1  0
  8 38  1  0
 14 39  1  0
 20 40  1  0
 20 41  1  0
 21 42  1  0
 21 43  1  0
 22 44  1  0
 22 45  1  0
 26 46  1  0
 26 47  1  0
 31 48  1  0
 31 49  1  0
 32 50  1  0
 32 51  1  0
 33 52  1  0
M  CHG  1  27  -1
M  END
>  <UniqueID>  (27) 
27

>  <SMILES>  (27) 
NC(=O)c1cc2ccc(C(F)(F)F)cc2n1C(=O)OCCCOC(=O)C[N-]C(=O)OCCO

>  <Energy>  (27) 
77.27229926753398

>  <Genealogy>  (27) 
NC(=O)c1cc2ccc(C(F)(F)F)cc2n1C(=O)OCCCOC(=O)C[N-]C(=O)OCCO (protonated)
NC(=O)c1cc2ccc(C(F)(F)F)cc2n1C(=O)OCCCOC(=O)C[N-]C(=O)OCCO (3D coordinates assigned)
NC(=O)c1cc2ccc(C(F)(F)F)cc2n1C(=O)OCCCOC(=O)C[N-]C(=O)OCCO (optimized conformer: 77.27229926753398 kcal/mol)

>  <smiles>  (27) 
NC(=O)c1cc2ccc(C(F)(F)F)cc2n1C(=O)OCCCOC(=O)CNC(=O)OCCO

>  <score_type>  (27) 
oracle

>  <origin>  (27) 
adg

>  <m_score__min__energy>  (27) 
-5.4699999999999998

>  <m_primary>  (27) 
energy

$$$$
27:0
     RDKit          3D

 33 34  0  0  0  0  0  0  0  0999 V2000
  140.9700  159.3470  136.2880 C   0  0  0  0  0  0  0  0  0  0  0  0
  141.6650  159.2710  134.9500 C   0  0  0  0  0  0  0  0  0  0  0  0
  142.9170  158.7810  134.8830 C   0  0  0  0  0  0  0  0  0  0  0  0
  143.7050  158.6380  133.6370 C   0  0  0  0  0  0  0  0  0  0  0  0
  143.2130  158.0930  132.6130 O   0  0  0  0  0  0  0  0  0  0  0  0
  145.0510  159.1380  133.5870 N   0  0  0  0  0  0  0  0  0  0  0  0
  145.4630  160.4330  133.6800 C   0  0  0  0  0  0  0  0  0  0  0  0
  144.6050  161.5980  133.9850 C   0  0  0  0  0  0  0  0  0  0  0  0
  143.2120  161.5830  133.6850 N   0  0  0  0  0  0  0  0  0  0  0  0
  145.1030  162.6080  134.5510 O   0  0  0  0  0  0  0  0  0  0  0  0
  146.8440  160.5180  133.5040 C   0  0  0  0  0  0  0  0  0  0  0  0
  147.2670  159.2240  133.3010 C   0  0  0  0  0  0  0  0  0  0  0  0
  148.5430  158.7270  133.0500 C   0  0  0  0  0  0  0  0  0  0  0  0
  148.6820  157.3440  132.8420 C   0  0  0  0  0  0  0  0  0  0  0  0
  147.5520  156.4910  132.8930 C   0  0  0  0  0  0  0  0  0  0  0  0
  147.7040  155.0240  132.6230 C   0  0  0  0  0  0  0  0  0  0  0  0
  146.2710  157.0330  133.1310 C   0  0  0  0  0  0  0  0  0  0  0  0
  146.1660  158.4110  133.3540 C   0  0  0  0  0  0  0  0  0  0  0  0
  140.9770  159.6730  133.7550 N   0  0  0  0  0  0  0  0  0  0  0  0
  140.0500  158.9870  133.2170 C   0  0  0  0  0  0  0  0  0  0  0  0
  139.1470  158.3200  132.6950 O   0  0  0  0  0  0  0  0  0  0  0  0
  141.7149  159.2655  137.0933 H   0  0  0  0  0  0  0  0  0  0  0  0
  140.4420  160.3082  136.3728 H   0  0  0  0  0  0  0  0  0  0  0  0
  140.2467  158.5226  136.3728 H   0  0  0  0  0  0  0  0  0  0  0  0
  143.3902  158.4631  135.8238 H   0  0  0  0  0  0  0  0  0  0  0  0
  142.7720  160.7610  133.2140 H   0  0  0  0  0  0  0  0  0  0  0  0
  147.4637  161.4266  133.5233 H   0  0  0  0  0  0  0  0  0  0  0  0
  149.4154  159.3961  133.0156 H   0  0  0  0  0  0  0  0  0  0  0  0
  149.6764  156.9203  132.6379 H   0  0  0  0  0  0  0  0  0  0  0  0
  147.7604  154.4795  133.5771 H   0  0  0  0  0  0  0  0  0  0  0  0
  146.8382  154.6656  132.0469 H   0  0  0  0  0  0  0  0  0  0  0  0
  148.6249  154.8507  132.0469 H   0  0  0  0  0  0  0  0  0  0  0  0
  145.3787  156.3898  133.1410 H   0  0  0  0  0  0  0  0  0  0  0  0
  1  2  1  0
  2  3  2  3
  3  4  1  0
  4  5  2  0
  4  6  1  0
  6  7  1  0
  7  8  1  0
  8  9  1  0
  8 10  2  0
  7 11  2  0
 11 12  1  0
 12 13  2  0
 13 14  1  0
 14 15  2  0
 15 16  1  0
 15 17  1  0
 17 18  2  0
  2 19  1  0
 19 20  2  0
 20 21  2  0
 18  6  1  0
 18 12  1  0
  1 22  1  0
  1 23  1  0
  1 24  1  0
  3 25  1  0
  9 26  1  0
 11 27  1  0
 13 28  1  0
 14 29  1  0
 16 30  1  0
 16 31  1  0
 16 32  1  0
 17 33  1  0
M  CHG  1   9  -1
M  END
>  <UniqueID>  (28) 
28

>  <SMILES>  (28) 
CC(=CC(=O)n1c(C([NH-])=O)cc2ccc(C)cc21)N=C=O

>  <Energy>  (28) 
72.88745335881482

>  <Genealogy>  (28) 
CC(=CC(=O)n1c(C([NH-])=O)cc2ccc(C)cc21)N=C=O (protonated)
CC(=CC(=O)n1c(C([NH-])=O)cc2ccc(C)cc21)N=C=O (3D coordinates assigned)
CC(=CC(=O)n1c(C([NH-])=O)cc2ccc(C)cc21)N=C=O (optimized conformer: 72.88745335881482 kcal/mol)

>  <smiles>  (28) 
CC(=CC(=O)n1c(C(N)=O)cc2ccc(C)cc21)N=C=O

>  <score_type>  (28) 
oracle

>  <origin>  (28) 
adg

>  <m_score__min__energy>  (28) 
-7.1500000000000004

>  <m_primary>  (28) 
energy

$$$$
28:0
     RDKit          3D

 51 52  0  0  0  0  0  0  0  0999 V2000
  148.3520  153.3520  136.9320 C   0  0  0  0  0  0  0  0  0  0  0  0
  146.9830  153.0020  136.7760 O   0  0  0  0  0  0  0  0  0  0  0  0
  146.0180  153.9210  136.3530 C   0  0  0  0  0  0  0  0  0  0  0  0
  146.3390  154.9040  135.6310 O   0  0  0  0  0  0  0  0  0  0  0  0
  144.5960  153.7470  136.7860 C   0  0  0  0  0  0  0  0  0  0  0  0
  143.6910  154.8500  136.2240 C   0  0  0  0  0  0  0  0  0  0  0  0
  142.2990  154.3260  135.8400 C   0  0  0  0  0  0  0  0  0  0  0  0
  142.2940  153.8550  134.4470 N   0  0  0  0  0  0  0  0  0  0  0  0
  141.8640  154.7820  133.3940 C   0  0  0  0  0  0  0  0  0  0  0  0
  142.7680  152.5420  134.0600 C   0  0  0  0  0  0  0  0  0  0  0  0
  142.1140  151.5200  134.4040 O   0  0  0  0  0  0  0  0  0  0  0  0
  144.0260  152.3350  133.2560 C   0  0  0  0  0  0  0  0  0  0  0  0
  144.9730  153.4240  133.4740 N   0  0  0  0  0  0  0  0  0  0  0  0
  144.9840  154.6110  132.6700 C   0  0  0  0  0  0  0  0  0  0  0  0
  144.2030  154.7220  131.6860 O   0  0  0  0  0  0  0  0  0  0  0  0
  145.8780  155.6860  132.9900 N   0  0  0  0  0  0  0  0  0  0  0  0
  147.2280  155.6250  133.1580 C   0  0  0  0  0  0  0  0  0  0  0  0
  148.0690  154.4250  132.9680 C   0  0  0  0  0  0  0  0  0  0  0  0
  147.7500  153.2180  133.6560 N   0  0  0  0  0  0  0  0  0  0  0  0
  149.0790  154.4560  132.2160 O   0  0  0  0  0  0  0  0  0  0  0  0
  147.7330  156.8840  133.4790 C   0  0  0  0  0  0  0  0  0  0  0  0
  146.6410  157.7220  133.5000 C   0  0  0  0  0  0  0  0  0  0  0  0
  146.5600  159.0870  133.7640 C   0  0  0  0  0  0  0  0  0  0  0  0
  145.2920  159.6910  133.7230 C   0  0  0  0  0  0  0  0  0  0  0  0
  144.1360  158.9220  133.4410 C   0  0  0  0  0  0  0  0  0  0  0  0
  142.7940  159.5870  133.3580 C   0  0  0  0  0  0  0  0  0  0  0  0
  144.2570  157.5430  133.1690 C   0  0  0  0  0  0  0  0  0  0  0  0
  145.5340  156.9720  133.2000 C   0  0  0  0  0  0  0  0  0  0  0  0
  148.5948  153.4141  138.0031 H   0  0  0  0  0  0  0  0  0  0  0  0
  148.9827  152.5862  136.4568 H   0  0  0  0  0  0  0  0  0  0  0  0
  148.5378  154.3265  136.4568 H   0  0  0  0  0  0  0  0  0  0  0  0
  144.2321  152.7719  136.4300 H   0  0  0  0  0  0  0  0  0  0  0  0
  144.5633  153.8040  137.8840 H   0  0  0  0  0  0  0  0  0  0  0  0
  143.5753  155.6346  136.9862 H   0  0  0  0  0  0  0  0  0  0  0  0
  144.1656  155.2411  135.3120 H   0  0  0  0  0  0  0  0  0  0  0  0
  142.0294  153.4925  136.5052 H   0  0  0  0  0  0  0  0  0  0  0  0
  141.5697  155.1431  135.9426 H   0  0  0  0  0  0  0  0  0  0  0  0
  141.4434  155.6888  133.8531 H   0  0  0  0  0  0  0  0  0  0  0  0
  142.7279  155.0540  132.7697 H   0  0  0  0  0  0  0  0  0  0  0  0
  141.0984  154.2981  132.7697 H   0  0  0  0  0  0  0  0  0  0  0  0
  144.4936  151.3862  133.5580 H   0  0  0  0  0  0  0  0  0  0  0  0
  143.7594  152.3117  132.1891 H   0  0  0  0  0  0  0  0  0  0  0  0
  145.6540  153.3450  134.2620 H   0  0  0  0  0  0  0  0  0  0  0  0
  147.3370  153.2390  134.6150 H   0  0  0  0  0  0  0  0  0  0  0  0
  148.7820  157.1513  133.6742 H   0  0  0  0  0  0  0  0  0  0  0  0
  147.4606  159.6740  133.9973 H   0  0  0  0  0  0  0  0  0  0  0  0
  145.1960  160.7705  133.9115 H   0  0  0  0  0  0  0  0  0  0  0  0
  142.4146  159.7750  134.3732 H   0  0  0  0  0  0  0  0  0  0  0  0
  142.8905  160.5416  132.8200 H   0  0  0  0  0  0  0  0  0  0  0  0
  142.0929  158.9321  132.8200 H   0  0  0  0  0  0  0  0  0  0  0  0
  143.3711  156.9330  132.9387 H   0  0  0  0  0  0  0  0  0  0  0  0
  1  2  1  0
  2  3  1  0
  3  4  2  0
  3  5  1  0
  5  6  1  0
  6  7  1  0
  7  8  1  0
  8  9  1  0
  8 10  1  0
 10 11  2  0
 10 12  1  0
 12 13  1  0
 13 14  1  0
 14 15  2  0
 14 16  1  0
 16 17  1  0
 17 18  1  0
 18 19  1  0
 18 20  2  0
 17 21  2  0
 21 22  1  0
 22 23  2  0
 23 24  1  0
 24 25  2  0
 25 26  1  0
 25 27  1  0
 27 28  2  0
 28 16  1  0
 28 22  1  0
  1 29  1  0
  1 30  1  0
  1 31  1  0
  5 32  1  0
  5 33  1  0
  6 34  1  0
  6 35  1  0
  7 36  1  0
  7 37  1  0
  9 38  1  0
  9 39  1  0
  9 40  1  0
 12 41  1  0
 12 42  1  0
 13 43  1  0
 19 44  1  0
 21 45  1  0
 23 46  1  0
 24 47  1  0
 26 48  1  0
 26 49  1  0
 26 50  1  0
 27 51  1  0
M  CHG  1  19  -1
M  END
>  <UniqueID>  (29) 
29

>  <SMILES>  (29) 
COC(=O)CCCN(C)C(=O)CNC(=O)n1c(C([NH-])=O)cc2ccc(C)cc21

>  <Energy>  (29) 
72.31780841456687

>  <Genealogy>  (29) 
COC(=O)CCCN(C)C(=O)CNC(=O)n1c(C([NH-])=O)cc2ccc(C)cc21 (protonated)
COC(=O)CCCN(C)C(=O)CNC(=O)n1c(C([NH-])=O)cc2ccc(C)cc21 (3D coordinates assigned)
COC(=O)CCCN(C)C(=O)CNC(=O)n1c(C([NH-])=O)cc2ccc(C)cc21 (optimized conformer: 72.31780841456687 kcal/mol)

>  <smiles>  (29) 
COC(=O)CCCN(C)C(=O)CNC(=O)n1c(C(N)=O)cc2ccc(C)cc21

>  <score_type>  (29) 
oracle

>  <origin>  (29) 
adg

>  <m_score__min__energy>  (29) 
-7.1500000000000004

>  <m_primary>  (29) 
energy

$$$$
29:0
     RDKit          3D

 37 38  0  0  0  0  0  0  0  0999 V2000
  148.0840  152.9260  133.9440 N   0  0  0  0  0  0  0  0  0  0  0  0
  148.3650  153.9670  133.0060 C   0  0  0  0  0  0  0  0  0  0  0  0
  149.1980  153.7500  132.0870 O   0  0  0  0  0  0  0  0  0  0  0  0
  147.6850  155.2810  133.0960 C   0  0  0  0  0  0  0  0  0  0  0  0
  148.3290  156.5170  133.0220 C   0  0  0  0  0  0  0  0  0  0  0  0
  147.3370  157.4580  133.1910 C   0  0  0  0  0  0  0  0  0  0  0  0
  147.4090  158.8480  133.2010 C   0  0  0  0  0  0  0  0  0  0  0  0
  146.2150  159.5670  133.3790 C   0  0  0  0  0  0  0  0  0  0  0  0
  144.9730  158.8930  133.5170 C   0  0  0  0  0  0  0  0  0  0  0  0
  143.7060  159.6760  133.7500 C   0  0  0  0  0  0  0  0  0  0  0  0
  142.6720  159.1780  132.9780 F   0  0  0  0  0  0  0  0  0  0  0  0
  143.3560  159.5860  135.0840 F   0  0  0  0  0  0  0  0  0  0  0  0
  143.8910  161.0080  133.4210 F   0  0  0  0  0  0  0  0  0  0  0  0
  144.9470  157.4780  133.5210 C   0  0  0  0  0  0  0  0  0  0  0  0
  146.1540  156.7910  133.3600 C   0  0  0  0  0  0  0  0  0  0  0  0
  146.3530  155.4580  133.3180 N   0  0  0  0  0  0  0  0  0  0  0  0
  145.3380  154.4470  133.3960 C   0  0  0  0  0  0  0  0  0  0  0  0
  145.1310  153.7090  132.3950 O   0  0  0  0  0  0  0  0  0  0  0  0
  144.5620  154.2680  134.6000 N   0  0  0  0  0  0  0  0  0  0  0  0
  145.0510  154.7760  135.8910 C   0  0  0  0  0  0  0  0  0  0  0  0
  146.4240  154.2490  136.1820 C   0  0  0  0  0  0  0  0  0  0  0  0
  147.4390  154.9440  135.9140 O   0  0  0  0  0  0  0  0  0  0  0  0
  146.5820  152.9930  136.7500 O   0  0  0  0  0  0  0  0  0  0  0  0
  143.3120  153.4980  134.5560 C   0  0  0  0  0  0  0  0  0  0  0  0
  142.1580  154.3980  134.2560 C   0  0  0  0  0  0  0  0  0  0  0  0
  141.1070  153.9320  133.7440 O   0  0  0  0  0  0  0  0  0  0  0  0
  142.2590  155.7630  134.4980 O   0  0  0  0  0  0  0  0  0  0  0  0
  148.5470  151.9960  133.8450 H   0  0  0  0  0  0  0  0  0  0  0  0
  147.4530  153.0780  134.7600 H   0  0  0  0  0  0  0  0  0  0  0  0
  149.4017  156.7009  132.8625 H   0  0  0  0  0  0  0  0  0  0  0  0
  148.3703  159.3673  133.0736 H   0  0  0  0  0  0  0  0  0  0  0  0
  146.2428  160.6662  133.4118 H   0  0  0  0  0  0  0  0  0  0  0  0
  144.0004  156.9321  133.6477 H   0  0  0  0  0  0  0  0  0  0  0  0
  145.0857  155.8749  135.8569 H   0  0  0  0  0  0  0  0  0  0  0  0
  144.3677  154.4403  136.6849 H   0  0  0  0  0  0  0  0  0  0  0  0
  143.3865  152.7300  133.7720 H   0  0  0  0  0  0  0  0  0  0  0  0
  143.1500  153.0232  135.5349 H   0  0  0  0  0  0  0  0  0  0  0  0
  1  2  1  0
  2  3  2  0
  2  4  1  0
  4  5  2  0
  5  6  1  0
  6  7  2  0
  7  8  1  0
  8  9  2  0
  9 10  1  0
 10 11  1  0
 10 12  1  0
 10 13  1  0
  9 14  1  0
 14 15  2  0
 15 16  1  0
 16 17  1  0
 17 18  2  0
 17 19  1  0
 19 20  1  0
 20 21  1  0
 21 22  2  0
 21 23  1  0
 19 24  1  0
 24 25  1  0
 25 26  2  0
 25 27  1  0
 16  4  1  0
 15  6  1  0
  1 28  1  0
  1 29  1  0
  5 30  1  0
  7 31  1  0
  8 32  1  0
 14 33  1  0
 20 34  1  0
 20 35  1  0
 24 36  1  0
 24 37  1  0
M  CHG  2  23  -1  27  -1
M  END
>  <UniqueID>  (30) 
30

>  <SMILES>  (30) 
NC(=O)c1cc2ccc(C(F)(F)F)cc2n1C(=O)N(CC(=O)[O-])CC(=O)[O-]

>  <Energy>  (30) 
73.4080046822114

>  <Genealogy>  (30) 
NC(=O)c1cc2ccc(C(F)(F)F)cc2n1C(=O)N(CC(=O)[O-])CC(=O)[O-] (protonated)
NC(=O)c1cc2ccc(C(F)(F)F)cc2n1C(=O)N(CC(=O)[O-])CC(=O)[O-] (3D coordinates assigned)
NC(=O)c1cc2ccc(C(F)(F)F)cc2n1C(=O)N(CC(=O)[O-])CC(=O)[O-] (optimized conformer: 73.4080046822114 kcal/mol)

>  <smiles>  (30) 
NC(=O)c1cc2ccc(C(F)(F)F)cc2n1C(=O)N(CC(=O)O)CC(=O)O

>  <score_type>  (30) 
oracle

>  <origin>  (30) 
adg

>  <m_score__min__energy>  (30) 
-5.8700000000000001

>  <m_primary>  (30) 
energy

$$$$
30:0
     RDKit          3D

 40 41  0  0  0  0  0  0  0  0999 V2000
  137.0110  159.1440  131.1250 C   0  0  0  0  0  0  0  0  0  0  0  0
  138.3980  159.5960  130.9950 N   0  0  0  0  0  0  0  0  0  0  0  0
  138.7140  160.8880  130.3790 C   0  0  0  0  0  0  0  0  0  0  0  0
  139.4600  158.7530  131.4720 C   0  0  0  0  0  0  0  0  0  0  0  0
  140.6620  159.1240  131.3600 O   0  0  0  0  0  0  0  0  0  0  0  0
  139.1580  157.5190  132.0600 O   0  0  0  0  0  0  0  0  0  0  0  0
  139.2090  157.2980  133.4670 C   0  0  0  0  0  0  0  0  0  0  0  0
  140.2800  156.4130  133.7870 O   0  0  0  0  0  0  0  0  0  0  0  0
  140.3700  155.1110  133.2830 C   0  0  0  0  0  0  0  0  0  0  0  0
  139.3180  154.4920  132.9690 O   0  0  0  0  0  0  0  0  0  0  0  0
  141.6570  154.4720  133.1600 N   0  0  0  0  0  0  0  0  0  0  0  0
  142.8690  155.0760  132.9800 C   0  0  0  0  0  0  0  0  0  0  0  0
  143.1280  156.5240  133.0120 C   0  0  0  0  0  0  0  0  0  0  0  0
  142.2210  157.4410  132.3990 N   0  0  0  0  0  0  0  0  0  0  0  0
  144.1200  156.9620  133.6500 O   0  0  0  0  0  0  0  0  0  0  0  0
  143.8610  154.1350  132.7310 C   0  0  0  0  0  0  0  0  0  0  0  0
  143.2290  152.9170  132.7910 C   0  0  0  0  0  0  0  0  0  0  0  0
  143.7520  151.6350  132.6520 C   0  0  0  0  0  0  0  0  0  0  0  0
  142.8760  150.5470  132.7930 C   0  0  0  0  0  0  0  0  0  0  0  0
  141.5030  150.7590  133.0670 C   0  0  0  0  0  0  0  0  0  0  0  0
  140.5860  149.5890  133.2720 C   0  0  0  0  0  0  0  0  0  0  0  0
  139.7700  149.1880  131.7410 Cl  0  0  0  0  0  0  0  0  0  0  0  0
  141.0100  152.0740  133.2140 C   0  0  0  0  0  0  0  0  0  0  0  0
  141.9000  153.1440  133.0520 C   0  0  0  0  0  0  0  0  0  0  0  0
  136.7513  159.0594  132.1905 H   0  0  0  0  0  0  0  0  0  0  0  0
  136.3417  159.8705  130.6410 H   0  0  0  0  0  0  0  0  0  0  0  0
  136.8983  158.1626  130.6410 H   0  0  0  0  0  0  0  0  0  0  0  0
  138.8966  161.6345  131.1660 H   0  0  0  0  0  0  0  0  0  0  0  0
  139.6137  160.7861  129.7544 H   0  0  0  0  0  0  0  0  0  0  0  0
  137.8689  161.2129  129.7544 H   0  0  0  0  0  0  0  0  0  0  0  0
  139.3652  158.2582  133.9804 H   0  0  0  0  0  0  0  0  0  0  0  0
  138.2605  156.8474  133.7946 H   0  0  0  0  0  0  0  0  0  0  0  0
  141.3280  157.1040  131.9750 H   0  0  0  0  0  0  0  0  0  0  0  0
  142.4160  158.4660  132.4160 H   0  0  0  0  0  0  0  0  0  0  0  0
  144.9254  154.3251  132.5289 H   0  0  0  0  0  0  0  0  0  0  0  0
  144.8196  151.4788  132.4381 H   0  0  0  0  0  0  0  0  0  0  0  0
  143.2595  149.5212  132.6898 H   0  0  0  0  0  0  0  0  0  0  0  0
  141.1708  148.7217  133.6124 H   0  0  0  0  0  0  0  0  0  0  0  0
  139.8313  149.8470  134.0295 H   0  0  0  0  0  0  0  0  0  0  0  0
  139.9509  152.2543  133.4504 H   0  0  0  0  0  0  0  0  0  0  0  0
  1  2  1  0
  2  3  1  0
  2  4  1  0
  4  5  2  0
  4  6  1  0
  6  7  1  0
  7  8  1  0
  8  9  1  0
  9 10  2  0
  9 11  1  0
 11 12  1  0
 12 13  1  0
 13 14  1  0
 13 15  2  0
 12 16  2  0
 16 17  1  0
 17 18  2  0
 18 19  1  0
 19 20  2  0
 20 21  1  0
 21 22  1  0
 20 23  1  0
 23 24  2  0
 24 11  1  0
 24 17  1  0
  1 25  1  0
  1 26  1  0
  1 27  1  0
  3 28  1  0
  3 29  1  0
  3 30  1  0
  7 31  1  0
  7 32  1  0
 14 33  1  0
 14 34  1  0
 16 35  1  0
 18 36  1  0
 19 37  1  0
 21 38  1  0
 21 39  1  0
 23 40  1  0
M  END
>  <UniqueID>  (31) 
31

>  <SMILES>  (31) 
CN(C)C(=O)OCOC(=O)n1c(C(N)=O)cc2ccc(CCl)cc21

>  <Energy>  (31) 
73.41068806827475

>  <Genealogy>  (31) 
CN(C)C(=O)OCOC(=O)n1c(C(N)=O)cc2ccc(CCl)cc21 (3D coordinates assigned)
CN(C)C(=O)OCOC(=O)n1c(C(N)=O)cc2ccc(CCl)cc21 (optimized conformer: 73.41068806827475 kcal/mol)

>  <smiles>  (31) 
CN(C)C(=O)OCOC(=O)n1c(C(N)=O)cc2ccc(CCl)cc21

>  <score_type>  (31) 
oracle

>  <origin>  (31) 
adg

>  <m_score__min__energy>  (31) 
-6.5800000000000001

>  <m_primary>  (31) 
energy

$$$$
31:0
     RDKit          3D

 45 46  0  0  0  0  0  0  0  0999 V2000
  141.0080  155.7040  134.1180 C   0  0  0  0  0  0  0  0  0  0  0  0
  142.2890  155.9080  134.9470 C   0  0  0  0  0  0  0  0  0  0  0  0
  142.1630  155.1990  136.3120 C   0  0  0  0  0  0  0  0  0  0  0  0
  142.7380  157.4170  135.0840 C   0  0  2  0  0  0  0  0  0  0  0  0
  141.6220  158.3460  135.5720 C   0  0  0  0  0  0  0  0  0  0  0  0
  141.3050  158.3300  136.7960 O   0  0  0  0  0  0  0  0  0  0  0  0
  140.8090  159.1220  134.6840 N   0  0  0  0  0  0  0  0  0  0  0  0
  139.7420  158.6200  133.8240 C   0  0  0  0  0  0  0  0  0  0  0  0
  139.5780  159.4350  132.5740 C   0  0  0  0  0  0  0  0  0  0  0  0
  140.2400  160.5020  132.4350 O   0  0  0  0  0  0  0  0  0  0  0  0
  138.6760  159.0580  131.5840 O   0  0  0  0  0  0  0  0  0  0  0  0
  143.2740  157.9460  133.7530 C   0  0  0  0  0  0  0  0  0  0  0  0
  142.5060  157.8720  132.7520 O   0  0  0  0  0  0  0  0  0  0  0  0
  144.5980  158.5270  133.5750 N   0  0  0  0  0  0  0  0  0  0  0  0
  144.8980  159.8640  133.6640 C   0  0  0  0  0  0  0  0  0  0  0  0
  143.9220  160.9730  133.7380 C   0  0  0  0  0  0  0  0  0  0  0  0
  142.5340  160.7450  133.4660 N   0  0  0  0  0  0  0  0  0  0  0  0
  144.2880  162.1240  134.0960 O   0  0  0  0  0  0  0  0  0  0  0  0
  146.2700  160.0760  133.5980 C   0  0  0  0  0  0  0  0  0  0  0  0
  146.8260  158.8330  133.4720 C   0  0  0  0  0  0  0  0  0  0  0  0
  148.1640  158.4780  133.3710 C   0  0  0  0  0  0  0  0  0  0  0  0
  148.4810  157.1160  133.2650 C   0  0  0  0  0  0  0  0  0  0  0  0
  147.4600  156.1340  133.2830 C   0  0  0  0  0  0  0  0  0  0  0  0
  147.8390  154.6770  133.1320 C   0  0  0  0  0  0  0  0  0  0  0  0
  148.9180  154.5570  132.2760 F   0  0  0  0  0  0  0  0  0  0  0  0
  146.7670  153.9790  132.6060 F   0  0  0  0  0  0  0  0  0  0  0  0
  148.1810  154.1100  134.3460 F   0  0  0  0  0  0  0  0  0  0  0  0
  146.1090  156.5380  133.3980 C   0  0  0  0  0  0  0  0  0  0  0  0
  145.8050  157.9060  133.4610 C   0  0  0  0  0  0  0  0  0  0  0  0
  140.1513  155.5676  134.7944 H   0  0  0  0  0  0  0  0  0  0  0  0
  140.8374  156.5863  133.4836 H   0  0  0  0  0  0  0  0  0  0  0  0
  141.1199  154.8124  133.4836 H   0  0  0  0  0  0  0  0  0  0  0  0
  143.1079  155.4360  134.3843 H   0  0  0  0  0  0  0  0  0  0  0  0
  142.2936  155.9337  137.1202 H   0  0  0  0  0  0  0  0  0  0  0  0
  141.1685  154.7362  136.3943 H   0  0  0  0  0  0  0  0  0  0  0  0
  142.9371  154.4218  136.3943 H   0  0  0  0  0  0  0  0  0  0  0  0
  143.5299  157.4200  135.8475 H   0  0  0  0  0  0  0  0  0  0  0  0
  139.9760  157.5832  133.5407 H   0  0  0  0  0  0  0  0  0  0  0  0
  138.8004  158.6828  134.3892 H   0  0  0  0  0  0  0  0  0  0  0  0
  141.8560  161.5380  133.5050 H   0  0  0  0  0  0  0  0  0  0  0  0
  142.1870  159.8100  133.1570 H   0  0  0  0  0  0  0  0  0  0  0  0
  146.7975  161.0404  133.6386 H   0  0  0  0  0  0  0  0  0  0  0  0
  148.9538  159.2437  133.3740 H   0  0  0  0  0  0  0  0  0  0  0  0
  149.5322  156.8073  133.1670 H   0  0  0  0  0  0  0  0  0  0  0  0
  145.3057  155.7875  133.4376 H   0  0  0  0  0  0  0  0  0  0  0  0
  1  2  1  0
  2  3  1  0
  2  4  1  0
  4  5  1  0
  5  6  2  0
  5  7  1  0
  7  8  1  0
  8  9  1  0
  9 10  2  0
  9 11  1  0
  4 12  1  0
 12 13  2  0
 12 14  1  0
 14 15  1  0
 15 16  1  0
 16 17  1  0
 16 18  2  0
 15 19  2  0
 19 20  1  0
 20 21  2  0
 21 22  1  0
 22 23  2  0
 23 24  1  0
 24 25  1  0
 24 26  1  0
 24 27  1  0
 23 28  1  0
 28 29  2  0
 29 14  1  0
 29 20  1  0
  1 30  1  0
  1 31  1  0
  1 32  1  0
  2 33  1  0
  3 34  1  0
  3 35  1  0
  3 36  1  0
  4 37  1  1
  8 38  1  0
  8 39  1  0
 17 40  1  0
 17 41  1  0
 19 42  1  0
 21 43  1  0
 22 44  1  0
 28 45  1  0
M  CHG  2   7  -1  11  -1
M  END
>  <UniqueID>  (32) 
32

>  <SMILES>  (32) 
CC(C)[C@H](C(=O)[N-]CC(=O)[O-])C(=O)n1c(C(N)=O)cc2ccc(C(F)(F)F)cc21

>  <Energy>  (32) 
96.28434466518789

>  <Genealogy>  (32) 
CC(C)C(C(=O)[N-]CC(=O)[O-])C(=O)n1c(C(N)=O)cc2ccc(C(F)(F)F)cc21 (protonated)
CC(C)[C@H](C(=O)[N-]CC(=O)[O-])C(=O)n1c(C(N)=O)cc2ccc(C(F)(F)F)cc21 (chirality)
CC(C)[C@H](C(=O)[N-]CC(=O)[O-])C(=O)n1c(C(N)=O)cc2ccc(C(F)(F)F)cc21 (3D coordinates assigned)
CC(C)[C@H](C(=O)[N-]CC(=O)[O-])C(=O)n1c(C(N)=O)cc2ccc(C(F)(F)F)cc21 (optimized conformer: 96.28434466518789 kcal/mol)

>  <smiles>  (32) 
CC(C)C(C(=O)NCC(=O)O)C(=O)n1c(C(N)=O)cc2ccc(C(F)(F)F)cc21

>  <score_type>  (32) 
oracle

>  <origin>  (32) 
adg

>  <m_score__min__energy>  (32) 
-6.96

>  <m_primary>  (32) 
energy

$$$$
32:0
     RDKit          3D

 39 40  0  0  0  0  0  0  0  0999 V2000
  140.3900  159.2440  132.2230 C   0  0  0  0  0  0  0  0  0  0  0  0
  140.2610  159.7560  133.5280 O   0  0  0  0  0  0  0  0  0  0  0  0
  140.3010  158.6890  134.3740 N   0  0  0  0  0  0  0  0  0  0  0  0
  139.1110  157.8490  134.5130 C   0  0  0  0  0  0  0  0  0  0  0  0
  141.4630  158.4920  135.2040 C   0  0  0  0  0  0  0  0  0  0  0  0
  141.9750  159.4800  135.7960 O   0  0  0  0  0  0  0  0  0  0  0  0
  142.1110  157.1480  135.3390 C   0  0  0  0  0  0  0  0  0  0  0  0
  143.4230  157.2090  134.7950 O   0  0  0  0  0  0  0  0  0  0  0  0
  143.7360  157.9150  133.6310 C   0  0  0  0  0  0  0  0  0  0  0  0
  142.9140  157.9600  132.6750 O   0  0  0  0  0  0  0  0  0  0  0  0
  145.0130  158.5630  133.5150 N   0  0  0  0  0  0  0  0  0  0  0  0
  145.2730  159.9030  133.4860 C   0  0  0  0  0  0  0  0  0  0  0  0
  144.2990  160.9850  133.7340 C   0  0  0  0  0  0  0  0  0  0  0  0
  142.9050  160.7800  133.5200 N   0  0  0  0  0  0  0  0  0  0  0  0
  144.6970  162.0890  134.1900 O   0  0  0  0  0  0  0  0  0  0  0  0
  146.6330  160.1320  133.2850 C   0  0  0  0  0  0  0  0  0  0  0  0
  147.2060  158.8840  133.2060 C   0  0  0  0  0  0  0  0  0  0  0  0
  148.5370  158.5230  133.0290 C   0  0  0  0  0  0  0  0  0  0  0  0
  148.8480  157.1540  132.9800 C   0  0  0  0  0  0  0  0  0  0  0  0
  147.8270  156.1740  133.0820 C   0  0  0  0  0  0  0  0  0  0  0  0
  148.1730  154.7070  133.0720 C   0  0  0  0  0  0  0  0  0  0  0  0
  147.1150  153.9530  132.5960 F   0  0  0  0  0  0  0  0  0  0  0  0
  149.2730  154.5050  132.2590 F   0  0  0  0  0  0  0  0  0  0  0  0
  148.4730  154.2700  134.3520 F   0  0  0  0  0  0  0  0  0  0  0  0
  146.4870  156.5830  133.2800 C   0  0  0  0  0  0  0  0  0  0  0  0
  146.2090  157.9540  133.3460 C   0  0  0  0  0  0  0  0  0  0  0  0
  140.6585  158.1784  132.2721 H   0  0  0  0  0  0  0  0  0  0  0  0
  139.4352  159.3573  131.6886 H   0  0  0  0  0  0  0  0  0  0  0  0
  141.1771  159.7962  131.6886 H   0  0  0  0  0  0  0  0  0  0  0  0
  138.8933  157.6953  135.5802 H   0  0  0  0  0  0  0  0  0  0  0  0
  138.2546  158.3439  134.0316 H   0  0  0  0  0  0  0  0  0  0  0  0
  139.2905  156.8763  134.0316 H   0  0  0  0  0  0  0  0  0  0  0  0
  142.1652  156.8700  136.4019 H   0  0  0  0  0  0  0  0  0  0  0  0
  141.5195  156.3947  134.7981 H   0  0  0  0  0  0  0  0  0  0  0  0
  142.4660  159.8500  133.7020 H   0  0  0  0  0  0  0  0  0  0  0  0
  147.1406  161.1047  133.2062 H   0  0  0  0  0  0  0  0  0  0  0  0
  149.3228  159.2864  132.9303 H   0  0  0  0  0  0  0  0  0  0  0  0
  149.8950  156.8382  132.8612 H   0  0  0  0  0  0  0  0  0  0  0  0
  145.6815  155.8406  133.3799 H   0  0  0  0  0  0  0  0  0  0  0  0
  1  2  1  0
  2  3  1  0
  3  4  1  0
  3  5  1  0
  5  6  2  0
  5  7  1  0
  7  8  1  0
  8  9  1  0
  9 10  2  0
  9 11  1  0
 11 12  1  0
 12 13  1  0
 13 14  1  0
 13 15  2  0
 12 16  2  0
 16 17  1  0
 17 18  2  0
 18 19  1  0
 19 20  2  0
 20 21  1  0
 21 22  1  0
 21 23  1  0
 21 24  1  0
 20 25  1  0
 25 26  2  0
 26 11  1  0
 26 17  1  0
  1 27  1  0
  1 28  1  0
  1 29  1  0
  4 30  1  0
  4 31  1  0
  4 32  1  0
  7 33  1  0
  7 34  1  0
 14 35  1  0
 16 36  1  0
 18 37  1  0
 19 38  1  0
 25 39  1  0
M  CHG  1  14  -1
M  END
>  <UniqueID>  (33) 
33

>  <SMILES>  (33) 
CON(C)C(=O)COC(=O)n1c(C([NH-])=O)cc2ccc(C(F)(F)F)cc21

>  <Energy>  (33) 
71.95482401619742

>  <Genealogy>  (33) 
CON(C)C(=O)COC(=O)n1c(C([NH-])=O)cc2ccc(C(F)(F)F)cc21 (protonated)
CON(C)C(=O)COC(=O)n1c(C([NH-])=O)cc2ccc(C(F)(F)F)cc21 (3D coordinates assigned)
CON(C)C(=O)COC(=O)n1c(C([NH-])=O)cc2ccc(C(F)(F)F)cc21 (optimized conformer: 71.95482401619742 kcal/mol)

>  <smiles>  (33) 
CON(C)C(=O)COC(=O)n1c(C(N)=O)cc2ccc(C(F)(F)F)cc21

>  <score_type>  (33) 
oracle

>  <origin>  (33) 
adg

>  <m_score__min__energy>  (33) 
-6.0199999999999996

>  <m_primary>  (33) 
energy

$$$$
33:0
     RDKit          3D

 37 38  0  0  0  0  0  0  0  0999 V2000
  147.3940  154.2720  132.9740 N   0  0  0  0  0  0  0  0  0  0  0  0
  147.8950  155.6020  132.8680 C   0  0  0  0  0  0  0  0  0  0  0  0
  149.1120  155.7850  132.6030 O   0  0  0  0  0  0  0  0  0  0  0  0
  146.9770  156.7490  133.0280 C   0  0  0  0  0  0  0  0  0  0  0  0
  147.4040  158.0450  133.3090 C   0  0  0  0  0  0  0  0  0  0  0  0
  146.2530  158.7780  133.4800 C   0  0  0  0  0  0  0  0  0  0  0  0
  146.0850  160.1310  133.7540 C   0  0  0  0  0  0  0  0  0  0  0  0
  144.7740  160.6280  133.8480 C   0  0  0  0  0  0  0  0  0  0  0  0
  143.6570  159.7660  133.6840 C   0  0  0  0  0  0  0  0  0  0  0  0
  142.2570  160.3200  133.7210 C   0  0  0  0  0  0  0  0  0  0  0  0
  141.6640  160.0640  134.9450 F   0  0  0  0  0  0  0  0  0  0  0  0
  142.2670  161.6910  133.5240 F   0  0  0  0  0  0  0  0  0  0  0  0
  141.5060  159.7270  132.7240 F   0  0  0  0  0  0  0  0  0  0  0  0
  143.8720  158.4000  133.3870 C   0  0  0  0  0  0  0  0  0  0  0  0
  145.1870  157.9340  133.3040 C   0  0  0  0  0  0  0  0  0  0  0  0
  145.6150  156.6880  133.0110 N   0  0  0  0  0  0  0  0  0  0  0  0
  144.7810  155.5670  132.6710 C   0  0  0  0  0  0  0  0  0  0  0  0
  145.1670  154.7460  131.7970 O   0  0  0  0  0  0  0  0  0  0  0  0
  143.4760  155.3340  133.3730 C   0  0  0  0  0  0  0  0  0  0  0  0
  143.5030  153.7260  134.2460 S   0  0  0  0  0  0  0  0  0  0  0  0
  143.3960  152.6440  132.7720 C   0  0  0  0  0  0  0  0  0  0  0  0
  144.6600  151.7820  132.5960 C   0  0  0  0  0  0  0  0  0  0  0  0
  145.4950  152.2680  131.4970 N   0  0  0  0  0  0  0  0  0  0  0  0
  147.0580  153.7560  132.1300 H   0  0  0  0  0  0  0  0  0  0  0  0
  148.4410  158.4053  133.3792 H   0  0  0  0  0  0  0  0  0  0  0  0
  146.9527  160.7926  133.8930 H   0  0  0  0  0  0  0  0  0  0  0  0
  144.6109  161.6968  134.0509 H   0  0  0  0  0  0  0  0  0  0  0  0
  143.0231  157.7195  133.2249 H   0  0  0  0  0  0  0  0  0  0  0  0
  143.3072  156.1401  134.1022 H   0  0  0  0  0  0  0  0  0  0  0  0
  142.6661  155.3236  132.6287 H   0  0  0  0  0  0  0  0  0  0  0  0
  142.5258  151.9801  132.8813 H   0  0  0  0  0  0  0  0  0  0  0  0
  143.2971  153.2870  131.8850 H   0  0  0  0  0  0  0  0  0  0  0  0
  145.2441  151.8106  133.5277 H   0  0  0  0  0  0  0  0  0  0  0  0
  144.3456  150.7545  132.3607 H   0  0  0  0  0  0  0  0  0  0  0  0
  146.2620  152.8720  131.8730 H   0  0  0  0  0  0  0  0  0  0  0  0
  145.9190  151.4510  131.0020 H   0  0  0  0  0  0  0  0  0  0  0  0
  144.9190  152.8130  130.8180 H   0  0  0  0  0  0  0  0  0  0  0  0
  1  2  1  0
  2  3  2  0
  2  4  1  0
  4  5  2  0
  5  6  1  0
  6  7  2  0
  7  8  1  0
  8  9  2  0
  9 10  1  0
 10 11  1  0
 10 12  1  0
 10 13  1  0
  9 14  1  0
 14 15  2  0
 15 16  1  0
 16 17  1  0
 17 18  2  0
 17 19  1  0
 19 20  1  0
 20 21  1  0
 21 22  1  0
 22 23  1  0
 16  4  1  0
 15  6  1  0
  1 24  1  0
  5 25  1  0
  7 26  1  0
  8 27  1  0
 14 28  1  0
 19 29  1  0
 19 30  1  0
 21 31  1  0
 21 32  1  0
 22 33  1  0
 22 34  1  0
 23 35  1  0
 23 36  1  0
 23 37  1  0
M  CHG  2   1  -1  23   1
M  END
>  <UniqueID>  (34) 
34

>  <SMILES>  (34) 
[NH-]C(=O)c1cc2ccc(C(F)(F)F)cc2n1C(=O)CSCC[NH3+]

>  <Energy>  (34) 
72.07353585628816

>  <Genealogy>  (34) 
[NH-]C(=O)c1cc2ccc(C(F)(F)F)cc2n1C(=O)CSCC[NH3+] (protonated)
[NH-]C(=O)c1cc2ccc(C(F)(F)F)cc2n1C(=O)CSCC[NH3+] (3D coordinates assigned)
[NH-]C(=O)c1cc2ccc(C(F)(F)F)cc2n1C(=O)CSCC[NH3+] (optimized conformer: 72.07353585628816 kcal/mol)

>  <smiles>  (34) 
NCCSCC(=O)n1c(C(N)=O)cc2ccc(C(F)(F)F)cc21

>  <score_type>  (34) 
oracle

>  <origin>  (34) 
adg

>  <m_score__min__energy>  (34) 
-6.4199999999999999

>  <m_primary>  (34) 
energy

$$$$
34:0
     RDKit          3D

 44 46  0  0  0  0  0  0  0  0999 V2000
  138.3640  157.1660  133.3800 N   0  0  0  0  0  0  0  0  0  0  0  0
  139.1330  157.8810  134.3500 C   0  0  0  0  0  0  0  0  0  0  0  0
  138.5960  158.2040  135.4430 O   0  0  0  0  0  0  0  0  0  0  0  0
  140.5560  158.2100  134.1180 C   0  0  0  0  0  0  0  0  0  0  0  0
  141.0580  159.5100  134.1010 C   0  0  0  0  0  0  0  0  0  0  0  0
  142.4090  159.3740  133.8620 C   0  0  0  0  0  0  0  0  0  0  0  0
  143.3990  160.3430  133.7290 C   0  0  0  0  0  0  0  0  0  0  0  0
  144.7060  159.9140  133.4420 C   0  0  0  0  0  0  0  0  0  0  0  0
  144.9920  158.5350  133.2720 C   0  0  0  0  0  0  0  0  0  0  0  0
  146.3930  158.0820  132.9840 C   0  0  0  0  0  0  0  0  0  0  0  0
  146.9850  157.0680  134.3220 Cl  0  0  0  0  0  0  0  0  0  0  0  0
  143.9630  157.5810  133.4230 C   0  0  0  0  0  0  0  0  0  0  0  0
  142.6790  158.0370  133.7360 C   0  0  0  0  0  0  0  0  0  0  0  0
  141.5540  157.3100  133.8980 N   0  0  0  0  0  0  0  0  0  0  0  0
  141.4320  155.8910  133.7300 C   0  0  0  0  0  0  0  0  0  0  0  0
  140.5370  155.4370  132.9660 O   0  0  0  0  0  0  0  0  0  0  0  0
  142.2960  154.9920  134.4520 N   0  0  0  0  0  0  0  0  0  0  0  0
  142.9580  155.4480  135.6860 C   0  0  0  0  0  0  0  0  0  0  0  0
  143.2970  154.2660  136.6080 C   0  0  0  0  0  0  0  0  0  0  0  0
  142.1630  153.2290  136.5690 C   0  0  0  0  0  0  0  0  0  0  0  0
  142.4430  152.1860  137.4860 O   0  0  0  0  0  0  0  0  0  0  0  0
  140.9880  151.4660  138.0210 P   0  0  0  0  0  0  0  0  0  0  0  0
  141.2630  150.4940  139.1460 O   0  0  0  0  0  0  0  0  0  0  0  0
  140.2760  150.6330  136.7320 O   0  0  0  0  0  0  0  0  0  0  0  0
  139.9220  152.6640  138.5590 O   0  0  0  0  0  0  0  0  0  0  0  0
  142.0280  152.6260  135.1510 C   0  0  0  0  0  0  0  0  0  0  0  0
  142.4570  153.5930  134.0300 C   0  0  0  0  0  0  0  0  0  0  0  0
  137.3450  157.0060  133.5390 H   0  0  0  0  0  0  0  0  0  0  0  0
  138.8160  156.7010  132.5620 H   0  0  0  0  0  0  0  0  0  0  0  0
  140.4965  160.4446  134.2470 H   0  0  0  0  0  0  0  0  0  0  0  0
  143.1656  161.4117  133.8450 H   0  0  0  0  0  0  0  0  0  0  0  0
  145.5144  160.6540  133.3483 H   0  0  0  0  0  0  0  0  0  0  0  0
  146.4040  157.4990  132.0513 H   0  0  0  0  0  0  0  0  0  0  0  0
  147.0450  158.9616  132.8785 H   0  0  0  0  0  0  0  0  0  0  0  0
  144.1658  156.5071  133.2978 H   0  0  0  0  0  0  0  0  0  0  0  0
  143.8873  155.9735  135.4208 H   0  0  0  0  0  0  0  0  0  0  0  0
  142.2701  156.1192  136.2211 H   0  0  0  0  0  0  0  0  0  0  0  0
  144.2324  153.7963  136.2697 H   0  0  0  0  0  0  0  0  0  0  0  0
  143.4162  154.6332  137.6380 H   0  0  0  0  0  0  0  0  0  0  0  0
  141.2219  153.7299  136.8399 H   0  0  0  0  0  0  0  0  0  0  0  0
  142.6570  151.7254  135.0940 H   0  0  0  0  0  0  0  0  0  0  0  0
  140.9628  152.4005  134.9946 H   0  0  0  0  0  0  0  0  0  0  0  0
  143.5132  153.4111  133.7824 H   0  0  0  0  0  0  0  0  0  0  0  0
  141.8196  153.4161  133.1511 H   0  0  0  0  0  0  0  0  0  0  0  0
  1  2  1  0
  2  3  2  0
  2  4  1  0
  4  5  2  0
  5  6  1  0
  6  7  2  0
  7  8  1  0
  8  9  2  0
  9 10  1  0
 10 11  1  0
  9 12  1  0
 12 13  2  0
 13 14  1  0
 14 15  1  0
 15 16  2  0
 15 17  1  0
 17 18  1  0
 18 19  1  0
 19 20  1  0
 20 21  1  0
 21 22  1  0
 22 23  2  0
 22 24  1  0
 22 25  1  0
 20 26  1  0
 26 27  1  0
 14  4  1  0
 27 17  1  0
 13  6  1  0
  1 28  1  0
  1 29  1  0
  5 30  1  0
  7 31  1  0
  8 32  1  0
 10 33  1  0
 10 34  1  0
 12 35  1  0
 18 36  1  0
 18 37  1  0
 19 38  1  0
 19 39  1  0
 20 40  1  0
 26 41  1  0
 26 42  1  0
 27 43  1  0
 27 44  1  0
M  CHG  2  24  -1  25  -1
M  END
>  <UniqueID>  (35) 
35

>  <SMILES>  (35) 
NC(=O)c1cc2ccc(CCl)cc2n1C(=O)N1CCC(OP(=O)([O-])[O-])CC1

>  <Energy>  (35) 
87.44069243050909

>  <Genealogy>  (35) 
NC(=O)c1cc2ccc(CCl)cc2n1C(=O)N1CCC(OP(=O)([O-])[O-])CC1 (protonated)
NC(=O)c1cc2ccc(CCl)cc2n1C(=O)N1CCC(OP(=O)([O-])[O-])CC1 (3D coordinates assigned)
NC(=O)c1cc2ccc(CCl)cc2n1C(=O)N1CCC(OP(=O)([O-])[O-])CC1 (nonaromatic ring conformer: 87.44069243050909 kcal/mol)

>  <smiles>  (35) 
NC(=O)c1cc2ccc(CCl)cc2n1C(=O)N1CCC(OP(=O)(O)O)CC1

>  <score_type>  (35) 
oracle

>  <origin>  (35) 
adg

>  <m_score__min__energy>  (35) 
-8.5500000000000007

>  <m_primary>  (35) 
energy

$$$$
35:0
     RDKit          3D

 49 50  0  0  0  0  0  0  0  0999 V2000
  144.9130  151.4970  132.5920 C   0  0  0  0  0  0  0  0  0  0  0  0
  146.0680  152.3840  132.8410 N   0  0  1  0  0  0  0  0  0  0  0  0
  147.3460  151.9010  132.2500 C   0  0  0  0  0  0  0  0  0  0  0  0
  148.6650  152.3210  132.9640 C   0  0  2  0  0  0  0  0  0  0  0  0
  148.3340  153.0520  134.1190 O   0  0  0  0  0  0  0  0  0  0  0  0
  149.5950  153.1890  132.1070 C   0  0  0  0  0  0  0  0  0  0  0  0
  149.6390  154.4970  132.5970 O   0  0  0  0  0  0  0  0  0  0  0  0
  145.7810  153.7710  132.5050 C   0  0  0  0  0  0  0  0  0  0  0  0
  146.6900  154.5480  132.2500 O   0  0  0  0  0  0  0  0  0  0  0  0
  144.3540  154.2510  132.3470 C   0  0  0  0  0  0  0  0  0  0  0  0
  144.0120  155.4320  133.2700 C   0  0  0  0  0  0  0  0  0  0  0  0
  145.2090  156.0700  133.9380 C   0  0  0  0  0  0  0  0  0  0  0  0
  145.9060  155.3760  134.7280 O   0  0  0  0  0  0  0  0  0  0  0  0
  145.5740  157.4420  133.7020 N   0  0  0  0  0  0  0  0  0  0  0  0
  146.8140  157.9680  133.5020 C   0  0  0  0  0  0  0  0  0  0  0  0
  148.0500  157.1970  133.2800 C   0  0  0  0  0  0  0  0  0  0  0  0
  148.3320  156.0520  134.0810 N   0  0  0  0  0  0  0  0  0  0  0  0
  148.8890  157.5770  132.4200 O   0  0  0  0  0  0  0  0  0  0  0  0
  146.7540  159.3590  133.4490 C   0  0  0  0  0  0  0  0  0  0  0  0
  145.4200  159.6710  133.5990 C   0  0  0  0  0  0  0  0  0  0  0  0
  144.7890  160.9120  133.6530 C   0  0  0  0  0  0  0  0  0  0  0  0
  143.4020  160.9330  133.8680 C   0  0  0  0  0  0  0  0  0  0  0  0
  142.6720  159.7260  134.0050 C   0  0  0  0  0  0  0  0  0  0  0  0
  141.2020  159.7540  134.2970 C   0  0  0  0  0  0  0  0  0  0  0  0
  140.8340  158.9710  136.2500 I   0  0  0  0  0  0  0  0  0  0  0  0
  143.3460  158.4870  133.9380 C   0  0  0  0  0  0  0  0  0  0  0  0
  144.7290  158.4950  133.7310 C   0  0  0  0  0  0  0  0  0  0  0  0
  144.4877  151.1704  133.5525 H   0  0  0  0  0  0  0  0  0  0  0  0
  144.1486  152.0424  132.0191 H   0  0  0  0  0  0  0  0  0  0  0  0
  145.2427  150.6178  132.0191 H   0  0  0  0  0  0  0  0  0  0  0  0
  146.2030  152.3560  133.8820 H   0  0  0  0  0  0  0  0  0  0  0  0
  147.3110  150.8016  132.2398 H   0  0  0  0  0  0  0  0  0  0  0  0
  147.3969  152.3757  131.2590 H   0  0  0  0  0  0  0  0  0  0  0  0
  149.2076  151.3906  133.1874 H   0  0  0  0  0  0  0  0  0  0  0  0
  147.9650  153.9230  133.8170 H   0  0  0  0  0  0  0  0  0  0  0  0
  150.6083  152.7614  132.1270 H   0  0  0  0  0  0  0  0  0  0  0  0
  149.2102  153.2096  131.0767 H   0  0  0  0  0  0  0  0  0  0  0  0
  148.7040  154.7390  132.8180 H   0  0  0  0  0  0  0  0  0  0  0  0
  144.2037  154.5663  131.3039 H   0  0  0  0  0  0  0  0  0  0  0  0
  143.6934  153.4158  132.6227 H   0  0  0  0  0  0  0  0  0  0  0  0
  143.5023  156.2007  132.6706 H   0  0  0  0  0  0  0  0  0  0  0  0
  143.3812  155.0282  134.0757 H   0  0  0  0  0  0  0  0  0  0  0  0
  147.9070  155.1230  133.8620 H   0  0  0  0  0  0  0  0  0  0  0  0
  147.5923  160.0587  133.3159 H   0  0  0  0  0  0  0  0  0  0  0  0
  145.3591  161.8448  133.5311 H   0  0  0  0  0  0  0  0  0  0  0  0
  142.8759  161.8970  133.9308 H   0  0  0  0  0  0  0  0  0  0  0  0
  140.8396  160.7913  134.2456 H   0  0  0  0  0  0  0  0  0  0  0  0
  140.6734  159.1383  133.5544 H   0  0  0  0  0  0  0  0  0  0  0  0
  142.7972  157.5398  134.0459 H   0  0  0  0  0  0  0  0  0  0  0  0
  1  2  1  0
  2  3  1  0
  3  4  1  0
  4  5  1  0
  4  6  1  0
  6  7  1  0
  2  8  1  0
  8  9  2  0
  8 10  1  0
 10 11  1  0
 11 12  1  0
 12 13  2  0
 12 14  1  0
 14 15  1  0
 15 16  1  0
 16 17  1  0
 16 18  2  0
 15 19  2  0
 19 20  1  0
 20 21  2  0
 21 22  1  0
 22 23  2  0
 23 24  1  0
 24 25  1  0
 23 26  1  0
 26 27  2  0
 27 14  1  0
 27 20  1  0
  1 28  1  0
  1 29  1  0
  1 30  1  0
  2 31  1  1
  3 32  1  0
  3 33  1  0
  4 34  1  1
  5 35  1  0
  6 36  1  0
  6 37  1  0
  7 38  1  0
 10 39  1  0
 10 40  1  0
 11 41  1  0
 11 42  1  0
 17 43  1  0
 19 44  1  0
 21 45  1  0
 22 46  1  0
 24 47  1  0
 24 48  1  0
 26 49  1  0
M  CHG  2   2   1  17  -1
M  END
>  <UniqueID>  (36) 
36

>  <SMILES>  (36) 
C[N@@H+](C[C@H](O)CO)C(=O)CCC(=O)n1c(C([NH-])=O)cc2ccc(CI)cc21

>  <Energy>  (36) 
89.4472807290106

>  <Genealogy>  (36) 
C[NH+](CC(O)CO)C(=O)CCC(=O)n1c(C([NH-])=O)cc2ccc(CI)cc21 (protonated)
C[N@@H+](C[C@H](O)CO)C(=O)CCC(=O)n1c(C([NH-])=O)cc2ccc(CI)cc21 (chirality)
C[N@@H+](C[C@H](O)CO)C(=O)CCC(=O)n1c(C([NH-])=O)cc2ccc(CI)cc21 (3D coordinates assigned)
C[N@@H+](C[C@H](O)CO)C(=O)CCC(=O)n1c(C([NH-])=O)cc2ccc(CI)cc21 (optimized conformer: 89.4472807290106 kcal/mol)

>  <smiles>  (36) 
CN(CC(O)CO)C(=O)CCC(=O)n1c(C(N)=O)cc2ccc(CI)cc21

>  <score_type>  (36) 
oracle

>  <origin>  (36) 
adg

>  <m_score__min__energy>  (36) 
-5.5899999999999999

>  <m_primary>  (36) 
energy

$$$$
36:0
     RDKit          3D

 42 43  0  0  0  0  0  0  0  0999 V2000
  144.8230  152.6380  138.6370 C   0  0  0  0  0  0  0  0  0  0  0  0
  144.2730  153.3860  137.4990 N   0  0  0  0  0  0  0  0  0  0  0  0
  142.8320  153.6850  137.4630 C   0  0  0  0  0  0  0  0  0  0  0  0
  142.1080  152.8030  136.4380 C   0  0  0  0  0  0  0  0  0  0  0  0
  141.2330  151.7900  137.1100 C   0  0  0  0  0  0  0  0  0  0  0  0
  141.0440  151.8420  138.3530 O   0  0  0  0  0  0  0  0  0  0  0  0
  140.6570  150.7670  136.3690 O   0  0  0  0  0  0  0  0  0  0  0  0
  145.1750  153.8180  136.4520 C   0  0  0  0  0  0  0  0  0  0  0  0
  146.3620  153.3860  136.4450 O   0  0  0  0  0  0  0  0  0  0  0  0
  144.7610  154.8450  135.4240 C   0  0  0  0  0  0  0  0  0  0  0  0
  145.5100  154.6860  134.1300 C   0  0  0  0  0  0  0  0  0  0  0  0
  145.3790  153.6240  133.4630 O   0  0  0  0  0  0  0  0  0  0  0  0
  146.4410  155.6880  133.6960 N   0  0  0  0  0  0  0  0  0  0  0  0
  147.7260  155.5160  133.2780 C   0  0  0  0  0  0  0  0  0  0  0  0
  148.4830  154.2470  133.3180 C   0  0  0  0  0  0  0  0  0  0  0  0
  148.1760  153.2670  134.3050 N   0  0  0  0  0  0  0  0  0  0  0  0
  149.3820  154.0070  132.4690 O   0  0  0  0  0  0  0  0  0  0  0  0
  148.2730  156.7310  132.8720 C   0  0  0  0  0  0  0  0  0  0  0  0
  147.2770  157.6630  133.0690 C   0  0  0  0  0  0  0  0  0  0  0  0
  147.2670  159.0310  132.8190 C   0  0  0  0  0  0  0  0  0  0  0  0
  146.0870  159.7430  133.0980 C   0  0  0  0  0  0  0  0  0  0  0  0
  144.9500  159.0820  133.6340 C   0  0  0  0  0  0  0  0  0  0  0  0
  143.6710  159.8420  133.8780 C   0  0  0  0  0  0  0  0  0  0  0  0
  143.2200  159.6310  135.1690 F   0  0  0  0  0  0  0  0  0  0  0  0
  142.7070  159.4100  132.9870 F   0  0  0  0  0  0  0  0  0  0  0  0
  143.8680  161.2010  133.7060 F   0  0  0  0  0  0  0  0  0  0  0  0
  144.9950  157.6860  133.8510 C   0  0  0  0  0  0  0  0  0  0  0  0
  146.1850  157.0070  133.5710 C   0  0  0  0  0  0  0  0  0  0  0  0
  144.4843  153.0987  139.5767 H   0  0  0  0  0  0  0  0  0  0  0  0
  144.4747  151.5955  138.5933 H   0  0  0  0  0  0  0  0  0  0  0  0
  145.9219  152.6596  138.5933 H   0  0  0  0  0  0  0  0  0  0  0  0
  142.4028  153.5033  138.4594 H   0  0  0  0  0  0  0  0  0  0  0  0
  142.7018  154.7374  137.1707 H   0  0  0  0  0  0  0  0  0  0  0  0
  141.4864  153.4409  135.7926 H   0  0  0  0  0  0  0  0  0  0  0  0
  142.8649  152.2681  135.8456 H   0  0  0  0  0  0  0  0  0  0  0  0
  143.6846  154.7346  135.2263 H   0  0  0  0  0  0  0  0  0  0  0  0
  144.9931  155.8411  135.8288 H   0  0  0  0  0  0  0  0  0  0  0  0
  147.1890  152.9800  134.4880 H   0  0  0  0  0  0  0  0  0  0  0  0
  149.2845  156.9088  132.4780 H   0  0  0  0  0  0  0  0  0  0  0  0
  148.1546  159.5402  132.4155 H   0  0  0  0  0  0  0  0  0  0  0  0
  146.0441  160.8240  132.8989 H   0  0  0  0  0  0  0  0  0  0  0  0
  144.1149  157.1466  134.2311 H   0  0  0  0  0  0  0  0  0  0  0  0
  1  2  1  0
  2  3  1  0
  3  4  1  0
  4  5  1  0
  5  6  2  0
  5  7  1  0
  2  8  1  0
  8  9  2  0
  8 10  1  0
 10 11  1  0
 11 12  2  0
 11 13  1  0
 13 14  1  0
 14 15  1  0
 15 16  1  0
 15 17  2  0
 14 18  2  0
 18 19  1  0
 19 20  2  0
 20 21  1  0
 21 22  2  0
 22 23  1  0
 23 24  1  0
 23 25  1  0
 23 26  1  0
 22 27  1  0
 27 28  2  0
 28 13  1  0
 28 19  1  0
  1 29  1  0
  1 30  1  0
  1 31  1  0
  3 32  1  0
  3 33  1  0
  4 34  1  0
  4 35  1  0
 10 36  1  0
 10 37  1  0
 16 38  1  0
 18 39  1  0
 20 40  1  0
 21 41  1  0
 27 42  1  0
M  CHG  2   7  -1  16  -1
M  END
>  <UniqueID>  (37) 
37

>  <SMILES>  (37) 
CN(CCC(=O)[O-])C(=O)CC(=O)n1c(C([NH-])=O)cc2ccc(C(F)(F)F)cc21

>  <Energy>  (37) 
77.51542321068509

>  <Genealogy>  (37) 
CN(CCC(=O)[O-])C(=O)CC(=O)n1c(C([NH-])=O)cc2ccc(C(F)(F)F)cc21 (protonated)
CN(CCC(=O)[O-])C(=O)CC(=O)n1c(C([NH-])=O)cc2ccc(C(F)(F)F)cc21 (3D coordinates assigned)
CN(CCC(=O)[O-])C(=O)CC(=O)n1c(C([NH-])=O)cc2ccc(C(F)(F)F)cc21 (optimized conformer: 77.51542321068509 kcal/mol)

>  <smiles>  (37) 
CN(CCC(=O)O)C(=O)CC(=O)n1c(C(N)=O)cc2ccc(C(F)(F)F)cc21

>  <score_type>  (37) 
oracle

>  <origin>  (37) 
adg

>  <m_score__min__energy>  (37) 
-7.1399999999999997

>  <m_primary>  (37) 
energy

$$$$
37:0
     RDKit          3D

 45 46  0  0  0  0  0  0  0  0999 V2000
  141.0010  151.1310  138.2650 C   0  0  0  0  0  0  0  0  0  0  0  0
  140.9950  152.6100  138.5160 C   0  0  0  0  0  0  0  0  0  0  0  0
  140.5800  153.1160  139.7710 C   0  0  0  0  0  0  0  0  0  0  0  0
  140.5610  154.5000  140.0110 C   0  0  0  0  0  0  0  0  0  0  0  0
  141.0060  155.3440  138.9980 C   0  0  0  0  0  0  0  0  0  0  0  0
  141.0100  156.7160  138.9330 C   0  0  0  0  0  0  0  0  0  0  0  0
  141.4920  157.0310  137.6640 C   0  0  0  0  0  0  0  0  0  0  0  0
  141.5570  158.4250  137.1620 C   0  0  0  0  0  0  0  0  0  0  0  0
  142.2620  158.7800  135.9720 N   0  0  0  0  0  0  0  0  0  0  0  0
  140.9980  159.3380  137.8250 O   0  0  0  0  0  0  0  0  0  0  0  0
  141.7960  155.8920  136.9740 N   0  0  0  0  0  0  0  0  0  0  0  0
  142.2780  155.7760  135.6230 C   0  0  0  0  0  0  0  0  0  0  0  0
  143.4860  156.0320  135.3680 O   0  0  0  0  0  0  0  0  0  0  0  0
  141.3730  155.2920  134.5150 C   0  0  0  0  0  0  0  0  0  0  0  0
  141.2240  156.3300  133.3950 C   0  0  0  0  0  0  0  0  0  0  0  0
  139.9910  157.1900  133.5570 C   0  0  0  0  0  0  0  0  0  0  0  0
  139.1240  156.8570  134.4130 O   0  0  0  0  0  0  0  0  0  0  0  0
  139.8000  158.4010  132.7900 N   0  0  0  0  0  0  0  0  0  0  0  0
  138.4410  158.9300  132.6140 C   0  0  0  0  0  0  0  0  0  0  0  0
  138.1880  159.2500  131.1750 C   0  0  0  0  0  0  0  0  0  0  0  0
  138.8100  158.6350  130.2720 O   0  0  0  0  0  0  0  0  0  0  0  0
  137.2950  160.2590  130.8320 O   0  0  0  0  0  0  0  0  0  0  0  0
  140.9380  159.1420  132.2180 C   0  0  0  0  0  0  0  0  0  0  0  0
  141.7960  159.7230  133.3000 C   0  0  0  0  0  0  0  0  0  0  0  0
  142.9010  159.1910  133.5850 O   0  0  0  0  0  0  0  0  0  0  0  0
  141.3830  160.8630  133.9810 O   0  0  0  0  0  0  0  0  0  0  0  0
  141.4660  154.8680  137.7960 C   0  0  0  0  0  0  0  0  0  0  0  0
  141.4440  153.4960  137.5130 C   0  0  0  0  0  0  0  0  0  0  0  0
  141.0032  150.5960  139.2261 H   0  0  0  0  0  0  0  0  0  0  0  0
  140.1040  150.8526  137.6924 H   0  0  0  0  0  0  0  0  0  0  0  0
  141.9003  150.8599  137.6924 H   0  0  0  0  0  0  0  0  0  0  0  0
  140.2700  152.4202  140.5645 H   0  0  0  0  0  0  0  0  0  0  0  0
  140.2053  154.9042  140.9702 H   0  0  0  0  0  0  0  0  0  0  0  0
  140.6978  157.4195  139.7189 H   0  0  0  0  0  0  0  0  0  0  0  0
  142.8850  158.1110  135.4810 H   0  0  0  0  0  0  0  0  0  0  0  0
  142.2230  159.7630  135.6170 H   0  0  0  0  0  0  0  0  0  0  0  0
  141.7955  154.3697  134.0896 H   0  0  0  0  0  0  0  0  0  0  0  0
  140.3766  155.1137  134.9457 H   0  0  0  0  0  0  0  0  0  0  0  0
  142.1104  156.9814  133.3986 H   0  0  0  0  0  0  0  0  0  0  0  0
  141.1252  155.7829  132.4458 H   0  0  0  0  0  0  0  0  0  0  0  0
  137.7128  158.1777  132.9514 H   0  0  0  0  0  0  0  0  0  0  0  0
  138.3368  159.8501  133.2077 H   0  0  0  0  0  0  0  0  0  0  0  0
  141.5437  158.4564  131.6072 H   0  0  0  0  0  0  0  0  0  0  0  0
  140.5472  159.9639  131.6001 H   0  0  0  0  0  0  0  0  0  0  0  0
  141.7689  153.1182  136.5324 H   0  0  0  0  0  0  0  0  0  0  0  0
  1  2  1  0
  2  3  2  0
  3  4  1  0
  4  5  2  0
  5  6  1  0
  6  7  2  0
  7  8  1  0
  8  9  1  0
  8 10  2  0
  7 11  1  0
 11 12  1  0
 12 13  2  0
 12 14  1  0
 14 15  1  0
 15 16  1  0
 16 17  2  0
 16 18  1  0
 18 19  1  0
 19 20  1  0
 20 21  2  0
 20 22  1  0
 18 23  1  0
 23 24  1  0
 24 25  2  0
 24 26  1  0
 11 27  1  0
 27 28  2  0
 28  2  1  0
 27  5  1  0
  1 29  1  0
  1 30  1  0
  1 31  1  0
  3 32  1  0
  4 33  1  0
  6 34  1  0
  9 35  1  0
  9 36  1  0
 14 37  1  0
 14 38  1  0
 15 39  1  0
 15 40  1  0
 19 41  1  0
 19 42  1  0
 23 43  1  0
 23 44  1  0
 28 45  1  0
M  CHG  2  22  -1  26  -1
M  END
>  <UniqueID>  (38) 
38

>  <SMILES>  (38) 
Cc1ccc2cc(C(N)=O)n(C(=O)CCC(=O)N(CC(=O)[O-])CC(=O)[O-])c2c1

>  <Energy>  (38) 
79.9007184389442

>  <Genealogy>  (38) 
Cc1ccc2cc(C(N)=O)n(C(=O)CCC(=O)N(CC(=O)[O-])CC(=O)[O-])c2c1 (protonated)
Cc1ccc2cc(C(N)=O)n(C(=O)CCC(=O)N(CC(=O)[O-])CC(=O)[O-])c2c1 (3D coordinates assigned)
Cc1ccc2cc(C(N)=O)n(C(=O)CCC(=O)N(CC(=O)[O-])CC(=O)[O-])c2c1 (optimized conformer: 79.9007184389442 kcal/mol)

>  <smiles>  (38) 
Cc1ccc2cc(C(N)=O)n(C(=O)CCC(=O)N(CC(=O)O)CC(=O)O)c2c1

>  <score_type>  (38) 
oracle

>  <origin>  (38) 
adg

>  <m_score__min__energy>  (38) 
-7.3300000000000001

>  <m_primary>  (38) 
energy

$$$$
38:0
     RDKit          3D

 39 41  0  0  0  0  0  0  0  0999 V2000
  142.3420  160.3420  133.1970 N   0  0  0  0  0  0  0  0  0  0  0  0
  141.9380  159.5130  134.2810 C   0  0  0  0  0  0  0  0  0  0  0  0
  141.5520  160.0490  135.3550 O   0  0  0  0  0  0  0  0  0  0  0  0
  141.9800  158.0380  134.1740 C   0  0  0  0  0  0  0  0  0  0  0  0
  143.0730  157.2660  134.5660 C   0  0  0  0  0  0  0  0  0  0  0  0
  142.7230  155.9660  134.2800 C   0  0  0  0  0  0  0  0  0  0  0  0
  143.4420  154.7860  134.4440 C   0  0  0  0  0  0  0  0  0  0  0  0
  142.8370  153.5840  134.0410 C   0  0  0  0  0  0  0  0  0  0  0  0
  141.5260  153.5780  133.4970 C   0  0  0  0  0  0  0  0  0  0  0  0
  140.9060  152.2890  133.0220 C   0  0  0  0  0  0  0  0  0  0  0  0
  141.5940  151.8360  131.9110 F   0  0  0  0  0  0  0  0  0  0  0  0
  139.5770  152.4830  132.6820 F   0  0  0  0  0  0  0  0  0  0  0  0
  140.9620  151.3240  134.0130 F   0  0  0  0  0  0  0  0  0  0  0  0
  140.8410  154.8020  133.3220 C   0  0  0  0  0  0  0  0  0  0  0  0
  141.4650  155.9810  133.7410 C   0  0  0  0  0  0  0  0  0  0  0  0
  140.9910  157.2420  133.6800 N   0  0  0  0  0  0  0  0  0  0  0  0
  139.7050  157.6450  133.1820 C   0  0  0  0  0  0  0  0  0  0  0  0
  138.6690  157.1250  133.6770 O   0  0  0  0  0  0  0  0  0  0  0  0
  139.5610  158.6580  132.0530 C   0  0  2  0  0  0  0  0  0  0  0  0
  140.7460  158.6510  131.2920 O   0  0  0  0  0  0  0  0  0  0  0  0
  139.3030  160.0920  132.5820 C   0  0  0  0  0  0  0  0  0  0  0  0
  139.0950  161.0730  131.4180 C   0  0  0  0  0  0  0  0  0  0  0  0
  138.3350  160.4060  130.2590 C   0  0  0  0  0  0  0  0  0  0  0  0
  137.5510  159.3290  130.7280 O   0  0  0  0  0  0  0  0  0  0  0  0
  138.3830  158.2430  131.1120 C   0  0  0  0  0  0  0  0  0  0  0  0
  142.1220  160.0820  132.2090 H   0  0  0  0  0  0  0  0  0  0  0  0
  144.0150  157.6207  135.0096 H   0  0  0  0  0  0  0  0  0  0  0  0
  144.4535  154.7942  134.8761 H   0  0  0  0  0  0  0  0  0  0  0  0
  143.3855  152.6366  134.1482 H   0  0  0  0  0  0  0  0  0  0  0  0
  139.8400  154.8264  132.8666 H   0  0  0  0  0  0  0  0  0  0  0  0
  141.4690  159.0500  131.8430 H   0  0  0  0  0  0  0  0  0  0  0  0
  138.4030  160.0867  133.2145 H   0  0  0  0  0  0  0  0  0  0  0  0
  140.1781  160.4160  133.1645 H   0  0  0  0  0  0  0  0  0  0  0  0
  138.5168  161.9375  131.7761 H   0  0  0  0  0  0  0  0  0  0  0  0
  140.0814  161.3922  131.0504 H   0  0  0  0  0  0  0  0  0  0  0  0
  137.6788  161.1494  129.7828 H   0  0  0  0  0  0  0  0  0  0  0  0
  139.0662  160.0204  129.5333 H   0  0  0  0  0  0  0  0  0  0  0  0
  137.7645  157.4998  131.6364 H   0  0  0  0  0  0  0  0  0  0  0  0
  138.8320  157.8401  130.1922 H   0  0  0  0  0  0  0  0  0  0  0  0
  1  2  1  0
  2  3  2  0
  2  4  1  0
  4  5  2  0
  5  6  1  0
  6  7  2  0
  7  8  1  0
  8  9  2  0
  9 10  1  0
 10 11  1  0
 10 12  1  0
 10 13  1  0
  9 14  1  0
 14 15  2  0
 15 16  1  0
 16 17  1  0
 17 18  2  0
 17 19  1  0
 19 20  1  6
 19 21  1  0
 21 22  1  0
 22 23  1  0
 23 24  1  0
 24 25  1  0
 16  4  1  0
 25 19  1  0
 15  6  1  0
  1 26  1  0
  5 27  1  0
  7 28  1  0
  8 29  1  0
 14 30  1  0
 20 31  1  0
 21 32  1  0
 21 33  1  0
 22 34  1  0
 22 35  1  0
 23 36  1  0
 23 37  1  0
 25 38  1  0
 25 39  1  0
M  CHG  1   1  -1
M  END
>  <UniqueID>  (39) 
39

>  <SMILES>  (39) 
[NH-]C(=O)c1cc2ccc(C(F)(F)F)cc2n1C(=O)[C@]1(O)CCCOC1

>  <Energy>  (39) 
91.28875844356521

>  <Genealogy>  (39) 
[NH-]C(=O)c1cc2ccc(C(F)(F)F)cc2n1C(=O)[C@]1(O)CCCOC1 (protonated)
[NH-]C(=O)c1cc2ccc(C(F)(F)F)cc2n1C(=O)[C@]1(O)CCCOC1 (3D coordinates assigned)
[NH-]C(=O)c1cc2ccc(C(F)(F)F)cc2n1C(=O)[C@]1(O)CCCOC1 (nonaromatic ring conformer: 91.28875844356521 kcal/mol)

>  <smiles>  (39) 
NC(=O)c1cc2ccc(C(F)(F)F)cc2n1C(=O)[C@]1(O)CCCOC1

>  <score_type>  (39) 
oracle

>  <origin>  (39) 
adg

>  <m_score__min__energy>  (39) 
-6.5199999999999996

>  <m_primary>  (39) 
energy

$$$$
39:0
     RDKit          3D

 34 36  0  0  0  0  0  0  0  0999 V2000
  142.8470  160.4430  133.3610 N   0  0  0  0  0  0  0  0  0  0  0  0
  144.2040  160.6850  133.7230 C   0  0  0  0  0  0  0  0  0  0  0  0
  144.5380  161.8300  134.1330 O   0  0  0  0  0  0  0  0  0  0  0  0
  145.2320  159.6350  133.5720 C   0  0  0  0  0  0  0  0  0  0  0  0
  146.5760  159.9100  133.3270 C   0  0  0  0  0  0  0  0  0  0  0  0
  147.1750  158.6820  133.1640 C   0  0  0  0  0  0  0  0  0  0  0  0
  148.5040  158.3650  132.9090 C   0  0  0  0  0  0  0  0  0  0  0  0
  148.8520  157.0070  132.8180 C   0  0  0  0  0  0  0  0  0  0  0  0
  147.8760  155.9880  132.9890 C   0  0  0  0  0  0  0  0  0  0  0  0
  148.2480  154.5910  132.9060 N   0  0  0  0  0  0  0  0  0  0  0  0
  149.4830  154.1150  132.2990 C   0  0  0  0  0  0  0  0  0  0  0  0
  149.5410  152.6200  132.5790 C   0  0  0  0  0  0  0  0  0  0  0  0
  148.1140  152.2130  132.9580 C   0  0  2  0  0  0  0  0  0  0  0  0
  147.4440  151.6400  131.8610 O   0  0  0  0  0  0  0  0  0  0  0  0
  147.4280  153.5010  133.4150 C   0  0  0  0  0  0  0  0  0  0  0  0
  146.5320  156.3600  133.2490 C   0  0  0  0  0  0  0  0  0  0  0  0
  146.2120  157.7210  133.3140 C   0  0  0  0  0  0  0  0  0  0  0  0
  145.0110  158.2890  133.5690 N   0  0  0  0  0  0  0  0  0  0  0  0
  143.7880  157.5950  133.8620 C   0  0  0  0  0  0  0  0  0  0  0  0
  143.6740  156.9290  134.9260 O   0  0  0  0  0  0  0  0  0  0  0  0
  142.7280  157.6320  132.9650 O   0  0  0  0  0  0  0  0  0  0  0  0
  142.6070  159.7630  132.6060 H   0  0  0  0  0  0  0  0  0  0  0  0
  147.0559  160.8984  133.2750 H   0  0  0  0  0  0  0  0  0  0  0  0
  149.2604  159.1535  132.7823 H   0  0  0  0  0  0  0  0  0  0  0  0
  149.8958  156.7280  132.6112 H   0  0  0  0  0  0  0  0  0  0  0  0
  149.4718  154.3004  131.2148 H   0  0  0  0  0  0  0  0  0  0  0  0
  150.3602  154.6357  132.7106 H   0  0  0  0  0  0  0  0  0  0  0  0
  149.8699  152.0744  131.6822 H   0  0  0  0  0  0  0  0  0  0  0  0
  150.2565  152.3848  133.3808 H   0  0  0  0  0  0  0  0  0  0  0  0
  148.1063  151.4501  133.7505 H   0  0  0  0  0  0  0  0  0  0  0  0
  146.8310  152.3270  131.4860 H   0  0  0  0  0  0  0  0  0  0  0  0
  146.4110  153.5610  133.0001 H   0  0  0  0  0  0  0  0  0  0  0  0
  147.3347  153.5427  134.5102 H   0  0  0  0  0  0  0  0  0  0  0  0
  145.7566  155.5939  133.3966 H   0  0  0  0  0  0  0  0  0  0  0  0
  1  2  1  0
  2  3  2  0
  2  4  1  0
  4  5  2  0
  5  6  1  0
  6  7  2  0
  7  8  1  0
  8  9  2  0
  9 10  1  0
 10 11  1  0
 11 12  1  0
 12 13  1  0
 13 14  1  0
 13 15  1  0
  9 16  1  0
 16 17  2  0
 17 18  1  0
 18 19  1  0
 19 20  2  0
 19 21  1  0
 18  4  1  0
 17  6  1  0
 15 10  1  0
  1 22  1  0
  5 23  1  0
  7 24  1  0
  8 25  1  0
 11 26  1  0
 11 27  1  0
 12 28  1  0
 12 29  1  0
 13 30  1  1
 14 31  1  0
 15 32  1  0
 15 33  1  0
 16 34  1  0
M  CHG  2   1  -1  21  -1
M  END
>  <UniqueID>  (40) 
40

>  <SMILES>  (40) 
[NH-]C(=O)c1cc2ccc(N3CC[C@H](O)C3)cc2n1C(=O)[O-]

>  <Energy>  (40) 
78.48712864454535

>  <Genealogy>  (40) 
[NH-]C(=O)c1cc2ccc(N3CCC(O)C3)cc2n1C(=O)[O-] (protonated)
[NH-]C(=O)c1cc2ccc(N3CC[C@H](O)C3)cc2n1C(=O)[O-] (chirality)
[NH-]C(=O)c1cc2ccc(N3CC[C@H](O)C3)cc2n1C(=O)[O-] (3D coordinates assigned)
[NH-]C(=O)c1cc2ccc(N3CC[C@H](O)C3)cc2n1C(=O)[O-] (nonaromatic ring conformer: 78.48712864454535 kcal/mol)

>  <smiles>  (40) 
NC(=O)c1cc2ccc(N3CCC(O)C3)cc2n1C(=O)O

>  <score_type>  (40) 
oracle

>  <origin>  (40) 
adg

>  <m_score__min__energy>  (40) 
-6.71

>  <m_primary>  (40) 
energy

$$$$
40:0
     RDKit          3D

 37 38  0  0  0  0  0  0  0  0999 V2000
  148.0950  155.0210  132.6620 C   0  0  0  0  0  0  0  0  0  0  0  0
  147.7990  156.4800  132.8430 C   0  0  0  0  0  0  0  0  0  0  0  0
  148.8580  157.4190  132.8930 C   0  0  0  0  0  0  0  0  0  0  0  0
  148.5940  158.7860  133.0820 C   0  0  0  0  0  0  0  0  0  0  0  0
  147.2690  159.1780  133.2420 C   0  0  0  0  0  0  0  0  0  0  0  0
  146.7320  160.4350  133.4040 C   0  0  0  0  0  0  0  0  0  0  0  0
  145.3560  160.2380  133.5010 C   0  0  0  0  0  0  0  0  0  0  0  0
  144.3910  161.3300  133.7330 C   0  0  0  0  0  0  0  0  0  0  0  0
  143.0050  161.1750  133.4250 N   0  0  0  0  0  0  0  0  0  0  0  0
  144.7870  162.4040  134.2620 O   0  0  0  0  0  0  0  0  0  0  0  0
  145.0510  158.9150  133.3900 N   0  0  0  0  0  0  0  0  0  0  0  0
  143.7450  158.3230  133.3250 C   0  0  0  0  0  0  0  0  0  0  0  0
  143.4080  157.6680  132.3040 O   0  0  0  0  0  0  0  0  0  0  0  0
  142.8290  158.5000  134.4140 N   0  0  0  0  0  0  0  0  0  0  0  0
  141.3920  158.2080  134.4200 C   0  0  0  0  0  0  0  0  0  0  0  0
  140.6050  159.2180  133.5640 C   0  0  0  0  0  0  0  0  0  0  0  0
  141.0470  159.1880  132.2330 O   0  0  0  0  0  0  0  0  0  0  0  0
  141.1180  156.7450  134.0350 C   0  0  0  0  0  0  0  0  0  0  0  0
  140.9110  156.6110  132.6560 O   0  0  0  0  0  0  0  0  0  0  0  0
  146.2340  158.2780  133.2320 C   0  0  0  0  0  0  0  0  0  0  0  0
  146.4660  156.9120  133.0220 C   0  0  0  0  0  0  0  0  0  0  0  0
  148.1923  154.5416  133.6473 H   0  0  0  0  0  0  0  0  0  0  0  0
  147.2747  154.5470  132.1030 H   0  0  0  0  0  0  0  0  0  0  0  0
  149.0351  154.9042  132.1030 H   0  0  0  0  0  0  0  0  0  0  0  0
  149.8970  157.0749  132.7828 H   0  0  0  0  0  0  0  0  0  0  0  0
  149.4099  159.5235  133.1028 H   0  0  0  0  0  0  0  0  0  0  0  0
  147.2737  161.3914  133.4476 H   0  0  0  0  0  0  0  0  0  0  0  0
  142.3470  161.9750  133.5540 H   0  0  0  0  0  0  0  0  0  0  0  0
  142.6130  160.2460  133.1560 H   0  0  0  0  0  0  0  0  0  0  0  0
  141.0228  158.3308  135.4489 H   0  0  0  0  0  0  0  0  0  0  0  0
  139.5355  158.9625  133.5955 H   0  0  0  0  0  0  0  0  0  0  0  0
  140.7673  160.2279  133.9687 H   0  0  0  0  0  0  0  0  0  0  0  0
  141.8380  158.5870  132.2090 H   0  0  0  0  0  0  0  0  0  0  0  0
  141.9810  156.1296  134.3291 H   0  0  0  0  0  0  0  0  0  0  0  0
  140.2077  156.4138  134.5562 H   0  0  0  0  0  0  0  0  0  0  0  0
  141.6700  157.0760  132.2170 H   0  0  0  0  0  0  0  0  0  0  0  0
  145.6321  156.1951  132.9972 H   0  0  0  0  0  0  0  0  0  0  0  0
  1  2  1  0
  2  3  2  0
  3  4  1  0
  4  5  2  0
  5  6  1  0
  6  7  2  0
  7  8  1  0
  8  9  1  0
  8 10  2  0
  7 11  1  0
 11 12  1  0
 12 13  2  0
 12 14  1  0
 14 15  1  0
 15 16  1  0
 16 17  1  0
 15 18  1  0
 18 19  1  0
 11 20  1  0
 20 21  2  0
 21  2  1  0
 20  5  1  0
  1 22  1  0
  1 23  1  0
  1 24  1  0
  3 25  1  0
  4 26  1  0
  6 27  1  0
  9 28  1  0
  9 29  1  0
 15 30  1  0
 16 31  1  0
 16 32  1  0
 17 33  1  0
 18 34  1  0
 18 35  1  0
 19 36  1  0
 21 37  1  0
M  CHG  1  14  -1
M  END
>  <UniqueID>  (41) 
41

>  <SMILES>  (41) 
Cc1ccc2cc(C(N)=O)n(C(=O)[N-]C(CO)CO)c2c1

>  <Energy>  (41) 
73.25865239044145

>  <Genealogy>  (41) 
Cc1ccc2cc(C(N)=O)n(C(=O)[N-]C(CO)CO)c2c1 (protonated)
Cc1ccc2cc(C(N)=O)n(C(=O)[N-]C(CO)CO)c2c1 (3D coordinates assigned)
Cc1ccc2cc(C(N)=O)n(C(=O)[N-]C(CO)CO)c2c1 (optimized conformer: 73.25865239044145 kcal/mol)

>  <smiles>  (41) 
Cc1ccc2cc(C(N)=O)n(C(=O)NC(CO)CO)c2c1

>  <score_type>  (41) 
oracle

>  <origin>  (41) 
adg

>  <m_score__min__energy>  (41) 
-5.9900000000000002

>  <m_primary>  (41) 
energy

$$$$
41:0
     RDKit          3D

 34 35  0  0  0  0  0  0  0  0999 V2000
  148.5470  157.3790  132.6020 C   0  0  0  0  0  0  0  0  0  0  0  0
  147.5050  158.3840  132.9910 C   0  0  0  0  0  0  0  0  0  0  0  0
  147.8700  159.7360  133.2110 C   0  0  0  0  0  0  0  0  0  0  0  0
  146.8950  160.6980  133.5290 C   0  0  0  0  0  0  0  0  0  0  0  0
  145.5700  160.2790  133.6130 C   0  0  0  0  0  0  0  0  0  0  0  0
  144.4260  161.0030  133.8690 C   0  0  0  0  0  0  0  0  0  0  0  0
  143.3830  160.0800  133.8010 C   0  0  0  0  0  0  0  0  0  0  0  0
  141.9670  160.4190  134.0530 C   0  0  0  0  0  0  0  0  0  0  0  0
  141.2440  159.7380  135.0770 N   0  0  0  0  0  0  0  0  0  0  0  0
  141.3800  161.2930  133.3610 O   0  0  0  0  0  0  0  0  0  0  0  0
  143.8650  158.8370  133.5190 N   0  0  0  0  0  0  0  0  0  0  0  0
  143.1120  157.6310  133.3130 C   0  0  0  0  0  0  0  0  0  0  0  0
  143.2550  156.9820  132.2420 O   0  0  0  0  0  0  0  0  0  0  0  0
  142.1700  157.1470  134.3310 C   0  0  0  0  0  0  0  0  0  0  0  0
  142.4760  157.2100  135.5530 O   0  0  0  0  0  0  0  0  0  0  0  0
  140.9340  156.6300  133.9340 O   0  0  0  0  0  0  0  0  0  0  0  0
  139.9200  157.4340  133.3390 C   0  0  0  0  0  0  0  0  0  0  0  0
  138.9050  157.8570  134.3960 C   0  0  0  0  0  0  0  0  0  0  0  0
  139.4170  157.6420  135.6830 O   0  0  0  0  0  0  0  0  0  0  0  0
  145.2030  158.9770  133.4030 C   0  0  0  0  0  0  0  0  0  0  0  0
  146.1480  158.0010  133.0680 C   0  0  0  0  0  0  0  0  0  0  0  0
  148.9956  156.9463  133.5084 H   0  0  0  0  0  0  0  0  0  0  0  0
  148.0815  156.5801  132.0061 H   0  0  0  0  0  0  0  0  0  0  0  0
  149.3285  157.8730  132.0061 H   0  0  0  0  0  0  0  0  0  0  0  0
  148.9256  160.0353  133.1322 H   0  0  0  0  0  0  0  0  0  0  0  0
  147.1704  161.7482  133.7058 H   0  0  0  0  0  0  0  0  0  0  0  0
  144.3514  162.0797  134.0817 H   0  0  0  0  0  0  0  0  0  0  0  0
  141.0180  158.7230  134.9890 H   0  0  0  0  0  0  0  0  0  0  0  0
  140.3787  158.3298  132.8949 H   0  0  0  0  0  0  0  0  0  0  0  0
  139.4083  156.8520  132.5584 H   0  0  0  0  0  0  0  0  0  0  0  0
  138.6767  158.9258  134.2712 H   0  0  0  0  0  0  0  0  0  0  0  0
  137.9916  157.2568  134.2720 H   0  0  0  0  0  0  0  0  0  0  0  0
  140.3890  157.8350  135.6420 H   0  0  0  0  0  0  0  0  0  0  0  0
  145.8420  156.9632  132.8699 H   0  0  0  0  0  0  0  0  0  0  0  0
  1  2  1  0
  2  3  2  0
  3  4  1  0
  4  5  2  0
  5  6  1  0
  6  7  2  0
  7  8  1  0
  8  9  1  0
  8 10  2  0
  7 11  1  0
 11 12  1  0
 12 13  2  0
 12 14  1  0
 14 15  2  0
 14 16  1  0
 16 17  1  0
 17 18  1  0
 18 19  1  0
 11 20  1  0
 20 21  2  0
 21  2  1  0
 20  5  1  0
  1 22  1  0
  1 23  1  0
  1 24  1  0
  3 25  1  0
  4 26  1  0
  6 27  1  0
  9 28  1  0
 17 29  1  0
 17 30  1  0
 18 31  1  0
 18 32  1  0
 19 33  1  0
 21 34  1  0
M  CHG  1   9  -1
M  END
>  <UniqueID>  (42) 
42

>  <SMILES>  (42) 
Cc1ccc2cc(C([NH-])=O)n(C(=O)C(=O)OCCO)c2c1

>  <Energy>  (42) 
67.70470374362795

>  <Genealogy>  (42) 
Cc1ccc2cc(C([NH-])=O)n(C(=O)C(=O)OCCO)c2c1 (protonated)
Cc1ccc2cc(C([NH-])=O)n(C(=O)C(=O)OCCO)c2c1 (3D coordinates assigned)
Cc1ccc2cc(C([NH-])=O)n(C(=O)C(=O)OCCO)c2c1 (optimized conformer: 67.70470374362795 kcal/mol)

>  <smiles>  (42) 
Cc1ccc2cc(C(N)=O)n(C(=O)C(=O)OCCO)c2c1

>  <score_type>  (42) 
oracle

>  <origin>  (42) 
adg

>  <m_score__min__energy>  (42) 
-5.3600000000000003

>  <m_primary>  (42) 
energy

$$$$
42:0
     RDKit          3D

 62 64  0  0  0  0  0  0  0  0999 V2000
  144.0930  157.1600  134.3790 N   0  0  0  0  0  0  0  0  0  0  0  0
  145.2860  157.3400  133.6130 C   0  0  0  0  0  0  0  0  0  0  0  0
  145.5620  158.4880  133.1750 O   0  0  0  0  0  0  0  0  0  0  0  0
  146.2000  156.2080  133.3410 C   0  0  0  0  0  0  0  0  0  0  0  0
  147.5580  156.3320  133.0400 C   0  0  0  0  0  0  0  0  0  0  0  0
  148.0140  155.0430  132.8720 C   0  0  0  0  0  0  0  0  0  0  0  0
  149.2890  154.5710  132.5780 C   0  0  0  0  0  0  0  0  0  0  0  0
  149.4750  153.1780  132.5010 C   0  0  0  0  0  0  0  0  0  0  0  0
  148.3860  152.2870  132.6970 C   0  0  0  0  0  0  0  0  0  0  0  0
  148.6000  150.7970  132.6760 C   0  0  0  0  0  0  0  0  0  0  0  0
  149.1580  150.3730  133.8680 F   0  0  0  0  0  0  0  0  0  0  0  0
  149.4560  150.4770  131.6410 F   0  0  0  0  0  0  0  0  0  0  0  0
  147.4040  150.1250  132.4950 F   0  0  0  0  0  0  0  0  0  0  0  0
  147.1070  152.8090  133.0020 C   0  0  0  0  0  0  0  0  0  0  0  0
  146.9580  154.1970  133.0740 C   0  0  0  0  0  0  0  0  0  0  0  0
  145.8420  154.8960  133.3560 N   0  0  0  0  0  0  0  0  0  0  0  0
  144.5610  154.3440  133.6870 C   0  0  0  0  0  0  0  0  0  0  0  0
  144.0740  154.5450  134.8340 O   0  0  0  0  0  0  0  0  0  0  0  0
  143.8360  153.4630  132.7120 C   0  0  0  0  0  0  0  0  0  0  0  0
  143.9010  152.1110  133.1270 O   0  0  0  0  0  0  0  0  0  0  0  0
  142.6090  151.6150  133.4120 C   0  0  0  0  0  0  0  0  0  0  0  0
  141.5710  152.4910  132.7250 C   0  0  0  0  0  0  0  0  0  0  0  0
  141.1390  153.5350  133.6440 N   0  0  0  0  0  0  0  0  0  0  0  0
  140.4470  154.7150  133.2260 C   0  0  0  0  0  0  0  0  0  0  0  0
  139.2640  154.6460  132.7920 O   0  0  0  0  0  0  0  0  0  0  0  0
  141.1210  156.0450  133.3700 C   0  0  0  0  0  0  0  0  0  0  0  0
  141.0400  156.5440  134.8240 C   0  0  1  0  0  0  0  0  0  0  0  0
  142.2100  156.1700  135.5320 O   0  0  0  0  0  0  0  0  0  0  0  0
  142.0620  156.3120  136.9450 C   0  0  2  0  0  0  0  0  0  0  0  0
  141.7020  154.9630  137.5870 C   0  0  0  0  0  0  0  0  0  0  0  0
  141.5690  153.9600  136.6190 O   0  0  0  0  0  0  0  0  0  0  0  0
  141.0970  157.4620  137.3820 C   0  0  1  0  0  0  0  0  0  0  0  0
  141.4140  157.9220  138.6740 O   0  0  0  0  0  0  0  0  0  0  0  0
  141.1480  158.6050  136.3530 C   0  0  2  0  0  0  0  0  0  0  0  0
  140.2360  159.6090  136.7210 O   0  0  0  0  0  0  0  0  0  0  0  0
  140.8290  158.0820  134.9240 C   0  0  1  0  0  0  0  0  0  0  0  0
  141.5980  158.7830  133.9770 O   0  0  0  0  0  0  0  0  0  0  0  0
  143.7870  156.2190  134.7030 H   0  0  0  0  0  0  0  0  0  0  0  0
  143.4850  157.9800  134.5950 H   0  0  0  0  0  0  0  0  0  0  0  0
  148.1400  157.2616  132.9551 H   0  0  0  0  0  0  0  0  0  0  0  0
  150.1260  155.2649  132.4109 H   0  0  0  0  0  0  0  0  0  0  0  0
  150.4755  152.7744  132.2865 H   0  0  0  0  0  0  0  0  0  0  0  0
  146.2518  152.1399  133.1779 H   0  0  0  0  0  0  0  0  0  0  0  0
  142.7826  153.7747  132.6555 H   0  0  0  0  0  0  0  0  0  0  0  0
  144.3110  153.5567  131.7243 H   0  0  0  0  0  0  0  0  0  0  0  0
  142.5217  150.5828  133.0418 H   0  0  0  0  0  0  0  0  0  0  0  0
  142.4408  151.6280  134.4990 H   0  0  0  0  0  0  0  0  0  0  0  0
  142.0129  152.9503  131.8285 H   0  0  0  0  0  0  0  0  0  0  0  0
  140.7066  151.8773  132.4314 H   0  0  0  0  0  0  0  0  0  0  0  0
  142.1777  155.9470  133.0806 H   0  0  0  0  0  0  0  0  0  0  0  0
  140.6116  156.7708  132.7191 H   0  0  0  0  0  0  0  0  0  0  0  0
  140.1578  156.0677  135.2767 H   0  0  0  0  0  0  0  0  0  0  0  0
  143.0430  156.6292  137.3286 H   0  0  0  0  0  0  0  0  0  0  0  0
  142.4968  154.6779  138.2920 H   0  0  0  0  0  0  0  0  0  0  0  0
  140.7402  155.0720  138.1095 H   0  0  0  0  0  0  0  0  0  0  0  0
  142.1150  154.2490  135.8430 H   0  0  0  0  0  0  0  0  0  0  0  0
  140.0698  157.0701  137.4176 H   0  0  0  0  0  0  0  0  0  0  0  0
  141.2400  158.8990  138.7000 H   0  0  0  0  0  0  0  0  0  0  0  0
  142.1653  159.0233  136.3399 H   0  0  0  0  0  0  0  0  0  0  0  0
  139.8960  159.3660  137.6240 H   0  0  0  0  0  0  0  0  0  0  0  0
  139.7666  158.2664  134.7064 H   0  0  0  0  0  0  0  0  0  0  0  0
  141.3260  158.4640  133.0780 H   0  0  0  0  0  0  0  0  0  0  0  0
  1  2  1  0
  2  3  2  0
  2  4  1  0
  4  5  2  0
  5  6  1  0
  6  7  2  0
  7  8  1  0
  8  9  2  0
  9 10  1  0
 10 11  1  0
 10 12  1  0
 10 13  1  0
  9 14  1  0
 14 15  2  0
 15 16  1  0
 16 17  1  0
 17 18  2  0
 17 19  1  0
 19 20  1  0
 20 21  1  0
 21 22  1  0
 22 23  1  0
 23 24  1  0
 24 25  2  0
 24 26  1  0
 26 27  1  0
 27 28  1  0
 28 29  1  0
 29 30  1  0
 30 31  1  0
 29 32  1  0
 32 33  1  0
 32 34  1  0
 34 35  1  0
 34 36  1  0
 36 37  1  0
 16  4  1  0
 36 27  1  0
 15  6  1  0
  1 38  1  0
  1 39  1  0
  5 40  1  0
  7 41  1  0
  8 42  1  0
 14 43  1  0
 19 44  1  0
 19 45  1  0
 21 46  1  0
 21 47  1  0
 22 48  1  0
 22 49  1  0
 26 50  1  0
 26 51  1  0
 27 52  1  1
 29 53  1  1
 30 54  1  0
 30 55  1  0
 31 56  1  0
 32 57  1  1
 33 58  1  0
 34 59  1  6
 35 60  1  0
 36 61  1  6
 37 62  1  0
M  CHG  1  23  -1
M  END
>  <UniqueID>  (43) 
43

>  <SMILES>  (43) 
NC(=O)c1cc2ccc(C(F)(F)F)cc2n1C(=O)COCC[N-]C(=O)C[C@H]1O[C@H](CO)[C@@H](O)[C@H](O)[C@H]1O

>  <Energy>  (43) 
105.94954171293533

>  <Genealogy>  (43) 
NC(=O)c1cc2ccc(C(F)(F)F)cc2n1C(=O)COCC[N-]C(=O)C[C@H]1O[C@H](CO)[C@@H](O)[C@H](O)[C@H]1O (protonated)
NC(=O)c1cc2ccc(C(F)(F)F)cc2n1C(=O)COCC[N-]C(=O)C[C@H]1O[C@H](CO)[C@@H](O)[C@H](O)[C@H]1O (3D coordinates assigned)
NC(=O)c1cc2ccc(C(F)(F)F)cc2n1C(=O)COCC[N-]C(=O)C[C@H]1O[C@H](CO)[C@@H](O)[C@H](O)[C@H]1O (nonaromatic ring conformer: 105.94954171293533 kcal/mol)

>  <smiles>  (43) 
NC(=O)c1cc2ccc(C(F)(F)F)cc2n1C(=O)COCCNC(=O)C[C@H]1O[C@H](CO)[C@@H](O)[C@H](O)[C@H]1O

>  <score_type>  (43) 
oracle

>  <origin>  (43) 
adg

>  <m_score__min__energy>  (43) 
-7.2699999999999996

>  <m_primary>  (43) 
energy

$$$$
43:0
     RDKit          3D

 57 59  0  0  0  0  0  0  0  0999 V2000
  138.7340  158.7790  131.2590 C   0  0  0  0  0  0  0  0  0  0  0  0
  138.7400  158.3640  132.7270 C   0  0  0  0  0  0  0  0  0  0  0  0
  139.7060  159.1170  133.4610 O   0  0  0  0  0  0  0  0  0  0  0  0
  140.2090  158.7940  134.7330 C   0  0  0  0  0  0  0  0  0  0  0  0
  139.4150  158.1930  135.7310 C   0  0  0  0  0  0  0  0  0  0  0  0
  139.9640  157.8920  136.9810 C   0  0  0  0  0  0  0  0  0  0  0  0
  141.3020  158.1880  137.2490 C   0  0  0  0  0  0  0  0  0  0  0  0
  142.0950  158.7900  136.2720 C   0  0  0  0  0  0  0  0  0  0  0  0
  141.5510  159.1040  135.0120 C   0  0  0  0  0  0  0  0  0  0  0  0
  142.3640  159.6580  133.9670 N   0  0  0  0  0  0  0  0  0  0  0  0
  143.7910  159.5900  133.8870 C   0  0  0  0  0  0  0  0  0  0  0  0
  144.4890  160.6400  133.9080 O   0  0  0  0  0  0  0  0  0  0  0  0
  144.4550  158.2490  133.7820 C   0  0  0  0  0  0  0  0  0  0  0  0
  143.4910  157.1580  134.0000 N   0  0  0  0  0  0  0  0  0  0  0  0
  142.8620  156.6910  132.7510 C   0  0  0  0  0  0  0  0  0  0  0  0
  141.3930  156.4840  132.9910 C   0  0  0  0  0  0  0  0  0  0  0  0
  140.8590  155.5380  133.7780 C   0  0  0  0  0  0  0  0  0  0  0  0
  141.6040  154.5530  134.5900 C   0  0  0  0  0  0  0  0  0  0  0  0
  141.5800  154.6780  135.8430 O   0  0  0  0  0  0  0  0  0  0  0  0
  142.4440  153.5480  134.0000 N   0  0  0  0  0  0  0  0  0  0  0  0
  143.7980  153.4300  134.0930 C   0  0  0  0  0  0  0  0  0  0  0  0
  144.6940  154.3340  134.8380 C   0  0  0  0  0  0  0  0  0  0  0  0
  144.4700  154.6280  136.2130 N   0  0  0  0  0  0  0  0  0  0  0  0
  145.6360  154.9080  134.2270 O   0  0  0  0  0  0  0  0  0  0  0  0
  144.2270  152.2480  133.4940 C   0  0  0  0  0  0  0  0  0  0  0  0
  143.0870  151.6540  133.0020 C   0  0  0  0  0  0  0  0  0  0  0  0
  142.9230  150.4500  132.3190 C   0  0  0  0  0  0  0  0  0  0  0  0
  141.6190  150.0720  131.9550 C   0  0  0  0  0  0  0  0  0  0  0  0
  140.5110  150.8910  132.2870 C   0  0  0  0  0  0  0  0  0  0  0  0
  139.1270  150.4900  131.8690 C   0  0  0  0  0  0  0  0  0  0  0  0
  140.7170  152.1110  132.9660 C   0  0  0  0  0  0  0  0  0  0  0  0
  142.0250  152.4600  133.3170 C   0  0  0  0  0  0  0  0  0  0  0  0
  138.7181  159.8766  131.1883 H   0  0  0  0  0  0  0  0  0  0  0  0
  139.6378  158.3928  130.7651 H   0  0  0  0  0  0  0  0  0  0  0  0
  137.8417  158.3668  130.7651 H   0  0  0  0  0  0  0  0  0  0  0  0
  137.7427  158.5406  133.1561 H   0  0  0  0  0  0  0  0  0  0  0  0
  139.0002  157.2972  132.7916 H   0  0  0  0  0  0  0  0  0  0  0  0
  138.3598  157.9601  135.5254 H   0  0  0  0  0  0  0  0  0  0  0  0
  139.3405  157.4209  137.7552 H   0  0  0  0  0  0  0  0  0  0  0  0
  141.7315  157.9460  138.2323 H   0  0  0  0  0  0  0  0  0  0  0  0
  143.1490  159.0202  136.4868 H   0  0  0  0  0  0  0  0  0  0  0  0
  144.8946  158.1440  132.7791 H   0  0  0  0  0  0  0  0  0  0  0  0
  145.2339  158.1849  134.5561 H   0  0  0  0  0  0  0  0  0  0  0  0
  144.0150  156.3590  134.4290 H   0  0  0  0  0  0  0  0  0  0  0  0
  143.0043  157.4444  131.9622 H   0  0  0  0  0  0  0  0  0  0  0  0
  143.3238  155.7445  132.4335 H   0  0  0  0  0  0  0  0  0  0  0  0
  140.6976  157.1650  132.4785 H   0  0  0  0  0  0  0  0  0  0  0  0
  139.7609  155.4908  133.8234 H   0  0  0  0  0  0  0  0  0  0  0  0
  145.1430  155.2330  136.7350 H   0  0  0  0  0  0  0  0  0  0  0  0
  143.5650  154.3880  136.6730 H   0  0  0  0  0  0  0  0  0  0  0  0
  145.2578  151.8696  133.4281 H   0  0  0  0  0  0  0  0  0  0  0  0
  143.7871  149.8155  132.0726 H   0  0  0  0  0  0  0  0  0  0  0  0
  141.4570  149.1319  131.4074 H   0  0  0  0  0  0  0  0  0  0  0  0
  138.5112  150.3116  132.7629 H   0  0  0  0  0  0  0  0  0  0  0  0
  138.6776  151.2949  131.2688 H   0  0  0  0  0  0  0  0  0  0  0  0
  139.1775  149.5695  131.2688 H   0  0  0  0  0  0  0  0  0  0  0  0
  139.8713  152.7698  133.2126 H   0  0  0  0  0  0  0  0  0  0  0  0
  1  2  1  0
  2  3  1  0
  3  4  1  0
  4  5  2  0
  5  6  1  0
  6  7  2  0
  7  8  1  0
  8  9  2  0
  9 10  1  0
 10 11  1  0
 11 12  2  0
 11 13  1  0
 13 14  1  0
 14 15  1  0
 15 16  1  0
 16 17  2  3
 17 18  1  0
 18 19  2  0
 18 20  1  0
 20 21  1  0
 21 22  1  0
 22 23  1  0
 22 24  2  0
 21 25  2  0
 25 26  1  0
 26 27  2  0
 27 28  1  0
 28 29  2  0
 29 30  1  0
 29 31  1  0
 31 32  2  0
  9  4  1  0
 32 20  1  0
 32 26  1  0
  1 33  1  0
  1 34  1  0
  1 35  1  0
  2 36  1  0
  2 37  1  0
  5 38  1  0
  6 39  1  0
  7 40  1  0
  8 41  1  0
 13 42  1  0
 13 43  1  0
 14 44  1  0
 15 45  1  0
 15 46  1  0
 16 47  1  0
 17 48  1  0
 23 49  1  0
 23 50  1  0
 25 51  1  0
 27 52  1  0
 28 53  1  0
 30 54  1  0
 30 55  1  0
 30 56  1  0
 31 57  1  0
M  CHG  1  10  -1
M  END
>  <UniqueID>  (44) 
44

>  <SMILES>  (44) 
CCOc1ccccc1[N-]C(=O)CNCC=CC(=O)n1c(C(N)=O)cc2ccc(C)cc21

>  <Energy>  (44) 
100.13133795773753

>  <Genealogy>  (44) 
CCOc1ccccc1[N-]C(=O)CNCC=CC(=O)n1c(C(N)=O)cc2ccc(C)cc21 (protonated)
CCOc1ccccc1[N-]C(=O)CNCC=CC(=O)n1c(C(N)=O)cc2ccc(C)cc21 (3D coordinates assigned)
CCOc1ccccc1[N-]C(=O)CNCC=CC(=O)n1c(C(N)=O)cc2ccc(C)cc21 (optimized conformer: 100.13133795773753 kcal/mol)

>  <smiles>  (44) 
CCOc1ccccc1NC(=O)CNCC=CC(=O)n1c(C(N)=O)cc2ccc(C)cc21

>  <score_type>  (44) 
oracle

>  <origin>  (44) 
adg

>  <m_score__min__energy>  (44) 
-8.8100000000000005

>  <m_primary>  (44) 
energy

$$$$
44:0
     RDKit          3D

 53 55  0  0  0  0  0  0  0  0999 V2000
  148.5710  158.9200  133.0910 C   0  0  0  0  0  0  0  0  0  0  0  0
  147.7260  157.6800  133.0920 C   0  0  0  0  0  0  0  0  0  0  0  0
  148.2850  156.4400  132.6940 C   0  0  0  0  0  0  0  0  0  0  0  0
  147.4970  155.2770  132.6650 C   0  0  0  0  0  0  0  0  0  0  0  0
  146.1550  155.3900  133.0170 C   0  0  0  0  0  0  0  0  0  0  0  0
  145.1750  154.4270  133.0930 C   0  0  0  0  0  0  0  0  0  0  0  0
  144.0250  155.1000  133.5010 C   0  0  0  0  0  0  0  0  0  0  0  0
  142.7070  154.4490  133.6570 C   0  0  0  0  0  0  0  0  0  0  0  0
  141.5290  155.0270  133.1000 N   0  0  0  0  0  0  0  0  0  0  0  0
  142.6230  153.3480  134.2640 O   0  0  0  0  0  0  0  0  0  0  0  0
  144.2850  156.4270  133.6710 N   0  0  0  0  0  0  0  0  0  0  0  0
  143.3850  157.4420  134.1420 C   0  0  0  0  0  0  0  0  0  0  0  0
  143.6370  158.6550  133.9090 O   0  0  0  0  0  0  0  0  0  0  0  0
  142.1990  157.0750  134.9870 C   0  0  0  0  0  0  0  0  0  0  0  0
  141.8100  158.2140  135.9410 C   0  0  0  0  0  0  0  0  0  0  0  0
  140.6620  159.0690  135.3940 C   0  0  0  0  0  0  0  0  0  0  0  0
  140.3960  158.7250  133.9750 N   0  0  0  0  0  0  0  0  0  0  0  0
  140.9210  159.7470  133.0400 C   0  0  0  0  0  0  0  0  0  0  0  0
  139.8240  160.7580  132.6210 C   0  0  0  0  0  0  0  0  0  0  0  0
  138.9240  160.2650  131.4720 C   0  0  0  0  0  0  0  0  0  0  0  0
  139.0180  158.7480  131.1900 C   0  0  0  0  0  0  0  0  0  0  0  0
  138.6510  157.8150  132.3670 C   0  0  1  0  0  0  0  0  0  0  0  0
  139.3780  156.5510  132.2280 N   0  0  0  0  0  0  0  0  0  0  0  0
  138.9620  158.4310  133.7540 C   0  0  0  0  0  0  0  0  0  0  0  0
  145.5930  156.5890  133.3720 C   0  0  0  0  0  0  0  0  0  0  0  0
  146.3570  157.7580  133.4280 C   0  0  0  0  0  0  0  0  0  0  0  0
  148.7779  159.2236  134.1279 H   0  0  0  0  0  0  0  0  0  0  0  0
  149.5195  158.7169  132.5722 H   0  0  0  0  0  0  0  0  0  0  0  0
  148.0351  159.7285  132.5722 H   0  0  0  0  0  0  0  0  0  0  0  0
  149.3451  156.3875  132.4052 H   0  0  0  0  0  0  0  0  0  0  0  0
  147.9272  154.3075  132.3732 H   0  0  0  0  0  0  0  0  0  0  0  0
  145.2777  153.3532  132.8773 H   0  0  0  0  0  0  0  0  0  0  0  0
  141.5630  155.9470  132.6070 H   0  0  0  0  0  0  0  0  0  0  0  0
  141.3461  156.8541  134.3284 H   0  0  0  0  0  0  0  0  0  0  0  0
  142.4664  156.1960  135.5918 H   0  0  0  0  0  0  0  0  0  0  0  0
  141.4992  157.7788  136.9022 H   0  0  0  0  0  0  0  0  0  0  0  0
  142.6874  158.8669  136.0585 H   0  0  0  0  0  0  0  0  0  0  0  0
  139.7555  158.8831  135.9888 H   0  0  0  0  0  0  0  0  0  0  0  0
  140.9434  160.1304  135.4587 H   0  0  0  0  0  0  0  0  0  0  0  0
  141.7398  160.2928  133.5316 H   0  0  0  0  0  0  0  0  0  0  0  0
  141.2773  159.2330  132.1351 H   0  0  0  0  0  0  0  0  0  0  0  0
  139.1885  160.9611  133.4955 H   0  0  0  0  0  0  0  0  0  0  0  0
  140.3422  161.6571  132.2563 H   0  0  0  0  0  0  0  0  0  0  0  0
  137.8807  160.5032  131.7264 H   0  0  0  0  0  0  0  0  0  0  0  0
  139.2718  160.7747  130.5614 H   0  0  0  0  0  0  0  0  0  0  0  0
  138.3400  158.5185  130.3548 H   0  0  0  0  0  0  0  0  0  0  0  0
  140.0790  158.5517  130.9761 H   0  0  0  0  0  0  0  0  0  0  0  0
  137.5638  157.6543  132.3214 H   0  0  0  0  0  0  0  0  0  0  0  0
  140.1460  156.5300  132.9380 H   0  0  0  0  0  0  0  0  0  0  0  0
  138.7340  155.7670  132.4820 H   0  0  0  0  0  0  0  0  0  0  0  0
  138.3977  159.3704  133.8496 H   0  0  0  0  0  0  0  0  0  0  0  0
  138.6710  157.6833  134.5065 H   0  0  0  0  0  0  0  0  0  0  0  0
  145.9031  158.7146  133.7263 H   0  0  0  0  0  0  0  0  0  0  0  0
  1  2  1  0
  2  3  2  0
  3  4  1  0
  4  5  2  0
  5  6  1  0
  6  7  2  0
  7  8  1  0
  8  9  1  0
  8 10  2  0
  7 11  1  0
 11 12  1  0
 12 13  2  0
 12 14  1  0
 14 15  1  0
 15 16  1  0
 16 17  1  0
 17 18  1  0
 18 19  1  0
 19 20  1  0
 20 21  1  0
 21 22  1  0
 22 23  1  0
 22 24  1  0
 11 25  1  0
 25 26  2  0
 26  2  1  0
 25  5  1  0
 24 17  1  0
  1 27  1  0
  1 28  1  0
  1 29  1  0
  3 30  1  0
  4 31  1  0
  6 32  1  0
  9 33  1  0
 14 34  1  0
 14 35  1  0
 15 36  1  0
 15 37  1  0
 16 38  1  0
 16 39  1  0
 18 40  1  0
 18 41  1  0
 19 42  1  0
 19 43  1  0
 20 44  1  0
 20 45  1  0
 21 46  1  0
 21 47  1  0
 22 48  1  1
 23 49  1  0
 23 50  1  0
 24 51  1  0
 24 52  1  0
 26 53  1  0
M  CHG  1   9  -1
M  END
>  <UniqueID>  (45) 
45

>  <SMILES>  (45) 
Cc1ccc2cc(C([NH-])=O)n(C(=O)CCCN3CCCC[C@@H](N)C3)c2c1

>  <Energy>  (45) 
99.83289273918167

>  <Genealogy>  (45) 
Cc1ccc2cc(C([NH-])=O)n(C(=O)CCCN3CCCCC(N)C3)c2c1 (protonated)
Cc1ccc2cc(C([NH-])=O)n(C(=O)CCCN3CCCC[C@@H](N)C3)c2c1 (chirality)
Cc1ccc2cc(C([NH-])=O)n(C(=O)CCCN3CCCC[C@@H](N)C3)c2c1 (3D coordinates assigned)
Cc1ccc2cc(C([NH-])=O)n(C(=O)CCCN3CCCC[C@@H](N)C3)c2c1 (nonaromatic ring conformer: 99.83289273918167 kcal/mol)

>  <smiles>  (45) 
Cc1ccc2cc(C(N)=O)n(C(=O)CCCN3CCCCC(N)C3)c2c1

>  <score_type>  (45) 
oracle

>  <origin>  (45) 
adg

>  <m_score__min__energy>  (45) 
-5.3899999999999997

>  <m_primary>  (45) 
energy

$$$$
45:0
     RDKit          3D

 46 47  0  0  0  0  0  0  0  0999 V2000
  149.2380  151.8190  134.5660 C   0  0  0  0  0  0  0  0  0  0  0  0
  148.5180  152.3020  133.3680 N   0  0  2  0  0  0  0  0  0  0  0  0
  149.2040  151.9320  132.1030 C   0  0  0  0  0  0  0  0  0  0  0  0
  148.5420  150.7360  131.3920 C   0  0  0  0  0  0  0  0  0  0  0  0
  147.3720  150.3650  132.0740 O   0  0  0  0  0  0  0  0  0  0  0  0
  148.3930  153.7490  133.4450 C   0  0  0  0  0  0  0  0  0  0  0  0
  148.6970  154.4470  132.4830 O   0  0  0  0  0  0  0  0  0  0  0  0
  147.9270  154.4230  134.7100 C   0  0  0  0  0  0  0  0  0  0  0  0
  146.4620  154.3850  134.8020 N   0  0  0  0  0  0  0  0  0  0  0  0
  145.8460  153.7420  135.9370 C   0  0  0  0  0  0  0  0  0  0  0  0
  146.5350  153.0320  136.7250 O   0  0  0  0  0  0  0  0  0  0  0  0
  144.4850  153.9060  136.1860 O   0  0  0  0  0  0  0  0  0  0  0  0
  145.6610  155.0530  133.7970 C   0  0  0  0  0  0  0  0  0  0  0  0
  146.0760  156.1160  133.2550 O   0  0  0  0  0  0  0  0  0  0  0  0
  144.3590  154.5530  133.4450 N   0  0  0  0  0  0  0  0  0  0  0  0
  144.0430  153.3520  132.8720 C   0  0  0  0  0  0  0  0  0  0  0  0
  145.0040  152.3180  132.4320 C   0  0  0  0  0  0  0  0  0  0  0  0
  144.6010  150.9640  132.2430 N   0  0  0  0  0  0  0  0  0  0  0  0
  146.2040  152.6400  132.2060 O   0  0  0  0  0  0  0  0  0  0  0  0
  142.6590  153.1980  132.8030 C   0  0  0  0  0  0  0  0  0  0  0  0
  142.1350  154.3470  133.3580 C   0  0  0  0  0  0  0  0  0  0  0  0
  140.8120  154.7270  133.5510 C   0  0  0  0  0  0  0  0  0  0  0  0
  140.5660  155.9810  134.1360 C   0  0  0  0  0  0  0  0  0  0  0  0
  141.6410  156.8260  134.5240 C   0  0  0  0  0  0  0  0  0  0  0  0
  141.3700  158.2110  135.0460 C   0  0  0  0  0  0  0  0  0  0  0  0
  140.0050  158.3760  135.1960 F   0  0  0  0  0  0  0  0  0  0  0  0
  141.9850  158.4050  136.2730 F   0  0  0  0  0  0  0  0  0  0  0  0
  141.8460  159.1690  134.1630 F   0  0  0  0  0  0  0  0  0  0  0  0
  142.9710  156.4060  134.3010 C   0  0  0  0  0  0  0  0  0  0  0  0
  143.1820  155.1460  133.7310 C   0  0  0  0  0  0  0  0  0  0  0  0
  148.7188  152.1673  135.4711 H   0  0  0  0  0  0  0  0  0  0  0  0
  149.2650  150.7194  134.5590 H   0  0  0  0  0  0  0  0  0  0  0  0
  150.2657  152.2111  134.5590 H   0  0  0  0  0  0  0  0  0  0  0  0
  147.5630  151.8700  133.3700 H   0  0  0  0  0  0  0  0  0  0  0  0
  149.1836  152.7986  131.4258 H   0  0  0  0  0  0  0  0  0  0  0  0
  150.2326  151.6374  132.3582 H   0  0  0  0  0  0  0  0  0  0  0  0
  148.2886  151.0195  130.3598 H   0  0  0  0  0  0  0  0  0  0  0  0
  149.2413  149.8869  131.3823 H   0  0  0  0  0  0  0  0  0  0  0  0
  146.6120  150.6420  131.4970 H   0  0  0  0  0  0  0  0  0  0  0  0
  148.3580  153.9023  135.5778 H   0  0  0  0  0  0  0  0  0  0  0  0
  148.2560  155.4726  134.6964 H   0  0  0  0  0  0  0  0  0  0  0  0
  145.2500  150.2640  131.8290 H   0  0  0  0  0  0  0  0  0  0  0  0
  142.1030  152.3420  132.3930 H   0  0  0  0  0  0  0  0  0  0  0  0
  139.9834  154.0669  133.2551 H   0  0  0  0  0  0  0  0  0  0  0  0
  139.5293  156.3124  134.2955 H   0  0  0  0  0  0  0  0  0  0  0  0
  143.8192  157.0532  134.5687 H   0  0  0  0  0  0  0  0  0  0  0  0
  1  2  1  0
  2  3  1  0
  3  4  1  0
  4  5  1  0
  2  6  1  0
  6  7  2  0
  6  8  1  0
  8  9  1  0
  9 10  1  0
 10 11  2  0
 10 12  1  0
  9 13  1  0
 13 14  2  0
 13 15  1  0
 15 16  1  0
 16 17  1  0
 17 18  1  0
 17 19  2  0
 16 20  2  0
 20 21  1  0
 21 22  2  0
 22 23  1  0
 23 24  2  0
 24 25  1  0
 25 26  1  0
 25 27  1  0
 25 28  1  0
 24 29  1  0
 29 30  2  0
 30 15  1  0
 30 21  1  0
  1 31  1  0
  1 32  1  0
  1 33  1  0
  2 34  1  6
  3 35  1  0
  3 36  1  0
  4 37  1  0
  4 38  1  0
  5 39  1  0
  8 40  1  0
  8 41  1  0
 18 42  1  0
 20 43  1  0
 22 44  1  0
 23 45  1  0
 29 46  1  0
M  CHG  3   2   1  12  -1  18  -1
M  END
>  <UniqueID>  (46) 
46

>  <SMILES>  (46) 
C[N@H+](CCO)C(=O)CN(C(=O)[O-])C(=O)n1c(C([NH-])=O)cc2ccc(C(F)(F)F)cc21

>  <Energy>  (46) 
86.87160336989595

>  <Genealogy>  (46) 
C[NH+](CCO)C(=O)CN(C(=O)[O-])C(=O)n1c(C([NH-])=O)cc2ccc(C(F)(F)F)cc21 (protonated)
C[N@H+](CCO)C(=O)CN(C(=O)[O-])C(=O)n1c(C([NH-])=O)cc2ccc(C(F)(F)F)cc21 (chirality)
C[N@H+](CCO)C(=O)CN(C(=O)[O-])C(=O)n1c(C([NH-])=O)cc2ccc(C(F)(F)F)cc21 (3D coordinates assigned)
C[N@H+](CCO)C(=O)CN(C(=O)[O-])C(=O)n1c(C([NH-])=O)cc2ccc(C(F)(F)F)cc21 (optimized conformer: 86.87160336989595 kcal/mol)

>  <smiles>  (46) 
CN(CCO)C(=O)CN(C(=O)O)C(=O)n1c(C(N)=O)cc2ccc(C(F)(F)F)cc21

>  <score_type>  (46) 
oracle

>  <origin>  (46) 
adg

>  <m_score__min__energy>  (46) 
-4.8499999999999996

>  <m_primary>  (46) 
energy

$$$$
46:0
     RDKit          3D

 36 37  0  0  0  0  0  0  0  0999 V2000
  141.6920  158.6570  134.7000 C   0  0  0  0  0  0  0  0  0  0  0  0
  143.0520  159.0920  134.2400 C   0  0  0  0  0  0  0  0  0  0  0  0
  143.3490  160.4710  134.1080 C   0  0  0  0  0  0  0  0  0  0  0  0
  144.6300  160.8920  133.7080 C   0  0  0  0  0  0  0  0  0  0  0  0
  145.5900  159.9150  133.4630 C   0  0  0  0  0  0  0  0  0  0  0  0
  146.9000  160.0360  133.0550 C   0  0  0  0  0  0  0  0  0  0  0  0
  147.3840  158.7310  132.9730 C   0  0  0  0  0  0  0  0  0  0  0  0
  148.7830  158.3940  132.6360 C   0  0  0  0  0  0  0  0  0  0  0  0
  149.2200  157.0380  132.5990 N   0  0  0  0  0  0  0  0  0  0  0  0
  149.6120  159.3150  132.4110 O   0  0  0  0  0  0  0  0  0  0  0  0
  146.4100  157.8410  133.3090 N   0  0  0  0  0  0  0  0  0  0  0  0
  146.4690  156.4100  133.2660 C   0  0  0  0  0  0  0  0  0  0  0  0
  146.9020  155.8340  132.2320 O   0  0  0  0  0  0  0  0  0  0  0  0
  146.1100  155.5980  134.4780 C   0  0  0  0  0  0  0  0  0  0  0  0
  147.2350  154.6290  134.8720 C   0  0  0  0  0  0  0  0  0  0  0  0
  147.9810  155.0090  136.1620 C   0  0  0  0  0  0  0  0  0  0  0  0
  147.9040  153.7030  137.4350 P   0  0  0  0  0  0  0  0  0  0  0  0
  149.2000  152.9260  137.4660 O   0  0  0  0  0  0  0  0  0  0  0  0
  147.6590  154.4230  138.9440 O   0  0  0  0  0  0  0  0  0  0  0  0
  146.6220  152.6500  137.1080 O   0  0  0  0  0  0  0  0  0  0  0  0
  145.3210  158.5780  133.6100 C   0  0  0  0  0  0  0  0  0  0  0  0
  144.0560  158.1300  134.0000 C   0  0  0  0  0  0  0  0  0  0  0  0
  141.6625  158.6476  135.7996 H   0  0  0  0  0  0  0  0  0  0  0  0
  140.9345  159.3577  134.3189 H   0  0  0  0  0  0  0  0  0  0  0  0
  141.4818  157.6468  134.3189 H   0  0  0  0  0  0  0  0  0  0  0  0
  142.5709  161.2190  134.3202 H   0  0  0  0  0  0  0  0  0  0  0  0
  144.8656  161.9602  133.5924 H   0  0  0  0  0  0  0  0  0  0  0  0
  147.4481  160.9651  132.8395 H   0  0  0  0  0  0  0  0  0  0  0  0
  148.9410  156.4050  131.8170 H   0  0  0  0  0  0  0  0  0  0  0  0
  145.9176  156.2804  135.3190 H   0  0  0  0  0  0  0  0  0  0  0  0
  145.2164  155.0033  134.2375 H   0  0  0  0  0  0  0  0  0  0  0  0
  146.7954  153.6303  135.0108 H   0  0  0  0  0  0  0  0  0  0  0  0
  147.9763  154.6634  134.0601 H   0  0  0  0  0  0  0  0  0  0  0  0
  149.0363  155.1973  135.9152 H   0  0  0  0  0  0  0  0  0  0  0  0
  147.4925  155.9036  136.5756 H   0  0  0  0  0  0  0  0  0  0  0  0
  143.8485  157.0561  134.1168 H   0  0  0  0  0  0  0  0  0  0  0  0
  1  2  1  0
  2  3  2  0
  3  4  1  0
  4  5  2  0
  5  6  1  0
  6  7  2  0
  7  8  1  0
  8  9  1  0
  8 10  2  0
  7 11  1  0
 11 12  1  0
 12 13  2  0
 12 14  1  0
 14 15  1  0
 15 16  1  0
 16 17  1  0
 17 18  2  0
 17 19  1  0
 17 20  1  0
 11 21  1  0
 21 22  2  0
 22  2  1  0
 21  5  1  0
  1 23  1  0
  1 24  1  0
  1 25  1  0
  3 26  1  0
  4 27  1  0
  6 28  1  0
  9 29  1  0
 14 30  1  0
 14 31  1  0
 15 32  1  0
 15 33  1  0
 16 34  1  0
 16 35  1  0
 22 36  1  0
M  CHG  3   9  -1  19  -1  20  -1
M  END
>  <UniqueID>  (47) 
47

>  <SMILES>  (47) 
Cc1ccc2cc(C([NH-])=O)n(C(=O)CCCP(=O)([O-])[O-])c2c1

>  <Energy>  (47) 
68.07987698802415

>  <Genealogy>  (47) 
Cc1ccc2cc(C([NH-])=O)n(C(=O)CCCP(=O)([O-])[O-])c2c1 (protonated)
Cc1ccc2cc(C([NH-])=O)n(C(=O)CCCP(=O)([O-])[O-])c2c1 (3D coordinates assigned)
Cc1ccc2cc(C([NH-])=O)n(C(=O)CCCP(=O)([O-])[O-])c2c1 (optimized conformer: 68.07987698802415 kcal/mol)

>  <smiles>  (47) 
Cc1ccc2cc(C(N)=O)n(C(=O)CCCP(=O)(O)O)c2c1

>  <score_type>  (47) 
oracle

>  <origin>  (47) 
adg

>  <m_score__min__energy>  (47) 
-6.7999999999999998

>  <m_primary>  (47) 
energy

$$$$
47:0
     RDKit          3D

 62 63  0  0  0  0  0  0  0  0999 V2000
  139.0540  160.5210  131.3500 C   0  0  0  0  0  0  0  0  0  0  0  0
  139.4000  159.8200  132.5200 O   0  0  0  0  0  0  0  0  0  0  0  0
  139.0640  158.4570  132.3710 C   0  0  0  0  0  0  0  0  0  0  0  0
  138.7080  157.8760  133.7330 C   0  0  0  0  0  0  0  0  0  0  0  0
  139.8590  157.8450  134.5540 O   0  0  0  0  0  0  0  0  0  0  0  0
  139.4770  158.0750  135.8930 C   0  0  0  0  0  0  0  0  0  0  0  0
  140.5310  158.8760  136.5960 C   0  0  0  0  0  0  0  0  0  0  0  0
  140.6250  160.1120  136.3670 O   0  0  0  0  0  0  0  0  0  0  0  0
  141.4950  158.2590  137.4550 N   0  0  0  0  0  0  0  0  0  0  0  0
  141.2410  157.1620  138.3870 C   0  0  0  0  0  0  0  0  0  0  0  0
  140.9940  155.8580  137.6180 C   0  0  0  0  0  0  0  0  0  0  0  0
  142.2360  155.3340  136.8760 C   0  0  0  0  0  0  0  0  0  0  0  0
  142.4140  155.9890  135.5600 N   0  0  0  0  0  0  0  0  0  0  0  0
  141.5360  155.3480  134.5670 C   0  0  0  0  0  0  0  0  0  0  0  0
  143.8280  155.9660  135.1040 C   0  0  0  0  0  0  0  0  0  0  0  0
  143.9000  156.0310  133.5750 C   0  0  0  0  0  0  0  0  0  0  0  0
  143.6020  157.4080  133.0540 C   0  0  0  0  0  0  0  0  0  0  0  0
  142.5520  157.6130  132.3910 O   0  0  0  0  0  0  0  0  0  0  0  0
  144.5020  158.4940  133.3180 N   0  0  0  0  0  0  0  0  0  0  0  0
  144.1880  159.7930  133.5780 C   0  0  0  0  0  0  0  0  0  0  0  0
  142.8190  160.3210  133.7700 C   0  0  0  0  0  0  0  0  0  0  0  0
  141.7370  159.4500  134.1050 N   0  0  0  0  0  0  0  0  0  0  0  0
  142.5920  161.5530  133.6290 O   0  0  0  0  0  0  0  0  0  0  0  0
  145.3480  160.5580  133.6810 C   0  0  0  0  0  0  0  0  0  0  0  0
  146.3870  159.6840  133.4510 C   0  0  0  0  0  0  0  0  0  0  0  0
  147.7600  159.9120  133.4020 C   0  0  0  0  0  0  0  0  0  0  0  0
  148.6000  158.8210  133.1160 C   0  0  0  0  0  0  0  0  0  0  0  0
  148.0520  157.5360  132.8780 C   0  0  0  0  0  0  0  0  0  0  0  0
  148.9550  156.3700  132.6110 C   0  0  0  0  0  0  0  0  0  0  0  0
  146.6580  157.3400  132.9610 C   0  0  0  0  0  0  0  0  0  0  0  0
  145.8480  158.4430  133.2460 C   0  0  0  0  0  0  0  0  0  0  0  0
  138.5822  161.4769  131.6213 H   0  0  0  0  0  0  0  0  0  0  0  0
  139.9601  160.7145  130.7570 H   0  0  0  0  0  0  0  0  0  0  0  0
  138.3493  159.9195  130.7570 H   0  0  0  0  0  0  0  0  0  0  0  0
  138.2019  158.3627  131.6943 H   0  0  0  0  0  0  0  0  0  0  0  0
  139.9198  157.9100  131.9487 H   0  0  0  0  0  0  0  0  0  0  0  0
  137.9374  158.5016  134.2072 H   0  0  0  0  0  0  0  0  0  0  0  0
  138.3253  156.8529  133.6037 H   0  0  0  0  0  0  0  0  0  0  0  0
  138.5265  158.6283  135.9108 H   0  0  0  0  0  0  0  0  0  0  0  0
  139.3558  157.1090  136.4051 H   0  0  0  0  0  0  0  0  0  0  0  0
  142.1131  157.0356  139.0454 H   0  0  0  0  0  0  0  0  0  0  0  0
  140.3491  157.3995  138.9854 H   0  0  0  0  0  0  0  0  0  0  0  0
  140.6667  155.0893  138.3335 H   0  0  0  0  0  0  0  0  0  0  0  0
  140.2307  156.0734  136.8558 H   0  0  0  0  0  0  0  0  0  0  0  0
  143.1261  155.5281  137.4925 H   0  0  0  0  0  0  0  0  0  0  0  0
  142.0987  154.2564  136.7031 H   0  0  0  0  0  0  0  0  0  0  0  0
  140.7524  154.7760  135.0854 H   0  0  0  0  0  0  0  0  0  0  0  0
  141.0702  156.1200  133.9368 H   0  0  0  0  0  0  0  0  0  0  0  0
  142.1294  154.6692  133.9368 H   0  0  0  0  0  0  0  0  0  0  0  0
  144.3593  156.8306  135.5285 H   0  0  0  0  0  0  0  0  0  0  0  0
  144.2958  155.0298  135.4426 H   0  0  0  0  0  0  0  0  0  0  0  0
  144.9118  155.7418  133.2548 H   0  0  0  0  0  0  0  0  0  0  0  0
  143.1421  155.3441  133.1704 H   0  0  0  0  0  0  0  0  0  0  0  0
  141.8910  158.4340  134.2910 H   0  0  0  0  0  0  0  0  0  0  0  0
  140.7720  159.8350  134.2230 H   0  0  0  0  0  0  0  0  0  0  0  0
  145.4189  161.6337  133.8999 H   0  0  0  0  0  0  0  0  0  0  0  0
  148.1748  160.9149  133.5815 H   0  0  0  0  0  0  0  0  0  0  0  0
  149.6897  158.9661  133.0768 H   0  0  0  0  0  0  0  0  0  0  0  0
  149.2890  155.9387  133.5662 H   0  0  0  0  0  0  0  0  0  0  0  0
  148.4093  155.6078  132.0354 H   0  0  0  0  0  0  0  0  0  0  0  0
  149.8295  156.7077  132.0354 H   0  0  0  0  0  0  0  0  0  0  0  0
  146.2188  156.3436  132.8053 H   0  0  0  0  0  0  0  0  0  0  0  0
  1  2  1  0
  2  3  1  0
  3  4  1  0
  4  5  1  0
  5  6  1  0
  6  7  1  0
  7  8  2  0
  7  9  1  0
  9 10  1  0
 10 11  1  0
 11 12  1  0
 12 13  1  0
 13 14  1  0
 13 15  1  0
 15 16  1  0
 16 17  1  0
 17 18  2  0
 17 19  1  0
 19 20  1  0
 20 21  1  0
 21 22  1  0
 21 23  2  0
 20 24  2  0
 24 25  1  0
 25 26  2  0
 26 27  1  0
 27 28  2  0
 28 29  1  0
 28 30  1  0
 30 31  2  0
 31 19  1  0
 31 25  1  0
  1 32  1  0
  1 33  1  0
  1 34  1  0
  3 35  1  0
  3 36  1  0
  4 37  1  0
  4 38  1  0
  6 39  1  0
  6 40  1  0
 10 41  1  0
 10 42  1  0
 11 43  1  0
 11 44  1  0
 12 45  1  0
 12 46  1  0
 14 47  1  0
 14 48  1  0
 14 49  1  0
 15 50  1  0
 15 51  1  0
 16 52  1  0
 16 53  1  0
 22 54  1  0
 22 55  1  0
 24 56  1  0
 26 57  1  0
 27 58  1  0
 29 59  1  0
 29 60  1  0
 29 61  1  0
 30 62  1  0
M  CHG  1   9  -1
M  END
>  <UniqueID>  (48) 
48

>  <SMILES>  (48) 
COCCOCC(=O)[N-]CCCN(C)CCC(=O)n1c(C(N)=O)cc2ccc(C)cc21

>  <Energy>  (48) 
88.12936868215276

>  <Genealogy>  (48) 
COCCOCC(=O)[N-]CCCN(C)CCC(=O)n1c(C(N)=O)cc2ccc(C)cc21 (protonated)
COCCOCC(=O)[N-]CCCN(C)CCC(=O)n1c(C(N)=O)cc2ccc(C)cc21 (3D coordinates assigned)
COCCOCC(=O)[N-]CCCN(C)CCC(=O)n1c(C(N)=O)cc2ccc(C)cc21 (optimized conformer: 88.12936868215276 kcal/mol)

>  <smiles>  (48) 
COCCOCC(=O)NCCCN(C)CCC(=O)n1c(C(N)=O)cc2ccc(C)cc21

>  <score_type>  (48) 
oracle

>  <origin>  (48) 
adg

>  <m_score__min__energy>  (48) 
-7.7000000000000002

>  <m_primary>  (48) 
energy

$$$$
48:0
     RDKit          3D

 52 53  0  0  0  0  0  0  0  0999 V2000
  144.4270  161.1890  133.9130 C   0  0  0  0  0  0  0  0  0  0  0  0
  145.2450  160.3400  133.6570 C   0  0  0  0  0  0  0  0  0  0  0  0
  146.2230  159.3270  133.3520 C   0  0  0  0  0  0  0  0  0  0  0  0
  147.4780  159.6990  132.8130 C   0  0  0  0  0  0  0  0  0  0  0  0
  148.4450  158.7200  132.5220 C   0  0  0  0  0  0  0  0  0  0  0  0
  148.1220  157.3870  132.7740 C   0  0  0  0  0  0  0  0  0  0  0  0
  148.8720  156.2470  132.6090 C   0  0  0  0  0  0  0  0  0  0  0  0
  148.0500  155.2010  133.0250 C   0  0  0  0  0  0  0  0  0  0  0  0
  148.4440  153.7790  132.9480 C   0  0  0  0  0  0  0  0  0  0  0  0
  147.7130  152.7650  133.6380 N   0  0  0  0  0  0  0  0  0  0  0  0
  149.4130  153.4450  132.2140 O   0  0  0  0  0  0  0  0  0  0  0  0
  146.8460  155.6770  133.4470 N   0  0  0  0  0  0  0  0  0  0  0  0
  145.7610  154.9510  134.0490 C   0  0  0  0  0  0  0  0  0  0  0  0
  145.6160  154.9760  135.3010 O   0  0  0  0  0  0  0  0  0  0  0  0
  144.8470  154.1390  133.2320 C   0  0  0  0  0  0  0  0  0  0  0  0
  144.1770  154.6810  132.3150 O   0  0  0  0  0  0  0  0  0  0  0  0
  144.7650  152.7590  133.4560 O   0  0  0  0  0  0  0  0  0  0  0  0
  143.9940  151.8670  132.6530 C   0  0  0  0  0  0  0  0  0  0  0  0
  142.5270  151.8590  133.0980 C   0  0  0  0  0  0  0  0  0  0  0  0
  141.9240  150.5170  132.9310 N   0  0  0  0  0  0  0  0  0  0  0  0
  142.8570  149.6380  132.2020 C   0  0  0  0  0  0  0  0  0  0  0  0
  140.6150  150.5870  132.2290 C   0  0  0  0  0  0  0  0  0  0  0  0
  140.0300  149.1830  132.0220 C   0  0  0  0  0  0  0  0  0  0  0  0
  140.0580  148.7870  130.5980 N   0  0  0  0  0  0  0  0  0  0  0  0
  139.0710  149.5540  129.8160 C   0  0  0  0  0  0  0  0  0  0  0  0
  139.7780  147.3510  130.4590 C   0  0  0  0  0  0  0  0  0  0  0  0
  146.9020  157.0160  133.2820 C   0  0  0  0  0  0  0  0  0  0  0  0
  145.9270  157.9700  133.5960 C   0  0  0  0  0  0  0  0  0  0  0  0
  143.6812  161.9631  134.1464 H   0  0  0  0  0  0  0  0  0  0  0  0
  147.6981  160.7595  132.6207 H   0  0  0  0  0  0  0  0  0  0  0  0
  149.4259  158.9973  132.1084 H   0  0  0  0  0  0  0  0  0  0  0  0
  149.9019  156.1754  132.2294 H   0  0  0  0  0  0  0  0  0  0  0  0
  148.0080  151.7660  133.5570 H   0  0  0  0  0  0  0  0  0  0  0  0
  146.8110  152.9770  134.1190 H   0  0  0  0  0  0  0  0  0  0  0  0
  144.0499  152.1885  131.6025 H   0  0  0  0  0  0  0  0  0  0  0  0
  144.4010  150.8514  132.7663 H   0  0  0  0  0  0  0  0  0  0  0  0
  142.4720  152.1476  134.1580 H   0  0  0  0  0  0  0  0  0  0  0  0
  141.9694  152.5716  132.4725 H   0  0  0  0  0  0  0  0  0  0  0  0
  143.4621  149.0679  132.9222 H   0  0  0  0  0  0  0  0  0  0  0  0
  142.2865  148.9415  131.5700 H   0  0  0  0  0  0  0  0  0  0  0  0
  143.5183  150.2489  131.5700 H   0  0  0  0  0  0  0  0  0  0  0  0
  139.9145  151.1840  132.8314 H   0  0  0  0  0  0  0  0  0  0  0  0
  140.7681  151.0531  131.2445 H   0  0  0  0  0  0  0  0  0  0  0  0
  140.6201  148.4607  132.6052 H   0  0  0  0  0  0  0  0  0  0  0  0
  138.9819  149.1940  132.3558 H   0  0  0  0  0  0  0  0  0  0  0  0
  138.3912  150.0823  130.5007 H   0  0  0  0  0  0  0  0  0  0  0  0
  139.5938  150.2852  129.1819 H   0  0  0  0  0  0  0  0  0  0  0  0
  138.4916  148.8668  129.1819 H   0  0  0  0  0  0  0  0  0  0  0  0
  139.6894  146.8964  131.4568 H   0  0  0  0  0  0  0  0  0  0  0  0
  138.8360  147.2127  129.9081 H   0  0  0  0  0  0  0  0  0  0  0  0
  140.5991  146.8690  129.9081 H   0  0  0  0  0  0  0  0  0  0  0  0
  144.9578  157.6698  134.0208 H   0  0  0  0  0  0  0  0  0  0  0  0
  1  2  3  0
  2  3  1  0
  3  4  2  0
  4  5  1  0
  5  6  2  0
  6  7  1  0
  7  8  2  0
  8  9  1  0
  9 10  1  0
  9 11  2  0
  8 12  1  0
 12 13  1  0
 13 14  2  0
 13 15  1  0
 15 16  2  0
 15 17  1  0
 17 18  1  0
 18 19  1  0
 19 20  1  0
 20 21  1  0
 20 22  1  0
 22 23  1  0
 23 24  1  0
 24 25  1  0
 24 26  1  0
 12 27  1  0
 27 28  2  0
 28  3  1  0
 27  6  1  0
  1 29  1  0
  4 30  1  0
  5 31  1  0
  7 32  1  0
 10 33  1  0
 10 34  1  0
 18 35  1  0
 18 36  1  0
 19 37  1  0
 19 38  1  0
 21 39  1  0
 21 40  1  0
 21 41  1  0
 22 42  1  0
 22 43  1  0
 23 44  1  0
 23 45  1  0
 25 46  1  0
 25 47  1  0
 25 48  1  0
 26 49  1  0
 26 50  1  0
 26 51  1  0
 28 52  1  0
M  END
>  <UniqueID>  (49) 
49

>  <SMILES>  (49) 
C#Cc1ccc2cc(C(N)=O)n(C(=O)C(=O)OCCN(C)CCN(C)C)c2c1

>  <Energy>  (49) 
86.98217457124451

>  <Genealogy>  (49) 
C#Cc1ccc2cc(C(N)=O)n(C(=O)C(=O)OCCN(C)CCN(C)C)c2c1 (3D coordinates assigned)
C#Cc1ccc2cc(C(N)=O)n(C(=O)C(=O)OCCN(C)CCN(C)C)c2c1 (optimized conformer: 86.98217457124451 kcal/mol)

>  <smiles>  (49) 
C#Cc1ccc2cc(C(N)=O)n(C(=O)C(=O)OCCN(C)CCN(C)C)c2c1

>  <score_type>  (49) 
oracle

>  <origin>  (49) 
adg

>  <m_score__min__energy>  (49) 
-8.4199999999999999

>  <m_primary>  (49) 
energy

$$$$
49:0
     RDKit          3D

 52 53  0  0  0  0  0  0  0  0999 V2000
  141.6860  155.9480  138.9070 C   0  0  0  0  0  0  0  0  0  0  0  0
  141.3680  156.9170  137.8080 C   0  0  0  0  0  0  0  0  0  0  0  0
  141.5380  158.3050  138.0190 C   0  0  0  0  0  0  0  0  0  0  0  0
  141.2760  159.2240  136.9870 C   0  0  0  0  0  0  0  0  0  0  0  0
  140.8600  158.7210  135.7570 C   0  0  0  0  0  0  0  0  0  0  0  0
  140.5680  159.3760  134.5810 C   0  0  0  0  0  0  0  0  0  0  0  0
  140.2380  158.3720  133.6730 C   0  0  0  0  0  0  0  0  0  0  0  0
  139.7900  158.6260  132.2900 C   0  0  0  0  0  0  0  0  0  0  0  0
  138.4860  158.2220  131.8800 N   0  0  0  0  0  0  0  0  0  0  0  0
  140.5630  159.1680  131.4540 O   0  0  0  0  0  0  0  0  0  0  0  0
  140.3230  157.1490  134.2640 N   0  0  0  0  0  0  0  0  0  0  0  0
  140.2040  155.8590  133.6470 C   0  0  0  0  0  0  0  0  0  0  0  0
  139.3300  155.6750  132.7600 O   0  0  0  0  0  0  0  0  0  0  0  0
  141.0720  154.7130  134.0950 C   0  0  0  0  0  0  0  0  0  0  0  0
  141.2030  153.6560  132.9970 C   0  0  0  0  0  0  0  0  0  0  0  0
  142.5710  153.4380  132.7250 O   0  0  0  0  0  0  0  0  0  0  0  0
  143.2550  153.1020  133.9100 C   0  0  0  0  0  0  0  0  0  0  0  0
  144.3230  154.1570  134.1960 C   0  0  0  0  0  0  0  0  0  0  0  0
  144.7200  154.1230  135.6110 N   0  0  0  0  0  0  0  0  0  0  0  0
  143.6960  154.0660  136.6580 C   0  0  0  0  0  0  0  0  0  0  0  0
  146.1100  154.1660  135.9810 C   0  0  0  0  0  0  0  0  0  0  0  0
  146.8150  155.1680  135.6780 O   0  0  0  0  0  0  0  0  0  0  0  0
  146.6800  153.0940  136.6750 O   0  0  0  0  0  0  0  0  0  0  0  0
  147.0410  153.1620  138.0510 C   0  0  0  0  0  0  0  0  0  0  0  0
  148.3150  153.7450  138.1880 O   0  0  0  0  0  0  0  0  0  0  0  0
  148.5410  154.2120  139.8140 P   0  0  0  0  0  0  0  0  0  0  0  0
  149.5600  155.3280  139.8940 O   0  0  0  0  0  0  0  0  0  0  0  0
  147.0820  154.7350  140.4900 O   0  0  0  0  0  0  0  0  0  0  0  0
  149.1120  152.8830  140.6920 O   0  0  0  0  0  0  0  0  0  0  0  0
  140.7000  157.3790  135.5390 C   0  0  0  0  0  0  0  0  0  0  0  0
  140.9560  156.4410  136.5440 C   0  0  0  0  0  0  0  0  0  0  0  0
  141.5267  156.4333  139.8812 H   0  0  0  0  0  0  0  0  0  0  0  0
  141.0289  155.0698  138.8230 H   0  0  0  0  0  0  0  0  0  0  0  0
  142.7357  155.6299  138.8230 H   0  0  0  0  0  0  0  0  0  0  0  0
  141.8784  158.6693  138.9995 H   0  0  0  0  0  0  0  0  0  0  0  0
  141.3959  160.3058  137.1465 H   0  0  0  0  0  0  0  0  0  0  0  0
  140.5905  160.4604  134.3978 H   0  0  0  0  0  0  0  0  0  0  0  0
  138.0530  157.3530  132.2610 H   0  0  0  0  0  0  0  0  0  0  0  0
  142.0722  155.0968  134.3448 H   0  0  0  0  0  0  0  0  0  0  0  0
  140.6051  154.2456  134.9745 H   0  0  0  0  0  0  0  0  0  0  0  0
  140.7403  152.7165  133.3334 H   0  0  0  0  0  0  0  0  0  0  0  0
  140.6954  154.0044  132.0854 H   0  0  0  0  0  0  0  0  0  0  0  0
  142.5424  153.0648  134.7471 H   0  0  0  0  0  0  0  0  0  0  0  0
  143.7326  152.1181  133.7923 H   0  0  0  0  0  0  0  0  0  0  0  0
  145.2044  153.9581  133.5686 H   0  0  0  0  0  0  0  0  0  0  0  0
  143.9092  155.1504  133.9682 H   0  0  0  0  0  0  0  0  0  0  0  0
  144.1795  154.0929  137.6457 H   0  0  0  0  0  0  0  0  0  0  0  0
  143.0200  154.9279  136.5571 H   0  0  0  0  0  0  0  0  0  0  0  0
  143.1199  153.1344  136.5571 H   0  0  0  0  0  0  0  0  0  0  0  0
  146.3018  153.7715  138.5915 H   0  0  0  0  0  0  0  0  0  0  0  0
  147.0636  152.1445  138.4683 H   0  0  0  0  0  0  0  0  0  0  0  0
  140.8398  155.3635  136.3554 H   0  0  0  0  0  0  0  0  0  0  0  0
  1  2  1  0
  2  3  2  0
  3  4  1  0
  4  5  2  0
  5  6  1  0
  6  7  2  0
  7  8  1  0
  8  9  1  0
  8 10  2  0
  7 11  1  0
 11 12  1  0
 12 13  2  0
 12 14  1  0
 14 15  1  0
 15 16  1  0
 16 17  1  0
 17 18  1  0
 18 19  1  0
 19 20  1  0
 19 21  1  0
 21 22  2  0
 21 23  1  0
 23 24  1  0
 24 25  1  0
 25 26  1  0
 26 27  2  0
 26 28  1  0
 26 29  1  0
 11 30  1  0
 30 31  2  0
 31  2  1  0
 30  5  1  0
  1 32  1  0
  1 33  1  0
  1 34  1  0
  3 35  1  0
  4 36  1  0
  6 37  1  0
  9 38  1  0
 14 39  1  0
 14 40  1  0
 15 41  1  0
 15 42  1  0
 17 43  1  0
 17 44  1  0
 18 45  1  0
 18 46  1  0
 20 47  1  0
 20 48  1  0
 20 49  1  0
 24 50  1  0
 24 51  1  0
 31 52  1  0
M  CHG  3   9  -1  28  -1  29  -1
M  END
>  <UniqueID>  (50) 
50

>  <SMILES>  (50) 
Cc1ccc2cc(C([NH-])=O)n(C(=O)CCOCCN(C)C(=O)OCOP(=O)([O-])[O-])c2c1

>  <Energy>  (50) 
77.16610089140872

>  <Genealogy>  (50) 
Cc1ccc2cc(C([NH-])=O)n(C(=O)CCOCCN(C)C(=O)OCOP(=O)([O-])[O-])c2c1 (protonated)
Cc1ccc2cc(C([NH-])=O)n(C(=O)CCOCCN(C)C(=O)OCOP(=O)([O-])[O-])c2c1 (3D coordinates assigned)
Cc1ccc2cc(C([NH-])=O)n(C(=O)CCOCCN(C)C(=O)OCOP(=O)([O-])[O-])c2c1 (optimized conformer: 77.16610089140872 kcal/mol)

>  <smiles>  (50) 
Cc1ccc2cc(C(N)=O)n(C(=O)CCOCCN(C)C(=O)OCOP(=O)(O)O)c2c1

>  <score_type>  (50) 
oracle

>  <origin>  (50) 
adg

>  <m_score__min__energy>  (50) 
-6.6699999999999999

>  <m_primary>  (50) 
energy

$$$$
50:0
     RDKit          3D

 42 43  0  0  0  0  0  0  0  0999 V2000
  148.5520  157.6250  132.6030 C   0  0  0  0  0  0  0  0  0  0  0  0
  147.4740  158.6040  132.9620 C   0  0  0  0  0  0  0  0  0  0  0  0
  147.8140  159.9310  133.3260 C   0  0  0  0  0  0  0  0  0  0  0  0
  146.8170  160.8470  133.7040 C   0  0  0  0  0  0  0  0  0  0  0  0
  145.4960  160.4110  133.7040 C   0  0  0  0  0  0  0  0  0  0  0  0
  144.3420  161.0810  134.0400 C   0  0  0  0  0  0  0  0  0  0  0  0
  143.3170  160.1520  133.8740 C   0  0  0  0  0  0  0  0  0  0  0  0
  141.8900  160.4570  134.1070 C   0  0  0  0  0  0  0  0  0  0  0  0
  141.0600  159.5850  134.8750 N   0  0  0  0  0  0  0  0  0  0  0  0
  141.3890  161.4940  133.5930 O   0  0  0  0  0  0  0  0  0  0  0  0
  143.8200  158.9510  133.4680 N   0  0  0  0  0  0  0  0  0  0  0  0
  143.1160  157.7070  133.3070 C   0  0  0  0  0  0  0  0  0  0  0  0
  142.5250  157.4690  132.2200 O   0  0  0  0  0  0  0  0  0  0  0  0
  143.0850  156.7310  134.3700 N   0  0  0  0  0  0  0  0  0  0  0  0
  144.3390  156.1420  134.8450 C   0  0  0  0  0  0  0  0  0  0  0  0
  141.8500  156.4020  135.0310 C   0  0  0  0  0  0  0  0  0  0  0  0
  140.7560  156.6670  134.4640 O   0  0  0  0  0  0  0  0  0  0  0  0
  141.8460  155.7840  136.3330 N   0  0  0  0  0  0  0  0  0  0  0  0
  142.3530  154.4180  136.4740 C   0  0  0  0  0  0  0  0  0  0  0  0
  141.5820  156.5840  137.5350 C   0  0  0  0  0  0  0  0  0  0  0  0
  141.2280  157.9880  137.1580 C   0  0  0  0  0  0  0  0  0  0  0  0
  142.1030  158.8940  137.1970 O   0  0  0  0  0  0  0  0  0  0  0  0
  139.9450  158.2930  136.7330 O   0  0  0  0  0  0  0  0  0  0  0  0
  145.1530  159.1300  133.3560 C   0  0  0  0  0  0  0  0  0  0  0  0
  146.1250  158.1890  132.9990 C   0  0  0  0  0  0  0  0  0  0  0  0
  148.9993  157.2188  133.5222 H   0  0  0  0  0  0  0  0  0  0  0  0
  148.1198  156.8042  132.0118 H   0  0  0  0  0  0  0  0  0  0  0  0
  149.3275  158.1340  132.0118 H   0  0  0  0  0  0  0  0  0  0  0  0
  148.8676  160.2469  133.3126 H   0  0  0  0  0  0  0  0  0  0  0  0
  147.0736  161.8774  133.9911 H   0  0  0  0  0  0  0  0  0  0  0  0
  144.2487  162.1264  134.3692 H   0  0  0  0  0  0  0  0  0  0  0  0
  141.3790  158.6270  135.1390 H   0  0  0  0  0  0  0  0  0  0  0  0
  140.0860  159.8730  135.1250 H   0  0  0  0  0  0  0  0  0  0  0  0
  144.3485  156.1375  135.9450 H   0  0  0  0  0  0  0  0  0  0  0  0
  144.4233  155.1101  134.4734 H   0  0  0  0  0  0  0  0  0  0  0  0
  145.1870  156.7360  134.4734 H   0  0  0  0  0  0  0  0  0  0  0  0
  142.4452  154.1695  137.5416 H   0  0  0  0  0  0  0  0  0  0  0  0
  141.6554  153.7165  135.9932 H   0  0  0  0  0  0  0  0  0  0  0  0
  143.3394  154.3415  135.9932 H   0  0  0  0  0  0  0  0  0  0  0  0
  140.7459  156.1363  138.0923 H   0  0  0  0  0  0  0  0  0  0  0  0
  142.4870  156.5991  138.1602 H   0  0  0  0  0  0  0  0  0  0  0  0
  145.8457  157.1537  132.7537 H   0  0  0  0  0  0  0  0  0  0  0  0
  1  2  1  0
  2  3  2  0
  3  4  1  0
  4  5  2  0
  5  6  1  0
  6  7  2  0
  7  8  1  0
  8  9  1  0
  8 10  2  0
  7 11  1  0
 11 12  1  0
 12 13  2  0
 12 14  1  0
 14 15  1  0
 14 16  1  0
 16 17  2  0
 16 18  1  0
 18 19  1  0
 18 20  1  0
 20 21  1  0
 21 22  2  0
 21 23  1  0
 11 24  1  0
 24 25  2  0
 25  2  1  0
 24  5  1  0
  1 26  1  0
  1 27  1  0
  1 28  1  0
  3 29  1  0
  4 30  1  0
  6 31  1  0
  9 32  1  0
  9 33  1  0
 15 34  1  0
 15 35  1  0
 15 36  1  0
 19 37  1  0
 19 38  1  0
 19 39  1  0
 20 40  1  0
 20 41  1  0
 25 42  1  0
M  CHG  1  23  -1
M  END
>  <UniqueID>  (51) 
51

>  <SMILES>  (51) 
Cc1ccc2cc(C(N)=O)n(C(=O)N(C)C(=O)N(C)CC(=O)[O-])c2c1

>  <Energy>  (51) 
80.7349650095587

>  <Genealogy>  (51) 
Cc1ccc2cc(C(N)=O)n(C(=O)N(C)C(=O)N(C)CC(=O)[O-])c2c1 (protonated)
Cc1ccc2cc(C(N)=O)n(C(=O)N(C)C(=O)N(C)CC(=O)[O-])c2c1 (3D coordinates assigned)
Cc1ccc2cc(C(N)=O)n(C(=O)N(C)C(=O)N(C)CC(=O)[O-])c2c1 (optimized conformer: 80.7349650095587 kcal/mol)

>  <smiles>  (51) 
Cc1ccc2cc(C(N)=O)n(C(=O)N(C)C(=O)N(C)CC(=O)O)c2c1

>  <score_type>  (51) 
oracle

>  <origin>  (51) 
adg

>  <m_score__min__energy>  (51) 
-6.9100000000000001

>  <m_primary>  (51) 
energy

$$$$
51:0
     RDKit          3D

 50 51  0  0  0  0  0  0  0  0999 V2000
  140.9530  158.2650  133.8980 C   0  0  0  0  0  0  0  0  0  0  0  0
  142.3330  158.8350  133.7680 C   0  0  0  0  0  0  0  0  0  0  0  0
  142.5310  160.2380  133.8410 C   0  0  0  0  0  0  0  0  0  0  0  0
  143.8200  160.7860  133.7190 C   0  0  0  0  0  0  0  0  0  0  0  0
  144.8880  159.9070  133.5540 C   0  0  0  0  0  0  0  0  0  0  0  0
  146.2300  160.1660  133.3880 C   0  0  0  0  0  0  0  0  0  0  0  0
  146.8300  158.9150  133.2520 C   0  0  0  0  0  0  0  0  0  0  0  0
  148.2860  158.7210  133.1090 C   0  0  0  0  0  0  0  0  0  0  0  0
  148.8430  158.2420  131.8890 N   0  0  0  0  0  0  0  0  0  0  0  0
  149.0470  158.9430  134.0890 O   0  0  0  0  0  0  0  0  0  0  0  0
  145.8980  157.9250  133.3280 N   0  0  0  0  0  0  0  0  0  0  0  0
  146.0820  156.5150  133.1160 C   0  0  0  0  0  0  0  0  0  0  0  0
  147.1390  156.0990  132.5680 O   0  0  0  0  0  0  0  0  0  0  0  0
  145.0500  155.5270  133.5880 C   0  0  0  0  0  0  0  0  0  0  0  0
  145.6840  154.2050  134.0460 C   0  0  0  0  0  0  0  0  0  0  0  0
  145.3110  153.8410  135.4530 C   0  0  0  0  0  0  0  0  0  0  0  0
  146.1990  153.4090  136.2380 O   0  0  0  0  0  0  0  0  0  0  0  0
  143.9810  153.9430  135.8720 O   0  0  0  0  0  0  0  0  0  0  0  0
  143.5640  154.8190  136.9120 C   0  0  0  0  0  0  0  0  0  0  0  0
  142.0750  154.5920  137.1950 C   0  0  2  0  0  0  0  0  0  0  0  0
  141.6860  153.1330  136.9310 C   0  0  0  0  0  0  0  0  0  0  0  0
  140.7270  152.7240  137.8780 O   0  0  0  0  0  0  0  0  0  0  0  0
  140.7670  151.0240  137.9920 P   0  0  0  0  0  0  0  0  0  0  0  0
  142.0650  150.5740  138.6250 O   0  0  0  0  0  0  0  0  0  0  0  0
  140.6560  150.3680  136.4380 O   0  0  0  0  0  0  0  0  0  0  0  0
  139.4640  150.4670  138.9180 O   0  0  0  0  0  0  0  0  0  0  0  0
  141.3250  155.4350  136.3390 O   0  0  0  0  0  0  0  0  0  0  0  0
  141.0020  156.9250  137.1090 P   0  0  0  0  0  0  0  0  0  0  0  0
  142.0570  157.9420  136.7290 O   0  0  0  0  0  0  0  0  0  0  0  0
  139.4890  157.4860  136.6090 O   0  0  0  0  0  0  0  0  0  0  0  0
  140.9890  156.7220  138.7890 O   0  0  0  0  0  0  0  0  0  0  0  0
  144.7140  158.5480  133.5150 C   0  0  0  0  0  0  0  0  0  0  0  0
  143.4430  157.9750  133.6200 C   0  0  0  0  0  0  0  0  0  0  0  0
  140.6985  158.1599  134.9630 H   0  0  0  0  0  0  0  0  0  0  0  0
  140.2309  158.9385  133.4132 H   0  0  0  0  0  0  0  0  0  0  0  0
  140.9167  157.2783  133.4132 H   0  0  0  0  0  0  0  0  0  0  0  0
  141.6683  160.9030  133.9944 H   0  0  0  0  0  0  0  0  0  0  0  0
  143.9800  161.8738  133.7527 H   0  0  0  0  0  0  0  0  0  0  0  0
  146.7230  161.1491  133.3672 H   0  0  0  0  0  0  0  0  0  0  0  0
  148.5520  157.3230  131.4880 H   0  0  0  0  0  0  0  0  0  0  0  0
  144.4975  155.9666  134.4315 H   0  0  0  0  0  0  0  0  0  0  0  0
  144.3799  155.3072  132.7438 H   0  0  0  0  0  0  0  0  0  0  0  0
  145.3477  153.4019  133.3738 H   0  0  0  0  0  0  0  0  0  0  0  0
  146.7762  154.3315  134.0139 H   0  0  0  0  0  0  0  0  0  0  0  0
  144.1470  154.6136  137.8219 H   0  0  0  0  0  0  0  0  0  0  0  0
  143.7269  155.8624  136.6040 H   0  0  0  0  0  0  0  0  0  0  0  0
  141.8682  154.8210  138.2509 H   0  0  0  0  0  0  0  0  0  0  0  0
  141.2636  153.0435  135.9193 H   0  0  0  0  0  0  0  0  0  0  0  0
  142.5782  152.4950  137.0137 H   0  0  0  0  0  0  0  0  0  0  0  0
  143.3113  156.8834  133.5881 H   0  0  0  0  0  0  0  0  0  0  0  0
  1  2  1  0
  2  3  2  0
  3  4  1  0
  4  5  2  0
  5  6  1  0
  6  7  2  0
  7  8  1  0
  8  9  1  0
  8 10  2  0
  7 11  1  0
 11 12  1  0
 12 13  2  0
 12 14  1  0
 14 15  1  0
 15 16  1  0
 16 17  2  0
 16 18  1  0
 18 19  1  0
 19 20  1  0
 20 21  1  0
 21 22  1  0
 22 23  1  0
 23 24  2  0
 23 25  1  0
 23 26  1  0
 20 27  1  0
 27 28  1  0
 28 29  2  0
 28 30  1  0
 28 31  1  0
 11 32  1  0
 32 33  2  0
 33  2  1  0
 32  5  1  0
  1 34  1  0
  1 35  1  0
  1 36  1  0
  3 37  1  0
  4 38  1  0
  6 39  1  0
  9 40  1  0
 14 41  1  0
 14 42  1  0
 15 43  1  0
 15 44  1  0
 19 45  1  0
 19 46  1  0
 20 47  1  1
 21 48  1  0
 21 49  1  0
 33 50  1  0
M  CHG  5   9  -1  25  -1  26  -1  30  -1  31  -1
M  END
>  <UniqueID>  (52) 
52

>  <SMILES>  (52) 
Cc1ccc2cc(C([NH-])=O)n(C(=O)CCC(=O)OC[C@H](COP(=O)([O-])[O-])OP(=O)([O-])[O-])c2c1

>  <Energy>  (52) 
71.90575655565088

>  <Genealogy>  (52) 
Cc1ccc2cc(C([NH-])=O)n(C(=O)CCC(=O)OCC(COP(=O)([O-])[O-])OP(=O)([O-])[O-])c2c1 (protonated)
Cc1ccc2cc(C([NH-])=O)n(C(=O)CCC(=O)OC[C@H](COP(=O)([O-])[O-])OP(=O)([O-])[O-])c2c1 (chirality)
Cc1ccc2cc(C([NH-])=O)n(C(=O)CCC(=O)OC[C@H](COP(=O)([O-])[O-])OP(=O)([O-])[O-])c2c1 (3D coordinates assigned)
Cc1ccc2cc(C([NH-])=O)n(C(=O)CCC(=O)OC[C@H](COP(=O)([O-])[O-])OP(=O)([O-])[O-])c2c1 (optimized conformer: 71.90575655565088 kcal/mol)

>  <smiles>  (52) 
Cc1ccc2cc(C(N)=O)n(C(=O)CCC(=O)OCC(COP(=O)(O)O)OP(=O)(O)O)c2c1

>  <score_type>  (52) 
oracle

>  <origin>  (52) 
adg

>  <m_score__min__energy>  (52) 
-7.9900000000000002

>  <m_primary>  (52) 
energy

$$$$
52:0
     RDKit          3D

 50 52  0  0  0  0  0  0  0  0999 V2000
  141.1380  155.4930  137.7450 C   0  0  0  0  0  0  0  0  0  0  0  0
  141.8200  156.6700  137.1820 N   0  0  0  0  0  0  0  0  0  0  0  0
  141.5080  157.9160  137.9290 C   0  0  0  0  0  0  0  0  0  0  0  0
  140.6370  158.9200  137.1460 C   0  0  0  0  0  0  0  0  0  0  0  0
  139.5570  158.1980  136.3430 C   0  0  0  0  0  0  0  0  0  0  0  0
  140.1670  157.1740  135.3520 C   0  0  1  0  0  0  0  0  0  0  0  0
  140.0280  157.6000  133.8700 C   0  0  0  0  0  0  0  0  0  0  0  0
  139.6350  156.4710  132.8990 C   0  0  0  0  0  0  0  0  0  0  0  0
  140.6560  155.4250  132.8880 N   0  0  0  0  0  0  0  0  0  0  0  0
  140.3090  154.0380  132.9810 C   0  0  0  0  0  0  0  0  0  0  0  0
  139.0970  153.6870  132.9680 O   0  0  0  0  0  0  0  0  0  0  0  0
  141.3380  153.0390  133.0560 N   0  0  0  0  0  0  0  0  0  0  0  0
  142.6090  153.1810  133.5260 C   0  0  0  0  0  0  0  0  0  0  0  0
  143.1540  154.3790  134.1970 C   0  0  0  0  0  0  0  0  0  0  0  0
  143.4120  154.3530  135.5980 N   0  0  0  0  0  0  0  0  0  0  0  0
  143.3640  155.4400  133.5510 O   0  0  0  0  0  0  0  0  0  0  0  0
  143.3230  151.9950  133.3630 C   0  0  0  0  0  0  0  0  0  0  0  0
  142.4390  151.1130  132.7840 C   0  0  0  0  0  0  0  0  0  0  0  0
  142.6220  149.7930  132.3850 C   0  0  0  0  0  0  0  0  0  0  0  0
  141.5380  149.1300  131.7860 C   0  0  0  0  0  0  0  0  0  0  0  0
  140.2930  149.7870  131.6080 C   0  0  0  0  0  0  0  0  0  0  0  0
  139.1560  149.0850  130.9090 C   0  0  0  0  0  0  0  0  0  0  0  0
  139.2360  147.7170  131.1010 F   0  0  0  0  0  0  0  0  0  0  0  0
  137.9560  149.5420  131.4220 F   0  0  0  0  0  0  0  0  0  0  0  0
  139.1900  149.3340  129.5490 F   0  0  0  0  0  0  0  0  0  0  0  0
  140.1550  151.1370  132.0060 C   0  0  0  0  0  0  0  0  0  0  0  0
  141.2470  151.7680  132.6120 C   0  0  0  0  0  0  0  0  0  0  0  0
  141.6230  156.7840  135.7210 C   0  0  0  0  0  0  0  0  0  0  0  0
  141.1670  155.5430  138.8435 H   0  0  0  0  0  0  0  0  0  0  0  0
  140.0916  155.4786  137.4061 H   0  0  0  0  0  0  0  0  0  0  0  0
  141.6458  154.5780  137.4061 H   0  0  0  0  0  0  0  0  0  0  0  0
  140.9742  157.6414  138.8508 H   0  0  0  0  0  0  0  0  0  0  0  0
  142.4679  158.4159  138.1260 H   0  0  0  0  0  0  0  0  0  0  0  0
  140.1568  159.6097  137.8558 H   0  0  0  0  0  0  0  0  0  0  0  0
  141.2820  159.4732  136.4475 H   0  0  0  0  0  0  0  0  0  0  0  0
  138.8906  157.6672  137.0388 H   0  0  0  0  0  0  0  0  0  0  0  0
  139.0025  158.9492  135.7615 H   0  0  0  0  0  0  0  0  0  0  0  0
  139.5610  156.2622  135.4587 H   0  0  0  0  0  0  0  0  0  0  0  0
  139.2577  158.3831  133.8115 H   0  0  0  0  0  0  0  0  0  0  0  0
  141.0251  157.9413  133.5549 H   0  0  0  0  0  0  0  0  0  0  0  0
  138.6759  156.0370  133.2180 H   0  0  0  0  0  0  0  0  0  0  0  0
  139.5442  156.8895  131.8858 H   0  0  0  0  0  0  0  0  0  0  0  0
  141.6670  155.6790  132.8020 H   0  0  0  0  0  0  0  0  0  0  0  0
  143.0310  155.0930  136.2290 H   0  0  0  0  0  0  0  0  0  0  0  0
  144.3707  151.8043  133.6386 H   0  0  0  0  0  0  0  0  0  0  0  0
  143.5857  149.2841  132.5339 H   0  0  0  0  0  0  0  0  0  0  0  0
  141.6558  148.0889  131.4509 H   0  0  0  0  0  0  0  0  0  0  0  0
  139.2114  151.6783  131.8430 H   0  0  0  0  0  0  0  0  0  0  0  0
  141.8586  155.8156  135.2556 H   0  0  0  0  0  0  0  0  0  0  0  0
  142.2881  157.5790  135.3526 H   0  0  0  0  0  0  0  0  0  0  0  0
  1  2  1  0
  2  3  1  0
  3  4  1  0
  4  5  1  0
  5  6  1  0
  6  7  1  0
  7  8  1  0
  8  9  1  0
  9 10  1  0
 10 11  2  0
 10 12  1  0
 12 13  1  0
 13 14  1  0
 14 15  1  0
 14 16  2  0
 13 17  2  0
 17 18  1  0
 18 19  2  0
 19 20  1  0
 20 21  2  0
 21 22  1  0
 22 23  1  0
 22 24  1  0
 22 25  1  0
 21 26  1  0
 26 27  2  0
  6 28  1  0
 28  2  1  0
 27 12  1  0
 27 18  1  0
  1 29  1  0
  1 30  1  0
  1 31  1  0
  3 32  1  0
  3 33  1  0
  4 34  1  0
  4 35  1  0
  5 36  1  0
  5 37  1  0
  6 38  1  6
  7 39  1  0
  7 40  1  0
  8 41  1  0
  8 42  1  0
  9 43  1  0
 15 44  1  0
 17 45  1  0
 19 46  1  0
 20 47  1  0
 26 48  1  0
 28 49  1  0
 28 50  1  0
M  CHG  1  15  -1
M  END
>  <UniqueID>  (53) 
53

>  <SMILES>  (53) 
CN1CCC[C@@H](CCNC(=O)n2c(C([NH-])=O)cc3ccc(C(F)(F)F)cc32)C1

>  <Energy>  (53) 
95.76972376766399

>  <Genealogy>  (53) 
CN1CCCC(CCNC(=O)n2c(C([NH-])=O)cc3ccc(C(F)(F)F)cc32)C1 (protonated)
CN1CCC[C@@H](CCNC(=O)n2c(C([NH-])=O)cc3ccc(C(F)(F)F)cc32)C1 (chirality)
CN1CCC[C@@H](CCNC(=O)n2c(C([NH-])=O)cc3ccc(C(F)(F)F)cc32)C1 (3D coordinates assigned)
CN1CCC[C@@H](CCNC(=O)n2c(C([NH-])=O)cc3ccc(C(F)(F)F)cc32)C1 (nonaromatic ring conformer: 95.76972376766399 kcal/mol)

>  <smiles>  (53) 
CN1CCCC(CCNC(=O)n2c(C(N)=O)cc3ccc(C(F)(F)F)cc32)C1

>  <score_type>  (53) 
oracle

>  <origin>  (53) 
adg

>  <m_score__min__energy>  (53) 
-8.3599999999999994

>  <m_primary>  (53) 
energy

$$$$
53:0
     RDKit          3D

 43 44  0  0  0  0  0  0  0  0999 V2000
  139.7270  158.5890  135.0010 N   0  0  0  0  0  0  0  0  0  0  0  0
  140.3280  159.2840  133.9130 C   0  0  0  0  0  0  0  0  0  0  0  0
  139.5890  159.8710  133.0710 O   0  0  0  0  0  0  0  0  0  0  0  0
  141.7960  159.3970  133.7990 C   0  0  0  0  0  0  0  0  0  0  0  0
  142.4580  160.6200  133.7630 C   0  0  0  0  0  0  0  0  0  0  0  0
  143.7940  160.3110  133.7580 C   0  0  0  0  0  0  0  0  0  0  0  0
  144.8960  161.1550  133.6990 C   0  0  0  0  0  0  0  0  0  0  0  0
  146.1720  160.5730  133.6810 C   0  0  0  0  0  0  0  0  0  0  0  0
  146.3270  159.1640  133.7290 C   0  0  0  0  0  0  0  0  0  0  0  0
  147.7060  158.5470  133.6770 C   0  0  0  0  0  0  0  0  0  0  0  0
  148.6650  159.4440  134.1120 F   0  0  0  0  0  0  0  0  0  0  0  0
  147.7710  157.4240  134.4850 F   0  0  0  0  0  0  0  0  0  0  0  0
  147.9880  158.1830  132.3740 F   0  0  0  0  0  0  0  0  0  0  0  0
  145.1780  158.3390  133.7400 C   0  0  0  0  0  0  0  0  0  0  0  0
  143.9130  158.9400  133.7840 C   0  0  0  0  0  0  0  0  0  0  0  0
  142.6860  158.3570  133.8030 N   0  0  0  0  0  0  0  0  0  0  0  0
  142.3640  156.9550  133.6650 C   0  0  0  0  0  0  0  0  0  0  0  0
  142.6720  156.3540  132.5950 O   0  0  0  0  0  0  0  0  0  0  0  0
  141.5710  156.2020  134.7000 C   0  0  0  0  0  0  0  0  0  0  0  0
  142.3670  155.9740  136.0000 C   0  0  0  0  0  0  0  0  0  0  0  0
  141.5130  156.1140  137.1960 N   0  0  0  0  0  0  0  0  0  0  0  0
  141.5140  155.0350  138.2010 C   0  0  0  0  0  0  0  0  0  0  0  0
  140.6290  155.3830  139.3560 C   0  0  0  0  0  0  0  0  0  0  0  0
  139.5060  154.8280  139.4840 O   0  0  0  0  0  0  0  0  0  0  0  0
  141.0190  156.3610  140.2620 O   0  0  0  0  0  0  0  0  0  0  0  0
  140.7530  157.3270  137.4070 C   0  0  0  0  0  0  0  0  0  0  0  0
  139.5060  157.3350  137.1940 O   0  0  0  0  0  0  0  0  0  0  0  0
  141.3990  158.6000  137.8800 C   0  0  0  0  0  0  0  0  0  0  0  0
  140.6330  159.7080  137.4950 O   0  0  0  0  0  0  0  0  0  0  0  0
  139.3940  159.1040  135.8460 H   0  0  0  0  0  0  0  0  0  0  0  0
  142.0056  161.6225  133.7428 H   0  0  0  0  0  0  0  0  0  0  0  0
  144.7715  162.2475  133.6674 H   0  0  0  0  0  0  0  0  0  0  0  0
  147.0626  161.2166  133.6291 H   0  0  0  0  0  0  0  0  0  0  0  0
  145.2760  157.2437  133.7144 H   0  0  0  0  0  0  0  0  0  0  0  0
  140.6642  156.7775  134.9376 H   0  0  0  0  0  0  0  0  0  0  0  0
  141.3245  155.2154  134.2807 H   0  0  0  0  0  0  0  0  0  0  0  0
  142.7935  154.9602  135.9835 H   0  0  0  0  0  0  0  0  0  0  0  0
  143.1596  156.7348  136.0542 H   0  0  0  0  0  0  0  0  0  0  0  0
  141.1501  154.1076  137.7346 H   0  0  0  0  0  0  0  0  0  0  0  0
  142.5407  154.9001  138.5720 H   0  0  0  0  0  0  0  0  0  0  0  0
  141.4808  158.5793  138.9768 H   0  0  0  0  0  0  0  0  0  0  0  0
  142.3985  158.6825  137.4282 H   0  0  0  0  0  0  0  0  0  0  0  0
  139.8190  159.3470  137.0540 H   0  0  0  0  0  0  0  0  0  0  0  0
  1  2  1  0
  2  3  2  0
  2  4  1  0
  4  5  2  0
  5  6  1  0
  6  7  2  0
  7  8  1  0
  8  9  2  0
  9 10  1  0
 10 11  1  0
 10 12  1  0
 10 13  1  0
  9 14  1  0
 14 15  2  0
 15 16  1  0
 16 17  1  0
 17 18  2  0
 17 19  1  0
 19 20  1  0
 20 21  1  0
 21 22  1  0
 22 23  1  0
 23 24  2  0
 23 25  1  0
 21 26  1  0
 26 27  2  0
 26 28  1  0
 28 29  1  0
 16  4  1  0
 15  6  1  0
  1 30  1  0
  5 31  1  0
  7 32  1  0
  8 33  1  0
 14 34  1  0
 19 35  1  0
 19 36  1  0
 20 37  1  0
 20 38  1  0
 22 39  1  0
 22 40  1  0
 28 41  1  0
 28 42  1  0
 29 43  1  0
M  CHG  2   1  -1  25  -1
M  END
>  <UniqueID>  (54) 
54

>  <SMILES>  (54) 
[NH-]C(=O)c1cc2ccc(C(F)(F)F)cc2n1C(=O)CCN(CC(=O)[O-])C(=O)CO

>  <Energy>  (54) 
80.66812216662792

>  <Genealogy>  (54) 
[NH-]C(=O)c1cc2ccc(C(F)(F)F)cc2n1C(=O)CCN(CC(=O)[O-])C(=O)CO (protonated)
[NH-]C(=O)c1cc2ccc(C(F)(F)F)cc2n1C(=O)CCN(CC(=O)[O-])C(=O)CO (3D coordinates assigned)
[NH-]C(=O)c1cc2ccc(C(F)(F)F)cc2n1C(=O)CCN(CC(=O)[O-])C(=O)CO (optimized conformer: 80.66812216662792 kcal/mol)

>  <smiles>  (54) 
NC(=O)c1cc2ccc(C(F)(F)F)cc2n1C(=O)CCN(CC(=O)O)C(=O)CO

>  <score_type>  (54) 
oracle

>  <origin>  (54) 
adg

>  <m_score__min__energy>  (54) 
-6.3799999999999999

>  <m_primary>  (54) 
energy

$$$$
54:0
     RDKit          3D

 40 41  0  0  0  0  0  0  0  0999 V2000
  140.9770  156.8180  136.1860 C   0  0  0  0  0  0  0  0  0  0  0  0
  141.1480  156.4650  134.7070 C   0  0  0  0  0  0  0  0  0  0  0  0
  141.7140  157.5950  133.9240 N   0  0  2  0  0  0  0  0  0  0  0  0
  141.0470  157.7690  132.6080 C   0  0  0  0  0  0  0  0  0  0  0  0
  139.7180  158.5030  132.6530 C   0  0  0  0  0  0  0  0  0  0  0  0
  139.1070  158.6460  133.7430 O   0  0  0  0  0  0  0  0  0  0  0  0
  139.1550  159.1270  131.4430 C   0  0  0  0  0  0  0  0  0  0  0  0
  139.8700  159.3210  130.4250 O   0  0  0  0  0  0  0  0  0  0  0  0
  137.8170  159.5050  131.4180 O   0  0  0  0  0  0  0  0  0  0  0  0
  143.1570  157.5250  133.7740 C   0  0  0  0  0  0  0  0  0  0  0  0
  143.7420  156.4120  133.6850 O   0  0  0  0  0  0  0  0  0  0  0  0
  143.9310  158.7340  133.6740 N   0  0  0  0  0  0  0  0  0  0  0  0
  143.5100  160.0180  133.8630 C   0  0  0  0  0  0  0  0  0  0  0  0
  142.1250  160.4550  134.1370 C   0  0  0  0  0  0  0  0  0  0  0  0
  141.3800  159.9170  135.2230 N   0  0  0  0  0  0  0  0  0  0  0  0
  141.5770  161.2960  133.3740 O   0  0  0  0  0  0  0  0  0  0  0  0
  144.5870  160.9000  133.7920 C   0  0  0  0  0  0  0  0  0  0  0  0
  145.6870  160.1150  133.5360 C   0  0  0  0  0  0  0  0  0  0  0  0
  147.0170  160.4730  133.3410 C   0  0  0  0  0  0  0  0  0  0  0  0
  147.9390  159.4510  133.0590 C   0  0  0  0  0  0  0  0  0  0  0  0
  147.5170  158.1000  132.9810 C   0  0  0  0  0  0  0  0  0  0  0  0
  148.4960  157.0280  132.6130 C   0  0  0  0  0  0  0  0  0  0  0  0
  146.1560  157.7790  133.1710 C   0  0  0  0  0  0  0  0  0  0  0  0
  145.2640  158.8130  133.4680 C   0  0  0  0  0  0  0  0  0  0  0  0
  141.3730  156.0004  136.8063 H   0  0  0  0  0  0  0  0  0  0  0  0
  141.5258  157.7452  136.4075 H   0  0  0  0  0  0  0  0  0  0  0  0
  139.9092  156.9621  136.4075 H   0  0  0  0  0  0  0  0  0  0  0  0
  141.8250  155.6020  134.6243 H   0  0  0  0  0  0  0  0  0  0  0  0
  140.1539  156.2332  134.2970 H   0  0  0  0  0  0  0  0  0  0  0  0
  141.4950  158.4680  134.4580 H   0  0  0  0  0  0  0  0  0  0  0  0
  141.7267  158.3340  131.9532 H   0  0  0  0  0  0  0  0  0  0  0  0
  140.8261  156.7564  132.2395 H   0  0  0  0  0  0  0  0  0  0  0  0
  140.6110  159.2310  135.0580 H   0  0  0  0  0  0  0  0  0  0  0  0
  144.5624  161.9928  133.9148 H   0  0  0  0  0  0  0  0  0  0  0  0
  147.3369  161.5235  133.4056 H   0  0  0  0  0  0  0  0  0  0  0  0
  148.9978  159.7015  132.8973 H   0  0  0  0  0  0  0  0  0  0  0  0
  148.9075  156.5774  133.5282 H   0  0  0  0  0  0  0  0  0  0  0  0
  147.9866  156.2540  132.0203 H   0  0  0  0  0  0  0  0  0  0  0  0
  149.3130  157.4653  132.0203 H   0  0  0  0  0  0  0  0  0  0  0  0
  145.8056  156.7397  133.0873 H   0  0  0  0  0  0  0  0  0  0  0  0
  1  2  1  0
  2  3  1  0
  3  4  1  0
  4  5  1  0
  5  6  2  0
  5  7  1  0
  7  8  2  0
  7  9  1  0
  3 10  1  0
 10 11  2  0
 10 12  1  0
 12 13  1  0
 13 14  1  0
 14 15  1  0
 14 16  2  0
 13 17  2  0
 17 18  1  0
 18 19  2  0
 19 20  1  0
 20 21  2  0
 21 22  1  0
 21 23  1  0
 23 24  2  0
 24 12  1  0
 24 18  1  0
  1 25  1  0
  1 26  1  0
  1 27  1  0
  2 28  1  0
  2 29  1  0
  3 30  1  1
  4 31  1  0
  4 32  1  0
 15 33  1  0
 17 34  1  0
 19 35  1  0
 20 36  1  0
 22 37  1  0
 22 38  1  0
 22 39  1  0
 23 40  1  0
M  CHG  3   3   1   9  -1  15  -1
M  END
>  <UniqueID>  (55) 
55

>  <SMILES>  (55) 
CC[N@H+](CC(=O)C(=O)[O-])C(=O)n1c(C([NH-])=O)cc2ccc(C)cc21

>  <Energy>  (55) 
84.33732571794872

>  <Genealogy>  (55) 
CC[NH+](CC(=O)C(=O)[O-])C(=O)n1c(C([NH-])=O)cc2ccc(C)cc21 (protonated)
CC[N@H+](CC(=O)C(=O)[O-])C(=O)n1c(C([NH-])=O)cc2ccc(C)cc21 (chirality)
CC[N@H+](CC(=O)C(=O)[O-])C(=O)n1c(C([NH-])=O)cc2ccc(C)cc21 (3D coordinates assigned)
CC[N@H+](CC(=O)C(=O)[O-])C(=O)n1c(C([NH-])=O)cc2ccc(C)cc21 (optimized conformer: 84.33732571794872 kcal/mol)

>  <smiles>  (55) 
CCN(CC(=O)C(=O)O)C(=O)n1c(C(N)=O)cc2ccc(C)cc21

>  <score_type>  (55) 
oracle

>  <origin>  (55) 
adg

>  <m_score__min__energy>  (55) 
-5.9299999999999997

>  <m_primary>  (55) 
energy

$$$$
55:0
     RDKit          3D

 38 40  0  0  0  0  0  0  0  0999 V2000
  143.0530  159.5980  132.5720 H   0  0  0  0  0  0  0  0  0  0  0  0
  143.4680  160.0490  133.4180 N   0  0  0  0  0  0  0  0  0  0  0  0
  144.8610  159.9370  133.7000 C   0  0  0  0  0  0  0  0  0  0  0  0
  145.5050  160.9630  134.0410 O   0  0  0  0  0  0  0  0  0  0  0  0
  145.5380  158.6310  133.5610 C   0  0  0  0  0  0  0  0  0  0  0  0
  144.8690  157.4080  133.5480 C   0  0  0  0  0  0  0  0  0  0  0  0
  143.7928  157.2343  133.6948 H   0  0  0  0  0  0  0  0  0  0  0  0
  145.8440  156.4630  133.3120 C   0  0  0  0  0  0  0  0  0  0  0  0
  145.7470  155.0780  133.2080 C   0  0  0  0  0  0  0  0  0  0  0  0
  144.7768  154.5685  133.3035 H   0  0  0  0  0  0  0  0  0  0  0  0
  146.9280  154.3510  132.9770 C   0  0  0  0  0  0  0  0  0  0  0  0
  146.8860  153.2545  132.9000 H   0  0  0  0  0  0  0  0  0  0  0  0
  148.1750  155.0180  132.8420 C   0  0  0  0  0  0  0  0  0  0  0  0
  149.3920  154.2820  132.6400 N   0  0  0  0  0  0  0  0  0  0  0  0
  150.2870  154.8200  132.5870 H   0  0  0  0  0  0  0  0  0  0  0  0
  149.4710  152.8540  132.5110 C   0  0  0  0  0  0  0  0  0  0  0  0
  149.6230  152.3070  131.2730 N   0  0  0  0  0  0  0  0  0  0  0  0
  149.6750  150.9630  131.0780 C   0  0  0  0  0  0  0  0  0  0  0  0
  149.8116  150.5594  130.0639 H   0  0  0  0  0  0  0  0  0  0  0  0
  149.5550  150.0940  132.1650 C   0  0  0  0  0  0  0  0  0  0  0  0
  149.6019  149.0053  132.0149 H   0  0  0  0  0  0  0  0  0  0  0  0
  149.3750  150.6230  133.4430 C   0  0  0  0  0  0  0  0  0  0  0  0
  149.2742  149.9509  134.3080 H   0  0  0  0  0  0  0  0  0  0  0  0
  149.3230  152.0060  133.6230 C   0  0  0  0  0  0  0  0  0  0  0  0
  149.1675  152.4292  134.6264 H   0  0  0  0  0  0  0  0  0  0  0  0
  148.2330  156.4220  132.9760 C   0  0  0  0  0  0  0  0  0  0  0  0
  149.1925  156.9556  132.9082 H   0  0  0  0  0  0  0  0  0  0  0  0
  147.0410  157.1170  133.1970 C   0  0  0  0  0  0  0  0  0  0  0  0
  146.8710  158.4460  133.3530 N   0  0  0  0  0  0  0  0  0  0  0  0
  147.9130  159.4310  133.3440 C   0  0  0  0  0  0  0  0  0  0  0  0
  148.8470  159.3450  134.1860 O   0  0  0  0  0  0  0  0  0  0  0  0
  147.8970  160.5080  132.3310 C   0  0  0  0  0  0  0  0  0  0  0  0
  147.2487  161.3736  132.5321 H   0  0  0  0  0  0  0  0  0  0  0  0
  148.6010  160.5260  131.1890 C   0  0  0  0  0  0  0  0  0  0  0  0
  148.3476  161.3052  130.4551 H   0  0  0  0  0  0  0  0  0  0  0  0
  149.6850  159.5920  130.8320 C   0  0  0  0  0  0  0  0  0  0  0  0
  149.8280  158.5310  131.4920 O   0  0  0  0  0  0  0  0  0  0  0  0
  150.4890  159.8100  129.7180 O   0  0  0  0  0  0  0  0  0  0  0  0
  1  2  1  0
  2  3  1  0
  3  4  2  0
  3  5  1  0
  5  6  2  0
  6  7  1  0
  6  8  1  0
  8  9  2  0
  9 10  1  0
  9 11  1  0
 11 12  1  0
 11 13  2  0
 13 14  1  0
 14 15  1  0
 14 16  1  0
 16 17  2  0
 17 18  1  0
 18 19  1  0
 18 20  2  0
 20 21  1  0
 20 22  1  0
 22 23  1  0
 22 24  2  0
 24 25  1  0
 13 26  1  0
 26 27  1  0
 26 28  2  0
 28 29  1  0
 29 30  1  0
 30 31  2  0
 30 32  1  0
 32 33  1  0
 32 34  2  0
 34 35  1  0
 34 36  1  0
 36 37  2  0
 36 38  1  0
 29  5  1  0
 28  8  1  0
 24 16  1  0
M  CHG  2   2  -1  38  -1
M  END
>  <UniqueID>  (56) 
56

>  <SMILES>  (56) 
[NH-]C(=O)c1cc2ccc(Nc3ccccn3)cc2n1C(=O)/C=C\C(=O)[O-]

>  <Energy>  (56) 
92.46727766202112

>  <Genealogy>  (56) 
[NH-]C(=O)c1cc2ccc(Nc3ccccn3)cc2n1C(=O)/C=C\C(=O)[O-] (protonated)
[NH-]C(=O)c1cc2ccc(Nc3ccccn3)cc2n1C(=O)/C=C\C(=O)[O-] (cis-trans isomerization)
[NH-]C(=O)c1cc2ccc(Nc3ccccn3)cc2n1C(=O)/C=C\C(=O)[O-] (3D coordinates assigned)
[NH-]C(=O)c1cc2ccc(Nc3ccccn3)cc2n1C(=O)/C=C\C(=O)[O-] (optimized conformer: 92.46727766202112 kcal/mol)

>  <smiles>  (56) 
NC(=O)c1cc2ccc(Nc3ccccn3)cc2n1C(=O)/C=C\C(=O)O

>  <score_type>  (56) 
oracle

>  <origin>  (56) 
adg

>  <m_score__min__energy>  (56) 
-8.1899999999999995

>  <m_primary>  (56) 
energy

$$$$
56:0
     RDKit          3D

 41 42  0  0  0  0  0  0  0  0999 V2000
  140.9430  148.1220  132.0330 C   0  0  0  0  0  0  0  0  0  0  0  0
  140.4780  149.4900  132.2840 N   0  0  0  0  0  0  0  0  0  0  0  0
  141.3350  150.4030  133.0560 C   0  0  0  0  0  0  0  0  0  0  0  0
  141.6450  151.6650  132.2450 C   0  0  0  0  0  0  0  0  0  0  0  0
  140.7440  152.7570  132.6200 N   0  0  0  0  0  0  0  0  0  0  0  0
  141.0940  153.8500  133.4920 C   0  0  0  0  0  0  0  0  0  0  0  0
  142.1000  153.6540  134.4710 C   0  0  0  0  0  0  0  0  0  0  0  0
  142.4810  154.6950  135.3360 C   0  0  0  0  0  0  0  0  0  0  0  0
  141.8340  155.9190  135.2060 C   0  0  0  0  0  0  0  0  0  0  0  0
  142.0280  157.1020  135.8830 C   0  0  0  0  0  0  0  0  0  0  0  0
  141.1240  158.0020  135.3190 C   0  0  0  0  0  0  0  0  0  0  0  0
  140.9650  159.4000  135.7700 C   0  0  0  0  0  0  0  0  0  0  0  0
  140.6680  159.6760  137.1370 N   0  0  0  0  0  0  0  0  0  0  0  0
  141.0690  160.3560  134.9570 O   0  0  0  0  0  0  0  0  0  0  0  0
  140.3960  157.3950  134.3410 N   0  0  0  0  0  0  0  0  0  0  0  0
  139.4230  157.9970  133.4700 C   0  0  0  0  0  0  0  0  0  0  0  0
  138.1980  157.9030  133.7470 O   0  0  0  0  0  0  0  0  0  0  0  0
  139.8370  158.7190  132.2590 C   0  0  0  0  0  0  0  0  0  0  0  0
  140.8900  159.4090  132.2550 O   0  0  0  0  0  0  0  0  0  0  0  0
  139.0720  158.6300  131.1020 O   0  0  0  0  0  0  0  0  0  0  0  0
  140.8460  156.1230  134.2800 C   0  0  0  0  0  0  0  0  0  0  0  0
  140.4560  155.1100  133.3990 C   0  0  0  0  0  0  0  0  0  0  0  0
  139.1690  149.8780  131.7990 C   0  0  0  0  0  0  0  0  0  0  0  0
  138.6420  150.9430  132.2210 O   0  0  0  0  0  0  0  0  0  0  0  0
  138.3940  149.0420  130.8240 C   0  0  0  0  0  0  0  0  0  0  0  0
  138.8220  149.2990  129.5360 F   0  0  0  0  0  0  0  0  0  0  0  0
  141.1164  147.6119  132.9920 H   0  0  0  0  0  0  0  0  0  0  0  0
  140.1803  147.5749  131.4594 H   0  0  0  0  0  0  0  0  0  0  0  0
  141.8811  148.1530  131.4594 H   0  0  0  0  0  0  0  0  0  0  0  0
  140.8170  150.6875  133.9838 H   0  0  0  0  0  0  0  0  0  0  0  0
  142.2797  149.8904  133.2900 H   0  0  0  0  0  0  0  0  0  0  0  0
  142.6836  151.9718  132.4377 H   0  0  0  0  0  0  0  0  0  0  0  0
  141.5043  151.4419  131.1771 H   0  0  0  0  0  0  0  0  0  0  0  0
  139.7850  152.7430  132.2070 H   0  0  0  0  0  0  0  0  0  0  0  0
  142.5900  152.6728  134.5553 H   0  0  0  0  0  0  0  0  0  0  0  0
  143.2662  154.5458  136.0918 H   0  0  0  0  0  0  0  0  0  0  0  0
  142.7435  157.2961  136.6956 H   0  0  0  0  0  0  0  0  0  0  0  0
  139.7550  159.3930  137.5560 H   0  0  0  0  0  0  0  0  0  0  0  0
  139.6705  155.2883  132.6499 H   0  0  0  0  0  0  0  0  0  0  0  0
  138.5486  147.9774  131.0536 H   0  0  0  0  0  0  0  0  0  0  0  0
  137.3254  149.2900  130.9055 H   0  0  0  0  0  0  0  0  0  0  0  0
  1  2  1  0
  2  3  1  0
  3  4  1  0
  4  5  1  0
  5  6  1  0
  6  7  2  0
  7  8  1  0
  8  9  2  0
  9 10  1  0
 10 11  2  0
 11 12  1  0
 12 13  1  0
 12 14  2  0
 11 15  1  0
 15 16  1  0
 16 17  2  0
 16 18  1  0
 18 19  2  0
 18 20  1  0
 15 21  1  0
 21 22  2  0
  2 23  1  0
 23 24  2  0
 23 25  1  0
 25 26  1  0
 22  6  1  0
 21  9  1  0
  1 27  1  0
  1 28  1  0
  1 29  1  0
  3 30  1  0
  3 31  1  0
  4 32  1  0
  4 33  1  0
  5 34  1  0
  7 35  1  0
  8 36  1  0
 10 37  1  0
 13 38  1  0
 22 39  1  0
 25 40  1  0
 25 41  1  0
M  CHG  2  13  -1  20  -1
M  END
>  <UniqueID>  (57) 
57

>  <SMILES>  (57) 
CN(CCNc1ccc2cc(C([NH-])=O)n(C(=O)C(=O)[O-])c2c1)C(=O)CF

>  <Energy>  (57) 
73.93698604380995

>  <Genealogy>  (57) 
CN(CCNc1ccc2cc(C([NH-])=O)n(C(=O)C(=O)[O-])c2c1)C(=O)CF (protonated)
CN(CCNc1ccc2cc(C([NH-])=O)n(C(=O)C(=O)[O-])c2c1)C(=O)CF (3D coordinates assigned)
CN(CCNc1ccc2cc(C([NH-])=O)n(C(=O)C(=O)[O-])c2c1)C(=O)CF (optimized conformer: 73.93698604380995 kcal/mol)

>  <smiles>  (57) 
CN(CCNc1ccc2cc(C(N)=O)n(C(=O)C(=O)O)c2c1)C(=O)CF

>  <score_type>  (57) 
oracle

>  <origin>  (57) 
adg

>  <m_score__min__energy>  (57) 
-6.5800000000000001

>  <m_primary>  (57) 
energy

$$$$
57:0
     RDKit          3D

 45 46  0  0  0  0  0  0  0  0999 V2000
  144.4760  161.0500  133.6930 C   0  0  0  0  0  0  0  0  0  0  0  0
  145.5830  160.0490  133.5530 C   0  0  0  0  0  0  0  0  0  0  0  0
  146.9200  160.4890  133.3940 C   0  0  0  0  0  0  0  0  0  0  0  0
  147.9730  159.5620  133.3110 C   0  0  0  0  0  0  0  0  0  0  0  0
  147.6590  158.2080  133.3970 C   0  0  0  0  0  0  0  0  0  0  0  0
  148.4820  157.1060  133.3850 C   0  0  0  0  0  0  0  0  0  0  0  0
  147.6340  156.0100  133.5290 C   0  0  0  0  0  0  0  0  0  0  0  0
  148.1020  154.6080  133.4890 C   0  0  0  0  0  0  0  0  0  0  0  0
  148.0110  153.7720  134.6390 N   0  0  0  0  0  0  0  0  0  0  0  0
  148.5430  154.1280  132.4110 O   0  0  0  0  0  0  0  0  0  0  0  0
  146.3380  156.4180  133.6330 N   0  0  0  0  0  0  0  0  0  0  0  0
  145.1820  155.6100  133.8940 C   0  0  0  0  0  0  0  0  0  0  0  0
  144.0290  156.1160  133.8180 O   0  0  0  0  0  0  0  0  0  0  0  0
  145.3420  154.2680  134.2620 O   0  0  0  0  0  0  0  0  0  0  0  0
  144.3980  153.2500  133.9380 C   0  0  0  0  0  0  0  0  0  0  0  0
  144.9880  152.2850  132.9560 C   0  0  0  0  0  0  0  0  0  0  0  0
  144.2260  151.5410  132.2820 O   0  0  0  0  0  0  0  0  0  0  0  0
  146.4110  152.2200  132.7830 N   0  0  0  0  0  0  0  0  0  0  0  0
  147.0600  151.3030  131.8440 C   0  0  0  0  0  0  0  0  0  0  0  0
  148.4650  150.8720  132.3360 C   0  0  0  0  0  0  0  0  0  0  0  0
  149.5330  151.0870  131.2410 C   0  0  0  0  0  0  0  0  0  0  0  0
  148.4250  149.3790  132.6980 C   0  0  0  0  0  0  0  0  0  0  0  0
  148.8110  151.5840  133.5010 O   0  0  0  0  0  0  0  0  0  0  0  0
  146.3690  157.7660  133.5480 C   0  0  0  0  0  0  0  0  0  0  0  0
  145.3030  158.6680  133.6530 C   0  0  0  0  0  0  0  0  0  0  0  0
  144.2771  161.2299  134.7598 H   0  0  0  0  0  0  0  0  0  0  0  0
  144.7717  161.9935  133.2110 H   0  0  0  0  0  0  0  0  0  0  0  0
  143.5669  160.6612  133.2110 H   0  0  0  0  0  0  0  0  0  0  0  0
  147.1360  161.5660  133.3350 H   0  0  0  0  0  0  0  0  0  0  0  0
  149.0132  159.8957  133.1821 H   0  0  0  0  0  0  0  0  0  0  0  0
  149.5772  157.0928  133.2833 H   0  0  0  0  0  0  0  0  0  0  0  0
  147.4190  152.9110  134.6330 H   0  0  0  0  0  0  0  0  0  0  0  0
  144.1188  152.7095  134.8545 H   0  0  0  0  0  0  0  0  0  0  0  0
  143.5089  153.7172  133.4894 H   0  0  0  0  0  0  0  0  0  0  0  0
  147.0140  152.8700  133.3360 H   0  0  0  0  0  0  0  0  0  0  0  0
  146.4323  150.4068  131.7307 H   0  0  0  0  0  0  0  0  0  0  0  0
  147.1803  151.8264  130.8840 H   0  0  0  0  0  0  0  0  0  0  0  0
  150.5073  151.2831  131.7125 H   0  0  0  0  0  0  0  0  0  0  0  0
  149.6034  150.1850  130.6153 H   0  0  0  0  0  0  0  0  0  0  0  0
  149.2489  151.9460  130.6153 H   0  0  0  0  0  0  0  0  0  0  0  0
  148.4220  149.2670  133.7923 H   0  0  0  0  0  0  0  0  0  0  0  0
  147.5144  148.9247  132.2804 H   0  0  0  0  0  0  0  0  0  0  0  0
  149.3100  148.8766  132.2804 H   0  0  0  0  0  0  0  0  0  0  0  0
  148.1880  152.3510  133.5950 H   0  0  0  0  0  0  0  0  0  0  0  0
  144.2745  158.3105  133.8093 H   0  0  0  0  0  0  0  0  0  0  0  0
  1  2  1  0
  2  3  2  0
  3  4  1  0
  4  5  2  0
  5  6  1  0
  6  7  2  0
  7  8  1  0
  8  9  1  0
  8 10  2  0
  7 11  1  0
 11 12  1  0
 12 13  2  0
 12 14  1  0
 14 15  1  0
 15 16  1  0
 16 17  2  0
 16 18  1  0
 18 19  1  0
 19 20  1  0
 20 21  1  0
 20 22  1  0
 20 23  1  0
 11 24  1  0
 24 25  2  0
 25  2  1  0
 24  5  1  0
  1 26  1  0
  1 27  1  0
  1 28  1  0
  3 29  1  0
  4 30  1  0
  6 31  1  0
  9 32  1  0
 15 33  1  0
 15 34  1  0
 18 35  1  0
 19 36  1  0
 19 37  1  0
 21 38  1  0
 21 39  1  0
 21 40  1  0
 22 41  1  0
 22 42  1  0
 22 43  1  0
 23 44  1  0
 25 45  1  0
M  CHG  1   9  -1
M  END
>  <UniqueID>  (58) 
58

>  <SMILES>  (58) 
Cc1ccc2cc(C([NH-])=O)n(C(=O)OCC(=O)NCC(C)(C)O)c2c1

>  <Energy>  (58) 
75.80068929607353

>  <Genealogy>  (58) 
Cc1ccc2cc(C([NH-])=O)n(C(=O)OCC(=O)NCC(C)(C)O)c2c1 (protonated)
Cc1ccc2cc(C([NH-])=O)n(C(=O)OCC(=O)NCC(C)(C)O)c2c1 (3D coordinates assigned)
Cc1ccc2cc(C([NH-])=O)n(C(=O)OCC(=O)NCC(C)(C)O)c2c1 (optimized conformer: 75.80068929607353 kcal/mol)

>  <smiles>  (58) 
Cc1ccc2cc(C(N)=O)n(C(=O)OCC(=O)NCC(C)(C)O)c2c1

>  <score_type>  (58) 
oracle

>  <origin>  (58) 
adg

>  <m_score__min__energy>  (58) 
-6.9400000000000004

>  <m_primary>  (58) 
energy

$$$$
58:0
     RDKit          3D

 49 51  0  0  0  0  0  0  0  0999 V2000
  144.2470  155.5910  135.3610 N   0  0  0  0  0  0  0  0  0  0  0  0
  144.8150  154.6500  134.4550 C   0  0  0  0  0  0  0  0  0  0  0  0
  146.0190  154.7840  134.1080 O   0  0  0  0  0  0  0  0  0  0  0  0
  144.0130  153.5360  133.9020 C   0  0  0  0  0  0  0  0  0  0  0  0
  144.5720  152.3860  133.3460 C   0  0  0  0  0  0  0  0  0  0  0  0
  143.5040  151.6280  132.9210 C   0  0  0  0  0  0  0  0  0  0  0  0
  143.4770  150.3750  132.3180 C   0  0  0  0  0  0  0  0  0  0  0  0
  142.2240  149.8160  132.0160 C   0  0  0  0  0  0  0  0  0  0  0  0
  141.0250  150.5190  132.3090 C   0  0  0  0  0  0  0  0  0  0  0  0
  139.6880  149.8810  132.0350 C   0  0  0  0  0  0  0  0  0  0  0  0
  139.6310  149.3960  130.7400 F   0  0  0  0  0  0  0  0  0  0  0  0
  138.6900  150.8220  132.2060 F   0  0  0  0  0  0  0  0  0  0  0  0
  139.4660  148.8250  132.9020 F   0  0  0  0  0  0  0  0  0  0  0  0
  141.0970  151.7790  132.9460 C   0  0  0  0  0  0  0  0  0  0  0  0
  142.3590  152.3170  133.2190 C   0  0  0  0  0  0  0  0  0  0  0  0
  142.6540  153.4890  133.8190 N   0  0  0  0  0  0  0  0  0  0  0  0
  141.7090  154.4610  134.2870 C   0  0  0  0  0  0  0  0  0  0  0  0
  141.3740  154.4770  135.5010 O   0  0  0  0  0  0  0  0  0  0  0  0
  141.1690  155.5010  133.3500 C   0  0  0  0  0  0  0  0  0  0  0  0
  140.8340  156.7820  134.1100 C   0  0  0  0  0  0  0  0  0  0  0  0
  142.0870  157.3780  134.6410 N   0  0  0  0  0  0  0  0  0  0  0  0
  142.9020  158.0300  133.5850 C   0  0  0  0  0  0  0  0  0  0  0  0
  142.6220  159.5460  133.4300 C   0  0  0  0  0  0  0  0  0  0  0  0
  141.2450  159.9500  133.9700 C   0  0  0  0  0  0  0  0  0  0  0  0
  141.0500  159.5200  135.4370 C   0  0  0  0  0  0  0  0  0  0  0  0
  141.9010  158.2810  135.8040 C   0  0  1  0  0  0  0  0  0  0  0  0
  141.3580  157.5420  137.0440 C   0  0  0  0  0  0  0  0  0  0  0  0
  142.0180  156.3160  137.2180 O   0  0  0  0  0  0  0  0  0  0  0  0
  143.2110  155.6920  135.4520 H   0  0  0  0  0  0  0  0  0  0  0  0
  145.6403  152.1370  133.2642 H   0  0  0  0  0  0  0  0  0  0  0  0
  144.4083  149.8381  132.0846 H   0  0  0  0  0  0  0  0  0  0  0  0
  142.1708  148.8223  131.5472 H   0  0  0  0  0  0  0  0  0  0  0  0
  140.1817  152.3238  133.2206 H   0  0  0  0  0  0  0  0  0  0  0  0
  141.9239  155.7229  132.5813 H   0  0  0  0  0  0  0  0  0  0  0  0
  140.2521  155.1155  132.8803 H   0  0  0  0  0  0  0  0  0  0  0  0
  140.3464  157.4961  133.4301 H   0  0  0  0  0  0  0  0  0  0  0  0
  140.1538  156.5500  134.9427 H   0  0  0  0  0  0  0  0  0  0  0  0
  143.9650  157.8968  133.8347 H   0  0  0  0  0  0  0  0  0  0  0  0
  142.6325  157.5539  132.6307 H   0  0  0  0  0  0  0  0  0  0  0  0
  143.3937  160.1047  133.9798 H   0  0  0  0  0  0  0  0  0  0  0  0
  142.6398  159.7797  132.3553 H   0  0  0  0  0  0  0  0  0  0  0  0
  141.1449  161.0435  133.9043 H   0  0  0  0  0  0  0  0  0  0  0  0
  140.4805  159.4427  133.3633 H   0  0  0  0  0  0  0  0  0  0  0  0
  141.3400  160.3549  136.0918 H   0  0  0  0  0  0  0  0  0  0  0  0
  139.9914  159.2529  135.5714 H   0  0  0  0  0  0  0  0  0  0  0  0
  142.8992  158.6496  136.0826 H   0  0  0  0  0  0  0  0  0  0  0  0
  141.5162  158.1671  137.9352 H   0  0  0  0  0  0  0  0  0  0  0  0
  140.2848  157.3490  136.8995 H   0  0  0  0  0  0  0  0  0  0  0  0
  142.4750  156.1160  136.3590 H   0  0  0  0  0  0  0  0  0  0  0  0
  1  2  1  0
  2  3  2  0
  2  4  1  0
  4  5  2  0
  5  6  1  0
  6  7  2  0
  7  8  1  0
  8  9  2  0
  9 10  1  0
 10 11  1  0
 10 12  1  0
 10 13  1  0
  9 14  1  0
 14 15  2  0
 15 16  1  0
 16 17  1  0
 17 18  2  0
 17 19  1  0
 19 20  1  0
 20 21  1  0
 21 22  1  0
 22 23  1  0
 23 24  1  0
 24 25  1  0
 25 26  1  0
 26 27  1  0
 27 28  1  0
 16  4  1  0
 26 21  1  0
 15  6  1  0
  1 29  1  0
  5 30  1  0
  7 31  1  0
  8 32  1  0
 14 33  1  0
 19 34  1  0
 19 35  1  0
 20 36  1  0
 20 37  1  0
 22 38  1  0
 22 39  1  0
 23 40  1  0
 23 41  1  0
 24 42  1  0
 24 43  1  0
 25 44  1  0
 25 45  1  0
 26 46  1  1
 27 47  1  0
 27 48  1  0
 28 49  1  0
M  CHG  1   1  -1
M  END
>  <UniqueID>  (59) 
59

>  <SMILES>  (59) 
[NH-]C(=O)c1cc2ccc(C(F)(F)F)cc2n1C(=O)CCN1CCCC[C@H]1CO

>  <Energy>  (59) 
97.03259631278792

>  <Genealogy>  (59) 
[NH-]C(=O)c1cc2ccc(C(F)(F)F)cc2n1C(=O)CCN1CCCC[C@H]1CO (protonated)
[NH-]C(=O)c1cc2ccc(C(F)(F)F)cc2n1C(=O)CCN1CCCC[C@H]1CO (3D coordinates assigned)
[NH-]C(=O)c1cc2ccc(C(F)(F)F)cc2n1C(=O)CCN1CCCC[C@H]1CO (nonaromatic ring conformer: 97.03259631278792 kcal/mol)

>  <smiles>  (59) 
NC(=O)c1cc2ccc(C(F)(F)F)cc2n1C(=O)CCN1CCCC[C@H]1CO

>  <score_type>  (59) 
oracle

>  <origin>  (59) 
adg

>  <m_score__min__energy>  (59) 
-6.8200000000000003

>  <m_primary>  (59) 
energy

$$$$
59:0
     RDKit          3D

 40 41  0  0  0  0  0  0  0  0999 V2000
  142.7280  156.5050  132.6520 N   0  0  0  0  0  0  0  0  0  0  0  0
  143.2420  155.3950  133.3890 C   0  0  0  0  0  0  0  0  0  0  0  0
  144.1980  155.5740  134.1890 O   0  0  0  0  0  0  0  0  0  0  0  0
  142.7180  154.0300  133.1800 C   0  0  0  0  0  0  0  0  0  0  0  0
  143.5280  152.8990  133.1160 C   0  0  0  0  0  0  0  0  0  0  0  0
  142.6720  151.8540  132.8550 C   0  0  0  0  0  0  0  0  0  0  0  0
  142.9390  150.4960  132.7100 C   0  0  0  0  0  0  0  0  0  0  0  0
  141.8560  149.6310  132.4880 C   0  0  0  0  0  0  0  0  0  0  0  0
  140.5320  150.1340  132.4240 C   0  0  0  0  0  0  0  0  0  0  0  0
  139.3740  149.2030  132.2070 C   0  0  0  0  0  0  0  0  0  0  0  0
  139.7850  148.1080  131.4700 F   0  0  0  0  0  0  0  0  0  0  0  0
  138.3690  149.8620  131.5220 F   0  0  0  0  0  0  0  0  0  0  0  0
  140.2980  151.5190  132.5810 C   0  0  0  0  0  0  0  0  0  0  0  0
  141.4000  152.3610  132.7790 C   0  0  0  0  0  0  0  0  0  0  0  0
  141.4110  153.6980  132.9790 N   0  0  0  0  0  0  0  0  0  0  0  0
  140.2680  154.5610  133.0940 C   0  0  0  0  0  0  0  0  0  0  0  0
  139.1060  154.0850  132.9750 O   0  0  0  0  0  0  0  0  0  0  0  0
  140.4530  155.9280  133.3300 O   0  0  0  0  0  0  0  0  0  0  0  0
  139.4490  156.9160  133.1030 C   0  0  0  0  0  0  0  0  0  0  0  0
  140.0860  158.3000  132.8920 C   0  0  2  0  0  0  0  0  0  0  0  0
  141.1140  158.2400  131.9340 O   0  0  0  0  0  0  0  0  0  0  0  0
  140.6100  158.8790  134.2150 C   0  0  0  0  0  0  0  0  0  0  0  0
  141.9430  158.4630  134.4050 O   0  0  0  0  0  0  0  0  0  0  0  0
  142.9770  159.6580  133.7600 P   0  0  0  0  0  0  0  0  0  0  0  0
  143.8250  160.2570  134.8590 O   0  0  0  0  0  0  0  0  0  0  0  0
  142.0740  160.8780  133.0130 O   0  0  0  0  0  0  0  0  0  0  0  0
  143.9890  158.9430  132.6110 O   0  0  0  0  0  0  0  0  0  0  0  0
  143.0820  157.4680  132.8430 H   0  0  0  0  0  0  0  0  0  0  0  0
  142.0570  156.3670  131.8660 H   0  0  0  0  0  0  0  0  0  0  0  0
  144.6192  152.8513  133.2463 H   0  0  0  0  0  0  0  0  0  0  0  0
  143.9681  150.1118  132.7677 H   0  0  0  0  0  0  0  0  0  0  0  0
  142.0362  148.5531  132.3626 H   0  0  0  0  0  0  0  0  0  0  0  0
  138.9961  148.8667  133.1838 H   0  0  0  0  0  0  0  0  0  0  0  0
  139.2764  151.9255  132.5485 H   0  0  0  0  0  0  0  0  0  0  0  0
  138.8709  156.6442  132.2075 H   0  0  0  0  0  0  0  0  0  0  0  0
  138.7908  156.9601  133.9833 H   0  0  0  0  0  0  0  0  0  0  0  0
  139.3026  158.9735  132.5143 H   0  0  0  0  0  0  0  0  0  0  0  0
  141.8320  158.8610  132.2270 H   0  0  0  0  0  0  0  0  0  0  0  0
  140.5688  159.9776  134.1782 H   0  0  0  0  0  0  0  0  0  0  0  0
  139.9878  158.5207  135.0484 H   0  0  0  0  0  0  0  0  0  0  0  0
  1  2  1  0
  2  3  2  0
  2  4  1  0
  4  5  2  0
  5  6  1  0
  6  7  2  0
  7  8  1  0
  8  9  2  0
  9 10  1  0
 10 11  1  0
 10 12  1  0
  9 13  1  0
 13 14  2  0
 14 15  1  0
 15 16  1  0
 16 17  2  0
 16 18  1  0
 18 19  1  0
 19 20  1  0
 20 21  1  0
 20 22  1  0
 22 23  1  0
 23 24  1  0
 24 25  2  0
 24 26  1  0
 24 27  1  0
 15  4  1  0
 14  6  1  0
  1 28  1  0
  1 29  1  0
  5 30  1  0
  7 31  1  0
  8 32  1  0
 10 33  1  0
 13 34  1  0
 19 35  1  0
 19 36  1  0
 20 37  1  6
 21 38  1  0
 22 39  1  0
 22 40  1  0
M  CHG  2  26  -1  27  -1
M  END
>  <UniqueID>  (60) 
60

>  <SMILES>  (60) 
NC(=O)c1cc2ccc(C(F)F)cc2n1C(=O)OC[C@H](O)COP(=O)([O-])[O-]

>  <Energy>  (60) 
74.26994100635656

>  <Genealogy>  (60) 
NC(=O)c1cc2ccc(C(F)F)cc2n1C(=O)OCC(O)COP(=O)([O-])[O-] (protonated)
NC(=O)c1cc2ccc(C(F)F)cc2n1C(=O)OC[C@H](O)COP(=O)([O-])[O-] (chirality)
NC(=O)c1cc2ccc(C(F)F)cc2n1C(=O)OC[C@H](O)COP(=O)([O-])[O-] (3D coordinates assigned)
NC(=O)c1cc2ccc(C(F)F)cc2n1C(=O)OC[C@H](O)COP(=O)([O-])[O-] (optimized conformer: 74.26994100635656 kcal/mol)

>  <smiles>  (60) 
NC(=O)c1cc2ccc(C(F)F)cc2n1C(=O)OCC(O)COP(=O)(O)O

>  <score_type>  (60) 
oracle

>  <origin>  (60) 
adg

>  <m_score__min__energy>  (60) 
-5.8799999999999999

>  <m_primary>  (60) 
energy

$$$$
60:0
     RDKit          3D

 37 39  0  0  0  0  0  0  0  0999 V2000
  143.9030  162.1020  133.4500 N   0  0  0  0  0  0  0  0  0  0  0  0
  145.0790  161.7030  134.1490 C   0  0  0  0  0  0  0  0  0  0  0  0
  145.4850  162.3970  135.1180 O   0  0  0  0  0  0  0  0  0  0  0  0
  145.8290  160.5110  133.7050 C   0  0  0  0  0  0  0  0  0  0  0  0
  147.1830  160.5300  133.3760 C   0  0  0  0  0  0  0  0  0  0  0  0
  147.5100  159.2230  133.0940 C   0  0  0  0  0  0  0  0  0  0  0  0
  148.7210  158.6700  132.6860 C   0  0  0  0  0  0  0  0  0  0  0  0
  148.7600  157.2910  132.4220 C   0  0  0  0  0  0  0  0  0  0  0  0
  147.5960  156.4920  132.5700 C   0  0  0  0  0  0  0  0  0  0  0  0
  147.6310  155.0920  132.2360 N   0  0  0  0  0  0  0  0  0  0  0  0
  148.5430  154.4010  133.1590 C   0  0  0  0  0  0  0  0  0  0  0  0
  148.3850  152.8870  133.1730 C   0  0  0  0  0  0  0  0  0  0  0  0
  149.5930  153.5200  132.4950 C   0  0  0  0  0  0  0  0  0  0  0  0
  146.3850  157.0930  132.9820 C   0  0  0  0  0  0  0  0  0  0  0  0
  146.3800  158.4650  133.2540 C   0  0  0  0  0  0  0  0  0  0  0  0
  145.3390  159.2410  133.6280 N   0  0  0  0  0  0  0  0  0  0  0  0
  143.9830  158.8090  133.8160 C   0  0  0  0  0  0  0  0  0  0  0  0
  143.1610  159.5630  134.4050 O   0  0  0  0  0  0  0  0  0  0  0  0
  143.5850  157.5450  133.3650 O   0  0  0  0  0  0  0  0  0  0  0  0
  143.1840  156.4940  134.2400 C   0  0  0  0  0  0  0  0  0  0  0  0
  144.2040  155.3990  134.2380 C   0  0  0  0  0  0  0  0  0  0  0  0
  144.6420  154.9430  135.3270 O   0  0  0  0  0  0  0  0  0  0  0  0
  144.6380  154.8530  133.0370 O   0  0  0  0  0  0  0  0  0  0  0  0
  143.0500  161.4990  133.4470 H   0  0  0  0  0  0  0  0  0  0  0  0
  147.8496  161.4046  133.3477 H   0  0  0  0  0  0  0  0  0  0  0  0
  149.6198  159.2941  132.5739 H   0  0  0  0  0  0  0  0  0  0  0  0
  149.7022  156.8254  132.0972 H   0  0  0  0  0  0  0  0  0  0  0  0
  146.6760  154.6800  132.3480 H   0  0  0  0  0  0  0  0  0  0  0  0
  147.9080  154.9720  131.2330 H   0  0  0  0  0  0  0  0  0  0  0  0
  148.5680  155.1958  133.9190 H   0  0  0  0  0  0  0  0  0  0  0  0
  148.5112  152.3295  134.1129 H   0  0  0  0  0  0  0  0  0  0  0  0
  147.5980  152.1843  132.8618 H   0  0  0  0  0  0  0  0  0  0  0  0
  150.5917  153.4200  132.9452 H   0  0  0  0  0  0  0  0  0  0  0  0
  150.0399  153.4641  131.4914 H   0  0  0  0  0  0  0  0  0  0  0  0
  145.4674  156.4954  133.0863 H   0  0  0  0  0  0  0  0  0  0  0  0
  143.0800  156.8912  135.2605 H   0  0  0  0  0  0  0  0  0  0  0  0
  142.2221  156.0877  133.8940 H   0  0  0  0  0  0  0  0  0  0  0  0
  1  2  1  0
  2  3  2  0
  2  4  1  0
  4  5  2  0
  5  6  1  0
  6  7  2  0
  7  8  1  0
  8  9  2  0
  9 10  1  0
 10 11  1  0
 11 12  1  0
 12 13  1  0
  9 14  1  0
 14 15  2  0
 15 16  1  0
 16 17  1  0
 17 18  2  0
 17 19  1  0
 19 20  1  0
 20 21  1  0
 21 22  2  0
 21 23  1  0
 16  4  1  0
 15  6  1  0
 13 11  1  0
  1 24  1  0
  5 25  1  0
  7 26  1  0
  8 27  1  0
 10 28  1  0
 10 29  1  0
 11 30  1  0
 12 31  1  0
 12 32  1  0
 13 33  1  0
 13 34  1  0
 14 35  1  0
 20 36  1  0
 20 37  1  0
M  CHG  3   1  -1  10   1  23  -1
M  END
>  <UniqueID>  (61) 
61

>  <SMILES>  (61) 
[NH-]C(=O)c1cc2ccc([NH2+]C3CC3)cc2n1C(=O)OCC(=O)[O-]

>  <Energy>  (61) 
340.5493065325347

>  <Genealogy>  (61) 
[NH-]C(=O)c1cc2ccc([NH2+]C3CC3)cc2n1C(=O)OCC(=O)[O-] (protonated)
[NH-]C(=O)c1cc2ccc([NH2+]C3CC3)cc2n1C(=O)OCC(=O)[O-] (3D coordinates assigned)
[NH-]C(=O)c1cc2ccc([NH2+]C3CC3)cc2n1C(=O)OCC(=O)[O-] (nonaromatic ring conformer: 340.5493065325347 kcal/mol)

>  <smiles>  (61) 
NC(=O)c1cc2ccc(NC3CC3)cc2n1C(=O)OCC(=O)O

>  <score_type>  (61) 
oracle

>  <origin>  (61) 
adg

>  <m_score__min__energy>  (61) 
-6

>  <m_primary>  (61) 
energy

$$$$
61:0
     RDKit          3D

 31 32  0  0  0  0  0  0  0  0999 V2000
  140.7290  156.7340  132.9770 N   0  0  0  0  0  0  0  0  0  0  0  0
  141.2550  157.6450  133.9390 C   0  0  0  0  0  0  0  0  0  0  0  0
  140.5030  158.0810  134.8510 O   0  0  0  0  0  0  0  0  0  0  0  0
  142.6480  158.1290  133.8460 C   0  0  0  0  0  0  0  0  0  0  0  0
  142.9880  159.4790  133.7870 C   0  0  0  0  0  0  0  0  0  0  0  0
  144.3530  159.5040  133.6140 C   0  0  0  0  0  0  0  0  0  0  0  0
  145.2230  160.5850  133.5140 C   0  0  0  0  0  0  0  0  0  0  0  0
  146.5940  160.3180  133.3770 C   0  0  0  0  0  0  0  0  0  0  0  0
  147.0730  158.9820  133.3330 C   0  0  0  0  0  0  0  0  0  0  0  0
  148.5540  158.7090  133.2490 C   0  0  0  0  0  0  0  0  0  0  0  0
  149.1380  158.9950  134.4680 F   0  0  0  0  0  0  0  0  0  0  0  0
  148.7880  157.3820  132.9350 F   0  0  0  0  0  0  0  0  0  0  0  0
  149.1400  159.4950  132.2720 F   0  0  0  0  0  0  0  0  0  0  0  0
  146.1590  157.9120  133.4640 C   0  0  0  0  0  0  0  0  0  0  0  0
  144.7960  158.2080  133.5800 C   0  0  0  0  0  0  0  0  0  0  0  0
  143.7610  157.3500  133.7260 N   0  0  0  0  0  0  0  0  0  0  0  0
  143.8510  155.9200  133.8140 C   0  0  0  0  0  0  0  0  0  0  0  0
  143.1000  155.1980  133.1030 O   0  0  0  0  0  0  0  0  0  0  0  0
  144.7490  155.3370  134.7140 O   0  0  0  0  0  0  0  0  0  0  0  0
  145.4280  154.1080  134.4650 C   0  0  0  0  0  0  0  0  0  0  0  0
  147.0610  154.1120  135.2660 P   0  0  0  0  0  0  0  0  0  0  0  0
  148.0880  153.4800  134.3550 O   0  0  0  0  0  0  0  0  0  0  0  0
  146.9770  153.2320  136.7070 O   0  0  0  0  0  0  0  0  0  0  0  0
  147.5160  155.7040  135.6080 O   0  0  0  0  0  0  0  0  0  0  0  0
  141.3580  156.2310  132.3120 H   0  0  0  0  0  0  0  0  0  0  0  0
  142.3095  160.3415  133.8626 H   0  0  0  0  0  0  0  0  0  0  0  0
  144.8474  161.6185  133.5415 H   0  0  0  0  0  0  0  0  0  0  0  0
  147.3058  161.1534  133.3028 H   0  0  0  0  0  0  0  0  0  0  0  0
  146.5110  156.8699  133.4746 H   0  0  0  0  0  0  0  0  0  0  0  0
  144.8300  153.2760  134.8653 H   0  0  0  0  0  0  0  0  0  0  0  0
  145.5632  153.9886  133.3799 H   0  0  0  0  0  0  0  0  0  0  0  0
  1  2  1  0
  2  3  2  0
  2  4  1  0
  4  5  2  0
  5  6  1  0
  6  7  2  0
  7  8  1  0
  8  9  2  0
  9 10  1  0
 10 11  1  0
 10 12  1  0
 10 13  1  0
  9 14  1  0
 14 15  2  0
 15 16  1  0
 16 17  1  0
 17 18  2  0
 17 19  1  0
 19 20  1  0
 20 21  1  0
 21 22  2  0
 21 23  1  0
 21 24  1  0
 16  4  1  0
 15  6  1  0
  1 25  1  0
  5 26  1  0
  7 27  1  0
  8 28  1  0
 14 29  1  0
 20 30  1  0
 20 31  1  0
M  CHG  3   1  -1  23  -1  24  -1
M  END
>  <UniqueID>  (62) 
62

>  <SMILES>  (62) 
[NH-]C(=O)c1cc2ccc(C(F)(F)F)cc2n1C(=O)OCP(=O)([O-])[O-]

>  <Energy>  (62) 
66.28373771503892

>  <Genealogy>  (62) 
[NH-]C(=O)c1cc2ccc(C(F)(F)F)cc2n1C(=O)OCP(=O)([O-])[O-] (protonated)
[NH-]C(=O)c1cc2ccc(C(F)(F)F)cc2n1C(=O)OCP(=O)([O-])[O-] (3D coordinates assigned)
[NH-]C(=O)c1cc2ccc(C(F)(F)F)cc2n1C(=O)OCP(=O)([O-])[O-] (optimized conformer: 66.28373771503892 kcal/mol)

>  <smiles>  (62) 
NC(=O)c1cc2ccc(C(F)(F)F)cc2n1C(=O)OCP(=O)(O)O

>  <score_type>  (62) 
oracle

>  <origin>  (62) 
adg

>  <m_score__min__energy>  (62) 
-5.5599999999999996

>  <m_primary>  (62) 
energy

$$$$
62:0
     RDKit          3D

 38 39  0  0  0  0  0  0  0  0999 V2000
  140.2180  159.5440  134.7720 H   0  0  0  0  0  0  0  0  0  0  0  0
  140.5530  159.7310  135.7420 N   0  0  0  0  0  0  0  0  0  0  0  0
  141.0720  158.6800  136.5540 C   0  0  0  0  0  0  0  0  0  0  0  0
  141.4270  158.9320  137.7370 O   0  0  0  0  0  0  0  0  0  0  0  0
  141.2420  157.3140  136.0160 C   0  0  0  0  0  0  0  0  0  0  0  0
  142.1240  156.3730  136.5480 C   0  0  0  0  0  0  0  0  0  0  0  0
  142.7626  156.4860  137.4365 H   0  0  0  0  0  0  0  0  0  0  0  0
  142.0260  155.2720  135.7250 C   0  0  0  0  0  0  0  0  0  0  0  0
  142.6700  154.0410  135.7900 C   0  0  0  0  0  0  0  0  0  0  0  0
  143.4032  153.8258  136.5813 H   0  0  0  0  0  0  0  0  0  0  0  0
  142.3550  153.0800  134.8130 C   0  0  0  0  0  0  0  0  0  0  0  0
  142.8473  152.0966  134.8368 H   0  0  0  0  0  0  0  0  0  0  0  0
  141.4070  153.3680  133.7960 C   0  0  0  0  0  0  0  0  0  0  0  0
  141.0600  152.3210  132.7750 C   0  0  0  0  0  0  0  0  0  0  0  0
  139.9774  152.3478  132.5821 H   0  0  0  0  0  0  0  0  0  0  0  0
  141.6148  152.5292  131.8482 H   0  0  0  0  0  0  0  0  0  0  0  0
  141.4380  150.9630  133.2710 C   0  0  0  0  0  0  0  0  0  0  0  0
  142.1510  150.2050  132.5620 O   0  0  0  0  0  0  0  0  0  0  0  0
  140.9830  150.5220  134.5100 O   0  0  0  0  0  0  0  0  0  0  0  0
  140.7660  154.6250  133.7700 C   0  0  0  0  0  0  0  0  0  0  0  0
  140.0144  154.8599  133.0019 H   0  0  0  0  0  0  0  0  0  0  0  0
  141.1120  155.5640  134.7470 C   0  0  0  0  0  0  0  0  0  0  0  0
  140.6220  156.8090  134.9130 N   0  0  0  0  0  0  0  0  0  0  0  0
  139.6070  157.4230  134.1090 C   0  0  0  0  0  0  0  0  0  0  0  0
  138.5820  157.9070  134.6590 O   0  0  0  0  0  0  0  0  0  0  0  0
  139.8080  157.5950  132.6330 C   0  0  0  0  0  0  0  0  0  0  0  0
  138.9703  157.1272  132.0951 H   0  0  0  0  0  0  0  0  0  0  0  0
  140.7547  157.1170  132.3411 H   0  0  0  0  0  0  0  0  0  0  0  0
  139.8680  159.0610  132.2840 C   0  0  0  0  0  0  0  0  0  0  0  0
  140.8650  159.8030  132.6680 N   0  0  0  0  0  0  0  0  0  0  0  0
  141.9030  159.3070  133.4260 O   0  0  0  0  0  0  0  0  0  0  0  0
  142.9550  160.1600  133.8440 C   0  0  0  0  0  0  0  0  0  0  0  0
  142.9896  160.1880  134.9431 H   0  0  0  0  0  0  0  0  0  0  0  0
  143.9116  159.7793  133.4566 H   0  0  0  0  0  0  0  0  0  0  0  0
  142.7803  161.1746  133.4566 H   0  0  0  0  0  0  0  0  0  0  0  0
  138.8260  159.6600  131.4300 C   0  0  0  0  0  0  0  0  0  0  0  0
  137.7300  159.0630  131.2540 O   0  0  0  0  0  0  0  0  0  0  0  0
  139.0360  160.8920  130.8190 O   0  0  0  0  0  0  0  0  0  0  0  0
  1  2  1  0
  2  3  1  0
  3  4  2  0
  3  5  1  0
  5  6  2  0
  6  7  1  0
  6  8  1  0
  8  9  2  0
  9 10  1  0
  9 11  1  0
 11 12  1  0
 11 13  2  0
 13 14  1  0
 14 15  1  0
 14 16  1  0
 14 17  1  0
 17 18  2  0
 17 19  1  0
 13 20  1  0
 20 21  1  0
 20 22  2  0
 22 23  1  0
 23 24  1  0
 24 25  2  0
 24 26  1  0
 26 27  1  0
 26 28  1  0
 26 29  1  0
 29 30  2  0
 30 31  1  0
 31 32  1  0
 32 33  1  0
 32 34  1  0
 32 35  1  0
 29 36  1  0
 36 37  2  0
 36 38  1  0
 23  5  1  0
 22  8  1  0
M  CHG  3   2  -1  19  -1  38  -1
M  END
>  <UniqueID>  (63) 
63

>  <SMILES>  (63) 
CO/N=C(\CC(=O)n1c(C([NH-])=O)cc2ccc(CC(=O)[O-])cc21)C(=O)[O-]

>  <Energy>  (63) 
69.54574625309807

>  <Genealogy>  (63) 
CO/N=C(\CC(=O)n1c(C([NH-])=O)cc2ccc(CC(=O)[O-])cc21)C(=O)[O-] (protonated)
CO/N=C(\CC(=O)n1c(C([NH-])=O)cc2ccc(CC(=O)[O-])cc21)C(=O)[O-] (cis-trans isomerization)
CO/N=C(\CC(=O)n1c(C([NH-])=O)cc2ccc(CC(=O)[O-])cc21)C(=O)[O-] (3D coordinates assigned)
CO/N=C(\CC(=O)n1c(C([NH-])=O)cc2ccc(CC(=O)[O-])cc21)C(=O)[O-] (optimized conformer: 69.54574625309807 kcal/mol)

>  <smiles>  (63) 
CO/N=C(\CC(=O)n1c(C(N)=O)cc2ccc(CC(=O)O)cc21)C(=O)O

>  <score_type>  (63) 
oracle

>  <origin>  (63) 
adg

>  <m_score__min__energy>  (63) 
-6.9800000000000004

>  <m_primary>  (63) 
energy

$$$$
63:0
     RDKit          3D

 46 47  0  0  0  0  0  0  0  0999 V2000
  146.4040  152.2150  132.4050 C   0  0  0  0  0  0  0  0  0  0  0  0
  146.0900  153.2450  133.3990 N   0  0  0  0  0  0  0  0  0  0  0  0
  144.6830  153.5860  133.6520 C   0  0  0  0  0  0  0  0  0  0  0  0
  143.9640  153.9220  132.3470 C   0  0  0  0  0  0  0  0  0  0  0  0
  142.6460  154.3060  132.6240 O   0  0  0  0  0  0  0  0  0  0  0  0
  147.1820  153.9100  134.0740 C   0  0  0  0  0  0  0  0  0  0  0  0
  147.3410  153.7340  135.3130 O   0  0  0  0  0  0  0  0  0  0  0  0
  148.1370  154.8320  133.3610 C   0  0  0  0  0  0  0  0  0  0  0  0
  147.6050  156.2410  133.3770 C   0  0  0  0  0  0  0  0  0  0  0  0
  148.4860  157.3420  133.5200 C   0  0  0  0  0  0  0  0  0  0  0  0
  147.9900  158.6560  133.5570 C   0  0  0  0  0  0  0  0  0  0  0  0
  146.6130  158.8360  133.4690 C   0  0  0  0  0  0  0  0  0  0  0  0
  145.8680  159.9940  133.4620 C   0  0  0  0  0  0  0  0  0  0  0  0
  144.5420  159.5800  133.3510 C   0  0  0  0  0  0  0  0  0  0  0  0
  143.3960  160.5120  133.3960 C   0  0  0  0  0  0  0  0  0  0  0  0
  142.0920  160.0910  133.0070 N   0  0  0  0  0  0  0  0  0  0  0  0
  143.5620  161.6830  133.8320 O   0  0  0  0  0  0  0  0  0  0  0  0
  144.4690  158.2190  133.2830 N   0  0  0  0  0  0  0  0  0  0  0  0
  143.3040  157.4030  133.0830 C   0  0  0  0  0  0  0  0  0  0  0  0
  142.7230  157.3980  131.9630 O   0  0  0  0  0  0  0  0  0  0  0  0
  142.8460  156.5840  134.1220 O   0  0  0  0  0  0  0  0  0  0  0  0
  141.6780  156.8570  134.8960 C   0  0  0  0  0  0  0  0  0  0  0  0
  140.4220  156.8110  134.0270 C   0  0  0  0  0  0  0  0  0  0  0  0
  140.5730  155.8840  132.9860 O   0  0  0  0  0  0  0  0  0  0  0  0
  145.7440  157.7800  133.3590 C   0  0  0  0  0  0  0  0  0  0  0  0
  146.2140  156.4640  133.2950 C   0  0  0  0  0  0  0  0  0  0  0  0
  146.6877  151.2844  132.9183 H   0  0  0  0  0  0  0  0  0  0  0  0
  145.5209  152.0318  131.7753 H   0  0  0  0  0  0  0  0  0  0  0  0
  147.2391  152.5556  131.7753 H   0  0  0  0  0  0  0  0  0  0  0  0
  144.1842  152.7292  134.1285 H   0  0  0  0  0  0  0  0  0  0  0  0
  144.6462  154.4654  134.3117 H   0  0  0  0  0  0  0  0  0  0  0  0
  144.4876  154.7472  131.8421 H   0  0  0  0  0  0  0  0  0  0  0  0
  143.9578  153.0367  131.6941 H   0  0  0  0  0  0  0  0  0  0  0  0
  142.5890  155.2710  132.4050 H   0  0  0  0  0  0  0  0  0  0  0  0
  149.1136  154.8060  133.8665 H   0  0  0  0  0  0  0  0  0  0  0  0
  148.2466  154.5003  132.3179 H   0  0  0  0  0  0  0  0  0  0  0  0
  149.5687  157.1660  133.6028 H   0  0  0  0  0  0  0  0  0  0  0  0
  148.6693  159.5159  133.6526 H   0  0  0  0  0  0  0  0  0  0  0  0
  146.2405  161.0268  133.5297 H   0  0  0  0  0  0  0  0  0  0  0  0
  141.9560  159.4110  132.2280 H   0  0  0  0  0  0  0  0  0  0  0  0
  141.5912  156.1046  135.6938 H   0  0  0  0  0  0  0  0  0  0  0  0
  141.7701  157.8654  135.3256 H   0  0  0  0  0  0  0  0  0  0  0  0
  139.5631  156.5187  134.6490 H   0  0  0  0  0  0  0  0  0  0  0  0
  140.2566  157.8076  133.5917 H   0  0  0  0  0  0  0  0  0  0  0  0
  141.4420  156.0810  132.5490 H   0  0  0  0  0  0  0  0  0  0  0  0
  145.5151  155.6220  133.1833 H   0  0  0  0  0  0  0  0  0  0  0  0
  1  2  1  0
  2  3  1  0
  3  4  1  0
  4  5  1  0
  2  6  1  0
  6  7  2  0
  6  8  1  0
  8  9  1  0
  9 10  2  0
 10 11  1  0
 11 12  2  0
 12 13  1  0
 13 14  2  0
 14 15  1  0
 15 16  1  0
 15 17  2  0
 14 18  1  0
 18 19  1  0
 19 20  2  0
 19 21  1  0
 21 22  1  0
 22 23  1  0
 23 24  1  0
 18 25  1  0
 25 26  2  0
 26  9  1  0
 25 12  1  0
  1 27  1  0
  1 28  1  0
  1 29  1  0
  3 30  1  0
  3 31  1  0
  4 32  1  0
  4 33  1  0
  5 34  1  0
  8 35  1  0
  8 36  1  0
 10 37  1  0
 11 38  1  0
 13 39  1  0
 16 40  1  0
 22 41  1  0
 22 42  1  0
 23 43  1  0
 23 44  1  0
 24 45  1  0
 26 46  1  0
M  CHG  1  16  -1
M  END
>  <UniqueID>  (64) 
64

>  <SMILES>  (64) 
CN(CCO)C(=O)Cc1ccc2cc(C([NH-])=O)n(C(=O)OCCO)c2c1

>  <Energy>  (64) 
77.33386031503905

>  <Genealogy>  (64) 
CN(CCO)C(=O)Cc1ccc2cc(C([NH-])=O)n(C(=O)OCCO)c2c1 (protonated)
CN(CCO)C(=O)Cc1ccc2cc(C([NH-])=O)n(C(=O)OCCO)c2c1 (3D coordinates assigned)
CN(CCO)C(=O)Cc1ccc2cc(C([NH-])=O)n(C(=O)OCCO)c2c1 (optimized conformer: 77.33386031503905 kcal/mol)

>  <smiles>  (64) 
CN(CCO)C(=O)Cc1ccc2cc(C(N)=O)n(C(=O)OCCO)c2c1

>  <score_type>  (64) 
oracle

>  <origin>  (64) 
adg

>  <m_score__min__energy>  (64) 
-6.21

>  <m_primary>  (64) 
energy

$$$$
64:0
     RDKit          3D

 44 45  0  0  0  0  0  0  0  0999 V2000
  139.9950  154.7930  139.0360 C   0  0  0  0  0  0  0  0  0  0  0  0
  140.9120  154.6410  137.8870 N   0  0  0  0  0  0  0  0  0  0  0  0
  141.7890  153.4680  138.0850 C   0  0  0  0  0  0  0  0  0  0  0  0
  141.0160  152.1980  137.9000 C   0  0  0  0  0  0  0  0  0  0  0  0
  140.9730  151.6430  136.7710 O   0  0  0  0  0  0  0  0  0  0  0  0
  140.3430  151.6280  138.9730 O   0  0  0  0  0  0  0  0  0  0  0  0
  141.7290  155.8620  137.7200 C   0  0  0  0  0  0  0  0  0  0  0  0
  140.9150  156.9760  137.1360 C   0  0  0  0  0  0  0  0  0  0  0  0
  139.9440  156.7110  136.3770 O   0  0  0  0  0  0  0  0  0  0  0  0
  141.2620  158.3010  137.4170 O   0  0  0  0  0  0  0  0  0  0  0  0
  141.3710  159.3050  136.4110 C   0  0  0  0  0  0  0  0  0  0  0  0
  142.4880  159.0440  135.5650 O   0  0  0  0  0  0  0  0  0  0  0  0
  142.3570  158.7390  134.2050 C   0  0  0  0  0  0  0  0  0  0  0  0
  142.8690  159.4870  133.3290 O   0  0  0  0  0  0  0  0  0  0  0  0
  141.6790  157.5390  133.8110 N   0  0  0  0  0  0  0  0  0  0  0  0
  140.4640  157.4230  133.2070 C   0  0  0  0  0  0  0  0  0  0  0  0
  139.6440  158.5370  132.6830 C   0  0  0  0  0  0  0  0  0  0  0  0
  140.2520  159.6940  132.1180 N   0  0  0  0  0  0  0  0  0  0  0  0
  138.3880  158.4540  132.7100 O   0  0  0  0  0  0  0  0  0  0  0  0
  140.1080  156.0810  133.0880 C   0  0  0  0  0  0  0  0  0  0  0  0
  141.1500  155.3760  133.6470 C   0  0  0  0  0  0  0  0  0  0  0  0
  141.3160  154.0050  133.8190 C   0  0  0  0  0  0  0  0  0  0  0  0
  142.4760  153.5590  134.4760 C   0  0  0  0  0  0  0  0  0  0  0  0
  143.4330  154.4840  134.9690 C   0  0  0  0  0  0  0  0  0  0  0  0
  144.6770  153.9950  135.6640 C   0  0  0  0  0  0  0  0  0  0  0  0
  144.3590  153.3980  136.8720 F   0  0  0  0  0  0  0  0  0  0  0  0
  145.5210  155.0640  135.8990 F   0  0  0  0  0  0  0  0  0  0  0  0
  145.3360  153.0620  134.8820 F   0  0  0  0  0  0  0  0  0  0  0  0
  143.2420  155.8680  134.7460 C   0  0  0  0  0  0  0  0  0  0  0  0
  142.0840  156.2800  134.0770 C   0  0  0  0  0  0  0  0  0  0  0  0
  140.5629  154.6989  139.9733 H   0  0  0  0  0  0  0  0  0  0  0  0
  139.5166  155.7827  138.9949 H   0  0  0  0  0  0  0  0  0  0  0  0
  139.2229  154.0106  138.9949 H   0  0  0  0  0  0  0  0  0  0  0  0
  142.6098  153.5021  137.3535 H   0  0  0  0  0  0  0  0  0  0  0  0
  142.1918  153.4936  139.1083 H   0  0  0  0  0  0  0  0  0  0  0  0
  142.1143  156.1743  138.7019 H   0  0  0  0  0  0  0  0  0  0  0  0
  142.5593  155.6375  137.0343 H   0  0  0  0  0  0  0  0  0  0  0  0
  140.4524  159.3125  135.8059 H   0  0  0  0  0  0  0  0  0  0  0  0
  141.5128  160.2817  136.8967 H   0  0  0  0  0  0  0  0  0  0  0  0
  141.2660  159.7030  131.8700 H   0  0  0  0  0  0  0  0  0  0  0  0
  139.1894  155.6718  132.6421 H   0  0  0  0  0  0  0  0  0  0  0  0
  140.5627  153.2923  133.4521 H   0  0  0  0  0  0  0  0  0  0  0  0
  142.6440  152.4802  134.6096 H   0  0  0  0  0  0  0  0  0  0  0  0
  143.9855  156.6021  135.0900 H   0  0  0  0  0  0  0  0  0  0  0  0
  1  2  1  0
  2  3  1  0
  3  4  1  0
  4  5  2  0
  4  6  1  0
  2  7  1  0
  7  8  1  0
  8  9  2  0
  8 10  1  0
 10 11  1  0
 11 12  1  0
 12 13  1  0
 13 14  2  0
 13 15  1  0
 15 16  1  0
 16 17  1  0
 17 18  1  0
 17 19  2  0
 16 20  2  0
 20 21  1  0
 21 22  2  0
 22 23  1  0
 23 24  2  0
 24 25  1  0
 25 26  1  0
 25 27  1  0
 25 28  1  0
 24 29  1  0
 29 30  2  0
 30 15  1  0
 30 21  1  0
  1 31  1  0
  1 32  1  0
  1 33  1  0
  3 34  1  0
  3 35  1  0
  7 36  1  0
  7 37  1  0
 11 38  1  0
 11 39  1  0
 18 40  1  0
 20 41  1  0
 22 42  1  0
 23 43  1  0
 29 44  1  0
M  CHG  2   6  -1  18  -1
M  END
>  <UniqueID>  (65) 
65

>  <SMILES>  (65) 
CN(CC(=O)[O-])CC(=O)OCOC(=O)n1c(C([NH-])=O)cc2ccc(C(F)(F)F)cc21

>  <Energy>  (65) 
80.62692086486402

>  <Genealogy>  (65) 
CN(CC(=O)[O-])CC(=O)OCOC(=O)n1c(C([NH-])=O)cc2ccc(C(F)(F)F)cc21 (protonated)
CN(CC(=O)[O-])CC(=O)OCOC(=O)n1c(C([NH-])=O)cc2ccc(C(F)(F)F)cc21 (3D coordinates assigned)
CN(CC(=O)[O-])CC(=O)OCOC(=O)n1c(C([NH-])=O)cc2ccc(C(F)(F)F)cc21 (optimized conformer: 80.62692086486402 kcal/mol)

>  <smiles>  (65) 
CN(CC(=O)O)CC(=O)OCOC(=O)n1c(C(N)=O)cc2ccc(C(F)(F)F)cc21

>  <score_type>  (65) 
oracle

>  <origin>  (65) 
adg

>  <m_score__min__energy>  (65) 
-6.29

>  <m_primary>  (65) 
energy

$$$$
65:0
     RDKit          3D

 37 39  0  0  0  0  0  0  0  0999 V2000
  149.9490  158.2750  132.5470 N   0  0  0  0  0  0  0  0  0  0  0  0
  149.0540  159.3520  132.2710 C   0  0  0  0  0  0  0  0  0  0  0  0
  149.4440  160.3090  131.5500 O   0  0  0  0  0  0  0  0  0  0  0  0
  147.6600  159.3360  132.7600 C   0  0  0  0  0  0  0  0  0  0  0  0
  146.9330  160.4890  133.0390 C   0  0  0  0  0  0  0  0  0  0  0  0
  145.6790  160.0500  133.3990 C   0  0  0  0  0  0  0  0  0  0  0  0
  144.5540  160.7730  133.7780 C   0  0  0  0  0  0  0  0  0  0  0  0
  143.3970  160.0570  134.1260 C   0  0  0  0  0  0  0  0  0  0  0  0
  143.3900  158.6390  134.1170 C   0  0  0  0  0  0  0  0  0  0  0  0
  142.1320  157.8830  134.4590 C   0  0  0  0  0  0  0  0  0  0  0  0
  142.4330  156.6080  134.9060 F   0  0  0  0  0  0  0  0  0  0  0  0
  141.4240  158.5350  135.4540 F   0  0  0  0  0  0  0  0  0  0  0  0
  141.3380  157.7880  133.3300 F   0  0  0  0  0  0  0  0  0  0  0  0
  144.5490  157.9400  133.7040 C   0  0  0  0  0  0  0  0  0  0  0  0
  145.6820  158.6800  133.3420 C   0  0  0  0  0  0  0  0  0  0  0  0
  146.8950  158.2250  132.9530 N   0  0  0  0  0  0  0  0  0  0  0  0
  147.3190  156.8530  132.8840 C   0  0  0  0  0  0  0  0  0  0  0  0
  147.0880  156.1750  131.8470 O   0  0  0  0  0  0  0  0  0  0  0  0
  147.9530  156.2480  134.0190 N   0  0  0  0  0  0  0  0  0  0  0  0
  147.3540  155.3210  134.9350 C   0  0  0  0  0  0  0  0  0  0  0  0
  146.1500  154.6590  134.6450 C   0  0  0  0  0  0  0  0  0  0  0  0
  145.6310  153.7450  135.5630 C   0  0  0  0  0  0  0  0  0  0  0  0
  146.2960  153.4880  136.7200 N   0  0  0  0  0  0  0  0  0  0  0  0
  147.4750  154.0960  137.0240 C   0  0  0  0  0  0  0  0  0  0  0  0
  148.1540  153.7710  138.2910 C   0  0  0  0  0  0  0  0  0  0  0  0
  147.6320  154.0980  139.3890 O   0  0  0  0  0  0  0  0  0  0  0  0
  149.3730  153.1020  138.2910 O   0  0  0  0  0  0  0  0  0  0  0  0
  148.0280  155.0200  136.1240 C   0  0  0  0  0  0  0  0  0  0  0  0
  150.9430  158.3250  132.2320 H   0  0  0  0  0  0  0  0  0  0  0  0
  149.6110  157.3940  132.9950 H   0  0  0  0  0  0  0  0  0  0  0  0
  147.2852  161.5296  132.9837 H   0  0  0  0  0  0  0  0  0  0  0  0
  144.5694  161.8726  133.8046 H   0  0  0  0  0  0  0  0  0  0  0  0
  142.4849  160.6029  134.4091 H   0  0  0  0  0  0  0  0  0  0  0  0
  144.5600  156.8406  133.6680 H   0  0  0  0  0  0  0  0  0  0  0  0
  145.6203  154.8592  133.7020 H   0  0  0  0  0  0  0  0  0  0  0  0
  144.6818  153.2316  135.3497 H   0  0  0  0  0  0  0  0  0  0  0  0
  148.9880  155.5060  136.3524 H   0  0  0  0  0  0  0  0  0  0  0  0
  1  2  1  0
  2  3  2  0
  2  4  1  0
  4  5  2  0
  5  6  1  0
  6  7  2  0
  7  8  1  0
  8  9  2  0
  9 10  1  0
 10 11  1  0
 10 12  1  0
 10 13  1  0
  9 14  1  0
 14 15  2  0
 15 16  1  0
 16 17  1  0
 17 18  2  0
 17 19  1  0
 19 20  1  0
 20 21  2  0
 21 22  1  0
 22 23  2  0
 23 24  1  0
 24 25  1  0
 25 26  2  0
 25 27  1  0
 24 28  2  0
 16  4  1  0
 28 20  1  0
 15  6  1  0
  1 29  1  0
  1 30  1  0
  5 31  1  0
  7 32  1  0
  8 33  1  0
 14 34  1  0
 21 35  1  0
 22 36  1  0
 28 37  1  0
M  CHG  2  19  -1  27  -1
M  END
>  <UniqueID>  (66) 
66

>  <SMILES>  (66) 
NC(=O)c1cc2ccc(C(F)(F)F)cc2n1C(=O)[N-]c1ccnc(C(=O)[O-])c1

>  <Energy>  (66) 
83.79988611675817

>  <Genealogy>  (66) 
NC(=O)c1cc2ccc(C(F)(F)F)cc2n1C(=O)[N-]c1ccnc(C(=O)[O-])c1 (protonated)
NC(=O)c1cc2ccc(C(F)(F)F)cc2n1C(=O)[N-]c1ccnc(C(=O)[O-])c1 (3D coordinates assigned)
NC(=O)c1cc2ccc(C(F)(F)F)cc2n1C(=O)[N-]c1ccnc(C(=O)[O-])c1 (optimized conformer: 83.79988611675817 kcal/mol)

>  <smiles>  (66) 
NC(=O)c1cc2ccc(C(F)(F)F)cc2n1C(=O)Nc1ccnc(C(=O)O)c1

>  <score_type>  (66) 
oracle

>  <origin>  (66) 
adg

>  <m_score__min__energy>  (66) 
-7.6900000000000004

>  <m_primary>  (66) 
energy

$$$$
66:0
     RDKit          3D

 34 35  0  0  0  0  0  0  0  0999 V2000
  141.3570  159.9310  133.7340 C   0  0  0  0  0  0  0  0  0  0  0  0
  141.3660  159.1250  134.9990 C   0  0  0  0  0  0  0  0  0  0  0  0
  140.9830  159.7230  136.2250 C   0  0  0  0  0  0  0  0  0  0  0  0
  140.9570  158.9700  137.4120 C   0  0  0  0  0  0  0  0  0  0  0  0
  141.3000  157.6230  137.3370 C   0  0  0  0  0  0  0  0  0  0  0  0
  141.3780  156.6680  138.3260 C   0  0  0  0  0  0  0  0  0  0  0  0
  141.7800  155.4990  137.6810 C   0  0  0  0  0  0  0  0  0  0  0  0
  141.9650  154.2010  138.3610 C   0  0  0  0  0  0  0  0  0  0  0  0
  143.2410  153.5640  138.3420 N   0  0  0  0  0  0  0  0  0  0  0  0
  141.0110  153.6520  138.9730 O   0  0  0  0  0  0  0  0  0  0  0  0
  141.9330  155.7230  136.3470 N   0  0  0  0  0  0  0  0  0  0  0  0
  142.3890  154.7960  135.3490 C   0  0  0  0  0  0  0  0  0  0  0  0
  141.5420  154.2220  134.6140 O   0  0  0  0  0  0  0  0  0  0  0  0
  143.8300  154.5010  135.1810 C   0  0  0  0  0  0  0  0  0  0  0  0
  144.4830  154.4340  133.6730 S   0  0  0  0  0  0  0  0  0  0  0  0
  144.6830  154.3390  136.3320 N   0  0  0  0  0  0  0  0  0  0  0  0
  146.0700  154.6670  135.9790 C   0  0  0  0  0  0  0  0  0  0  0  0
  147.0210  153.7510  136.6860 C   0  0  0  0  0  0  0  0  0  0  0  0
  146.6120  152.6610  137.1680 O   0  0  0  0  0  0  0  0  0  0  0  0
  148.3470  154.1250  136.8600 O   0  0  0  0  0  0  0  0  0  0  0  0
  141.6460  157.0260  136.1530 C   0  0  0  0  0  0  0  0  0  0  0  0
  141.6950  157.7530  134.9590 C   0  0  0  0  0  0  0  0  0  0  0  0
  141.3450  161.0026  133.9821 H   0  0  0  0  0  0  0  0  0  0  0  0
  142.2578  159.7008  133.1461 H   0  0  0  0  0  0  0  0  0  0  0  0
  140.4616  159.6807  133.1461 H   0  0  0  0  0  0  0  0  0  0  0  0
  140.7033  160.7866  136.2484 H   0  0  0  0  0  0  0  0  0  0  0  0
  140.6744  159.4309  138.3700 H   0  0  0  0  0  0  0  0  0  0  0  0
  141.1678  156.7995  139.3977 H   0  0  0  0  0  0  0  0  0  0  0  0
  144.1180  154.1220  138.2500 H   0  0  0  0  0  0  0  0  0  0  0  0
  144.6310  153.3500  136.6730 H   0  0  0  0  0  0  0  0  0  0  0  0
  144.3520  154.9640  137.1040 H   0  0  0  0  0  0  0  0  0  0  0  0
  146.2026  154.5582  134.8925 H   0  0  0  0  0  0  0  0  0  0  0  0
  146.2798  155.7027  136.2843 H   0  0  0  0  0  0  0  0  0  0  0  0
  141.9823  157.2685  134.0142 H   0  0  0  0  0  0  0  0  0  0  0  0
  1  2  1  0
  2  3  2  0
  3  4  1  0
  4  5  2  0
  5  6  1  0
  6  7  2  0
  7  8  1  0
  8  9  1  0
  8 10  2  0
  7 11  1  0
 11 12  1  0
 12 13  2  0
 12 14  1  0
 14 15  2  0
 14 16  1  0
 16 17  1  0
 17 18  1  0
 18 19  2  0
 18 20  1  0
 11 21  1  0
 21 22  2  0
 22  2  1  0
 21  5  1  0
  1 23  1  0
  1 24  1  0
  1 25  1  0
  3 26  1  0
  4 27  1  0
  6 28  1  0
  9 29  1  0
 16 30  1  0
 16 31  1  0
 17 32  1  0
 17 33  1  0
 22 34  1  0
M  CHG  3   9  -1  16   1  20  -1
M  END
>  <UniqueID>  (67) 
67

>  <SMILES>  (67) 
Cc1ccc2cc(C([NH-])=O)n(C(=O)C(=S)[NH2+]CC(=O)[O-])c2c1

>  <Energy>  (67) 
71.85264706172659

>  <Genealogy>  (67) 
Cc1ccc2cc(C([NH-])=O)n(C(=O)C(=S)[NH2+]CC(=O)[O-])c2c1 (protonated)
Cc1ccc2cc(C([NH-])=O)n(C(=O)C(=S)[NH2+]CC(=O)[O-])c2c1 (3D coordinates assigned)
Cc1ccc2cc(C([NH-])=O)n(C(=O)C(=S)[NH2+]CC(=O)[O-])c2c1 (optimized conformer: 71.85264706172659 kcal/mol)

>  <smiles>  (67) 
Cc1ccc2cc(C(N)=O)n(C(=O)C(=S)NCC(=O)O)c2c1

>  <score_type>  (67) 
oracle

>  <origin>  (67) 
adg

>  <m_score__min__energy>  (67) 
-6.5099999999999998

>  <m_primary>  (67) 
energy

$$$$
67:0
     RDKit          3D

 55 56  0  0  0  0  0  0  0  0999 V2000
  144.8670  161.5180  133.9920 C   0  0  0  0  0  0  0  0  0  0  0  0
  145.6190  160.6060  133.7490 C   0  0  0  0  0  0  0  0  0  0  0  0
  146.5180  159.5180  133.4610 C   0  0  0  0  0  0  0  0  0  0  0  0
  147.7780  159.7790  132.8700 C   0  0  0  0  0  0  0  0  0  0  0  0
  148.6560  158.7230  132.5670 C   0  0  0  0  0  0  0  0  0  0  0  0
  148.2430  157.4250  132.8630 C   0  0  0  0  0  0  0  0  0  0  0  0
  148.8610  156.2170  132.6240 C   0  0  0  0  0  0  0  0  0  0  0  0
  147.9650  155.2470  133.0770 C   0  0  0  0  0  0  0  0  0  0  0  0
  148.2260  153.7910  133.0640 C   0  0  0  0  0  0  0  0  0  0  0  0
  147.1830  152.8570  133.3480 N   0  0  0  0  0  0  0  0  0  0  0  0
  149.3750  153.3610  132.7800 O   0  0  0  0  0  0  0  0  0  0  0  0
  146.8430  155.8370  133.5770 N   0  0  0  0  0  0  0  0  0  0  0  0
  145.6420  155.2000  134.0330 C   0  0  0  0  0  0  0  0  0  0  0  0
  145.3900  155.1820  135.2680 O   0  0  0  0  0  0  0  0  0  0  0  0
  144.6670  154.6080  133.0360 C   0  0  2  0  0  0  0  0  0  0  0  0
  143.6000  155.6340  132.5910 C   0  0  0  0  0  0  0  0  0  0  0  0
  142.8760  156.2720  133.7590 C   0  0  0  0  0  0  0  0  0  0  0  0
  143.3070  157.3690  134.2100 O   0  0  0  0  0  0  0  0  0  0  0  0
  141.6830  155.6870  134.3340 N   0  0  0  0  0  0  0  0  0  0  0  0
  140.7000  154.9910  133.4960 C   0  0  0  0  0  0  0  0  0  0  0  0
  141.4170  155.8400  135.7740 C   0  0  0  0  0  0  0  0  0  0  0  0
  142.4950  155.1470  136.6120 C   0  0  0  0  0  0  0  0  0  0  0  0
  142.8530  153.9210  136.0370 O   0  0  0  0  0  0  0  0  0  0  0  0
  144.0300  153.3960  133.5620 N   0  0  0  0  0  0  0  0  0  0  0  0
  144.0970  152.0790  132.9880 C   0  0  0  0  0  0  0  0  0  0  0  0
  145.1920  151.6320  132.5490 O   0  0  0  0  0  0  0  0  0  0  0  0
  142.9090  151.2690  132.9100 N   0  0  0  0  0  0  0  0  0  0  0  0
  141.6570  151.7650  133.4870 C   0  0  0  0  0  0  0  0  0  0  0  0
  142.9670  149.9570  132.2600 C   0  0  0  0  0  0  0  0  0  0  0  0
  147.0270  157.1650  133.4430 C   0  0  0  0  0  0  0  0  0  0  0  0
  146.1330  158.1940  133.7550 C   0  0  0  0  0  0  0  0  0  0  0  0
  144.1815  162.3493  134.2135 H   0  0  0  0  0  0  0  0  0  0  0  0
  148.0722  160.8151  132.6463 H   0  0  0  0  0  0  0  0  0  0  0  0
  149.6382  158.9154  132.1106 H   0  0  0  0  0  0  0  0  0  0  0  0
  149.8503  156.0519  132.1722 H   0  0  0  0  0  0  0  0  0  0  0  0
  147.3720  151.8320  133.2910 H   0  0  0  0  0  0  0  0  0  0  0  0
  146.2440  153.1730  133.6740 H   0  0  0  0  0  0  0  0  0  0  0  0
  145.2532  154.3298  132.1478 H   0  0  0  0  0  0  0  0  0  0  0  0
  144.0948  156.4257  132.0093 H   0  0  0  0  0  0  0  0  0  0  0  0
  142.8515  155.0947  131.9919 H   0  0  0  0  0  0  0  0  0  0  0  0
  139.9710  154.4748  134.1379 H   0  0  0  0  0  0  0  0  0  0  0  0
  140.1771  155.7212  132.8609 H   0  0  0  0  0  0  0  0  0  0  0  0
  141.2150  154.2552  132.8609 H   0  0  0  0  0  0  0  0  0  0  0  0
  141.4011  156.9110  136.0243 H   0  0  0  0  0  0  0  0  0  0  0  0
  140.4464  155.3747  136.0007 H   0  0  0  0  0  0  0  0  0  0  0  0
  143.3828  155.7942  136.6659 H   0  0  0  0  0  0  0  0  0  0  0  0
  142.0968  154.9632  137.6208 H   0  0  0  0  0  0  0  0  0  0  0  0
  143.5280  154.1170  135.3430 H   0  0  0  0  0  0  0  0  0  0  0  0
  141.7234  151.7387  134.5847 H   0  0  0  0  0  0  0  0  0  0  0  0
  141.4846  152.7994  133.1548 H   0  0  0  0  0  0  0  0  0  0  0  0
  140.8230  151.1293  133.1548 H   0  0  0  0  0  0  0  0  0  0  0  0
  143.0018  149.1691  133.0268 H   0  0  0  0  0  0  0  0  0  0  0  0
  142.0741  149.8188  131.6326 H   0  0  0  0  0  0  0  0  0  0  0  0
  143.8686  149.8982  131.6326 H   0  0  0  0  0  0  0  0  0  0  0  0
  145.1582  157.9769  134.2162 H   0  0  0  0  0  0  0  0  0  0  0  0
  1  2  3  0
  2  3  1  0
  3  4  2  0
  4  5  1  0
  5  6  2  0
  6  7  1  0
  7  8  2  0
  8  9  1  0
  9 10  1  0
  9 11  2  0
  8 12  1  0
 12 13  1  0
 13 14  2  0
 13 15  1  0
 15 16  1  0
 16 17  1  0
 17 18  2  0
 17 19  1  0
 19 20  1  0
 19 21  1  0
 21 22  1  0
 22 23  1  0
 15 24  1  0
 24 25  1  0
 25 26  2  0
 25 27  1  0
 27 28  1  0
 27 29  1  0
 12 30  1  0
 30 31  2  0
 31  3  1  0
 30  6  1  0
  1 32  1  0
  4 33  1  0
  5 34  1  0
  7 35  1  0
 10 36  1  0
 10 37  1  0
 15 38  1  6
 16 39  1  0
 16 40  1  0
 20 41  1  0
 20 42  1  0
 20 43  1  0
 21 44  1  0
 21 45  1  0
 22 46  1  0
 22 47  1  0
 23 48  1  0
 28 49  1  0
 28 50  1  0
 28 51  1  0
 29 52  1  0
 29 53  1  0
 29 54  1  0
 31 55  1  0
M  CHG  1  24  -1
M  END
>  <UniqueID>  (68) 
68

>  <SMILES>  (68) 
C#Cc1ccc2cc(C(N)=O)n(C(=O)[C@H](CC(=O)N(C)CCO)[N-]C(=O)N(C)C)c2c1

>  <Energy>  (68) 
80.83281312268562

>  <Genealogy>  (68) 
C#Cc1ccc2cc(C(N)=O)n(C(=O)[C@H](CC(=O)N(C)CCO)[N-]C(=O)N(C)C)c2c1 (protonated)
C#Cc1ccc2cc(C(N)=O)n(C(=O)[C@H](CC(=O)N(C)CCO)[N-]C(=O)N(C)C)c2c1 (3D coordinates assigned)
C#Cc1ccc2cc(C(N)=O)n(C(=O)[C@H](CC(=O)N(C)CCO)[N-]C(=O)N(C)C)c2c1 (optimized conformer: 80.83281312268562 kcal/mol)

>  <smiles>  (68) 
C#Cc1ccc2cc(C(N)=O)n(C(=O)[C@H](CC(=O)N(C)CCO)NC(=O)N(C)C)c2c1

>  <score_type>  (68) 
oracle

>  <origin>  (68) 
adg

>  <m_score__min__energy>  (68) 
-7.7400000000000002

>  <m_primary>  (68) 
energy

$$$$
68:0
     RDKit          3D

 53 54  0  0  0  0  0  0  0  0999 V2000
  141.5700  156.7620  133.4560 C   0  0  0  0  0  0  0  0  0  0  0  0
  140.7440  155.6930  134.0420 N   0  0  0  0  0  0  0  0  0  0  0  0
  139.8520  155.1390  133.0100 C   0  0  0  0  0  0  0  0  0  0  0  0
  141.5940  154.6230  134.6120 C   0  0  0  0  0  0  0  0  0  0  0  0
  141.4060  153.3010  133.8570 C   0  0  0  0  0  0  0  0  0  0  0  0
  142.4040  152.2270  134.3200 C   0  0  0  0  0  0  0  0  0  0  0  0
  143.0880  151.6270  133.1620 N   0  0  0  0  0  0  0  0  0  0  0  0
  142.5910  150.3540  132.6330 C   0  0  0  0  0  0  0  0  0  0  0  0
  144.2970  152.1950  132.5980 C   0  0  0  0  0  0  0  0  0  0  0  0
  145.3660  151.5260  132.6140 O   0  0  0  0  0  0  0  0  0  0  0  0
  144.3330  153.5740  132.0000 C   0  0  0  0  0  0  0  0  0  0  0  0
  144.1740  154.5620  133.0570 N   0  0  0  0  0  0  0  0  0  0  0  0
  145.2150  154.9290  133.9650 C   0  0  0  0  0  0  0  0  0  0  0  0
  145.2420  154.4440  135.1290 O   0  0  0  0  0  0  0  0  0  0  0  0
  146.2660  155.8030  133.5240 N   0  0  0  0  0  0  0  0  0  0  0  0
  147.5650  155.4750  133.2780 C   0  0  0  0  0  0  0  0  0  0  0  0
  148.0970  154.0950  133.2050 C   0  0  0  0  0  0  0  0  0  0  0  0
  147.2790  152.9740  133.5380 N   0  0  0  0  0  0  0  0  0  0  0  0
  149.2940  153.8980  132.8690 O   0  0  0  0  0  0  0  0  0  0  0  0
  148.3220  156.6220  133.0420 C   0  0  0  0  0  0  0  0  0  0  0  0
  147.4390  157.6710  133.1630 C   0  0  0  0  0  0  0  0  0  0  0  0
  147.6610  159.0410  133.0720 C   0  0  0  0  0  0  0  0  0  0  0  0
  146.5750  159.9020  133.3060 C   0  0  0  0  0  0  0  0  0  0  0  0
  145.2990  159.3840  133.6530 C   0  0  0  0  0  0  0  0  0  0  0  0
  144.1400  160.3220  133.8780 C   0  0  0  0  0  0  0  0  0  0  0  0
  143.1280  160.0680  132.9700 F   0  0  0  0  0  0  0  0  0  0  0  0
  144.5340  161.6390  133.7260 F   0  0  0  0  0  0  0  0  0  0  0  0
  143.6530  160.1430  135.1590 F   0  0  0  0  0  0  0  0  0  0  0  0
  145.1090  157.9830  133.7080 C   0  0  0  0  0  0  0  0  0  0  0  0
  146.2040  157.1510  133.4510 C   0  0  0  0  0  0  0  0  0  0  0  0
  142.0280  157.3548  134.2615 H   0  0  0  0  0  0  0  0  0  0  0  0
  142.3602  156.3157  132.8344 H   0  0  0  0  0  0  0  0  0  0  0  0
  140.9388  157.4140  132.8344 H   0  0  0  0  0  0  0  0  0  0  0  0
  139.0123  154.6175  133.4926 H   0  0  0  0  0  0  0  0  0  0  0  0
  139.4648  155.9558  132.3831 H   0  0  0  0  0  0  0  0  0  0  0  0
  140.4125  154.4298  132.3831 H   0  0  0  0  0  0  0  0  0  0  0  0
  142.6486  154.9282  134.5433 H   0  0  0  0  0  0  0  0  0  0  0  0
  141.3014  154.4686  135.6611 H   0  0  0  0  0  0  0  0  0  0  0  0
  140.3836  152.9346  134.0313 H   0  0  0  0  0  0  0  0  0  0  0  0
  141.5832  153.4916  132.7882 H   0  0  0  0  0  0  0  0  0  0  0  0
  143.1509  152.6882  134.9829 H   0  0  0  0  0  0  0  0  0  0  0  0
  141.8559  151.4393  134.8576 H   0  0  0  0  0  0  0  0  0  0  0  0
  142.3305  149.6867  133.4678 H   0  0  0  0  0  0  0  0  0  0  0  0
  141.6981  150.5365  132.0171 H   0  0  0  0  0  0  0  0  0  0  0  0
  143.3714  149.8832  132.0171 H   0  0  0  0  0  0  0  0  0  0  0  0
  145.2971  153.7297  131.4937 H   0  0  0  0  0  0  0  0  0  0  0  0
  143.5163  153.6804  131.2708 H   0  0  0  0  0  0  0  0  0  0  0  0
  147.6790  152.0100  133.5120 H   0  0  0  0  0  0  0  0  0  0  0  0
  146.2730  153.0880  133.7960 H   0  0  0  0  0  0  0  0  0  0  0  0
  149.3956  156.6768  132.8089 H   0  0  0  0  0  0  0  0  0  0  0  0
  148.6563  159.4386  132.8244 H   0  0  0  0  0  0  0  0  0  0  0  0
  146.7150  160.9896  133.2194 H   0  0  0  0  0  0  0  0  0  0  0  0
  144.1231  157.5578  133.9473 H   0  0  0  0  0  0  0  0  0  0  0  0
  1  2  1  0
  2  3  1  0
  2  4  1  0
  4  5  1  0
  5  6  1  0
  6  7  1  0
  7  8  1  0
  7  9  1  0
  9 10  2  0
  9 11  1  0
 11 12  1  0
 12 13  1  0
 13 14  2  0
 13 15  1  0
 15 16  1  0
 16 17  1  0
 17 18  1  0
 17 19  2  0
 16 20  2  0
 20 21  1  0
 21 22  2  0
 22 23  1  0
 23 24  2  0
 24 25  1  0
 25 26  1  0
 25 27  1  0
 25 28  1  0
 24 29  1  0
 29 30  2  0
 30 15  1  0
 30 21  1  0
  1 31  1  0
  1 32  1  0
  1 33  1  0
  3 34  1  0
  3 35  1  0
  3 36  1  0
  4 37  1  0
  4 38  1  0
  5 39  1  0
  5 40  1  0
  6 41  1  0
  6 42  1  0
  8 43  1  0
  8 44  1  0
  8 45  1  0
 11 46  1  0
 11 47  1  0
 18 48  1  0
 18 49  1  0
 20 50  1  0
 22 51  1  0
 23 52  1  0
 29 53  1  0
M  CHG  1  12  -1
M  END
>  <UniqueID>  (69) 
69

>  <SMILES>  (69) 
CN(C)CCCN(C)C(=O)C[N-]C(=O)n1c(C(N)=O)cc2ccc(C(F)(F)F)cc21

>  <Energy>  (69) 
81.05808503247806

>  <Genealogy>  (69) 
CN(C)CCCN(C)C(=O)C[N-]C(=O)n1c(C(N)=O)cc2ccc(C(F)(F)F)cc21 (protonated)
CN(C)CCCN(C)C(=O)C[N-]C(=O)n1c(C(N)=O)cc2ccc(C(F)(F)F)cc21 (3D coordinates assigned)
CN(C)CCCN(C)C(=O)C[N-]C(=O)n1c(C(N)=O)cc2ccc(C(F)(F)F)cc21 (optimized conformer: 81.05808503247806 kcal/mol)

>  <smiles>  (69) 
CN(C)CCCN(C)C(=O)CNC(=O)n1c(C(N)=O)cc2ccc(C(F)(F)F)cc21

>  <score_type>  (69) 
oracle

>  <origin>  (69) 
adg

>  <m_score__min__energy>  (69) 
-7.3399999999999999

>  <m_primary>  (69) 
energy

$$$$
69:0
     RDKit          3D

 34 35  0  0  0  0  0  0  0  0999 V2000
  139.4530  155.0070  132.9600 C   0  0  0  0  0  0  0  0  0  0  0  0
  140.0010  156.0760  133.0780 C   0  0  0  0  0  0  0  0  0  0  0  0
  140.6550  157.3500  133.2190 C   0  0  0  0  0  0  0  0  0  0  0  0
  139.8990  158.5410  133.1410 C   0  0  0  0  0  0  0  0  0  0  0  0
  140.5230  159.7900  133.2960 C   0  0  0  0  0  0  0  0  0  0  0  0
  141.8960  159.8110  133.5210 C   0  0  0  0  0  0  0  0  0  0  0  0
  142.7410  160.8780  133.7180 C   0  0  0  0  0  0  0  0  0  0  0  0
  143.9980  160.3170  133.9100 C   0  0  0  0  0  0  0  0  0  0  0  0
  145.2090  161.1260  134.1230 C   0  0  0  0  0  0  0  0  0  0  0  0
  146.4040  160.8520  133.3920 N   0  0  0  0  0  0  0  0  0  0  0  0
  145.2080  162.0230  135.0060 O   0  0  0  0  0  0  0  0  0  0  0  0
  143.9500  158.9570  133.8130 N   0  0  0  0  0  0  0  0  0  0  0  0
  145.0640  158.0410  133.8020 C   0  0  0  0  0  0  0  0  0  0  0  0
  145.1330  157.1170  134.6570 O   0  0  0  0  0  0  0  0  0  0  0  0
  146.0830  158.1520  132.8070 N   0  0  0  0  0  0  0  0  0  0  0  0
  147.4820  157.8240  133.0530 C   0  0  0  0  0  0  0  0  0  0  0  0
  148.2010  158.9970  133.3720 O   0  0  0  0  0  0  0  0  0  0  0  0
  149.3480  159.1250  132.5510 C   0  0  0  0  0  0  0  0  0  0  0  0
  149.1200  160.1630  131.5000 C   0  0  0  0  0  0  0  0  0  0  0  0
  148.1100  160.9140  131.5610 O   0  0  0  0  0  0  0  0  0  0  0  0
  150.0340  160.3230  130.4660 O   0  0  0  0  0  0  0  0  0  0  0  0
  142.6480  158.6630  133.5840 C   0  0  0  0  0  0  0  0  0  0  0  0
  142.0460  157.4030  133.4460 C   0  0  0  0  0  0  0  0  0  0  0  0
  138.9536  154.0328  132.8525 H   0  0  0  0  0  0  0  0  0  0  0  0
  138.8156  158.4900  132.9579 H   0  0  0  0  0  0  0  0  0  0  0  0
  139.9436  160.7234  133.2412 H   0  0  0  0  0  0  0  0  0  0  0  0
  142.4784  161.9462  133.7226 H   0  0  0  0  0  0  0  0  0  0  0  0
  147.2570  161.4360  133.5380 H   0  0  0  0  0  0  0  0  0  0  0  0
  146.4460  160.0530  132.7210 H   0  0  0  0  0  0  0  0  0  0  0  0
  147.5486  157.1157  133.8919 H   0  0  0  0  0  0  0  0  0  0  0  0
  147.9123  157.3698  132.1483 H   0  0  0  0  0  0  0  0  0  0  0  0
  150.2074  159.4193  133.1714 H   0  0  0  0  0  0  0  0  0  0  0  0
  149.5486  158.1597  132.0632 H   0  0  0  0  0  0  0  0  0  0  0  0
  142.6429  156.4815  133.5131 H   0  0  0  0  0  0  0  0  0  0  0  0
  1  2  3  0
  2  3  1  0
  3  4  2  0
  4  5  1  0
  5  6  2  0
  6  7  1  0
  7  8  2  0
  8  9  1  0
  9 10  1  0
  9 11  2  0
  8 12  1  0
 12 13  1  0
 13 14  2  0
 13 15  1  0
 15 16  1  0
 16 17  1  0
 17 18  1  0
 18 19  1  0
 19 20  2  0
 19 21  1  0
 12 22  1  0
 22 23  2  0
 23  3  1  0
 22  6  1  0
  1 24  1  0
  4 25  1  0
  5 26  1  0
  7 27  1  0
 10 28  1  0
 10 29  1  0
 16 30  1  0
 16 31  1  0
 18 32  1  0
 18 33  1  0
 23 34  1  0
M  CHG  2  15  -1  21  -1
M  END
>  <UniqueID>  (70) 
70

>  <SMILES>  (70) 
C#Cc1ccc2cc(C(N)=O)n(C(=O)[N-]COCC(=O)[O-])c2c1

>  <Energy>  (70) 
74.85577115402671

>  <Genealogy>  (70) 
C#Cc1ccc2cc(C(N)=O)n(C(=O)[N-]COCC(=O)[O-])c2c1 (protonated)
C#Cc1ccc2cc(C(N)=O)n(C(=O)[N-]COCC(=O)[O-])c2c1 (3D coordinates assigned)
C#Cc1ccc2cc(C(N)=O)n(C(=O)[N-]COCC(=O)[O-])c2c1 (optimized conformer: 74.85577115402671 kcal/mol)

>  <smiles>  (70) 
C#Cc1ccc2cc(C(N)=O)n(C(=O)NCOCC(=O)O)c2c1

>  <score_type>  (70) 
oracle

>  <origin>  (70) 
adg

>  <m_score__min__energy>  (70) 
-7.3300000000000001

>  <m_primary>  (70) 
energy

$$$$
70:0
     RDKit          3D

 48 49  0  0  0  0  0  0  0  0999 V2000
  144.4290  160.4690  133.8160 C   0  0  0  0  0  0  0  0  0  0  0  0
  143.3710  159.7540  133.1920 O   0  0  0  0  0  0  0  0  0  0  0  0
  142.0330  159.8920  133.5810 C   0  0  0  0  0  0  0  0  0  0  0  0
  141.6410  160.9670  134.1210 O   0  0  0  0  0  0  0  0  0  0  0  0
  141.1050  158.8190  133.3090 N   0  0  1  0  0  0  0  0  0  0  0  0
  139.7690  159.3170  132.9340 C   0  0  0  0  0  0  0  0  0  0  0  0
  141.6600  157.8560  132.3300 C   0  0  0  0  0  0  0  0  0  0  0  0
  142.4180  156.6690  132.9640 C   0  0  0  0  0  0  0  0  0  0  0  0
  141.4830  155.7860  133.6710 N   0  0  0  0  0  0  0  0  0  0  0  0
  140.0630  155.9520  133.4890 C   0  0  0  0  0  0  0  0  0  0  0  0
  139.4500  155.3020  132.6010 O   0  0  0  0  0  0  0  0  0  0  0  0
  139.3550  156.8560  134.2730 O   0  0  0  0  0  0  0  0  0  0  0  0
  142.0060  154.6720  134.4160 C   0  0  0  0  0  0  0  0  0  0  0  0
  142.0080  153.5240  133.8950 O   0  0  0  0  0  0  0  0  0  0  0  0
  142.5830  154.8560  135.7640 C   0  0  0  0  0  0  0  0  0  0  0  0
  143.7940  154.5800  135.9750 O   0  0  0  0  0  0  0  0  0  0  0  0
  141.7650  155.3140  136.8500 N   0  0  0  0  0  0  0  0  0  0  0  0
  141.3620  156.5890  137.1100 C   0  0  0  0  0  0  0  0  0  0  0  0
  141.5970  157.7660  136.2450 C   0  0  0  0  0  0  0  0  0  0  0  0
  140.6890  158.8640  136.2350 N   0  0  0  0  0  0  0  0  0  0  0  0
  142.6290  157.8130  135.5230 O   0  0  0  0  0  0  0  0  0  0  0  0
  140.6460  156.6380  138.3070 C   0  0  0  0  0  0  0  0  0  0  0  0
  140.6290  155.3430  138.7750 C   0  0  0  0  0  0  0  0  0  0  0  0
  140.0820  154.8190  139.9420 C   0  0  0  0  0  0  0  0  0  0  0  0
  140.2520  153.4470  140.1900 C   0  0  0  0  0  0  0  0  0  0  0  0
  140.9530  152.6220  139.2700 C   0  0  0  0  0  0  0  0  0  0  0  0
  141.1800  151.1650  139.5770 C   0  0  0  0  0  0  0  0  0  0  0  0
  140.6580  150.8390  140.8160 F   0  0  0  0  0  0  0  0  0  0  0  0
  142.5390  150.9060  139.5780 F   0  0  0  0  0  0  0  0  0  0  0  0
  140.5690  150.3650  138.6270 F   0  0  0  0  0  0  0  0  0  0  0  0
  141.5180  153.2010  138.1100 C   0  0  0  0  0  0  0  0  0  0  0  0
  141.3140  154.5660  137.8800 C   0  0  0  0  0  0  0  0  0  0  0  0
  144.3247  160.3985  134.9088 H   0  0  0  0  0  0  0  0  0  0  0  0
  145.3935  160.0368  133.5111 H   0  0  0  0  0  0  0  0  0  0  0  0
  144.3877  161.5251  133.5111 H   0  0  0  0  0  0  0  0  0  0  0  0
  140.9810  158.2940  134.2070 H   0  0  0  0  0  0  0  0  0  0  0  0
  139.1895  159.5330  133.8437 H   0  0  0  0  0  0  0  0  0  0  0  0
  139.8740  160.2364  132.3392 H   0  0  0  0  0  0  0  0  0  0  0  0
  139.2466  158.5532  132.3392 H   0  0  0  0  0  0  0  0  0  0  0  0
  140.8282  157.4539  131.7330 H   0  0  0  0  0  0  0  0  0  0  0  0
  142.3927  158.4099  131.7248 H   0  0  0  0  0  0  0  0  0  0  0  0
  142.9270  156.0993  132.1726 H   0  0  0  0  0  0  0  0  0  0  0  0
  143.1549  157.0579  133.6821 H   0  0  0  0  0  0  0  0  0  0  0  0
  140.6510  159.5210  135.4260 H   0  0  0  0  0  0  0  0  0  0  0  0
  140.1918  157.5229  138.7767 H   0  0  0  0  0  0  0  0  0  0  0  0
  139.5334  155.4593  140.6485 H   0  0  0  0  0  0  0  0  0  0  0  0
  139.8371  153.0057  141.1082 H   0  0  0  0  0  0  0  0  0  0  0  0
  142.1039  152.5927  137.4053 H   0  0  0  0  0  0  0  0  0  0  0  0
  1  2  1  0
  2  3  1  0
  3  4  2  0
  3  5  1  0
  5  6  1  0
  5  7  1  0
  7  8  1  0
  8  9  1  0
  9 10  1  0
 10 11  2  0
 10 12  1  0
  9 13  1  0
 13 14  2  0
 13 15  1  0
 15 16  2  0
 15 17  1  0
 17 18  1  0
 18 19  1  0
 19 20  1  0
 19 21  2  0
 18 22  2  0
 22 23  1  0
 23 24  2  0
 24 25  1  0
 25 26  2  0
 26 27  1  0
 27 28  1  0
 27 29  1  0
 27 30  1  0
 26 31  1  0
 31 32  2  0
 32 17  1  0
 32 23  1  0
  1 33  1  0
  1 34  1  0
  1 35  1  0
  5 36  1  1
  6 37  1  0
  6 38  1  0
  6 39  1  0
  7 40  1  0
  7 41  1  0
  8 42  1  0
  8 43  1  0
 20 44  1  0
 22 45  1  0
 24 46  1  0
 25 47  1  0
 31 48  1  0
M  CHG  3   5   1  12  -1  20  -1
M  END
>  <UniqueID>  (71) 
71

>  <SMILES>  (71) 
COC(=O)[N@@H+](C)CCN(C(=O)[O-])C(=O)C(=O)n1c(C([NH-])=O)cc2ccc(C(F)(F)F)cc21

>  <Energy>  (71) 
93.19070524840994

>  <Genealogy>  (71) 
COC(=O)[NH+](C)CCN(C(=O)[O-])C(=O)C(=O)n1c(C([NH-])=O)cc2ccc(C(F)(F)F)cc21 (protonated)
COC(=O)[N@@H+](C)CCN(C(=O)[O-])C(=O)C(=O)n1c(C([NH-])=O)cc2ccc(C(F)(F)F)cc21 (chirality)
COC(=O)[N@@H+](C)CCN(C(=O)[O-])C(=O)C(=O)n1c(C([NH-])=O)cc2ccc(C(F)(F)F)cc21 (3D coordinates assigned)
COC(=O)[N@@H+](C)CCN(C(=O)[O-])C(=O)C(=O)n1c(C([NH-])=O)cc2ccc(C(F)(F)F)cc21 (optimized conformer: 93.19070524840994 kcal/mol)

>  <smiles>  (71) 
COC(=O)N(C)CCN(C(=O)O)C(=O)C(=O)n1c(C(N)=O)cc2ccc(C(F)(F)F)cc21

>  <score_type>  (71) 
oracle

>  <origin>  (71) 
adg

>  <m_score__min__energy>  (71) 
-6.5700000000000003

>  <m_primary>  (71) 
energy

$$$$
71:0
     RDKit          3D

 45 46  0  0  0  0  0  0  0  0999 V2000
  148.8590  157.9230  132.6220 C   0  0  0  0  0  0  0  0  0  0  0  0
  147.6730  158.7550  133.0110 C   0  0  0  0  0  0  0  0  0  0  0  0
  147.8500  160.1110  133.3830 C   0  0  0  0  0  0  0  0  0  0  0  0
  146.7450  160.9080  133.7230 C   0  0  0  0  0  0  0  0  0  0  0  0
  145.4800  160.3300  133.6640 C   0  0  0  0  0  0  0  0  0  0  0  0
  144.2480  160.8690  133.9520 C   0  0  0  0  0  0  0  0  0  0  0  0
  143.3320  159.8470  133.7100 C   0  0  0  0  0  0  0  0  0  0  0  0
  141.8690  160.0330  133.7980 C   0  0  0  0  0  0  0  0  0  0  0  0
  141.0290  159.7930  132.6730 N   0  0  0  0  0  0  0  0  0  0  0  0
  141.3590  160.4640  134.8670 O   0  0  0  0  0  0  0  0  0  0  0  0
  143.9740  158.7140  133.3020 N   0  0  0  0  0  0  0  0  0  0  0  0
  143.4020  157.4260  133.0250 C   0  0  0  0  0  0  0  0  0  0  0  0
  142.3340  157.3380  132.3600 O   0  0  0  0  0  0  0  0  0  0  0  0
  144.0230  156.2750  133.5150 O   0  0  0  0  0  0  0  0  0  0  0  0
  144.3120  155.1430  132.7040 C   0  0  0  0  0  0  0  0  0  0  0  0
  145.7950  155.1450  132.2820 C   0  0  0  0  0  0  0  0  0  0  0  0
  146.7480  154.4690  133.2220 N   0  0  0  0  0  0  0  0  0  0  0  0
  146.4740  153.0090  133.2820 C   0  0  0  0  0  0  0  0  0  0  0  0
  148.1210  154.6360  132.6780 C   0  0  0  0  0  0  0  0  0  0  0  0
  146.6950  155.0170  134.6130 C   0  0  0  0  0  0  0  0  0  0  0  0
  146.1870  154.0390  135.6410 C   0  0  0  0  0  0  0  0  0  0  0  0
  146.9950  153.4270  136.3890 O   0  0  0  0  0  0  0  0  0  0  0  0
  144.8230  153.8070  135.7690 O   0  0  0  0  0  0  0  0  0  0  0  0
  145.2890  159.0290  133.2740 C   0  0  0  0  0  0  0  0  0  0  0  0
  146.3750  158.2060  132.9480 C   0  0  0  0  0  0  0  0  0  0  0  0
  149.3691  157.5652  133.5285 H   0  0  0  0  0  0  0  0  0  0  0  0
  148.5230  157.0616  132.0261 H   0  0  0  0  0  0  0  0  0  0  0  0
  149.5546  158.5321  132.0261 H   0  0  0  0  0  0  0  0  0  0  0  0
  148.8615  160.5428  133.4056 H   0  0  0  0  0  0  0  0  0  0  0  0
  146.8750  161.9572  134.0268 H   0  0  0  0  0  0  0  0  0  0  0  0
  144.0316  161.8900  134.2995 H   0  0  0  0  0  0  0  0  0  0  0  0
  141.3690  159.2380  131.8570 H   0  0  0  0  0  0  0  0  0  0  0  0
  144.0989  154.2261  133.2731 H   0  0  0  0  0  0  0  0  0  0  0  0
  143.6853  155.1833  131.8009 H   0  0  0  0  0  0  0  0  0  0  0  0
  145.8681  154.6395  131.3078 H   0  0  0  0  0  0  0  0  0  0  0  0
  146.0965  156.2027  132.2648 H   0  0  0  0  0  0  0  0  0  0  0  0
  146.4141  152.6901  134.3330 H   0  0  0  0  0  0  0  0  0  0  0  0
  145.5198  152.7940  132.7787 H   0  0  0  0  0  0  0  0  0  0  0  0
  147.2853  152.4627  132.7787 H   0  0  0  0  0  0  0  0  0  0  0  0
  148.8365  154.7230  133.5089 H   0  0  0  0  0  0  0  0  0  0  0  0
  148.3798  153.7627  132.0612 H   0  0  0  0  0  0  0  0  0  0  0  0
  148.1629  155.5459  132.0612 H   0  0  0  0  0  0  0  0  0  0  0  0
  147.7107  155.3252  134.9018 H   0  0  0  0  0  0  0  0  0  0  0  0
  145.9847  155.8568  134.5961 H   0  0  0  0  0  0  0  0  0  0  0  0
  146.2195  157.1585  132.6505 H   0  0  0  0  0  0  0  0  0  0  0  0
  1  2  1  0
  2  3  2  0
  3  4  1  0
  4  5  2  0
  5  6  1  0
  6  7  2  0
  7  8  1  0
  8  9  1  0
  8 10  2  0
  7 11  1  0
 11 12  1  0
 12 13  2  0
 12 14  1  0
 14 15  1  0
 15 16  1  0
 16 17  1  0
 17 18  1  0
 17 19  1  0
 17 20  1  0
 20 21  1  0
 21 22  2  0
 21 23  1  0
 11 24  1  0
 24 25  2  0
 25  2  1  0
 24  5  1  0
  1 26  1  0
  1 27  1  0
  1 28  1  0
  3 29  1  0
  4 30  1  0
  6 31  1  0
  9 32  1  0
 15 33  1  0
 15 34  1  0
 16 35  1  0
 16 36  1  0
 18 37  1  0
 18 38  1  0
 18 39  1  0
 19 40  1  0
 19 41  1  0
 19 42  1  0
 20 43  1  0
 20 44  1  0
 25 45  1  0
M  CHG  3   9  -1  17   1  23  -1
M  END
>  <UniqueID>  (72) 
72

>  <SMILES>  (72) 
Cc1ccc2cc(C([NH-])=O)n(C(=O)OCC[N+](C)(C)CC(=O)[O-])c2c1

>  <Energy>  (72) 
90.30159082733694

>  <Genealogy>  (72) 
Cc1ccc2cc(C([NH-])=O)n(C(=O)OCC[N+](C)(C)CC(=O)[O-])c2c1 (protonated)
Cc1ccc2cc(C([NH-])=O)n(C(=O)OCC[N+](C)(C)CC(=O)[O-])c2c1 (3D coordinates assigned)
Cc1ccc2cc(C([NH-])=O)n(C(=O)OCC[N+](C)(C)CC(=O)[O-])c2c1 (optimized conformer: 90.30159082733694 kcal/mol)

>  <smiles>  (72) 
Cc1ccc2cc(C(N)=O)n(C(=O)OCC[N+](C)(C)CC(=O)O)c2c1

>  <score_type>  (72) 
oracle

>  <origin>  (72) 
adg

>  <m_score__min__energy>  (72) 
-6.1100000000000003

>  <m_primary>  (72) 
energy

$$$$
72:0
     RDKit          3D

 33 34  0  0  0  0  0  0  0  0999 V2000
  145.0970  161.5670  134.5840 C   0  0  0  0  0  0  0  0  0  0  0  0
  145.3680  160.8530  133.3390 N   0  0  0  0  0  0  0  0  0  0  0  0
  146.3300  159.7890  133.2260 C   0  0  0  0  0  0  0  0  0  0  0  0
  147.7160  160.0540  133.0500 C   0  0  0  0  0  0  0  0  0  0  0  0
  148.6400  159.0000  132.9330 C   0  0  0  0  0  0  0  0  0  0  0  0
  148.1560  157.6980  132.9970 C   0  0  0  0  0  0  0  0  0  0  0  0
  148.8210  156.4950  132.8960 C   0  0  0  0  0  0  0  0  0  0  0  0
  147.8360  155.5160  133.0230 C   0  0  0  0  0  0  0  0  0  0  0  0
  148.1000  154.0600  133.0570 C   0  0  0  0  0  0  0  0  0  0  0  0
  147.0840  153.1390  133.4570 N   0  0  0  0  0  0  0  0  0  0  0  0
  149.2270  153.6150  132.7100 O   0  0  0  0  0  0  0  0  0  0  0  0
  146.6150  156.0940  133.1940 N   0  0  0  0  0  0  0  0  0  0  0  0
  145.3390  155.4470  133.3000 C   0  0  0  0  0  0  0  0  0  0  0  0
  144.9260  154.7230  132.3540 O   0  0  0  0  0  0  0  0  0  0  0  0
  144.5500  155.5250  134.5700 C   0  0  0  0  0  0  0  0  0  0  0  0
  144.5720  153.9140  135.4110 P   0  0  0  0  0  0  0  0  0  0  0  0
  144.1820  152.8250  134.4380 O   0  0  0  0  0  0  0  0  0  0  0  0
  143.4800  153.9310  136.7030 O   0  0  0  0  0  0  0  0  0  0  0  0
  146.1280  153.6110  135.9980 O   0  0  0  0  0  0  0  0  0  0  0  0
  146.8270  157.4260  133.1780 C   0  0  0  0  0  0  0  0  0  0  0  0
  145.8830  158.4510  133.2880 C   0  0  0  0  0  0  0  0  0  0  0  0
  145.3427  160.9198  135.4388 H   0  0  0  0  0  0  0  0  0  0  0  0
  145.7118  162.4782  134.6254 H   0  0  0  0  0  0  0  0  0  0  0  0
  144.0324  161.8408  134.6254 H   0  0  0  0  0  0  0  0  0  0  0  0
  144.8290  161.1400  132.4910 H   0  0  0  0  0  0  0  0  0  0  0  0
  148.0694  161.0947  133.0049 H   0  0  0  0  0  0  0  0  0  0  0  0
  149.7129  159.1996  132.7951 H   0  0  0  0  0  0  0  0  0  0  0  0
  149.8998  156.3400  132.7469 H   0  0  0  0  0  0  0  0  0  0  0  0
  147.2740  152.1120  133.4430 H   0  0  0  0  0  0  0  0  0  0  0  0
  146.1590  153.4670  133.8130 H   0  0  0  0  0  0  0  0  0  0  0  0
  144.9931  156.2865  135.2286 H   0  0  0  0  0  0  0  0  0  0  0  0
  143.5104  155.7968  134.3347 H   0  0  0  0  0  0  0  0  0  0  0  0
  144.8156  158.2204  133.4199 H   0  0  0  0  0  0  0  0  0  0  0  0
  1  2  1  0
  2  3  1  0
  3  4  2  0
  4  5  1  0
  5  6  2  0
  6  7  1  0
  7  8  2  0
  8  9  1  0
  9 10  1  0
  9 11  2  0
  8 12  1  0
 12 13  1  0
 13 14  2  0
 13 15  1  0
 15 16  1  0
 16 17  2  0
 16 18  1  0
 16 19  1  0
 12 20  1  0
 20 21  2  0
 21  3  1  0
 20  6  1  0
  1 22  1  0
  1 23  1  0
  1 24  1  0
  2 25  1  0
  4 26  1  0
  5 27  1  0
  7 28  1  0
 10 29  1  0
 10 30  1  0
 15 31  1  0
 15 32  1  0
 21 33  1  0
M  CHG  2  18  -1  19  -1
M  END
>  <UniqueID>  (73) 
73

>  <SMILES>  (73) 
CNc1ccc2cc(C(N)=O)n(C(=O)CP(=O)([O-])[O-])c2c1

>  <Energy>  (73) 
65.78445535712257

>  <Genealogy>  (73) 
CNc1ccc2cc(C(N)=O)n(C(=O)CP(=O)([O-])[O-])c2c1 (protonated)
CNc1ccc2cc(C(N)=O)n(C(=O)CP(=O)([O-])[O-])c2c1 (3D coordinates assigned)
CNc1ccc2cc(C(N)=O)n(C(=O)CP(=O)([O-])[O-])c2c1 (optimized conformer: 65.78445535712257 kcal/mol)

>  <smiles>  (73) 
CNc1ccc2cc(C(N)=O)n(C(=O)CP(=O)(O)O)c2c1

>  <score_type>  (73) 
oracle

>  <origin>  (73) 
adg

>  <m_score__min__energy>  (73) 
-6.4800000000000004

>  <m_primary>  (73) 
energy

$$$$
73:0
     RDKit          3D

 35 36  0  0  0  0  0  0  0  0999 V2000
  140.3320  154.1230  140.2680 C   0  0  0  0  0  0  0  0  0  0  0  0
  140.2300  153.4980  139.0940 C   0  0  0  0  0  0  0  0  0  0  0  0
  141.3040  152.7340  138.4970 N   0  0  0  0  0  0  0  0  0  0  0  0
  141.3460  151.2620  138.5670 C   0  0  0  0  0  0  0  0  0  0  0  0
  140.3760  150.6680  137.5940 C   0  0  0  0  0  0  0  0  0  0  0  0
  140.6110  150.7060  136.3580 O   0  0  0  0  0  0  0  0  0  0  0  0
  139.2050  150.0790  138.0540 O   0  0  0  0  0  0  0  0  0  0  0  0
  142.3000  153.4440  137.7310 C   0  0  0  0  0  0  0  0  0  0  0  0
  143.5130  153.3900  138.0700 O   0  0  0  0  0  0  0  0  0  0  0  0
  141.9320  154.2430  136.5950 N   0  0  0  0  0  0  0  0  0  0  0  0
  141.6440  155.5750  136.5650 C   0  0  0  0  0  0  0  0  0  0  0  0
  141.6080  156.4750  137.7370 C   0  0  0  0  0  0  0  0  0  0  0  0
  142.4560  156.2230  138.8540 N   0  0  0  0  0  0  0  0  0  0  0  0
  140.8460  157.4780  137.7550 O   0  0  0  0  0  0  0  0  0  0  0  0
  141.3410  155.9780  135.2660 C   0  0  0  0  0  0  0  0  0  0  0  0
  141.4420  154.8370  134.4990 C   0  0  0  0  0  0  0  0  0  0  0  0
  141.2570  154.6550  133.1310 C   0  0  0  0  0  0  0  0  0  0  0  0
  141.4450  153.3640  132.6070 C   0  0  0  0  0  0  0  0  0  0  0  0
  141.8010  152.2850  133.4560 C   0  0  0  0  0  0  0  0  0  0  0  0
  142.0430  150.9230  132.8790 C   0  0  0  0  0  0  0  0  0  0  0  0
  141.9940  152.5120  134.8360 C   0  0  0  0  0  0  0  0  0  0  0  0
  141.7940  153.8060  135.3280 C   0  0  0  0  0  0  0  0  0  0  0  0
  139.4764  154.6879  140.6665 H   0  0  0  0  0  0  0  0  0  0  0  0
  141.2717  154.0735  140.8376 H   0  0  0  0  0  0  0  0  0  0  0  0
  139.2767  153.5673  138.5496 H   0  0  0  0  0  0  0  0  0  0  0  0
  142.3615  150.9159  138.3242 H   0  0  0  0  0  0  0  0  0  0  0  0
  141.0728  150.9441  139.5840 H   0  0  0  0  0  0  0  0  0  0  0  0
  143.1610  155.4540  138.8300 H   0  0  0  0  0  0  0  0  0  0  0  0
  141.0775  156.9902  134.9254 H   0  0  0  0  0  0  0  0  0  0  0  0
  140.9726  155.4952  132.4805 H   0  0  0  0  0  0  0  0  0  0  0  0
  141.3148  153.1891  131.5288 H   0  0  0  0  0  0  0  0  0  0  0  0
  142.1720  150.1967  133.6950 H   0  0  0  0  0  0  0  0  0  0  0  0
  141.1830  150.6292  132.2593 H   0  0  0  0  0  0  0  0  0  0  0  0
  142.9516  150.9435  132.2593 H   0  0  0  0  0  0  0  0  0  0  0  0
  142.2937  151.6930  135.5064 H   0  0  0  0  0  0  0  0  0  0  0  0
  1  2  2  0
  2  3  1  0
  3  4  1  0
  4  5  1  0
  5  6  2  0
  5  7  1  0
  3  8  1  0
  8  9  2  0
  8 10  1  0
 10 11  1  0
 11 12  1  0
 12 13  1  0
 12 14  2  0
 11 15  2  0
 15 16  1  0
 16 17  2  0
 17 18  1  0
 18 19  2  0
 19 20  1  0
 19 21  1  0
 21 22  2  0
 22 10  1  0
 22 16  1  0
  1 23  1  0
  1 24  1  0
  2 25  1  0
  4 26  1  0
  4 27  1  0
 13 28  1  0
 15 29  1  0
 17 30  1  0
 18 31  1  0
 20 32  1  0
 20 33  1  0
 20 34  1  0
 21 35  1  0
M  CHG  2   7  -1  13  -1
M  END
>  <UniqueID>  (74) 
74

>  <SMILES>  (74) 
C=CN(CC(=O)[O-])C(=O)n1c(C([NH-])=O)cc2ccc(C)cc21

>  <Energy>  (74) 
74.38961573770455

>  <Genealogy>  (74) 
C=CN(CC(=O)[O-])C(=O)n1c(C([NH-])=O)cc2ccc(C)cc21 (protonated)
C=CN(CC(=O)[O-])C(=O)n1c(C([NH-])=O)cc2ccc(C)cc21 (3D coordinates assigned)
C=CN(CC(=O)[O-])C(=O)n1c(C([NH-])=O)cc2ccc(C)cc21 (optimized conformer: 74.38961573770455 kcal/mol)

>  <smiles>  (74) 
C=CN(CC(=O)O)C(=O)n1c(C(N)=O)cc2ccc(C)cc21

>  <score_type>  (74) 
oracle

>  <origin>  (74) 
adg

>  <m_score__min__energy>  (74) 
-6.5700000000000003

>  <m_primary>  (74) 
energy

$$$$
74:0
     RDKit          3D

 44 46  0  0  0  0  0  0  0  0999 V2000
  149.0320  156.7460  131.8420 H   0  0  0  0  0  0  0  0  0  0  0  0
  149.5950  157.5780  132.1280 N   0  0  0  0  0  0  0  0  0  0  0  0
  148.9730  158.8350  132.3740 C   0  0  0  0  0  0  0  0  0  0  0  0
  149.6130  159.8950  132.1370 O   0  0  0  0  0  0  0  0  0  0  0  0
  147.5820  158.9150  132.8690 C   0  0  0  0  0  0  0  0  0  0  0  0
  146.8640  160.1070  132.9690 C   0  0  0  0  0  0  0  0  0  0  0  0
  147.2225  161.1220  132.7426 H   0  0  0  0  0  0  0  0  0  0  0  0
  145.6120  159.7440  133.4110 C   0  0  0  0  0  0  0  0  0  0  0  0
  144.4880  160.5230  133.6680 C   0  0  0  0  0  0  0  0  0  0  0  0
  144.5118  161.6145  133.5334 H   0  0  0  0  0  0  0  0  0  0  0  0
  143.3210  159.8720  134.1050 C   0  0  0  0  0  0  0  0  0  0  0  0
  142.4110  160.4585  134.3000 H   0  0  0  0  0  0  0  0  0  0  0  0
  143.3050  158.4670  134.2970 C   0  0  0  0  0  0  0  0  0  0  0  0
  142.0890  157.8050  134.6950 N   0  0  0  0  0  0  0  0  0  0  0  0
  141.7010  156.5150  134.1190 C   0  0  0  0  0  0  0  0  0  0  0  0
  141.5372  155.7892  134.9292 H   0  0  0  0  0  0  0  0  0  0  0  0
  142.5039  156.1605  133.4559 H   0  0  0  0  0  0  0  0  0  0  0  0
  140.4040  156.6690  133.3030 C   0  0  0  0  0  0  0  0  0  0  0  0
  139.8645  155.7107  133.3254 H   0  0  0  0  0  0  0  0  0  0  0  0
  140.6993  156.9626  132.2848 H   0  0  0  0  0  0  0  0  0  0  0  0
  139.4960  157.7300  133.8130 N   0  0  0  0  0  0  0  0  0  0  0  0
  139.5610  158.9500  132.9890 C   0  0  0  0  0  0  0  0  0  0  0  0
  139.6080  159.8326  133.6438 H   0  0  0  0  0  0  0  0  0  0  0  0
  140.4586  158.9162  132.3541 H   0  0  0  0  0  0  0  0  0  0  0  0
  138.6649  159.0118  132.3541 H   0  0  0  0  0  0  0  0  0  0  0  0
  139.6910  158.0230  135.2500 C   0  0  0  0  0  0  0  0  0  0  0  0
  139.4957  157.1085  135.8292 H   0  0  0  0  0  0  0  0  0  0  0  0
  138.9949  158.8267  135.5318 H   0  0  0  0  0  0  0  0  0  0  0  0
  141.1230  158.5050  135.5480 C   0  0  0  0  0  0  0  0  0  0  0  0
  141.3601  158.3045  136.6033 H   0  0  0  0  0  0  0  0  0  0  0  0
  141.1847  159.5841  135.3436 H   0  0  0  0  0  0  0  0  0  0  0  0
  144.4700  157.7130  134.0350 C   0  0  0  0  0  0  0  0  0  0  0  0
  144.4834  156.6243  134.1917 H   0  0  0  0  0  0  0  0  0  0  0  0
  145.6050  158.3830  133.5720 C   0  0  0  0  0  0  0  0  0  0  0  0
  146.8020  157.8580  133.2330 N   0  0  0  0  0  0  0  0  0  0  0  0
  147.1840  156.4760  133.3340 C   0  0  0  0  0  0  0  0  0  0  0  0
  147.1620  155.7530  132.3030 O   0  0  0  0  0  0  0  0  0  0  0  0
  147.6290  155.8830  134.6120 C   0  0  0  0  0  0  0  0  0  0  0  0
  148.3872  156.4144  135.2059 H   0  0  0  0  0  0  0  0  0  0  0  0
  147.1450  154.7240  135.0750 C   0  0  0  0  0  0  0  0  0  0  0  0
  146.4035  154.1798  134.4716 H   0  0  0  0  0  0  0  0  0  0  0  0
  147.5700  154.1520  136.3630 C   0  0  0  0  0  0  0  0  0  0  0  0
  148.4630  154.7050  137.0590 O   0  0  0  0  0  0  0  0  0  0  0  0
  146.9710  152.9870  136.8230 O   0  0  0  0  0  0  0  0  0  0  0  0
  1  2  1  0
  2  3  1  0
  3  4  2  0
  3  5  1  0
  5  6  2  0
  6  7  1  0
  6  8  1  0
  8  9  2  0
  9 10  1  0
  9 11  1  0
 11 12  1  0
 11 13  2  0
 13 14  1  0
 14 15  1  0
 15 16  1  0
 15 17  1  0
 15 18  1  0
 18 19  1  0
 18 20  1  0
 18 21  1  0
 21 22  1  0
 22 23  1  0
 22 24  1  0
 22 25  1  0
 21 26  1  0
 26 27  1  0
 26 28  1  0
 26 29  1  0
 29 30  1  0
 29 31  1  0
 13 32  1  0
 32 33  1  0
 32 34  2  0
 34 35  1  0
 35 36  1  0
 36 37  2  0
 36 38  1  0
 38 39  1  0
 38 40  2  0
 40 41  1  0
 40 42  1  0
 42 43  2  0
 42 44  1  0
 35  5  1  0
 34  8  1  0
 29 14  1  0
M  CHG  2   2  -1  44  -1
M  END
>  <UniqueID>  (75) 
75

>  <SMILES>  (75) 
CN1CCN(c2ccc3cc(C([NH-])=O)n(C(=O)/C=C/C(=O)[O-])c3c2)CC1

>  <Energy>  (75) 
93.72393604981251

>  <Genealogy>  (75) 
CN1CCN(c2ccc3cc(C([NH-])=O)n(C(=O)/C=C/C(=O)[O-])c3c2)CC1 (protonated)
CN1CCN(c2ccc3cc(C([NH-])=O)n(C(=O)/C=C/C(=O)[O-])c3c2)CC1 (cis-trans isomerization)
CN1CCN(c2ccc3cc(C([NH-])=O)n(C(=O)/C=C/C(=O)[O-])c3c2)CC1 (3D coordinates assigned)
CN1CCN(c2ccc3cc(C([NH-])=O)n(C(=O)/C=C/C(=O)[O-])c3c2)CC1 (nonaromatic ring conformer: 93.72393604981251 kcal/mol)

>  <smiles>  (75) 
CN1CCN(c2ccc3cc(C(N)=O)n(C(=O)/C=C/C(=O)O)c3c2)CC1

>  <score_type>  (75) 
oracle

>  <origin>  (75) 
adg

>  <m_score__min__energy>  (75) 
-8.3200000000000003

>  <m_primary>  (75) 
energy

$$$$
75:0
     RDKit          3D

 61 62  0  0  0  0  0  0  0  0999 V2000
  142.1210  158.0690  138.8220 C   0  0  0  0  0  0  0  0  0  0  0  0
  141.3060  158.1410  137.5660 C   0  0  0  0  0  0  0  0  0  0  0  0
  140.0870  157.4250  137.4760 C   0  0  0  0  0  0  0  0  0  0  0  0
  139.3070  157.4870  136.3090 C   0  0  0  0  0  0  0  0  0  0  0  0
  139.7610  158.2860  135.2640 C   0  0  0  0  0  0  0  0  0  0  0  0
  139.2290  158.4900  134.0100 C   0  0  0  0  0  0  0  0  0  0  0  0
  140.1120  159.3570  133.3720 C   0  0  0  0  0  0  0  0  0  0  0  0
  139.9020  159.8630  132.0020 C   0  0  0  0  0  0  0  0  0  0  0  0
  140.5800  159.2900  130.8810 N   0  0  0  0  0  0  0  0  0  0  0  0
  139.1490  160.8580  131.8230 O   0  0  0  0  0  0  0  0  0  0  0  0
  141.1610  159.6620  134.1890 N   0  0  0  0  0  0  0  0  0  0  0  0
  142.3440  160.4230  133.8800 C   0  0  0  0  0  0  0  0  0  0  0  0
  142.2230  161.5920  133.4250 O   0  0  0  0  0  0  0  0  0  0  0  0
  143.7030  159.8640  134.0360 C   0  0  0  0  0  0  0  0  0  0  0  0
  144.0820  158.6290  133.6780 C   0  0  0  0  0  0  0  0  0  0  0  0
  143.1570  157.5610  133.2420 C   0  0  0  0  0  0  0  0  0  0  0  0
  142.4510  157.7540  132.2130 O   0  0  0  0  0  0  0  0  0  0  0  0
  143.0220  156.3220  133.9740 N   0  0  0  0  0  0  0  0  0  0  0  0
  142.1730  155.2650  133.4160 C   0  0  0  0  0  0  0  0  0  0  0  0
  143.7240  156.0710  135.2450 C   0  0  0  0  0  0  0  0  0  0  0  0
  144.5410  154.7730  135.1850 C   0  0  0  0  0  0  0  0  0  0  0  0
  145.7900  154.9620  134.4340 N   0  0  0  0  0  0  0  0  0  0  0  0
  146.5350  156.2160  134.5620 C   0  0  0  0  0  0  0  0  0  0  0  0
  146.2900  153.9340  133.5610 C   0  0  0  0  0  0  0  0  0  0  0  0
  145.5260  153.3920  132.7170 O   0  0  0  0  0  0  0  0  0  0  0  0
  147.6240  153.5230  133.6660 O   0  0  0  0  0  0  0  0  0  0  0  0
  148.6950  154.1260  132.9450 C   0  0  0  0  0  0  0  0  0  0  0  0
  149.2180  153.2090  131.9860 O   0  0  0  0  0  0  0  0  0  0  0  0
  149.5070  151.8680  132.2620 C   0  0  0  0  0  0  0  0  0  0  0  0
  150.6810  151.5000  132.5410 O   0  0  0  0  0  0  0  0  0  0  0  0
  148.4130  150.8490  132.1640 C   0  0  0  0  0  0  0  0  0  0  0  0
  147.1030  151.4930  132.1400 N   0  0  0  0  0  0  0  0  0  0  0  0
  140.9220  159.0070  135.3480 C   0  0  0  0  0  0  0  0  0  0  0  0
  141.7270  158.9520  136.4910 C   0  0  0  0  0  0  0  0  0  0  0  0
  141.4547  158.1279  139.6953 H   0  0  0  0  0  0  0  0  0  0  0  0
  142.6741  157.1185  138.8462 H   0  0  0  0  0  0  0  0  0  0  0  0
  142.8322  158.9078  138.8462 H   0  0  0  0  0  0  0  0  0  0  0  0
  139.7483  156.8155  138.3267 H   0  0  0  0  0  0  0  0  0  0  0  0
  138.3671  156.9218  136.2241 H   0  0  0  0  0  0  0  0  0  0  0  0
  138.3035  158.0596  133.5999 H   0  0  0  0  0  0  0  0  0  0  0  0
  140.3810  159.6420  129.9170 H   0  0  0  0  0  0  0  0  0  0  0  0
  141.3490  158.5950  131.0080 H   0  0  0  0  0  0  0  0  0  0  0  0
  144.4677  160.5159  134.4834 H   0  0  0  0  0  0  0  0  0  0  0  0
  145.1560  158.3937  133.7109 H   0  0  0  0  0  0  0  0  0  0  0  0
  141.7135  154.6929  134.2355 H   0  0  0  0  0  0  0  0  0  0  0  0
  141.3840  155.7170  132.7969 H   0  0  0  0  0  0  0  0  0  0  0  0
  142.7845  154.5921  132.7969 H   0  0  0  0  0  0  0  0  0  0  0  0
  144.4023  156.9119  135.4516 H   0  0  0  0  0  0  0  0  0  0  0  0
  142.9728  155.9714  136.0423 H   0  0  0  0  0  0  0  0  0  0  0  0
  144.7837  154.4548  136.2096 H   0  0  0  0  0  0  0  0  0  0  0  0
  143.9399  154.0080  134.6718 H   0  0  0  0  0  0  0  0  0  0  0  0
  146.6753  156.4521  135.6272 H   0  0  0  0  0  0  0  0  0  0  0  0
  147.5169  156.1103  134.0775 H   0  0  0  0  0  0  0  0  0  0  0  0
  145.9726  157.0277  134.0775 H   0  0  0  0  0  0  0  0  0  0  0  0
  148.3251  155.0229  132.4267 H   0  0  0  0  0  0  0  0  0  0  0  0
  149.4925  154.4033  133.6501 H   0  0  0  0  0  0  0  0  0  0  0  0
  148.5450  150.2663  131.2404 H   0  0  0  0  0  0  0  0  0  0  0  0
  148.4654  150.1908  133.0438 H   0  0  0  0  0  0  0  0  0  0  0  0
  147.2070  152.4560  131.7470 H   0  0  0  0  0  0  0  0  0  0  0  0
  146.7500  151.5840  133.1230 H   0  0  0  0  0  0  0  0  0  0  0  0
  142.6635  159.5260  136.5500 H   0  0  0  0  0  0  0  0  0  0  0  0
  1  2  1  0
  2  3  2  0
  3  4  1  0
  4  5  2  0
  5  6  1  0
  6  7  2  0
  7  8  1  0
  8  9  1  0
  8 10  2  0
  7 11  1  0
 11 12  1  0
 12 13  2  0
 12 14  1  0
 14 15  2  3
 15 16  1  0
 16 17  2  0
 16 18  1  0
 18 19  1  0
 18 20  1  0
 20 21  1  0
 21 22  1  0
 22 23  1  0
 22 24  1  0
 24 25  2  0
 24 26  1  0
 26 27  1  0
 27 28  1  0
 28 29  1  0
 29 30  2  0
 29 31  1  0
 31 32  1  0
 11 33  1  0
 33 34  2  0
 34  2  1  0
 33  5  1  0
  1 35  1  0
  1 36  1  0
  1 37  1  0
  3 38  1  0
  4 39  1  0
  6 40  1  0
  9 41  1  0
  9 42  1  0
 14 43  1  0
 15 44  1  0
 19 45  1  0
 19 46  1  0
 19 47  1  0
 20 48  1  0
 20 49  1  0
 21 50  1  0
 21 51  1  0
 23 52  1  0
 23 53  1  0
 23 54  1  0
 27 55  1  0
 27 56  1  0
 31 57  1  0
 31 58  1  0
 32 59  1  0
 32 60  1  0
 34 61  1  0
M  END
>  <UniqueID>  (76) 
76

>  <SMILES>  (76) 
Cc1ccc2cc(C(N)=O)n(C(=O)C=CC(=O)N(C)CCN(C)C(=O)OCOC(=O)CN)c2c1

>  <Energy>  (76) 
94.61097183536778

>  <Genealogy>  (76) 
Cc1ccc2cc(C(N)=O)n(C(=O)C=CC(=O)N(C)CCN(C)C(=O)OCOC(=O)CN)c2c1 (3D coordinates assigned)
Cc1ccc2cc(C(N)=O)n(C(=O)C=CC(=O)N(C)CCN(C)C(=O)OCOC(=O)CN)c2c1 (optimized conformer: 94.61097183536778 kcal/mol)

>  <smiles>  (76) 
Cc1ccc2cc(C(N)=O)n(C(=O)C=CC(=O)N(C)CCN(C)C(=O)OCOC(=O)CN)c2c1

>  <score_type>  (76) 
oracle

>  <origin>  (76) 
adg

>  <m_score__min__energy>  (76) 
-7.2699999999999996

>  <m_primary>  (76) 
energy

$$$$
76:0
     RDKit          3D

 45 46  0  0  0  0  0  0  0  0999 V2000
  139.1620  155.8680  133.1680 C   0  0  0  0  0  0  0  0  0  0  0  0
  139.5670  157.2060  133.7180 C   0  0  0  0  0  0  0  0  0  0  0  0
  139.4690  157.3970  134.9240 O   0  0  0  0  0  0  0  0  0  0  0  0
  140.0570  158.2610  132.8450 N   0  0  2  0  0  0  0  0  0  0  0  0
  139.0760  158.5510  131.7700 C   0  0  0  0  0  0  0  0  0  0  0  0
  139.1590  159.9990  131.2630 C   0  0  0  0  0  0  0  0  0  0  0  0
  139.4290  160.8760  132.3220 O   0  0  0  0  0  0  0  0  0  0  0  0
  141.3610  157.8770  132.2540 C   0  0  0  0  0  0  0  0  0  0  0  0
  142.1700  156.9560  133.1850 C   0  0  0  0  0  0  0  0  0  0  0  0
  142.8070  157.7580  134.2800 C   0  0  0  0  0  0  0  0  0  0  0  0
  142.5150  157.5160  135.4820 O   0  0  0  0  0  0  0  0  0  0  0  0
  143.6430  158.8770  133.9620 N   0  0  0  0  0  0  0  0  0  0  0  0
  143.3080  160.1970  133.9400 C   0  0  0  0  0  0  0  0  0  0  0  0
  141.9440  160.7440  134.0960 C   0  0  0  0  0  0  0  0  0  0  0  0
  140.8930  159.9490  134.6380 N   0  0  0  0  0  0  0  0  0  0  0  0
  141.6960  161.9200  133.7170 O   0  0  0  0  0  0  0  0  0  0  0  0
  144.4350  160.9800  133.6910 C   0  0  0  0  0  0  0  0  0  0  0  0
  145.4770  160.0880  133.5600 C   0  0  0  0  0  0  0  0  0  0  0  0
  146.8310  160.3150  133.3340 C   0  0  0  0  0  0  0  0  0  0  0  0
  147.6850  159.2000  133.2820 C   0  0  0  0  0  0  0  0  0  0  0  0
  147.1750  157.8840  133.4390 C   0  0  0  0  0  0  0  0  0  0  0  0
  148.1110  156.7020  133.4360 C   0  0  0  0  0  0  0  0  0  0  0  0
  149.2410  157.0170  132.7030 F   0  0  0  0  0  0  0  0  0  0  0  0
  147.5010  155.5980  132.8700 F   0  0  0  0  0  0  0  0  0  0  0  0
  148.4880  156.3740  134.7280 F   0  0  0  0  0  0  0  0  0  0  0  0
  145.7950  157.6990  133.6890 C   0  0  0  0  0  0  0  0  0  0  0  0
  144.9700  158.8260  133.7260 C   0  0  0  0  0  0  0  0  0  0  0  0
  138.9532  155.1780  133.9988 H   0  0  0  0  0  0  0  0  0  0  0  0
  138.2585  155.9833  132.5512 H   0  0  0  0  0  0  0  0  0  0  0  0
  139.9778  155.4629  132.5512 H   0  0  0  0  0  0  0  0  0  0  0  0
  140.2050  159.1420  133.3920 H   0  0  0  0  0  0  0  0  0  0  0  0
  139.2680  157.8717  130.9264 H   0  0  0  0  0  0  0  0  0  0  0  0
  138.0704  158.4046  132.1911 H   0  0  0  0  0  0  0  0  0  0  0  0
  139.9629  160.0753  130.5161 H   0  0  0  0  0  0  0  0  0  0  0  0
  138.1941  160.2733  130.8117 H   0  0  0  0  0  0  0  0  0  0  0  0
  140.3240  160.6230  132.6670 H   0  0  0  0  0  0  0  0  0  0  0  0
  141.1792  157.3510  131.3052 H   0  0  0  0  0  0  0  0  0  0  0  0
  141.9448  158.7958  132.0956 H   0  0  0  0  0  0  0  0  0  0  0  0
  141.4982  156.2058  133.6276 H   0  0  0  0  0  0  0  0  0  0  0  0
  142.9572  156.4567  132.6009 H   0  0  0  0  0  0  0  0  0  0  0  0
  141.0010  158.9160  134.7420 H   0  0  0  0  0  0  0  0  0  0  0  0
  144.4820  162.0764  133.6153 H   0  0  0  0  0  0  0  0  0  0  0  0
  147.2207  161.3349  133.2003 H   0  0  0  0  0  0  0  0  0  0  0  0
  148.7624  159.3486  133.1176 H   0  0  0  0  0  0  0  0  0  0  0  0
  145.3816  156.6925  133.8503 H   0  0  0  0  0  0  0  0  0  0  0  0
  1  2  1  0
  2  3  2  0
  2  4  1  0
  4  5  1  0
  5  6  1  0
  6  7  1  0
  4  8  1  0
  8  9  1  0
  9 10  1  0
 10 11  2  0
 10 12  1  0
 12 13  1  0
 13 14  1  0
 14 15  1  0
 14 16  2  0
 13 17  2  0
 17 18  1  0
 18 19  2  0
 19 20  1  0
 20 21  2  0
 21 22  1  0
 22 23  1  0
 22 24  1  0
 22 25  1  0
 21 26  1  0
 26 27  2  0
 27 12  1  0
 27 18  1  0
  1 28  1  0
  1 29  1  0
  1 30  1  0
  4 31  1  1
  5 32  1  0
  5 33  1  0
  6 34  1  0
  6 35  1  0
  7 36  1  0
  8 37  1  0
  8 38  1  0
  9 39  1  0
  9 40  1  0
 15 41  1  0
 17 42  1  0
 19 43  1  0
 20 44  1  0
 26 45  1  0
M  CHG  2   4   1  15  -1
M  END
>  <UniqueID>  (77) 
77

>  <SMILES>  (77) 
CC(=O)[N@H+](CCO)CCC(=O)n1c(C([NH-])=O)cc2ccc(C(F)(F)F)cc21

>  <Energy>  (77) 
81.24331327667227

>  <Genealogy>  (77) 
CC(=O)[NH+](CCO)CCC(=O)n1c(C([NH-])=O)cc2ccc(C(F)(F)F)cc21 (protonated)
CC(=O)[N@H+](CCO)CCC(=O)n1c(C([NH-])=O)cc2ccc(C(F)(F)F)cc21 (chirality)
CC(=O)[N@H+](CCO)CCC(=O)n1c(C([NH-])=O)cc2ccc(C(F)(F)F)cc21 (3D coordinates assigned)
CC(=O)[N@H+](CCO)CCC(=O)n1c(C([NH-])=O)cc2ccc(C(F)(F)F)cc21 (optimized conformer: 81.24331327667227 kcal/mol)

>  <smiles>  (77) 
CC(=O)N(CCO)CCC(=O)n1c(C(N)=O)cc2ccc(C(F)(F)F)cc21

>  <score_type>  (77) 
oracle

>  <origin>  (77) 
adg

>  <m_score__min__energy>  (77) 
-5.2400000000000002

>  <m_primary>  (77) 
energy

$$$$
77:0
     RDKit          3D

 31 32  0  0  0  0  0  0  0  0999 V2000
  144.9930  162.5180  134.1640 N   0  0  0  0  0  0  0  0  0  0  0  0
  144.5040  161.2170  133.8430 C   0  0  0  0  0  0  0  0  0  0  0  0
  143.2620  161.0320  133.7520 O   0  0  0  0  0  0  0  0  0  0  0  0
  145.4560  160.1140  133.5930 C   0  0  0  0  0  0  0  0  0  0  0  0
  146.8010  160.3080  133.2830 C   0  0  0  0  0  0  0  0  0  0  0  0
  147.3100  159.0470  133.0660 C   0  0  0  0  0  0  0  0  0  0  0  0
  148.6030  158.6470  132.7420 C   0  0  0  0  0  0  0  0  0  0  0  0
  148.8520  157.2700  132.6100 C   0  0  0  0  0  0  0  0  0  0  0  0
  147.8140  156.3250  132.8090 C   0  0  0  0  0  0  0  0  0  0  0  0
  148.1070  154.8570  132.6820 C   0  0  0  0  0  0  0  0  0  0  0  0
  147.9320  154.2390  133.9060 F   0  0  0  0  0  0  0  0  0  0  0  0
  149.4120  154.6760  132.2610 F   0  0  0  0  0  0  0  0  0  0  0  0
  146.5160  156.7690  133.1420 C   0  0  0  0  0  0  0  0  0  0  0  0
  146.2920  158.1470  133.2470 C   0  0  0  0  0  0  0  0  0  0  0  0
  145.1480  158.7870  133.5690 N   0  0  0  0  0  0  0  0  0  0  0  0
  143.8880  158.1720  133.8770 C   0  0  0  0  0  0  0  0  0  0  0  0
  143.8310  157.2670  134.7520 O   0  0  0  0  0  0  0  0  0  0  0  0
  142.7000  158.5820  133.1850 N   0  0  0  0  0  0  0  0  0  0  0  0
  141.3980  157.9670  133.4300 C   0  0  0  0  0  0  0  0  0  0  0  0
  140.3280  158.7210  132.7090 C   0  0  0  0  0  0  0  0  0  0  0  0
  140.6230  159.7180  131.9970 O   0  0  0  0  0  0  0  0  0  0  0  0
  139.0060  158.3040  132.7960 O   0  0  0  0  0  0  0  0  0  0  0  0
  145.8700  162.8840  133.7310 H   0  0  0  0  0  0  0  0  0  0  0  0
  147.3409  161.2646  133.2242 H   0  0  0  0  0  0  0  0  0  0  0  0
  149.4049  159.3853  132.5939 H   0  0  0  0  0  0  0  0  0  0  0  0
  149.8625  156.9220  132.3496 H   0  0  0  0  0  0  0  0  0  0  0  0
  147.4192  154.4155  131.9458 H   0  0  0  0  0  0  0  0  0  0  0  0
  145.7012  156.0505  133.3146 H   0  0  0  0  0  0  0  0  0  0  0  0
  142.7610  159.3610  132.4920 H   0  0  0  0  0  0  0  0  0  0  0  0
  141.4141  156.9270  133.0719 H   0  0  0  0  0  0  0  0  0  0  0  0
  141.1878  157.9889  134.5095 H   0  0  0  0  0  0  0  0  0  0  0  0
  1  2  1  0
  2  3  2  0
  2  4  1  0
  4  5  2  0
  5  6  1  0
  6  7  2  0
  7  8  1  0
  8  9  2  0
  9 10  1  0
 10 11  1  0
 10 12  1  0
  9 13  1  0
 13 14  2  0
 14 15  1  0
 15 16  1  0
 16 17  2  0
 16 18  1  0
 18 19  1  0
 19 20  1  0
 20 21  2  0
 20 22  1  0
 15  4  1  0
 14  6  1  0
  1 23  1  0
  5 24  1  0
  7 25  1  0
  8 26  1  0
 10 27  1  0
 13 28  1  0
 18 29  1  0
 19 30  1  0
 19 31  1  0
M  CHG  2   1  -1  22  -1
M  END
>  <UniqueID>  (78) 
78

>  <SMILES>  (78) 
[NH-]C(=O)c1cc2ccc(C(F)F)cc2n1C(=O)NCC(=O)[O-]

>  <Energy>  (78) 
66.96081576184356

>  <Genealogy>  (78) 
[NH-]C(=O)c1cc2ccc(C(F)F)cc2n1C(=O)NCC(=O)[O-] (protonated)
[NH-]C(=O)c1cc2ccc(C(F)F)cc2n1C(=O)NCC(=O)[O-] (3D coordinates assigned)
[NH-]C(=O)c1cc2ccc(C(F)F)cc2n1C(=O)NCC(=O)[O-] (optimized conformer: 66.96081576184356 kcal/mol)

>  <smiles>  (78) 
NC(=O)c1cc2ccc(C(F)F)cc2n1C(=O)NCC(=O)O

>  <score_type>  (78) 
oracle

>  <origin>  (78) 
adg

>  <m_score__min__energy>  (78) 
-6.04

>  <m_primary>  (78) 
energy

$$$$
78:0
     RDKit          3D

 68 71  0  0  0  0  0  0  0  0999 V2000
  142.3480  153.3580  136.3080 C   0  0  0  0  0  0  0  0  0  0  0  0
  142.2490  154.8960  136.3010 C   0  0  0  0  0  0  0  0  0  0  0  0
  142.4210  155.4630  137.7250 C   0  0  0  0  0  0  0  0  0  0  0  0
  143.3620  155.4600  135.4020 C   0  0  0  0  0  0  0  0  0  0  0  0
  140.9970  155.3100  135.7320 O   0  0  0  0  0  0  0  0  0  0  0  0
  140.8220  156.0120  134.5280 C   0  0  0  0  0  0  0  0  0  0  0  0
  140.6760  155.3930  133.4400 O   0  0  0  0  0  0  0  0  0  0  0  0
  140.8210  157.4500  134.5320 N   0  0  0  0  0  0  0  0  0  0  0  0
  140.6270  158.1860  133.2800 C   0  0  0  0  0  0  0  0  0  0  0  0
  140.6450  159.7030  133.5230 C   0  0  0  0  0  0  0  0  0  0  0  0
  141.8170  160.1330  134.3290 N   0  0  0  0  0  0  0  0  0  0  0  0
  143.0520  160.3140  133.5160 C   0  0  1  0  0  0  0  0  0  0  0  0
  144.0520  161.2760  134.1780 C   0  0  0  0  0  0  0  0  0  0  0  0
  145.4410  160.7400  133.8710 C   0  0  0  0  0  0  0  0  0  0  0  0
  145.2540  159.3630  133.4460 N   0  0  0  0  0  0  0  0  0  0  0  0
  146.3440  158.4380  133.2030 C   0  0  0  0  0  0  0  0  0  0  0  0
  147.5680  158.8930  132.6330 C   0  0  0  0  0  0  0  0  0  0  0  0
  148.6360  158.0100  132.4090 C   0  0  0  0  0  0  0  0  0  0  0  0
  148.4540  156.6710  132.7340 C   0  0  0  0  0  0  0  0  0  0  0  0
  149.3180  155.6050  132.6110 C   0  0  0  0  0  0  0  0  0  0  0  0
  148.6000  154.4970  133.0550 C   0  0  0  0  0  0  0  0  0  0  0  0
  149.1110  153.1120  132.9790 C   0  0  0  0  0  0  0  0  0  0  0  0
  148.2550  152.0010  133.2420 N   0  0  0  0  0  0  0  0  0  0  0  0
  150.3030  152.9030  132.6240 O   0  0  0  0  0  0  0  0  0  0  0  0
  147.3480  154.8660  133.4520 N   0  0  0  0  0  0  0  0  0  0  0  0
  146.3220  154.0280  133.9940 C   0  0  0  0  0  0  0  0  0  0  0  0
  146.4630  153.5290  135.1440 O   0  0  0  0  0  0  0  0  0  0  0  0
  145.1840  153.7420  133.2350 O   0  0  0  0  0  0  0  0  0  0  0  0
  145.1080  152.6340  132.3420 C   0  0  0  0  0  0  0  0  0  0  0  0
  144.0340  151.6840  132.7740 C   0  0  0  0  0  0  0  0  0  0  0  0
  143.1840  152.0430  133.6340 O   0  0  0  0  0  0  0  0  0  0  0  0
  143.9880  150.4000  132.2460 O   0  0  0  0  0  0  0  0  0  0  0  0
  147.2750  156.2010  133.2490 C   0  0  0  0  0  0  0  0  0  0  0  0
  146.2050  157.0590  133.5160 C   0  0  0  0  0  0  0  0  0  0  0  0
  143.8470  159.0070  133.3480 C   0  0  0  0  0  0  0  0  0  0  0  0
  142.0420  159.3040  135.5540 C   0  0  0  0  0  0  0  0  0  0  0  0
  140.9880  158.2110  135.7740 C   0  0  0  0  0  0  0  0  0  0  0  0
  142.3713  152.9968  137.3467 H   0  0  0  0  0  0  0  0  0  0  0  0
  141.4754  152.9320  135.7911 H   0  0  0  0  0  0  0  0  0  0  0  0
  143.2680  153.0474  135.7911 H   0  0  0  0  0  0  0  0  0  0  0  0
  142.1839  154.6815  138.4619 H   0  0  0  0  0  0  0  0  0  0  0  0
  143.4603  155.7952  137.8643 H   0  0  0  0  0  0  0  0  0  0  0  0
  141.7414  156.3167  137.8643 H   0  0  0  0  0  0  0  0  0  0  0  0
  144.1681  155.8685  136.0291 H   0  0  0  0  0  0  0  0  0  0  0  0
  143.7630  154.6563  134.7669 H   0  0  0  0  0  0  0  0  0  0  0  0
  142.9510  156.2586  134.7669 H   0  0  0  0  0  0  0  0  0  0  0  0
  141.4345  157.9244  132.5804 H   0  0  0  0  0  0  0  0  0  0  0  0
  139.6483  157.9105  132.8603 H   0  0  0  0  0  0  0  0  0  0  0  0
  140.6773  160.2163  132.5506 H   0  0  0  0  0  0  0  0  0  0  0  0
  139.7366  159.9636  134.0859 H   0  0  0  0  0  0  0  0  0  0  0  0
  142.6775  160.6964  132.5550 H   0  0  0  0  0  0  0  0  0  0  0  0
  143.9359  162.2882  133.7633 H   0  0  0  0  0  0  0  0  0  0  0  0
  143.8825  161.3385  135.2631 H   0  0  0  0  0  0  0  0  0  0  0  0
  145.9086  161.3279  133.0674 H   0  0  0  0  0  0  0  0  0  0  0  0
  146.1009  160.8047  134.7487 H   0  0  0  0  0  0  0  0  0  0  0  0
  147.6779  159.9539  132.3640 H   0  0  0  0  0  0  0  0  0  0  0  0
  149.5880  158.3669  131.9890 H   0  0  0  0  0  0  0  0  0  0  0  0
  150.3538  155.6246  132.2411 H   0  0  0  0  0  0  0  0  0  0  0  0
  147.3200  152.1390  133.6800 H   0  0  0  0  0  0  0  0  0  0  0  0
  144.8816  153.0000  131.3297 H   0  0  0  0  0  0  0  0  0  0  0  0
  146.0730  152.1060  132.3478 H   0  0  0  0  0  0  0  0  0  0  0  0
  145.2744  156.6749  133.9593 H   0  0  0  0  0  0  0  0  0  0  0  0
  143.6363  158.5577  132.3663 H   0  0  0  0  0  0  0  0  0  0  0  0
  143.5688  158.2710  134.1167 H   0  0  0  0  0  0  0  0  0  0  0  0
  143.0269  158.8217  135.4684 H   0  0  0  0  0  0  0  0  0  0  0  0
  141.9757  159.9859  136.4146 H   0  0  0  0  0  0  0  0  0  0  0  0
  141.3186  157.5367  136.5778 H   0  0  0  0  0  0  0  0  0  0  0  0
  140.0303  158.6711  136.0588 H   0  0  0  0  0  0  0  0  0  0  0  0
  1  2  1  0
  2  3  1  0
  2  4  1  0
  2  5  1  0
  5  6  1  0
  6  7  2  0
  6  8  1  0
  8  9  1  0
  9 10  1  0
 10 11  1  0
 11 12  1  0
 12 13  1  0
 13 14  1  0
 14 15  1  0
 15 16  1  0
 16 17  2  0
 17 18  1  0
 18 19  2  0
 19 20  1  0
 20 21  2  0
 21 22  1  0
 22 23  1  0
 22 24  2  0
 21 25  1  0
 25 26  1  0
 26 27  2  0
 26 28  1  0
 28 29  1  0
 29 30  1  0
 30 31  2  0
 30 32  1  0
 25 33  1  0
 33 34  2  0
 15 35  1  0
 11 36  1  0
 36 37  1  0
 37  8  1  0
 35 12  1  0
 34 16  1  0
 33 19  1  0
  1 38  1  0
  1 39  1  0
  1 40  1  0
  3 41  1  0
  3 42  1  0
  3 43  1  0
  4 44  1  0
  4 45  1  0
  4 46  1  0
  9 47  1  0
  9 48  1  0
 10 49  1  0
 10 50  1  0
 12 51  1  6
 13 52  1  0
 13 53  1  0
 14 54  1  0
 14 55  1  0
 17 56  1  0
 18 57  1  0
 20 58  1  0
 23 59  1  0
 29 60  1  0
 29 61  1  0
 34 62  1  0
 35 63  1  0
 35 64  1  0
 36 65  1  0
 36 66  1  0
 37 67  1  0
 37 68  1  0
M  CHG  2  23  -1  32  -1
M  END
>  <UniqueID>  (79) 
79

>  <SMILES>  (79) 
CC(C)(C)OC(=O)N1CCN([C@H]2CCN(c3ccc4cc(C([NH-])=O)n(C(=O)OCC(=O)[O-])c4c3)C2)CC1

>  <Energy>  (79) 
116.36755545160823

>  <Genealogy>  (79) 
CC(C)(C)OC(=O)N1CCN(C2CCN(c3ccc4cc(C([NH-])=O)n(C(=O)OCC(=O)[O-])c4c3)C2)CC1 (protonated)
CC(C)(C)OC(=O)N1CCN([C@H]2CCN(c3ccc4cc(C([NH-])=O)n(C(=O)OCC(=O)[O-])c4c3)C2)CC1 (chirality)
CC(C)(C)OC(=O)N1CCN([C@H]2CCN(c3ccc4cc(C([NH-])=O)n(C(=O)OCC(=O)[O-])c4c3)C2)CC1 (3D coordinates assigned)
CC(C)(C)OC(=O)N1CCN([C@H]2CCN(c3ccc4cc(C([NH-])=O)n(C(=O)OCC(=O)[O-])c4c3)C2)CC1 (nonaromatic ring conformer: 116.36755545160823 kcal/mol)

>  <smiles>  (79) 
CC(C)(C)OC(=O)N1CCN(C2CCN(c3ccc4cc(C(N)=O)n(C(=O)OCC(=O)O)c4c3)C2)CC1

>  <score_type>  (79) 
oracle

>  <origin>  (79) 
adg

>  <m_score__min__energy>  (79) 
-9.4199999999999999

>  <m_primary>  (79) 
energy

$$$$
79:0
     RDKit          3D

 40 41  0  0  0  0  0  0  0  0999 V2000
  148.4780  157.4350  133.5830 N   0  0  0  0  0  0  0  0  0  0  0  0
  148.0360  158.7930  133.5460 C   0  0  0  0  0  0  0  0  0  0  0  0
  148.8880  159.7100  133.4160 O   0  0  0  0  0  0  0  0  0  0  0  0
  146.6020  159.1250  133.6960 C   0  0  0  0  0  0  0  0  0  0  0  0
  146.0980  160.4230  133.6550 C   0  0  0  0  0  0  0  0  0  0  0  0
  144.7310  160.2870  133.7300 C   0  0  0  0  0  0  0  0  0  0  0  0
  143.7350  161.2600  133.7420 C   0  0  0  0  0  0  0  0  0  0  0  0
  142.4010  160.8350  133.8570 C   0  0  0  0  0  0  0  0  0  0  0  0
  142.0890  159.4570  133.9520 C   0  0  0  0  0  0  0  0  0  0  0  0
  140.6630  159.0190  134.1210 C   0  0  0  0  0  0  0  0  0  0  0  0
  140.3570  158.6210  135.8290 Cl  0  0  0  0  0  0  0  0  0  0  0  0
  143.1260  158.4990  133.9490 C   0  0  0  0  0  0  0  0  0  0  0  0
  144.4460  158.9490  133.8150 C   0  0  0  0  0  0  0  0  0  0  0  0
  145.5850  158.2200  133.7970 N   0  0  0  0  0  0  0  0  0  0  0  0
  145.6880  156.7930  133.9210 C   0  0  0  0  0  0  0  0  0  0  0  0
  146.0890  156.2790  135.0010 O   0  0  0  0  0  0  0  0  0  0  0  0
  145.3270  155.9750  132.8460 O   0  0  0  0  0  0  0  0  0  0  0  0
  146.1700  154.9430  132.3450 C   0  0  0  0  0  0  0  0  0  0  0  0
  147.1250  154.5830  133.3360 O   0  0  0  0  0  0  0  0  0  0  0  0
  148.4680  154.3270  133.0390 C   0  0  0  0  0  0  0  0  0  0  0  0
  149.2280  155.2530  132.6460 O   0  0  0  0  0  0  0  0  0  0  0  0
  149.0160  152.9480  133.2350 C   0  0  0  0  0  0  0  0  0  0  0  0
  149.6060  152.3870  131.9370 C   0  0  0  0  0  0  0  0  0  0  0  0
  150.2270  151.0400  132.1510 C   0  0  0  0  0  0  0  0  0  0  0  0
  150.6270  150.3630  131.1670 O   0  0  0  0  0  0  0  0  0  0  0  0
  150.4020  150.5520  133.4390 O   0  0  0  0  0  0  0  0  0  0  0  0
  147.7980  156.6440  133.6350 H   0  0  0  0  0  0  0  0  0  0  0  0
  149.4960  157.2130  133.5170 H   0  0  0  0  0  0  0  0  0  0  0  0
  146.6715  161.3586  133.5788 H   0  0  0  0  0  0  0  0  0  0  0  0
  143.9850  162.3284  133.6639 H   0  0  0  0  0  0  0  0  0  0  0  0
  141.5914  161.5795  133.8734 H   0  0  0  0  0  0  0  0  0  0  0  0
  139.9911  159.8321  133.8088 H   0  0  0  0  0  0  0  0  0  0  0  0
  140.4788  158.1295  133.5007 H   0  0  0  0  0  0  0  0  0  0  0  0
  142.9033  157.4265  134.0493 H   0  0  0  0  0  0  0  0  0  0  0  0
  145.5599  154.0644  132.0884 H   0  0  0  0  0  0  0  0  0  0  0  0
  146.6936  155.3030  131.4471 H   0  0  0  0  0  0  0  0  0  0  0  0
  149.8053  152.9828  134.0004 H   0  0  0  0  0  0  0  0  0  0  0  0
  148.1919  152.2914  133.5509 H   0  0  0  0  0  0  0  0  0  0  0  0
  148.8035  152.2957  131.1902 H   0  0  0  0  0  0  0  0  0  0  0  0
  150.3896  153.0760  131.5889 H   0  0  0  0  0  0  0  0  0  0  0  0
  1  2  1  0
  2  3  2  0
  2  4  1  0
  4  5  2  0
  5  6  1  0
  6  7  2  0
  7  8  1  0
  8  9  2  0
  9 10  1  0
 10 11  1  0
  9 12  1  0
 12 13  2  0
 13 14  1  0
 14 15  1  0
 15 16  2  0
 15 17  1  0
 17 18  1  0
 18 19  1  0
 19 20  1  0
 20 21  2  0
 20 22  1  0
 22 23  1  0
 23 24  1  0
 24 25  2  0
 24 26  1  0
 14  4  1  0
 13  6  1  0
  1 27  1  0
  1 28  1  0
  5 29  1  0
  7 30  1  0
  8 31  1  0
 10 32  1  0
 10 33  1  0
 12 34  1  0
 18 35  1  0
 18 36  1  0
 22 37  1  0
 22 38  1  0
 23 39  1  0
 23 40  1  0
M  CHG  1  26  -1
M  END
>  <UniqueID>  (80) 
80

>  <SMILES>  (80) 
NC(=O)c1cc2ccc(CCl)cc2n1C(=O)OCOC(=O)CCC(=O)[O-]

>  <Energy>  (80) 
69.93168645637553

>  <Genealogy>  (80) 
NC(=O)c1cc2ccc(CCl)cc2n1C(=O)OCOC(=O)CCC(=O)[O-] (protonated)
NC(=O)c1cc2ccc(CCl)cc2n1C(=O)OCOC(=O)CCC(=O)[O-] (3D coordinates assigned)
NC(=O)c1cc2ccc(CCl)cc2n1C(=O)OCOC(=O)CCC(=O)[O-] (optimized conformer: 69.93168645637553 kcal/mol)

>  <smiles>  (80) 
NC(=O)c1cc2ccc(CCl)cc2n1C(=O)OCOC(=O)CCC(=O)O

>  <score_type>  (80) 
oracle

>  <origin>  (80) 
adg

>  <m_score__min__energy>  (80) 
-6.7300000000000004

>  <m_primary>  (80) 
energy

$$$$
80:0
     RDKit          3D

 32 33  0  0  0  0  0  0  0  0999 V2000
  148.1640  152.7310  135.8280 H   0  0  0  0  0  0  0  0  0  0  0  0
  147.4550  153.4350  136.1340 N   0  0  0  0  0  0  0  0  0  0  0  0
  146.6620  154.1410  135.1830 C   0  0  0  0  0  0  0  0  0  0  0  0
  145.4920  153.7410  134.9420 O   0  0  0  0  0  0  0  0  0  0  0  0
  147.1750  155.3540  134.5120 C   0  0  0  0  0  0  0  0  0  0  0  0
  146.7640  156.6430  134.8430 C   0  0  0  0  0  0  0  0  0  0  0  0
  146.0070  156.9306  135.5875 H   0  0  0  0  0  0  0  0  0  0  0  0
  147.5050  157.4800  134.0420 C   0  0  0  0  0  0  0  0  0  0  0  0
  147.4810  158.8680  133.9340 C   0  0  0  0  0  0  0  0  0  0  0  0
  146.8237  159.4751  134.5737 H   0  0  0  0  0  0  0  0  0  0  0  0
  148.3220  159.4690  132.9830 C   0  0  0  0  0  0  0  0  0  0  0  0
  148.3267  160.5637  132.8748 H   0  0  0  0  0  0  0  0  0  0  0  0
  149.1640  158.6800  132.1620 C   0  0  0  0  0  0  0  0  0  0  0  0
  150.0230  159.3310  131.1150 C   0  0  0  0  0  0  0  0  0  0  0  0
  150.9124  159.7667  131.5936 H   0  0  0  0  0  0  0  0  0  0  0  0
  150.3277  158.5738  130.3776 H   0  0  0  0  0  0  0  0  0  0  0  0
  149.2570  160.4100  130.4200 C   0  0  0  0  0  0  0  0  0  0  0  0
  148.3180  160.1150  129.6340 O   0  0  0  0  0  0  0  0  0  0  0  0
  149.6100  161.7410  130.6020 O   0  0  0  0  0  0  0  0  0  0  0  0
  149.1490  157.2730  132.2890 C   0  0  0  0  0  0  0  0  0  0  0  0
  149.7722  156.6421  131.6382 H   0  0  0  0  0  0  0  0  0  0  0  0
  148.3220  156.7010  133.2630 C   0  0  0  0  0  0  0  0  0  0  0  0
  148.1400  155.3910  133.5480 N   0  0  0  0  0  0  0  0  0  0  0  0
  148.7410  154.2720  132.8690 C   0  0  0  0  0  0  0  0  0  0  0  0
  149.9720  154.3020  132.6060 O   0  0  0  0  0  0  0  0  0  0  0  0
  147.9900  153.0360  132.5660 C   0  0  0  0  0  0  0  0  0  0  0  0
  146.9844  153.1557  132.1366 H   0  0  0  0  0  0  0  0  0  0  0  0
  148.4210  151.7810  132.7660 C   0  0  0  0  0  0  0  0  0  0  0  0
  147.8247  150.9680  132.3262 H   0  0  0  0  0  0  0  0  0  0  0  0
  149.6240  151.4000  133.5240 C   0  0  0  0  0  0  0  0  0  0  0  0
  149.6250  151.5110  134.7780 O   0  0  0  0  0  0  0  0  0  0  0  0
  150.7880  151.0070  132.8770 O   0  0  0  0  0  0  0  0  0  0  0  0
  1  2  1  0
  2  3  1  0
  3  4  2  0
  3  5  1  0
  5  6  2  0
  6  7  1  0
  6  8  1  0
  8  9  2  0
  9 10  1  0
  9 11  1  0
 11 12  1  0
 11 13  2  0
 13 14  1  0
 14 15  1  0
 14 16  1  0
 14 17  1  0
 17 18  2  0
 17 19  1  0
 13 20  1  0
 20 21  1  0
 20 22  2  0
 22 23  1  0
 23 24  1  0
 24 25  2  0
 24 26  1  0
 26 27  1  0
 26 28  2  0
 28 29  1  0
 28 30  1  0
 30 31  2  0
 30 32  1  0
 23  5  1  0
 22  8  1  0
M  CHG  3   2  -1  19  -1  32  -1
M  END
>  <UniqueID>  (81) 
81

>  <SMILES>  (81) 
[NH-]C(=O)c1cc2ccc(CC(=O)[O-])cc2n1C(=O)/C=C\C(=O)[O-]

>  <Energy>  (81) 
75.5880815224998

>  <Genealogy>  (81) 
[NH-]C(=O)c1cc2ccc(CC(=O)[O-])cc2n1C(=O)/C=C\C(=O)[O-] (protonated)
[NH-]C(=O)c1cc2ccc(CC(=O)[O-])cc2n1C(=O)/C=C\C(=O)[O-] (cis-trans isomerization)
[NH-]C(=O)c1cc2ccc(CC(=O)[O-])cc2n1C(=O)/C=C\C(=O)[O-] (3D coordinates assigned)
[NH-]C(=O)c1cc2ccc(CC(=O)[O-])cc2n1C(=O)/C=C\C(=O)[O-] (optimized conformer: 75.5880815224998 kcal/mol)

>  <smiles>  (81) 
NC(=O)c1cc2ccc(CC(=O)O)cc2n1C(=O)/C=C\C(=O)O

>  <score_type>  (81) 
oracle

>  <origin>  (81) 
adg

>  <m_score__min__energy>  (81) 
-7.4500000000000002

>  <m_primary>  (81) 
energy

$$$$
81:0
     RDKit          3D

 32 33  0  0  0  0  0  0  0  0999 V2000
  142.3050  158.1040  134.3790 C   0  0  0  0  0  0  0  0  0  0  0  0
  143.6270  158.7230  134.0330 C   0  0  0  0  0  0  0  0  0  0  0  0
  143.7860  160.1290  134.0840 C   0  0  0  0  0  0  0  0  0  0  0  0
  145.0120  160.7220  133.7390 C   0  0  0  0  0  0  0  0  0  0  0  0
  146.0480  159.8880  133.3280 C   0  0  0  0  0  0  0  0  0  0  0  0
  147.3380  160.1940  132.9610 C   0  0  0  0  0  0  0  0  0  0  0  0
  147.9340  158.9730  132.6530 C   0  0  0  0  0  0  0  0  0  0  0  0
  149.3100  158.8500  132.1270 C   0  0  0  0  0  0  0  0  0  0  0  0
  149.8780  157.5710  131.8550 N   0  0  0  0  0  0  0  0  0  0  0  0
  149.9740  159.8880  131.8670 O   0  0  0  0  0  0  0  0  0  0  0  0
  147.0490  157.9510  132.8280 N   0  0  0  0  0  0  0  0  0  0  0  0
  147.3020  156.5430  132.7110 C   0  0  0  0  0  0  0  0  0  0  0  0
  147.1850  155.9740  131.5920 O   0  0  0  0  0  0  0  0  0  0  0  0
  147.6570  155.8050  133.8470 O   0  0  0  0  0  0  0  0  0  0  0  0
  147.5740  154.3840  133.9160 C   0  0  0  0  0  0  0  0  0  0  0  0
  148.7400  153.7600  133.2110 C   0  0  0  0  0  0  0  0  0  0  0  0
  149.4950  154.5020  132.2520 N   0  0  0  0  0  0  0  0  0  0  0  0
  149.0420  152.5590  133.4470 O   0  0  0  0  0  0  0  0  0  0  0  0
  145.8980  158.5280  133.2400 C   0  0  0  0  0  0  0  0  0  0  0  0
  144.6950  157.9090  133.5970 C   0  0  0  0  0  0  0  0  0  0  0  0
  142.1985  158.0541  135.4727 H   0  0  0  0  0  0  0  0  0  0  0  0
  141.4927  158.7154  133.9590 H   0  0  0  0  0  0  0  0  0  0  0  0
  142.2544  157.0886  133.9590 H   0  0  0  0  0  0  0  0  0  0  0  0
  142.9426  160.7623  134.3963 H   0  0  0  0  0  0  0  0  0  0  0  0
  145.1491  161.8121  133.7920 H   0  0  0  0  0  0  0  0  0  0  0  0
  147.8007  161.1911  132.9195 H   0  0  0  0  0  0  0  0  0  0  0  0
  149.2710  156.7420  131.6720 H   0  0  0  0  0  0  0  0  0  0  0  0
  147.5778  154.0711  134.9705 H   0  0  0  0  0  0  0  0  0  0  0  0
  146.6440  154.0558  133.4288 H   0  0  0  0  0  0  0  0  0  0  0  0
  150.2970  154.0570  131.7560 H   0  0  0  0  0  0  0  0  0  0  0  0
  149.2530  155.4940  132.0330 H   0  0  0  0  0  0  0  0  0  0  0  0
  144.5842  156.8161  133.5394 H   0  0  0  0  0  0  0  0  0  0  0  0
  1  2  1  0
  2  3  2  0
  3  4  1  0
  4  5  2  0
  5  6  1  0
  6  7  2  0
  7  8  1  0
  8  9  1  0
  8 10  2  0
  7 11  1  0
 11 12  1  0
 12 13  2  0
 12 14  1  0
 14 15  1  0
 15 16  1  0
 16 17  1  0
 16 18  2  0
 11 19  1  0
 19 20  2  0
 20  2  1  0
 19  5  1  0
  1 21  1  0
  1 22  1  0
  1 23  1  0
  3 24  1  0
  4 25  1  0
  6 26  1  0
  9 27  1  0
 15 28  1  0
 15 29  1  0
 17 30  1  0
 17 31  1  0
 20 32  1  0
M  CHG  1   9  -1
M  END
>  <UniqueID>  (82) 
82

>  <SMILES>  (82) 
Cc1ccc2cc(C([NH-])=O)n(C(=O)OCC(N)=O)c2c1

>  <Energy>  (82) 
67.00002913700186

>  <Genealogy>  (82) 
Cc1ccc2cc(C([NH-])=O)n(C(=O)OCC(N)=O)c2c1 (protonated)
Cc1ccc2cc(C([NH-])=O)n(C(=O)OCC(N)=O)c2c1 (3D coordinates assigned)
Cc1ccc2cc(C([NH-])=O)n(C(=O)OCC(N)=O)c2c1 (optimized conformer: 67.00002913700186 kcal/mol)

>  <smiles>  (82) 
Cc1ccc2cc(C(N)=O)n(C(=O)OCC(N)=O)c2c1

>  <score_type>  (82) 
oracle

>  <origin>  (82) 
adg

>  <m_score__min__energy>  (82) 
-5.7999999999999998

>  <m_primary>  (82) 
energy

$$$$
82:0
     RDKit          3D

 38 39  0  0  0  0  0  0  0  0999 V2000
  148.5330  155.4480  132.6250 C   0  0  0  0  0  0  0  0  0  0  0  0
  147.9880  156.8180  132.9000 C   0  0  0  0  0  0  0  0  0  0  0  0
  148.8630  157.9300  132.9550 C   0  0  0  0  0  0  0  0  0  0  0  0
  148.3620  159.2220  133.1890 C   0  0  0  0  0  0  0  0  0  0  0  0
  146.9870  159.3710  133.3420 C   0  0  0  0  0  0  0  0  0  0  0  0
  146.2450  160.4990  133.6090 C   0  0  0  0  0  0  0  0  0  0  0  0
  144.9250  160.0640  133.6670 C   0  0  0  0  0  0  0  0  0  0  0  0
  143.7790  160.9730  133.8760 C   0  0  0  0  0  0  0  0  0  0  0  0
  142.4900  160.4680  134.2300 N   0  0  0  0  0  0  0  0  0  0  0  0
  143.9260  162.2080  133.6850 O   0  0  0  0  0  0  0  0  0  0  0  0
  144.8500  158.7190  133.4590 N   0  0  0  0  0  0  0  0  0  0  0  0
  143.6810  157.8880  133.5640 C   0  0  0  0  0  0  0  0  0  0  0  0
  142.8680  157.8160  132.6030 O   0  0  0  0  0  0  0  0  0  0  0  0
  143.4510  157.1620  134.7370 O   0  0  0  0  0  0  0  0  0  0  0  0
  142.1520  156.9770  135.2840 C   0  0  0  0  0  0  0  0  0  0  0  0
  141.8020  158.1240  136.0480 O   0  0  0  0  0  0  0  0  0  0  0  0
  140.6580  158.8820  135.7870 C   0  0  0  0  0  0  0  0  0  0  0  0
  140.6470  160.1240  136.0040 O   0  0  0  0  0  0  0  0  0  0  0  0
  139.4960  158.2290  135.2660 N   0  0  0  0  0  0  0  0  0  0  0  0
  139.3450  157.8490  133.8670 C   0  0  0  0  0  0  0  0  0  0  0  0
  139.4680  159.0530  132.9880 C   0  0  0  0  0  0  0  0  0  0  0  0
  140.4290  159.8510  133.1350 O   0  0  0  0  0  0  0  0  0  0  0  0
  138.5020  159.3070  132.0230 O   0  0  0  0  0  0  0  0  0  0  0  0
  146.1230  158.3090  133.2580 C   0  0  0  0  0  0  0  0  0  0  0  0
  146.5970  157.0080  133.0460 C   0  0  0  0  0  0  0  0  0  0  0  0
  148.7365  154.9364  133.5773 H   0  0  0  0  0  0  0  0  0  0  0  0
  147.7966  154.8694  132.0480 H   0  0  0  0  0  0  0  0  0  0  0  0
  149.4656  155.5334  132.0480 H   0  0  0  0  0  0  0  0  0  0  0  0
  149.9437  157.7813  132.8134 H   0  0  0  0  0  0  0  0  0  0  0  0
  149.0362  160.0890  133.2494 H   0  0  0  0  0  0  0  0  0  0  0  0
  146.6164  161.5252  133.7470 H   0  0  0  0  0  0  0  0  0  0  0  0
  141.7020  161.1270  134.4110 H   0  0  0  0  0  0  0  0  0  0  0  0
  142.2950  159.4430  134.2360 H   0  0  0  0  0  0  0  0  0  0  0  0
  141.4252  156.8409  134.4696 H   0  0  0  0  0  0  0  0  0  0  0  0
  142.1444  156.0856  135.9285 H   0  0  0  0  0  0  0  0  0  0  0  0
  140.1280  157.1236  133.6011 H   0  0  0  0  0  0  0  0  0  0  0  0
  138.3515  157.3994  133.7226 H   0  0  0  0  0  0  0  0  0  0  0  0
  145.9029  156.1562  132.9946 H   0  0  0  0  0  0  0  0  0  0  0  0
  1  2  1  0
  2  3  2  0
  3  4  1  0
  4  5  2  0
  5  6  1  0
  6  7  2  0
  7  8  1  0
  8  9  1  0
  8 10  2  0
  7 11  1  0
 11 12  1  0
 12 13  2  0
 12 14  1  0
 14 15  1  0
 15 16  1  0
 16 17  1  0
 17 18  2  0
 17 19  1  0
 19 20  1  0
 20 21  1  0
 21 22  2  0
 21 23  1  0
 11 24  1  0
 24 25  2  0
 25  2  1  0
 24  5  1  0
  1 26  1  0
  1 27  1  0
  1 28  1  0
  3 29  1  0
  4 30  1  0
  6 31  1  0
  9 32  1  0
  9 33  1  0
 15 34  1  0
 15 35  1  0
 20 36  1  0
 20 37  1  0
 25 38  1  0
M  CHG  2  19  -1  23  -1
M  END
>  <UniqueID>  (83) 
83

>  <SMILES>  (83) 
Cc1ccc2cc(C(N)=O)n(C(=O)OCOC(=O)[N-]CC(=O)[O-])c2c1

>  <Energy>  (83) 
70.17390698899041

>  <Genealogy>  (83) 
Cc1ccc2cc(C(N)=O)n(C(=O)OCOC(=O)[N-]CC(=O)[O-])c2c1 (protonated)
Cc1ccc2cc(C(N)=O)n(C(=O)OCOC(=O)[N-]CC(=O)[O-])c2c1 (3D coordinates assigned)
Cc1ccc2cc(C(N)=O)n(C(=O)OCOC(=O)[N-]CC(=O)[O-])c2c1 (optimized conformer: 70.17390698899041 kcal/mol)

>  <smiles>  (83) 
Cc1ccc2cc(C(N)=O)n(C(=O)OCOC(=O)NCC(=O)O)c2c1

>  <score_type>  (83) 
oracle

>  <origin>  (83) 
adg

>  <m_score__min__energy>  (83) 
-7

>  <m_primary>  (83) 
energy

$$$$
83:0
     RDKit          3D

 40 41  0  0  0  0  0  0  0  0999 V2000
  147.4450  150.8680  131.9600 C   0  0  0  0  0  0  0  0  0  0  0  0
  146.8080  152.1240  132.3740 N   0  0  0  0  0  0  0  0  0  0  0  0
  145.4330  152.2430  131.8600 C   0  0  0  0  0  0  0  0  0  0  0  0
  144.4570  152.5640  132.9530 C   0  0  0  0  0  0  0  0  0  0  0  0
  143.2340  152.6990  132.6820 O   0  0  0  0  0  0  0  0  0  0  0  0
  144.9260  152.7530  134.2560 O   0  0  0  0  0  0  0  0  0  0  0  0
  144.5700  153.8820  135.0470 C   0  0  0  0  0  0  0  0  0  0  0  0
  145.5200  154.9210  134.8440 O   0  0  0  0  0  0  0  0  0  0  0  0
  145.5660  155.6850  133.6730 C   0  0  0  0  0  0  0  0  0  0  0  0
  144.5720  155.7190  132.8970 O   0  0  0  0  0  0  0  0  0  0  0  0
  146.7420  156.4450  133.3620 N   0  0  0  0  0  0  0  0  0  0  0  0
  147.9650  155.9760  132.9840 C   0  0  0  0  0  0  0  0  0  0  0  0
  148.3860  154.5590  132.9710 C   0  0  0  0  0  0  0  0  0  0  0  0
  147.9750  153.6620  134.0000 N   0  0  0  0  0  0  0  0  0  0  0  0
  149.1570  154.1460  132.0640 O   0  0  0  0  0  0  0  0  0  0  0  0
  148.8220  157.0330  132.6840 C   0  0  0  0  0  0  0  0  0  0  0  0
  148.0840  158.1740  132.9010 C   0  0  0  0  0  0  0  0  0  0  0  0
  148.4390  159.5120  132.7550 C   0  0  0  0  0  0  0  0  0  0  0  0
  147.4640  160.4860  133.0290 C   0  0  0  0  0  0  0  0  0  0  0  0
  146.1560  160.1060  133.4190 C   0  0  0  0  0  0  0  0  0  0  0  0
  145.1330  161.1570  133.7330 C   0  0  0  0  0  0  0  0  0  0  0  0
  145.8350  158.7400  133.5720 C   0  0  0  0  0  0  0  0  0  0  0  0
  146.8320  157.7920  133.3090 C   0  0  0  0  0  0  0  0  0  0  0  0
  147.7364  150.2934  132.8516 H   0  0  0  0  0  0  0  0  0  0  0  0
  146.7370  150.2784  131.3591 H   0  0  0  0  0  0  0  0  0  0  0  0
  148.3390  151.0909  131.3591 H   0  0  0  0  0  0  0  0  0  0  0  0
  147.3730  152.9180  131.9940 H   0  0  0  0  0  0  0  0  0  0  0  0
  146.8090  152.1880  133.4190 H   0  0  0  0  0  0  0  0  0  0  0  0
  145.4020  153.0450  131.1077 H   0  0  0  0  0  0  0  0  0  0  0  0
  145.1475  151.2767  131.4187 H   0  0  0  0  0  0  0  0  0  0  0  0
  143.5710  154.2358  134.7525 H   0  0  0  0  0  0  0  0  0  0  0  0
  144.5594  153.5970  136.1094 H   0  0  0  0  0  0  0  0  0  0  0  0
  146.9640  153.4510  134.1580 H   0  0  0  0  0  0  0  0  0  0  0  0
  149.8667  156.9689  132.3456 H   0  0  0  0  0  0  0  0  0  0  0  0
  149.4518  159.7981  132.4349 H   0  0  0  0  0  0  0  0  0  0  0  0
  147.7184  161.5525  132.9400 H   0  0  0  0  0  0  0  0  0  0  0  0
  145.0343  161.2583  134.8239 H   0  0  0  0  0  0  0  0  0  0  0  0
  145.4508  162.1182  133.3027 H   0  0  0  0  0  0  0  0  0  0  0  0
  144.1636  160.8653  133.3027 H   0  0  0  0  0  0  0  0  0  0  0  0
  144.8289  158.4284  133.8893 H   0  0  0  0  0  0  0  0  0  0  0  0
  1  2  1  0
  2  3  1  0
  3  4  1  0
  4  5  2  0
  4  6  1  0
  6  7  1  0
  7  8  1  0
  8  9  1  0
  9 10  2  0
  9 11  1  0
 11 12  1  0
 12 13  1  0
 13 14  1  0
 13 15  2  0
 12 16  2  0
 16 17  1  0
 17 18  2  0
 18 19  1  0
 19 20  2  0
 20 21  1  0
 20 22  1  0
 22 23  2  0
 23 11  1  0
 23 17  1  0
  1 24  1  0
  1 25  1  0
  1 26  1  0
  2 27  1  0
  2 28  1  0
  3 29  1  0
  3 30  1  0
  7 31  1  0
  7 32  1  0
 14 33  1  0
 16 34  1  0
 18 35  1  0
 19 36  1  0
 21 37  1  0
 21 38  1  0
 21 39  1  0
 22 40  1  0
M  CHG  2   2   1  14  -1
M  END
>  <UniqueID>  (84) 
84

>  <SMILES>  (84) 
C[NH2+]CC(=O)OCOC(=O)n1c(C([NH-])=O)cc2ccc(C)cc21

>  <Energy>  (84) 
72.48837781707965

>  <Genealogy>  (84) 
C[NH2+]CC(=O)OCOC(=O)n1c(C([NH-])=O)cc2ccc(C)cc21 (protonated)
C[NH2+]CC(=O)OCOC(=O)n1c(C([NH-])=O)cc2ccc(C)cc21 (3D coordinates assigned)
C[NH2+]CC(=O)OCOC(=O)n1c(C([NH-])=O)cc2ccc(C)cc21 (optimized conformer: 72.48837781707965 kcal/mol)

>  <smiles>  (84) 
CNCC(=O)OCOC(=O)n1c(C(N)=O)cc2ccc(C)cc21

>  <score_type>  (84) 
oracle

>  <origin>  (84) 
adg

>  <m_score__min__energy>  (84) 
-5.6799999999999997

>  <m_primary>  (84) 
energy

$$$$
84:0
     RDKit          3D

 33 34  0  0  0  0  0  0  0  0999 V2000
  143.4840  155.4530  133.0330 N   0  0  0  0  0  0  0  0  0  0  0  0
  143.4830  154.2170  133.7500 C   0  0  0  0  0  0  0  0  0  0  0  0
  144.0790  154.1480  134.8580 O   0  0  0  0  0  0  0  0  0  0  0  0
  142.7410  153.0440  133.2500 C   0  0  0  0  0  0  0  0  0  0  0  0
  143.3350  151.8090  133.0090 C   0  0  0  0  0  0  0  0  0  0  0  0
  142.3070  150.9800  132.6270 C   0  0  0  0  0  0  0  0  0  0  0  0
  142.3320  149.6370  132.2590 C   0  0  0  0  0  0  0  0  0  0  0  0
  141.1210  149.0360  131.8800 C   0  0  0  0  0  0  0  0  0  0  0  0
  139.9170  149.7830  131.8670 C   0  0  0  0  0  0  0  0  0  0  0  0
  138.6220  149.1260  131.4540 C   0  0  0  0  0  0  0  0  0  0  0  0
  138.6440  148.5280  130.0280 C   0  0  1  0  0  0  0  0  0  0  0  0
  139.6200  149.1380  129.2200 O   0  0  0  0  0  0  0  0  0  0  0  0
  138.7510  146.9900  129.9950 C   0  0  0  0  0  0  0  0  0  0  0  0
  140.0860  146.5710  130.0720 O   0  0  0  0  0  0  0  0  0  0  0  0
  139.9330  151.1450  132.2390 C   0  0  0  0  0  0  0  0  0  0  0  0
  141.1490  151.7150  132.6360 C   0  0  0  0  0  0  0  0  0  0  0  0
  141.3990  152.9890  133.0160 N   0  0  0  0  0  0  0  0  0  0  0  0
  140.4650  154.0820  133.0400 C   0  0  0  0  0  0  0  0  0  0  0  0
  139.2260  153.8640  132.9830 O   0  0  0  0  0  0  0  0  0  0  0  0
  140.9210  155.3920  133.1200 O   0  0  0  0  0  0  0  0  0  0  0  0
  144.0430  156.2630  133.3830 H   0  0  0  0  0  0  0  0  0  0  0  0
  142.8680  155.5940  132.2030 H   0  0  0  0  0  0  0  0  0  0  0  0
  144.4001  151.5510  133.1039 H   0  0  0  0  0  0  0  0  0  0  0  0
  143.2715  149.0648  132.2651 H   0  0  0  0  0  0  0  0  0  0  0  0
  141.1068  147.9749  131.5904 H   0  0  0  0  0  0  0  0  0  0  0  0
  138.4036  148.3156  132.1651 H   0  0  0  0  0  0  0  0  0  0  0  0
  137.8526  149.9122  131.4564 H   0  0  0  0  0  0  0  0  0  0  0  0
  137.6582  148.7607  129.5989 H   0  0  0  0  0  0  0  0  0  0  0  0
  140.3410  148.4780  129.0550 H   0  0  0  0  0  0  0  0  0  0  0  0
  138.1950  146.5737  130.8479 H   0  0  0  0  0  0  0  0  0  0  0  0
  138.3292  146.6328  129.0439 H   0  0  0  0  0  0  0  0  0  0  0  0
  140.6200  147.2650  129.6050 H   0  0  0  0  0  0  0  0  0  0  0  0
  139.0112  151.7448  132.2174 H   0  0  0  0  0  0  0  0  0  0  0  0
  1  2  1  0
  2  3  2  0
  2  4  1  0
  4  5  2  0
  5  6  1  0
  6  7  2  0
  7  8  1  0
  8  9  2  0
  9 10  1  0
 10 11  1  0
 11 12  1  0
 11 13  1  0
 13 14  1  0
  9 15  1  0
 15 16  2  0
 16 17  1  0
 17 18  1  0
 18 19  2  0
 18 20  1  0
 17  4  1  0
 16  6  1  0
  1 21  1  0
  1 22  1  0
  5 23  1  0
  7 24  1  0
  8 25  1  0
 10 26  1  0
 10 27  1  0
 11 28  1  6
 12 29  1  0
 13 30  1  0
 13 31  1  0
 14 32  1  0
 15 33  1  0
M  CHG  1  20  -1
M  END
>  <UniqueID>  (85) 
85

>  <SMILES>  (85) 
NC(=O)c1cc2ccc(C[C@@H](O)CO)cc2n1C(=O)[O-]

>  <Energy>  (85) 
71.9344193022016

>  <Genealogy>  (85) 
NC(=O)c1cc2ccc(CC(O)CO)cc2n1C(=O)[O-] (protonated)
NC(=O)c1cc2ccc(C[C@@H](O)CO)cc2n1C(=O)[O-] (chirality)
NC(=O)c1cc2ccc(C[C@@H](O)CO)cc2n1C(=O)[O-] (3D coordinates assigned)
NC(=O)c1cc2ccc(C[C@@H](O)CO)cc2n1C(=O)[O-] (optimized conformer: 71.9344193022016 kcal/mol)

>  <smiles>  (85) 
NC(=O)c1cc2ccc(CC(O)CO)cc2n1C(=O)O

>  <score_type>  (85) 
oracle

>  <origin>  (85) 
adg

>  <m_score__min__energy>  (85) 
-6.6600000000000001

>  <m_primary>  (85) 
energy

$$$$
85:0
     RDKit          3D

 41 42  0  0  0  0  0  0  0  0999 V2000
  148.8330  157.5270  132.8330 N   0  0  0  0  0  0  0  0  0  0  0  0
  148.3690  156.2140  133.2730 C   0  0  0  0  0  0  0  0  0  0  0  0
  147.4370  156.3650  134.4820 C   0  0  0  0  0  0  0  0  0  0  0  0
  146.5330  155.1390  134.7000 C   0  0  0  0  0  0  0  0  0  0  0  0
  146.0220  154.4700  133.4080 C   0  0  0  0  0  0  0  0  0  0  0  0
  144.5180  154.1500  133.4200 C   0  0  0  0  0  0  0  0  0  0  0  0
  143.7440  155.1690  132.7080 N   0  0  0  0  0  0  0  0  0  0  0  0
  143.6130  156.5410  133.1260 C   0  0  0  0  0  0  0  0  0  0  0  0
  142.3850  156.9690  133.6910 C   0  0  0  0  0  0  0  0  0  0  0  0
  142.2140  158.2930  134.1270 C   0  0  0  0  0  0  0  0  0  0  0  0
  143.2780  159.1730  133.9720 C   0  0  0  0  0  0  0  0  0  0  0  0
  143.3900  160.4940  134.3370 C   0  0  0  0  0  0  0  0  0  0  0  0
  144.6740  160.8720  133.9550 C   0  0  0  0  0  0  0  0  0  0  0  0
  145.1960  162.2450  134.1130 C   0  0  0  0  0  0  0  0  0  0  0  0
  146.5690  162.4830  134.4270 N   0  0  0  0  0  0  0  0  0  0  0  0
  144.4300  163.2250  133.9130 O   0  0  0  0  0  0  0  0  0  0  0  0
  145.3380  159.8250  133.3870 N   0  0  0  0  0  0  0  0  0  0  0  0
  146.7140  159.7850  132.9730 C   0  0  0  0  0  0  0  0  0  0  0  0
  147.0130  159.8590  131.7530 O   0  0  0  0  0  0  0  0  0  0  0  0
  147.7290  159.6650  133.9140 O   0  0  0  0  0  0  0  0  0  0  0  0
  144.4660  158.7900  133.4020 C   0  0  0  0  0  0  0  0  0  0  0  0
  144.6710  157.4710  132.9790 C   0  0  0  0  0  0  0  0  0  0  0  0
  149.2020  158.0310  133.6710 H   0  0  0  0  0  0  0  0  0  0  0  0
  148.0060  158.0700  132.4980 H   0  0  0  0  0  0  0  0  0  0  0  0
  147.8239  155.7262  132.4515 H   0  0  0  0  0  0  0  0  0  0  0  0
  149.2367  155.6020  133.5602 H   0  0  0  0  0  0  0  0  0  0  0  0
  148.0516  156.5121  135.3824 H   0  0  0  0  0  0  0  0  0  0  0  0
  146.7818  157.2269  134.2873 H   0  0  0  0  0  0  0  0  0  0  0  0
  147.1039  154.3907  135.2693 H   0  0  0  0  0  0  0  0  0  0  0  0
  145.6416  155.5040  135.2313 H   0  0  0  0  0  0  0  0  0  0  0  0
  146.2246  155.1469  132.5649 H   0  0  0  0  0  0  0  0  0  0  0  0
  146.5503  153.5094  133.3175 H   0  0  0  0  0  0  0  0  0  0  0  0
  144.3565  153.1758  132.9354 H   0  0  0  0  0  0  0  0  0  0  0  0
  144.1791  154.1295  134.4663 H   0  0  0  0  0  0  0  0  0  0  0  0
  143.2360  154.8620  131.8470 H   0  0  0  0  0  0  0  0  0  0  0  0
  141.5547  156.2541  133.7892 H   0  0  0  0  0  0  0  0  0  0  0  0
  141.2664  158.6233  134.5776 H   0  0  0  0  0  0  0  0  0  0  0  0
  142.6279  161.1184  134.8262 H   0  0  0  0  0  0  0  0  0  0  0  0
  147.2640  161.7040  134.4310 H   0  0  0  0  0  0  0  0  0  0  0  0
  146.9110  163.4590  134.5720 H   0  0  0  0  0  0  0  0  0  0  0  0
  145.6327  157.1639  132.5421 H   0  0  0  0  0  0  0  0  0  0  0  0
  1  2  1  0
  2  3  1  0
  3  4  1  0
  4  5  1  0
  5  6  1  0
  6  7  1  0
  7  8  1  0
  8  9  2  0
  9 10  1  0
 10 11  2  0
 11 12  1  0
 12 13  2  0
 13 14  1  0
 14 15  1  0
 14 16  2  0
 13 17  1  0
 17 18  1  0
 18 19  2  0
 18 20  1  0
 17 21  1  0
 21 22  2  0
 22  8  1  0
 21 11  1  0
  1 23  1  0
  1 24  1  0
  2 25  1  0
  2 26  1  0
  3 27  1  0
  3 28  1  0
  4 29  1  0
  4 30  1  0
  5 31  1  0
  5 32  1  0
  6 33  1  0
  6 34  1  0
  7 35  1  0
  9 36  1  0
 10 37  1  0
 12 38  1  0
 15 39  1  0
 15 40  1  0
 22 41  1  0
M  CHG  1  20  -1
M  END
>  <UniqueID>  (86) 
86

>  <SMILES>  (86) 
NCCCCCNc1ccc2cc(C(N)=O)n(C(=O)[O-])c2c1

>  <Energy>  (86) 
73.12615210732025

>  <Genealogy>  (86) 
NCCCCCNc1ccc2cc(C(N)=O)n(C(=O)[O-])c2c1 (protonated)
NCCCCCNc1ccc2cc(C(N)=O)n(C(=O)[O-])c2c1 (3D coordinates assigned)
NCCCCCNc1ccc2cc(C(N)=O)n(C(=O)[O-])c2c1 (optimized conformer: 73.12615210732025 kcal/mol)

>  <smiles>  (86) 
NCCCCCNc1ccc2cc(C(N)=O)n(C(=O)O)c2c1

>  <score_type>  (86) 
oracle

>  <origin>  (86) 
adg

>  <m_score__min__energy>  (86) 
-7.3499999999999996

>  <m_primary>  (86) 
energy

$$$$
86:0
     RDKit          3D

 57 59  0  0  1  0  0  0  0  0999 V2000
  147.3750  156.7220  132.8780 C   0  0  0  0  0  0  0  0  0  0  0  0
  146.1310  157.7190  133.0140 B   0  0  0  0  0  0  0  0  0  0  0  0
  144.8070  157.0600  132.9610 O   0  0  0  0  0  0  0  0  0  0  0  0
  146.2540  159.0440  133.7040 N   0  0  0  0  0  0  0  0  0  0  0  0
  145.3660  160.0460  133.2130 C   0  0  0  0  0  0  0  0  0  0  0  0
  143.9920  159.9940  133.7000 C   0  0  0  0  0  0  0  0  0  0  0  0
  143.3500  161.0920  133.7730 O   0  0  0  0  0  0  0  0  0  0  0  0
  143.2950  158.8280  134.1040 N   0  0  0  0  0  0  0  0  0  0  0  0
  141.9240  158.9060  134.5720 C   0  0  1  0  0  0  0  0  0  0  0  0
  141.0630  159.3870  133.4480 C   0  0  0  0  0  0  0  0  0  0  0  0
  141.4890  157.5930  135.1390 C   0  0  0  0  0  0  0  0  0  0  0  0
  142.1740  156.9180  135.9260 O   0  0  0  0  0  0  0  0  0  0  0  0
  140.2470  157.1280  134.7440 O   0  0  0  0  0  0  0  0  0  0  0  0
  139.9520  156.3710  133.6220 C   0  0  0  0  0  0  0  0  0  0  0  0
  140.8850  155.4160  133.2370 O   0  0  0  0  0  0  0  0  0  0  0  0
  140.6820  154.0910  132.9860 C   0  0  0  0  0  0  0  0  0  0  0  0
  139.4550  153.7650  132.7880 O   0  0  0  0  0  0  0  0  0  0  0  0
  141.6610  153.0740  132.9230 N   0  0  0  0  0  0  0  0  0  0  0  0
  142.9770  153.1810  133.1790 C   0  0  0  0  0  0  0  0  0  0  0  0
  143.7890  154.3020  133.5800 C   0  0  0  0  0  0  0  0  0  0  0  0
  143.4250  155.3810  134.4100 N   0  0  0  0  0  0  0  0  0  0  0  0
  144.9980  154.3610  133.1470 O   0  0  0  0  0  0  0  0  0  0  0  0
  143.5170  151.9090  132.9800 C   0  0  0  0  0  0  0  0  0  0  0  0
  142.5230  151.0430  132.6060 C   0  0  0  0  0  0  0  0  0  0  0  0
  142.5410  149.6990  132.2990 C   0  0  0  0  0  0  0  0  0  0  0  0
  141.3930  149.0380  131.9460 C   0  0  0  0  0  0  0  0  0  0  0  0
  140.2180  149.7560  131.9050 C   0  0  0  0  0  0  0  0  0  0  0  0
  138.9570  149.0680  131.5250 C   0  0  0  0  0  0  0  0  0  0  0  0
  139.0610  147.8560  130.6220 C   0  0  0  0  0  0  0  0  0  0  0  0
  138.4400  149.1690  130.1140 C   0  0  0  0  0  0  0  0  0  0  0  0
  140.2140  151.1180  132.2190 C   0  0  0  0  0  0  0  0  0  0  0  0
  141.3720  151.7820  132.5740 C   0  0  0  0  0  0  0  0  0  0  0  0
  147.7289  156.4384  133.8802 H   0  0  0  0  0  0  0  0  0  0  0  0
  147.0640  155.8202  132.3302 H   0  0  0  0  0  0  0  0  0  0  0  0
  148.1874  157.2219  132.3302 H   0  0  0  0  0  0  0  0  0  0  0  0
  144.8640  156.3430  132.2850 H   0  0  0  0  0  0  0  0  0  0  0  0
  147.2370  159.3920  133.7300 H   0  0  0  0  0  0  0  0  0  0  0  0
  145.7819  161.0259  133.4903 H   0  0  0  0  0  0  0  0  0  0  0  0
  145.2975  159.8684  132.1296 H   0  0  0  0  0  0  0  0  0  0  0  0
  143.7750  157.9050  134.0580 H   0  0  0  0  0  0  0  0  0  0  0  0
  141.8313  159.6294  135.3955 H   0  0  0  0  0  0  0  0  0  0  0  0
  140.1713  159.8851  133.8564 H   0  0  0  0  0  0  0  0  0  0  0  0
  141.6302  160.0989  132.8304 H   0  0  0  0  0  0  0  0  0  0  0  0
  140.7541  158.5308  132.8304 H   0  0  0  0  0  0  0  0  0  0  0  0
  139.0038  155.8481  133.8155 H   0  0  0  0  0  0  0  0  0  0  0  0
  139.9258  157.0925  132.7921 H   0  0  0  0  0  0  0  0  0  0  0  0
  143.0050  156.2570  133.9760 H   0  0  0  0  0  0  0  0  0  0  0  0
  143.5810  155.3160  135.4600 H   0  0  0  0  0  0  0  0  0  0  0  0
  144.5771  151.6429  133.1043 H   0  0  0  0  0  0  0  0  0  0  0  0
  143.4922  149.1480  132.3379 H   0  0  0  0  0  0  0  0  0  0  0  0
  141.4096  147.9654  131.7026 H   0  0  0  0  0  0  0  0  0  0  0  0
  138.5142  149.2762  132.5102 H   0  0  0  0  0  0  0  0  0  0  0  0
  140.0422  147.5280  130.2483 H   0  0  0  0  0  0  0  0  0  0  0  0
  138.7360  146.8067  130.6792 H   0  0  0  0  0  0  0  0  0  0  0  0
  138.9755  149.7814  129.3736 H   0  0  0  0  0  0  0  0  0  0  0  0
  137.4821  149.4514  129.6529 H   0  0  0  0  0  0  0  0  0  0  0  0
  139.2658  151.6745  132.1825 H   0  0  0  0  0  0  0  0  0  0  0  0
  1  2  1  0
  2  3  1  0
  2  4  1  0
  4  5  1  0
  5  6  1  0
  6  7  2  0
  6  8  1  0
  8  9  1  0
  9 10  1  0
  9 11  1  0
 11 12  2  0
 11 13  1  0
 13 14  1  0
 14 15  1  0
 15 16  1  0
 16 17  2  0
 16 18  1  0
 18 19  1  0
 19 20  1  0
 20 21  1  0
 20 22  2  0
 19 23  2  0
 23 24  1  0
 24 25  2  0
 25 26  1  0
 26 27  2  0
 27 28  1  0
 28 29  1  0
 29 30  1  0
 27 31  1  0
 31 32  2  0
 32 18  1  0
 32 24  1  0
 30 28  1  0
  1 33  1  0
  1 34  1  0
  1 35  1  0
  3 36  1  0
  4 37  1  0
  5 38  1  0
  5 39  1  0
  8 40  1  0
  9 41  1  1
 10 42  1  0
 10 43  1  0
 10 44  1  0
 14 45  1  0
 14 46  1  0
 21 47  1  0
 21 48  1  0
 23 49  1  0
 25 50  1  0
 26 51  1  0
 28 52  1  0
 29 53  1  0
 29 54  1  0
 30 55  1  0
 30 56  1  0
 31 57  1  0
M  END
>  <smiles>  (87) 
CB(O)NCC(=O)NC(C)C(=O)OCOC(=O)n1c(C(N)=O)cc2ccc(C3CC3)cc21

>  <score_type>  (87) 
oracle

>  <origin>  (87) 
adg

>  <m_score__min__energy>  (87) 
-8.0099999999999998

>  <m_primary>  (87) 
energy

$$$$
87:0
     RDKit          3D

 36 37  0  0  0  0  0  0  0  0999 V2000
  140.1290  158.1780  135.4950 C   0  0  0  0  0  0  0  0  0  0  0  0
  140.7350  158.2410  134.1600 N   0  0  0  0  0  0  0  0  0  0  0  0
  139.9550  157.7860  133.0030 C   0  0  0  0  0  0  0  0  0  0  0  0
  142.0860  158.7450  133.9850 C   0  0  0  0  0  0  0  0  0  0  0  0
  142.3420  160.1460  133.9680 C   0  0  0  0  0  0  0  0  0  0  0  0
  143.6470  160.6430  133.8130 C   0  0  0  0  0  0  0  0  0  0  0  0
  144.6810  159.7270  133.6640 C   0  0  0  0  0  0  0  0  0  0  0  0
  146.0350  159.9350  133.5350 C   0  0  0  0  0  0  0  0  0  0  0  0
  146.6000  158.6620  133.4500 C   0  0  0  0  0  0  0  0  0  0  0  0
  148.0480  158.3970  133.2720 C   0  0  0  0  0  0  0  0  0  0  0  0
  148.5850  157.0850  133.4660 N   0  0  0  0  0  0  0  0  0  0  0  0
  148.8290  159.3320  132.9560 O   0  0  0  0  0  0  0  0  0  0  0  0
  145.6260  157.7110  133.5090 N   0  0  0  0  0  0  0  0  0  0  0  0
  145.7950  156.2850  133.4860 C   0  0  0  0  0  0  0  0  0  0  0  0
  146.0430  155.7030  132.3950 O   0  0  0  0  0  0  0  0  0  0  0  0
  145.6240  155.4730  134.7340 C   0  0  0  0  0  0  0  0  0  0  0  0
  147.2140  154.7490  135.2330 P   0  0  0  0  0  0  0  0  0  0  0  0
  148.0850  155.8240  135.8390 O   0  0  0  0  0  0  0  0  0  0  0  0
  146.9490  153.5330  136.3780 O   0  0  0  0  0  0  0  0  0  0  0  0
  147.9930  154.0920  133.8820 O   0  0  0  0  0  0  0  0  0  0  0  0
  144.4610  158.3790  133.6520 C   0  0  0  0  0  0  0  0  0  0  0  0
  143.1770  157.8520  133.8320 C   0  0  0  0  0  0  0  0  0  0  0  0
  140.9160  158.2598  136.2591 H   0  0  0  0  0  0  0  0  0  0  0  0
  139.4155  159.0068  135.6133 H   0  0  0  0  0  0  0  0  0  0  0  0
  139.6012  157.2201  135.6133 H   0  0  0  0  0  0  0  0  0  0  0  0
  139.0539  157.2604  133.3520 H   0  0  0  0  0  0  0  0  0  0  0  0
  139.6607  158.6541  132.3949 H   0  0  0  0  0  0  0  0  0  0  0  0
  140.5658  157.1025  132.3949 H   0  0  0  0  0  0  0  0  0  0  0  0
  141.5043  160.8504  134.0780 H   0  0  0  0  0  0  0  0  0  0  0  0
  143.8442  161.7252  133.8097 H   0  0  0  0  0  0  0  0  0  0  0  0
  146.5609  160.9007  133.5052 H   0  0  0  0  0  0  0  0  0  0  0  0
  147.9710  156.2640  133.6590 H   0  0  0  0  0  0  0  0  0  0  0  0
  149.6120  156.9230  133.3710 H   0  0  0  0  0  0  0  0  0  0  0  0
  145.2503  156.1207  135.5408 H   0  0  0  0  0  0  0  0  0  0  0  0
  144.9054  154.6630  134.5400 H   0  0  0  0  0  0  0  0  0  0  0  0
  143.0168  156.7640  133.8544 H   0  0  0  0  0  0  0  0  0  0  0  0
  1  2  1  0
  2  3  1  0
  2  4  1  0
  4  5  2  0
  5  6  1  0
  6  7  2  0
  7  8  1  0
  8  9  2  0
  9 10  1  0
 10 11  1  0
 10 12  2  0
  9 13  1  0
 13 14  1  0
 14 15  2  0
 14 16  1  0
 16 17  1  0
 17 18  2  0
 17 19  1  0
 17 20  1  0
 13 21  1  0
 21 22  2  0
 22  4  1  0
 21  7  1  0
  1 23  1  0
  1 24  1  0
  1 25  1  0
  3 26  1  0
  3 27  1  0
  3 28  1  0
  5 29  1  0
  6 30  1  0
  8 31  1  0
 11 32  1  0
 11 33  1  0
 16 34  1  0
 16 35  1  0
 22 36  1  0
M  CHG  2  19  -1  20  -1
M  END
>  <UniqueID>  (88) 
87

>  <SMILES>  (88) 
CN(C)c1ccc2cc(C(N)=O)n(C(=O)CP(=O)([O-])[O-])c2c1

>  <Energy>  (88) 
71.49036734543527

>  <Genealogy>  (88) 
CN(C)c1ccc2cc(C(N)=O)n(C(=O)CP(=O)([O-])[O-])c2c1 (protonated)
CN(C)c1ccc2cc(C(N)=O)n(C(=O)CP(=O)([O-])[O-])c2c1 (3D coordinates assigned)
CN(C)c1ccc2cc(C(N)=O)n(C(=O)CP(=O)([O-])[O-])c2c1 (optimized conformer: 71.49036734543527 kcal/mol)

>  <smiles>  (88) 
CN(C)c1ccc2cc(C(N)=O)n(C(=O)CP(=O)(O)O)c2c1

>  <score_type>  (88) 
oracle

>  <origin>  (88) 
adg

>  <m_score__min__energy>  (88) 
-6.21

>  <m_primary>  (88) 
energy

$$$$
88:0
     RDKit          3D

 31 32  0  0  0  0  0  0  0  0999 V2000
  142.8120  161.1950  133.4020 N   0  0  0  0  0  0  0  0  0  0  0  0
  144.1920  161.3100  133.7290 C   0  0  0  0  0  0  0  0  0  0  0  0
  144.6410  162.4220  134.1160 O   0  0  0  0  0  0  0  0  0  0  0  0
  145.1110  160.1550  133.6070 C   0  0  0  0  0  0  0  0  0  0  0  0
  146.4960  160.2830  133.5080 C   0  0  0  0  0  0  0  0  0  0  0  0
  146.9750  158.9980  133.3860 C   0  0  0  0  0  0  0  0  0  0  0  0
  148.2820  158.5370  133.2670 C   0  0  0  0  0  0  0  0  0  0  0  0
  148.4860  157.1500  133.1870 C   0  0  0  0  0  0  0  0  0  0  0  0
  147.3900  156.2490  133.2590 C   0  0  0  0  0  0  0  0  0  0  0  0
  147.6190  154.7650  133.1380 C   0  0  0  0  0  0  0  0  0  0  0  0
  147.9370  154.2170  134.3690 F   0  0  0  0  0  0  0  0  0  0  0  0
  148.6610  154.5000  132.2660 F   0  0  0  0  0  0  0  0  0  0  0  0
  146.4690  154.1630  132.6620 F   0  0  0  0  0  0  0  0  0  0  0  0
  146.0760  156.7610  133.3590 C   0  0  0  0  0  0  0  0  0  0  0  0
  145.9010  158.1480  133.4120 C   0  0  0  0  0  0  0  0  0  0  0  0
  144.7500  158.8420  133.5380 N   0  0  0  0  0  0  0  0  0  0  0  0
  143.4310  158.2840  133.6320 C   0  0  0  0  0  0  0  0  0  0  0  0
  142.6960  158.2380  132.6100 O   0  0  0  0  0  0  0  0  0  0  0  0
  142.9290  157.7260  134.9300 C   0  0  0  0  0  0  0  0  0  0  0  0
  141.3110  158.4460  135.3420 P   0  0  1  0  0  0  0  0  0  0  0  0
  140.2620  157.3590  135.3620 O   0  0  0  0  0  0  0  0  0  0  0  0
  141.3960  159.1670  136.8700 O   0  0  0  0  0  0  0  0  0  0  0  0
  140.8890  159.6140  134.1930 O   0  0  0  0  0  0  0  0  0  0  0  0
  142.4560  160.3870  132.8430 H   0  0  0  0  0  0  0  0  0  0  0  0
  147.0820  161.2138  133.5240 H   0  0  0  0  0  0  0  0  0  0  0  0
  149.1296  159.2374  133.2365 H   0  0  0  0  0  0  0  0  0  0  0  0
  149.5062  156.7566  133.0672 H   0  0  0  0  0  0  0  0  0  0  0  0
  145.2101  156.0836  133.3943 H   0  0  0  0  0  0  0  0  0  0  0  0
  142.8284  156.6342  134.8410 H   0  0  0  0  0  0  0  0  0  0  0  0
  143.6449  157.9745  135.7273 H   0  0  0  0  0  0  0  0  0  0  0  0
  141.7370  159.8270  133.7270 H   0  0  0  0  0  0  0  0  0  0  0  0
  1  2  1  0
  2  3  2  0
  2  4  1  0
  4  5  2  0
  5  6  1  0
  6  7  2  0
  7  8  1  0
  8  9  2  0
  9 10  1  0
 10 11  1  0
 10 12  1  0
 10 13  1  0
  9 14  1  0
 14 15  2  0
 15 16  1  0
 16 17  1  0
 17 18  2  0
 17 19  1  0
 19 20  1  0
 20 21  2  0
 20 22  1  1
 20 23  1  0
 16  4  1  0
 15  6  1  0
  1 24  1  0
  5 25  1  0
  7 26  1  0
  8 27  1  0
 14 28  1  0
 19 29  1  0
 19 30  1  0
 23 31  1  0
M  CHG  2   1  -1  22  -1
M  END
>  <UniqueID>  (89) 
88

>  <SMILES>  (89) 
[NH-]C(=O)c1cc2ccc(C(F)(F)F)cc2n1C(=O)C[P@@](=O)([O-])O

>  <Energy>  (89) 
65.39528035646534

>  <Genealogy>  (89) 
[NH-]C(=O)c1cc2ccc(C(F)(F)F)cc2n1C(=O)CP(=O)([O-])O (protonated)
[NH-]C(=O)c1cc2ccc(C(F)(F)F)cc2n1C(=O)C[P@@](=O)([O-])O (chirality)
[NH-]C(=O)c1cc2ccc(C(F)(F)F)cc2n1C(=O)C[P@@](=O)([O-])O (3D coordinates assigned)
[NH-]C(=O)c1cc2ccc(C(F)(F)F)cc2n1C(=O)C[P@@](=O)([O-])O (optimized conformer: 65.39528035646534 kcal/mol)

>  <smiles>  (89) 
NC(=O)c1cc2ccc(C(F)(F)F)cc2n1C(=O)CP(=O)(O)O

>  <score_type>  (89) 
oracle

>  <origin>  (89) 
adg

>  <m_score__min__energy>  (89) 
-5.6500000000000004

>  <m_primary>  (89) 
energy

$$$$
89:0
     RDKit          3D

 46 47  0  0  0  0  0  0  0  0999 V2000
  141.3600  158.9660  137.8060 C   0  0  0  0  0  0  0  0  0  0  0  0
  141.3190  157.4470  137.6870 C   0  0  0  0  0  0  0  0  0  0  0  0
  140.1420  157.0310  136.9990 O   0  0  0  0  0  0  0  0  0  0  0  0
  139.8690  157.3630  135.6660 C   0  0  0  0  0  0  0  0  0  0  0  0
  138.8920  158.1060  135.3740 O   0  0  0  0  0  0  0  0  0  0  0  0
  140.7750  156.8690  134.5860 C   0  0  0  0  0  0  0  0  0  0  0  0
  142.0470  157.5030  134.7190 O   0  0  0  0  0  0  0  0  0  0  0  0
  142.9420  157.6730  133.6560 C   0  0  0  0  0  0  0  0  0  0  0  0
  142.9880  156.8270  132.7220 O   0  0  0  0  0  0  0  0  0  0  0  0
  143.7860  158.8330  133.6190 N   0  0  0  0  0  0  0  0  0  0  0  0
  143.4430  160.1310  133.8610 C   0  0  0  0  0  0  0  0  0  0  0  0
  142.0710  160.6450  134.0590 C   0  0  0  0  0  0  0  0  0  0  0  0
  141.1830  160.0310  134.9890 N   0  0  0  0  0  0  0  0  0  0  0  0
  141.6610  161.6110  133.3610 O   0  0  0  0  0  0  0  0  0  0  0  0
  144.5670  160.9520  133.8130 C   0  0  0  0  0  0  0  0  0  0  0  0
  145.6190  160.1140  133.5210 C   0  0  0  0  0  0  0  0  0  0  0  0
  146.9730  160.3980  133.3680 C   0  0  0  0  0  0  0  0  0  0  0  0
  147.8430  159.3280  133.0950 C   0  0  0  0  0  0  0  0  0  0  0  0
  147.3460  158.0060  132.9780 C   0  0  0  0  0  0  0  0  0  0  0  0
  148.2930  156.8680  132.7390 C   0  0  0  0  0  0  0  0  0  0  0  0
  145.9690  157.7540  133.1580 C   0  0  0  0  0  0  0  0  0  0  0  0
  145.1210  158.8410  133.4080 C   0  0  0  0  0  0  0  0  0  0  0  0
  140.1600  157.1850  133.2560 C   0  0  0  0  0  0  0  0  0  0  0  0
  139.5510  156.2860  132.6130 O   0  0  0  0  0  0  0  0  0  0  0  0
  140.3170  158.4660  132.7170 O   0  0  0  0  0  0  0  0  0  0  0  0
  139.2280  159.3540  132.4750 C   0  0  0  0  0  0  0  0  0  0  0  0
  139.1210  159.6780  130.9890 C   0  0  0  0  0  0  0  0  0  0  0  0
  141.3677  159.2505  138.8686 H   0  0  0  0  0  0  0  0  0  0  0  0
  142.2688  159.3477  137.3177 H   0  0  0  0  0  0  0  0  0  0  0  0
  140.4731  159.3961  137.3177 H   0  0  0  0  0  0  0  0  0  0  0  0
  142.2037  157.1036  137.1308 H   0  0  0  0  0  0  0  0  0  0  0  0
  141.3130  157.0114  138.6971 H   0  0  0  0  0  0  0  0  0  0  0  0
  140.9138  155.7806  134.6645 H   0  0  0  0  0  0  0  0  0  0  0  0
  140.6550  159.1670  134.7370 H   0  0  0  0  0  0  0  0  0  0  0  0
  144.6057  162.0394  133.9743 H   0  0  0  0  0  0  0  0  0  0  0  0
  147.3504  161.4273  133.4579 H   0  0  0  0  0  0  0  0  0  0  0  0
  148.9193  159.5186  132.9711 H   0  0  0  0  0  0  0  0  0  0  0  0
  148.6303  156.4627  133.7044 H   0  0  0  0  0  0  0  0  0  0  0  0
  147.7813  156.0788  132.1686 H   0  0  0  0  0  0  0  0  0  0  0  0
  149.1621  157.2278  132.1686 H   0  0  0  0  0  0  0  0  0  0  0  0
  145.5715  156.7298  133.1034 H   0  0  0  0  0  0  0  0  0  0  0  0
  138.2936  158.8801  132.8101 H   0  0  0  0  0  0  0  0  0  0  0  0
  139.4010  160.2876  133.0304 H   0  0  0  0  0  0  0  0  0  0  0  0
  138.7783  160.7157  130.8637 H   0  0  0  0  0  0  0  0  0  0  0  0
  140.1066  159.5577  130.5156 H   0  0  0  0  0  0  0  0  0  0  0  0
  138.4009  158.9944  130.5156 H   0  0  0  0  0  0  0  0  0  0  0  0
  1  2  1  0
  2  3  1  0
  3  4  1  0
  4  5  2  0
  4  6  1  0
  6  7  1  0
  7  8  1  0
  8  9  2  0
  8 10  1  0
 10 11  1  0
 11 12  1  0
 12 13  1  0
 12 14  2  0
 11 15  2  0
 15 16  1  0
 16 17  2  0
 17 18  1  0
 18 19  2  0
 19 20  1  0
 19 21  1  0
 21 22  2  0
  6 23  1  0
 23 24  2  0
 23 25  1  0
 25 26  1  0
 26 27  1  0
 22 10  1  0
 22 16  1  0
  1 28  1  0
  1 29  1  0
  1 30  1  0
  2 31  1  0
  2 32  1  0
  6 33  1  0
 13 34  1  0
 15 35  1  0
 17 36  1  0
 18 37  1  0
 20 38  1  0
 20 39  1  0
 20 40  1  0
 21 41  1  0
 26 42  1  0
 26 43  1  0
 27 44  1  0
 27 45  1  0
 27 46  1  0
M  CHG  1  13  -1
M  END
>  <UniqueID>  (90) 
89

>  <SMILES>  (90) 
CCOC(=O)C(OC(=O)n1c(C([NH-])=O)cc2ccc(C)cc21)C(=O)OCC

>  <Energy>  (90) 
71.91109948892117

>  <Genealogy>  (90) 
CCOC(=O)C(OC(=O)n1c(C([NH-])=O)cc2ccc(C)cc21)C(=O)OCC (protonated)
CCOC(=O)C(OC(=O)n1c(C([NH-])=O)cc2ccc(C)cc21)C(=O)OCC (3D coordinates assigned)
CCOC(=O)C(OC(=O)n1c(C([NH-])=O)cc2ccc(C)cc21)C(=O)OCC (optimized conformer: 71.91109948892117 kcal/mol)

>  <smiles>  (90) 
CCOC(=O)C(OC(=O)n1c(C(N)=O)cc2ccc(C)cc21)C(=O)OCC

>  <score_type>  (90) 
oracle

>  <origin>  (90) 
adg

>  <m_score__min__energy>  (90) 
-6.4699999999999998

>  <m_primary>  (90) 
energy

$$$$
90:0
     RDKit          3D

 44 45  0  0  0  0  0  0  0  0999 V2000
  148.8000  155.7220  132.7960 C   0  0  0  0  0  0  0  0  0  0  0  0
  148.0790  157.0200  133.0020 C   0  0  0  0  0  0  0  0  0  0  0  0
  148.7750  158.2460  132.8670 C   0  0  0  0  0  0  0  0  0  0  0  0
  148.0990  159.4710  133.0010 C   0  0  0  0  0  0  0  0  0  0  0  0
  146.7340  159.4360  133.2700 C   0  0  0  0  0  0  0  0  0  0  0  0
  145.8300  160.4660  133.4020 C   0  0  0  0  0  0  0  0  0  0  0  0
  144.5990  159.8520  133.6260 C   0  0  0  0  0  0  0  0  0  0  0  0
  143.3410  160.5990  133.8410 C   0  0  0  0  0  0  0  0  0  0  0  0
  142.1320  159.9280  134.1820 N   0  0  0  0  0  0  0  0  0  0  0  0
  143.3400  161.8560  133.7430 O   0  0  0  0  0  0  0  0  0  0  0  0
  144.7390  158.4960  133.6420 N   0  0  0  0  0  0  0  0  0  0  0  0
  143.7090  157.5110  133.8100 C   0  0  0  0  0  0  0  0  0  0  0  0
  143.4850  157.0300  134.9530 O   0  0  0  0  0  0  0  0  0  0  0  0
  142.9380  156.9970  132.6300 C   0  0  0  0  0  0  0  0  0  0  0  0
  141.5790  157.4240  132.6990 O   0  0  0  0  0  0  0  0  0  0  0  0
  140.6600  156.9220  133.6300 C   0  0  0  0  0  0  0  0  0  0  0  0
  139.8200  156.0430  133.2850 O   0  0  0  0  0  0  0  0  0  0  0  0
  140.6810  157.4270  134.9840 N   0  0  1  0  0  0  0  0  0  0  0  0
  139.4940  158.2530  135.2730 C   0  0  0  0  0  0  0  0  0  0  0  0
  140.8990  156.3520  135.9800 C   0  0  0  0  0  0  0  0  0  0  0  0
  140.8860  156.8230  137.4490 C   0  0  0  0  0  0  0  0  0  0  0  0
  141.7160  158.0590  137.6020 C   0  0  0  0  0  0  0  0  0  0  0  0
  142.1320  158.6710  136.5830 O   0  0  0  0  0  0  0  0  0  0  0  0
  142.0750  158.5060  138.8660 O   0  0  0  0  0  0  0  0  0  0  0  0
  146.0480  158.2570  133.4130 C   0  0  0  0  0  0  0  0  0  0  0  0
  146.6900  157.0240  133.2540 C   0  0  0  0  0  0  0  0  0  0  0  0
  149.0456  155.2799  133.7729 H   0  0  0  0  0  0  0  0  0  0  0  0
  148.1566  155.0307  132.2320 H   0  0  0  0  0  0  0  0  0  0  0  0
  149.7269  155.9029  132.2320 H   0  0  0  0  0  0  0  0  0  0  0  0
  149.8544  158.2395  132.6554 H   0  0  0  0  0  0  0  0  0  0  0  0
  148.6322  160.4274  132.8965 H   0  0  0  0  0  0  0  0  0  0  0  0
  146.0357  161.5450  133.3431 H   0  0  0  0  0  0  0  0  0  0  0  0
  142.1210  158.8990  134.3600 H   0  0  0  0  0  0  0  0  0  0  0  0
  143.3922  157.3818  131.7050 H   0  0  0  0  0  0  0  0  0  0  0  0
  142.9670  155.8974  132.6367 H   0  0  0  0  0  0  0  0  0  0  0  0
  141.5070  158.0680  135.0560 H   0  0  0  0  0  0  0  0  0  0  0  0
  139.3657  158.3423  136.3618 H   0  0  0  0  0  0  0  0  0  0  0  0
  139.6285  159.2536  134.8364 H   0  0  0  0  0  0  0  0  0  0  0  0
  138.6024  157.7792  134.8364 H   0  0  0  0  0  0  0  0  0  0  0  0
  140.1048  155.6014  135.8536 H   0  0  0  0  0  0  0  0  0  0  0  0
  141.9060  155.9520  135.7905 H   0  0  0  0  0  0  0  0  0  0  0  0
  139.8511  157.0403  137.7519 H   0  0  0  0  0  0  0  0  0  0  0  0
  141.3040  156.0286  138.0847 H   0  0  0  0  0  0  0  0  0  0  0  0
  146.1267  156.0817  133.3236 H   0  0  0  0  0  0  0  0  0  0  0  0
  1  2  1  0
  2  3  2  0
  3  4  1  0
  4  5  2  0
  5  6  1  0
  6  7  2  0
  7  8  1  0
  8  9  1  0
  8 10  2  0
  7 11  1  0
 11 12  1  0
 12 13  2  0
 12 14  1  0
 14 15  1  0
 15 16  1  0
 16 17  2  0
 16 18  1  0
 18 19  1  0
 18 20  1  0
 20 21  1  0
 21 22  1  0
 22 23  2  0
 22 24  1  0
 11 25  1  0
 25 26  2  0
 26  2  1  0
 25  5  1  0
  1 27  1  0
  1 28  1  0
  1 29  1  0
  3 30  1  0
  4 31  1  0
  6 32  1  0
  9 33  1  0
 14 34  1  0
 14 35  1  0
 18 36  1  6
 19 37  1  0
 19 38  1  0
 19 39  1  0
 20 40  1  0
 20 41  1  0
 21 42  1  0
 21 43  1  0
 26 44  1  0
M  CHG  3   9  -1  18   1  24  -1
M  END
>  <UniqueID>  (91) 
90

>  <SMILES>  (91) 
Cc1ccc2cc(C([NH-])=O)n(C(=O)COC(=O)[N@@H+](C)CCC(=O)[O-])c2c1

>  <Energy>  (91) 
80.87498347302702

>  <Genealogy>  (91) 
Cc1ccc2cc(C([NH-])=O)n(C(=O)COC(=O)[NH+](C)CCC(=O)[O-])c2c1 (protonated)
Cc1ccc2cc(C([NH-])=O)n(C(=O)COC(=O)[N@@H+](C)CCC(=O)[O-])c2c1 (chirality)
Cc1ccc2cc(C([NH-])=O)n(C(=O)COC(=O)[N@@H+](C)CCC(=O)[O-])c2c1 (3D coordinates assigned)
Cc1ccc2cc(C([NH-])=O)n(C(=O)COC(=O)[N@@H+](C)CCC(=O)[O-])c2c1 (optimized conformer: 80.87498347302702 kcal/mol)

>  <smiles>  (91) 
Cc1ccc2cc(C(N)=O)n(C(=O)COC(=O)N(C)CCC(=O)O)c2c1

>  <score_type>  (91) 
oracle

>  <origin>  (91) 
adg

>  <m_score__min__energy>  (91) 
-6.0300000000000002

>  <m_primary>  (91) 
energy

$$$$
91:0
     RDKit          3D

 37 38  0  0  0  0  0  0  0  0999 V2000
  144.5230  154.6080  133.7170 C   0  0  0  0  0  0  0  0  0  0  0  0
  145.5690  155.3690  134.0660 C   0  0  0  0  0  0  0  0  0  0  0  0
  146.3030  155.0820  135.3240 C   0  0  0  0  0  0  0  0  0  0  0  0
  145.7750  154.1570  136.2740 N   0  0  0  0  0  0  0  0  0  0  0  0
  147.3920  155.6650  135.5770 O   0  0  0  0  0  0  0  0  0  0  0  0
  145.9950  156.4820  133.1780 C   0  0  0  0  0  0  0  0  0  0  0  0
  146.7730  156.2510  132.2130 O   0  0  0  0  0  0  0  0  0  0  0  0
  145.5420  157.8270  133.4030 N   0  0  0  0  0  0  0  0  0  0  0  0
  146.3000  158.9460  133.5860 C   0  0  0  0  0  0  0  0  0  0  0  0
  147.7760  158.9700  133.7000 C   0  0  0  0  0  0  0  0  0  0  0  0
  148.5210  157.7560  133.8050 N   0  0  0  0  0  0  0  0  0  0  0  0
  148.3930  160.0680  133.6850 O   0  0  0  0  0  0  0  0  0  0  0  0
  145.4830  160.0660  133.7310 C   0  0  0  0  0  0  0  0  0  0  0  0
  144.1930  159.5920  133.6370 C   0  0  0  0  0  0  0  0  0  0  0  0
  142.9830  160.2680  133.7070 C   0  0  0  0  0  0  0  0  0  0  0  0
  141.8000  159.5250  133.5590 C   0  0  0  0  0  0  0  0  0  0  0  0
  141.8380  158.1170  133.3420 C   0  0  0  0  0  0  0  0  0  0  0  0
  140.6100  157.3590  133.1820 N   0  0  0  0  0  0  0  0  0  0  0  0
  140.5850  155.9150  133.4430 C   0  0  0  0  0  0  0  0  0  0  0  0
  139.3730  158.0230  132.7530 C   0  0  0  0  0  0  0  0  0  0  0  0
  143.1000  157.4710  133.2800 C   0  0  0  0  0  0  0  0  0  0  0  0
  144.2580  158.2390  133.4420 C   0  0  0  0  0  0  0  0  0  0  0  0
  143.9767  154.8177  132.7855 H   0  0  0  0  0  0  0  0  0  0  0  0
  144.2105  153.7735  134.3619 H   0  0  0  0  0  0  0  0  0  0  0  0
  145.4470  154.4780  137.2110 H   0  0  0  0  0  0  0  0  0  0  0  0
  149.5630  157.7850  133.8500 H   0  0  0  0  0  0  0  0  0  0  0  0
  148.0460  156.8310  133.8850 H   0  0  0  0  0  0  0  0  0  0  0  0
  145.8009  161.1074  133.8873 H   0  0  0  0  0  0  0  0  0  0  0  0
  142.9512  161.3548  133.8737 H   0  0  0  0  0  0  0  0  0  0  0  0
  140.8285  160.0383  133.6115 H   0  0  0  0  0  0  0  0  0  0  0  0
  140.5820  155.7386  134.5288 H   0  0  0  0  0  0  0  0  0  0  0  0
  139.6792  155.4776  132.9979 H   0  0  0  0  0  0  0  0  0  0  0  0
  141.4752  155.4465  132.9979 H   0  0  0  0  0  0  0  0  0  0  0  0
  138.7970  158.3322  133.6377 H   0  0  0  0  0  0  0  0  0  0  0  0
  139.6223  158.9085  132.1499 H   0  0  0  0  0  0  0  0  0  0  0  0
  138.7728  157.3258  132.1499 H   0  0  0  0  0  0  0  0  0  0  0  0
  143.1665  156.3866  133.1078 H   0  0  0  0  0  0  0  0  0  0  0  0
  1  2  2  0
  2  3  1  0
  3  4  1  0
  3  5  2  0
  2  6  1  0
  6  7  2  0
  6  8  1  0
  8  9  1  0
  9 10  1  0
 10 11  1  0
 10 12  2  0
  9 13  2  0
 13 14  1  0
 14 15  2  0
 15 16  1  0
 16 17  2  0
 17 18  1  0
 18 19  1  0
 18 20  1  0
 17 21  1  0
 21 22  2  0
 22  8  1  0
 22 14  1  0
  1 23  1  0
  1 24  1  0
  4 25  1  0
 11 26  1  0
 11 27  1  0
 13 28  1  0
 15 29  1  0
 16 30  1  0
 19 31  1  0
 19 32  1  0
 19 33  1  0
 20 34  1  0
 20 35  1  0
 20 36  1  0
 21 37  1  0
M  CHG  1   4  -1
M  END
>  <UniqueID>  (92) 
91

>  <SMILES>  (92) 
C=C(C([NH-])=O)C(=O)n1c(C(N)=O)cc2ccc(N(C)C)cc21

>  <Energy>  (92) 
79.04340998578634

>  <Genealogy>  (92) 
C=C(C([NH-])=O)C(=O)n1c(C(N)=O)cc2ccc(N(C)C)cc21 (protonated)
C=C(C([NH-])=O)C(=O)n1c(C(N)=O)cc2ccc(N(C)C)cc21 (3D coordinates assigned)
C=C(C([NH-])=O)C(=O)n1c(C(N)=O)cc2ccc(N(C)C)cc21 (optimized conformer: 79.04340998578634 kcal/mol)

>  <smiles>  (92) 
C=C(C(N)=O)C(=O)n1c(C(N)=O)cc2ccc(N(C)C)cc21

>  <score_type>  (92) 
oracle

>  <origin>  (92) 
adg

>  <m_score__min__energy>  (92) 
-6.6100000000000003

>  <m_primary>  (92) 
energy

$$$$
92:0
     RDKit          3D

 49 50  0  0  0  0  0  0  0  0999 V2000
  143.0530  160.3820  133.5290 C   0  0  0  0  0  0  0  0  0  0  0  0
  144.1550  159.3800  133.5780 C   0  0  0  0  0  0  0  0  0  0  0  0
  145.4650  159.7450  133.1620 C   0  0  0  0  0  0  0  0  0  0  0  0
  146.5340  158.8350  133.2590 C   0  0  0  0  0  0  0  0  0  0  0  0
  146.2600  157.5690  133.7700 C   0  0  0  0  0  0  0  0  0  0  0  0
  147.1180  156.5100  134.0410 C   0  0  0  0  0  0  0  0  0  0  0  0
  146.3030  155.5230  134.5920 C   0  0  0  0  0  0  0  0  0  0  0  0
  146.7860  154.1820  135.0130 C   0  0  0  0  0  0  0  0  0  0  0  0
  146.5640  153.7450  136.3570 N   0  0  0  0  0  0  0  0  0  0  0  0
  147.3560  153.4150  134.1870 O   0  0  0  0  0  0  0  0  0  0  0  0
  145.0120  155.9500  134.6530 N   0  0  0  0  0  0  0  0  0  0  0  0
  143.8850  155.2420  135.1760 C   0  0  0  0  0  0  0  0  0  0  0  0
  143.9670  154.7380  136.3280 O   0  0  0  0  0  0  0  0  0  0  0  0
  142.7060  155.0480  134.3750 N   0  0  0  0  0  0  0  0  0  0  0  0
  142.8460  154.4630  133.0320 C   0  0  0  0  0  0  0  0  0  0  0  0
  141.3650  155.3300  134.9140 C   0  0  0  0  0  0  0  0  0  0  0  0
  141.3450  156.5820  135.8310 C   0  0  2  0  0  0  0  0  0  0  0  0
  141.3720  156.1550  137.3000 C   0  0  0  0  0  0  0  0  0  0  0  0
  140.1750  157.4190  135.5770 N   0  0  0  0  0  0  0  0  0  0  0  0
  140.2110  158.5960  134.7550 C   0  0  0  0  0  0  0  0  0  0  0  0
  140.6080  159.6910  135.2440 O   0  0  0  0  0  0  0  0  0  0  0  0
  139.8270  158.5340  133.3670 N   0  0  0  0  0  0  0  0  0  0  0  0
  139.4680  157.2480  132.7630 C   0  0  0  0  0  0  0  0  0  0  0  0
  139.8640  159.7500  132.5570 C   0  0  0  0  0  0  0  0  0  0  0  0
  144.9980  157.2040  134.1620 C   0  0  0  0  0  0  0  0  0  0  0  0
  143.9140  158.0840  134.0940 C   0  0  0  0  0  0  0  0  0  0  0  0
  142.7566  160.6515  134.5535 H   0  0  0  0  0  0  0  0  0  0  0  0
  143.3987  161.2816  132.9987 H   0  0  0  0  0  0  0  0  0  0  0  0
  142.1902  159.9526  132.9987 H   0  0  0  0  0  0  0  0  0  0  0  0
  145.6451  160.7525  132.7589 H   0  0  0  0  0  0  0  0  0  0  0  0
  147.5499  159.1138  132.9424 H   0  0  0  0  0  0  0  0  0  0  0  0
  148.2020  156.4615  133.8603 H   0  0  0  0  0  0  0  0  0  0  0  0
  145.8950  154.2420  136.9870 H   0  0  0  0  0  0  0  0  0  0  0  0
  143.1012  153.3967  133.1213 H   0  0  0  0  0  0  0  0  0  0  0  0
  141.8973  154.5684  132.4854 H   0  0  0  0  0  0  0  0  0  0  0  0
  143.6442  154.9865  132.4854 H   0  0  0  0  0  0  0  0  0  0  0  0
  140.6749  155.4969  134.0738 H   0  0  0  0  0  0  0  0  0  0  0  0
  141.0601  154.4653  135.5217 H   0  0  0  0  0  0  0  0  0  0  0  0
  142.2409  157.1784  135.6038 H   0  0  0  0  0  0  0  0  0  0  0  0
  141.3156  157.0464  137.9420 H   0  0  0  0  0  0  0  0  0  0  0  0
  140.5135  155.4991  137.5070 H   0  0  0  0  0  0  0  0  0  0  0  0
  142.3062  155.6125  137.5070 H   0  0  0  0  0  0  0  0  0  0  0  0
  139.2632  156.5145  133.5568 H   0  0  0  0  0  0  0  0  0  0  0  0
  138.5706  157.3736  132.1394 H   0  0  0  0  0  0  0  0  0  0  0  0
  140.3007  156.8906  132.1394 H   0  0  0  0  0  0  0  0  0  0  0  0
  139.8908  160.6296  133.2171 H   0  0  0  0  0  0  0  0  0  0  0  0
  140.7623  159.7405  131.9222 H   0  0  0  0  0  0  0  0  0  0  0  0
  138.9668  159.7951  131.9222 H   0  0  0  0  0  0  0  0  0  0  0  0
  142.9111  157.7807  134.4290 H   0  0  0  0  0  0  0  0  0  0  0  0
  1  2  1  0
  2  3  2  0
  3  4  1  0
  4  5  2  0
  5  6  1  0
  6  7  2  0
  7  8  1  0
  8  9  1  0
  8 10  2  0
  7 11  1  0
 11 12  1  0
 12 13  2  0
 12 14  1  0
 14 15  1  0
 14 16  1  0
 16 17  1  0
 17 18  1  0
 17 19  1  0
 19 20  1  0
 20 21  2  0
 20 22  1  0
 22 23  1  0
 22 24  1  0
 11 25  1  0
 25 26  2  0
 26  2  1  0
 25  5  1  0
  1 27  1  0
  1 28  1  0
  1 29  1  0
  3 30  1  0
  4 31  1  0
  6 32  1  0
  9 33  1  0
 15 34  1  0
 15 35  1  0
 15 36  1  0
 16 37  1  0
 16 38  1  0
 17 39  1  6
 18 40  1  0
 18 41  1  0
 18 42  1  0
 23 43  1  0
 23 44  1  0
 23 45  1  0
 24 46  1  0
 24 47  1  0
 24 48  1  0
 26 49  1  0
M  CHG  2   9  -1  19  -1
M  END
>  <UniqueID>  (93) 
92

>  <SMILES>  (93) 
Cc1ccc2cc(C([NH-])=O)n(C(=O)N(C)C[C@H](C)[N-]C(=O)N(C)C)c2c1

>  <Energy>  (93) 
78.76502530538988

>  <Genealogy>  (93) 
Cc1ccc2cc(C([NH-])=O)n(C(=O)N(C)C[C@H](C)[N-]C(=O)N(C)C)c2c1 (protonated)
Cc1ccc2cc(C([NH-])=O)n(C(=O)N(C)C[C@H](C)[N-]C(=O)N(C)C)c2c1 (3D coordinates assigned)
Cc1ccc2cc(C([NH-])=O)n(C(=O)N(C)C[C@H](C)[N-]C(=O)N(C)C)c2c1 (optimized conformer: 78.76502530538988 kcal/mol)

>  <smiles>  (93) 
Cc1ccc2cc(C(N)=O)n(C(=O)N(C)C[C@H](C)NC(=O)N(C)C)c2c1

>  <score_type>  (93) 
oracle

>  <origin>  (93) 
adg

>  <m_score__min__energy>  (93) 
-7.7000000000000002

>  <m_primary>  (93) 
energy

$$$$
93:0
     RDKit          3D

 44 46  0  0  0  0  0  0  0  0999 V2000
  144.5080  155.2920  135.4400 N   0  0  0  0  0  0  0  0  0  0  0  0
  144.3690  154.9550  134.0620 C   0  0  0  0  0  0  0  0  0  0  0  0
  144.8950  155.6980  133.1900 O   0  0  0  0  0  0  0  0  0  0  0  0
  143.5840  153.7750  133.6410 C   0  0  0  0  0  0  0  0  0  0  0  0
  144.1440  152.5190  133.4080 C   0  0  0  0  0  0  0  0  0  0  0  0
  143.1020  151.7300  132.9750 C   0  0  0  0  0  0  0  0  0  0  0  0
  143.0860  150.3880  132.6070 C   0  0  0  0  0  0  0  0  0  0  0  0
  141.8570  149.8240  132.2250 C   0  0  0  0  0  0  0  0  0  0  0  0
  140.6650  150.5980  132.2420 C   0  0  0  0  0  0  0  0  0  0  0  0
  139.3580  149.9970  131.7930 C   0  0  0  0  0  0  0  0  0  0  0  0
  138.2930  150.7670  132.2310 F   0  0  0  0  0  0  0  0  0  0  0  0
  139.2050  148.7180  132.3010 F   0  0  0  0  0  0  0  0  0  0  0  0
  139.3340  149.9400  130.4120 F   0  0  0  0  0  0  0  0  0  0  0  0
  140.7300  151.9630  132.6050 C   0  0  0  0  0  0  0  0  0  0  0  0
  141.9710  152.5030  132.9590 C   0  0  0  0  0  0  0  0  0  0  0  0
  142.2510  153.7600  133.3610 N   0  0  0  0  0  0  0  0  0  0  0  0
  141.3010  154.8200  133.5410 C   0  0  0  0  0  0  0  0  0  0  0  0
  140.2330  154.8230  132.8720 O   0  0  0  0  0  0  0  0  0  0  0  0
  141.5730  155.8760  134.4750 N   0  0  0  0  0  0  0  0  0  0  0  0
  140.7410  157.0830  134.5510 C   0  0  1  0  0  0  0  0  0  0  0  0
  140.0860  157.2130  135.9380 C   0  0  0  0  0  0  0  0  0  0  0  0
  141.1190  157.3290  137.0180 C   0  0  0  0  0  0  0  0  0  0  0  0
  141.0770  158.2870  137.8360 O   0  0  0  0  0  0  0  0  0  0  0  0
  142.1100  156.3620  137.1400 O   0  0  0  0  0  0  0  0  0  0  0  0
  141.5840  158.3010  134.2350 C   0  0  0  0  0  0  0  0  0  0  0  0
  141.0160  159.5890  134.2400 C   0  0  0  0  0  0  0  0  0  0  0  0
  141.8050  160.7120  133.9750 C   0  0  0  0  0  0  0  0  0  0  0  0
  143.1680  160.5640  133.7080 C   0  0  0  0  0  0  0  0  0  0  0  0
  143.7440  159.2900  133.7000 C   0  0  0  0  0  0  0  0  0  0  0  0
  145.4570  159.1050  133.3700 Cl  0  0  0  0  0  0  0  0  0  0  0  0
  142.9560  158.1620  133.9610 C   0  0  0  0  0  0  0  0  0  0  0  0
  143.8170  155.9170  135.9130 H   0  0  0  0  0  0  0  0  0  0  0  0
  145.1947  152.2220  133.5417 H   0  0  0  0  0  0  0  0  0  0  0  0
  144.0073  149.7871  132.6149 H   0  0  0  0  0  0  0  0  0  0  0  0
  141.8169  148.7711  131.9091 H   0  0  0  0  0  0  0  0  0  0  0  0
  139.8241  152.5870  132.6090 H   0  0  0  0  0  0  0  0  0  0  0  0
  142.4460  155.8210  135.0470 H   0  0  0  0  0  0  0  0  0  0  0  0
  139.9326  157.0061  133.8090 H   0  0  0  0  0  0  0  0  0  0  0  0
  139.4505  158.1108  135.9517 H   0  0  0  0  0  0  0  0  0  0  0  0
  139.4867  156.3099  136.1256 H   0  0  0  0  0  0  0  0  0  0  0  0
  139.9441  159.7126  134.4539 H   0  0  0  0  0  0  0  0  0  0  0  0
  141.3516  161.7142  133.9767 H   0  0  0  0  0  0  0  0  0  0  0  0
  143.7880  161.4494  133.5041 H   0  0  0  0  0  0  0  0  0  0  0  0
  143.4131  157.1615  133.9516 H   0  0  0  0  0  0  0  0  0  0  0  0
  1  2  1  0
  2  3  2  0
  2  4  1  0
  4  5  2  0
  5  6  1  0
  6  7  2  0
  7  8  1  0
  8  9  2  0
  9 10  1  0
 10 11  1  0
 10 12  1  0
 10 13  1  0
  9 14  1  0
 14 15  2  0
 15 16  1  0
 16 17  1  0
 17 18  2  0
 17 19  1  0
 19 20  1  0
 20 21  1  0
 21 22  1  0
 22 23  2  0
 22 24  1  0
 20 25  1  0
 25 26  2  0
 26 27  1  0
 27 28  2  0
 28 29  1  0
 29 30  1  0
 29 31  2  0
 16  4  1  0
 31 25  1  0
 15  6  1  0
  1 32  1  0
  5 33  1  0
  7 34  1  0
  8 35  1  0
 14 36  1  0
 19 37  1  0
 20 38  1  6
 21 39  1  0
 21 40  1  0
 26 41  1  0
 27 42  1  0
 28 43  1  0
 31 44  1  0
M  CHG  2   1  -1  24  -1
M  END
>  <UniqueID>  (94) 
93

>  <SMILES>  (94) 
[NH-]C(=O)c1cc2ccc(C(F)(F)F)cc2n1C(=O)N[C@@H](CC(=O)[O-])c1cccc(Cl)c1

>  <Energy>  (94) 
81.58222533181609

>  <Genealogy>  (94) 
[NH-]C(=O)c1cc2ccc(C(F)(F)F)cc2n1C(=O)NC(CC(=O)[O-])c1cccc(Cl)c1 (protonated)
[NH-]C(=O)c1cc2ccc(C(F)(F)F)cc2n1C(=O)N[C@@H](CC(=O)[O-])c1cccc(Cl)c1 (chirality)
[NH-]C(=O)c1cc2ccc(C(F)(F)F)cc2n1C(=O)N[C@@H](CC(=O)[O-])c1cccc(Cl)c1 (3D coordinates assigned)
[NH-]C(=O)c1cc2ccc(C(F)(F)F)cc2n1C(=O)N[C@@H](CC(=O)[O-])c1cccc(Cl)c1 (optimized conformer: 81.58222533181609 kcal/mol)

>  <smiles>  (94) 
NC(=O)c1cc2ccc(C(F)(F)F)cc2n1C(=O)NC(CC(=O)O)c1cccc(Cl)c1

>  <score_type>  (94) 
oracle

>  <origin>  (94) 
adg

>  <m_score__min__energy>  (94) 
-8.6199999999999992

>  <m_primary>  (94) 
energy

$$$$
94:0
     RDKit          3D

 50 52  0  0  0  0  0  0  0  0999 V2000
  141.2290  151.0710  138.2510 C   0  0  0  0  0  0  0  0  0  0  0  0
  141.2160  152.5340  138.5790 C   0  0  0  0  0  0  0  0  0  0  0  0
  140.9710  152.9610  139.9070 C   0  0  0  0  0  0  0  0  0  0  0  0
  140.9310  154.3290  140.2230 C   0  0  0  0  0  0  0  0  0  0  0  0
  141.1200  155.2430  139.1890 C   0  0  0  0  0  0  0  0  0  0  0  0
  141.1480  156.6180  139.2180 C   0  0  0  0  0  0  0  0  0  0  0  0
  141.3710  157.0100  137.8990 C   0  0  0  0  0  0  0  0  0  0  0  0
  141.3860  158.4230  137.4610 C   0  0  0  0  0  0  0  0  0  0  0  0
  141.4790  158.7340  136.0740 N   0  0  0  0  0  0  0  0  0  0  0  0
  141.3550  159.3590  138.3020 O   0  0  0  0  0  0  0  0  0  0  0  0
  141.4860  155.9200  137.0890 N   0  0  0  0  0  0  0  0  0  0  0  0
  141.7720  155.8920  135.6820 C   0  0  0  0  0  0  0  0  0  0  0  0
  140.8930  155.4960  134.8690 O   0  0  0  0  0  0  0  0  0  0  0  0
  143.0180  156.3290  135.2190 O   0  0  0  0  0  0  0  0  0  0  0  0
  143.7380  155.6820  134.1710 C   0  0  0  0  0  0  0  0  0  0  0  0
  144.3000  156.7160  133.1910 C   0  0  0  0  0  0  0  0  0  0  0  0
  143.3640  157.9350  133.0470 C   0  0  2  0  0  0  0  0  0  0  0  0
  143.3480  158.6940  134.2310 O   0  0  0  0  0  0  0  0  0  0  0  0
  141.9280  157.5070  132.6770 C   0  0  0  0  0  0  0  0  0  0  0  0
  140.9270  158.3720  133.3470 N   0  0  0  0  0  0  0  0  0  0  0  0
  140.7190  159.6250  132.6070 C   0  0  0  0  0  0  0  0  0  0  0  0
  139.5940  159.3930  131.6170 C   0  0  0  0  0  0  0  0  0  0  0  0
  138.7790  158.2610  132.2110 C   0  0  0  0  0  0  0  0  0  0  0  0
  139.5990  157.7360  133.3850 C   0  0  0  0  0  0  0  0  0  0  0  0
  141.3260  154.8460  137.8920 C   0  0  0  0  0  0  0  0  0  0  0  0
  141.3880  153.4880  137.5530 C   0  0  0  0  0  0  0  0  0  0  0  0
  141.2342  150.4864  139.1828 H   0  0  0  0  0  0  0  0  0  0  0  0
  140.3331  150.8187  137.6648 H   0  0  0  0  0  0  0  0  0  0  0  0
  142.1293  150.8346  137.6648 H   0  0  0  0  0  0  0  0  0  0  0  0
  140.8105  152.2142  140.6985 H   0  0  0  0  0  0  0  0  0  0  0  0
  140.7559  154.6679  141.2547 H   0  0  0  0  0  0  0  0  0  0  0  0
  141.0214  157.2695  140.0952 H   0  0  0  0  0  0  0  0  0  0  0  0
  141.5950  157.9790  135.3610 H   0  0  0  0  0  0  0  0  0  0  0  0
  144.5682  155.1049  134.6044 H   0  0  0  0  0  0  0  0  0  0  0  0
  143.0540  155.0123  133.6292 H   0  0  0  0  0  0  0  0  0  0  0  0
  145.2786  157.0595  133.5577 H   0  0  0  0  0  0  0  0  0  0  0  0
  144.3938  156.2378  132.2049 H   0  0  0  0  0  0  0  0  0  0  0  0
  143.7586  158.5554  132.2289 H   0  0  0  0  0  0  0  0  0  0  0  0
  142.5660  158.4000  134.7670 H   0  0  0  0  0  0  0  0  0  0  0  0
  141.7988  157.5847  131.5874 H   0  0  0  0  0  0  0  0  0  0  0  0
  141.7743  156.4700  133.0100 H   0  0  0  0  0  0  0  0  0  0  0  0
  140.4449  160.4308  133.3038 H   0  0  0  0  0  0  0  0  0  0  0  0
  141.6396  159.9206  132.0825 H   0  0  0  0  0  0  0  0  0  0  0  0
  138.9788  160.2987  131.5111 H   0  0  0  0  0  0  0  0  0  0  0  0
  139.9701  159.1497  130.6123 H   0  0  0  0  0  0  0  0  0  0  0  0
  137.8038  158.6319  132.5594 H   0  0  0  0  0  0  0  0  0  0  0  0
  138.5780  157.4727  131.4706 H   0  0  0  0  0  0  0  0  0  0  0  0
  139.0951  157.9847  134.3306 H   0  0  0  0  0  0  0  0  0  0  0  0
  139.7017  156.6430  133.3150 H   0  0  0  0  0  0  0  0  0  0  0  0
  141.5661  153.1734  136.5141 H   0  0  0  0  0  0  0  0  0  0  0  0
  1  2  1  0
  2  3  2  0
  3  4  1  0
  4  5  2  0
  5  6  1  0
  6  7  2  0
  7  8  1  0
  8  9  1  0
  8 10  2  0
  7 11  1  0
 11 12  1  0
 12 13  2  0
 12 14  1  0
 14 15  1  0
 15 16  1  0
 16 17  1  0
 17 18  1  0
 17 19  1  0
 19 20  1  0
 20 21  1  0
 21 22  1  0
 22 23  1  0
 23 24  1  0
 11 25  1  0
 25 26  2  0
 26  2  1  0
 25  5  1  0
 24 20  1  0
  1 27  1  0
  1 28  1  0
  1 29  1  0
  3 30  1  0
  4 31  1  0
  6 32  1  0
  9 33  1  0
 15 34  1  0
 15 35  1  0
 16 36  1  0
 16 37  1  0
 17 38  1  6
 18 39  1  0
 19 40  1  0
 19 41  1  0
 21 42  1  0
 21 43  1  0
 22 44  1  0
 22 45  1  0
 23 46  1  0
 23 47  1  0
 24 48  1  0
 24 49  1  0
 26 50  1  0
M  CHG  1   9  -1
M  END
>  <UniqueID>  (95) 
94

>  <SMILES>  (95) 
Cc1ccc2cc(C([NH-])=O)n(C(=O)OCC[C@H](O)CN3CCCC3)c2c1

>  <Energy>  (95) 
87.00679898202748

>  <Genealogy>  (95) 
Cc1ccc2cc(C([NH-])=O)n(C(=O)OCC[C@H](O)CN3CCCC3)c2c1 (protonated)
Cc1ccc2cc(C([NH-])=O)n(C(=O)OCC[C@H](O)CN3CCCC3)c2c1 (3D coordinates assigned)
Cc1ccc2cc(C([NH-])=O)n(C(=O)OCC[C@H](O)CN3CCCC3)c2c1 (nonaromatic ring conformer: 87.00679898202748 kcal/mol)

>  <smiles>  (95) 
Cc1ccc2cc(C(N)=O)n(C(=O)OCC[C@H](O)CN3CCCC3)c2c1

>  <score_type>  (95) 
oracle

>  <origin>  (95) 
adg

>  <m_score__min__energy>  (95) 
-7.54

>  <m_primary>  (95) 
energy

$$$$
95:0
     RDKit          3D

 58 60  0  0  0  0  0  0  0  0999 V2000
  138.9760  157.8490  132.0210 C   0  0  0  0  0  0  0  0  0  0  0  0
  139.7250  157.4770  133.3190 C   0  0  0  0  0  0  0  0  0  0  0  0
  138.9070  157.9340  134.5500 C   0  0  0  0  0  0  0  0  0  0  0  0
  141.0960  158.0430  133.3300 N   0  0  0  0  0  0  0  0  0  0  0  0
  141.2470  159.7690  133.7010 P   0  0  2  0  0  0  0  0  0  0  0  0
  140.1900  160.5700  132.9760 O   0  0  0  0  0  0  0  0  0  0  0  0
  142.7850  160.2930  133.1730 O   0  0  0  0  0  0  0  0  0  0  0  0
  143.7810  159.6350  133.9180 C   0  0  0  0  0  0  0  0  0  0  0  0
  144.0980  158.3360  133.2490 C   0  0  0  0  0  0  0  0  0  0  0  0
  143.2700  157.8350  132.4430 O   0  0  0  0  0  0  0  0  0  0  0  0
  145.3350  157.6590  133.5140 N   0  0  0  0  0  0  0  0  0  0  0  0
  145.5140  156.5330  134.2610 C   0  0  0  0  0  0  0  0  0  0  0  0
  144.4390  155.7610  134.9210 C   0  0  0  0  0  0  0  0  0  0  0  0
  143.1330  156.3280  135.0430 N   0  0  0  0  0  0  0  0  0  0  0  0
  144.6590  154.6120  135.3880 O   0  0  0  0  0  0  0  0  0  0  0  0
  146.8600  156.1740  134.2850 C   0  0  0  0  0  0  0  0  0  0  0  0
  147.5040  157.1260  133.5290 C   0  0  0  0  0  0  0  0  0  0  0  0
  148.8540  157.2600  133.2170 C   0  0  0  0  0  0  0  0  0  0  0  0
  149.2410  158.3520  132.4240 C   0  0  0  0  0  0  0  0  0  0  0  0
  148.2850  159.3070  131.9860 C   0  0  0  0  0  0  0  0  0  0  0  0
  148.7010  160.4560  131.1050 C   0  0  0  0  0  0  0  0  0  0  0  0
  147.9830  160.4580  129.9220 F   0  0  0  0  0  0  0  0  0  0  0  0
  150.0460  160.3680  130.7930 F   0  0  0  0  0  0  0  0  0  0  0  0
  148.4700  161.6450  131.7720 F   0  0  0  0  0  0  0  0  0  0  0  0
  146.9200  159.1240  132.3080 C   0  0  0  0  0  0  0  0  0  0  0  0
  146.5620  158.0140  133.0780 C   0  0  0  0  0  0  0  0  0  0  0  0
  141.0790  160.0120  135.3850 O   0  0  0  0  0  0  0  0  0  0  0  0
  141.5900  158.8940  136.0700 C   0  0  0  0  0  0  0  0  0  0  0  0
  140.8170  158.7070  137.3800 C   0  0  2  0  0  0  0  0  0  0  0  0
  141.7760  158.5330  138.5790 C   0  0  0  0  0  0  0  0  0  0  0  0
  141.9010  157.0250  138.8020 C   0  0  0  0  0  0  0  0  0  0  0  0
  140.7070  156.5040  138.1050 C   0  0  0  0  0  0  0  0  0  0  0  0
  140.3190  155.3090  138.1700 O   0  0  0  0  0  0  0  0  0  0  0  0
  140.0490  157.4720  137.3150 N   0  0  0  0  0  0  0  0  0  0  0  0
  139.8740  155.9670  133.3270 C   0  0  0  0  0  0  0  0  0  0  0  0
  140.9900  155.4510  133.6000 O   0  0  0  0  0  0  0  0  0  0  0  0
  138.8180  155.1320  132.9710 O   0  0  0  0  0  0  0  0  0  0  0  0
  138.0173  158.3251  132.2745 H   0  0  0  0  0  0  0  0  0  0  0  0
  139.5880  158.5478  131.4319 H   0  0  0  0  0  0  0  0  0  0  0  0
  138.7890  156.9390  131.4319 H   0  0  0  0  0  0  0  0  0  0  0  0
  139.4335  157.6398  135.4699 H   0  0  0  0  0  0  0  0  0  0  0  0
  138.7910  159.0276  134.5277 H   0  0  0  0  0  0  0  0  0  0  0  0
  137.9149  157.4595  134.5277 H   0  0  0  0  0  0  0  0  0  0  0  0
  141.6710  157.5350  134.0440 H   0  0  0  0  0  0  0  0  0  0  0  0
  144.6852  160.2600  133.9609 H   0  0  0  0  0  0  0  0  0  0  0  0
  143.4247  159.4526  134.9426 H   0  0  0  0  0  0  0  0  0  0  0  0
  142.6390  156.7100  134.2090 H   0  0  0  0  0  0  0  0  0  0  0  0
  147.3116  155.3127  134.7990 H   0  0  0  0  0  0  0  0  0  0  0  0
  149.5948  156.5326  133.5806 H   0  0  0  0  0  0  0  0  0  0  0  0
  150.2968  158.4694  132.1385 H   0  0  0  0  0  0  0  0  0  0  0  0
  146.1586  159.8380  131.9608 H   0  0  0  0  0  0  0  0  0  0  0  0
  141.4763  157.9962  135.4447 H   0  0  0  0  0  0  0  0  0  0  0  0
  142.6561  159.0518  136.2901 H   0  0  0  0  0  0  0  0  0  0  0  0
  140.1834  159.5966  137.5110 H   0  0  0  0  0  0  0  0  0  0  0  0
  142.7595  158.9683  138.3483 H   0  0  0  0  0  0  0  0  0  0  0  0
  141.3964  159.0434  139.4765 H   0  0  0  0  0  0  0  0  0  0  0  0
  142.8262  156.6316  138.3557 H   0  0  0  0  0  0  0  0  0  0  0  0
  141.9516  156.7392  139.8630 H   0  0  0  0  0  0  0  0  0  0  0  0
  1  2  1  0
  2  3  1  0
  2  4  1  0
  4  5  1  0
  5  6  2  0
  5  7  1  6
  7  8  1  0
  8  9  1  0
  9 10  2  0
  9 11  1  0
 11 12  1  0
 12 13  1  0
 13 14  1  0
 13 15  2  0
 12 16  2  0
 16 17  1  0
 17 18  2  0
 18 19  1  0
 19 20  2  0
 20 21  1  0
 21 22  1  0
 21 23  1  0
 21 24  1  0
 20 25  1  0
 25 26  2  0
  5 27  1  0
 27 28  1  0
 28 29  1  0
 29 30  1  0
 30 31  1  0
 31 32  1  0
 32 33  2  0
 32 34  1  0
  2 35  1  0
 35 36  2  0
 35 37  1  0
 26 11  1  0
 34 29  1  0
 26 17  1  0
  1 38  1  0
  1 39  1  0
  1 40  1  0
  3 41  1  0
  3 42  1  0
  3 43  1  0
  4 44  1  0
  8 45  1  0
  8 46  1  0
 14 47  1  0
 16 48  1  0
 18 49  1  0
 19 50  1  0
 25 51  1  0
 28 52  1  0
 28 53  1  0
 29 54  1  1
 30 55  1  0
 30 56  1  0
 31 57  1  0
 31 58  1  0
M  CHG  3  14  -1  34  -1  37  -1
M  END
>  <UniqueID>  (96) 
95

>  <SMILES>  (96) 
CC(C)(N[P@](=O)(OCC(=O)n1c(C([NH-])=O)cc2ccc(C(F)(F)F)cc21)OC[C@@H]1CCC(=O)[N-]1)C(=O)[O-]

>  <Energy>  (96) 
107.0621628985033

>  <Genealogy>  (96) 
CC(C)(NP(=O)(OCC(=O)n1c(C([NH-])=O)cc2ccc(C(F)(F)F)cc21)OCC1CCC(=O)[N-]1)C(=O)[O-] (protonated)
CC(C)(N[P@](=O)(OCC(=O)n1c(C([NH-])=O)cc2ccc(C(F)(F)F)cc21)OC[C@@H]1CCC(=O)[N-]1)C(=O)[O-] (chirality)
CC(C)(N[P@](=O)(OCC(=O)n1c(C([NH-])=O)cc2ccc(C(F)(F)F)cc21)OC[C@@H]1CCC(=O)[N-]1)C(=O)[O-] (3D coordinates assigned)
CC(C)(N[P@](=O)(OCC(=O)n1c(C([NH-])=O)cc2ccc(C(F)(F)F)cc21)OC[C@@H]1CCC(=O)[N-]1)C(=O)[O-] (nonaromatic ring conformer: 107.0621628985033 kcal/mol)

>  <smiles>  (96) 
CC(C)(NP(=O)(OCC(=O)n1c(C(N)=O)cc2ccc(C(F)(F)F)cc21)OCC1CCC(=O)N1)C(=O)O

>  <score_type>  (96) 
oracle

>  <origin>  (96) 
adg

>  <m_score__min__energy>  (96) 
-9.3000000000000007

>  <m_primary>  (96) 
energy

$$$$
96:0
     RDKit          3D

 48 49  0  0  0  0  0  0  0  0999 V2000
  147.4016  151.0303  132.5906 H   0  0  0  0  0  0  0  0  0  0  0  0
  147.8690  152.0260  132.5800 C   0  0  0  0  0  0  0  0  0  0  0  0
  147.1810  153.0680  132.9280 N   0  0  0  0  0  0  0  0  0  0  0  0
  145.7940  152.9730  133.3680 C   0  0  0  0  0  0  0  0  0  0  0  0
  145.1300  153.3218  132.5634 H   0  0  0  0  0  0  0  0  0  0  0  0
  145.5588  151.9264  133.6117 H   0  0  0  0  0  0  0  0  0  0  0  0
  145.5890  153.8430  134.6110 C   0  0  0  0  0  0  0  0  0  0  0  0
  145.1688  153.2240  135.4174 H   0  0  0  0  0  0  0  0  0  0  0  0
  146.5621  154.2595  134.9103 H   0  0  0  0  0  0  0  0  0  0  0  0
  144.6700  154.9570  134.3320 N   0  0  0  0  0  0  0  0  0  0  0  0
  144.8220  155.7810  133.1540 C   0  0  0  0  0  0  0  0  0  0  0  0
  144.4320  155.3580  132.0330 O   0  0  0  0  0  0  0  0  0  0  0  0
  145.4310  157.0770  133.2350 N   0  0  0  0  0  0  0  0  0  0  0  0
  146.7230  157.4080  132.9650 C   0  0  0  0  0  0  0  0  0  0  0  0
  147.7930  156.4700  132.5660 C   0  0  0  0  0  0  0  0  0  0  0  0
  148.9890  156.7410  132.8580 O   0  0  0  0  0  0  0  0  0  0  0  0
  147.5030  155.2440  131.8940 N   0  0  0  0  0  0  0  0  0  0  0  0
  146.5310  154.8720  131.8360 H   0  0  0  0  0  0  0  0  0  0  0  0
  148.2840  154.6310  131.5710 H   0  0  0  0  0  0  0  0  0  0  0  0
  146.9120  158.7820  133.1060 C   0  0  0  0  0  0  0  0  0  0  0  0
  147.8437  159.3465  132.9536 H   0  0  0  0  0  0  0  0  0  0  0  0
  145.6830  159.2820  133.4770 C   0  0  0  0  0  0  0  0  0  0  0  0
  145.2870  160.5900  133.7450 C   0  0  0  0  0  0  0  0  0  0  0  0
  146.0056  161.4215  133.6977 H   0  0  0  0  0  0  0  0  0  0  0  0
  143.9390  160.8140  134.0780 C   0  0  0  0  0  0  0  0  0  0  0  0
  143.5958  161.8347  134.3026 H   0  0  0  0  0  0  0  0  0  0  0  0
  143.0190  159.7380  134.1270 C   0  0  0  0  0  0  0  0  0  0  0  0
  141.5750  159.9950  134.4410 C   0  0  0  0  0  0  0  0  0  0  0  0
  141.4358  160.0198  135.5319 H   0  0  0  0  0  0  0  0  0  0  0  0
  141.2725  160.9611  134.0107 H   0  0  0  0  0  0  0  0  0  0  0  0
  140.9578  159.1926  134.0107 H   0  0  0  0  0  0  0  0  0  0  0  0
  143.4530  158.4300  133.8230 C   0  0  0  0  0  0  0  0  0  0  0  0
  142.7450  157.5882  133.8146 H   0  0  0  0  0  0  0  0  0  0  0  0
  144.8050  158.2320  133.5330 C   0  0  0  0  0  0  0  0  0  0  0  0
  143.5150  155.1760  135.2080 C   0  0  0  0  0  0  0  0  0  0  0  0
  143.8350  155.1153  136.2587 H   0  0  0  0  0  0  0  0  0  0  0  0
  143.0890  156.1709  135.0113 H   0  0  0  0  0  0  0  0  0  0  0  0
  142.7544  154.4061  135.0113 H   0  0  0  0  0  0  0  0  0  0  0  0
  149.2670  152.1730  132.1730 C   0  0  0  0  0  0  0  0  0  0  0  0
  149.8270  153.2980  132.2710 O   0  0  0  0  0  0  0  0  0  0  0  0
  149.9610  151.0710  131.6670 O   0  0  0  0  0  0  0  0  0  0  0  0
  149.9820  150.7460  130.2810 C   0  0  0  0  0  0  0  0  0  0  0  0
  150.0782  151.6685  129.6896 H   0  0  0  0  0  0  0  0  0  0  0  0
  149.0474  150.2327  130.0108 H   0  0  0  0  0  0  0  0  0  0  0  0
  151.1620  149.8340  129.9920 C   0  0  0  0  0  0  0  0  0  0  0  0
  151.6029  149.4932  130.9404 H   0  0  0  0  0  0  0  0  0  0  0  0
  150.8195  148.9636  129.4132 H   0  0  0  0  0  0  0  0  0  0  0  0
  151.9180  150.3848  129.4132 H   0  0  0  0  0  0  0  0  0  0  0  0
  1  2  1  0
  2  3  2  0
  3  4  1  0
  4  5  1  0
  4  6  1  0
  4  7  1  0
  7  8  1  0
  7  9  1  0
  7 10  1  0
 10 11  1  0
 11 12  2  0
 11 13  1  0
 13 14  1  0
 14 15  1  0
 15 16  2  0
 15 17  1  0
 17 18  1  0
 17 19  1  0
 14 20  2  0
 20 21  1  0
 20 22  1  0
 22 23  2  0
 23 24  1  0
 23 25  1  0
 25 26  1  0
 25 27  2  0
 27 28  1  0
 28 29  1  0
 28 30  1  0
 28 31  1  0
 27 32  1  0
 32 33  1  0
 32 34  2  0
 10 35  1  0
 35 36  1  0
 35 37  1  0
 35 38  1  0
  2 39  1  0
 39 40  2  0
 39 41  1  0
 41 42  1  0
 42 43  1  0
 42 44  1  0
 42 45  1  0
 45 46  1  0
 45 47  1  0
 45 48  1  0
 34 13  1  0
 34 22  1  0
M  END
>  <UniqueID>  (97) 
96

>  <SMILES>  (97) 
CCOC(=O)/C=N/CCN(C)C(=O)n1c(C(N)=O)cc2ccc(C)cc21

>  <Energy>  (97) 
74.76899423101614

>  <Genealogy>  (97) 
CCOC(=O)/C=N/CCN(C)C(=O)n1c(C(N)=O)cc2ccc(C)cc21 (cis-trans isomerization)
CCOC(=O)/C=N/CCN(C)C(=O)n1c(C(N)=O)cc2ccc(C)cc21 (3D coordinates assigned)
CCOC(=O)/C=N/CCN(C)C(=O)n1c(C(N)=O)cc2ccc(C)cc21 (optimized conformer: 74.76899423101614 kcal/mol)

>  <smiles>  (97) 
CCOC(=O)/C=N/CCN(C)C(=O)n1c(C(N)=O)cc2ccc(C)cc21

>  <score_type>  (97) 
oracle

>  <origin>  (97) 
adg

>  <m_score__min__energy>  (97) 
-6.4000000000000004

>  <m_primary>  (97) 
energy

$$$$
97:0
     RDKit          3D

 30 31  0  0  0  0  0  0  0  0999 V2000
  139.0990  156.2340  132.6620 N   0  0  0  0  0  0  0  0  0  0  0  0
  140.3840  155.8890  133.1820 C   0  0  0  0  0  0  0  0  0  0  0  0
  140.5770  154.7250  133.6240 O   0  0  0  0  0  0  0  0  0  0  0  0
  141.4670  156.8880  133.2720 C   0  0  0  0  0  0  0  0  0  0  0  0
  142.8180  156.5630  133.1830 C   0  0  0  0  0  0  0  0  0  0  0  0
  143.4910  157.7480  133.3780 C   0  0  0  0  0  0  0  0  0  0  0  0
  144.8570  158.0110  133.3800 C   0  0  0  0  0  0  0  0  0  0  0  0
  145.2720  159.3400  133.5700 C   0  0  0  0  0  0  0  0  0  0  0  0
  144.3200  160.3720  133.7430 C   0  0  0  0  0  0  0  0  0  0  0  0
  144.7540  161.7230  133.9200 N   0  0  0  0  0  0  0  0  0  0  0  0
  142.9410  160.0710  133.7330 C   0  0  0  0  0  0  0  0  0  0  0  0
  142.5550  158.7350  133.5640 C   0  0  0  0  0  0  0  0  0  0  0  0
  141.3070  158.2220  133.4970 N   0  0  0  0  0  0  0  0  0  0  0  0
  140.0740  158.9580  133.5390 C   0  0  0  0  0  0  0  0  0  0  0  0
  139.1000  158.5160  134.2070 O   0  0  0  0  0  0  0  0  0  0  0  0
  139.9590  160.1650  132.8390 O   0  0  0  0  0  0  0  0  0  0  0  0
  139.1340  160.3250  131.6870 C   0  0  0  0  0  0  0  0  0  0  0  0
  138.5130  159.0200  131.3080 C   0  0  0  0  0  0  0  0  0  0  0  0
  139.1010  158.2450  130.5070 O   0  0  0  0  0  0  0  0  0  0  0  0
  137.2970  158.6420  131.8630 O   0  0  0  0  0  0  0  0  0  0  0  0
  138.8510  157.2260  132.4500 H   0  0  0  0  0  0  0  0  0  0  0  0
  138.3580  155.5050  132.5680 H   0  0  0  0  0  0  0  0  0  0  0  0
  143.2546  155.5707  132.9966 H   0  0  0  0  0  0  0  0  0  0  0  0
  145.5899  157.2033  133.2372 H   0  0  0  0  0  0  0  0  0  0  0  0
  146.3455  159.5798  133.5843 H   0  0  0  0  0  0  0  0  0  0  0  0
  144.3740  162.3090  134.6960 H   0  0  0  0  0  0  0  0  0  0  0  0
  145.4580  162.1470  133.2750 H   0  0  0  0  0  0  0  0  0  0  0  0
  142.1891  160.8647  133.8547 H   0  0  0  0  0  0  0  0  0  0  0  0
  138.3403  161.0540  131.9076 H   0  0  0  0  0  0  0  0  0  0  0  0
  139.7528  160.6828  130.8509 H   0  0  0  0  0  0  0  0  0  0  0  0
  1  2  1  0
  2  3  2  0
  2  4  1  0
  4  5  2  0
  5  6  1  0
  6  7  2  0
  7  8  1  0
  8  9  2  0
  9 10  1  0
  9 11  1  0
 11 12  2  0
 12 13  1  0
 13 14  1  0
 14 15  2  0
 14 16  1  0
 16 17  1  0
 17 18  1  0
 18 19  2  0
 18 20  1  0
 13  4  1  0
 12  6  1  0
  1 21  1  0
  1 22  1  0
  5 23  1  0
  7 24  1  0
  8 25  1  0
 10 26  1  0
 10 27  1  0
 11 28  1  0
 17 29  1  0
 17 30  1  0
M  CHG  1  20  -1
M  END
>  <UniqueID>  (98) 
97

>  <SMILES>  (98) 
NC(=O)c1cc2ccc(N)cc2n1C(=O)OCC(=O)[O-]

>  <Energy>  (98) 
66.68927552262532

>  <Genealogy>  (98) 
NC(=O)c1cc2ccc(N)cc2n1C(=O)OCC(=O)[O-] (protonated)
NC(=O)c1cc2ccc(N)cc2n1C(=O)OCC(=O)[O-] (3D coordinates assigned)
NC(=O)c1cc2ccc(N)cc2n1C(=O)OCC(=O)[O-] (optimized conformer: 66.68927552262532 kcal/mol)

>  <smiles>  (98) 
NC(=O)c1cc2ccc(N)cc2n1C(=O)OCC(=O)O

>  <score_type>  (98) 
oracle

>  <origin>  (98) 
adg

>  <m_score__min__energy>  (98) 
-5.79

>  <m_primary>  (98) 
energy

$$$$
98:0
     RDKit          3D

 53 54  0  0  0  0  0  0  0  0999 V2000
  139.1260  160.1930  130.3760 C   0  0  0  0  0  0  0  0  0  0  0  0
  139.2390  159.4160  131.6530 C   0  0  0  0  0  0  0  0  0  0  0  0
  138.1370  158.6620  132.1270 C   0  0  0  0  0  0  0  0  0  0  0  0
  138.2490  157.8850  133.2930 C   0  0  0  0  0  0  0  0  0  0  0  0
  139.4750  157.8750  133.9530 C   0  0  0  0  0  0  0  0  0  0  0  0
  139.8720  157.1810  135.0740 C   0  0  0  0  0  0  0  0  0  0  0  0
  141.2100  157.5240  135.2690 C   0  0  0  0  0  0  0  0  0  0  0  0
  142.0250  157.0670  136.4170 C   0  0  0  0  0  0  0  0  0  0  0  0
  142.9800  156.0150  136.2650 N   0  0  0  0  0  0  0  0  0  0  0  0
  141.8620  157.5860  137.5540 O   0  0  0  0  0  0  0  0  0  0  0  0
  141.6210  158.3980  134.3070 N   0  0  0  0  0  0  0  0  0  0  0  0
  142.9410  158.9300  134.1180 C   0  0  0  0  0  0  0  0  0  0  0  0
  143.3530  159.8690  134.8540 O   0  0  0  0  0  0  0  0  0  0  0  0
  143.7570  158.4130  133.1060 O   0  0  0  0  0  0  0  0  0  0  0  0
  144.9530  157.6820  133.3630 C   0  0  0  0  0  0  0  0  0  0  0  0
  144.6640  156.4770  134.0670 O   0  0  0  0  0  0  0  0  0  0  0  0
  145.6180  155.7820  134.8200 C   0  0  0  0  0  0  0  0  0  0  0  0
  145.2890  155.1760  135.8740 O   0  0  0  0  0  0  0  0  0  0  0  0
  147.0460  155.7770  134.3700 C   0  0  0  0  0  0  0  0  0  0  0  0
  147.1970  155.1480  132.9770 C   0  0  0  0  0  0  0  0  0  0  0  0
  147.0350  153.6420  132.9950 C   0  0  0  0  0  0  0  0  0  0  0  0
  148.0250  152.9420  133.3500 O   0  0  0  0  0  0  0  0  0  0  0  0
  145.8280  152.9770  132.5420 N   0  0  0  0  0  0  0  0  0  0  0  0
  145.8920  151.5410  132.2460 C   0  0  0  0  0  0  0  0  0  0  0  0
  144.5540  153.6920  132.3520 C   0  0  0  0  0  0  0  0  0  0  0  0
  143.3880  152.9230  132.9850 C   0  0  0  0  0  0  0  0  0  0  0  0
  142.7640  153.7050  134.0990 C   0  0  0  0  0  0  0  0  0  0  0  0
  143.0470  153.4370  135.2970 O   0  0  0  0  0  0  0  0  0  0  0  0
  141.8970  154.7550  133.8170 O   0  0  0  0  0  0  0  0  0  0  0  0
  140.5500  158.6010  133.5080 C   0  0  0  0  0  0  0  0  0  0  0  0
  140.4710  159.3720  132.3420 C   0  0  0  0  0  0  0  0  0  0  0  0
  138.9712  161.2573  130.6069 H   0  0  0  0  0  0  0  0  0  0  0  0
  140.0507  160.0752  129.7921 H   0  0  0  0  0  0  0  0  0  0  0  0
  138.2731  159.8167  129.7921 H   0  0  0  0  0  0  0  0  0  0  0  0
  137.1845  158.6849  131.5772 H   0  0  0  0  0  0  0  0  0  0  0  0
  137.3955  157.3035  133.6719 H   0  0  0  0  0  0  0  0  0  0  0  0
  139.2628  156.5000  135.6864 H   0  0  0  0  0  0  0  0  0  0  0  0
  143.1820  155.5930  135.3330 H   0  0  0  0  0  0  0  0  0  0  0  0
  143.5200  155.6770  137.0930 H   0  0  0  0  0  0  0  0  0  0  0  0
  145.4378  157.4346  132.4071 H   0  0  0  0  0  0  0  0  0  0  0  0
  145.6209  158.3012  133.9799 H   0  0  0  0  0  0  0  0  0  0  0  0
  147.4132  156.8133  134.3355 H   0  0  0  0  0  0  0  0  0  0  0  0
  147.6298  155.1772  135.0837 H   0  0  0  0  0  0  0  0  0  0  0  0
  146.4320  155.5763  132.3127 H   0  0  0  0  0  0  0  0  0  0  0  0
  148.2143  155.3685  132.6213 H   0  0  0  0  0  0  0  0  0  0  0  0
  145.9173  150.9733  133.1878 H   0  0  0  0  0  0  0  0  0  0  0  0
  145.0061  151.2467  131.6642 H   0  0  0  0  0  0  0  0  0  0  0  0
  146.8006  151.3267  131.6642 H   0  0  0  0  0  0  0  0  0  0  0  0
  144.6260  154.6845  132.8207 H   0  0  0  0  0  0  0  0  0  0  0  0
  144.3645  153.7862  131.2725 H   0  0  0  0  0  0  0  0  0  0  0  0
  142.6276  152.7267  132.2148 H   0  0  0  0  0  0  0  0  0  0  0  0
  143.7760  151.9797  133.3968 H   0  0  0  0  0  0  0  0  0  0  0  0
  141.3450  159.9285  131.9725 H   0  0  0  0  0  0  0  0  0  0  0  0
  1  2  1  0
  2  3  2  0
  3  4  1  0
  4  5  2  0
  5  6  1  0
  6  7  2  0
  7  8  1  0
  8  9  1  0
  8 10  2  0
  7 11  1  0
 11 12  1  0
 12 13  2  0
 12 14  1  0
 14 15  1  0
 15 16  1  0
 16 17  1  0
 17 18  2  0
 17 19  1  0
 19 20  1  0
 20 21  1  0
 21 22  2  0
 21 23  1  0
 23 24  1  0
 23 25  1  0
 25 26  1  0
 26 27  1  0
 27 28  2  0
 27 29  1  0
 11 30  1  0
 30 31  2  0
 31  2  1  0
 30  5  1  0
  1 32  1  0
  1 33  1  0
  1 34  1  0
  3 35  1  0
  4 36  1  0
  6 37  1  0
  9 38  1  0
  9 39  1  0
 15 40  1  0
 15 41  1  0
 19 42  1  0
 19 43  1  0
 20 44  1  0
 20 45  1  0
 24 46  1  0
 24 47  1  0
 24 48  1  0
 25 49  1  0
 25 50  1  0
 26 51  1  0
 26 52  1  0
 31 53  1  0
M  CHG  1  29  -1
M  END
>  <UniqueID>  (99) 
98

>  <SMILES>  (99) 
Cc1ccc2cc(C(N)=O)n(C(=O)OCOC(=O)CCC(=O)N(C)CCC(=O)[O-])c2c1

>  <Energy>  (99) 
80.0281548232142

>  <Genealogy>  (99) 
Cc1ccc2cc(C(N)=O)n(C(=O)OCOC(=O)CCC(=O)N(C)CCC(=O)[O-])c2c1 (protonated)
Cc1ccc2cc(C(N)=O)n(C(=O)OCOC(=O)CCC(=O)N(C)CCC(=O)[O-])c2c1 (3D coordinates assigned)
Cc1ccc2cc(C(N)=O)n(C(=O)OCOC(=O)CCC(=O)N(C)CCC(=O)[O-])c2c1 (optimized conformer: 80.0281548232142 kcal/mol)

>  <smiles>  (99) 
Cc1ccc2cc(C(N)=O)n(C(=O)OCOC(=O)CCC(=O)N(C)CCC(=O)O)c2c1

>  <score_type>  (99) 
oracle

>  <origin>  (99) 
adg

>  <m_score__min__energy>  (99) 
-7.6100000000000003

>  <m_primary>  (99) 
energy

$$$$
