0:0
     RDKit          3D

 59 63  0  0  0  0  0  0  0  0999 V2000
  149.5800  159.6720  131.4430 C   0  0  0  0  0  0  0  0  0  0  0  0
  148.2820  160.4670  131.3370 C   0  0  0  0  0  0  0  0  0  0  0  0
  147.1790  159.6930  131.8030 O   0  0  0  0  0  0  0  0  0  0  0  0
  146.8150  159.6070  133.1530 C   0  0  0  0  0  0  0  0  0  0  0  0
  147.6900  159.6870  134.0570 O   0  0  0  0  0  0  0  0  0  0  0  0
  145.4330  159.4610  133.5080 N   0  0  0  0  0  0  0  0  0  0  0  0
  144.5860  160.4160  133.9840 C   0  0  0  0  0  0  0  0  0  0  0  0
  144.8740  161.8630  134.0740 C   0  0  0  0  0  0  0  0  0  0  0  0
  146.1520  162.3310  134.4990 N   0  0  0  0  0  0  0  0  0  0  0  0
  143.9950  162.6970  133.7310 O   0  0  0  0  0  0  0  0  0  0  0  0
  143.3590  159.8530  134.3270 C   0  0  0  0  0  0  0  0  0  0  0  0
  143.4820  158.5110  134.0440 C   0  0  0  0  0  0  0  0  0  0  0  0
  142.5750  157.4710  134.2210 C   0  0  0  0  0  0  0  0  0  0  0  0
  142.9940  156.1680  133.8990 C   0  0  0  0  0  0  0  0  0  0  0  0
  144.3060  155.9290  133.4190 C   0  0  0  0  0  0  0  0  0  0  0  0
  144.7430  154.5420  133.1320 C   0  0  0  0  0  0  0  0  0  0  0  0
  146.0600  154.2320  132.9600 N   0  0  0  0  0  0  0  0  0  0  0  0
  146.2560  152.9190  132.6960 C   0  0  0  0  0  0  0  0  0  0  0  0
  147.5440  152.3330  132.4330 N   0  0  0  0  0  0  0  0  0  0  0  0
  147.6710  150.9850  131.8750 C   0  0  0  0  0  0  0  0  0  0  0  0
  148.6570  150.1500  132.7120 C   0  0  0  0  0  0  0  0  0  0  0  0
  149.7690  150.9400  133.3030 N   0  0  0  0  0  0  0  0  0  0  0  0
  149.6010  151.1200  134.7560 C   0  0  0  0  0  0  0  0  0  0  0  0
  150.0070  152.2280  132.6160 C   0  0  0  0  0  0  0  0  0  0  0  0
  148.7600  153.1260  132.6390 C   0  0  0  0  0  0  0  0  0  0  0  0
  144.7960  152.0840  132.6370 S   0  0  0  0  0  0  0  0  0  0  0  0
  143.8730  153.4540  132.9700 C   0  0  0  0  0  0  0  0  0  0  0  0
  142.3740  153.4560  133.0780 C   0  0  0  0  0  0  0  0  0  0  0  0
  141.6920  152.1570  132.6700 C   0  0  0  0  0  0  0  0  0  0  0  0
  141.8170  152.5170  134.1390 C   0  0  0  0  0  0  0  0  0  0  0  0
  145.1900  157.0150  133.2290 C   0  0  0  0  0  0  0  0  0  0  0  0
  144.7430  158.3000  133.5510 C   0  0  0  0  0  0  0  0  0  0  0  0
  149.8305  159.5186  132.5030 H   0  0  0  0  0  0  0  0  0  0  0  0
  149.4535  158.6962  130.9512 H   0  0  0  0  0  0  0  0  0  0  0  0
  150.3917  160.2280  130.9512 H   0  0  0  0  0  0  0  0  0  0  0  0
  148.3662  161.3792  131.9459 H   0  0  0  0  0  0  0  0  0  0  0  0
  148.1113  160.7276  130.2820 H   0  0  0  0  0  0  0  0  0  0  0  0
  147.0060  161.7440  134.3750 H   0  0  0  0  0  0  0  0  0  0  0  0
  142.4790  160.3703  134.7368 H   0  0  0  0  0  0  0  0  0  0  0  0
  141.5607  157.6623  134.6013 H   0  0  0  0  0  0  0  0  0  0  0  0
  142.2968  155.3259  134.0208 H   0  0  0  0  0  0  0  0  0  0  0  0
  146.8260  154.9390  133.0060 H   0  0  0  0  0  0  0  0  0  0  0  0
  146.6858  150.4959  131.8805 H   0  0  0  0  0  0  0  0  0  0  0  0
  148.0498  151.0588  130.8449 H   0  0  0  0  0  0  0  0  0  0  0  0
  148.0982  149.6733  133.5308 H   0  0  0  0  0  0  0  0  0  0  0  0
  149.1142  149.4188  132.0291 H   0  0  0  0  0  0  0  0  0  0  0  0
  150.2569  150.4173  135.2908 H   0  0  0  0  0  0  0  0  0  0  0  0
  149.8669  152.1514  135.0309 H   0  0  0  0  0  0  0  0  0  0  0  0
  148.5538  150.9257  135.0309 H   0  0  0  0  0  0  0  0  0  0  0  0
  150.8328  152.7525  133.1189 H   0  0  0  0  0  0  0  0  0  0  0  0
  150.2554  152.0146  131.5659 H   0  0  0  0  0  0  0  0  0  0  0  0
  148.6989  153.6336  133.6130 H   0  0  0  0  0  0  0  0  0  0  0  0
  148.8416  153.8640  131.8274 H   0  0  0  0  0  0  0  0  0  0  0  0
  142.2415  154.5172  132.8204 H   0  0  0  0  0  0  0  0  0  0  0  0
  140.7078  152.1833  132.1793 H   0  0  0  0  0  0  0  0  0  0  0  0
  141.9756  151.2900  132.0554 H   0  0  0  0  0  0  0  0  0  0  0  0
  140.9233  152.8040  134.7126 H   0  0  0  0  0  0  0  0  0  0  0  0
  142.2287  152.0185  135.0290 H   0  0  0  0  0  0  0  0  0  0  0  0
  146.2051  156.8533  132.8373 H   0  0  0  0  0  0  0  0  0  0  0  0
  1  2  1  0
  2  3  1  0
  3  4  1  0
  4  5  2  0
  4  6  1  0
  6  7  1  0
  7  8  1  0
  8  9  1  0
  8 10  2  0
  7 11  2  0
 11 12  1  0
 12 13  2  0
 13 14  1  0
 14 15  2  0
 15 16  1  0
 16 17  1  0
 17 18  2  0
 18 19  1  0
 19 20  1  0
 20 21  1  0
 21 22  1  0
 22 23  1  0
 22 24  1  0
 24 25  1  0
 18 26  1  0
 26 27  1  0
 27 28  1  0
 28 29  1  0
 29 30  1  0
 15 31  1  0
 31 32  2  0
 32  6  1  0
 32 12  1  0
 27 16  2  0
 30 28  1  0
 25 19  1  0
  1 33  1  0
  1 34  1  0
  1 35  1  0
  2 36  1  0
  2 37  1  0
  9 38  1  0
 11 39  1  0
 13 40  1  0
 14 41  1  0
 17 42  1  0
 20 43  1  0
 20 44  1  0
 21 45  1  0
 21 46  1  0
 23 47  1  0
 23 48  1  0
 23 49  1  0
 24 50  1  0
 24 51  1  0
 25 52  1  0
 25 53  1  0
 28 54  1  0
 29 55  1  0
 29 56  1  0
 30 57  1  0
 30 58  1  0
 31 59  1  0
M  CHG  2   9  -1  17   1
M  END
>  <UniqueID>  (1) 
1

>  <SMILES>  (1) 
CCOC(=O)n1c(C([NH-])=O)cc2ccc(-c3[nH+]c(N4CCN(C)CC4)sc3C3CC3)cc21

>  <Energy>  (1) 
403.7515393872859

>  <Genealogy>  (1) 
CCOC(=O)n1c(C([NH-])=O)cc2ccc(-c3[nH+]c(N4CCN(C)CC4)sc3C3CC3)cc21 (protonated)
CCOC(=O)n1c(C([NH-])=O)cc2ccc(-c3[nH+]c(N4CCN(C)CC4)sc3C3CC3)cc21 (3D coordinates assigned)
CCOC(=O)n1c(C([NH-])=O)cc2ccc(-c3[nH+]c(N4CCN(C)CC4)sc3C3CC3)cc21 (nonaromatic ring conformer: 403.7515393872859 kcal/mol)

>  <smiles>  (1) 
CCOC(=O)n1c(C(N)=O)cc2ccc(-c3nc(N4CCN(C)CC4)sc3C3CC3)cc21

>  <score_type>  (1) 
oracle

>  <origin>  (1) 
adg

>  <m_score__min__energy>  (1) 
-9.1199999999999992

>  <m_primary>  (1) 
energy

$$$$
1:0
     RDKit          3D

 40 42  0  0  0  0  0  0  0  0999 V2000
  140.2570  156.0730  133.7320 C   0  0  0  0  0  0  0  0  0  0  0  0
  139.4590  157.0640  134.4770 N   0  0  0  0  0  0  0  0  0  0  0  0
  139.0680  158.2060  133.6230 C   0  0  0  0  0  0  0  0  0  0  0  0
  140.2810  159.0600  133.2180 C   0  0  0  0  0  0  0  0  0  0  0  0
  141.2370  159.1620  134.3260 N   0  0  0  0  0  0  0  0  0  0  0  0
  142.6080  159.5280  134.0700 C   0  0  0  0  0  0  0  0  0  0  0  0
  142.9730  160.8940  133.9570 C   0  0  0  0  0  0  0  0  0  0  0  0
  144.3090  161.2650  133.7350 C   0  0  0  0  0  0  0  0  0  0  0  0
  145.2580  160.2520  133.6290 C   0  0  0  0  0  0  0  0  0  0  0  0
  146.6190  160.3320  133.4380 C   0  0  0  0  0  0  0  0  0  0  0  0
  147.0670  159.0120  133.4240 C   0  0  0  0  0  0  0  0  0  0  0  0
  148.4660  158.6200  133.1460 C   0  0  0  0  0  0  0  0  0  0  0  0
  148.8550  157.2450  133.1600 N   0  0  0  0  0  0  0  0  0  0  0  0
  149.3380  159.5020  132.9250 O   0  0  0  0  0  0  0  0  0  0  0  0
  146.0240  158.1510  133.6020 N   0  0  0  0  0  0  0  0  0  0  0  0
  146.0790  156.7190  133.7170 C   0  0  0  0  0  0  0  0  0  0  0  0
  145.5980  155.8950  132.6580 N   0  0  0  0  0  0  0  0  0  0  0  0
  146.5720  156.1830  134.7450 O   0  0  0  0  0  0  0  0  0  0  0  0
  144.9240  158.9270  133.7250 C   0  0  0  0  0  0  0  0  0  0  0  0
  143.6030  158.5300  133.9640 C   0  0  0  0  0  0  0  0  0  0  0  0
  140.7680  158.8730  135.6830 C   0  0  0  0  0  0  0  0  0  0  0  0
  140.1270  157.4740  135.7400 C   0  0  0  0  0  0  0  0  0  0  0  0
  140.7841  155.4184  134.4417 H   0  0  0  0  0  0  0  0  0  0  0  0
  139.5916  155.4673  133.0992 H   0  0  0  0  0  0  0  0  0  0  0  0
  140.9907  156.5939  133.0992 H   0  0  0  0  0  0  0  0  0  0  0  0
  138.5845  157.8207  132.7132 H   0  0  0  0  0  0  0  0  0  0  0  0
  138.3795  158.8423  134.1984 H   0  0  0  0  0  0  0  0  0  0  0  0
  140.7780  158.5945  132.3541 H   0  0  0  0  0  0  0  0  0  0  0  0
  139.9313  160.0702  132.9587 H   0  0  0  0  0  0  0  0  0  0  0  0
  142.2003  161.6720  134.0443 H   0  0  0  0  0  0  0  0  0  0  0  0
  144.5967  162.3231  133.6476 H   0  0  0  0  0  0  0  0  0  0  0  0
  147.2240  161.2432  133.3213 H   0  0  0  0  0  0  0  0  0  0  0  0
  149.8530  156.9820  133.0020 H   0  0  0  0  0  0  0  0  0  0  0  0
  148.1520  156.4840  133.2870 H   0  0  0  0  0  0  0  0  0  0  0  0
  145.8720  156.0800  131.6670 H   0  0  0  0  0  0  0  0  0  0  0  0
  143.3453  157.4656  134.0669 H   0  0  0  0  0  0  0  0  0  0  0  0
  141.6205  158.9102  136.3772 H   0  0  0  0  0  0  0  0  0  0  0  0
  140.0161  159.6232  135.9692 H   0  0  0  0  0  0  0  0  0  0  0  0
  140.9151  156.7413  135.9683 H   0  0  0  0  0  0  0  0  0  0  0  0
  139.3473  157.5121  136.5150 H   0  0  0  0  0  0  0  0  0  0  0  0
  1  2  1  0
  2  3  1  0
  3  4  1  0
  4  5  1  0
  5  6  1  0
  6  7  2  0
  7  8  1  0
  8  9  2  0
  9 10  1  0
 10 11  2  0
 11 12  1  0
 12 13  1  0
 12 14  2  0
 11 15  1  0
 15 16  1  0
 16 17  1  0
 16 18  2  0
 15 19  1  0
 19 20  2  0
  5 21  1  0
 21 22  1  0
 22  2  1  0
 20  6  1  0
 19  9  1  0
  1 23  1  0
  1 24  1  0
  1 25  1  0
  3 26  1  0
  3 27  1  0
  4 28  1  0
  4 29  1  0
  7 30  1  0
  8 31  1  0
 10 32  1  0
 13 33  1  0
 13 34  1  0
 17 35  1  0
 20 36  1  0
 21 37  1  0
 21 38  1  0
 22 39  1  0
 22 40  1  0
M  CHG  1  17  -1
M  END
>  <UniqueID>  (2) 
2

>  <SMILES>  (2) 
CN1CCN(c2ccc3cc(C(N)=O)n(C([NH-])=O)c3c2)CC1

>  <Energy>  (2) 
91.28626669856119

>  <Genealogy>  (2) 
CN1CCN(c2ccc3cc(C(N)=O)n(C([NH-])=O)c3c2)CC1 (protonated)
CN1CCN(c2ccc3cc(C(N)=O)n(C([NH-])=O)c3c2)CC1 (3D coordinates assigned)
CN1CCN(c2ccc3cc(C(N)=O)n(C([NH-])=O)c3c2)CC1 (nonaromatic ring conformer: 91.28626669856119 kcal/mol)

>  <smiles>  (2) 
CN1CCN(c2ccc3cc(C(N)=O)n(C(N)=O)c3c2)CC1

>  <score_type>  (2) 
oracle

>  <origin>  (2) 
adg

>  <m_score__min__energy>  (2) 
-7.5599999999999996

>  <m_primary>  (2) 
energy

$$$$
2:0
     RDKit          3D

 42 44  0  0  0  0  0  0  0  0999 V2000
  149.5040  159.0040  131.1830 C   0  0  0  0  0  0  0  0  0  0  0  0
  148.5890  160.2240  131.1370 C   0  0  0  0  0  0  0  0  0  0  0  0
  149.3120  161.4110  130.4930 C   0  0  0  0  0  0  0  0  0  0  0  0
  148.1950  160.5540  132.4680 O   0  0  0  0  0  0  0  0  0  0  0  0
  147.9480  159.6020  133.4640 C   0  0  0  0  0  0  0  0  0  0  0  0
  148.8300  159.3350  134.3260 O   0  0  0  0  0  0  0  0  0  0  0  0
  146.6920  158.9080  133.4850 N   0  0  0  0  0  0  0  0  0  0  0  0
  145.4520  159.4200  133.7280 C   0  0  0  0  0  0  0  0  0  0  0  0
  145.1140  160.8510  133.8720 C   0  0  0  0  0  0  0  0  0  0  0  0
  146.1270  161.8240  134.1090 N   0  0  0  0  0  0  0  0  0  0  0  0
  143.9190  161.2270  133.7390 O   0  0  0  0  0  0  0  0  0  0  0  0
  144.5000  158.4030  133.7440 C   0  0  0  0  0  0  0  0  0  0  0  0
  145.1990  157.2440  133.4920 C   0  0  0  0  0  0  0  0  0  0  0  0
  144.7530  155.9300  133.4070 C   0  0  0  0  0  0  0  0  0  0  0  0
  145.7040  154.9250  133.1660 C   0  0  0  0  0  0  0  0  0  0  0  0
  147.0810  155.2430  133.0220 C   0  0  0  0  0  0  0  0  0  0  0  0
  148.0830  154.1730  132.7800 C   0  0  0  0  0  0  0  0  0  0  0  0
  149.3900  154.3200  132.3320 C   0  0  0  0  0  0  0  0  0  0  0  0
  149.9620  153.1050  132.2620 N   0  0  0  0  0  0  0  0  0  0  0  0
  149.0750  152.1970  132.6340 N   0  0  0  0  0  0  0  0  0  0  0  0
  149.3600  150.7730  132.7640 C   0  0  0  0  0  0  0  0  0  0  0  0
  147.9230  152.8070  132.9690 C   0  0  0  0  0  0  0  0  0  0  0  0
  147.4910  156.5950  133.1200 C   0  0  0  0  0  0  0  0  0  0  0  0
  146.5190  157.5760  133.3400 C   0  0  0  0  0  0  0  0  0  0  0  0
  149.7051  158.7358  132.2307 H   0  0  0  0  0  0  0  0  0  0  0  0
  149.0148  158.1594  130.6757 H   0  0  0  0  0  0  0  0  0  0  0  0
  150.4518  159.2372  130.6757 H   0  0  0  0  0  0  0  0  0  0  0  0
  147.7005  159.9933  130.5310 H   0  0  0  0  0  0  0  0  0  0  0  0
  149.7119  162.0675  131.2798 H   0  0  0  0  0  0  0  0  0  0  0  0
  150.1387  161.0417  129.8683 H   0  0  0  0  0  0  0  0  0  0  0  0
  148.6046  161.9762  129.8683 H   0  0  0  0  0  0  0  0  0  0  0  0
  146.8780  162.0000  133.4050 H   0  0  0  0  0  0  0  0  0  0  0  0
  143.4190  158.5045  133.9206 H   0  0  0  0  0  0  0  0  0  0  0  0
  143.6872  155.6848  133.5250 H   0  0  0  0  0  0  0  0  0  0  0  0
  145.3781  153.8773  133.0877 H   0  0  0  0  0  0  0  0  0  0  0  0
  149.8765  155.2730  132.0767 H   0  0  0  0  0  0  0  0  0  0  0  0
  150.9450  152.9010  131.9740 H   0  0  0  0  0  0  0  0  0  0  0  0
  149.4135  150.5056  133.8297 H   0  0  0  0  0  0  0  0  0  0  0  0
  148.5601  150.1933  132.2802 H   0  0  0  0  0  0  0  0  0  0  0  0
  150.3214  150.5458  132.2802 H   0  0  0  0  0  0  0  0  0  0  0  0
  147.0113  152.3088  133.3304 H   0  0  0  0  0  0  0  0  0  0  0  0
  148.5524  156.8679  133.0250 H   0  0  0  0  0  0  0  0  0  0  0  0
  1  2  1  0
  2  3  1  0
  2  4  1  0
  4  5  1  0
  5  6  2  0
  5  7  1  0
  7  8  1  0
  8  9  1  0
  9 10  1  0
  9 11  2  0
  8 12  2  0
 12 13  1  0
 13 14  2  0
 14 15  1  0
 15 16  2  0
 16 17  1  0
 17 18  1  0
 18 19  2  0
 19 20  1  0
 20 21  1  0
 20 22  1  0
 16 23  1  0
 23 24  2  0
 24  7  1  0
 24 13  1  0
 22 17  2  0
  1 25  1  0
  1 26  1  0
  1 27  1  0
  2 28  1  0
  3 29  1  0
  3 30  1  0
  3 31  1  0
 10 32  1  0
 12 33  1  0
 14 34  1  0
 15 35  1  0
 18 36  1  0
 19 37  1  0
 21 38  1  0
 21 39  1  0
 21 40  1  0
 22 41  1  0
 23 42  1  0
M  CHG  2  10  -1  19   1
M  END
>  <UniqueID>  (3) 
3

>  <SMILES>  (3) 
CC(C)OC(=O)n1c(C([NH-])=O)cc2ccc(-c3c[nH+]n(C)c3)cc21

>  <Energy>  (3) 
108.2016290905579

>  <Genealogy>  (3) 
CC(C)OC(=O)n1c(C([NH-])=O)cc2ccc(-c3c[nH+]n(C)c3)cc21 (protonated)
CC(C)OC(=O)n1c(C([NH-])=O)cc2ccc(-c3c[nH+]n(C)c3)cc21 (3D coordinates assigned)
CC(C)OC(=O)n1c(C([NH-])=O)cc2ccc(-c3c[nH+]n(C)c3)cc21 (optimized conformer: 108.2016290905579 kcal/mol)

>  <smiles>  (3) 
CC(C)OC(=O)n1c(C(N)=O)cc2ccc(-c3cnn(C)c3)cc21

>  <score_type>  (3) 
oracle

>  <origin>  (3) 
adg

>  <m_score__min__energy>  (3) 
-7.7800000000000002

>  <m_primary>  (3) 
energy

$$$$
3:0
     RDKit          3D

 47 50  0  0  0  0  0  0  0  0999 V2000
  147.3850  155.6070  135.1910 C   0  0  0  0  0  0  0  0  0  0  0  0
  146.4810  155.8560  133.9880 C   0  0  0  0  0  0  0  0  0  0  0  0
  147.0300  156.9710  133.1500 C   0  0  0  0  0  0  0  0  0  0  0  0
  147.8800  156.7120  132.2550 O   0  0  0  0  0  0  0  0  0  0  0  0
  146.5300  158.3080  133.2920 N   0  0  0  0  0  0  0  0  0  0  0  0
  147.2090  159.4690  133.0800 C   0  0  0  0  0  0  0  0  0  0  0  0
  148.6000  159.5670  132.5820 C   0  0  0  0  0  0  0  0  0  0  0  0
  149.5870  158.6080  132.9700 N   0  0  0  0  0  0  0  0  0  0  0  0
  148.9340  160.5090  131.8170 O   0  0  0  0  0  0  0  0  0  0  0  0
  146.3870  160.5630  133.3460 C   0  0  0  0  0  0  0  0  0  0  0  0
  145.1800  160.0290  133.7370 C   0  0  0  0  0  0  0  0  0  0  0  0
  144.0090  160.6610  134.1380 C   0  0  0  0  0  0  0  0  0  0  0  0
  142.9250  159.8570  134.5240 C   0  0  0  0  0  0  0  0  0  0  0  0
  143.0320  158.4430  134.5020 C   0  0  0  0  0  0  0  0  0  0  0  0
  141.8850  157.5900  134.9650 C   0  0  0  0  0  0  0  0  0  0  0  0
  140.9050  157.3640  133.8490 C   0  0  0  0  0  0  0  0  0  0  0  0
  140.4230  156.1350  133.3970 C   0  0  0  0  0  0  0  0  0  0  0  0
  139.5400  156.3230  132.4330 O   0  0  0  0  0  0  0  0  0  0  0  0
  139.4210  157.6170  132.2460 C   0  0  0  0  0  0  0  0  0  0  0  0
  138.5980  158.2660  131.3310 C   0  0  0  0  0  0  0  0  0  0  0  0
  138.6210  159.6780  131.3040 C   0  0  0  0  0  0  0  0  0  0  0  0
  137.7850  160.4310  130.3130 C   0  0  0  0  0  0  0  0  0  0  0  0
  139.4810  160.3860  132.1790 C   0  0  0  0  0  0  0  0  0  0  0  0
  140.2980  159.7010  133.0940 C   0  0  0  0  0  0  0  0  0  0  0  0
  140.2410  158.3100  133.0980 C   0  0  0  0  0  0  0  0  0  0  0  0
  144.2410  157.8370  134.0970 C   0  0  0  0  0  0  0  0  0  0  0  0
  145.2950  158.6650  133.6990 C   0  0  0  0  0  0  0  0  0  0  0  0
  146.8137  155.7644  136.1177 H   0  0  0  0  0  0  0  0  0  0  0  0
  147.7581  154.5726  135.1614 H   0  0  0  0  0  0  0  0  0  0  0  0
  148.2351  156.3044  135.1614 H   0  0  0  0  0  0  0  0  0  0  0  0
  146.4229  154.9402  133.3814 H   0  0  0  0  0  0  0  0  0  0  0  0
  145.4783  156.1348  134.3441 H   0  0  0  0  0  0  0  0  0  0  0  0
  150.5760  158.7160  132.6530 H   0  0  0  0  0  0  0  0  0  0  0  0
  149.3320  157.7580  133.5190 H   0  0  0  0  0  0  0  0  0  0  0  0
  146.6478  161.6283  133.2613 H   0  0  0  0  0  0  0  0  0  0  0  0
  143.9339  161.7583  134.1525 H   0  0  0  0  0  0  0  0  0  0  0  0
  141.9845  160.3277  134.8463 H   0  0  0  0  0  0  0  0  0  0  0  0
  142.2725  156.6190  135.3070 H   0  0  0  0  0  0  0  0  0  0  0  0
  141.3699  158.1074  135.7877 H   0  0  0  0  0  0  0  0  0  0  0  0
  140.7329  155.1539  133.7863 H   0  0  0  0  0  0  0  0  0  0  0  0
  137.9491  157.6967  130.6492 H   0  0  0  0  0  0  0  0  0  0  0  0
  137.0712  161.0739  130.8489 H   0  0  0  0  0  0  0  0  0  0  0  0
  138.4363  161.0531  129.6815 H   0  0  0  0  0  0  0  0  0  0  0  0
  137.2341  159.7184  129.6815 H   0  0  0  0  0  0  0  0  0  0  0  0
  139.5095  161.4850  132.1417 H   0  0  0  0  0  0  0  0  0  0  0  0
  140.9601  160.2452  133.7836 H   0  0  0  0  0  0  0  0  0  0  0  0
  144.3509  156.7425  134.0946 H   0  0  0  0  0  0  0  0  0  0  0  0
  1  2  1  0
  2  3  1  0
  3  4  2  0
  3  5  1  0
  5  6  1  0
  6  7  1  0
  7  8  1  0
  7  9  2  0
  6 10  2  0
 10 11  1  0
 11 12  2  0
 12 13  1  0
 13 14  2  0
 14 15  1  0
 15 16  1  0
 16 17  2  0
 17 18  1  0
 18 19  1  0
 19 20  2  0
 20 21  1  0
 21 22  1  0
 21 23  2  0
 23 24  1  0
 24 25  2  0
 14 26  1  0
 26 27  2  0
 27  5  1  0
 27 11  1  0
 25 16  1  0
 25 19  1  0
  1 28  1  0
  1 29  1  0
  1 30  1  0
  2 31  1  0
  2 32  1  0
  8 33  1  0
  8 34  1  0
 10 35  1  0
 12 36  1  0
 13 37  1  0
 15 38  1  0
 15 39  1  0
 17 40  1  0
 20 41  1  0
 22 42  1  0
 22 43  1  0
 22 44  1  0
 23 45  1  0
 24 46  1  0
 26 47  1  0
M  END
>  <UniqueID>  (4) 
4

>  <SMILES>  (4) 
CCC(=O)n1c(C(N)=O)cc2ccc(Cc3coc4cc(C)ccc34)cc21

>  <Energy>  (4) 
119.15605784807309

>  <Genealogy>  (4) 
CCC(=O)n1c(C(N)=O)cc2ccc(Cc3coc4cc(C)ccc34)cc21 (3D coordinates assigned)
CCC(=O)n1c(C(N)=O)cc2ccc(Cc3coc4cc(C)ccc34)cc21 (optimized conformer: 119.15605784807309 kcal/mol)

>  <smiles>  (4) 
CCC(=O)n1c(C(N)=O)cc2ccc(Cc3coc4cc(C)ccc34)cc21

>  <score_type>  (4) 
oracle

>  <origin>  (4) 
adg

>  <m_score__min__energy>  (4) 
-9.5500000000000007

>  <m_primary>  (4) 
energy

$$$$
4:0
     RDKit          3D

 34 36  0  0  0  0  0  0  0  0999 V2000
  149.9170  158.4330  132.4450 N   0  0  0  0  0  0  0  0  0  0  0  0
  148.8720  159.3910  132.2760 C   0  0  0  0  0  0  0  0  0  0  0  0
  149.1450  160.5250  131.8000 O   0  0  0  0  0  0  0  0  0  0  0  0
  147.4920  159.1000  132.7110 C   0  0  0  0  0  0  0  0  0  0  0  0
  146.4570  160.0300  132.6450 C   0  0  0  0  0  0  0  0  0  0  0  0
  145.3670  159.4000  133.1980 C   0  0  0  0  0  0  0  0  0  0  0  0
  144.0640  159.8570  133.3690 C   0  0  0  0  0  0  0  0  0  0  0  0
  143.1260  158.9770  133.9320 C   0  0  0  0  0  0  0  0  0  0  0  0
  143.5030  157.6650  134.3090 C   0  0  0  0  0  0  0  0  0  0  0  0
  142.4720  156.7090  134.8560 C   0  0  0  0  0  0  0  0  0  0  0  0
  141.0700  156.9740  134.3500 C   0  0  0  0  0  0  0  0  0  0  0  0
  140.5190  156.3940  133.1860 C   0  0  0  0  0  0  0  0  0  0  0  0
  139.2180  156.7890  132.9160 C   0  0  0  0  0  0  0  0  0  0  0  0
  138.7360  157.8600  134.1140 S   0  0  0  0  0  0  0  0  0  0  0  0
  140.1700  157.8390  134.9930 C   0  0  0  0  0  0  0  0  0  0  0  0
  140.3800  158.6250  136.2230 C   0  0  0  0  0  0  0  0  0  0  0  0
  140.6480  159.8540  136.1730 O   0  0  0  0  0  0  0  0  0  0  0  0
  140.2790  158.0040  137.4610 O   0  0  0  0  0  0  0  0  0  0  0  0
  144.8330  157.2300  134.1100 C   0  0  0  0  0  0  0  0  0  0  0  0
  145.7540  158.1360  133.5670 C   0  0  0  0  0  0  0  0  0  0  0  0
  147.0580  157.9340  133.2690 N   0  0  0  0  0  0  0  0  0  0  0  0
  147.7930  156.7050  133.3990 C   0  0  0  0  0  0  0  0  0  0  0  0
  148.2500  156.1230  132.3800 O   0  0  0  0  0  0  0  0  0  0  0  0
  148.0090  156.1460  134.6530 O   0  0  0  0  0  0  0  0  0  0  0  0
  149.7610  157.5540  132.9880 H   0  0  0  0  0  0  0  0  0  0  0  0
  150.8800  158.6420  132.1000 H   0  0  0  0  0  0  0  0  0  0  0  0
  146.5021  161.0507  132.2374 H   0  0  0  0  0  0  0  0  0  0  0  0
  143.7775  160.8767  133.0721 H   0  0  0  0  0  0  0  0  0  0  0  0
  142.0883  159.3098  134.0817 H   0  0  0  0  0  0  0  0  0  0  0  0
  142.7582  155.6868  134.5677 H   0  0  0  0  0  0  0  0  0  0  0  0
  142.4521  156.8462  135.9472 H   0  0  0  0  0  0  0  0  0  0  0  0
  141.0742  155.6898  132.5489 H   0  0  0  0  0  0  0  0  0  0  0  0
  138.6071  156.4575  132.0634 H   0  0  0  0  0  0  0  0  0  0  0  0
  145.1373  156.2066  134.3745 H   0  0  0  0  0  0  0  0  0  0  0  0
  1  2  1  0
  2  3  2  0
  2  4  1  0
  4  5  2  0
  5  6  1  0
  6  7  2  0
  7  8  1  0
  8  9  2  0
  9 10  1  0
 10 11  1  0
 11 12  1  0
 12 13  2  0
 13 14  1  0
 14 15  1  0
 15 16  1  0
 16 17  2  0
 16 18  1  0
  9 19  1  0
 19 20  2  0
 20 21  1  0
 21 22  1  0
 22 23  2  0
 22 24  1  0
 21  4  1  0
 20  6  1  0
 15 11  2  0
  1 25  1  0
  1 26  1  0
  5 27  1  0
  7 28  1  0
  8 29  1  0
 10 30  1  0
 10 31  1  0
 12 32  1  0
 13 33  1  0
 19 34  1  0
M  CHG  2  18  -1  24  -1
M  END
>  <UniqueID>  (5) 
5

>  <SMILES>  (5) 
NC(=O)c1cc2ccc(Cc3ccsc3C(=O)[O-])cc2n1C(=O)[O-]

>  <Energy>  (5) 
104.00328366473472

>  <Genealogy>  (5) 
NC(=O)c1cc2ccc(Cc3ccsc3C(=O)[O-])cc2n1C(=O)[O-] (protonated)
NC(=O)c1cc2ccc(Cc3ccsc3C(=O)[O-])cc2n1C(=O)[O-] (3D coordinates assigned)
NC(=O)c1cc2ccc(Cc3ccsc3C(=O)[O-])cc2n1C(=O)[O-] (optimized conformer: 104.00328366473472 kcal/mol)

>  <smiles>  (5) 
NC(=O)c1cc2ccc(Cc3ccsc3C(=O)O)cc2n1C(=O)O

>  <score_type>  (5) 
oracle

>  <origin>  (5) 
adg

>  <m_score__min__energy>  (5) 
-7.7999999999999998

>  <m_primary>  (5) 
energy

$$$$
5:0
     RDKit          3D

 43 44  0  0  0  0  0  0  0  0999 V2000
  147.7770  156.1910  133.0010 C   0  0  0  0  0  0  0  0  0  0  0  0
  149.0170  156.9820  132.5980 C   0  0  0  0  0  0  0  0  0  0  0  0
  148.6680  158.3750  132.2820 N   0  0  0  0  0  0  0  0  0  0  0  0
  148.8630  158.8550  130.9020 C   0  0  0  0  0  0  0  0  0  0  0  0
  149.8980  159.9770  130.8490 C   0  0  0  0  0  0  0  0  0  0  0  0
  148.2290  159.2480  133.3470 C   0  0  0  0  0  0  0  0  0  0  0  0
  148.5520  158.9810  134.5380 O   0  0  0  0  0  0  0  0  0  0  0  0
  147.3950  160.4760  133.0930 C   0  0  0  0  0  0  0  0  0  0  0  0
  145.9560  160.2130  133.4450 C   0  0  0  0  0  0  0  0  0  0  0  0
  145.0970  161.2940  133.7630 C   0  0  0  0  0  0  0  0  0  0  0  0
  143.7390  161.0690  134.0490 C   0  0  0  0  0  0  0  0  0  0  0  0
  143.2730  159.7580  134.0070 C   0  0  0  0  0  0  0  0  0  0  0  0
  142.0060  159.2590  134.2130 C   0  0  0  0  0  0  0  0  0  0  0  0
  142.1160  157.8820  134.0230 C   0  0  0  0  0  0  0  0  0  0  0  0
  140.9970  156.9370  134.2180 C   0  0  0  0  0  0  0  0  0  0  0  0
  140.7570  155.8830  133.2910 N   0  0  0  0  0  0  0  0  0  0  0  0
  140.2620  157.0400  135.2370 O   0  0  0  0  0  0  0  0  0  0  0  0
  143.3980  157.5480  133.7050 N   0  0  0  0  0  0  0  0  0  0  0  0
  143.9150  156.2570  133.3530 C   0  0  0  0  0  0  0  0  0  0  0  0
  144.7250  155.4660  134.3300 C   0  0  0  0  0  0  0  0  0  0  0  0
  143.6180  155.7460  132.2410 O   0  0  0  0  0  0  0  0  0  0  0  0
  144.0930  158.7030  133.7040 C   0  0  0  0  0  0  0  0  0  0  0  0
  145.4440  158.8970  133.4030 C   0  0  0  0  0  0  0  0  0  0  0  0
  147.7099  156.1482  134.0981 H   0  0  0  0  0  0  0  0  0  0  0  0
  146.8803  156.6843  132.5978 H   0  0  0  0  0  0  0  0  0  0  0  0
  147.8463  155.1699  132.5978 H   0  0  0  0  0  0  0  0  0  0  0  0
  149.7379  156.9704  133.4288 H   0  0  0  0  0  0  0  0  0  0  0  0
  149.4564  156.5170  131.7032 H   0  0  0  0  0  0  0  0  0  0  0  0
  149.2081  158.0186  130.2765 H   0  0  0  0  0  0  0  0  0  0  0  0
  147.9047  159.2470  130.5307 H   0  0  0  0  0  0  0  0  0  0  0  0
  150.1709  160.2728  131.8727 H   0  0  0  0  0  0  0  0  0  0  0  0
  150.7944  159.6242  130.3180 H   0  0  0  0  0  0  0  0  0  0  0  0
  149.4741  160.8421  130.3180 H   0  0  0  0  0  0  0  0  0  0  0  0
  147.7734  161.3052  133.7089 H   0  0  0  0  0  0  0  0  0  0  0  0
  147.4600  160.7379  132.0266 H   0  0  0  0  0  0  0  0  0  0  0  0
  145.4963  162.3187  133.7863 H   0  0  0  0  0  0  0  0  0  0  0  0
  143.0660  161.9027  134.2981 H   0  0  0  0  0  0  0  0  0  0  0  0
  141.0999  159.8262  134.4723 H   0  0  0  0  0  0  0  0  0  0  0  0
  141.4790  155.6110  132.5870 H   0  0  0  0  0  0  0  0  0  0  0  0
  144.4389  155.7454  135.3547 H   0  0  0  0  0  0  0  0  0  0  0  0
  144.5385  154.3928  134.1770 H   0  0  0  0  0  0  0  0  0  0  0  0
  145.7935  155.6779  134.1770 H   0  0  0  0  0  0  0  0  0  0  0  0
  146.0915  158.0474  133.1403 H   0  0  0  0  0  0  0  0  0  0  0  0
  1  2  1  0
  2  3  1  0
  3  4  1  0
  4  5  1  0
  3  6  1  0
  6  7  2  0
  6  8  1  0
  8  9  1  0
  9 10  2  0
 10 11  1  0
 11 12  2  0
 12 13  1  0
 13 14  2  0
 14 15  1  0
 15 16  1  0
 15 17  2  0
 14 18  1  0
 18 19  1  0
 19 20  1  0
 19 21  2  0
 18 22  1  0
 22 23  2  0
 23  9  1  0
 22 12  1  0
  1 24  1  0
  1 25  1  0
  1 26  1  0
  2 27  1  0
  2 28  1  0
  4 29  1  0
  4 30  1  0
  5 31  1  0
  5 32  1  0
  5 33  1  0
  8 34  1  0
  8 35  1  0
 10 36  1  0
 11 37  1  0
 13 38  1  0
 16 39  1  0
 20 40  1  0
 20 41  1  0
 20 42  1  0
 23 43  1  0
M  CHG  1  16  -1
M  END
>  <UniqueID>  (6) 
6

>  <SMILES>  (6) 
CCN(CC)C(=O)Cc1ccc2cc(C([NH-])=O)n(C(C)=O)c2c1

>  <Energy>  (6) 
76.18040856987267

>  <Genealogy>  (6) 
CCN(CC)C(=O)Cc1ccc2cc(C([NH-])=O)n(C(C)=O)c2c1 (protonated)
CCN(CC)C(=O)Cc1ccc2cc(C([NH-])=O)n(C(C)=O)c2c1 (3D coordinates assigned)
CCN(CC)C(=O)Cc1ccc2cc(C([NH-])=O)n(C(C)=O)c2c1 (optimized conformer: 76.18040856987267 kcal/mol)

>  <smiles>  (6) 
CCN(CC)C(=O)Cc1ccc2cc(C(N)=O)n(C(C)=O)c2c1

>  <score_type>  (6) 
oracle

>  <origin>  (6) 
adg

>  <m_score__min__energy>  (6) 
-7.2199999999999998

>  <m_primary>  (6) 
energy

$$$$
6:0
     RDKit          3D

 43 45  0  0  0  0  0  0  0  0999 V2000
  146.6090  155.8440  132.2470 C   0  0  0  0  0  0  0  0  0  0  0  0
  147.0140  156.8870  133.2410 C   0  0  0  0  0  0  0  0  0  0  0  0
  147.8380  156.5860  134.1450 O   0  0  0  0  0  0  0  0  0  0  0  0
  146.4930  158.2250  133.1660 N   0  0  0  0  0  0  0  0  0  0  0  0
  147.1780  159.3560  132.8410 C   0  0  0  0  0  0  0  0  0  0  0  0
  148.5750  159.4130  132.3640 C   0  0  0  0  0  0  0  0  0  0  0  0
  149.6010  158.6270  132.9730 N   0  0  0  0  0  0  0  0  0  0  0  0
  148.8600  160.1330  131.3700 O   0  0  0  0  0  0  0  0  0  0  0  0
  146.3730  160.4810  132.9960 C   0  0  0  0  0  0  0  0  0  0  0  0
  145.1570  160.0000  133.4260 C   0  0  0  0  0  0  0  0  0  0  0  0
  143.9910  160.6840  133.7570 C   0  0  0  0  0  0  0  0  0  0  0  0
  142.8950  159.9360  134.2140 C   0  0  0  0  0  0  0  0  0  0  0  0
  142.9860  158.5270  134.3430 C   0  0  0  0  0  0  0  0  0  0  0  0
  141.8040  157.7300  134.8310 C   0  0  0  0  0  0  0  0  0  0  0  0
  140.4620  158.4260  134.5540 C   0  0  0  0  0  0  0  0  0  0  0  0
  140.0290  158.2310  133.1530 N   0  0  0  0  0  0  0  0  0  0  0  0
  140.3960  159.3780  132.3160 C   0  0  0  0  0  0  0  0  0  0  0  0
  139.3910  159.4270  131.1870 C   0  0  0  0  0  0  0  0  0  0  0  0
  138.1180  158.8960  131.8070 C   0  0  0  0  0  0  0  0  0  0  0  0
  138.5710  158.0680  133.0050 C   0  0  0  0  0  0  0  0  0  0  0  0
  144.1910  157.8690  134.0120 C   0  0  0  0  0  0  0  0  0  0  0  0
  145.2560  158.6360  133.5270 C   0  0  0  0  0  0  0  0  0  0  0  0
  146.2604  154.9464  132.7788 H   0  0  0  0  0  0  0  0  0  0  0  0
  145.7972  156.2346  131.6158 H   0  0  0  0  0  0  0  0  0  0  0  0
  147.4717  155.5844  131.6158 H   0  0  0  0  0  0  0  0  0  0  0  0
  149.3720  157.8820  133.6660 H   0  0  0  0  0  0  0  0  0  0  0  0
  150.5910  158.7240  132.6550 H   0  0  0  0  0  0  0  0  0  0  0  0
  146.6494  161.5300  132.8138 H   0  0  0  0  0  0  0  0  0  0  0  0
  143.9303  161.7783  133.6632 H   0  0  0  0  0  0  0  0  0  0  0  0
  141.9567  160.4476  134.4745 H   0  0  0  0  0  0  0  0  0  0  0  0
  141.8049  156.7537  134.3242 H   0  0  0  0  0  0  0  0  0  0  0  0
  141.9034  157.6235  135.9213 H   0  0  0  0  0  0  0  0  0  0  0  0
  139.6975  158.0085  135.2258 H   0  0  0  0  0  0  0  0  0  0  0  0
  140.5901  159.5045  134.7287 H   0  0  0  0  0  0  0  0  0  0  0  0
  140.3521  160.3066  132.9040 H   0  0  0  0  0  0  0  0  0  0  0  0
  141.4213  159.2765  131.9307 H   0  0  0  0  0  0  0  0  0  0  0  0
  139.2521  160.4587  130.8317 H   0  0  0  0  0  0  0  0  0  0  0  0
  139.7102  158.8440  130.3105 H   0  0  0  0  0  0  0  0  0  0  0  0
  137.4729  159.7251  132.1331 H   0  0  0  0  0  0  0  0  0  0  0  0
  137.5313  158.2991  131.0932 H   0  0  0  0  0  0  0  0  0  0  0  0
  138.0627  158.4203  133.9147 H   0  0  0  0  0  0  0  0  0  0  0  0
  138.3210  157.0080  132.8506 H   0  0  0  0  0  0  0  0  0  0  0  0
  144.2899  156.7801  134.1325 H   0  0  0  0  0  0  0  0  0  0  0  0
  1  2  1  0
  2  3  2  0
  2  4  1  0
  4  5  1  0
  5  6  1  0
  6  7  1  0
  6  8  2  0
  5  9  2  0
  9 10  1  0
 10 11  2  0
 11 12  1  0
 12 13  2  0
 13 14  1  0
 14 15  1  0
 15 16  1  0
 16 17  1  0
 17 18  1  0
 18 19  1  0
 19 20  1  0
 13 21  1  0
 21 22  2  0
 22  4  1  0
 22 10  1  0
 20 16  1  0
  1 23  1  0
  1 24  1  0
  1 25  1  0
  7 26  1  0
  7 27  1  0
  9 28  1  0
 11 29  1  0
 12 30  1  0
 14 31  1  0
 14 32  1  0
 15 33  1  0
 15 34  1  0
 17 35  1  0
 17 36  1  0
 18 37  1  0
 18 38  1  0
 19 39  1  0
 19 40  1  0
 20 41  1  0
 20 42  1  0
 21 43  1  0
M  END
>  <UniqueID>  (7) 
7

>  <SMILES>  (7) 
CC(=O)n1c(C(N)=O)cc2ccc(CCN3CCCC3)cc21

>  <Energy>  (7) 
83.56339044085452

>  <Genealogy>  (7) 
CC(=O)n1c(C(N)=O)cc2ccc(CCN3CCCC3)cc21 (3D coordinates assigned)
CC(=O)n1c(C(N)=O)cc2ccc(CCN3CCCC3)cc21 (nonaromatic ring conformer: 83.56339044085452 kcal/mol)

>  <smiles>  (7) 
CC(=O)n1c(C(N)=O)cc2ccc(CCN3CCCC3)cc21

>  <score_type>  (7) 
oracle

>  <origin>  (7) 
adg

>  <m_score__min__energy>  (7) 
-7.96

>  <m_primary>  (7) 
energy

$$$$
7:0
     RDKit          3D

 33 35  0  0  0  0  0  0  0  0999 V2000
  143.9650  163.0740  133.4210 N   0  0  0  0  0  0  0  0  0  0  0  0
  144.9720  162.4760  134.2350 C   0  0  0  0  0  0  0  0  0  0  0  0
  145.4980  163.1510  135.1590 O   0  0  0  0  0  0  0  0  0  0  0  0
  145.4450  161.1010  133.9720 C   0  0  0  0  0  0  0  0  0  0  0  0
  146.7760  160.7890  133.7080 C   0  0  0  0  0  0  0  0  0  0  0  0
  146.7870  159.4410  133.4320 C   0  0  0  0  0  0  0  0  0  0  0  0
  147.8510  158.6020  133.1140 C   0  0  0  0  0  0  0  0  0  0  0  0
  147.5770  157.2400  132.9100 C   0  0  0  0  0  0  0  0  0  0  0  0
  146.2560  156.7370  133.0340 C   0  0  0  0  0  0  0  0  0  0  0  0
  145.9790  155.2920  132.8280 C   0  0  0  0  0  0  0  0  0  0  0  0
  144.8940  154.8710  132.0440 C   0  0  0  0  0  0  0  0  0  0  0  0
  144.6470  153.5120  131.8580 C   0  0  0  0  0  0  0  0  0  0  0  0
  145.4870  152.5700  132.4600 C   0  0  0  0  0  0  0  0  0  0  0  0
  145.2450  151.1710  132.2790 N   0  0  0  0  0  0  0  0  0  0  0  0
  146.5370  152.9880  133.2210 N   0  0  0  0  0  0  0  0  0  0  0  0
  146.7980  154.3100  133.4140 C   0  0  0  0  0  0  0  0  0  0  0  0
  145.2020  157.6250  133.3600 C   0  0  0  0  0  0  0  0  0  0  0  0
  145.5010  158.9800  133.5390 C   0  0  0  0  0  0  0  0  0  0  0  0
  144.6630  159.9870  133.8740 N   0  0  0  0  0  0  0  0  0  0  0  0
  143.2590  159.8670  134.1510 C   0  0  0  0  0  0  0  0  0  0  0  0
  142.4180  160.5110  133.4690 O   0  0  0  0  0  0  0  0  0  0  0  0
  142.8160  159.0580  135.1900 O   0  0  0  0  0  0  0  0  0  0  0  0
  143.1660  162.5100  133.0550 H   0  0  0  0  0  0  0  0  0  0  0  0
  147.6362  161.4746  133.7179 H   0  0  0  0  0  0  0  0  0  0  0  0
  148.8750  158.9938  133.0252 H   0  0  0  0  0  0  0  0  0  0  0  0
  148.3970  156.5542  132.6507 H   0  0  0  0  0  0  0  0  0  0  0  0
  144.2357  155.6167  131.5743 H   0  0  0  0  0  0  0  0  0  0  0  0
  143.7973  153.1827  131.2420 H   0  0  0  0  0  0  0  0  0  0  0  0
  145.8560  150.6030  131.6520 H   0  0  0  0  0  0  0  0  0  0  0  0
  144.4540  150.6970  132.7700 H   0  0  0  0  0  0  0  0  0  0  0  0
  147.1620  152.2840  133.6730 H   0  0  0  0  0  0  0  0  0  0  0  0
  147.6557  154.6125  134.0328 H   0  0  0  0  0  0  0  0  0  0  0  0
  144.1711  157.2575  133.4700 H   0  0  0  0  0  0  0  0  0  0  0  0
  1  2  1  0
  2  3  2  0
  2  4  1  0
  4  5  2  0
  5  6  1  0
  6  7  2  0
  7  8  1  0
  8  9  2  0
  9 10  1  0
 10 11  2  0
 11 12  1  0
 12 13  2  0
 13 14  1  0
 13 15  1  0
 15 16  2  0
  9 17  1  0
 17 18  2  0
 18 19  1  0
 19 20  1  0
 20 21  2  0
 20 22  1  0
 19  4  1  0
 18  6  1  0
 16 10  1  0
  1 23  1  0
  5 24  1  0
  7 25  1  0
  8 26  1  0
 11 27  1  0
 12 28  1  0
 14 29  1  0
 14 30  1  0
 15 31  1  0
 16 32  1  0
 17 33  1  0
M  CHG  3   1  -1  15   1  22  -1
M  END
>  <UniqueID>  (8) 
8

>  <SMILES>  (8) 
[NH-]C(=O)c1cc2ccc(-c3ccc(N)[nH+]c3)cc2n1C(=O)[O-]

>  <Energy>  (8) 
79.9408341755008

>  <Genealogy>  (8) 
[NH-]C(=O)c1cc2ccc(-c3ccc(N)[nH+]c3)cc2n1C(=O)[O-] (protonated)
[NH-]C(=O)c1cc2ccc(-c3ccc(N)[nH+]c3)cc2n1C(=O)[O-] (3D coordinates assigned)
[NH-]C(=O)c1cc2ccc(-c3ccc(N)[nH+]c3)cc2n1C(=O)[O-] (optimized conformer: 79.9408341755008 kcal/mol)

>  <smiles>  (8) 
NC(=O)c1cc2ccc(-c3ccc(N)nc3)cc2n1C(=O)O

>  <score_type>  (8) 
oracle

>  <origin>  (8) 
adg

>  <m_score__min__energy>  (8) 
-6.9299999999999997

>  <m_primary>  (8) 
energy

$$$$
8:0
     RDKit          3D

 36 38  0  0  0  0  0  0  0  0999 V2000
  140.8100  159.7430  137.0230 N   0  0  0  0  0  0  0  0  0  0  0  0
  140.9890  158.2040  136.2560 S   0  0  0  0  0  0  0  0  0  0  0  0
  142.4470  157.8550  136.1620 O   0  0  0  0  0  0  0  0  0  0  0  0
  140.3060  157.1580  137.0920 O   0  0  0  0  0  0  0  0  0  0  0  0
  140.2650  158.2510  134.6400 C   0  0  0  0  0  0  0  0  0  0  0  0
  138.9240  157.8640  134.4890 C   0  0  0  0  0  0  0  0  0  0  0  0
  138.3260  157.8420  133.2270 C   0  0  0  0  0  0  0  0  0  0  0  0
  139.0610  158.2070  132.1000 C   0  0  0  0  0  0  0  0  0  0  0  0
  140.3920  158.6050  132.2310 C   0  0  0  0  0  0  0  0  0  0  0  0
  141.0040  158.6440  133.4950 C   0  0  0  0  0  0  0  0  0  0  0  0
  142.4040  159.1020  133.5830 C   0  0  0  0  0  0  0  0  0  0  0  0
  142.6950  160.4800  133.7210 C   0  0  0  0  0  0  0  0  0  0  0  0
  144.0250  160.9260  133.7880 C   0  0  0  0  0  0  0  0  0  0  0  0
  145.0360  159.9730  133.7130 C   0  0  0  0  0  0  0  0  0  0  0  0
  146.4030  160.1340  133.7180 C   0  0  0  0  0  0  0  0  0  0  0  0
  146.9240  158.8490  133.5990 C   0  0  0  0  0  0  0  0  0  0  0  0
  148.3700  158.5560  133.6290 C   0  0  0  0  0  0  0  0  0  0  0  0
  148.9730  157.7100  132.6490 N   0  0  0  0  0  0  0  0  0  0  0  0
  149.0760  159.0140  134.5670 O   0  0  0  0  0  0  0  0  0  0  0  0
  145.9240  157.9280  133.5100 N   0  0  0  0  0  0  0  0  0  0  0  0
  146.0600  156.5180  133.2560 C   0  0  0  0  0  0  0  0  0  0  0  0
  145.4110  155.6810  133.9370 O   0  0  0  0  0  0  0  0  0  0  0  0
  146.9040  156.0650  132.2500 O   0  0  0  0  0  0  0  0  0  0  0  0
  144.7720  158.6320  133.5850 C   0  0  0  0  0  0  0  0  0  0  0  0
  143.4550  158.1640  133.4940 C   0  0  0  0  0  0  0  0  0  0  0  0
  139.8400  160.0730  136.8190 H   0  0  0  0  0  0  0  0  0  0  0  0
  138.3380  157.5750  135.3740 H   0  0  0  0  0  0  0  0  0  0  0  0
  137.2745  157.5365  133.1222 H   0  0  0  0  0  0  0  0  0  0  0  0
  138.5909  158.1812  131.1058 H   0  0  0  0  0  0  0  0  0  0  0  0
  140.9666  158.8905  131.3375 H   0  0  0  0  0  0  0  0  0  0  0  0
  141.8723  161.2081  133.7763 H   0  0  0  0  0  0  0  0  0  0  0  0
  144.2601  161.9951  133.8964 H   0  0  0  0  0  0  0  0  0  0  0  0
  146.9638  161.0769  133.7988 H   0  0  0  0  0  0  0  0  0  0  0  0
  148.3920  157.1840  131.9590 H   0  0  0  0  0  0  0  0  0  0  0  0
  150.0050  157.5420  132.6640 H   0  0  0  0  0  0  0  0  0  0  0  0
  143.2451  157.0930  133.3567 H   0  0  0  0  0  0  0  0  0  0  0  0
  1  2  1  0
  2  3  2  0
  2  4  2  0
  2  5  1  0
  5  6  2  0
  6  7  1  0
  7  8  2  0
  8  9  1  0
  9 10  2  0
 10 11  1  0
 11 12  2  0
 12 13  1  0
 13 14  2  0
 14 15  1  0
 15 16  2  0
 16 17  1  0
 17 18  1  0
 17 19  2  0
 16 20  1  0
 20 21  1  0
 21 22  2  0
 21 23  1  0
 20 24  1  0
 24 25  2  0
 10  5  1  0
 25 11  1  0
 24 14  1  0
  1 26  1  0
  6 27  1  0
  7 28  1  0
  8 29  1  0
  9 30  1  0
 12 31  1  0
 13 32  1  0
 15 33  1  0
 18 34  1  0
 18 35  1  0
 25 36  1  0
M  CHG  2   1  -1  23  -1
M  END
>  <UniqueID>  (9) 
9

>  <SMILES>  (9) 
[NH-]S(=O)(=O)c1ccccc1-c1ccc2cc(C(N)=O)n(C(=O)[O-])c2c1

>  <Energy>  (9) 
86.95892423408421

>  <Genealogy>  (9) 
[NH-]S(=O)(=O)c1ccccc1-c1ccc2cc(C(N)=O)n(C(=O)[O-])c2c1 (protonated)
[NH-]S(=O)(=O)c1ccccc1-c1ccc2cc(C(N)=O)n(C(=O)[O-])c2c1 (3D coordinates assigned)
[NH-]S(=O)(=O)c1ccccc1-c1ccc2cc(C(N)=O)n(C(=O)[O-])c2c1 (optimized conformer: 86.95892423408421 kcal/mol)

>  <smiles>  (9) 
NC(=O)c1cc2ccc(-c3ccccc3S(N)(=O)=O)cc2n1C(=O)O

>  <score_type>  (9) 
oracle

>  <origin>  (9) 
adg

>  <m_score__min__energy>  (9) 
-8.3200000000000003

>  <m_primary>  (9) 
energy

$$$$
9:0
     RDKit          3D

 50 51  0  0  0  0  0  0  0  0999 V2000
  140.6760  151.3460  132.5450 C   0  0  0  0  0  0  0  0  0  0  0  0
  141.2470  152.5970  133.1960 C   0  0  0  0  0  0  0  0  0  0  0  0
  140.6020  153.7480  132.6610 O   0  0  0  0  0  0  0  0  0  0  0  0
  140.5530  154.9690  133.3390 C   0  0  0  0  0  0  0  0  0  0  0  0
  141.1100  155.1060  134.4630 O   0  0  0  0  0  0  0  0  0  0  0  0
  139.8710  156.1420  132.7010 C   0  0  0  0  0  0  0  0  0  0  0  0
  138.8830  156.8060  133.6690 C   0  0  0  0  0  0  0  0  0  0  0  0
  139.1500  158.3150  133.8240 C   0  0  0  0  0  0  0  0  0  0  0  0
  140.0980  158.6260  134.9920 C   0  0  0  0  0  0  0  0  0  0  0  0
  141.4870  158.9760  134.5170 C   0  0  0  0  0  0  0  0  0  0  0  0
  141.8640  160.3330  134.3510 C   0  0  0  0  0  0  0  0  0  0  0  0
  143.1620  160.6680  133.9330 C   0  0  0  0  0  0  0  0  0  0  0  0
  144.0650  159.6320  133.7080 C   0  0  0  0  0  0  0  0  0  0  0  0
  145.3790  159.6750  133.3000 C   0  0  0  0  0  0  0  0  0  0  0  0
  145.7970  158.3470  133.2700 C   0  0  0  0  0  0  0  0  0  0  0  0
  147.1820  157.9400  132.9600 C   0  0  0  0  0  0  0  0  0  0  0  0
  147.4610  156.9740  131.9440 N   0  0  0  0  0  0  0  0  0  0  0  0
  148.1320  158.4110  133.6390 O   0  0  0  0  0  0  0  0  0  0  0  0
  144.7770  157.5140  133.6270 N   0  0  0  0  0  0  0  0  0  0  0  0
  144.7920  156.0770  133.6860 C   0  0  0  0  0  0  0  0  0  0  0  0
  144.4490  155.4860  134.7480 O   0  0  0  0  0  0  0  0  0  0  0  0
  145.1900  155.3400  132.5630 O   0  0  0  0  0  0  0  0  0  0  0  0
  144.3760  154.3470  131.9450 C   0  0  0  0  0  0  0  0  0  0  0  0
  144.6260  152.9840  132.5780 C   0  0  0  0  0  0  0  0  0  0  0  0
  143.7240  158.3170  133.8900 C   0  0  0  0  0  0  0  0  0  0  0  0
  142.4270  157.9510  134.2690 C   0  0  0  0  0  0  0  0  0  0  0  0
  140.3541  150.6408  133.3255 H   0  0  0  0  0  0  0  0  0  0  0  0
  139.8135  151.6193  131.9194 H   0  0  0  0  0  0  0  0  0  0  0  0
  141.4476  150.8734  131.9194 H   0  0  0  0  0  0  0  0  0  0  0  0
  141.0788  152.5543  134.2822 H   0  0  0  0  0  0  0  0  0  0  0  0
  142.3267  152.6549  132.9937 H   0  0  0  0  0  0  0  0  0  0  0  0
  140.6307  156.8794  132.4024 H   0  0  0  0  0  0  0  0  0  0  0  0
  139.3111  155.7838  131.8245 H   0  0  0  0  0  0  0  0  0  0  0  0
  137.8616  156.6639  133.2863 H   0  0  0  0  0  0  0  0  0  0  0  0
  139.0080  156.3365  134.6559 H   0  0  0  0  0  0  0  0  0  0  0  0
  139.6006  158.6912  132.8937 H   0  0  0  0  0  0  0  0  0  0  0  0
  138.1880  158.8056  134.0336 H   0  0  0  0  0  0  0  0  0  0  0  0
  139.6930  159.4757  135.5611 H   0  0  0  0  0  0  0  0  0  0  0  0
  140.1710  157.7249  135.6187 H   0  0  0  0  0  0  0  0  0  0  0  0
  141.1331  161.1302  134.5515 H   0  0  0  0  0  0  0  0  0  0  0  0
  143.4568  161.7177  133.7876 H   0  0  0  0  0  0  0  0  0  0  0  0
  145.9719  160.5674  133.0510 H   0  0  0  0  0  0  0  0  0  0  0  0
  146.6940  156.4280  131.4890 H   0  0  0  0  0  0  0  0  0  0  0  0
  148.4510  156.7400  131.7040 H   0  0  0  0  0  0  0  0  0  0  0  0
  143.3171  154.6164  132.0717 H   0  0  0  0  0  0  0  0  0  0  0  0
  144.6281  154.2947  130.8756 H   0  0  0  0  0  0  0  0  0  0  0  0
  144.6084  153.0798  133.6737 H   0  0  0  0  0  0  0  0  0  0  0  0
  143.8416  152.2820  132.2587 H   0  0  0  0  0  0  0  0  0  0  0  0
  145.6085  152.6061  132.2587 H   0  0  0  0  0  0  0  0  0  0  0  0
  142.1469  156.8922  134.3711 H   0  0  0  0  0  0  0  0  0  0  0  0
  1  2  1  0
  2  3  1  0
  3  4  1  0
  4  5  2  0
  4  6  1  0
  6  7  1  0
  7  8  1  0
  8  9  1  0
  9 10  1  0
 10 11  2  0
 11 12  1  0
 12 13  2  0
 13 14  1  0
 14 15  2  0
 15 16  1  0
 16 17  1  0
 16 18  2  0
 15 19  1  0
 19 20  1  0
 20 21  2  0
 20 22  1  0
 22 23  1  0
 23 24  1  0
 19 25  1  0
 25 26  2  0
 26 10  1  0
 25 13  1  0
  1 27  1  0
  1 28  1  0
  1 29  1  0
  2 30  1  0
  2 31  1  0
  6 32  1  0
  6 33  1  0
  7 34  1  0
  7 35  1  0
  8 36  1  0
  8 37  1  0
  9 38  1  0
  9 39  1  0
 11 40  1  0
 12 41  1  0
 14 42  1  0
 17 43  1  0
 17 44  1  0
 23 45  1  0
 23 46  1  0
 24 47  1  0
 24 48  1  0
 24 49  1  0
 26 50  1  0
M  END
>  <UniqueID>  (10) 
10

>  <SMILES>  (10) 
CCOC(=O)CCCCc1ccc2cc(C(N)=O)n(C(=O)OCC)c2c1

>  <Energy>  (10) 
70.80294296221693

>  <Genealogy>  (10) 
CCOC(=O)CCCCc1ccc2cc(C(N)=O)n(C(=O)OCC)c2c1 (3D coordinates assigned)
CCOC(=O)CCCCc1ccc2cc(C(N)=O)n(C(=O)OCC)c2c1 (optimized conformer: 70.80294296221693 kcal/mol)

>  <smiles>  (10) 
CCOC(=O)CCCCc1ccc2cc(C(N)=O)n(C(=O)OCC)c2c1

>  <score_type>  (10) 
oracle

>  <origin>  (10) 
adg

>  <m_score__min__energy>  (10) 
-7.2000000000000002

>  <m_primary>  (10) 
energy

$$$$
10:0
     RDKit          3D

 42 44  0  0  0  0  0  0  0  0999 V2000
  150.6330  150.3470  130.4610 C   0  0  0  0  0  0  0  0  0  0  0  0
  150.6130  150.9970  131.7260 O   0  0  0  0  0  0  0  0  0  0  0  0
  149.6280  151.9210  132.0860 C   0  0  0  0  0  0  0  0  0  0  0  0
  149.9670  153.2240  132.2550 N   0  0  0  0  0  0  0  0  0  0  0  0
  149.0390  154.1520  132.6070 C   0  0  0  0  0  0  0  0  0  0  0  0
  147.7010  153.7760  132.7980 C   0  0  0  0  0  0  0  0  0  0  0  0
  146.6680  154.7720  133.1810 C   0  0  0  0  0  0  0  0  0  0  0  0
  145.4360  154.3470  133.7480 C   0  0  0  0  0  0  0  0  0  0  0  0
  144.4480  155.2800  134.1040 C   0  0  0  0  0  0  0  0  0  0  0  0
  144.7190  156.6280  133.9000 C   0  0  0  0  0  0  0  0  0  0  0  0
  143.9260  157.7350  134.1040 C   0  0  0  0  0  0  0  0  0  0  0  0
  144.6950  158.8210  133.6890 C   0  0  0  0  0  0  0  0  0  0  0  0
  144.2190  160.2200  133.7120 C   0  0  0  0  0  0  0  0  0  0  0  0
  145.0890  161.3110  133.4030 N   0  0  0  0  0  0  0  0  0  0  0  0
  143.0280  160.4610  134.0470 O   0  0  0  0  0  0  0  0  0  0  0  0
  145.9140  158.4020  133.2520 N   0  0  0  0  0  0  0  0  0  0  0  0
  146.9240  159.1850  132.6000 C   0  0  0  0  0  0  0  0  0  0  0  0
  146.5980  159.9320  131.6370 O   0  0  0  0  0  0  0  0  0  0  0  0
  148.2950  159.1360  133.0420 N   0  0  0  0  0  0  0  0  0  0  0  0
  149.3450  159.6980  132.1890 C   0  0  0  0  0  0  0  0  0  0  0  0
  148.6170  158.6140  134.3740 C   0  0  0  0  0  0  0  0  0  0  0  0
  145.9090  157.0590  133.3740 C   0  0  0  0  0  0  0  0  0  0  0  0
  146.9000  156.1530  132.9830 C   0  0  0  0  0  0  0  0  0  0  0  0
  147.3760  152.4240  132.6150 C   0  0  0  0  0  0  0  0  0  0  0  0
  148.3380  151.5310  132.2670 N   0  0  0  0  0  0  0  0  0  0  0  0
  150.6665  149.2575  130.6091 H   0  0  0  0  0  0  0  0  0  0  0  0
  149.7263  150.6128  129.8978 H   0  0  0  0  0  0  0  0  0  0  0  0
  151.5217  150.6680  129.8978 H   0  0  0  0  0  0  0  0  0  0  0  0
  149.3379  155.2019  132.7427 H   0  0  0  0  0  0  0  0  0  0  0  0
  145.2539  153.2744  133.9101 H   0  0  0  0  0  0  0  0  0  0  0  0
  143.4885  154.9536  134.5315 H   0  0  0  0  0  0  0  0  0  0  0  0
  142.9033  157.7576  134.5084 H   0  0  0  0  0  0  0  0  0  0  0  0
  146.1200  161.1780  133.3190 H   0  0  0  0  0  0  0  0  0  0  0  0
  144.7120  162.2840  133.3650 H   0  0  0  0  0  0  0  0  0  0  0  0
  150.1402  160.1236  132.8186 H   0  0  0  0  0  0  0  0  0  0  0  0
  149.7654  158.9043  131.5539 H   0  0  0  0  0  0  0  0  0  0  0  0
  148.9178  160.4880  131.5539 H   0  0  0  0  0  0  0  0  0  0  0  0
  148.2029  159.2852  135.1408 H   0  0  0  0  0  0  0  0  0  0  0  0
  148.1804  157.6111  134.4902 H   0  0  0  0  0  0  0  0  0  0  0  0
  149.7092  158.5541  134.4902 H   0  0  0  0  0  0  0  0  0  0  0  0
  147.8388  156.5065  132.5316 H   0  0  0  0  0  0  0  0  0  0  0  0
  146.3385  152.0859  132.7538 H   0  0  0  0  0  0  0  0  0  0  0  0
  1  2  1  0
  2  3  1  0
  3  4  2  0
  4  5  1  0
  5  6  2  0
  6  7  1  0
  7  8  2  0
  8  9  1  0
  9 10  2  0
 10 11  1  0
 11 12  2  0
 12 13  1  0
 13 14  1  0
 13 15  2  0
 12 16  1  0
 16 17  1  0
 17 18  2  0
 17 19  1  0
 19 20  1  0
 19 21  1  0
 16 22  1  0
 22 23  2  0
  6 24  1  0
 24 25  2  0
 25  3  1  0
 23  7  1  0
 22 10  1  0
  1 26  1  0
  1 27  1  0
  1 28  1  0
  5 29  1  0
  8 30  1  0
  9 31  1  0
 11 32  1  0
 14 33  1  0
 14 34  1  0
 20 35  1  0
 20 36  1  0
 20 37  1  0
 21 38  1  0
 21 39  1  0
 21 40  1  0
 23 41  1  0
 24 42  1  0
M  END
>  <UniqueID>  (11) 
11

>  <SMILES>  (11) 
COc1ncc(-c2ccc3cc(C(N)=O)n(C(=O)N(C)C)c3c2)cn1

>  <Energy>  (11) 
86.23923065434093

>  <Genealogy>  (11) 
COc1ncc(-c2ccc3cc(C(N)=O)n(C(=O)N(C)C)c3c2)cn1 (3D coordinates assigned)
COc1ncc(-c2ccc3cc(C(N)=O)n(C(=O)N(C)C)c3c2)cn1 (optimized conformer: 86.23923065434093 kcal/mol)

>  <smiles>  (11) 
COc1ncc(-c2ccc3cc(C(N)=O)n(C(=O)N(C)C)c3c2)cn1

>  <score_type>  (11) 
oracle

>  <origin>  (11) 
adg

>  <m_score__min__energy>  (11) 
-7.1500000000000004

>  <m_primary>  (11) 
energy

$$$$
11:0
     RDKit          3D

 31 33  0  0  0  0  0  0  0  0999 V2000
  139.6860  158.1890  136.5070 N   0  0  0  0  0  0  0  0  0  0  0  0
  139.9840  158.3210  135.1200 C   0  0  0  0  0  0  0  0  0  0  0  0
  139.0790  158.1030  134.2710 O   0  0  0  0  0  0  0  0  0  0  0  0
  141.3190  158.7650  134.6680 C   0  0  0  0  0  0  0  0  0  0  0  0
  141.7300  160.0970  134.6890 C   0  0  0  0  0  0  0  0  0  0  0  0
  143.0440  160.0800  134.2820 C   0  0  0  0  0  0  0  0  0  0  0  0
  143.9390  161.1300  134.1070 C   0  0  0  0  0  0  0  0  0  0  0  0
  145.2290  160.8270  133.6430 C   0  0  0  0  0  0  0  0  0  0  0  0
  145.6010  159.4860  133.3590 C   0  0  0  0  0  0  0  0  0  0  0  0
  146.9600  159.1830  132.8510 C   0  0  0  0  0  0  0  0  0  0  0  0
  147.6270  160.1110  132.0290 C   0  0  0  0  0  0  0  0  0  0  0  0
  148.9050  159.8330  131.5380 C   0  0  0  0  0  0  0  0  0  0  0  0
  149.5350  158.6300  131.8640 C   0  0  0  0  0  0  0  0  0  0  0  0
  148.8870  157.7030  132.6850 C   0  0  0  0  0  0  0  0  0  0  0  0
  147.6070  157.9730  133.1780 C   0  0  0  0  0  0  0  0  0  0  0  0
  147.0170  157.0720  134.0030 F   0  0  0  0  0  0  0  0  0  0  0  0
  144.6590  158.4480  133.5440 C   0  0  0  0  0  0  0  0  0  0  0  0
  143.3880  158.7780  134.0270 C   0  0  0  0  0  0  0  0  0  0  0  0
  142.3380  157.9570  134.2540 N   0  0  0  0  0  0  0  0  0  0  0  0
  142.2990  156.5410  134.0180 C   0  0  0  0  0  0  0  0  0  0  0  0
  143.2320  155.8010  134.4290 O   0  0  0  0  0  0  0  0  0  0  0  0
  141.2180  155.9680  133.3580 O   0  0  0  0  0  0  0  0  0  0  0  0
  139.4720  159.0280  137.0920 H   0  0  0  0  0  0  0  0  0  0  0  0
  141.1308  160.9752  134.9711 H   0  0  0  0  0  0  0  0  0  0  0  0
  143.6449  162.1672  134.3256 H   0  0  0  0  0  0  0  0  0  0  0  0
  145.9593  161.6367  133.4979 H   0  0  0  0  0  0  0  0  0  0  0  0
  147.1382  161.0622  131.7714 H   0  0  0  0  0  0  0  0  0  0  0  0
  149.4161  160.5631  130.8933 H   0  0  0  0  0  0  0  0  0  0  0  0
  150.5406  158.4122  131.4749 H   0  0  0  0  0  0  0  0  0  0  0  0
  149.3859  156.7575  132.9442 H   0  0  0  0  0  0  0  0  0  0  0  0
  144.9195  157.4045  133.3134 H   0  0  0  0  0  0  0  0  0  0  0  0
  1  2  1  0
  2  3  2  0
  2  4  1  0
  4  5  2  0
  5  6  1  0
  6  7  2  0
  7  8  1  0
  8  9  2  0
  9 10  1  0
 10 11  2  0
 11 12  1  0
 12 13  2  0
 13 14  1  0
 14 15  2  0
 15 16  1  0
  9 17  1  0
 17 18  2  0
 18 19  1  0
 19 20  1  0
 20 21  2  0
 20 22  1  0
 19  4  1  0
 18  6  1  0
 15 10  1  0
  1 23  1  0
  5 24  1  0
  7 25  1  0
  8 26  1  0
 11 27  1  0
 12 28  1  0
 13 29  1  0
 14 30  1  0
 17 31  1  0
M  CHG  2   1  -1  22  -1
M  END
>  <UniqueID>  (12) 
12

>  <SMILES>  (12) 
[NH-]C(=O)c1cc2ccc(-c3ccccc3F)cc2n1C(=O)[O-]

>  <Energy>  (12) 
80.1103287501297

>  <Genealogy>  (12) 
[NH-]C(=O)c1cc2ccc(-c3ccccc3F)cc2n1C(=O)[O-] (protonated)
[NH-]C(=O)c1cc2ccc(-c3ccccc3F)cc2n1C(=O)[O-] (3D coordinates assigned)
[NH-]C(=O)c1cc2ccc(-c3ccccc3F)cc2n1C(=O)[O-] (optimized conformer: 80.1103287501297 kcal/mol)

>  <smiles>  (12) 
NC(=O)c1cc2ccc(-c3ccccc3F)cc2n1C(=O)O

>  <score_type>  (12) 
oracle

>  <origin>  (12) 
adg

>  <m_score__min__energy>  (12) 
-7.5099999999999998

>  <m_primary>  (12) 
energy

$$$$
12:0
     RDKit          3D

 34 36  0  0  0  0  0  0  0  0999 V2000
  139.8360  158.6110  135.9960 N   0  0  0  0  0  0  0  0  0  0  0  0
  141.0630  158.0920  135.4790 C   0  0  0  0  0  0  0  0  0  0  0  0
  142.0280  158.8760  135.2780 O   0  0  0  0  0  0  0  0  0  0  0  0
  141.1970  156.6680  135.1140 C   0  0  0  0  0  0  0  0  0  0  0  0
  142.1260  155.8140  135.6980 C   0  0  0  0  0  0  0  0  0  0  0  0
  141.9780  154.6130  135.0430 C   0  0  0  0  0  0  0  0  0  0  0  0
  142.6450  153.4080  135.2280 C   0  0  0  0  0  0  0  0  0  0  0  0
  142.2650  152.3150  134.4330 C   0  0  0  0  0  0  0  0  0  0  0  0
  141.2200  152.4390  133.4810 C   0  0  0  0  0  0  0  0  0  0  0  0
  140.8250  151.2730  132.6540 C   0  0  0  0  0  0  0  0  0  0  0  0
  139.4970  151.1410  132.2170 C   0  0  0  0  0  0  0  0  0  0  0  0
  139.1080  150.0450  131.4440 C   0  0  0  0  0  0  0  0  0  0  0  0
  140.0410  149.0570  131.0870 C   0  0  0  0  0  0  0  0  0  0  0  0
  139.6250  147.8980  130.2680 C   0  0  0  0  0  0  0  0  0  0  0  0
  140.0180  146.7350  130.5570 O   0  0  0  0  0  0  0  0  0  0  0  0
  138.7940  148.0730  129.1680 O   0  0  0  0  0  0  0  0  0  0  0  0
  141.3720  149.1900  131.5180 C   0  0  0  0  0  0  0  0  0  0  0  0
  141.7630  150.2870  132.2940 C   0  0  0  0  0  0  0  0  0  0  0  0
  143.0660  150.4010  132.6590 F   0  0  0  0  0  0  0  0  0  0  0  0
  140.5680  153.6840  133.3210 C   0  0  0  0  0  0  0  0  0  0  0  0
  140.9810  154.7620  134.1130 C   0  0  0  0  0  0  0  0  0  0  0  0
  140.4890  156.0220  134.1440 N   0  0  0  0  0  0  0  0  0  0  0  0
  139.3630  156.5290  133.4060 C   0  0  0  0  0  0  0  0  0  0  0  0
  139.1410  156.1360  132.2310 O   0  0  0  0  0  0  0  0  0  0  0  0
  138.5040  157.4550  133.9850 O   0  0  0  0  0  0  0  0  0  0  0  0
  138.9710  158.0280  136.0190 H   0  0  0  0  0  0  0  0  0  0  0  0
  139.7710  159.6130  136.2830 H   0  0  0  0  0  0  0  0  0  0  0  0
  142.8294  156.0485  136.5105 H   0  0  0  0  0  0  0  0  0  0  0  0
  143.4468  153.3134  135.9751 H   0  0  0  0  0  0  0  0  0  0  0  0
  142.7831  151.3517  134.5494 H   0  0  0  0  0  0  0  0  0  0  0  0
  138.7561  151.9082  132.4861 H   0  0  0  0  0  0  0  0  0  0  0  0
  138.0632  149.9545  131.1121 H   0  0  0  0  0  0  0  0  0  0  0  0
  142.1131  148.4250  131.2430 H   0  0  0  0  0  0  0  0  0  0  0  0
  139.7543  153.8026  132.5903 H   0  0  0  0  0  0  0  0  0  0  0  0
  1  2  1  0
  2  3  2  0
  2  4  1  0
  4  5  2  0
  5  6  1  0
  6  7  2  0
  7  8  1  0
  8  9  2  0
  9 10  1  0
 10 11  2  0
 11 12  1  0
 12 13  2  0
 13 14  1  0
 14 15  2  0
 14 16  1  0
 13 17  1  0
 17 18  2  0
 18 19  1  0
  9 20  1  0
 20 21  2  0
 21 22  1  0
 22 23  1  0
 23 24  2  0
 23 25  1  0
 22  4  1  0
 21  6  1  0
 18 10  1  0
  1 26  1  0
  1 27  1  0
  5 28  1  0
  7 29  1  0
  8 30  1  0
 11 31  1  0
 12 32  1  0
 17 33  1  0
 20 34  1  0
M  CHG  2  16  -1  25  -1
M  END
>  <UniqueID>  (13) 
13

>  <SMILES>  (13) 
NC(=O)c1cc2ccc(-c3ccc(C(=O)[O-])cc3F)cc2n1C(=O)[O-]

>  <Energy>  (13) 
83.97002270522702

>  <Genealogy>  (13) 
NC(=O)c1cc2ccc(-c3ccc(C(=O)[O-])cc3F)cc2n1C(=O)[O-] (protonated)
NC(=O)c1cc2ccc(-c3ccc(C(=O)[O-])cc3F)cc2n1C(=O)[O-] (3D coordinates assigned)
NC(=O)c1cc2ccc(-c3ccc(C(=O)[O-])cc3F)cc2n1C(=O)[O-] (optimized conformer: 83.97002270522702 kcal/mol)

>  <smiles>  (13) 
NC(=O)c1cc2ccc(-c3ccc(C(=O)O)cc3F)cc2n1C(=O)O

>  <score_type>  (13) 
oracle

>  <origin>  (13) 
adg

>  <m_score__min__energy>  (13) 
-7.6600000000000001

>  <m_primary>  (13) 
energy

$$$$
13:0
     RDKit          3D

 35 36  0  0  0  0  0  0  0  0999 V2000
  147.7700  157.1440  131.8760 N   0  0  0  0  0  0  0  0  0  0  0  0
  147.5250  158.2630  132.7310 C   0  0  0  0  0  0  0  0  0  0  0  0
  148.4990  158.9580  133.1210 O   0  0  0  0  0  0  0  0  0  0  0  0
  146.1510  158.5940  133.1740 C   0  0  0  0  0  0  0  0  0  0  0  0
  145.6690  159.8920  133.3430 C   0  0  0  0  0  0  0  0  0  0  0  0
  144.3460  159.7490  133.6950 C   0  0  0  0  0  0  0  0  0  0  0  0
  143.3880  160.7140  133.9900 C   0  0  0  0  0  0  0  0  0  0  0  0
  142.1010  160.2770  134.3480 C   0  0  0  0  0  0  0  0  0  0  0  0
  141.8030  158.8930  134.4200 C   0  0  0  0  0  0  0  0  0  0  0  0
  140.4160  158.4360  134.7880 C   0  0  0  0  0  0  0  0  0  0  0  0
  140.2810  158.2130  136.2950 C   0  0  0  0  0  0  0  0  0  0  0  0
  140.6110  159.3790  136.9630 F   0  0  0  0  0  0  0  0  0  0  0  0
  138.9800  157.8680  136.6150 F   0  0  0  0  0  0  0  0  0  0  0  0
  141.1360  157.2060  136.7090 F   0  0  0  0  0  0  0  0  0  0  0  0
  142.8000  157.9440  134.1070 C   0  0  0  0  0  0  0  0  0  0  0  0
  144.0650  158.4080  133.7320 C   0  0  0  0  0  0  0  0  0  0  0  0
  145.1610  157.6870  133.4070 N   0  0  0  0  0  0  0  0  0  0  0  0
  145.2690  156.2540  133.3810 C   0  0  0  0  0  0  0  0  0  0  0  0
  145.2040  155.6440  132.2800 O   0  0  0  0  0  0  0  0  0  0  0  0
  145.4520  155.4740  134.6450 C   0  0  0  0  0  0  0  0  0  0  0  0
  145.7630  154.1410  134.3190 O   0  0  0  0  0  0  0  0  0  0  0  0
  147.3800  154.1150  133.7940 P   0  0  0  0  0  0  0  0  0  0  0  0
  148.4560  153.5410  134.6870 O   0  0  0  0  0  0  0  0  0  0  0  0
  147.7840  154.7330  132.2730 O   0  0  0  0  0  0  0  0  0  0  0  0
  146.9880  156.5810  131.4740 H   0  0  0  0  0  0  0  0  0  0  0  0
  148.7480  156.9000  131.6030 H   0  0  0  0  0  0  0  0  0  0  0  0
  146.2281  160.8314  133.2208 H   0  0  0  0  0  0  0  0  0  0  0  0
  143.6304  161.7860  133.9444 H   0  0  0  0  0  0  0  0  0  0  0  0
  141.3179  161.0156  134.5744 H   0  0  0  0  0  0  0  0  0  0  0  0
  139.6920  159.2022  134.4737 H   0  0  0  0  0  0  0  0  0  0  0  0
  140.2208  157.4807  134.2788 H   0  0  0  0  0  0  0  0  0  0  0  0
  142.5872  156.8659  134.1568 H   0  0  0  0  0  0  0  0  0  0  0  0
  146.2726  155.9112  135.2327 H   0  0  0  0  0  0  0  0  0  0  0  0
  144.5265  155.5055  135.2388 H   0  0  0  0  0  0  0  0  0  0  0  0
  146.9850  154.5600  131.7140 H   0  0  0  0  0  0  0  0  0  0  0  0
  1  2  1  0
  2  3  2  0
  2  4  1  0
  4  5  2  0
  5  6  1  0
  6  7  2  0
  7  8  1  0
  8  9  2  0
  9 10  1  0
 10 11  1  0
 11 12  1  0
 11 13  1  0
 11 14  1  0
  9 15  1  0
 15 16  2  0
 16 17  1  0
 17 18  1  0
 18 19  2  0
 18 20  1  0
 20 21  1  0
 21 22  1  0
 22 23  2  0
 22 24  1  0
 17  4  1  0
 16  6  1  0
  1 25  1  0
  1 26  1  0
  5 27  1  0
  7 28  1  0
  8 29  1  0
 10 30  1  0
 10 31  1  0
 15 32  1  0
 20 33  1  0
 20 34  1  0
 24 35  1  0
M  CHG  1  22   1
M  END
>  <UniqueID>  (14) 
14

>  <SMILES>  (14) 
NC(=O)c1cc2ccc(CC(F)(F)F)cc2n1C(=O)CO[P+](=O)O

>  <Energy>  (14) 
90.45119268289322

>  <Genealogy>  (14) 
NC(=O)c1cc2ccc(CC(F)(F)F)cc2n1C(=O)CO[P+](=O)O (chirality)
NC(=O)c1cc2ccc(CC(F)(F)F)cc2n1C(=O)CO[P+](=O)O (3D coordinates assigned)
NC(=O)c1cc2ccc(CC(F)(F)F)cc2n1C(=O)CO[P+](=O)O (optimized conformer: 90.45119268289322 kcal/mol)

>  <smiles>  (14) 
NC(=O)c1cc2ccc(CC(F)(F)F)cc2n1C(=O)CO[P+](=O)O

>  <score_type>  (14) 
oracle

>  <origin>  (14) 
adg

>  <m_score__min__energy>  (14) 
-6.8499999999999996

>  <m_primary>  (14) 
energy

$$$$
14:0
     RDKit          3D

 35 36  0  0  0  0  0  0  0  0999 V2000
  143.8110  156.8150  134.6480 C   0  0  0  0  0  0  0  0  0  0  0  0
  143.9450  157.7690  133.5030 C   0  0  0  0  0  0  0  0  0  0  0  0
  143.0530  157.7930  132.6140 O   0  0  0  0  0  0  0  0  0  0  0  0
  145.1080  158.6000  133.3700 N   0  0  0  0  0  0  0  0  0  0  0  0
  145.1930  159.9550  133.4940 C   0  0  0  0  0  0  0  0  0  0  0  0
  144.0550  160.8810  133.6590 C   0  0  0  0  0  0  0  0  0  0  0  0
  142.7280  160.4310  133.3930 N   0  0  0  0  0  0  0  0  0  0  0  0
  144.2370  162.0600  134.0630 O   0  0  0  0  0  0  0  0  0  0  0  0
  146.5170  160.3740  133.3610 C   0  0  0  0  0  0  0  0  0  0  0  0
  147.2420  159.2250  133.1420 C   0  0  0  0  0  0  0  0  0  0  0  0
  148.6090  159.0490  132.9500 C   0  0  0  0  0  0  0  0  0  0  0  0
  149.0860  157.7390  132.7710 C   0  0  0  0  0  0  0  0  0  0  0  0
  148.1940  156.6370  132.7850 C   0  0  0  0  0  0  0  0  0  0  0  0
  148.7260  155.2350  132.6280 C   0  0  0  0  0  0  0  0  0  0  0  0
  147.7090  154.1770  133.0930 C   0  0  0  0  0  0  0  0  0  0  0  0
  148.1010  153.4820  134.4070 C   0  0  0  0  0  0  0  0  0  0  0  0
  147.4360  154.1120  135.5930 C   0  0  0  0  0  0  0  0  0  0  0  0
  147.2450  155.3560  135.6240 O   0  0  0  0  0  0  0  0  0  0  0  0
  147.0430  153.3280  136.6700 O   0  0  0  0  0  0  0  0  0  0  0  0
  146.8130  156.8550  132.9810 C   0  0  0  0  0  0  0  0  0  0  0  0
  146.3670  158.1700  133.1490 C   0  0  0  0  0  0  0  0  0  0  0  0
  143.8886  157.3671  135.5962 H   0  0  0  0  0  0  0  0  0  0  0  0
  142.8336  156.3132  134.5947 H   0  0  0  0  0  0  0  0  0  0  0  0
  144.6124  156.0634  134.5947 H   0  0  0  0  0  0  0  0  0  0  0  0
  142.5110  159.8780  132.5340 H   0  0  0  0  0  0  0  0  0  0  0  0
  146.8999  161.4036  133.4188 H   0  0  0  0  0  0  0  0  0  0  0  0
  149.2952  159.9087  132.9387 H   0  0  0  0  0  0  0  0  0  0  0  0
  150.1617  157.5671  132.6186 H   0  0  0  0  0  0  0  0  0  0  0  0
  148.9601  155.0606  131.5674 H   0  0  0  0  0  0  0  0  0  0  0  0
  149.6251  155.1406  133.2546 H   0  0  0  0  0  0  0  0  0  0  0  0
  146.7360  154.6696  133.2370 H   0  0  0  0  0  0  0  0  0  0  0  0
  147.6736  153.3999  132.3152 H   0  0  0  0  0  0  0  0  0  0  0  0
  147.8031  152.4245  134.3525 H   0  0  0  0  0  0  0  0  0  0  0  0
  149.1891  153.5817  134.5337 H   0  0  0  0  0  0  0  0  0  0  0  0
  146.1060  156.0125  133.0011 H   0  0  0  0  0  0  0  0  0  0  0  0
  1  2  1  0
  2  3  2  0
  2  4  1  0
  4  5  1  0
  5  6  1  0
  6  7  1  0
  6  8  2  0
  5  9  2  0
  9 10  1  0
 10 11  2  0
 11 12  1  0
 12 13  2  0
 13 14  1  0
 14 15  1  0
 15 16  1  0
 16 17  1  0
 17 18  2  0
 17 19  1  0
 13 20  1  0
 20 21  2  0
 21  4  1  0
 21 10  1  0
  1 22  1  0
  1 23  1  0
  1 24  1  0
  7 25  1  0
  9 26  1  0
 11 27  1  0
 12 28  1  0
 14 29  1  0
 14 30  1  0
 15 31  1  0
 15 32  1  0
 16 33  1  0
 16 34  1  0
 20 35  1  0
M  CHG  2   7  -1  19  -1
M  END
>  <UniqueID>  (15) 
15

>  <SMILES>  (15) 
CC(=O)n1c(C([NH-])=O)cc2ccc(CCCC(=O)[O-])cc21

>  <Energy>  (15) 
68.70783265230733

>  <Genealogy>  (15) 
CC(=O)n1c(C([NH-])=O)cc2ccc(CCCC(=O)[O-])cc21 (protonated)
CC(=O)n1c(C([NH-])=O)cc2ccc(CCCC(=O)[O-])cc21 (3D coordinates assigned)
CC(=O)n1c(C([NH-])=O)cc2ccc(CCCC(=O)[O-])cc21 (optimized conformer: 68.70783265230733 kcal/mol)

>  <smiles>  (15) 
CC(=O)n1c(C(N)=O)cc2ccc(CCCC(=O)O)cc21

>  <score_type>  (15) 
oracle

>  <origin>  (15) 
adg

>  <m_score__min__energy>  (15) 
-7.0300000000000002

>  <m_primary>  (15) 
energy

$$$$
15:0
     RDKit          3D

 49 51  0  0  0  0  0  0  0  0999 V2000
  148.9260  154.4360  132.6290 C   0  0  0  0  0  0  0  0  0  0  0  0
  147.4300  154.5270  132.9240 C   0  0  0  0  0  0  0  0  0  0  0  0
  146.9710  155.8640  132.7500 O   0  0  0  0  0  0  0  0  0  0  0  0
  146.0330  156.4830  133.5910 C   0  0  0  0  0  0  0  0  0  0  0  0
  145.2840  155.7740  134.3210 O   0  0  0  0  0  0  0  0  0  0  0  0
  145.9140  157.9200  133.6010 N   0  0  0  0  0  0  0  0  0  0  0  0
  146.8910  158.8160  133.2960 C   0  0  0  0  0  0  0  0  0  0  0  0
  148.2750  158.4770  132.9470 C   0  0  0  0  0  0  0  0  0  0  0  0
  148.5430  157.5680  131.8770 N   0  0  0  0  0  0  0  0  0  0  0  0
  149.2290  158.9880  133.5880 O   0  0  0  0  0  0  0  0  0  0  0  0
  146.4000  160.1190  133.3110 C   0  0  0  0  0  0  0  0  0  0  0  0
  145.0710  160.0000  133.6260 C   0  0  0  0  0  0  0  0  0  0  0  0
  144.0850  160.9770  133.7080 C   0  0  0  0  0  0  0  0  0  0  0  0
  142.7660  160.5680  133.9520 C   0  0  0  0  0  0  0  0  0  0  0  0
  142.4440  159.1890  134.0780 C   0  0  0  0  0  0  0  0  0  0  0  0
  141.0170  158.7900  134.3930 C   0  0  0  0  0  0  0  0  0  0  0  0
  140.3350  158.1020  133.2360 C   0  0  0  0  0  0  0  0  0  0  0  0
  140.3900  156.8420  133.1750 O   0  0  0  0  0  0  0  0  0  0  0  0
  139.5770  158.8360  132.2440 N   0  0  0  0  0  0  0  0  0  0  0  0
  138.5670  158.1490  131.4230 C   0  0  0  0  0  0  0  0  0  0  0  0
  137.2850  158.9910  131.3340 C   0  0  0  0  0  0  0  0  0  0  0  0
  137.5400  160.4880  131.0560 C   0  0  0  0  0  0  0  0  0  0  0  0
  139.0240  160.8210  130.8400 C   0  0  0  0  0  0  0  0  0  0  0  0
  139.8710  160.2630  131.9910 C   0  0  0  0  0  0  0  0  0  0  0  0
  143.4830  158.2290  134.0190 C   0  0  0  0  0  0  0  0  0  0  0  0
  144.7900  158.6590  133.7710 C   0  0  0  0  0  0  0  0  0  0  0  0
  149.4850  154.4020  133.5758 H   0  0  0  0  0  0  0  0  0  0  0  0
  149.1306  153.5238  132.0494 H   0  0  0  0  0  0  0  0  0  0  0  0
  149.2397  155.3167  132.0494 H   0  0  0  0  0  0  0  0  0  0  0  0
  146.8839  153.8638  132.2370 H   0  0  0  0  0  0  0  0  0  0  0  0
  147.2520  154.2209  133.9654 H   0  0  0  0  0  0  0  0  0  0  0  0
  147.7520  157.2310  131.2760 H   0  0  0  0  0  0  0  0  0  0  0  0
  149.5270  157.3140  131.6350 H   0  0  0  0  0  0  0  0  0  0  0  0
  146.9588  161.0455  133.1126 H   0  0  0  0  0  0  0  0  0  0  0  0
  144.3328  162.0416  133.5848 H   0  0  0  0  0  0  0  0  0  0  0  0
  141.9715  161.3228  134.0470 H   0  0  0  0  0  0  0  0  0  0  0  0
  141.0250  158.1055  135.2541 H   0  0  0  0  0  0  0  0  0  0  0  0
  140.4551  159.7105  134.6098 H   0  0  0  0  0  0  0  0  0  0  0  0
  138.9684  157.9921  130.4109 H   0  0  0  0  0  0  0  0  0  0  0  0
  138.3267  157.1819  131.8888 H   0  0  0  0  0  0  0  0  0  0  0  0
  136.6618  158.5888  130.5217 H   0  0  0  0  0  0  0  0  0  0  0  0
  136.7914  158.9272  132.3150 H   0  0  0  0  0  0  0  0  0  0  0  0
  136.9824  160.7754  130.1524 H   0  0  0  0  0  0  0  0  0  0  0  0
  137.2064  161.0459  131.9434 H   0  0  0  0  0  0  0  0  0  0  0  0
  139.3612  160.3750  129.8927 H   0  0  0  0  0  0  0  0  0  0  0  0
  139.1430  161.9140  130.8071 H   0  0  0  0  0  0  0  0  0  0  0  0
  140.9354  160.3676  131.7337 H   0  0  0  0  0  0  0  0  0  0  0  0
  139.6283  160.8300  132.9018 H   0  0  0  0  0  0  0  0  0  0  0  0
  143.2652  157.1609  134.1661 H   0  0  0  0  0  0  0  0  0  0  0  0
  1  2  1  0
  2  3  1  0
  3  4  1  0
  4  5  2  0
  4  6  1  0
  6  7  1  0
  7  8  1  0
  8  9  1  0
  8 10  2  0
  7 11  2  0
 11 12  1  0
 12 13  2  0
 13 14  1  0
 14 15  2  0
 15 16  1  0
 16 17  1  0
 17 18  2  0
 17 19  1  0
 19 20  1  0
 20 21  1  0
 21 22  1  0
 22 23  1  0
 23 24  1  0
 15 25  1  0
 25 26  2  0
 26  6  1  0
 26 12  1  0
 24 19  1  0
  1 27  1  0
  1 28  1  0
  1 29  1  0
  2 30  1  0
  2 31  1  0
  9 32  1  0
  9 33  1  0
 11 34  1  0
 13 35  1  0
 14 36  1  0
 16 37  1  0
 16 38  1  0
 20 39  1  0
 20 40  1  0
 21 41  1  0
 21 42  1  0
 22 43  1  0
 22 44  1  0
 23 45  1  0
 23 46  1  0
 24 47  1  0
 24 48  1  0
 25 49  1  0
M  END
>  <UniqueID>  (16) 
16

>  <SMILES>  (16) 
CCOC(=O)n1c(C(N)=O)cc2ccc(CC(=O)N3CCCCC3)cc21

>  <Energy>  (16) 
87.95517620062252

>  <Genealogy>  (16) 
CCOC(=O)n1c(C(N)=O)cc2ccc(CC(=O)N3CCCCC3)cc21 (3D coordinates assigned)
CCOC(=O)n1c(C(N)=O)cc2ccc(CC(=O)N3CCCCC3)cc21 (nonaromatic ring conformer: 87.95517620062252 kcal/mol)

>  <smiles>  (16) 
CCOC(=O)n1c(C(N)=O)cc2ccc(CC(=O)N3CCCCC3)cc21

>  <score_type>  (16) 
oracle

>  <origin>  (16) 
adg

>  <m_score__min__energy>  (16) 
-8.4800000000000004

>  <m_primary>  (16) 
energy

$$$$
16:0
     RDKit          3D

 43 44  0  0  0  0  0  0  0  0999 V2000
  149.6310  153.6450  132.2440 C   0  0  0  0  0  0  0  0  0  0  0  0
  148.9360  154.6730  132.9150 O   0  0  0  0  0  0  0  0  0  0  0  0
  147.9690  154.1230  133.7910 C   0  0  0  0  0  0  0  0  0  0  0  0
  147.6380  155.1180  134.9050 C   0  0  0  0  0  0  0  0  0  0  0  0
  146.3740  155.7330  134.6680 O   0  0  0  0  0  0  0  0  0  0  0  0
  146.0380  156.3650  133.4660 C   0  0  0  0  0  0  0  0  0  0  0  0
  145.8080  155.6820  132.4290 O   0  0  0  0  0  0  0  0  0  0  0  0
  145.9740  157.7990  133.4070 N   0  0  0  0  0  0  0  0  0  0  0  0
  146.9930  158.6690  133.1500 C   0  0  0  0  0  0  0  0  0  0  0  0
  148.3630  158.2900  132.7360 C   0  0  0  0  0  0  0  0  0  0  0  0
  148.6300  156.9950  132.1980 N   0  0  0  0  0  0  0  0  0  0  0  0
  149.3150  159.1010  132.8850 O   0  0  0  0  0  0  0  0  0  0  0  0
  146.5430  159.9850  133.2350 C   0  0  0  0  0  0  0  0  0  0  0  0
  145.2060  159.8940  133.5520 C   0  0  0  0  0  0  0  0  0  0  0  0
  144.2670  160.9000  133.7590 C   0  0  0  0  0  0  0  0  0  0  0  0
  142.9570  160.5170  134.0930 C   0  0  0  0  0  0  0  0  0  0  0  0
  142.6180  159.1480  134.2310 C   0  0  0  0  0  0  0  0  0  0  0  0
  141.2070  158.7500  134.5670 C   0  0  0  0  0  0  0  0  0  0  0  0
  140.4120  158.4570  133.2920 C   0  0  0  0  0  0  0  0  0  0  0  0
  139.8590  159.6590  132.7590 O   0  0  0  0  0  0  0  0  0  0  0  0
  139.4570  159.7970  131.4270 C   0  0  0  0  0  0  0  0  0  0  0  0
  138.2390  160.4720  131.1320 N   0  0  0  0  0  0  0  0  0  0  0  0
  140.1620  159.3380  130.4880 O   0  0  0  0  0  0  0  0  0  0  0  0
  143.5960  158.1560  134.0020 C   0  0  0  0  0  0  0  0  0  0  0  0
  144.8880  158.5650  133.6510 C   0  0  0  0  0  0  0  0  0  0  0  0
  150.0879  152.9691  132.9819 H   0  0  0  0  0  0  0  0  0  0  0  0
  148.9294  153.0791  131.6135 H   0  0  0  0  0  0  0  0  0  0  0  0
  150.4176  154.0852  131.6135 H   0  0  0  0  0  0  0  0  0  0  0  0
  147.0542  153.8942  133.2247 H   0  0  0  0  0  0  0  0  0  0  0  0
  148.3731  153.2035  134.2396 H   0  0  0  0  0  0  0  0  0  0  0  0
  147.6067  154.5862  135.8674 H   0  0  0  0  0  0  0  0  0  0  0  0
  148.4137  155.8977  134.9267 H   0  0  0  0  0  0  0  0  0  0  0  0
  147.8610  156.3150  132.0070 H   0  0  0  0  0  0  0  0  0  0  0  0
  149.6070  156.7240  131.9460 H   0  0  0  0  0  0  0  0  0  0  0  0
  147.1309  160.9019  133.0815 H   0  0  0  0  0  0  0  0  0  0  0  0
  144.5415  161.9610  133.6642 H   0  0  0  0  0  0  0  0  0  0  0  0
  142.1873  161.2872  134.2488 H   0  0  0  0  0  0  0  0  0  0  0  0
  141.2259  157.8482  135.1966 H   0  0  0  0  0  0  0  0  0  0  0  0
  140.7230  159.5789  135.1043 H   0  0  0  0  0  0  0  0  0  0  0  0
  141.0805  158.0041  132.5450 H   0  0  0  0  0  0  0  0  0  0  0  0
  139.5914  157.7663  133.5361 H   0  0  0  0  0  0  0  0  0  0  0  0
  137.8950  161.2470  131.7420 H   0  0  0  0  0  0  0  0  0  0  0  0
  143.3490  157.0883  134.0970 H   0  0  0  0  0  0  0  0  0  0  0  0
  1  2  1  0
  2  3  1  0
  3  4  1  0
  4  5  1  0
  5  6  1  0
  6  7  2  0
  6  8  1  0
  8  9  1  0
  9 10  1  0
 10 11  1  0
 10 12  2  0
  9 13  2  0
 13 14  1  0
 14 15  2  0
 15 16  1  0
 16 17  2  0
 17 18  1  0
 18 19  1  0
 19 20  1  0
 20 21  1  0
 21 22  1  0
 21 23  2  0
 17 24  1  0
 24 25  2  0
 25  8  1  0
 25 14  1  0
  1 26  1  0
  1 27  1  0
  1 28  1  0
  3 29  1  0
  3 30  1  0
  4 31  1  0
  4 32  1  0
 11 33  1  0
 11 34  1  0
 13 35  1  0
 15 36  1  0
 16 37  1  0
 18 38  1  0
 18 39  1  0
 19 40  1  0
 19 41  1  0
 22 42  1  0
 24 43  1  0
M  CHG  1  22  -1
M  END
>  <UniqueID>  (17) 
17

>  <SMILES>  (17) 
COCCOC(=O)n1c(C(N)=O)cc2ccc(CCOC([NH-])=O)cc21

>  <Energy>  (17) 
75.28450108693548

>  <Genealogy>  (17) 
COCCOC(=O)n1c(C(N)=O)cc2ccc(CCOC([NH-])=O)cc21 (protonated)
COCCOC(=O)n1c(C(N)=O)cc2ccc(CCOC([NH-])=O)cc21 (3D coordinates assigned)
COCCOC(=O)n1c(C(N)=O)cc2ccc(CCOC([NH-])=O)cc21 (optimized conformer: 75.28450108693548 kcal/mol)

>  <smiles>  (17) 
COCCOC(=O)n1c(C(N)=O)cc2ccc(CCOC(N)=O)cc21

>  <score_type>  (17) 
oracle

>  <origin>  (17) 
adg

>  <m_score__min__energy>  (17) 
-6.0999999999999996

>  <m_primary>  (17) 
energy

$$$$
17:0
     RDKit          3D

 24 25  0  0  0  0  0  0  0  0999 V2000
  143.0010  160.7910  133.3860 N   0  0  0  0  0  0  0  0  0  0  0  0
  144.3650  161.0140  133.7310 C   0  0  0  0  0  0  0  0  0  0  0  0
  144.7230  162.1540  134.1300 O   0  0  0  0  0  0  0  0  0  0  0  0
  145.3760  159.9520  133.5560 C   0  0  0  0  0  0  0  0  0  0  0  0
  146.7270  160.2150  133.3420 C   0  0  0  0  0  0  0  0  0  0  0  0
  147.3070  158.9880  133.1200 C   0  0  0  0  0  0  0  0  0  0  0  0
  148.6330  158.6590  132.8530 C   0  0  0  0  0  0  0  0  0  0  0  0
  148.9540  157.3020  132.6820 C   0  0  0  0  0  0  0  0  0  0  0  0
  147.9510  156.3050  132.7830 C   0  0  0  0  0  0  0  0  0  0  0  0
  148.2990  154.8540  132.6090 C   0  0  0  0  0  0  0  0  0  0  0  0
  148.0590  154.1730  133.7880 F   0  0  0  0  0  0  0  0  0  0  0  0
  149.6350  154.7320  132.2750 F   0  0  0  0  0  0  0  0  0  0  0  0
  146.6160  156.6770  133.0550 C   0  0  0  0  0  0  0  0  0  0  0  0
  146.3240  158.0370  133.2110 C   0  0  0  0  0  0  0  0  0  0  0  0
  145.1320  158.6110  133.4880 N   0  0  0  0  0  0  0  0  0  0  0  0
  143.9070  157.9060  133.7500 C   0  0  0  0  0  0  0  0  0  0  0  0
  142.9500  157.9450  132.9330 O   0  0  0  0  0  0  0  0  0  0  0  0
  142.7390  160.0940  132.6540 H   0  0  0  0  0  0  0  0  0  0  0  0
  147.2245  161.1961  133.3491 H   0  0  0  0  0  0  0  0  0  0  0  0
  149.4061  159.4379  132.7782 H   0  0  0  0  0  0  0  0  0  0  0  0
  149.9928  157.0104  132.4678 H   0  0  0  0  0  0  0  0  0  0  0  0
  147.6792  154.4287  131.8059 H   0  0  0  0  0  0  0  0  0  0  0  0
  145.8255  155.9170  133.1420 H   0  0  0  0  0  0  0  0  0  0  0  0
  143.8043  157.3240  134.6778 H   0  0  0  0  0  0  0  0  0  0  0  0
  1  2  1  0
  2  3  2  0
  2  4  1  0
  4  5  2  0
  5  6  1  0
  6  7  2  0
  7  8  1  0
  8  9  2  0
  9 10  1  0
 10 11  1  0
 10 12  1  0
  9 13  1  0
 13 14  2  0
 14 15  1  0
 15 16  1  0
 16 17  2  0
 15  4  1  0
 14  6  1  0
  1 18  1  0
  5 19  1  0
  7 20  1  0
  8 21  1  0
 10 22  1  0
 13 23  1  0
 16 24  1  0
M  CHG  1   1  -1
M  END
>  <UniqueID>  (18) 
18

>  <SMILES>  (18) 
[NH-]C(=O)c1cc2ccc(C(F)F)cc2n1C=O

>  <Energy>  (18) 
62.957191093667596

>  <Genealogy>  (18) 
[NH-]C(=O)c1cc2ccc(C(F)F)cc2n1C=O (protonated)
[NH-]C(=O)c1cc2ccc(C(F)F)cc2n1C=O (3D coordinates assigned)
[NH-]C(=O)c1cc2ccc(C(F)F)cc2n1C=O (optimized conformer: 62.957191093667596 kcal/mol)

>  <smiles>  (18) 
NC(=O)c1cc2ccc(C(F)F)cc2n1C=O

>  <score_type>  (18) 
oracle

>  <origin>  (18) 
adg

>  <m_score__min__energy>  (18) 
-5.0099999999999998

>  <m_primary>  (18) 
energy

$$$$
18:0
     RDKit          3D

 32 33  0  0  0  0  0  0  0  0999 V2000
  148.8920  161.0140  130.6960 C   0  0  0  0  0  0  0  0  0  0  0  0
  149.4820  159.7370  130.1100 C   0  0  0  0  0  0  0  0  0  0  0  0
  149.0130  158.5940  130.8220 O   0  0  0  0  0  0  0  0  0  0  0  0
  148.8060  158.5780  132.2060 C   0  0  0  0  0  0  0  0  0  0  0  0
  149.6060  159.1790  132.9750 O   0  0  0  0  0  0  0  0  0  0  0  0
  147.6820  157.8710  132.7530 N   0  0  0  0  0  0  0  0  0  0  0  0
  146.5300  158.4060  133.2490 C   0  0  0  0  0  0  0  0  0  0  0  0
  146.1350  159.8260  133.1780 C   0  0  0  0  0  0  0  0  0  0  0  0
  147.0910  160.8720  133.3570 N   0  0  0  0  0  0  0  0  0  0  0  0
  144.9430  160.1230  132.8980 O   0  0  0  0  0  0  0  0  0  0  0  0
  145.7240  157.4120  133.8000 C   0  0  0  0  0  0  0  0  0  0  0  0
  146.4180  156.2390  133.6130 C   0  0  0  0  0  0  0  0  0  0  0  0
  146.0830  154.9360  133.9710 C   0  0  0  0  0  0  0  0  0  0  0  0
  147.0030  153.9160  133.6800 C   0  0  0  0  0  0  0  0  0  0  0  0
  148.2470  154.2130  133.0670 C   0  0  0  0  0  0  0  0  0  0  0  0
  149.2120  153.1050  132.7290 C   0  0  0  0  0  0  0  0  0  0  0  0
  148.6740  152.2620  131.7720 F   0  0  0  0  0  0  0  0  0  0  0  0
  149.5050  152.3510  133.8520 F   0  0  0  0  0  0  0  0  0  0  0  0
  150.3810  153.6540  132.2390 F   0  0  0  0  0  0  0  0  0  0  0  0
  148.5420  155.5480  132.6990 C   0  0  0  0  0  0  0  0  0  0  0  0
  147.5970  156.5420  132.9810 C   0  0  0  0  0  0  0  0  0  0  0  0
  148.9173  160.9592  131.7943 H   0  0  0  0  0  0  0  0  0  0  0  0
  149.4817  161.8790  130.3583 H   0  0  0  0  0  0  0  0  0  0  0  0
  147.8511  161.1256  130.3583 H   0  0  0  0  0  0  0  0  0  0  0  0
  149.1842  159.6525  129.0545 H   0  0  0  0  0  0  0  0  0  0  0  0
  150.5779  159.7818  130.1941 H   0  0  0  0  0  0  0  0  0  0  0  0
  148.1130  160.6640  133.4150 H   0  0  0  0  0  0  0  0  0  0  0  0
  146.7850  161.8690  133.3450 H   0  0  0  0  0  0  0  0  0  0  0  0
  144.7430  157.5381  134.2814 H   0  0  0  0  0  0  0  0  0  0  0  0
  145.1268  154.7124  134.4667 H   0  0  0  0  0  0  0  0  0  0  0  0
  146.7559  152.8738  133.9305 H   0  0  0  0  0  0  0  0  0  0  0  0
  149.4914  155.7984  132.2031 H   0  0  0  0  0  0  0  0  0  0  0  0
  1  2  1  0
  2  3  1  0
  3  4  1  0
  4  5  2  0
  4  6  1  0
  6  7  1  0
  7  8  1  0
  8  9  1  0
  8 10  2  0
  7 11  2  0
 11 12  1  0
 12 13  2  0
 13 14  1  0
 14 15  2  0
 15 16  1  0
 16 17  1  0
 16 18  1  0
 16 19  1  0
 15 20  1  0
 20 21  2  0
 21  6  1  0
 21 12  1  0
  1 22  1  0
  1 23  1  0
  1 24  1  0
  2 25  1  0
  2 26  1  0
  9 27  1  0
  9 28  1  0
 11 29  1  0
 13 30  1  0
 14 31  1  0
 20 32  1  0
M  END
>  <UniqueID>  (19) 
19

>  <SMILES>  (19) 
CCOC(=O)n1c(C(N)=O)cc2ccc(C(F)(F)F)cc21

>  <Energy>  (19) 
68.22108108492725

>  <Genealogy>  (19) 
CCOC(=O)n1c(C(N)=O)cc2ccc(C(F)(F)F)cc21 (3D coordinates assigned)
CCOC(=O)n1c(C(N)=O)cc2ccc(C(F)(F)F)cc21 (optimized conformer: 68.22108108492725 kcal/mol)

>  <smiles>  (19) 
CCOC(=O)n1c(C(N)=O)cc2ccc(C(F)(F)F)cc21

>  <score_type>  (19) 
oracle

>  <origin>  (19) 
adg

>  <m_score__min__energy>  (19) 
-6.0099999999999998

>  <m_primary>  (19) 
energy

$$$$
19:0
     RDKit          3D

 52 54  0  0  0  0  0  0  0  0999 V2000
  148.3900  157.2290  131.8980 N   0  0  0  0  0  0  0  0  0  0  0  0
  147.9520  158.1900  132.8580 C   0  0  0  0  0  0  0  0  0  0  0  0
  148.8060  158.8060  133.5510 O   0  0  0  0  0  0  0  0  0  0  0  0
  146.5150  158.4270  133.1030 C   0  0  0  0  0  0  0  0  0  0  0  0
  145.9710  159.6930  133.2960 C   0  0  0  0  0  0  0  0  0  0  0  0
  144.6400  159.4790  133.5690 C   0  0  0  0  0  0  0  0  0  0  0  0
  143.6250  160.3910  133.8420 C   0  0  0  0  0  0  0  0  0  0  0  0
  142.3320  159.8910  134.0680 C   0  0  0  0  0  0  0  0  0  0  0  0
  142.0760  158.4980  134.0010 C   0  0  0  0  0  0  0  0  0  0  0  0
  140.6900  157.9670  134.2620 C   0  0  0  0  0  0  0  0  0  0  0  0
  140.3420  156.7720  133.3500 C   0  0  0  0  0  0  0  0  0  0  0  0
  139.1160  156.9700  132.5580 N   0  0  0  0  0  0  0  0  0  0  0  0
  138.6550  158.3670  132.5720 C   0  0  0  0  0  0  0  0  0  0  0  0
  138.6160  159.0040  131.1660 C   0  0  0  0  0  0  0  0  0  0  0  0
  139.0330  160.4690  131.1340 C   0  0  0  0  0  0  0  0  0  0  0  0
  137.5910  160.0870  130.8410 C   0  0  0  0  0  0  0  0  0  0  0  0
  143.1300  157.6030  133.7170 C   0  0  0  0  0  0  0  0  0  0  0  0
  144.4150  158.1260  133.5230 C   0  0  0  0  0  0  0  0  0  0  0  0
  145.5590  157.4660  133.2350 N   0  0  0  0  0  0  0  0  0  0  0  0
  145.7030  156.0500  133.0250 C   0  0  0  0  0  0  0  0  0  0  0  0
  145.9680  155.6060  131.8740 O   0  0  0  0  0  0  0  0  0  0  0  0
  145.5420  155.1700  134.0980 O   0  0  0  0  0  0  0  0  0  0  0  0
  146.6380  154.5640  134.7770 C   0  0  0  0  0  0  0  0  0  0  0  0
  147.3030  153.5200  133.8690 C   0  0  1  0  0  0  0  0  0  0  0  0
  146.4540  153.2120  132.7940 O   0  0  0  0  0  0  0  0  0  0  0  0
  148.6550  154.0110  133.3250 C   0  0  0  0  0  0  0  0  0  0  0  0
  148.5000  154.6740  132.0980 O   0  0  0  0  0  0  0  0  0  0  0  0
  147.7140  156.5850  131.4330 H   0  0  0  0  0  0  0  0  0  0  0  0
  149.4100  157.1020  131.7110 H   0  0  0  0  0  0  0  0  0  0  0  0
  146.4940  160.6592  133.2418 H   0  0  0  0  0  0  0  0  0  0  0  0
  143.8292  161.4712  133.8797 H   0  0  0  0  0  0  0  0  0  0  0  0
  141.5112  160.5859  134.2989 H   0  0  0  0  0  0  0  0  0  0  0  0
  140.6269  157.6421  135.3110 H   0  0  0  0  0  0  0  0  0  0  0  0
  139.9736  158.7741  134.0489 H   0  0  0  0  0  0  0  0  0  0  0  0
  141.1805  156.6079  132.6572 H   0  0  0  0  0  0  0  0  0  0  0  0
  140.1650  155.9071  134.0063 H   0  0  0  0  0  0  0  0  0  0  0  0
  138.3600  156.3490  132.9280 H   0  0  0  0  0  0  0  0  0  0  0  0
  137.6416  158.3974  132.9987 H   0  0  0  0  0  0  0  0  0  0  0  0
  139.3720  158.9439  133.1746 H   0  0  0  0  0  0  0  0  0  0  0  0
  138.8936  158.0665  130.6620 H   0  0  0  0  0  0  0  0  0  0  0  0
  139.2843  160.9894  132.0700 H   0  0  0  0  0  0  0  0  0  0  0  0
  139.8067  161.0450  130.6052 H   0  0  0  0  0  0  0  0  0  0  0  0
  136.7996  160.3303  131.5652 H   0  0  0  0  0  0  0  0  0  0  0  0
  136.8904  160.2715  130.0133 H   0  0  0  0  0  0  0  0  0  0  0  0
  142.9467  156.5205  133.6496 H   0  0  0  0  0  0  0  0  0  0  0  0
  147.3739  155.3368  135.0439 H   0  0  0  0  0  0  0  0  0  0  0  0
  146.2705  154.0696  135.6883 H   0  0  0  0  0  0  0  0  0  0  0  0
  147.4858  152.6217  134.4770 H   0  0  0  0  0  0  0  0  0  0  0  0
  146.3830  154.0330  132.2400 H   0  0  0  0  0  0  0  0  0  0  0  0
  149.1038  154.7035  134.0523 H   0  0  0  0  0  0  0  0  0  0  0  0
  149.3043  153.1371  133.1680 H   0  0  0  0  0  0  0  0  0  0  0  0
  147.6890  154.2950  131.6690 H   0  0  0  0  0  0  0  0  0  0  0  0
  1  2  1  0
  2  3  2  0
  2  4  1  0
  4  5  2  0
  5  6  1  0
  6  7  2  0
  7  8  1  0
  8  9  2  0
  9 10  1  0
 10 11  1  0
 11 12  1  0
 12 13  1  0
 13 14  1  0
 14 15  1  0
 15 16  1  0
  9 17  1  0
 17 18  2  0
 18 19  1  0
 19 20  1  0
 20 21  2  0
 20 22  1  0
 22 23  1  0
 23 24  1  0
 24 25  1  0
 24 26  1  0
 26 27  1  0
 19  4  1  0
 18  6  1  0
 16 14  1  0
  1 28  1  0
  1 29  1  0
  5 30  1  0
  7 31  1  0
  8 32  1  0
 10 33  1  0
 10 34  1  0
 11 35  1  0
 11 36  1  0
 12 37  1  0
 13 38  1  0
 13 39  1  0
 14 40  1  0
 15 41  1  0
 15 42  1  0
 16 43  1  0
 16 44  1  0
 17 45  1  0
 23 46  1  0
 23 47  1  0
 24 48  1  1
 25 49  1  0
 26 50  1  0
 26 51  1  0
 27 52  1  0
M  END
>  <UniqueID>  (20) 
20

>  <SMILES>  (20) 
NC(=O)c1cc2ccc(CCNCC3CC3)cc2n1C(=O)OC[C@@H](O)CO

>  <Energy>  (20) 
350.7066220375499

>  <Genealogy>  (20) 
NC(=O)c1cc2ccc(CCNCC3CC3)cc2n1C(=O)OC[C@@H](O)CO (chirality)
NC(=O)c1cc2ccc(CCNCC3CC3)cc2n1C(=O)OC[C@@H](O)CO (3D coordinates assigned)
NC(=O)c1cc2ccc(CCNCC3CC3)cc2n1C(=O)OC[C@@H](O)CO (nonaromatic ring conformer: 350.7066220375499 kcal/mol)

>  <smiles>  (20) 
NC(=O)c1cc2ccc(CCNCC3CC3)cc2n1C(=O)OCC(O)CO

>  <score_type>  (20) 
oracle

>  <origin>  (20) 
adg

>  <m_score__min__energy>  (20) 
-7.5300000000000002

>  <m_primary>  (20) 
energy

$$$$
20:0
     RDKit          3D

 35 37  0  0  0  0  0  0  0  0999 V2000
  142.8030  155.3160  134.0820 C   0  0  0  0  0  0  0  0  0  0  0  0
  141.7080  156.2150  133.6060 C   0  0  0  0  0  0  0  0  0  0  0  0
  140.7330  155.7170  132.9810 O   0  0  0  0  0  0  0  0  0  0  0  0
  141.7400  157.6290  133.8660 N   0  0  0  0  0  0  0  0  0  0  0  0
  140.6780  158.4410  134.1250 C   0  0  0  0  0  0  0  0  0  0  0  0
  139.2840  157.9980  134.3350 C   0  0  0  0  0  0  0  0  0  0  0  0
  138.5620  157.3050  133.3150 N   0  0  0  0  0  0  0  0  0  0  0  0
  138.7350  158.1940  135.4520 O   0  0  0  0  0  0  0  0  0  0  0  0
  141.0790  159.7720  134.1870 C   0  0  0  0  0  0  0  0  0  0  0  0
  142.4360  159.7530  133.9600 C   0  0  0  0  0  0  0  0  0  0  0  0
  143.3430  160.8060  133.8830 C   0  0  0  0  0  0  0  0  0  0  0  0
  144.6810  160.5000  133.5820 C   0  0  0  0  0  0  0  0  0  0  0  0
  145.0870  159.1600  133.3560 C   0  0  0  0  0  0  0  0  0  0  0  0
  146.4960  158.8510  133.0140 C   0  0  0  0  0  0  0  0  0  0  0  0
  147.2360  159.7400  132.2130 C   0  0  0  0  0  0  0  0  0  0  0  0
  148.5670  159.4610  131.8880 C   0  0  0  0  0  0  0  0  0  0  0  0
  149.1710  158.2920  132.3560 C   0  0  0  0  0  0  0  0  0  0  0  0
  148.4460  157.3980  133.1460 C   0  0  0  0  0  0  0  0  0  0  0  0
  147.1140  157.6720  133.4760 C   0  0  0  0  0  0  0  0  0  0  0  0
  146.4220  156.7660  134.2150 F   0  0  0  0  0  0  0  0  0  0  0  0
  144.1310  158.1200  133.4340 C   0  0  0  0  0  0  0  0  0  0  0  0
  142.8110  158.4490  133.7620 C   0  0  0  0  0  0  0  0  0  0  0  0
  142.8163  155.3050  135.1819 H   0  0  0  0  0  0  0  0  0  0  0  0
  142.6294  154.2965  133.7072 H   0  0  0  0  0  0  0  0  0  0  0  0
  143.7692  155.6848  133.7072 H   0  0  0  0  0  0  0  0  0  0  0  0
  139.0400  156.9580  132.4540 H   0  0  0  0  0  0  0  0  0  0  0  0
  137.5620  157.0480  133.4650 H   0  0  0  0  0  0  0  0  0  0  0  0
  140.4463  160.6516  134.3769 H   0  0  0  0  0  0  0  0  0  0  0  0
  143.0226  161.8446  134.0524 H   0  0  0  0  0  0  0  0  0  0  0  0
  145.4228  161.3099  133.5209 H   0  0  0  0  0  0  0  0  0  0  0  0
  146.7642  160.6609  131.8398 H   0  0  0  0  0  0  0  0  0  0  0  0
  149.1389  160.1628  131.2632 H   0  0  0  0  0  0  0  0  0  0  0  0
  150.2191  158.0754  132.1019 H   0  0  0  0  0  0  0  0  0  0  0  0
  148.9229  156.4760  133.5099 H   0  0  0  0  0  0  0  0  0  0  0  0
  144.4189  157.0760  133.2411 H   0  0  0  0  0  0  0  0  0  0  0  0
  1  2  1  0
  2  3  2  0
  2  4  1  0
  4  5  1  0
  5  6  1  0
  6  7  1  0
  6  8  2  0
  5  9  2  0
  9 10  1  0
 10 11  2  0
 11 12  1  0
 12 13  2  0
 13 14  1  0
 14 15  2  0
 15 16  1  0
 16 17  2  0
 17 18  1  0
 18 19  2  0
 19 20  1  0
 13 21  1  0
 21 22  2  0
 22  4  1  0
 22 10  1  0
 19 14  1  0
  1 23  1  0
  1 24  1  0
  1 25  1  0
  7 26  1  0
  7 27  1  0
  9 28  1  0
 11 29  1  0
 12 30  1  0
 15 31  1  0
 16 32  1  0
 17 33  1  0
 18 34  1  0
 21 35  1  0
M  END
>  <UniqueID>  (21) 
21

>  <SMILES>  (21) 
CC(=O)n1c(C(N)=O)cc2ccc(-c3ccccc3F)cc21

>  <Energy>  (21) 
83.1098421031146

>  <Genealogy>  (21) 
CC(=O)n1c(C(N)=O)cc2ccc(-c3ccccc3F)cc21 (3D coordinates assigned)
CC(=O)n1c(C(N)=O)cc2ccc(-c3ccccc3F)cc21 (optimized conformer: 83.1098421031146 kcal/mol)

>  <smiles>  (21) 
CC(=O)n1c(C(N)=O)cc2ccc(-c3ccccc3F)cc21

>  <score_type>  (21) 
oracle

>  <origin>  (21) 
adg

>  <m_score__min__energy>  (21) 
-7.6900000000000004

>  <m_primary>  (21) 
energy

$$$$
21:0
     RDKit          3D

 49 50  0  0  0  0  0  0  0  0999 V2000
  140.7780  158.0980  135.1430 C   0  0  0  0  0  0  0  0  0  0  0  0
  141.9870  157.4960  135.8510 C   0  0  0  0  0  0  0  0  0  0  0  0
  142.8430  156.8410  134.9170 O   0  0  0  0  0  0  0  0  0  0  0  0
  143.2520  157.4200  133.7090 C   0  0  0  0  0  0  0  0  0  0  0  0
  142.5410  157.3090  132.6730 O   0  0  0  0  0  0  0  0  0  0  0  0
  144.4800  158.1610  133.6570 N   0  0  0  0  0  0  0  0  0  0  0  0
  144.6400  159.4980  133.4440 C   0  0  0  0  0  0  0  0  0  0  0  0
  143.5590  160.5030  133.3850 C   0  0  0  0  0  0  0  0  0  0  0  0
  142.2380  160.1390  132.9950 N   0  0  0  0  0  0  0  0  0  0  0  0
  143.7950  161.6930  133.7270 O   0  0  0  0  0  0  0  0  0  0  0  0
  145.9940  159.8210  133.3690 C   0  0  0  0  0  0  0  0  0  0  0  0
  146.6630  158.6330  133.5510 C   0  0  0  0  0  0  0  0  0  0  0  0
  148.0300  158.3680  133.5680 C   0  0  0  0  0  0  0  0  0  0  0  0
  148.4410  157.0390  133.7570 C   0  0  0  0  0  0  0  0  0  0  0  0
  147.4860  156.0030  133.9090 C   0  0  0  0  0  0  0  0  0  0  0  0
  147.9320  154.5890  134.1590 C   0  0  0  0  0  0  0  0  0  0  0  0
  148.4620  153.9760  132.8880 C   0  0  0  0  0  0  0  0  0  0  0  0
  149.3490  154.5570  132.2780 O   0  0  0  0  0  0  0  0  0  0  0  0
  147.9340  152.7140  132.3990 N   0  0  2  0  0  0  0  0  0  0  0  0
  146.4770  152.6270  132.6070 C   0  0  0  0  0  0  0  0  0  0  0  0
  148.6650  151.5410  132.9390 C   0  0  0  0  0  0  0  0  0  0  0  0
  149.9180  151.1250  132.1410 C   0  0  0  0  0  0  0  0  0  0  0  0
  149.7370  151.4310  130.7710 O   0  0  0  0  0  0  0  0  0  0  0  0
  150.3380  150.4450  129.9600 C   0  0  0  0  0  0  0  0  0  0  0  0
  146.1070  156.3100  133.8890 C   0  0  0  0  0  0  0  0  0  0  0  0
  145.7270  157.6460  133.7200 C   0  0  0  0  0  0  0  0  0  0  0  0
  140.0563  158.4574  135.8913 H   0  0  0  0  0  0  0  0  0  0  0  0
  141.1031  158.9394  134.5135 H   0  0  0  0  0  0  0  0  0  0  0  0
  140.3025  157.3315  134.5135 H   0  0  0  0  0  0  0  0  0  0  0  0
  142.5474  158.2979  136.3538 H   0  0  0  0  0  0  0  0  0  0  0  0
  141.6350  156.7577  136.5865 H   0  0  0  0  0  0  0  0  0  0  0  0
  142.0740  159.3990  132.2750 H   0  0  0  0  0  0  0  0  0  0  0  0
  146.4340  160.8149  133.2001 H   0  0  0  0  0  0  0  0  0  0  0  0
  148.7655  159.1755  133.4373 H   0  0  0  0  0  0  0  0  0  0  0  0
  149.5142  156.7996  133.7874 H   0  0  0  0  0  0  0  0  0  0  0  0
  148.7254  154.5880  134.9209 H   0  0  0  0  0  0  0  0  0  0  0  0
  147.0724  153.9991  134.5098 H   0  0  0  0  0  0  0  0  0  0  0  0
  148.0780  152.6890  131.3610 H   0  0  0  0  0  0  0  0  0  0  0  0
  146.2607  152.6141  133.6854 H   0  0  0  0  0  0  0  0  0  0  0  0
  145.9881  153.4975  132.1454 H   0  0  0  0  0  0  0  0  0  0  0  0
  146.0952  151.7045  132.1454 H   0  0  0  0  0  0  0  0  0  0  0  0
  148.9788  151.7787  133.9661 H   0  0  0  0  0  0  0  0  0  0  0  0
  147.9681  150.6921  132.8784 H   0  0  0  0  0  0  0  0  0  0  0  0
  150.7930  151.6703  132.5245 H   0  0  0  0  0  0  0  0  0  0  0  0
  150.0776  150.0425  132.2535 H   0  0  0  0  0  0  0  0  0  0  0  0
  150.8044  149.6798  130.5980 H   0  0  0  0  0  0  0  0  0  0  0  0
  149.5721  149.9758  129.3249 H   0  0  0  0  0  0  0  0  0  0  0  0
  151.1060  150.9107  129.3249 H   0  0  0  0  0  0  0  0  0  0  0  0
  145.3513  155.5189  134.0034 H   0  0  0  0  0  0  0  0  0  0  0  0
  1  2  1  0
  2  3  1  0
  3  4  1  0
  4  5  2  0
  4  6  1  0
  6  7  1  0
  7  8  1  0
  8  9  1  0
  8 10  2  0
  7 11  2  0
 11 12  1  0
 12 13  2  0
 13 14  1  0
 14 15  2  0
 15 16  1  0
 16 17  1  0
 17 18  2  0
 17 19  1  0
 19 20  1  0
 19 21  1  0
 21 22  1  0
 22 23  1  0
 23 24  1  0
 15 25  1  0
 25 26  2  0
 26  6  1  0
 26 12  1  0
  1 27  1  0
  1 28  1  0
  1 29  1  0
  2 30  1  0
  2 31  1  0
  9 32  1  0
 11 33  1  0
 13 34  1  0
 14 35  1  0
 16 36  1  0
 16 37  1  0
 19 38  1  6
 20 39  1  0
 20 40  1  0
 20 41  1  0
 21 42  1  0
 21 43  1  0
 22 44  1  0
 22 45  1  0
 24 46  1  0
 24 47  1  0
 24 48  1  0
 25 49  1  0
M  CHG  2   9  -1  19   1
M  END
>  <UniqueID>  (22) 
22

>  <SMILES>  (22) 
CCOC(=O)n1c(C([NH-])=O)cc2ccc(CC(=O)[N@H+](C)CCOC)cc21

>  <Energy>  (22) 
86.19535560984194

>  <Genealogy>  (22) 
CCOC(=O)n1c(C([NH-])=O)cc2ccc(CC(=O)[NH+](C)CCOC)cc21 (protonated)
CCOC(=O)n1c(C([NH-])=O)cc2ccc(CC(=O)[N@H+](C)CCOC)cc21 (chirality)
CCOC(=O)n1c(C([NH-])=O)cc2ccc(CC(=O)[N@H+](C)CCOC)cc21 (3D coordinates assigned)
CCOC(=O)n1c(C([NH-])=O)cc2ccc(CC(=O)[N@H+](C)CCOC)cc21 (optimized conformer: 86.19535560984194 kcal/mol)

>  <smiles>  (22) 
CCOC(=O)n1c(C(N)=O)cc2ccc(CC(=O)N(C)CCOC)cc21

>  <score_type>  (22) 
oracle

>  <origin>  (22) 
adg

>  <m_score__min__energy>  (22) 
-5.9000000000000004

>  <m_primary>  (22) 
energy

$$$$
22:0
     RDKit          3D

 31 33  0  0  0  0  0  0  0  0999 V2000
  141.1980  160.8760  133.3960 N   0  0  0  0  0  0  0  0  0  0  0  0
  141.8880  160.0960  134.3700 C   0  0  0  0  0  0  0  0  0  0  0  0
  141.2870  159.7540  135.4230 O   0  0  0  0  0  0  0  0  0  0  0  0
  143.2720  159.6360  134.1350 C   0  0  0  0  0  0  0  0  0  0  0  0
  143.6240  158.2920  134.0320 C   0  0  0  0  0  0  0  0  0  0  0  0
  144.9640  158.2890  133.7210 C   0  0  0  0  0  0  0  0  0  0  0  0
  145.8290  157.2200  133.5070 C   0  0  0  0  0  0  0  0  0  0  0  0
  147.1750  157.5100  133.2210 C   0  0  0  0  0  0  0  0  0  0  0  0
  147.6290  158.8510  133.1760 C   0  0  0  0  0  0  0  0  0  0  0  0
  149.0650  159.1480  132.8420 C   0  0  0  0  0  0  0  0  0  0  0  0
  149.1370  159.9970  131.6140 C   0  0  0  0  0  0  0  0  0  0  0  0
  149.7710  159.6660  130.4270 C   0  0  0  0  0  0  0  0  0  0  0  0
  149.5730  160.7870  129.6540 C   0  0  0  0  0  0  0  0  0  0  0  0
  149.9820  160.9460  128.4730 O   0  0  0  0  0  0  0  0  0  0  0  0
  148.8770  161.7070  130.3400 N   0  0  0  0  0  0  0  0  0  0  0  0
  148.6310  161.2070  131.5150 O   0  0  0  0  0  0  0  0  0  0  0  0
  146.7200  159.9100  133.3880 C   0  0  0  0  0  0  0  0  0  0  0  0
  145.3810  159.5930  133.6510 C   0  0  0  0  0  0  0  0  0  0  0  0
  144.3530  160.4340  133.9050 N   0  0  0  0  0  0  0  0  0  0  0  0
  144.4270  161.8660  134.0070 C   0  0  0  0  0  0  0  0  0  0  0  0
  143.6060  162.5910  133.3870 O   0  0  0  0  0  0  0  0  0  0  0  0
  145.4230  162.4630  134.7700 O   0  0  0  0  0  0  0  0  0  0  0  0
  141.6280  161.7410  132.9990 H   0  0  0  0  0  0  0  0  0  0  0  0
  142.9695  157.4188  134.1700 H   0  0  0  0  0  0  0  0  0  0  0  0
  145.4712  156.1812  133.5599 H   0  0  0  0  0  0  0  0  0  0  0  0
  147.8813  156.6885  133.0306 H   0  0  0  0  0  0  0  0  0  0  0  0
  149.5319  159.6822  133.6826 H   0  0  0  0  0  0  0  0  0  0  0  0
  149.5973  158.2027  132.6602 H   0  0  0  0  0  0  0  0  0  0  0  0
  150.3009  158.7377  130.1673 H   0  0  0  0  0  0  0  0  0  0  0  0
  148.5820  162.6520  130.0120 H   0  0  0  0  0  0  0  0  0  0  0  0
  147.0544  160.9572  133.3477 H   0  0  0  0  0  0  0  0  0  0  0  0
  1  2  1  0
  2  3  2  0
  2  4  1  0
  4  5  2  0
  5  6  1  0
  6  7  2  0
  7  8  1  0
  8  9  2  0
  9 10  1  0
 10 11  1  0
 11 12  2  0
 12 13  1  0
 13 14  2  0
 13 15  1  0
 15 16  1  0
  9 17  1  0
 17 18  2  0
 18 19  1  0
 19 20  1  0
 20 21  2  0
 20 22  1  0
 19  4  1  0
 18  6  1  0
 16 11  1  0
  1 23  1  0
  5 24  1  0
  7 25  1  0
  8 26  1  0
 10 27  1  0
 10 28  1  0
 12 29  1  0
 15 30  1  0
 17 31  1  0
M  CHG  2   1  -1  22  -1
M  END
>  <UniqueID>  (23) 
23

>  <SMILES>  (23) 
[NH-]C(=O)c1cc2ccc(Cc3cc(=O)[nH]o3)cc2n1C(=O)[O-]

>  <Energy>  (23) 
103.95002078603795

>  <Genealogy>  (23) 
[NH-]C(=O)c1cc2ccc(Cc3cc(=O)[nH]o3)cc2n1C(=O)[O-] (protonated)
[NH-]C(=O)c1cc2ccc(Cc3cc(=O)[nH]o3)cc2n1C(=O)[O-] (3D coordinates assigned)
[NH-]C(=O)c1cc2ccc(Cc3cc(=O)[nH]o3)cc2n1C(=O)[O-] (optimized conformer: 103.95002078603795 kcal/mol)

>  <smiles>  (23) 
NC(=O)c1cc2ccc(Cc3cc(=O)[nH]o3)cc2n1C(=O)O

>  <score_type>  (23) 
oracle

>  <origin>  (23) 
adg

>  <m_score__min__energy>  (23) 
-7.54

>  <m_primary>  (23) 
energy

$$$$
23:0
     RDKit          3D

 35 37  0  0  0  0  0  0  0  0999 V2000
  150.3200  150.4170  130.9250 C   0  0  0  0  0  0  0  0  0  0  0  0
  149.0840  150.1400  132.2330 S   0  0  0  0  0  0  0  0  0  0  0  0
  148.7060  151.8840  132.4120 C   0  0  0  0  0  0  0  0  0  0  0  0
  149.7350  152.8310  132.3770 C   0  0  0  0  0  0  0  0  0  0  0  0
  149.4430  154.1910  132.5190 C   0  0  0  0  0  0  0  0  0  0  0  0
  148.1150  154.6200  132.7020 C   0  0  0  0  0  0  0  0  0  0  0  0
  147.8040  156.0640  132.8540 C   0  0  0  0  0  0  0  0  0  0  0  0
  148.8340  157.0350  132.7620 C   0  0  0  0  0  0  0  0  0  0  0  0
  148.5520  158.4020  132.9150 C   0  0  0  0  0  0  0  0  0  0  0  0
  147.2320  158.7730  133.1510 C   0  0  0  0  0  0  0  0  0  0  0  0
  146.6900  160.0190  133.3640 C   0  0  0  0  0  0  0  0  0  0  0  0
  145.3280  159.8000  133.5580 C   0  0  0  0  0  0  0  0  0  0  0  0
  144.3490  160.8920  133.7380 C   0  0  0  0  0  0  0  0  0  0  0  0
  142.9840  160.7250  133.3620 N   0  0  0  0  0  0  0  0  0  0  0  0
  144.7320  162.0070  134.1840 O   0  0  0  0  0  0  0  0  0  0  0  0
  145.0410  158.4690  133.4780 N   0  0  0  0  0  0  0  0  0  0  0  0
  143.7770  157.8240  133.7020 C   0  0  0  0  0  0  0  0  0  0  0  0
  142.8610  157.9020  132.8410 O   0  0  0  0  0  0  0  0  0  0  0  0
  143.5440  157.1290  134.8820 O   0  0  0  0  0  0  0  0  0  0  0  0
  146.2180  157.8550  133.2240 C   0  0  0  0  0  0  0  0  0  0  0  0
  146.4730  156.4850  133.0950 C   0  0  0  0  0  0  0  0  0  0  0  0
  147.0890  153.6580  132.7410 C   0  0  0  0  0  0  0  0  0  0  0  0
  147.3840  152.2990  132.5980 C   0  0  0  0  0  0  0  0  0  0  0  0
  151.2959  150.6357  131.3831 H   0  0  0  0  0  0  0  0  0  0  0  0
  150.4018  149.5149  130.3009 H   0  0  0  0  0  0  0  0  0  0  0  0
  150.0090  151.2677  130.3009 H   0  0  0  0  0  0  0  0  0  0  0  0
  150.7763  152.5050  132.2374 H   0  0  0  0  0  0  0  0  0  0  0  0
  150.2566  154.9306  132.4875 H   0  0  0  0  0  0  0  0  0  0  0  0
  149.8677  156.7127  132.5681 H   0  0  0  0  0  0  0  0  0  0  0  0
  149.3500  159.1563  132.8503 H   0  0  0  0  0  0  0  0  0  0  0  0
  147.2193  160.9832  133.3782 H   0  0  0  0  0  0  0  0  0  0  0  0
  142.7140  160.0600  132.6040 H   0  0  0  0  0  0  0  0  0  0  0  0
  145.6578  155.7512  133.1789 H   0  0  0  0  0  0  0  0  0  0  0  0
  146.0464  153.9778  132.8851 H   0  0  0  0  0  0  0  0  0  0  0  0
  146.5746  151.5549  132.6319 H   0  0  0  0  0  0  0  0  0  0  0  0
  1  2  1  0
  2  3  1  0
  3  4  2  0
  4  5  1  0
  5  6  2  0
  6  7  1  0
  7  8  2  0
  8  9  1  0
  9 10  2  0
 10 11  1  0
 11 12  2  0
 12 13  1  0
 13 14  1  0
 13 15  2  0
 12 16  1  0
 16 17  1  0
 17 18  2  0
 17 19  1  0
 16 20  1  0
 20 21  2  0
  6 22  1  0
 22 23  2  0
 23  3  1  0
 21  7  1  0
 20 10  1  0
  1 24  1  0
  1 25  1  0
  1 26  1  0
  4 27  1  0
  5 28  1  0
  8 29  1  0
  9 30  1  0
 11 31  1  0
 14 32  1  0
 21 33  1  0
 22 34  1  0
 23 35  1  0
M  CHG  2  14  -1  19  -1
M  END
>  <UniqueID>  (24) 
24

>  <SMILES>  (24) 
CSc1ccc(-c2ccc3cc(C([NH-])=O)n(C(=O)[O-])c3c2)cc1

>  <Energy>  (24) 
78.65674323941214

>  <Genealogy>  (24) 
CSc1ccc(-c2ccc3cc(C([NH-])=O)n(C(=O)[O-])c3c2)cc1 (protonated)
CSc1ccc(-c2ccc3cc(C([NH-])=O)n(C(=O)[O-])c3c2)cc1 (3D coordinates assigned)
CSc1ccc(-c2ccc3cc(C([NH-])=O)n(C(=O)[O-])c3c2)cc1 (optimized conformer: 78.65674323941214 kcal/mol)

>  <smiles>  (24) 
CSc1ccc(-c2ccc3cc(C(N)=O)n(C(=O)O)c3c2)cc1

>  <score_type>  (24) 
oracle

>  <origin>  (24) 
adg

>  <m_score__min__energy>  (24) 
-7.8300000000000001

>  <m_primary>  (24) 
energy

$$$$
24:0
     RDKit          3D

 31 32  0  0  0  0  0  0  0  0999 V2000
  145.5340  162.7350  134.4880 C   0  0  0  0  0  0  0  0  0  0  0  0
  144.7040  161.5700  133.9720 C   0  0  0  0  0  0  0  0  0  0  0  0
  145.3990  160.3500  134.2070 O   0  0  0  0  0  0  0  0  0  0  0  0
  145.4360  159.3100  133.2750 C   0  0  0  0  0  0  0  0  0  0  0  0
  144.4020  159.0080  132.6190 O   0  0  0  0  0  0  0  0  0  0  0  0
  146.6530  158.5720  133.0770 N   0  0  0  0  0  0  0  0  0  0  0  0
  146.9770  157.3450  133.5770 C   0  0  0  0  0  0  0  0  0  0  0  0
  146.0610  156.4510  134.3210 C   0  0  0  0  0  0  0  0  0  0  0  0
  144.6680  156.4090  134.0070 N   0  0  0  0  0  0  0  0  0  0  0  0
  146.4990  155.7380  135.2620 O   0  0  0  0  0  0  0  0  0  0  0  0
  148.2750  156.9940  133.2110 C   0  0  0  0  0  0  0  0  0  0  0  0
  148.7410  158.0500  132.4620 C   0  0  0  0  0  0  0  0  0  0  0  0
  149.9780  158.2370  131.8500 C   0  0  0  0  0  0  0  0  0  0  0  0
  150.1950  159.4400  131.1580 C   0  0  0  0  0  0  0  0  0  0  0  0
  149.1830  160.4290  131.0980 C   0  0  0  0  0  0  0  0  0  0  0  0
  149.4220  161.6540  130.4020 N   0  0  0  0  0  0  0  0  0  0  0  0
  147.9410  160.2050  131.7290 C   0  0  0  0  0  0  0  0  0  0  0  0
  147.7440  158.9900  132.3950 C   0  0  0  0  0  0  0  0  0  0  0  0
  145.5299  162.7293  135.5880 H   0  0  0  0  0  0  0  0  0  0  0  0
  146.5677  162.6381  134.1247 H   0  0  0  0  0  0  0  0  0  0  0  0
  145.1047  163.6804  134.1247 H   0  0  0  0  0  0  0  0  0  0  0  0
  143.7374  161.5480  134.4965 H   0  0  0  0  0  0  0  0  0  0  0  0
  144.5331  161.6920  132.8922 H   0  0  0  0  0  0  0  0  0  0  0  0
  144.2770  156.9420  133.2000 H   0  0  0  0  0  0  0  0  0  0  0  0
  144.0240  155.8030  134.5640 H   0  0  0  0  0  0  0  0  0  0  0  0
  148.8128  156.0691  133.4666 H   0  0  0  0  0  0  0  0  0  0  0  0
  150.7609  157.4664  131.9068 H   0  0  0  0  0  0  0  0  0  0  0  0
  151.1592  159.6154  130.6584 H   0  0  0  0  0  0  0  0  0  0  0  0
  148.6560  162.1260  129.8730 H   0  0  0  0  0  0  0  0  0  0  0  0
  150.3680  162.0980  130.4100 H   0  0  0  0  0  0  0  0  0  0  0  0
  147.1475  160.9662  131.6982 H   0  0  0  0  0  0  0  0  0  0  0  0
  1  2  1  0
  2  3  1  0
  3  4  1  0
  4  5  2  0
  4  6  1  0
  6  7  1  0
  7  8  1  0
  8  9  1  0
  8 10  2  0
  7 11  2  0
 11 12  1  0
 12 13  2  0
 13 14  1  0
 14 15  2  0
 15 16  1  0
 15 17  1  0
 17 18  2  0
 18  6  1  0
 18 12  1  0
  1 19  1  0
  1 20  1  0
  1 21  1  0
  2 22  1  0
  2 23  1  0
  9 24  1  0
  9 25  1  0
 11 26  1  0
 13 27  1  0
 14 28  1  0
 16 29  1  0
 16 30  1  0
 17 31  1  0
M  END
>  <UniqueID>  (25) 
25

>  <SMILES>  (25) 
CCOC(=O)n1c(C(N)=O)cc2ccc(N)cc21

>  <Energy>  (25) 
63.94074136067703

>  <Genealogy>  (25) 
CCOC(=O)n1c(C(N)=O)cc2ccc(N)cc21 (3D coordinates assigned)
CCOC(=O)n1c(C(N)=O)cc2ccc(N)cc21 (optimized conformer: 63.94074136067703 kcal/mol)

>  <smiles>  (25) 
CCOC(=O)n1c(C(N)=O)cc2ccc(N)cc21

>  <score_type>  (25) 
oracle

>  <origin>  (25) 
adg

>  <m_score__min__energy>  (25) 
-5.9699999999999998

>  <m_primary>  (25) 
energy

$$$$
25:0
     RDKit          3D

 33 34  0  0  0  0  0  0  0  0999 V2000
  147.0940  152.6480  133.6730 H   0  0  0  0  0  0  0  0  0  0  0  0
  148.0870  152.5120  133.3820 N   0  0  0  0  0  0  0  0  0  0  0  0
  148.8470  153.5910  132.8420 C   0  0  0  0  0  0  0  0  0  0  0  0
  149.9830  153.3580  132.3510 O   0  0  0  0  0  0  0  0  0  0  0  0
  148.3410  154.9790  132.8930 C   0  0  0  0  0  0  0  0  0  0  0  0
  149.1260  156.0940  132.6040 C   0  0  0  0  0  0  0  0  0  0  0  0
  150.1717  156.1027  132.2629 H   0  0  0  0  0  0  0  0  0  0  0  0
  148.3150  157.1820  132.8360 C   0  0  0  0  0  0  0  0  0  0  0  0
  148.5750  158.5410  132.6920 C   0  0  0  0  0  0  0  0  0  0  0  0
  149.5638  158.8977  132.3680 H   0  0  0  0  0  0  0  0  0  0  0  0
  147.5360  159.4440  132.9730 C   0  0  0  0  0  0  0  0  0  0  0  0
  147.7101  160.5250  132.8670 H   0  0  0  0  0  0  0  0  0  0  0  0
  146.2650  158.9750  133.3920 C   0  0  0  0  0  0  0  0  0  0  0  0
  145.1480  159.9480  133.6460 C   0  0  0  0  0  0  0  0  0  0  0  0
  145.2707  160.3902  134.6457 H   0  0  0  0  0  0  0  0  0  0  0  0
  145.1776  160.7383  132.8814 H   0  0  0  0  0  0  0  0  0  0  0  0
  143.8300  159.2460  133.5740 C   0  0  0  0  0  0  0  0  0  0  0  0
  142.9170  159.5260  134.3940 O   0  0  0  0  0  0  0  0  0  0  0  0
  143.6250  158.2460  132.6310 O   0  0  0  0  0  0  0  0  0  0  0  0
  146.0350  157.5880  133.5140 C   0  0  0  0  0  0  0  0  0  0  0  0
  145.0484  157.2044  133.8132 H   0  0  0  0  0  0  0  0  0  0  0  0
  147.0930  156.7130  133.2450 C   0  0  0  0  0  0  0  0  0  0  0  0
  147.0930  155.3630  133.2850 N   0  0  0  0  0  0  0  0  0  0  0  0
  145.9690  154.5220  133.5930 C   0  0  0  0  0  0  0  0  0  0  0  0
  145.8230  154.0880  134.7670 O   0  0  0  0  0  0  0  0  0  0  0  0
  144.9560  154.2230  132.5560 C   0  0  0  0  0  0  0  0  0  0  0  0
  144.2900  155.3200  131.9200 N   0  0  0  0  0  0  0  0  0  0  0  0
  144.5010  156.3050  132.1940 H   0  0  0  0  0  0  0  0  0  0  0  0
  143.5780  155.1570  131.1740 H   0  0  0  0  0  0  0  0  0  0  0  0
  144.6350  153.0010  132.2220 N   0  0  0  0  0  0  0  0  0  0  0  0
  143.8550  152.8470  131.5440 H   0  0  0  0  0  0  0  0  0  0  0  0
  145.3130  151.8780  132.6560 O   0  0  0  0  0  0  0  0  0  0  0  0
  146.0150  151.9050  133.3850 H   0  0  0  0  0  0  0  0  0  0  0  0
  1  2  1  0
  2  3  1  0
  3  4  2  0
  3  5  1  0
  5  6  2  0
  6  7  1  0
  6  8  1  0
  8  9  2  0
  9 10  1  0
  9 11  1  0
 11 12  1  0
 11 13  2  0
 13 14  1  0
 14 15  1  0
 14 16  1  0
 14 17  1  0
 17 18  2  0
 17 19  1  0
 13 20  1  0
 20 21  1  0
 20 22  2  0
 22 23  1  0
 23 24  1  0
 24 25  2  0
 24 26  1  0
 26 27  1  0
 27 28  1  0
 27 29  1  0
 26 30  2  0
 30 31  1  0
 30 32  1  0
 32 33  1  0
 23  5  1  0
 22  8  1  0
M  CHG  3   2  -1  19  -1  30   1
M  END
>  <UniqueID>  (26) 
26

>  <SMILES>  (26) 
[NH-]C(=O)c1cc2ccc(CC(=O)[O-])cc2n1C(=O)/C(N)=[NH+]\O

>  <Energy>  (26) 
75.23841777488535

>  <Genealogy>  (26) 
[NH-]C(=O)c1cc2ccc(CC(=O)[O-])cc2n1C(=O)C(N)=[NH+]O (protonated)
[NH-]C(=O)c1cc2ccc(CC(=O)[O-])cc2n1C(=O)/C(N)=[NH+]\O (cis-trans isomerization)
[NH-]C(=O)c1cc2ccc(CC(=O)[O-])cc2n1C(=O)/C(N)=[NH+]\O (3D coordinates assigned)
[NH-]C(=O)c1cc2ccc(CC(=O)[O-])cc2n1C(=O)/C(N)=[NH+]\O (optimized conformer: 75.23841777488535 kcal/mol)

>  <smiles>  (26) 
NC(=O)c1cc2ccc(CC(=O)O)cc2n1C(=O)C(N)=NO

>  <score_type>  (26) 
oracle

>  <origin>  (26) 
adg

>  <m_score__min__energy>  (26) 
-6.4699999999999998

>  <m_primary>  (26) 
energy

$$$$
26:0
     RDKit          3D

 34 37  0  0  0  0  0  0  0  0999 V2000
  146.8960  155.7870  134.2010 C   0  0  0  0  0  0  0  0  0  0  0  0
  146.9130  156.6240  132.9610 C   0  0  0  0  0  0  0  0  0  0  0  0
  146.9790  156.0580  131.8370 O   0  0  0  0  0  0  0  0  0  0  0  0
  146.7720  158.0510  133.0350 N   0  0  0  0  0  0  0  0  0  0  0  0
  147.7340  159.0030  132.8780 C   0  0  0  0  0  0  0  0  0  0  0  0
  149.1260  158.7640  132.4410 C   0  0  0  0  0  0  0  0  0  0  0  0
  149.6110  157.4420  132.2300 N   0  0  0  0  0  0  0  0  0  0  0  0
  149.8850  159.7440  132.2120 O   0  0  0  0  0  0  0  0  0  0  0  0
  147.2060  160.2710  133.1110 C   0  0  0  0  0  0  0  0  0  0  0  0
  145.8770  160.0660  133.4060 C   0  0  0  0  0  0  0  0  0  0  0  0
  144.8800  160.9760  133.7340 C   0  0  0  0  0  0  0  0  0  0  0  0
  143.5970  160.4750  134.0170 C   0  0  0  0  0  0  0  0  0  0  0  0
  143.3320  159.0820  133.9630 C   0  0  0  0  0  0  0  0  0  0  0  0
  141.9730  158.5850  134.2850 C   0  0  0  0  0  0  0  0  0  0  0  0
  141.1910  158.0470  133.2980 N   0  0  0  0  0  0  0  0  0  0  0  0
  139.9320  157.5680  133.5540 C   0  0  0  0  0  0  0  0  0  0  0  0
  139.4200  157.6060  134.8200 N   0  0  0  0  0  0  0  0  0  0  0  0
  140.1890  158.1300  135.8030 C   0  0  0  0  0  0  0  0  0  0  0  0
  139.8740  158.2140  137.1010 N   0  0  0  0  0  0  0  0  0  0  0  0
  140.9980  158.7660  137.6300 C   0  0  0  0  0  0  0  0  0  0  0  0
  141.9820  159.0200  136.7270 N   0  0  0  0  0  0  0  0  0  0  0  0
  141.4320  158.6120  135.5730 C   0  0  0  0  0  0  0  0  0  0  0  0
  144.3800  158.1880  133.6390 C   0  0  0  0  0  0  0  0  0  0  0  0
  145.6410  158.7180  133.3500 C   0  0  0  0  0  0  0  0  0  0  0  0
  146.9093  156.4412  135.0852 H   0  0  0  0  0  0  0  0  0  0  0  0
  145.9851  155.1704  134.2147 H   0  0  0  0  0  0  0  0  0  0  0  0
  147.7811  155.1340  134.2147 H   0  0  0  0  0  0  0  0  0  0  0  0
  149.0320  156.7290  131.7330 H   0  0  0  0  0  0  0  0  0  0  0  0
  147.7384  161.2326  133.0683 H   0  0  0  0  0  0  0  0  0  0  0  0
  145.0879  162.0555  133.7712 H   0  0  0  0  0  0  0  0  0  0  0  0
  142.7886  161.1717  134.2836 H   0  0  0  0  0  0  0  0  0  0  0  0
  139.3298  157.1500  132.7339 H   0  0  0  0  0  0  0  0  0  0  0  0
  141.1029  158.9891  138.7020 H   0  0  0  0  0  0  0  0  0  0  0  0
  144.2066  157.1020  133.6151 H   0  0  0  0  0  0  0  0  0  0  0  0
  1  2  1  0
  2  3  2  0
  2  4  1  0
  4  5  1  0
  5  6  1  0
  6  7  1  0
  6  8  2  0
  5  9  2  0
  9 10  1  0
 10 11  2  0
 11 12  1  0
 12 13  2  0
 13 14  1  0
 14 15  2  0
 15 16  1  0
 16 17  2  0
 17 18  1  0
 18 19  1  0
 19 20  2  0
 20 21  1  0
 21 22  1  0
 13 23  1  0
 23 24  2  0
 24  4  1  0
 24 10  1  0
 22 14  1  0
 22 18  2  0
  1 25  1  0
  1 26  1  0
  1 27  1  0
  7 28  1  0
  9 29  1  0
 11 30  1  0
 12 31  1  0
 16 32  1  0
 20 33  1  0
 23 34  1  0
M  CHG  2   7  -1  21  -1
M  END
>  <UniqueID>  (27) 
27

>  <SMILES>  (27) 
CC(=O)n1c(C([NH-])=O)cc2ccc(-c3ncnc4nc[n-]c34)cc21

>  <Energy>  (27) 
120.62345328087052

>  <Genealogy>  (27) 
CC(=O)n1c(C([NH-])=O)cc2ccc(-c3ncnc4nc[n-]c34)cc21 (protonated)
CC(=O)n1c(C([NH-])=O)cc2ccc(-c3ncnc4nc[n-]c34)cc21 (3D coordinates assigned)
CC(=O)n1c(C([NH-])=O)cc2ccc(-c3ncnc4nc[n-]c34)cc21 (optimized conformer: 120.62345328087052 kcal/mol)

>  <smiles>  (27) 
CC(=O)n1c(C(N)=O)cc2ccc(-c3ncnc4nc[nH]c34)cc21

>  <score_type>  (27) 
oracle

>  <origin>  (27) 
adg

>  <m_score__min__energy>  (27) 
-7.7999999999999998

>  <m_primary>  (27) 
energy

$$$$
27:0
     RDKit          3D

 46 48  0  0  0  0  0  0  0  0999 V2000
  138.2320  149.2530  129.8400 C   0  0  0  0  0  0  0  0  0  0  0  0
  139.5970  148.8390  130.4020 C   0  0  0  0  0  0  0  0  0  0  0  0
  139.7810  147.3230  130.3180 C   0  0  0  0  0  0  0  0  0  0  0  0
  139.7040  149.2410  131.7660 O   0  0  0  0  0  0  0  0  0  0  0  0
  139.6030  150.5710  132.1950 C   0  0  0  0  0  0  0  0  0  0  0  0
  138.4700  151.1340  132.2290 O   0  0  0  0  0  0  0  0  0  0  0  0
  140.7870  151.3110  132.5710 N   0  0  0  0  0  0  0  0  0  0  0  0
  142.0380  150.8030  132.7770 C   0  0  0  0  0  0  0  0  0  0  0  0
  142.4670  149.4220  132.4960 C   0  0  0  0  0  0  0  0  0  0  0  0
  141.6800  148.3080  132.9280 N   0  0  0  0  0  0  0  0  0  0  0  0
  143.5370  149.2200  131.8620 O   0  0  0  0  0  0  0  0  0  0  0  0
  142.8970  151.7710  133.2810 C   0  0  0  0  0  0  0  0  0  0  0  0
  142.1420  152.9150  133.3610 C   0  0  0  0  0  0  0  0  0  0  0  0
  142.5030  154.1830  133.8020 C   0  0  0  0  0  0  0  0  0  0  0  0
  141.5250  155.1880  133.7960 C   0  0  0  0  0  0  0  0  0  0  0  0
  140.2050  154.9130  133.3490 C   0  0  0  0  0  0  0  0  0  0  0  0
  139.1850  155.9330  133.3210 N   0  0  0  0  0  0  0  0  0  0  0  0
  139.4430  157.3650  133.1550 C   0  0  0  0  0  0  0  0  0  0  0  0
  140.0480  157.9510  134.4070 C   0  0  0  0  0  0  0  0  0  0  0  0
  139.5780  157.5620  135.6720 C   0  0  0  0  0  0  0  0  0  0  0  0
  140.1690  158.0950  136.8210 C   0  0  0  0  0  0  0  0  0  0  0  0
  141.1970  158.9790  136.7120 N   0  0  0  0  0  0  0  0  0  0  0  0
  141.6780  159.3680  135.5000 C   0  0  0  0  0  0  0  0  0  0  0  0
  141.1170  158.8580  134.3270 C   0  0  0  0  0  0  0  0  0  0  0  0
  139.8760  153.6080  132.9230 C   0  0  0  0  0  0  0  0  0  0  0  0
  140.8730  152.6190  132.9280 C   0  0  0  0  0  0  0  0  0  0  0  0
  137.5417  149.4624  130.6705 H   0  0  0  0  0  0  0  0  0  0  0  0
  138.3481  150.1563  129.2231 H   0  0  0  0  0  0  0  0  0  0  0  0
  137.8268  148.4374  129.2231 H   0  0  0  0  0  0  0  0  0  0  0  0
  140.3764  149.3316  129.8020 H   0  0  0  0  0  0  0  0  0  0  0  0
  139.8320  146.9030  131.3334 H   0  0  0  0  0  0  0  0  0  0  0  0
  138.9301  146.8796  129.7801 H   0  0  0  0  0  0  0  0  0  0  0  0
  140.7133  147.0960  129.7801 H   0  0  0  0  0  0  0  0  0  0  0  0
  140.7380  148.4510  133.3600 H   0  0  0  0  0  0  0  0  0  0  0  0
  142.0120  147.3310  132.7540 H   0  0  0  0  0  0  0  0  0  0  0  0
  143.9547  151.6477  133.5568 H   0  0  0  0  0  0  0  0  0  0  0  0
  143.5267  154.3921  134.1459 H   0  0  0  0  0  0  0  0  0  0  0  0
  141.7828  156.2001  134.1412 H   0  0  0  0  0  0  0  0  0  0  0  0
  138.1860  155.6390  133.4240 H   0  0  0  0  0  0  0  0  0  0  0  0
  140.1393  157.5108  132.3160 H   0  0  0  0  0  0  0  0  0  0  0  0
  138.4884  157.8735  132.9543 H   0  0  0  0  0  0  0  0  0  0  0  0
  138.7503  156.8426  135.7579 H   0  0  0  0  0  0  0  0  0  0  0  0
  139.8022  157.7991  137.8149 H   0  0  0  0  0  0  0  0  0  0  0  0
  142.5100  160.0853  135.4440 H   0  0  0  0  0  0  0  0  0  0  0  0
  141.5102  159.1649  133.3466 H   0  0  0  0  0  0  0  0  0  0  0  0
  138.8544  153.3694  132.5922 H   0  0  0  0  0  0  0  0  0  0  0  0
  1  2  1  0
  2  3  1  0
  2  4  1  0
  4  5  1  0
  5  6  2  0
  5  7  1  0
  7  8  1  0
  8  9  1  0
  9 10  1  0
  9 11  2  0
  8 12  2  0
 12 13  1  0
 13 14  2  0
 14 15  1  0
 15 16  2  0
 16 17  1  0
 17 18  1  0
 18 19  1  0
 19 20  2  0
 20 21  1  0
 21 22  2  0
 22 23  1  0
 23 24  2  0
 16 25  1  0
 25 26  2  0
 26  7  1  0
 26 13  1  0
 24 19  1  0
  1 27  1  0
  1 28  1  0
  1 29  1  0
  2 30  1  0
  3 31  1  0
  3 32  1  0
  3 33  1  0
 10 34  1  0
 10 35  1  0
 12 36  1  0
 14 37  1  0
 15 38  1  0
 17 39  1  0
 18 40  1  0
 18 41  1  0
 20 42  1  0
 21 43  1  0
 23 44  1  0
 24 45  1  0
 25 46  1  0
M  END
>  <UniqueID>  (28) 
28

>  <SMILES>  (28) 
CC(C)OC(=O)n1c(C(N)=O)cc2ccc(NCc3ccncc3)cc21

>  <Energy>  (28) 
83.27750004372083

>  <Genealogy>  (28) 
CC(C)OC(=O)n1c(C(N)=O)cc2ccc(NCc3ccncc3)cc21 (3D coordinates assigned)
CC(C)OC(=O)n1c(C(N)=O)cc2ccc(NCc3ccncc3)cc21 (optimized conformer: 83.27750004372083 kcal/mol)

>  <smiles>  (28) 
CC(C)OC(=O)n1c(C(N)=O)cc2ccc(NCc3ccncc3)cc21

>  <score_type>  (28) 
oracle

>  <origin>  (28) 
adg

>  <m_score__min__energy>  (28) 
-8.7200000000000006

>  <m_primary>  (28) 
energy

$$$$
28:0
     RDKit          3D

 32 33  0  0  0  0  0  0  0  0999 V2000
  139.1990  157.7910  132.4480 C   0  0  0  0  0  0  0  0  0  0  0  0
  139.6540  156.8650  133.5690 C   0  0  0  0  0  0  0  0  0  0  0  0
  140.5640  155.8850  133.0760 O   0  0  0  0  0  0  0  0  0  0  0  0
  140.2870  154.5120  133.0610 C   0  0  0  0  0  0  0  0  0  0  0  0
  139.0960  154.1050  132.9770 O   0  0  0  0  0  0  0  0  0  0  0  0
  141.3690  153.5670  133.1290 N   0  0  0  0  0  0  0  0  0  0  0  0
  142.6830  153.8360  133.3670 C   0  0  0  0  0  0  0  0  0  0  0  0
  143.2360  155.1390  133.7810 C   0  0  0  0  0  0  0  0  0  0  0  0
  143.0810  156.3010  132.9650 N   0  0  0  0  0  0  0  0  0  0  0  0
  143.8060  155.2430  134.9000 O   0  0  0  0  0  0  0  0  0  0  0  0
  143.4560  152.6870  133.2200 C   0  0  0  0  0  0  0  0  0  0  0  0
  142.5650  151.6900  132.8950 C   0  0  0  0  0  0  0  0  0  0  0  0
  142.7910  150.3430  132.6280 C   0  0  0  0  0  0  0  0  0  0  0  0
  141.6870  149.5460  132.2850 C   0  0  0  0  0  0  0  0  0  0  0  0
  140.3910  150.1090  132.1950 C   0  0  0  0  0  0  0  0  0  0  0  0
  139.2160  149.2420  131.8480 C   0  0  0  0  0  0  0  0  0  0  0  0
  139.1550  148.9590  129.9330 Br  0  0  0  0  0  0  0  0  0  0  0  0
  140.1970  151.4780  132.4830 C   0  0  0  0  0  0  0  0  0  0  0  0
  141.3120  152.2460  132.8440 C   0  0  0  0  0  0  0  0  0  0  0  0
  138.7530  158.6987  132.8805 H   0  0  0  0  0  0  0  0  0  0  0  0
  140.0639  158.0675  131.8270 H   0  0  0  0  0  0  0  0  0  0  0  0
  138.4517  157.2753  131.8270 H   0  0  0  0  0  0  0  0  0  0  0  0
  140.1519  157.4599  134.3489 H   0  0  0  0  0  0  0  0  0  0  0  0
  138.7732  156.3525  133.9833 H   0  0  0  0  0  0  0  0  0  0  0  0
  143.5150  157.2050  133.2530 H   0  0  0  0  0  0  0  0  0  0  0  0
  142.4720  156.2860  132.1180 H   0  0  0  0  0  0  0  0  0  0  0  0
  144.5458  152.5959  133.3384 H   0  0  0  0  0  0  0  0  0  0  0  0
  143.8032  149.9159  132.6839 H   0  0  0  0  0  0  0  0  0  0  0  0
  141.8304  148.4740  132.0843 H   0  0  0  0  0  0  0  0  0  0  0  0
  139.3142  148.2722  132.3578 H   0  0  0  0  0  0  0  0  0  0  0  0
  138.2893  149.7382  132.1722 H   0  0  0  0  0  0  0  0  0  0  0  0
  139.1958  151.9299  132.4254 H   0  0  0  0  0  0  0  0  0  0  0  0
  1  2  1  0
  2  3  1  0
  3  4  1  0
  4  5  2  0
  4  6  1  0
  6  7  1  0
  7  8  1  0
  8  9  1  0
  8 10  2  0
  7 11  2  0
 11 12  1  0
 12 13  2  0
 13 14  1  0
 14 15  2  0
 15 16  1  0
 16 17  1  0
 15 18  1  0
 18 19  2  0
 19  6  1  0
 19 12  1  0
  1 20  1  0
  1 21  1  0
  1 22  1  0
  2 23  1  0
  2 24  1  0
  9 25  1  0
  9 26  1  0
 11 27  1  0
 13 28  1  0
 14 29  1  0
 16 30  1  0
 16 31  1  0
 18 32  1  0
M  END
>  <UniqueID>  (29) 
29

>  <SMILES>  (29) 
CCOC(=O)n1c(C(N)=O)cc2ccc(CBr)cc21

>  <Energy>  (29) 
66.0670061213193

>  <Genealogy>  (29) 
CCOC(=O)n1c(C(N)=O)cc2ccc(CBr)cc21 (3D coordinates assigned)
CCOC(=O)n1c(C(N)=O)cc2ccc(CBr)cc21 (optimized conformer: 66.0670061213193 kcal/mol)

>  <smiles>  (29) 
CCOC(=O)n1c(C(N)=O)cc2ccc(CBr)cc21

>  <score_type>  (29) 
oracle

>  <origin>  (29) 
adg

>  <m_score__min__energy>  (29) 
-7

>  <m_primary>  (29) 
energy

$$$$
29:0
     RDKit          3D

 76 81  0  0  0  0  0  0  0  0999 V2000
  139.8630  150.0280  130.3510 C   0  0  0  0  0  0  0  0  0  0  0  0
  140.5730  148.9070  130.9980 N   0  0  0  0  0  0  0  0  0  0  0  0
  142.0110  149.2140  131.1800 C   0  0  0  0  0  0  0  0  0  0  0  0
  142.3700  149.7790  132.5800 C   0  0  0  0  0  0  0  0  0  0  0  0
  141.2010  150.4330  133.1840 N   0  0  0  0  0  0  0  0  0  0  0  0
  141.1840  151.8570  133.4700 C   0  0  0  0  0  0  0  0  0  0  0  0
  142.1750  152.4320  134.2870 C   0  0  0  0  0  0  0  0  0  0  0  0
  142.2500  153.8130  134.4550 C   0  0  0  0  0  0  0  0  0  0  0  0
  141.3180  154.6460  133.8120 C   0  0  0  0  0  0  0  0  0  0  0  0
  141.3520  156.0750  133.9510 N   0  0  0  0  0  0  0  0  0  0  0  0
  142.2390  156.9340  133.2140 C   0  0  0  0  0  0  0  0  0  0  0  0
  142.9170  156.4760  132.2560 O   0  0  0  0  0  0  0  0  0  0  0  0
  142.3110  158.3430  133.5280 N   0  0  0  0  0  0  0  0  0  0  0  0
  141.2810  159.1120  133.9880 C   0  0  0  0  0  0  0  0  0  0  0  0
  140.0310  158.5910  134.5900 C   0  0  0  0  0  0  0  0  0  0  0  0
  139.9030  158.5590  136.0140 N   0  0  0  0  0  0  0  0  0  0  0  0
  139.1160  158.0900  133.8790 O   0  0  0  0  0  0  0  0  0  0  0  0
  141.6950  160.4360  134.1440 C   0  0  0  0  0  0  0  0  0  0  0  0
  143.0230  160.4460  133.8030 C   0  0  0  0  0  0  0  0  0  0  0  0
  143.9520  161.4500  133.9840 C   0  0  0  0  0  0  0  0  0  0  0  0
  145.3060  161.1410  133.8130 C   0  0  0  0  0  0  0  0  0  0  0  0
  145.7100  159.8250  133.4380 C   0  0  0  0  0  0  0  0  0  0  0  0
  147.0900  159.4280  133.5240 N   0  0  0  0  0  0  0  0  0  0  0  0
  147.8870  159.4730  132.3010 C   0  0  0  0  0  0  0  0  0  0  0  0
  148.6230  158.1420  132.2400 C   0  0  0  0  0  0  0  0  0  0  0  0
  147.8390  157.2420  133.2050 C   0  0  1  0  0  0  0  0  0  0  0  0
  148.6070  156.0670  133.7310 N   0  0  0  0  0  0  0  0  0  0  0  0
  148.0910  155.6660  135.0750 C   0  0  0  0  0  0  0  0  0  0  0  0
  147.0590  154.5090  135.0400 C   0  0  0  0  0  0  0  0  0  0  0  0
  146.2630  154.5640  133.8150 N   0  0  0  0  0  0  0  0  0  0  0  0
  147.0900  154.3810  132.6090 C   0  0  0  0  0  0  0  0  0  0  0  0
  148.5450  154.9050  132.7980 C   0  0  0  0  0  0  0  0  0  0  0  0
  147.4980  158.2540  134.2850 C   0  0  0  0  0  0  0  0  0  0  0  0
  144.7260  158.8440  133.1900 C   0  0  0  0  0  0  0  0  0  0  0  0
  143.3830  159.1690  133.4300 C   0  0  0  0  0  0  0  0  0  0  0  0
  140.3140  154.0800  133.0200 C   0  0  0  0  0  0  0  0  0  0  0  0
  140.2480  152.6960  132.8450 C   0  0  0  0  0  0  0  0  0  0  0  0
  139.9630  149.6570  133.3040 C   0  0  0  0  0  0  0  0  0  0  0  0
  139.9220  148.5140  132.2670 C   0  0  0  0  0  0  0  0  0  0  0  0
  139.4435  150.6904  131.1225 H   0  0  0  0  0  0  0  0  0  0  0  0
  140.5670  150.5950  129.7242 H   0  0  0  0  0  0  0  0  0  0  0  0
  139.0495  149.6339  129.7242 H   0  0  0  0  0  0  0  0  0  0  0  0
  142.5836  148.2877  131.0249 H   0  0  0  0  0  0  0  0  0  0  0  0
  142.2611  149.9978  130.4498 H   0  0  0  0  0  0  0  0  0  0  0  0
  142.7001  148.9550  133.2296 H   0  0  0  0  0  0  0  0  0  0  0  0
  143.1757  150.5197  132.4698 H   0  0  0  0  0  0  0  0  0  0  0  0
  142.8999  151.7827  134.7997 H   0  0  0  0  0  0  0  0  0  0  0  0
  143.0358  154.2500  135.0886 H   0  0  0  0  0  0  0  0  0  0  0  0
  140.5890  156.5400  134.4910 H   0  0  0  0  0  0  0  0  0  0  0  0
  139.3990  159.3250  136.5220 H   0  0  0  0  0  0  0  0  0  0  0  0
  141.0848  161.2907  134.4713 H   0  0  0  0  0  0  0  0  0  0  0  0
  143.6361  162.4680  134.2559 H   0  0  0  0  0  0  0  0  0  0  0  0
  146.0664  161.9204  133.9692 H   0  0  0  0  0  0  0  0  0  0  0  0
  147.2354  159.5916  131.4227 H   0  0  0  0  0  0  0  0  0  0  0  0
  148.5849  160.3233  132.3022 H   0  0  0  0  0  0  0  0  0  0  0  0
  148.6049  157.7312  131.2197 H   0  0  0  0  0  0  0  0  0  0  0  0
  149.6851  158.2317  132.5119 H   0  0  0  0  0  0  0  0  0  0  0  0
  146.9798  156.7376  132.7388 H   0  0  0  0  0  0  0  0  0  0  0  0
  148.9447  155.3483  135.6916 H   0  0  0  0  0  0  0  0  0  0  0  0
  147.5698  156.5422  135.4880 H   0  0  0  0  0  0  0  0  0  0  0  0
  147.5924  153.5479  135.0812 H   0  0  0  0  0  0  0  0  0  0  0  0
  146.3858  154.6091  135.9042 H   0  0  0  0  0  0  0  0  0  0  0  0
  145.5710  153.7800  133.8700 H   0  0  0  0  0  0  0  0  0  0  0  0
  147.1299  153.3085  132.3680 H   0  0  0  0  0  0  0  0  0  0  0  0
  146.6287  154.9613  131.7963 H   0  0  0  0  0  0  0  0  0  0  0  0
  149.1649  154.0916  133.2031 H   0  0  0  0  0  0  0  0  0  0  0  0
  148.9146  155.2386  131.8171 H   0  0  0  0  0  0  0  0  0  0  0  0
  146.6769  157.8910  134.9207 H   0  0  0  0  0  0  0  0  0  0  0  0
  148.3356  158.4532  134.9696 H   0  0  0  0  0  0  0  0  0  0  0  0
  145.0060  157.8477  132.8172 H   0  0  0  0  0  0  0  0  0  0  0  0
  139.5718  154.7288  132.5319 H   0  0  0  0  0  0  0  0  0  0  0  0
  139.4586  152.2612  132.2143 H   0  0  0  0  0  0  0  0  0  0  0  0
  139.9046  149.2274  134.3150 H   0  0  0  0  0  0  0  0  0  0  0  0
  139.1106  150.3274  133.1196 H   0  0  0  0  0  0  0  0  0  0  0  0
  140.4442  147.6383  132.6799 H   0  0  0  0  0  0  0  0  0  0  0  0
  138.8685  148.2791  132.0551 H   0  0  0  0  0  0  0  0  0  0  0  0
  1  2  1  0
  2  3  1  0
  3  4  1  0
  4  5  1  0
  5  6  1  0
  6  7  2  0
  7  8  1  0
  8  9  2  0
  9 10  1  0
 10 11  1  0
 11 12  2  0
 11 13  1  0
 13 14  1  0
 14 15  1  0
 15 16  1  0
 15 17  2  0
 14 18  2  0
 18 19  1  0
 19 20  2  0
 20 21  1  0
 21 22  2  0
 22 23  1  0
 23 24  1  0
 24 25  1  0
 25 26  1  0
 26 27  1  0
 27 28  1  0
 28 29  1  0
 29 30  1  0
 30 31  1  0
 31 32  1  0
 26 33  1  0
 22 34  1  0
 34 35  2  0
  9 36  1  0
 36 37  2  0
  5 38  1  0
 38 39  1  0
 39  2  1  0
 37  6  1  0
 35 13  1  0
 35 19  1  0
 33 23  1  0
 32 27  1  0
  1 40  1  0
  1 41  1  0
  1 42  1  0
  3 43  1  0
  3 44  1  0
  4 45  1  0
  4 46  1  0
  7 47  1  0
  8 48  1  0
 10 49  1  0
 16 50  1  0
 18 51  1  0
 20 52  1  0
 21 53  1  0
 24 54  1  0
 24 55  1  0
 25 56  1  0
 25 57  1  0
 26 58  1  6
 28 59  1  0
 28 60  1  0
 29 61  1  0
 29 62  1  0
 30 63  1  0
 31 64  1  0
 31 65  1  0
 32 66  1  0
 32 67  1  0
 33 68  1  0
 33 69  1  0
 34 70  1  0
 36 71  1  0
 37 72  1  0
 38 73  1  0
 38 74  1  0
 39 75  1  0
 39 76  1  0
M  CHG  1  16  -1
M  END
>  <UniqueID>  (30) 
30

>  <SMILES>  (30) 
CN1CCN(c2ccc(NC(=O)n3c(C([NH-])=O)cc4ccc(N5CC[C@@H](N6CCNCC6)C5)cc43)cc2)CC1

>  <Energy>  (30) 
174.91429954958093

>  <Genealogy>  (30) 
CN1CCN(c2ccc(NC(=O)n3c(C([NH-])=O)cc4ccc(N5CCC(N6CCNCC6)C5)cc43)cc2)CC1 (protonated)
CN1CCN(c2ccc(NC(=O)n3c(C([NH-])=O)cc4ccc(N5CC[C@@H](N6CCNCC6)C5)cc43)cc2)CC1 (chirality)
CN1CCN(c2ccc(NC(=O)n3c(C([NH-])=O)cc4ccc(N5CC[C@@H](N6CCNCC6)C5)cc43)cc2)CC1 (3D coordinates assigned)
CN1CCN(c2ccc(NC(=O)n3c(C([NH-])=O)cc4ccc(N5CC[C@@H](N6CCNCC6)C5)cc43)cc2)CC1 (nonaromatic ring conformer: 174.91429954958093 kcal/mol)

>  <smiles>  (30) 
CN1CCN(c2ccc(NC(=O)n3c(C(N)=O)cc4ccc(N5CCC(N6CCNCC6)C5)cc43)cc2)CC1

>  <score_type>  (30) 
oracle

>  <origin>  (30) 
adg

>  <m_score__min__energy>  (30) 
-11.74

>  <m_primary>  (30) 
energy

$$$$
30:0
     RDKit          3D

 33 34  0  0  0  0  0  0  0  0999 V2000
  138.9560  159.7270  131.3710 C   0  0  0  0  0  0  0  0  0  0  0  0
  138.8890  158.3210  131.5810 O   0  0  0  0  0  0  0  0  0  0  0  0
  139.3520  157.7110  132.7520 C   0  0  0  0  0  0  0  0  0  0  0  0
  139.0990  156.4970  132.9820 O   0  0  0  0  0  0  0  0  0  0  0  0
  140.1100  158.5150  133.7740 C   0  0  1  0  0  0  0  0  0  0  0  0
  139.6250  158.2140  135.1970 C   0  0  0  0  0  0  0  0  0  0  0  0
  141.5990  158.2770  133.6410 C   0  0  0  0  0  0  0  0  0  0  0  0
  142.0870  156.9640  133.4140 C   0  0  0  0  0  0  0  0  0  0  0  0
  143.4650  156.7190  133.2970 C   0  0  0  0  0  0  0  0  0  0  0  0
  144.3320  157.8010  133.4020 C   0  0  0  0  0  0  0  0  0  0  0  0
  145.7070  157.8410  133.3540 C   0  0  0  0  0  0  0  0  0  0  0  0
  146.0440  159.1810  133.5260 C   0  0  0  0  0  0  0  0  0  0  0  0
  147.4300  159.6860  133.4520 C   0  0  0  0  0  0  0  0  0  0  0  0
  147.7540  160.8290  132.6650 N   0  0  0  0  0  0  0  0  0  0  0  0
  148.3510  159.0680  134.0520 O   0  0  0  0  0  0  0  0  0  0  0  0
  144.9220  159.9410  133.6830 N   0  0  0  0  0  0  0  0  0  0  0  0
  144.8470  161.3450  133.9800 C   0  0  0  0  0  0  0  0  0  0  0  0
  145.8430  161.9480  134.4580 O   0  0  0  0  0  0  0  0  0  0  0  0
  143.6830  162.0560  133.7150 O   0  0  0  0  0  0  0  0  0  0  0  0
  143.8820  159.0800  133.6010 C   0  0  0  0  0  0  0  0  0  0  0  0
  142.5160  159.3520  133.7400 C   0  0  0  0  0  0  0  0  0  0  0  0
  138.9805  160.2421  132.3426 H   0  0  0  0  0  0  0  0  0  0  0  0
  139.8667  159.9701  130.8040 H   0  0  0  0  0  0  0  0  0  0  0  0
  138.0725  160.0556  130.8040 H   0  0  0  0  0  0  0  0  0  0  0  0
  139.9136  159.5799  133.5806 H   0  0  0  0  0  0  0  0  0  0  0  0
  140.3269  158.6496  135.9234 H   0  0  0  0  0  0  0  0  0  0  0  0
  138.6265  158.6514  135.3443 H   0  0  0  0  0  0  0  0  0  0  0  0
  139.5737  157.1251  135.3443 H   0  0  0  0  0  0  0  0  0  0  0  0
  141.3774  156.1279  133.3286 H   0  0  0  0  0  0  0  0  0  0  0  0
  143.8470  155.7015  133.1274 H   0  0  0  0  0  0  0  0  0  0  0  0
  146.3940  156.9940  133.2103 H   0  0  0  0  0  0  0  0  0  0  0  0
  147.3430  161.7640  132.8830 H   0  0  0  0  0  0  0  0  0  0  0  0
  142.1626  160.3776  133.9221 H   0  0  0  0  0  0  0  0  0  0  0  0
  1  2  1  0
  2  3  1  0
  3  4  2  0
  3  5  1  0
  5  6  1  0
  5  7  1  0
  7  8  2  0
  8  9  1  0
  9 10  2  0
 10 11  1  0
 11 12  2  0
 12 13  1  0
 13 14  1  0
 13 15  2  0
 12 16  1  0
 16 17  1  0
 17 18  2  0
 17 19  1  0
 16 20  1  0
 20 21  2  0
 21  7  1  0
 20 10  1  0
  1 22  1  0
  1 23  1  0
  1 24  1  0
  5 25  1  6
  6 26  1  0
  6 27  1  0
  6 28  1  0
  8 29  1  0
  9 30  1  0
 11 31  1  0
 14 32  1  0
 21 33  1  0
M  CHG  2  14  -1  19  -1
M  END
>  <UniqueID>  (31) 
31

>  <SMILES>  (31) 
COC(=O)[C@@H](C)c1ccc2cc(C([NH-])=O)n(C(=O)[O-])c2c1

>  <Energy>  (31) 
68.87106158586819

>  <Genealogy>  (31) 
COC(=O)C(C)c1ccc2cc(C([NH-])=O)n(C(=O)[O-])c2c1 (protonated)
COC(=O)[C@@H](C)c1ccc2cc(C([NH-])=O)n(C(=O)[O-])c2c1 (chirality)
COC(=O)[C@@H](C)c1ccc2cc(C([NH-])=O)n(C(=O)[O-])c2c1 (3D coordinates assigned)
COC(=O)[C@@H](C)c1ccc2cc(C([NH-])=O)n(C(=O)[O-])c2c1 (optimized conformer: 68.87106158586819 kcal/mol)

>  <smiles>  (31) 
COC(=O)C(C)c1ccc2cc(C(N)=O)n(C(=O)O)c2c1

>  <score_type>  (31) 
oracle

>  <origin>  (31) 
adg

>  <m_score__min__energy>  (31) 
-6.0499999999999998

>  <m_primary>  (31) 
energy

$$$$
31:0
     RDKit          3D

 59 61  0  0  0  0  0  0  0  0999 V2000
  140.7130  157.2870  136.4810 C   0  0  0  0  0  0  0  0  0  0  0  0
  139.4200  157.8860  135.9290 C   0  0  0  0  0  0  0  0  0  0  0  0
  139.2830  157.5930  134.4840 N   0  0  0  0  0  0  0  0  0  0  0  0
  140.1580  156.4790  134.0500 C   0  0  0  0  0  0  0  0  0  0  0  0
  139.4600  155.6160  133.0010 C   0  0  0  0  0  0  0  0  0  0  0  0
  139.3920  158.8140  133.6360 C   0  0  2  0  0  0  0  0  0  0  0  0
  138.5040  158.6350  132.4090 C   0  0  0  0  0  0  0  0  0  0  0  0
  140.7310  159.0610  133.1930 O   0  0  0  0  0  0  0  0  0  0  0  0
  141.7210  159.6690  133.9710 C   0  0  0  0  0  0  0  0  0  0  0  0
  141.4860  160.0420  135.1530 O   0  0  0  0  0  0  0  0  0  0  0  0
  143.0870  159.8350  133.3940 C   0  0  0  0  0  0  0  0  0  0  0  0
  143.7390  158.4870  133.2520 C   0  0  0  0  0  0  0  0  0  0  0  0
  142.9540  157.3420  132.9600 C   0  0  0  0  0  0  0  0  0  0  0  0
  143.5500  156.0740  132.8500 C   0  0  0  0  0  0  0  0  0  0  0  0
  144.9250  155.9800  133.0430 C   0  0  0  0  0  0  0  0  0  0  0  0
  145.7570  154.8840  132.9910 C   0  0  0  0  0  0  0  0  0  0  0  0
  147.0320  155.3770  133.2740 C   0  0  0  0  0  0  0  0  0  0  0  0
  148.2410  154.5310  133.3330 C   0  0  0  0  0  0  0  0  0  0  0  0
  148.2870  153.3720  134.1580 N   0  0  0  0  0  0  0  0  0  0  0  0
  149.2460  154.8280  132.6300 O   0  0  0  0  0  0  0  0  0  0  0  0
  146.9870  156.7200  133.4830 N   0  0  0  0  0  0  0  0  0  0  0  0
  148.0880  157.5990  133.7380 C   0  0  0  0  0  0  0  0  0  0  0  0
  148.7400  157.4940  134.8070 O   0  0  0  0  0  0  0  0  0  0  0  0
  148.4910  158.5450  132.7470 N   0  0  0  0  0  0  0  0  0  0  0  0
  147.8240  159.8140  132.5350 C   0  0  0  0  0  0  0  0  0  0  0  0
  148.5470  160.4700  131.3630 C   0  0  0  0  0  0  0  0  0  0  0  0
  149.7650  159.5940  131.0450 C   0  0  0  0  0  0  0  0  0  0  0  0
  149.6200  158.3200  131.8700 C   0  0  0  0  0  0  0  0  0  0  0  0
  145.6950  157.0770  133.3350 C   0  0  0  0  0  0  0  0  0  0  0  0
  145.1290  158.3490  133.4640 C   0  0  0  0  0  0  0  0  0  0  0  0
  140.6833  157.3008  137.5805 H   0  0  0  0  0  0  0  0  0  0  0  0
  140.8157  156.2496  136.1299 H   0  0  0  0  0  0  0  0  0  0  0  0
  141.5707  157.8795  136.1299 H   0  0  0  0  0  0  0  0  0  0  0  0
  138.5634  157.4548  136.4677 H   0  0  0  0  0  0  0  0  0  0  0  0
  139.4480  158.9769  136.0677 H   0  0  0  0  0  0  0  0  0  0  0  0
  141.0817  156.8930  133.6194 H   0  0  0  0  0  0  0  0  0  0  0  0
  140.3894  155.8523  134.9239 H   0  0  0  0  0  0  0  0  0  0  0  0
  138.8445  154.8549  133.5029 H   0  0  0  0  0  0  0  0  0  0  0  0
  138.8181  156.2505  132.3723 H   0  0  0  0  0  0  0  0  0  0  0  0
  140.2147  155.1209  132.3723 H   0  0  0  0  0  0  0  0  0  0  0  0
  139.0777  159.6722  134.2482 H   0  0  0  0  0  0  0  0  0  0  0  0
  137.4726  158.4271  132.7300 H   0  0  0  0  0  0  0  0  0  0  0  0
  138.5220  159.5548  131.8060 H   0  0  0  0  0  0  0  0  0  0  0  0
  138.8769  157.7940  131.8060 H   0  0  0  0  0  0  0  0  0  0  0  0
  143.0120  160.3119  132.4056 H   0  0  0  0  0  0  0  0  0  0  0  0
  143.6923  160.4664  134.0610 H   0  0  0  0  0  0  0  0  0  0  0  0
  141.8683  157.4476  132.8183 H   0  0  0  0  0  0  0  0  0  0  0  0
  142.9480  155.1830  132.6184 H   0  0  0  0  0  0  0  0  0  0  0  0
  145.4769  153.8428  132.7731 H   0  0  0  0  0  0  0  0  0  0  0  0
  147.5600  152.6270  134.0760 H   0  0  0  0  0  0  0  0  0  0  0  0
  146.7636  159.6537  132.2902 H   0  0  0  0  0  0  0  0  0  0  0  0
  147.8557  160.4446  133.4357 H   0  0  0  0  0  0  0  0  0  0  0  0
  147.8807  160.5232  130.4893 H   0  0  0  0  0  0  0  0  0  0  0  0
  148.8544  161.4959  131.6141 H   0  0  0  0  0  0  0  0  0  0  0  0
  149.7862  159.3501  129.9726 H   0  0  0  0  0  0  0  0  0  0  0  0
  150.7014  160.1172  131.2888 H   0  0  0  0  0  0  0  0  0  0  0  0
  149.4294  157.4581  131.2136 H   0  0  0  0  0  0  0  0  0  0  0  0
  150.5359  158.0986  132.4375 H   0  0  0  0  0  0  0  0  0  0  0  0
  145.7496  159.2193  133.7237 H   0  0  0  0  0  0  0  0  0  0  0  0
  1  2  1  0
  2  3  1  0
  3  4  1  0
  4  5  1  0
  3  6  1  0
  6  7  1  0
  6  8  1  0
  8  9  1  0
  9 10  2  0
  9 11  1  0
 11 12  1  0
 12 13  2  0
 13 14  1  0
 14 15  2  0
 15 16  1  0
 16 17  2  0
 17 18  1  0
 18 19  1  0
 18 20  2  0
 17 21  1  0
 21 22  1  0
 22 23  2  0
 22 24  1  0
 24 25  1  0
 25 26  1  0
 26 27  1  0
 27 28  1  0
 21 29  1  0
 29 30  2  0
 30 12  1  0
 29 15  1  0
 28 24  1  0
  1 31  1  0
  1 32  1  0
  1 33  1  0
  2 34  1  0
  2 35  1  0
  4 36  1  0
  4 37  1  0
  5 38  1  0
  5 39  1  0
  5 40  1  0
  6 41  1  1
  7 42  1  0
  7 43  1  0
  7 44  1  0
 11 45  1  0
 11 46  1  0
 13 47  1  0
 14 48  1  0
 16 49  1  0
 19 50  1  0
 25 51  1  0
 25 52  1  0
 26 53  1  0
 26 54  1  0
 27 55  1  0
 27 56  1  0
 28 57  1  0
 28 58  1  0
 30 59  1  0
M  CHG  1  19  -1
M  END
>  <UniqueID>  (32) 
32

>  <SMILES>  (32) 
CCN(CC)[C@H](C)OC(=O)Cc1ccc2cc(C([NH-])=O)n(C(=O)N3CCCC3)c2c1

>  <Energy>  (32) 
101.95645197760228

>  <Genealogy>  (32) 
CCN(CC)C(C)OC(=O)Cc1ccc2cc(C([NH-])=O)n(C(=O)N3CCCC3)c2c1 (protonated)
CCN(CC)[C@H](C)OC(=O)Cc1ccc2cc(C([NH-])=O)n(C(=O)N3CCCC3)c2c1 (chirality)
CCN(CC)[C@H](C)OC(=O)Cc1ccc2cc(C([NH-])=O)n(C(=O)N3CCCC3)c2c1 (3D coordinates assigned)
CCN(CC)[C@H](C)OC(=O)Cc1ccc2cc(C([NH-])=O)n(C(=O)N3CCCC3)c2c1 (nonaromatic ring conformer: 101.95645197760228 kcal/mol)

>  <smiles>  (32) 
CCN(CC)C(C)OC(=O)Cc1ccc2cc(C(N)=O)n(C(=O)N3CCCC3)c2c1

>  <score_type>  (32) 
oracle

>  <origin>  (32) 
adg

>  <m_score__min__energy>  (32) 
-8.5299999999999994

>  <m_primary>  (32) 
energy

$$$$
32:0
     RDKit          3D

 34 36  0  0  0  0  0  0  0  0999 V2000
  139.5730  151.1900  132.3970 N   0  0  0  0  0  0  0  0  0  0  0  0
  140.7230  150.7630  133.1270 C   0  0  0  0  0  0  0  0  0  0  0  0
  140.6210  149.7990  133.9320 O   0  0  0  0  0  0  0  0  0  0  0  0
  142.0130  151.4720  133.0060 C   0  0  0  0  0  0  0  0  0  0  0  0
  143.2130  150.8300  132.7170 C   0  0  0  0  0  0  0  0  0  0  0  0
  144.1710  151.8160  132.7600 C   0  0  0  0  0  0  0  0  0  0  0  0
  145.5400  151.7390  132.5350 C   0  0  0  0  0  0  0  0  0  0  0  0
  146.2880  152.9260  132.6070 C   0  0  0  0  0  0  0  0  0  0  0  0
  145.6580  154.1660  132.8920 C   0  0  0  0  0  0  0  0  0  0  0  0
  146.4570  155.4160  132.9530 C   0  0  0  0  0  0  0  0  0  0  0  0
  147.8580  155.3710  132.8960 C   0  0  0  0  0  0  0  0  0  0  0  0
  148.6090  156.5460  132.9520 C   0  0  0  0  0  0  0  0  0  0  0  0
  147.9810  157.8010  133.0630 C   0  0  0  0  0  0  0  0  0  0  0  0
  148.8290  159.0220  133.1010 C   0  0  0  0  0  0  0  0  0  0  0  0
  148.8670  159.7330  134.1410 O   0  0  0  0  0  0  0  0  0  0  0  0
  149.6180  159.3870  132.0170 O   0  0  0  0  0  0  0  0  0  0  0  0
  146.5680  157.8490  133.1330 C   0  0  0  0  0  0  0  0  0  0  0  0
  145.6700  159.3480  133.3540 Cl  0  0  0  0  0  0  0  0  0  0  0  0
  145.8240  156.6640  133.0750 C   0  0  0  0  0  0  0  0  0  0  0  0
  144.2610  154.2000  133.1140 C   0  0  0  0  0  0  0  0  0  0  0  0
  143.5430  152.9990  133.0560 C   0  0  0  0  0  0  0  0  0  0  0  0
  142.2130  152.8040  133.2060 N   0  0  0  0  0  0  0  0  0  0  0  0
  141.2100  153.8150  133.4070 C   0  0  0  0  0  0  0  0  0  0  0  0
  140.2350  153.9140  132.6160 O   0  0  0  0  0  0  0  0  0  0  0  0
  141.3020  154.6900  134.4830 O   0  0  0  0  0  0  0  0  0  0  0  0
  138.6790  150.6550  132.4680 H   0  0  0  0  0  0  0  0  0  0  0  0
  139.5800  152.0800  131.8520 H   0  0  0  0  0  0  0  0  0  0  0  0
  143.3634  149.7621  132.5004 H   0  0  0  0  0  0  0  0  0  0  0  0
  146.0235  150.7776  132.3074 H   0  0  0  0  0  0  0  0  0  0  0  0
  147.3749  152.8943  132.4405 H   0  0  0  0  0  0  0  0  0  0  0  0
  148.3691  154.4011  132.8064 H   0  0  0  0  0  0  0  0  0  0  0  0
  149.7068  156.4907  132.9088 H   0  0  0  0  0  0  0  0  0  0  0  0
  144.7262  156.7113  133.1258 H   0  0  0  0  0  0  0  0  0  0  0  0
  143.7495  155.1501  133.3277 H   0  0  0  0  0  0  0  0  0  0  0  0
  1  2  1  0
  2  3  2  0
  2  4  1  0
  4  5  2  0
  5  6  1  0
  6  7  2  0
  7  8  1  0
  8  9  2  0
  9 10  1  0
 10 11  2  0
 11 12  1  0
 12 13  2  0
 13 14  1  0
 14 15  2  0
 14 16  1  0
 13 17  1  0
 17 18  1  0
 17 19  2  0
  9 20  1  0
 20 21  2  0
 21 22  1  0
 22 23  1  0
 23 24  2  0
 23 25  1  0
 22  4  1  0
 21  6  1  0
 19 10  1  0
  1 26  1  0
  1 27  1  0
  5 28  1  0
  7 29  1  0
  8 30  1  0
 11 31  1  0
 12 32  1  0
 19 33  1  0
 20 34  1  0
M  CHG  2  16  -1  25  -1
M  END
>  <UniqueID>  (33) 
33

>  <SMILES>  (33) 
NC(=O)c1cc2ccc(-c3ccc(C(=O)[O-])c(Cl)c3)cc2n1C(=O)[O-]

>  <Energy>  (33) 
86.9171133945557

>  <Genealogy>  (33) 
NC(=O)c1cc2ccc(-c3ccc(C(=O)[O-])c(Cl)c3)cc2n1C(=O)[O-] (protonated)
NC(=O)c1cc2ccc(-c3ccc(C(=O)[O-])c(Cl)c3)cc2n1C(=O)[O-] (3D coordinates assigned)
NC(=O)c1cc2ccc(-c3ccc(C(=O)[O-])c(Cl)c3)cc2n1C(=O)[O-] (optimized conformer: 86.9171133945557 kcal/mol)

>  <smiles>  (33) 
NC(=O)c1cc2ccc(-c3ccc(C(=O)O)c(Cl)c3)cc2n1C(=O)O

>  <score_type>  (33) 
oracle

>  <origin>  (33) 
adg

>  <m_score__min__energy>  (33) 
-7.9199999999999999

>  <m_primary>  (33) 
energy

$$$$
33:0
     RDKit          3D

 29 31  0  0  0  0  0  0  0  0999 V2000
  139.7070  158.9890  131.4390 N   0  0  0  0  0  0  0  0  0  0  0  0
  139.8680  158.7630  132.5630 C   0  0  0  0  0  0  0  0  0  0  0  0
  140.0660  158.4800  133.9610 C   0  0  0  0  0  0  0  0  0  0  0  0
  139.1350  157.9330  134.8120 C   0  0  0  0  0  0  0  0  0  0  0  0
  139.7150  157.7030  136.0050 N   0  0  0  0  0  0  0  0  0  0  0  0
  140.9840  158.0810  135.9410 N   0  0  0  0  0  0  0  0  0  0  0  0
  141.2310  158.5650  134.7060 C   0  0  0  0  0  0  0  0  0  0  0  0
  142.5620  159.0510  134.2750 C   0  0  0  0  0  0  0  0  0  0  0  0
  142.8240  160.4380  134.1230 C   0  0  0  0  0  0  0  0  0  0  0  0
  144.0960  160.8900  133.7360 C   0  0  0  0  0  0  0  0  0  0  0  0
  145.0850  159.9400  133.5070 C   0  0  0  0  0  0  0  0  0  0  0  0
  146.4060  160.1090  133.1640 C   0  0  0  0  0  0  0  0  0  0  0  0
  146.9320  158.8220  133.0920 C   0  0  0  0  0  0  0  0  0  0  0  0
  148.3240  158.5370  132.6910 C   0  0  0  0  0  0  0  0  0  0  0  0
  148.6410  157.4210  131.8580 N   0  0  0  0  0  0  0  0  0  0  0  0
  149.2430  159.3250  133.0420 O   0  0  0  0  0  0  0  0  0  0  0  0
  145.9810  157.8940  133.3930 N   0  0  0  0  0  0  0  0  0  0  0  0
  146.1600  156.4740  133.5390 C   0  0  0  0  0  0  0  0  0  0  0  0
  146.1000  155.9400  134.6780 O   0  0  0  0  0  0  0  0  0  0  0  0
  146.4010  155.6760  132.4290 O   0  0  0  0  0  0  0  0  0  0  0  0
  144.8530  158.5960  133.6430 C   0  0  0  0  0  0  0  0  0  0  0  0
  143.6000  158.1190  134.0500 C   0  0  0  0  0  0  0  0  0  0  0  0
  138.0862  157.7181  134.5591 H   0  0  0  0  0  0  0  0  0  0  0  0
  142.0217  161.1668  134.3105 H   0  0  0  0  0  0  0  0  0  0  0  0
  144.3037  161.9637  133.6175 H   0  0  0  0  0  0  0  0  0  0  0  0
  146.9337  161.0574  132.9850 H   0  0  0  0  0  0  0  0  0  0  0  0
  149.6350  157.2130  131.6170 H   0  0  0  0  0  0  0  0  0  0  0  0
  147.8890  156.8510  131.4120 H   0  0  0  0  0  0  0  0  0  0  0  0
  143.4280  157.0418  134.1914 H   0  0  0  0  0  0  0  0  0  0  0  0
  1  2  3  0
  2  3  1  0
  3  4  1  0
  4  5  2  0
  5  6  1  0
  6  7  1  0
  7  8  1  0
  8  9  2  0
  9 10  1  0
 10 11  2  0
 11 12  1  0
 12 13  2  0
 13 14  1  0
 14 15  1  0
 14 16  2  0
 13 17  1  0
 17 18  1  0
 18 19  2  0
 18 20  1  0
 17 21  1  0
 21 22  2  0
  7  3  2  0
 22  8  1  0
 21 11  1  0
  4 23  1  0
  9 24  1  0
 10 25  1  0
 12 26  1  0
 15 27  1  0
 15 28  1  0
 22 29  1  0
M  CHG  2   6  -1  20  -1
M  END
>  <UniqueID>  (34) 
34

>  <SMILES>  (34) 
N#Cc1cn[n-]c1-c1ccc2cc(C(N)=O)n(C(=O)[O-])c2c1

>  <Energy>  (34) 
105.37636023109722

>  <Genealogy>  (34) 
N#Cc1cn[n-]c1-c1ccc2cc(C(N)=O)n(C(=O)[O-])c2c1 (protonated)
N#Cc1cn[n-]c1-c1ccc2cc(C(N)=O)n(C(=O)[O-])c2c1 (3D coordinates assigned)
N#Cc1cn[n-]c1-c1ccc2cc(C(N)=O)n(C(=O)[O-])c2c1 (optimized conformer: 105.37636023109722 kcal/mol)

>  <smiles>  (34) 
N#Cc1cn[nH]c1-c1ccc2cc(C(N)=O)n(C(=O)O)c2c1

>  <score_type>  (34) 
oracle

>  <origin>  (34) 
adg

>  <m_score__min__energy>  (34) 
-7.1100000000000003

>  <m_primary>  (34) 
energy

$$$$
34:0
     RDKit          3D

 56 57  0  0  0  0  0  0  0  0999 V2000
  139.0910  147.8360  130.2270 C   0  0  0  0  0  0  0  0  0  0  0  0
  139.7340  148.9960  130.3410 C   0  0  0  0  0  0  0  0  0  0  0  0
  139.6500  149.8810  131.5280 C   0  0  0  0  0  0  0  0  0  0  0  0
  138.5120  150.3550  131.7940 O   0  0  0  0  0  0  0  0  0  0  0  0
  140.8360  150.2350  132.4430 C   0  0  0  0  0  0  0  0  0  0  0  0
  142.1030  149.5800  131.8240 C   0  0  0  0  0  0  0  0  0  0  0  0
  140.6290  149.6110  133.8420 C   0  0  0  0  0  0  0  0  0  0  0  0
  140.9580  151.8050  132.4500 C   0  0  0  0  0  0  0  0  0  0  0  0
  142.0090  152.5870  133.3260 C   0  0  0  0  0  0  0  0  0  0  0  0
  141.7300  152.4120  134.8380 C   0  0  0  0  0  0  0  0  0  0  0  0
  143.4640  152.1810  133.0180 C   0  0  0  0  0  0  0  0  0  0  0  0
  141.8410  154.0950  132.9750 C   0  0  0  0  0  0  0  0  0  0  0  0
  140.8900  154.7340  133.8280 O   0  0  0  0  0  0  0  0  0  0  0  0
  140.0840  155.7920  133.3970 C   0  0  0  0  0  0  0  0  0  0  0  0
  139.1950  155.5990  132.5230 O   0  0  0  0  0  0  0  0  0  0  0  0
  140.2820  157.1070  133.9400 N   0  0  0  0  0  0  0  0  0  0  0  0
  140.0800  158.3000  133.3130 C   0  0  0  0  0  0  0  0  0  0  0  0
  139.7750  158.4720  131.8750 C   0  0  0  0  0  0  0  0  0  0  0  0
  138.6120  157.8740  131.2960 N   0  0  0  0  0  0  0  0  0  0  0  0
  140.5250  159.1800  131.1530 O   0  0  0  0  0  0  0  0  0  0  0  0
  140.3110  159.3570  134.1930 C   0  0  0  0  0  0  0  0  0  0  0  0
  140.6720  158.7690  135.3830 C   0  0  0  0  0  0  0  0  0  0  0  0
  140.9990  159.3500  136.6040 C   0  0  0  0  0  0  0  0  0  0  0  0
  141.3080  158.4990  137.6760 C   0  0  0  0  0  0  0  0  0  0  0  0
  141.2980  157.0890  137.5110 C   0  0  0  0  0  0  0  0  0  0  0  0
  141.5780  156.1880  138.6850 C   0  0  0  0  0  0  0  0  0  0  0  0
  140.4110  155.6030  139.1450 F   0  0  0  0  0  0  0  0  0  0  0  0
  142.1410  156.9320  139.7050 F   0  0  0  0  0  0  0  0  0  0  0  0
  142.4550  155.1790  138.3260 F   0  0  0  0  0  0  0  0  0  0  0  0
  140.9340  156.5370  136.2600 C   0  0  0  0  0  0  0  0  0  0  0  0
  140.6470  157.4110  135.2050 C   0  0  0  0  0  0  0  0  0  0  0  0
  139.2025  147.2327  129.3140 H   0  0  0  0  0  0  0  0  0  0  0  0
  138.4481  147.4807  131.0458 H   0  0  0  0  0  0  0  0  0  0  0  0
  140.3677  149.3185  129.5017 H   0  0  0  0  0  0  0  0  0  0  0  0
  142.7686  149.2359  132.6294 H   0  0  0  0  0  0  0  0  0  0  0  0
  141.8060  148.7225  131.2023 H   0  0  0  0  0  0  0  0  0  0  0  0
  142.6309  150.3182  131.2023 H   0  0  0  0  0  0  0  0  0  0  0  0
  140.8754  150.3539  134.6149 H   0  0  0  0  0  0  0  0  0  0  0  0
  139.5797  149.3003  133.9533 H   0  0  0  0  0  0  0  0  0  0  0  0
  141.2846  148.7347  133.9533 H   0  0  0  0  0  0  0  0  0  0  0  0
  141.1570  152.0967  131.4082 H   0  0  0  0  0  0  0  0  0  0  0  0
  140.0138  152.0937  132.9349 H   0  0  0  0  0  0  0  0  0  0  0  0
  142.5223  152.9090  135.4170 H   0  0  0  0  0  0  0  0  0  0  0  0
  140.7574  152.8622  135.0859 H   0  0  0  0  0  0  0  0  0  0  0  0
  141.7119  151.3405  135.0859 H   0  0  0  0  0  0  0  0  0  0  0  0
  144.0096  152.0287  133.9609 H   0  0  0  0  0  0  0  0  0  0  0  0
  143.4689  151.2472  132.4367 H   0  0  0  0  0  0  0  0  0  0  0  0
  143.9517  152.9774  132.4367 H   0  0  0  0  0  0  0  0  0  0  0  0
  142.8133  154.5972  133.0862 H   0  0  0  0  0  0  0  0  0  0  0  0
  141.4756  154.1672  131.9400 H   0  0  0  0  0  0  0  0  0  0  0  0
  137.9970  157.2340  131.8460 H   0  0  0  0  0  0  0  0  0  0  0  0
  138.3890  158.0410  130.2910 H   0  0  0  0  0  0  0  0  0  0  0  0
  140.2232  160.4327  133.9805 H   0  0  0  0  0  0  0  0  0  0  0  0
  141.0148  160.4432  136.7254 H   0  0  0  0  0  0  0  0  0  0  0  0
  141.5610  158.9296  138.6561 H   0  0  0  0  0  0  0  0  0  0  0  0
  140.8779  155.4474  136.1199 H   0  0  0  0  0  0  0  0  0  0  0  0
  1  2  2  0
  2  3  1  0
  3  4  2  0
  3  5  1  0
  5  6  1  0
  5  7  1  0
  5  8  1  0
  8  9  1  0
  9 10  1  0
  9 11  1  0
  9 12  1  0
 12 13  1  0
 13 14  1  0
 14 15  2  0
 14 16  1  0
 16 17  1  0
 17 18  1  0
 18 19  1  0
 18 20  2  0
 17 21  2  0
 21 22  1  0
 22 23  2  0
 23 24  1  0
 24 25  2  0
 25 26  1  0
 26 27  1  0
 26 28  1  0
 26 29  1  0
 25 30  1  0
 30 31  2  0
 31 16  1  0
 31 22  1  0
  1 32  1  0
  1 33  1  0
  2 34  1  0
  6 35  1  0
  6 36  1  0
  6 37  1  0
  7 38  1  0
  7 39  1  0
  7 40  1  0
  8 41  1  0
  8 42  1  0
 10 43  1  0
 10 44  1  0
 10 45  1  0
 11 46  1  0
 11 47  1  0
 11 48  1  0
 12 49  1  0
 12 50  1  0
 19 51  1  0
 19 52  1  0
 21 53  1  0
 23 54  1  0
 24 55  1  0
 30 56  1  0
M  END
>  <UniqueID>  (35) 
35

>  <SMILES>  (35) 
C=CC(=O)C(C)(C)CC(C)(C)COC(=O)n1c(C(N)=O)cc2ccc(C(F)(F)F)cc21

>  <Energy>  (35) 
104.4225506502001

>  <Genealogy>  (35) 
C=CC(=O)C(C)(C)CC(C)(C)COC(=O)n1c(C(N)=O)cc2ccc(C(F)(F)F)cc21 (3D coordinates assigned)
C=CC(=O)C(C)(C)CC(C)(C)COC(=O)n1c(C(N)=O)cc2ccc(C(F)(F)F)cc21 (optimized conformer: 104.4225506502001 kcal/mol)

>  <smiles>  (35) 
C=CC(=O)C(C)(C)CC(C)(C)COC(=O)n1c(C(N)=O)cc2ccc(C(F)(F)F)cc21

>  <score_type>  (35) 
oracle

>  <origin>  (35) 
adg

>  <m_score__min__energy>  (35) 
-9.2300000000000004

>  <m_primary>  (35) 
energy

$$$$
35:0
     RDKit          3D

 48 50  0  0  0  0  0  0  0  0999 V2000
  148.4940  159.7700  129.6970 C   0  0  0  0  0  0  0  0  0  0  0  0
  149.2070  160.2120  130.9070 N   0  0  0  0  0  0  0  0  0  0  0  0
  150.0370  159.1370  131.4870 C   0  0  0  0  0  0  0  0  0  0  0  0
  149.2100  158.0410  132.1940 C   0  0  0  0  0  0  0  0  0  0  0  0
  147.9140  158.5820  132.8450 C   0  0  0  0  0  0  0  0  0  0  0  0
  147.4080  157.7450  134.0490 C   0  0  0  0  0  0  0  0  0  0  0  0
  146.1070  157.0850  133.8130 N   0  0  0  0  0  0  0  0  0  0  0  0
  146.0750  155.6160  133.8800 C   0  0  0  0  0  0  0  0  0  0  0  0
  144.8610  157.8340  133.6510 C   0  0  0  0  0  0  0  0  0  0  0  0
  144.8500  159.2620  133.5910 C   0  0  0  0  0  0  0  0  0  0  0  0
  143.6510  159.9780  133.4510 C   0  0  0  0  0  0  0  0  0  0  0  0
  142.4670  159.2610  133.3590 C   0  0  0  0  0  0  0  0  0  0  0  0
  141.1710  159.7100  133.2470 C   0  0  0  0  0  0  0  0  0  0  0  0
  140.3890  158.5610  133.1990 C   0  0  0  0  0  0  0  0  0  0  0  0
  138.9240  158.5830  133.0170 C   0  0  0  0  0  0  0  0  0  0  0  0
  138.1070  157.5010  133.4660 N   0  0  0  0  0  0  0  0  0  0  0  0
  138.3910  159.5460  132.4050 O   0  0  0  0  0  0  0  0  0  0  0  0
  141.1660  157.4450  133.2890 N   0  0  0  0  0  0  0  0  0  0  0  0
  140.7190  156.0820  133.3940 C   0  0  0  0  0  0  0  0  0  0  0  0
  141.1690  155.3300  134.2980 O   0  0  0  0  0  0  0  0  0  0  0  0
  139.7830  155.5810  132.4980 O   0  0  0  0  0  0  0  0  0  0  0  0
  142.4400  157.8940  133.3840 C   0  0  0  0  0  0  0  0  0  0  0  0
  143.6150  157.1520  133.5440 C   0  0  0  0  0  0  0  0  0  0  0  0
  148.0670  160.0720  133.1760 C   0  0  0  0  0  0  0  0  0  0  0  0
  148.3150  160.8850  131.8890 C   0  0  0  0  0  0  0  0  0  0  0  0
  147.5921  159.2109  129.9866 H   0  0  0  0  0  0  0  0  0  0  0  0
  148.2054  160.6478  129.1002 H   0  0  0  0  0  0  0  0  0  0  0  0
  149.1519  159.1211  129.1002 H   0  0  0  0  0  0  0  0  0  0  0  0
  150.6176  158.6692  130.6782 H   0  0  0  0  0  0  0  0  0  0  0  0
  150.6836  159.5989  132.2476 H   0  0  0  0  0  0  0  0  0  0  0  0
  148.9361  157.2762  131.4524 H   0  0  0  0  0  0  0  0  0  0  0  0
  149.8342  157.6286  133.0004 H   0  0  0  0  0  0  0  0  0  0  0  0
  147.1146  158.4743  132.0971 H   0  0  0  0  0  0  0  0  0  0  0  0
  148.1554  156.9688  134.2701 H   0  0  0  0  0  0  0  0  0  0  0  0
  147.2652  158.4434  134.8867 H   0  0  0  0  0  0  0  0  0  0  0  0
  146.0680  155.2970  134.9327 H   0  0  0  0  0  0  0  0  0  0  0  0
  145.1686  155.2457  133.3787 H   0  0  0  0  0  0  0  0  0  0  0  0
  146.9644  155.2066  133.3787 H   0  0  0  0  0  0  0  0  0  0  0  0
  145.8009  159.8112  133.6559 H   0  0  0  0  0  0  0  0  0  0  0  0
  143.6502  161.0774  133.4152 H   0  0  0  0  0  0  0  0  0  0  0  0
  140.8273  160.7541  133.2045 H   0  0  0  0  0  0  0  0  0  0  0  0
  138.5310  156.6170  133.8240 H   0  0  0  0  0  0  0  0  0  0  0  0
  137.0690  157.5490  133.3610 H   0  0  0  0  0  0  0  0  0  0  0  0
  143.5772  156.0535  133.5867 H   0  0  0  0  0  0  0  0  0  0  0  0
  147.1476  160.4320  133.6608 H   0  0  0  0  0  0  0  0  0  0  0  0
  148.9255  160.2016  133.8514 H   0  0  0  0  0  0  0  0  0  0  0  0
  147.3447  161.0691  131.4046 H   0  0  0  0  0  0  0  0  0  0  0  0
  148.8214  161.8129  132.1931 H   0  0  0  0  0  0  0  0  0  0  0  0
  1  2  1  0
  2  3  1  0
  3  4  1  0
  4  5  1  0
  5  6  1  0
  6  7  1  0
  7  8  1  0
  7  9  1  0
  9 10  2  0
 10 11  1  0
 11 12  2  0
 12 13  1  0
 13 14  2  0
 14 15  1  0
 15 16  1  0
 15 17  2  0
 14 18  1  0
 18 19  1  0
 19 20  2  0
 19 21  1  0
 18 22  1  0
 22 23  2  0
  5 24  1  0
 24 25  1  0
 25  2  1  0
 23  9  1  0
 22 12  1  0
  1 26  1  0
  1 27  1  0
  1 28  1  0
  3 29  1  0
  3 30  1  0
  4 31  1  0
  4 32  1  0
  5 33  1  0
  6 34  1  0
  6 35  1  0
  8 36  1  0
  8 37  1  0
  8 38  1  0
 10 39  1  0
 11 40  1  0
 13 41  1  0
 16 42  1  0
 16 43  1  0
 23 44  1  0
 24 45  1  0
 24 46  1  0
 25 47  1  0
 25 48  1  0
M  CHG  1  21  -1
M  END
>  <UniqueID>  (36) 
36

>  <SMILES>  (36) 
CN1CCC(CN(C)c2ccc3cc(C(N)=O)n(C(=O)[O-])c3c2)CC1

>  <Energy>  (36) 
102.91929834037737

>  <Genealogy>  (36) 
CN1CCC(CN(C)c2ccc3cc(C(N)=O)n(C(=O)[O-])c3c2)CC1 (protonated)
CN1CCC(CN(C)c2ccc3cc(C(N)=O)n(C(=O)[O-])c3c2)CC1 (3D coordinates assigned)
CN1CCC(CN(C)c2ccc3cc(C(N)=O)n(C(=O)[O-])c3c2)CC1 (nonaromatic ring conformer: 102.91929834037737 kcal/mol)

>  <smiles>  (36) 
CN1CCC(CN(C)c2ccc3cc(C(N)=O)n(C(=O)O)c3c2)CC1

>  <score_type>  (36) 
oracle

>  <origin>  (36) 
adg

>  <m_score__min__energy>  (36) 
-8.1600000000000001

>  <m_primary>  (36) 
energy

$$$$
36:0
     RDKit          3D

 26 27  0  0  0  0  0  0  0  0999 V2000
  149.9130  160.8920  131.2960 N   0  0  0  0  0  0  0  0  0  0  0  0
  148.6220  160.3000  131.1750 C   0  0  0  0  0  0  0  0  0  0  0  0
  147.7720  160.8280  130.4090 O   0  0  0  0  0  0  0  0  0  0  0  0
  148.2870  159.0500  131.8890 C   0  0  0  0  0  0  0  0  0  0  0  0
  149.0520  157.8890  131.7950 C   0  0  0  0  0  0  0  0  0  0  0  0
  148.4690  156.9970  132.6650 C   0  0  0  0  0  0  0  0  0  0  0  0
  148.8180  155.6840  132.9680 C   0  0  0  0  0  0  0  0  0  0  0  0
  148.0210  154.9860  133.8890 C   0  0  0  0  0  0  0  0  0  0  0  0
  146.8860  155.6020  134.4740 C   0  0  0  0  0  0  0  0  0  0  0  0
  146.0520  154.8510  135.4720 C   0  0  0  0  0  0  0  0  0  0  0  0
  146.9340  154.1360  136.4440 C   0  0  0  0  0  0  0  0  0  0  0  0
  146.6150  152.9930  136.8680 O   0  0  0  0  0  0  0  0  0  0  0  0
  148.0840  154.7510  136.9220 O   0  0  0  0  0  0  0  0  0  0  0  0
  146.5680  156.9400  134.1500 C   0  0  0  0  0  0  0  0  0  0  0  0
  147.3920  157.6180  133.2440 C   0  0  0  0  0  0  0  0  0  0  0  0
  147.2650  158.8800  132.7750 N   0  0  0  0  0  0  0  0  0  0  0  0
  146.2090  159.8010  133.0910 C   0  0  0  0  0  0  0  0  0  0  0  0
  146.4560  160.8570  133.7320 O   0  0  0  0  0  0  0  0  0  0  0  0
  144.9090  159.5510  132.6710 O   0  0  0  0  0  0  0  0  0  0  0  0
  150.7330  160.5000  130.7840 H   0  0  0  0  0  0  0  0  0  0  0  0
  149.9345  157.7214  131.1601 H   0  0  0  0  0  0  0  0  0  0  0  0
  149.6920  155.2077  132.4998 H   0  0  0  0  0  0  0  0  0  0  0  0
  148.2795  153.9515  134.1593 H   0  0  0  0  0  0  0  0  0  0  0  0
  145.4101  155.5594  136.0161 H   0  0  0  0  0  0  0  0  0  0  0  0
  145.4307  154.1149  134.9407 H   0  0  0  0  0  0  0  0  0  0  0  0
  145.6948  157.4364  134.5984 H   0  0  0  0  0  0  0  0  0  0  0  0
  1  2  1  0
  2  3  2  0
  2  4  1  0
  4  5  2  0
  5  6  1  0
  6  7  2  0
  7  8  1  0
  8  9  2  0
  9 10  1  0
 10 11  1  0
 11 12  2  0
 11 13  1  0
  9 14  1  0
 14 15  2  0
 15 16  1  0
 16 17  1  0
 17 18  2  0
 17 19  1  0
 16  4  1  0
 15  6  1  0
  1 20  1  0
  5 21  1  0
  7 22  1  0
  8 23  1  0
 10 24  1  0
 10 25  1  0
 14 26  1  0
M  CHG  3   1  -1  13  -1  19  -1
M  END
>  <UniqueID>  (37) 
37

>  <SMILES>  (37) 
[NH-]C(=O)c1cc2ccc(CC(=O)[O-])cc2n1C(=O)[O-]

>  <Energy>  (37) 
64.88032134319428

>  <Genealogy>  (37) 
[NH-]C(=O)c1cc2ccc(CC(=O)[O-])cc2n1C(=O)[O-] (protonated)
[NH-]C(=O)c1cc2ccc(CC(=O)[O-])cc2n1C(=O)[O-] (3D coordinates assigned)
[NH-]C(=O)c1cc2ccc(CC(=O)[O-])cc2n1C(=O)[O-] (optimized conformer: 64.88032134319428 kcal/mol)

>  <smiles>  (37) 
NC(=O)c1cc2ccc(CC(=O)O)cc2n1C(=O)O

>  <score_type>  (37) 
oracle

>  <origin>  (37) 
adg

>  <m_score__min__energy>  (37) 
-6.2800000000000002

>  <m_primary>  (37) 
energy

$$$$
37:0
     RDKit          3D

 37 39  0  0  0  0  0  0  0  0999 V2000
  141.7280  159.0850  134.8810 C   0  0  0  0  0  0  0  0  0  0  0  0
  143.1320  158.8570  134.8470 O   0  0  0  0  0  0  0  0  0  0  0  0
  143.8370  158.6700  133.6550 C   0  0  0  0  0  0  0  0  0  0  0  0
  143.2900  158.0880  132.6770 O   0  0  0  0  0  0  0  0  0  0  0  0
  145.1980  159.1190  133.5530 N   0  0  0  0  0  0  0  0  0  0  0  0
  145.6670  160.3970  133.6320 C   0  0  0  0  0  0  0  0  0  0  0  0
  144.8740  161.5940  133.9820 C   0  0  0  0  0  0  0  0  0  0  0  0
  143.4710  161.6140  133.7270 N   0  0  0  0  0  0  0  0  0  0  0  0
  145.4260  162.6160  134.4710 O   0  0  0  0  0  0  0  0  0  0  0  0
  147.0440  160.4250  133.4210 C   0  0  0  0  0  0  0  0  0  0  0  0
  147.4090  159.1150  133.2140 C   0  0  0  0  0  0  0  0  0  0  0  0
  148.6610  158.5650  132.9520 C   0  0  0  0  0  0  0  0  0  0  0  0
  148.7410  157.1750  132.7590 C   0  0  0  0  0  0  0  0  0  0  0  0
  147.5760  156.3700  132.8120 C   0  0  0  0  0  0  0  0  0  0  0  0
  147.6780  154.8810  132.6260 C   0  0  0  0  0  0  0  0  0  0  0  0
  149.1430  154.4400  132.6150 C   0  0  0  0  0  0  0  0  0  0  0  0
  149.2280  152.9870  132.5330 N   0  0  0  0  0  0  0  0  0  0  0  0
  148.2180  152.1330  132.2970 C   0  0  0  0  0  0  0  0  0  0  0  0
  148.6640  150.8640  132.2190 N   0  0  0  0  0  0  0  0  0  0  0  0
  149.9940  151.0100  132.4140 C   0  0  0  0  0  0  0  0  0  0  0  0
  150.3520  152.2970  132.5980 N   0  0  0  0  0  0  0  0  0  0  0  0
  146.3250  156.9620  133.0900 C   0  0  0  0  0  0  0  0  0  0  0  0
  146.2760  158.3470  133.2980 C   0  0  0  0  0  0  0  0  0  0  0  0
  141.3906  159.1398  135.9266 H   0  0  0  0  0  0  0  0  0  0  0  0
  141.4979  160.0323  134.3714 H   0  0  0  0  0  0  0  0  0  0  0  0
  141.2100  158.2592  134.3714 H   0  0  0  0  0  0  0  0  0  0  0  0
  142.9000  160.7440  133.8040 H   0  0  0  0  0  0  0  0  0  0  0  0
  147.7003  161.3078  133.4201 H   0  0  0  0  0  0  0  0  0  0  0  0
  149.5589  159.1981  132.8978 H   0  0  0  0  0  0  0  0  0  0  0  0
  149.7176  156.7075  132.5649 H   0  0  0  0  0  0  0  0  0  0  0  0
  147.1546  154.3766  133.4516 H   0  0  0  0  0  0  0  0  0  0  0  0
  147.2186  154.6110  131.6637 H   0  0  0  0  0  0  0  0  0  0  0  0
  149.6501  154.8838  131.7455 H   0  0  0  0  0  0  0  0  0  0  0  0
  149.6276  154.7773  133.5431 H   0  0  0  0  0  0  0  0  0  0  0  0
  147.1653  152.4307  132.1825 H   0  0  0  0  0  0  0  0  0  0  0  0
  150.7056  150.1712  132.4217 H   0  0  0  0  0  0  0  0  0  0  0  0
  145.4115  156.3514  133.1420 H   0  0  0  0  0  0  0  0  0  0  0  0
  1  2  1  0
  2  3  1  0
  3  4  2  0
  3  5  1  0
  5  6  1  0
  6  7  1  0
  7  8  1  0
  7  9  2  0
  6 10  2  0
 10 11  1  0
 11 12  2  0
 12 13  1  0
 13 14  2  0
 14 15  1  0
 15 16  1  0
 16 17  1  0
 17 18  1  0
 18 19  2  0
 19 20  1  0
 20 21  2  0
 14 22  1  0
 22 23  2  0
 23  5  1  0
 23 11  1  0
 21 17  1  0
  1 24  1  0
  1 25  1  0
  1 26  1  0
  8 27  1  0
 10 28  1  0
 12 29  1  0
 13 30  1  0
 15 31  1  0
 15 32  1  0
 16 33  1  0
 16 34  1  0
 18 35  1  0
 20 36  1  0
 22 37  1  0
M  CHG  1   8  -1
M  END
>  <UniqueID>  (38) 
38

>  <SMILES>  (38) 
COC(=O)n1c(C([NH-])=O)cc2ccc(CCn3cncn3)cc21

>  <Energy>  (38) 
104.83365082369215

>  <Genealogy>  (38) 
COC(=O)n1c(C([NH-])=O)cc2ccc(CCn3cncn3)cc21 (protonated)
COC(=O)n1c(C([NH-])=O)cc2ccc(CCn3cncn3)cc21 (3D coordinates assigned)
COC(=O)n1c(C([NH-])=O)cc2ccc(CCn3cncn3)cc21 (optimized conformer: 104.83365082369215 kcal/mol)

>  <smiles>  (38) 
COC(=O)n1c(C(N)=O)cc2ccc(CCn3cncn3)cc21

>  <score_type>  (38) 
oracle

>  <origin>  (38) 
adg

>  <m_score__min__energy>  (38) 
-7

>  <m_primary>  (38) 
energy

$$$$
38:0
     RDKit          3D

 49 52  0  0  0  0  0  0  0  0999 V2000
  141.9180  152.4440  135.0120 C   0  0  0  0  0  0  0  0  0  0  0  0
  141.3810  151.9620  136.3230 C   0  0  0  0  0  0  0  0  0  0  0  0
  140.6070  150.8600  136.4320 N   0  0  0  0  0  0  0  0  0  0  0  0
  140.3960  150.7310  137.7580 C   0  0  0  0  0  0  0  0  0  0  0  0
  141.0460  151.7400  138.4290 C   0  0  0  0  0  0  0  0  0  0  0  0
  141.6630  152.5180  137.5220 N   0  0  0  0  0  0  0  0  0  0  0  0
  142.5350  153.6580  137.8130 C   0  0  0  0  0  0  0  0  0  0  0  0
  141.9100  154.9310  137.3120 C   0  0  0  0  0  0  0  0  0  0  0  0
  140.8400  155.5300  138.0210 C   0  0  0  0  0  0  0  0  0  0  0  0
  140.2220  156.6930  137.5310 C   0  0  0  0  0  0  0  0  0  0  0  0
  140.6980  157.2350  136.3410 C   0  0  0  0  0  0  0  0  0  0  0  0
  140.2550  158.3230  135.6290 C   0  0  0  0  0  0  0  0  0  0  0  0
  141.0780  158.3920  134.5080 C   0  0  0  0  0  0  0  0  0  0  0  0
  140.9880  159.4730  133.5090 C   0  0  0  0  0  0  0  0  0  0  0  0
  142.1640  160.0920  132.9960 N   0  0  0  0  0  0  0  0  0  0  0  0
  139.8560  159.8970  133.1460 O   0  0  0  0  0  0  0  0  0  0  0  0
  141.9930  157.3800  134.5190 N   0  0  0  0  0  0  0  0  0  0  0  0
  142.9330  157.0340  133.4850 C   0  0  0  0  0  0  0  0  0  0  0  0
  142.7210  157.3910  132.2960 O   0  0  0  0  0  0  0  0  0  0  0  0
  144.1070  156.3450  133.8130 O   0  0  0  0  0  0  0  0  0  0  0  0
  145.3700  156.9820  134.0120 C   0  0  0  0  0  0  0  0  0  0  0  0
  145.4570  158.3370  133.2920 C   0  0  2  0  0  0  0  0  0  0  0  0
  146.8800  158.8790  133.2280 C   0  0  0  0  0  0  0  0  0  0  0  0
  146.6910  160.3690  133.3130 C   0  0  0  0  0  0  0  0  0  0  0  0
  145.2360  160.5430  133.7200 C   0  0  0  0  0  0  0  0  0  0  0  0
  144.6680  159.2800  133.9770 O   0  0  0  0  0  0  0  0  0  0  0  0
  141.7460  156.6780  135.6500 C   0  0  0  0  0  0  0  0  0  0  0  0
  142.3650  155.5070  136.1050 C   0  0  0  0  0  0  0  0  0  0  0  0
  142.7257  153.1690  135.1909 H   0  0  0  0  0  0  0  0  0  0  0  0
  142.3114  151.5903  134.4407 H   0  0  0  0  0  0  0  0  0  0  0  0
  141.1116  152.9271  134.4407 H   0  0  0  0  0  0  0  0  0  0  0  0
  139.7957  149.9395  138.2304 H   0  0  0  0  0  0  0  0  0  0  0  0
  141.0591  151.8856  139.5192 H   0  0  0  0  0  0  0  0  0  0  0  0
  142.6870  153.7311  138.9000 H   0  0  0  0  0  0  0  0  0  0  0  0
  143.5008  153.5093  137.3080 H   0  0  0  0  0  0  0  0  0  0  0  0
  140.4901  155.0813  138.9624 H   0  0  0  0  0  0  0  0  0  0  0  0
  139.3866  157.1612  138.0722 H   0  0  0  0  0  0  0  0  0  0  0  0
  139.4256  158.9971  135.8893 H   0  0  0  0  0  0  0  0  0  0  0  0
  142.9490  159.5180  132.6130 H   0  0  0  0  0  0  0  0  0  0  0  0
  145.5194  157.1434  135.0898 H   0  0  0  0  0  0  0  0  0  0  0  0
  146.1482  156.3268  133.5935 H   0  0  0  0  0  0  0  0  0  0  0  0
  145.1007  158.1750  132.2640 H   0  0  0  0  0  0  0  0  0  0  0  0
  147.4800  158.5097  134.0728 H   0  0  0  0  0  0  0  0  0  0  0  0
  147.4179  158.5659  132.3210 H   0  0  0  0  0  0  0  0  0  0  0  0
  147.3613  160.8039  134.0690 H   0  0  0  0  0  0  0  0  0  0  0  0
  146.9248  160.8761  132.3653 H   0  0  0  0  0  0  0  0  0  0  0  0
  145.1803  161.1620  134.6276 H   0  0  0  0  0  0  0  0  0  0  0  0
  144.6833  161.0359  132.9066 H   0  0  0  0  0  0  0  0  0  0  0  0
  143.1861  155.0466  135.5359 H   0  0  0  0  0  0  0  0  0  0  0  0
  1  2  1  0
  2  3  2  0
  3  4  1  0
  4  5  2  0
  5  6  1  0
  6  7  1  0
  7  8  1  0
  8  9  2  0
  9 10  1  0
 10 11  2  0
 11 12  1  0
 12 13  2  0
 13 14  1  0
 14 15  1  0
 14 16  2  0
 13 17  1  0
 17 18  1  0
 18 19  2  0
 18 20  1  0
 20 21  1  0
 21 22  1  0
 22 23  1  0
 23 24  1  0
 24 25  1  0
 25 26  1  0
 17 27  1  0
 27 28  2  0
  6  2  1  0
 28  8  1  0
 27 11  1  0
 26 22  1  0
  1 29  1  0
  1 30  1  0
  1 31  1  0
  4 32  1  0
  5 33  1  0
  7 34  1  0
  7 35  1  0
  9 36  1  0
 10 37  1  0
 12 38  1  0
 15 39  1  0
 21 40  1  0
 21 41  1  0
 22 42  1  6
 23 43  1  0
 23 44  1  0
 24 45  1  0
 24 46  1  0
 25 47  1  0
 25 48  1  0
 28 49  1  0
M  CHG  1  15  -1
M  END
>  <UniqueID>  (39) 
39

>  <SMILES>  (39) 
Cc1nccn1Cc1ccc2cc(C([NH-])=O)n(C(=O)OC[C@@H]3CCCO3)c2c1

>  <Energy>  (39) 
114.94664199226953

>  <Genealogy>  (39) 
Cc1nccn1Cc1ccc2cc(C([NH-])=O)n(C(=O)OCC3CCCO3)c2c1 (protonated)
Cc1nccn1Cc1ccc2cc(C([NH-])=O)n(C(=O)OC[C@@H]3CCCO3)c2c1 (chirality)
Cc1nccn1Cc1ccc2cc(C([NH-])=O)n(C(=O)OC[C@@H]3CCCO3)c2c1 (3D coordinates assigned)
Cc1nccn1Cc1ccc2cc(C([NH-])=O)n(C(=O)OC[C@@H]3CCCO3)c2c1 (nonaromatic ring conformer: 114.94664199226953 kcal/mol)

>  <smiles>  (39) 
Cc1nccn1Cc1ccc2cc(C(N)=O)n(C(=O)OCC3CCCO3)c2c1

>  <score_type>  (39) 
oracle

>  <origin>  (39) 
adg

>  <m_score__min__energy>  (39) 
-7.96

>  <m_primary>  (39) 
energy

$$$$
39:0
     RDKit          3D

 40 42  0  0  0  0  0  0  0  0999 V2000
  149.5830  158.8070  131.8270 C   0  0  0  0  0  0  0  0  0  0  0  0
  148.7540  159.8790  131.1290 C   0  0  0  0  0  0  0  0  0  0  0  0
  147.3890  159.8010  131.5350 O   0  0  0  0  0  0  0  0  0  0  0  0
  146.9790  159.8470  132.8730 C   0  0  0  0  0  0  0  0  0  0  0  0
  147.6520  160.4900  133.7250 O   0  0  0  0  0  0  0  0  0  0  0  0
  145.8030  159.1330  133.2820 N   0  0  0  0  0  0  0  0  0  0  0  0
  144.6260  159.6490  133.7380 C   0  0  0  0  0  0  0  0  0  0  0  0
  144.2550  161.0800  133.7560 C   0  0  0  0  0  0  0  0  0  0  0  0
  145.2090  162.0820  134.0980 N   0  0  0  0  0  0  0  0  0  0  0  0
  143.0910  161.4260  133.4190 O   0  0  0  0  0  0  0  0  0  0  0  0
  143.7600  158.6270  134.1180 C   0  0  0  0  0  0  0  0  0  0  0  0
  144.4420  157.4580  133.8700 C   0  0  0  0  0  0  0  0  0  0  0  0
  144.0550  156.1370  134.0680 C   0  0  0  0  0  0  0  0  0  0  0  0
  144.9750  155.1260  133.7450 C   0  0  0  0  0  0  0  0  0  0  0  0
  146.2630  155.4490  133.2450 C   0  0  0  0  0  0  0  0  0  0  0  0
  147.2250  154.3710  132.9130 C   0  0  0  0  0  0  0  0  0  0  0  0
  146.7980  153.0330  132.8890 C   0  0  0  0  0  0  0  0  0  0  0  0
  147.6910  152.0070  132.5720 C   0  0  0  0  0  0  0  0  0  0  0  0
  149.0330  152.2960  132.2750 C   0  0  0  0  0  0  0  0  0  0  0  0
  149.9760  151.2060  131.9390 C   0  0  0  0  0  0  0  0  0  0  0  0
  150.7590  150.7440  132.8120 O   0  0  0  0  0  0  0  0  0  0  0  0
  150.0110  150.6760  130.6540 O   0  0  0  0  0  0  0  0  0  0  0  0
  149.4640  153.6330  132.3050 C   0  0  0  0  0  0  0  0  0  0  0  0
  148.5710  154.6630  132.6220 C   0  0  0  0  0  0  0  0  0  0  0  0
  149.0340  155.9370  132.6790 F   0  0  0  0  0  0  0  0  0  0  0  0
  146.6160  156.8050  133.0540 C   0  0  0  0  0  0  0  0  0  0  0  0
  145.6720  157.7900  133.3660 C   0  0  0  0  0  0  0  0  0  0  0  0
  149.4919  158.9248  132.9169 H   0  0  0  0  0  0  0  0  0  0  0  0
  149.2172  157.8119  131.5339 H   0  0  0  0  0  0  0  0  0  0  0  0
  150.6381  158.9107  131.5339 H   0  0  0  0  0  0  0  0  0  0  0  0
  149.1525  160.8707  131.3891 H   0  0  0  0  0  0  0  0  0  0  0  0
  148.8105  159.7196  130.0421 H   0  0  0  0  0  0  0  0  0  0  0  0
  146.1690  162.0710  133.6890 H   0  0  0  0  0  0  0  0  0  0  0  0
  142.7453  158.7320  134.5294 H   0  0  0  0  0  0  0  0  0  0  0  0
  143.0591  155.8914  134.4653 H   0  0  0  0  0  0  0  0  0  0  0  0
  144.6937  154.0714  133.8813 H   0  0  0  0  0  0  0  0  0  0  0  0
  145.7506  152.7911  133.1221 H   0  0  0  0  0  0  0  0  0  0  0  0
  147.3406  150.9645  132.5548 H   0  0  0  0  0  0  0  0  0  0  0  0
  150.5132  153.8724  132.0772 H   0  0  0  0  0  0  0  0  0  0  0  0
  147.6094  157.0792  132.6692 H   0  0  0  0  0  0  0  0  0  0  0  0
  1  2  1  0
  2  3  1  0
  3  4  1  0
  4  5  2  0
  4  6  1  0
  6  7  1  0
  7  8  1  0
  8  9  1  0
  8 10  2  0
  7 11  2  0
 11 12  1  0
 12 13  2  0
 13 14  1  0
 14 15  2  0
 15 16  1  0
 16 17  2  0
 17 18  1  0
 18 19  2  0
 19 20  1  0
 20 21  2  0
 20 22  1  0
 19 23  1  0
 23 24  2  0
 24 25  1  0
 15 26  1  0
 26 27  2  0
 27  6  1  0
 27 12  1  0
 24 16  1  0
  1 28  1  0
  1 29  1  0
  1 30  1  0
  2 31  1  0
  2 32  1  0
  9 33  1  0
 11 34  1  0
 13 35  1  0
 14 36  1  0
 17 37  1  0
 18 38  1  0
 23 39  1  0
 26 40  1  0
M  CHG  2   9  -1  22  -1
M  END
>  <UniqueID>  (40) 
40

>  <SMILES>  (40) 
CCOC(=O)n1c(C([NH-])=O)cc2ccc(-c3ccc(C(=O)[O-])cc3F)cc21

>  <Energy>  (40) 
84.77804279736723

>  <Genealogy>  (40) 
CCOC(=O)n1c(C([NH-])=O)cc2ccc(-c3ccc(C(=O)[O-])cc3F)cc21 (protonated)
CCOC(=O)n1c(C([NH-])=O)cc2ccc(-c3ccc(C(=O)[O-])cc3F)cc21 (3D coordinates assigned)
CCOC(=O)n1c(C([NH-])=O)cc2ccc(-c3ccc(C(=O)[O-])cc3F)cc21 (optimized conformer: 84.77804279736723 kcal/mol)

>  <smiles>  (40) 
CCOC(=O)n1c(C(N)=O)cc2ccc(-c3ccc(C(=O)O)cc3F)cc21

>  <score_type>  (40) 
oracle

>  <origin>  (40) 
adg

>  <m_score__min__energy>  (40) 
-7.7199999999999998

>  <m_primary>  (40) 
energy

$$$$
40:0
     RDKit          3D

 45 46  0  0  0  0  0  0  0  0999 V2000
  137.6080  160.0690  130.9320 C   0  0  0  0  0  0  0  0  0  0  0  0
  139.0210  159.6030  131.2800 C   0  0  0  0  0  0  0  0  0  0  0  0
  139.0420  158.2750  132.0530 C   0  0  0  0  0  0  0  0  0  0  0  0
  140.2650  158.1440  132.9700 C   0  0  0  0  0  0  0  0  0  0  0  0
  139.8360  157.7190  134.3430 C   0  0  0  0  0  0  0  0  0  0  0  0
  138.7310  158.1160  134.8030 O   0  0  0  0  0  0  0  0  0  0  0  0
  140.7290  156.9750  135.1840 N   0  0  0  0  0  0  0  0  0  0  0  0
  141.2460  157.3420  136.3890 C   0  0  0  0  0  0  0  0  0  0  0  0
  141.0680  158.6570  137.0380 C   0  0  0  0  0  0  0  0  0  0  0  0
  140.4990  159.7390  136.3060 N   0  0  0  0  0  0  0  0  0  0  0  0
  141.3970  158.8300  138.2410 O   0  0  0  0  0  0  0  0  0  0  0  0
  142.0330  156.3160  136.9110 C   0  0  0  0  0  0  0  0  0  0  0  0
  141.9800  155.3040  135.9760 C   0  0  0  0  0  0  0  0  0  0  0  0
  142.5820  154.0490  135.9720 C   0  0  0  0  0  0  0  0  0  0  0  0
  142.3470  153.2100  134.8690 C   0  0  0  0  0  0  0  0  0  0  0  0
  141.5120  153.6320  133.8040 C   0  0  0  0  0  0  0  0  0  0  0  0
  141.3010  152.7420  132.6120 C   0  0  0  0  0  0  0  0  0  0  0  0
  141.8080  151.3670  132.9060 C   0  0  0  0  0  0  0  0  0  0  0  0
  142.9980  151.0620  132.6130 O   0  0  0  0  0  0  0  0  0  0  0  0
  140.9640  150.4400  133.5270 O   0  0  0  0  0  0  0  0  0  0  0  0
  140.4800  149.2630  132.8820 C   0  0  0  0  0  0  0  0  0  0  0  0
  139.4500  149.6270  131.8190 C   0  0  0  0  0  0  0  0  0  0  0  0
  140.9280  154.9170  133.8380 C   0  0  0  0  0  0  0  0  0  0  0  0
  141.1870  155.7320  134.9440 C   0  0  0  0  0  0  0  0  0  0  0  0
  137.0446  160.2548  131.8583 H   0  0  0  0  0  0  0  0  0  0  0  0
  137.6624  160.9968  130.3436 H   0  0  0  0  0  0  0  0  0  0  0  0
  137.0998  159.2909  130.3436 H   0  0  0  0  0  0  0  0  0  0  0  0
  139.5875  159.4739  130.3460 H   0  0  0  0  0  0  0  0  0  0  0  0
  139.4694  160.3690  131.9297 H   0  0  0  0  0  0  0  0  0  0  0  0
  138.1323  158.2112  132.6681 H   0  0  0  0  0  0  0  0  0  0  0  0
  139.0912  157.4611  131.3147 H   0  0  0  0  0  0  0  0  0  0  0  0
  140.9525  157.3924  132.5546 H   0  0  0  0  0  0  0  0  0  0  0  0
  140.7715  159.1182  133.0363 H   0  0  0  0  0  0  0  0  0  0  0  0
  139.4890  159.7340  136.0390 H   0  0  0  0  0  0  0  0  0  0  0  0
  142.5797  156.3143  137.8655 H   0  0  0  0  0  0  0  0  0  0  0  0
  143.2216  153.7240  136.8058 H   0  0  0  0  0  0  0  0  0  0  0  0
  142.8159  152.2156  134.8318 H   0  0  0  0  0  0  0  0  0  0  0  0
  140.2270  152.6925  132.3796 H   0  0  0  0  0  0  0  0  0  0  0  0
  141.8496  153.1534  131.7519 H   0  0  0  0  0  0  0  0  0  0  0  0
  141.3215  148.7376  132.4068 H   0  0  0  0  0  0  0  0  0  0  0  0
  140.0052  148.6137  133.6323 H   0  0  0  0  0  0  0  0  0  0  0  0
  138.5203  149.9556  132.3066 H   0  0  0  0  0  0  0  0  0  0  0  0
  139.8425  150.4409  131.1917 H   0  0  0  0  0  0  0  0  0  0  0  0
  139.2439  148.7472  131.1917 H   0  0  0  0  0  0  0  0  0  0  0  0
  140.2863  155.2676  133.0162 H   0  0  0  0  0  0  0  0  0  0  0  0
  1  2  1  0
  2  3  1  0
  3  4  1  0
  4  5  1  0
  5  6  2  0
  5  7  1  0
  7  8  1  0
  8  9  1  0
  9 10  1  0
  9 11  2  0
  8 12  2  0
 12 13  1  0
 13 14  2  0
 14 15  1  0
 15 16  2  0
 16 17  1  0
 17 18  1  0
 18 19  2  0
 18 20  1  0
 20 21  1  0
 21 22  1  0
 16 23  1  0
 23 24  2  0
 24  7  1  0
 24 13  1  0
  1 25  1  0
  1 26  1  0
  1 27  1  0
  2 28  1  0
  2 29  1  0
  3 30  1  0
  3 31  1  0
  4 32  1  0
  4 33  1  0
 10 34  1  0
 12 35  1  0
 14 36  1  0
 15 37  1  0
 17 38  1  0
 17 39  1  0
 21 40  1  0
 21 41  1  0
 22 42  1  0
 22 43  1  0
 22 44  1  0
 23 45  1  0
M  CHG  1  10  -1
M  END
>  <UniqueID>  (41) 
41

>  <SMILES>  (41) 
CCCCC(=O)n1c(C([NH-])=O)cc2ccc(CC(=O)OCC)cc21

>  <Energy>  (41) 
71.03550305407994

>  <Genealogy>  (41) 
CCCCC(=O)n1c(C([NH-])=O)cc2ccc(CC(=O)OCC)cc21 (protonated)
CCCCC(=O)n1c(C([NH-])=O)cc2ccc(CC(=O)OCC)cc21 (3D coordinates assigned)
CCCCC(=O)n1c(C([NH-])=O)cc2ccc(CC(=O)OCC)cc21 (optimized conformer: 71.03550305407994 kcal/mol)

>  <smiles>  (41) 
CCCCC(=O)n1c(C(N)=O)cc2ccc(CC(=O)OCC)cc21

>  <score_type>  (41) 
oracle

>  <origin>  (41) 
adg

>  <m_score__min__energy>  (41) 
-7.3099999999999996

>  <m_primary>  (41) 
energy

$$$$
41:0
     RDKit          3D

 31 32  0  0  0  0  0  0  0  0999 V2000
  149.6060  160.5210  129.1570 C   0  0  0  0  0  0  0  0  0  0  0  0
  150.0260  159.8240  130.3110 O   0  0  0  0  0  0  0  0  0  0  0  0
  149.4550  160.4000  131.4720 C   0  0  0  0  0  0  0  0  0  0  0  0
  149.3210  159.3630  132.5940 C   0  0  0  0  0  0  0  0  0  0  0  0
  147.8770  159.0350  132.8670 C   0  0  0  0  0  0  0  0  0  0  0  0
  147.4230  157.6950  132.7820 C   0  0  0  0  0  0  0  0  0  0  0  0
  146.0830  157.3760  133.0530 C   0  0  0  0  0  0  0  0  0  0  0  0
  145.2260  158.4090  133.4200 C   0  0  0  0  0  0  0  0  0  0  0  0
  143.8830  158.3820  133.7170 C   0  0  0  0  0  0  0  0  0  0  0  0
  143.5420  159.7000  134.0110 C   0  0  0  0  0  0  0  0  0  0  0  0
  142.1970  160.1080  134.4680 C   0  0  0  0  0  0  0  0  0  0  0  0
  141.4280  161.0170  133.6850 N   0  0  0  0  0  0  0  0  0  0  0  0
  141.7040  159.6370  135.5260 O   0  0  0  0  0  0  0  0  0  0  0  0
  144.6320  160.5140  133.8940 N   0  0  0  0  0  0  0  0  0  0  0  0
  144.6890  161.9410  134.0520 C   0  0  0  0  0  0  0  0  0  0  0  0
  143.8700  162.6820  133.4490 O   0  0  0  0  0  0  0  0  0  0  0  0
  145.6660  162.5190  134.8540 O   0  0  0  0  0  0  0  0  0  0  0  0
  145.6550  159.7070  133.5340 C   0  0  0  0  0  0  0  0  0  0  0  0
  146.9810  160.0580  133.2510 C   0  0  0  0  0  0  0  0  0  0  0  0
  149.0595  161.4279  129.4550 H   0  0  0  0  0  0  0  0  0  0  0  0
  150.4849  160.8026  128.5585 H   0  0  0  0  0  0  0  0  0  0  0  0
  148.9464  159.8755  128.5585 H   0  0  0  0  0  0  0  0  0  0  0  0
  150.0978  161.2228  131.8182 H   0  0  0  0  0  0  0  0  0  0  0  0
  148.4515  160.7733  131.2195 H   0  0  0  0  0  0  0  0  0  0  0  0
  149.8472  158.4438  132.2969 H   0  0  0  0  0  0  0  0  0  0  0  0
  149.7603  159.7844  133.5102 H   0  0  0  0  0  0  0  0  0  0  0  0
  148.1270  156.8978  132.5011 H   0  0  0  0  0  0  0  0  0  0  0  0
  145.7212  156.3400  132.9774 H   0  0  0  0  0  0  0  0  0  0  0  0
  143.2190  157.5050  133.7213 H   0  0  0  0  0  0  0  0  0  0  0  0
  141.8440  161.9100  133.3350 H   0  0  0  0  0  0  0  0  0  0  0  0
  147.3163  161.1030  133.3257 H   0  0  0  0  0  0  0  0  0  0  0  0
  1  2  1  0
  2  3  1  0
  3  4  1  0
  4  5  1  0
  5  6  2  0
  6  7  1  0
  7  8  2  0
  8  9  1  0
  9 10  2  0
 10 11  1  0
 11 12  1  0
 11 13  2  0
 10 14  1  0
 14 15  1  0
 15 16  2  0
 15 17  1  0
 14 18  1  0
 18 19  2  0
 19  5  1  0
 18  8  1  0
  1 20  1  0
  1 21  1  0
  1 22  1  0
  3 23  1  0
  3 24  1  0
  4 25  1  0
  4 26  1  0
  6 27  1  0
  7 28  1  0
  9 29  1  0
 12 30  1  0
 19 31  1  0
M  CHG  2  12  -1  17  -1
M  END
>  <UniqueID>  (42) 
42

>  <SMILES>  (42) 
COCCc1ccc2cc(C([NH-])=O)n(C(=O)[O-])c2c1

>  <Energy>  (42) 
70.1170322628648

>  <Genealogy>  (42) 
COCCc1ccc2cc(C([NH-])=O)n(C(=O)[O-])c2c1 (protonated)
COCCc1ccc2cc(C([NH-])=O)n(C(=O)[O-])c2c1 (3D coordinates assigned)
COCCc1ccc2cc(C([NH-])=O)n(C(=O)[O-])c2c1 (optimized conformer: 70.1170322628648 kcal/mol)

>  <smiles>  (42) 
COCCc1ccc2cc(C(N)=O)n(C(=O)O)c2c1

>  <score_type>  (42) 
oracle

>  <origin>  (42) 
adg

>  <m_score__min__energy>  (42) 
-6.1399999999999997

>  <m_primary>  (42) 
energy

$$$$
42:0
     RDKit          3D

 46 48  0  0  0  0  0  0  0  0999 V2000
  140.5630  147.7380  130.5100 N   0  0  0  0  0  0  0  0  0  0  0  0
  139.3010  148.3810  130.8620 C   0  0  0  0  0  0  0  0  0  0  0  0
  139.5060  149.3300  132.0440 C   0  0  0  0  0  0  0  0  0  0  0  0
  140.8960  149.5820  132.2520 O   0  0  0  0  0  0  0  0  0  0  0  0
  141.4570  150.8200  132.6100 C   0  0  0  0  0  0  0  0  0  0  0  0
  140.5900  151.8810  132.8900 C   0  0  0  0  0  0  0  0  0  0  0  0
  141.0900  153.1320  133.2590 C   0  0  0  0  0  0  0  0  0  0  0  0
  142.4750  153.3430  133.3660 C   0  0  0  0  0  0  0  0  0  0  0  0
  142.9860  154.6700  133.7850 C   0  0  0  0  0  0  0  0  0  0  0  0
  143.9440  155.1950  133.1550 O   0  0  0  0  0  0  0  0  0  0  0  0
  142.4080  155.3770  134.8960 N   0  0  0  0  0  0  0  0  0  0  0  0
  142.0360  156.6850  134.9390 C   0  0  0  0  0  0  0  0  0  0  0  0
  142.2950  157.6910  133.8900 C   0  0  0  0  0  0  0  0  0  0  0  0
  142.3480  157.3290  132.5090 N   0  0  0  0  0  0  0  0  0  0  0  0
  142.5210  158.8860  134.2210 O   0  0  0  0  0  0  0  0  0  0  0  0
  141.3840  156.9710  136.1380 C   0  0  0  0  0  0  0  0  0  0  0  0
  141.3720  155.7850  136.8360 C   0  0  0  0  0  0  0  0  0  0  0  0
  140.8470  155.4880  138.0910 C   0  0  0  0  0  0  0  0  0  0  0  0
  140.9550  154.1660  138.5550 C   0  0  0  0  0  0  0  0  0  0  0  0
  141.5590  153.1670  137.7510 C   0  0  0  0  0  0  0  0  0  0  0  0
  141.6970  151.7610  138.2660 C   0  0  0  0  0  0  0  0  0  0  0  0
  140.6070  150.9030  137.7100 C   0  0  0  0  0  0  0  0  0  0  0  0
  139.6560  150.5290  138.4480 O   0  0  0  0  0  0  0  0  0  0  0  0
  140.6100  150.5590  136.3650 O   0  0  0  0  0  0  0  0  0  0  0  0
  142.0810  153.5060  136.4840 C   0  0  0  0  0  0  0  0  0  0  0  0
  141.9860  154.8350  136.0610 C   0  0  0  0  0  0  0  0  0  0  0  0
  143.3520  152.2810  133.0710 C   0  0  0  0  0  0  0  0  0  0  0  0
  144.6970  152.4530  133.1100 F   0  0  0  0  0  0  0  0  0  0  0  0
  142.8460  151.0290  132.7040 C   0  0  0  0  0  0  0  0  0  0  0  0
  140.8670  148.1220  129.5860 H   0  0  0  0  0  0  0  0  0  0  0  0
  141.2850  148.0350  131.2060 H   0  0  0  0  0  0  0  0  0  0  0  0
  138.9298  148.9513  129.9977 H   0  0  0  0  0  0  0  0  0  0  0  0
  138.5697  147.6088  131.1430 H   0  0  0  0  0  0  0  0  0  0  0  0
  138.9934  150.2810  131.8370 H   0  0  0  0  0  0  0  0  0  0  0  0
  139.0913  148.8629  132.9494 H   0  0  0  0  0  0  0  0  0  0  0  0
  139.5029  151.7288  132.8189 H   0  0  0  0  0  0  0  0  0  0  0  0
  140.3942  153.9581  133.4674 H   0  0  0  0  0  0  0  0  0  0  0  0
  142.4770  158.0640  131.7800 H   0  0  0  0  0  0  0  0  0  0  0  0
  142.3590  156.3270  132.2120 H   0  0  0  0  0  0  0  0  0  0  0  0
  140.9682  157.9379  136.4576 H   0  0  0  0  0  0  0  0  0  0  0  0
  140.3624  156.2647  138.7008 H   0  0  0  0  0  0  0  0  0  0  0  0
  140.5675  153.9042  139.5506 H   0  0  0  0  0  0  0  0  0  0  0  0
  142.6723  151.3550  137.9594 H   0  0  0  0  0  0  0  0  0  0  0  0
  141.6247  151.7701  139.3636 H   0  0  0  0  0  0  0  0  0  0  0  0
  142.5508  152.7434  135.8454 H   0  0  0  0  0  0  0  0  0  0  0  0
  143.5385  150.2023  132.4874 H   0  0  0  0  0  0  0  0  0  0  0  0
  1  2  1  0
  2  3  1  0
  3  4  1  0
  4  5  1  0
  5  6  2  0
  6  7  1  0
  7  8  2  0
  8  9  1  0
  9 10  2  0
  9 11  1  0
 11 12  1  0
 12 13  1  0
 13 14  1  0
 13 15  2  0
 12 16  2  0
 16 17  1  0
 17 18  2  0
 18 19  1  0
 19 20  2  0
 20 21  1  0
 21 22  1  0
 22 23  2  0
 22 24  1  0
 20 25  1  0
 25 26  2  0
  8 27  1  0
 27 28  1  0
 27 29  2  0
 29  5  1  0
 26 11  1  0
 26 17  1  0
  1 30  1  0
  1 31  1  0
  2 32  1  0
  2 33  1  0
  3 34  1  0
  3 35  1  0
  6 36  1  0
  7 37  1  0
 14 38  1  0
 14 39  1  0
 16 40  1  0
 18 41  1  0
 19 42  1  0
 21 43  1  0
 21 44  1  0
 25 45  1  0
 29 46  1  0
M  CHG  1  24  -1
M  END
>  <UniqueID>  (43) 
43

>  <SMILES>  (43) 
NCCOc1ccc(C(=O)n2c(C(N)=O)cc3ccc(CC(=O)[O-])cc32)c(F)c1

>  <Energy>  (43) 
85.78789455938498

>  <Genealogy>  (43) 
NCCOc1ccc(C(=O)n2c(C(N)=O)cc3ccc(CC(=O)[O-])cc32)c(F)c1 (protonated)
NCCOc1ccc(C(=O)n2c(C(N)=O)cc3ccc(CC(=O)[O-])cc32)c(F)c1 (3D coordinates assigned)
NCCOc1ccc(C(=O)n2c(C(N)=O)cc3ccc(CC(=O)[O-])cc32)c(F)c1 (optimized conformer: 85.78789455938498 kcal/mol)

>  <smiles>  (43) 
NCCOc1ccc(C(=O)n2c(C(N)=O)cc3ccc(CC(=O)O)cc32)c(F)c1

>  <score_type>  (43) 
oracle

>  <origin>  (43) 
adg

>  <m_score__min__energy>  (43) 
-8.9299999999999997

>  <m_primary>  (43) 
energy

$$$$
43:0
     RDKit          3D

 57 59  0  0  0  0  0  0  0  0999 V2000
  139.1030  158.7490  137.0610 H   0  0  0  0  0  0  0  0  0  0  0  0
  139.2490  158.0360  136.3860 O   0  0  0  0  0  0  0  0  0  0  0  0
  139.8910  158.6040  135.2710 C   0  0  2  0  0  0  0  0  0  0  0  0
  139.8052  159.6996  135.3180 H   0  0  0  0  0  0  0  0  0  0  0  0
  139.2050  158.1830  133.9800 C   0  0  0  0  0  0  0  0  0  0  0  0
  138.5443  157.3035  133.9890 H   0  0  0  0  0  0  0  0  0  0  0  0
  139.3820  158.8530  132.8300 C   0  0  0  0  0  0  0  0  0  0  0  0
  140.0230  159.7469  132.8247 H   0  0  0  0  0  0  0  0  0  0  0  0
  138.7270  158.4140  131.5480 C   0  0  0  0  0  0  0  0  0  0  0  0
  139.4206  157.7677  130.9901 H   0  0  0  0  0  0  0  0  0  0  0  0
  137.8062  157.8631  131.7899 H   0  0  0  0  0  0  0  0  0  0  0  0
  138.3790  159.5830  130.7180 N   0  0  0  0  0  0  0  0  0  0  0  0
  136.9260  159.8300  130.7390 C   0  0  0  0  0  0  0  0  0  0  0  0
  136.5791  159.8890  131.7812 H   0  0  0  0  0  0  0  0  0  0  0  0
  136.7078  160.7781  130.2257 H   0  0  0  0  0  0  0  0  0  0  0  0
  136.4067  159.0072  130.2257 H   0  0  0  0  0  0  0  0  0  0  0  0
  139.0860  160.7760  131.2110 C   0  0  0  0  0  0  0  0  0  0  0  0
  139.0850  160.7744  132.3110 H   0  0  0  0  0  0  0  0  0  0  0  0
  140.1233  160.7648  130.8452 H   0  0  0  0  0  0  0  0  0  0  0  0
  138.5780  161.6805  130.8452 H   0  0  0  0  0  0  0  0  0  0  0  0
  141.3430  158.2900  135.2970 N   0  0  0  0  0  0  0  0  0  0  0  0
  142.1460  159.2190  134.4770 C   0  0  0  0  0  0  0  0  0  0  0  0
  142.6974  159.9115  135.1301 H   0  0  0  0  0  0  0  0  0  0  0  0
  141.4919  159.8067  133.8160 H   0  0  0  0  0  0  0  0  0  0  0  0
  143.1250  158.3970  133.6540 C   0  0  0  0  0  0  0  0  0  0  0  0
  144.1093  158.3570  134.1435 H   0  0  0  0  0  0  0  0  0  0  0  0
  143.2980  158.8229  132.6547 H   0  0  0  0  0  0  0  0  0  0  0  0
  142.4950  157.0180  133.5980 C   0  0  1  0  0  0  0  0  0  0  0  0
  141.8498  156.8966  132.7154 H   0  0  0  0  0  0  0  0  0  0  0  0
  143.5010  155.8980  133.4060 C   0  0  0  0  0  0  0  0  0  0  0  0
  143.0370  154.5830  133.1570 C   0  0  0  0  0  0  0  0  0  0  0  0
  141.9553  154.3860  133.1248 H   0  0  0  0  0  0  0  0  0  0  0  0
  143.9390  153.5290  132.9510 C   0  0  0  0  0  0  0  0  0  0  0  0
  143.5808  152.5082  132.7517 H   0  0  0  0  0  0  0  0  0  0  0  0
  145.2990  153.8120  133.0060 C   0  0  0  0  0  0  0  0  0  0  0  0
  146.3730  152.9790  132.8190 C   0  0  0  0  0  0  0  0  0  0  0  0
  146.3514  151.9002  132.6053 H   0  0  0  0  0  0  0  0  0  0  0  0
  147.4930  153.7880  132.9570 C   0  0  0  0  0  0  0  0  0  0  0  0
  148.8650  153.2830  132.7720 C   0  0  0  0  0  0  0  0  0  0  0  0
  149.1190  152.0740  133.0140 O   0  0  0  0  0  0  0  0  0  0  0  0
  149.8880  154.1300  132.2490 N   0  0  0  0  0  0  0  0  0  0  0  0
  149.6660  155.0990  131.9260 H   0  0  0  0  0  0  0  0  0  0  0  0
  150.8610  153.7670  132.1310 H   0  0  0  0  0  0  0  0  0  0  0  0
  147.1390  155.0740  133.2520 N   0  0  0  0  0  0  0  0  0  0  0  0
  148.0240  156.1550  133.6300 C   0  0  0  0  0  0  0  0  0  0  0  0
  148.0990  156.5250  134.8300 O   0  0  0  0  0  0  0  0  0  0  0  0
  148.7650  156.8360  132.6630 O   0  0  0  0  0  0  0  0  0  0  0  0
  148.8800  158.2540  132.6340 C   0  0  0  0  0  0  0  0  0  0  0  0
  148.9113  158.6404  133.6634 H   0  0  0  0  0  0  0  0  0  0  0  0
  149.8040  158.5363  132.1081 H   0  0  0  0  0  0  0  0  0  0  0  0
  148.0136  158.6815  132.1081 H   0  0  0  0  0  0  0  0  0  0  0  0
  145.7800  155.0740  133.2600 C   0  0  0  0  0  0  0  0  0  0  0  0
  144.8950  156.1450  133.4560 C   0  0  0  0  0  0  0  0  0  0  0  0
  145.2771  157.1590  133.6452 H   0  0  0  0  0  0  0  0  0  0  0  0
  141.7000  156.9170  134.8930 C   0  0  0  0  0  0  0  0  0  0  0  0
  142.3117  156.4419  135.6741 H   0  0  0  0  0  0  0  0  0  0  0  0
  140.7966  156.3063  134.7486 H   0  0  0  0  0  0  0  0  0  0  0  0
  1  2  1  0
  2  3  1  0
  3  4  1  1
  3  5  1  0
  5  6  1  0
  5  7  2  0
  7  8  1  0
  7  9  1  0
  9 10  1  0
  9 11  1  0
  9 12  1  0
 12 13  1  0
 13 14  1  0
 13 15  1  0
 13 16  1  0
 12 17  1  0
 17 18  1  0
 17 19  1  0
 17 20  1  0
  3 21  1  0
 21 22  1  0
 22 23  1  0
 22 24  1  0
 22 25  1  0
 25 26  1  0
 25 27  1  0
 25 28  1  0
 28 29  1  6
 28 30  1  0
 30 31  2  0
 31 32  1  0
 31 33  1  0
 33 34  1  0
 33 35  2  0
 35 36  1  0
 36 37  1  0
 36 38  2  0
 38 39  1  0
 39 40  2  0
 39 41  1  0
 41 42  1  0
 41 43  1  0
 38 44  1  0
 44 45  1  0
 45 46  2  0
 45 47  1  0
 47 48  1  0
 48 49  1  0
 48 50  1  0
 48 51  1  0
 44 52  1  0
 52 53  2  0
 53 54  1  0
 28 55  1  0
 55 56  1  0
 55 57  1  0
 55 21  1  0
 53 30  1  0
 52 35  1  0
M  END
>  <UniqueID>  (44) 
44

>  <SMILES>  (44) 
COC(=O)n1c(C(N)=O)cc2ccc([C@@H]3CCN([C@H](O)/C=C/CN(C)C)C3)cc21

>  <Energy>  (44) 
104.09939210034892

>  <Genealogy>  (44) 
COC(=O)n1c(C(N)=O)cc2ccc([C@@H]3CCN([C@H](O)/C=C/CN(C)C)C3)cc21 (chirality)
COC(=O)n1c(C(N)=O)cc2ccc([C@@H]3CCN([C@H](O)/C=C/CN(C)C)C3)cc21 (cis-trans isomerization)
COC(=O)n1c(C(N)=O)cc2ccc([C@@H]3CCN([C@H](O)/C=C/CN(C)C)C3)cc21 (3D coordinates assigned)
COC(=O)n1c(C(N)=O)cc2ccc([C@@H]3CCN([C@H](O)/C=C/CN(C)C)C3)cc21 (nonaromatic ring conformer: 104.09939210034892 kcal/mol)

>  <smiles>  (44) 
COC(=O)n1c(C(N)=O)cc2ccc(C3CCN(C(O)/C=C/CN(C)C)C3)cc21

>  <score_type>  (44) 
oracle

>  <origin>  (44) 
adg

>  <m_score__min__energy>  (44) 
-8.9299999999999997

>  <m_primary>  (44) 
energy

$$$$
44:0
     RDKit          3D

 42 44  0  0  0  0  0  0  0  0999 V2000
  138.2700  157.5760  133.4140 N   0  0  0  0  0  0  0  0  0  0  0  0
  139.1790  157.9680  134.4420 C   0  0  0  0  0  0  0  0  0  0  0  0
  138.7360  158.2230  135.5920 O   0  0  0  0  0  0  0  0  0  0  0  0
  140.6180  158.1120  134.1350 C   0  0  0  0  0  0  0  0  0  0  0  0
  141.2820  159.3380  134.1380 C   0  0  0  0  0  0  0  0  0  0  0  0
  142.6040  159.0360  133.9020 C   0  0  0  0  0  0  0  0  0  0  0  0
  143.7080  159.8760  133.7970 C   0  0  0  0  0  0  0  0  0  0  0  0
  144.9570  159.2920  133.5310 C   0  0  0  0  0  0  0  0  0  0  0  0
  145.0790  157.8890  133.3740 C   0  0  0  0  0  0  0  0  0  0  0  0
  146.4270  157.2750  133.0980 C   0  0  0  0  0  0  0  0  0  0  0  0
  147.6130  158.2100  133.4290 C   0  0  0  0  0  0  0  0  0  0  0  0
  148.2190  158.9260  132.2830 N   0  0  0  0  0  0  0  0  0  0  0  0
  149.6530  158.6500  132.0590 C   0  0  0  0  0  0  0  0  0  0  0  0
  150.2040  159.4340  130.8460 C   0  0  0  0  0  0  0  0  0  0  0  0
  149.0790  159.9810  129.9590 C   0  0  0  0  0  0  0  0  0  0  0  0
  148.1070  160.8650  130.7650 C   0  0  0  0  0  0  0  0  0  0  0  0
  147.9090  160.3640  132.2080 C   0  0  0  0  0  0  0  0  0  0  0  0
  143.9330  157.0690  133.4710 C   0  0  0  0  0  0  0  0  0  0  0  0
  142.7050  157.6760  133.7600 C   0  0  0  0  0  0  0  0  0  0  0  0
  141.4930  157.0940  133.8980 N   0  0  0  0  0  0  0  0  0  0  0  0
  141.1950  155.6950  133.7560 C   0  0  0  0  0  0  0  0  0  0  0  0
  141.9690  154.8280  134.2400 O   0  0  0  0  0  0  0  0  0  0  0  0
  140.0660  155.2840  133.0580 O   0  0  0  0  0  0  0  0  0  0  0  0
  138.3290  156.6290  132.9790 H   0  0  0  0  0  0  0  0  0  0  0  0
  140.8430  160.3342  134.2954 H   0  0  0  0  0  0  0  0  0  0  0  0
  143.6056  160.9645  133.9186 H   0  0  0  0  0  0  0  0  0  0  0  0
  145.8491  159.9296  133.4437 H   0  0  0  0  0  0  0  0  0  0  0  0
  146.5241  156.3624  133.7044 H   0  0  0  0  0  0  0  0  0  0  0  0
  146.4717  157.0672  132.0187 H   0  0  0  0  0  0  0  0  0  0  0  0
  147.2561  158.9644  134.1456 H   0  0  0  0  0  0  0  0  0  0  0  0
  148.4053  157.5545  133.8196 H   0  0  0  0  0  0  0  0  0  0  0  0
  150.2166  158.9414  132.9576 H   0  0  0  0  0  0  0  0  0  0  0  0
  149.7671  157.5755  131.8531 H   0  0  0  0  0  0  0  0  0  0  0  0
  150.8093  160.2763  131.2123 H   0  0  0  0  0  0  0  0  0  0  0  0
  150.8098  158.7435  130.2408 H   0  0  0  0  0  0  0  0  0  0  0  0
  149.5208  160.5807  129.1496 H   0  0  0  0  0  0  0  0  0  0  0  0
  148.5150  159.1295  129.5506 H   0  0  0  0  0  0  0  0  0  0  0  0
  148.5078  161.8888  130.7994 H   0  0  0  0  0  0  0  0  0  0  0  0
  147.1291  160.8290  130.2626 H   0  0  0  0  0  0  0  0  0  0  0  0
  148.5789  160.9178  132.8821 H   0  0  0  0  0  0  0  0  0  0  0  0
  146.8636  160.5267  132.5091 H   0  0  0  0  0  0  0  0  0  0  0  0
  144.0036  155.9813  133.3232 H   0  0  0  0  0  0  0  0  0  0  0  0
  1  2  1  0
  2  3  2  0
  2  4  1  0
  4  5  2  0
  5  6  1  0
  6  7  2  0
  7  8  1  0
  8  9  2  0
  9 10  1  0
 10 11  1  0
 11 12  1  0
 12 13  1  0
 13 14  1  0
 14 15  1  0
 15 16  1  0
 16 17  1  0
  9 18  1  0
 18 19  2  0
 19 20  1  0
 20 21  1  0
 21 22  2  0
 21 23  1  0
 20  4  1  0
 19  6  1  0
 17 12  1  0
  1 24  1  0
  5 25  1  0
  7 26  1  0
  8 27  1  0
 10 28  1  0
 10 29  1  0
 11 30  1  0
 11 31  1  0
 13 32  1  0
 13 33  1  0
 14 34  1  0
 14 35  1  0
 15 36  1  0
 15 37  1  0
 16 38  1  0
 16 39  1  0
 17 40  1  0
 17 41  1  0
 18 42  1  0
M  CHG  2   1  -1  23  -1
M  END
>  <UniqueID>  (45) 
45

>  <SMILES>  (45) 
[NH-]C(=O)c1cc2ccc(CCN3CCCCC3)cc2n1C(=O)[O-]

>  <Energy>  (45) 
90.09114260996877

>  <Genealogy>  (45) 
[NH-]C(=O)c1cc2ccc(CCN3CCCCC3)cc2n1C(=O)[O-] (protonated)
[NH-]C(=O)c1cc2ccc(CCN3CCCCC3)cc2n1C(=O)[O-] (3D coordinates assigned)
[NH-]C(=O)c1cc2ccc(CCN3CCCCC3)cc2n1C(=O)[O-] (nonaromatic ring conformer: 90.09114260996877 kcal/mol)

>  <smiles>  (45) 
NC(=O)c1cc2ccc(CCN3CCCCC3)cc2n1C(=O)O

>  <score_type>  (45) 
oracle

>  <origin>  (45) 
adg

>  <m_score__min__energy>  (45) 
-7.9500000000000002

>  <m_primary>  (45) 
energy

$$$$
45:0
     RDKit          3D

 47 49  0  0  0  0  0  0  0  0999 V2000
  140.4090  148.0720  131.2110 C   0  0  0  0  0  0  0  0  0  0  0  0
  141.0970  148.6940  132.3530 N   0  0  0  0  0  0  0  0  0  0  0  0
  140.1730  149.5770  133.0970 C   0  0  0  0  0  0  0  0  0  0  0  0
  139.7810  150.8170  132.2670 C   0  0  0  0  0  0  0  0  0  0  0  0
  140.5920  152.0820  132.6090 C   0  0  0  0  0  0  0  0  0  0  0  0
  142.0440  151.9190  132.3780 N   0  0  0  0  0  0  0  0  0  0  0  0
  142.8350  153.1410  132.6340 C   0  0  0  0  0  0  0  0  0  0  0  0
  142.0900  154.1880  133.4790 C   0  0  0  0  0  0  0  0  0  0  0  0
  142.3190  153.9420  134.9460 C   0  0  0  0  0  0  0  0  0  0  0  0
  143.2280  154.7530  135.6680 C   0  0  0  0  0  0  0  0  0  0  0  0
  143.4860  154.5060  137.0270 C   0  0  0  0  0  0  0  0  0  0  0  0
  142.8240  153.4420  137.6320 C   0  0  0  0  0  0  0  0  0  0  0  0
  142.9110  152.9640  138.9190 C   0  0  0  0  0  0  0  0  0  0  0  0
  142.0460  151.8730  138.9680 C   0  0  0  0  0  0  0  0  0  0  0  0
  141.7680  151.1130  140.2040 C   0  0  0  0  0  0  0  0  0  0  0  0
  140.4740  151.1320  140.8010 N   0  0  0  0  0  0  0  0  0  0  0  0
  142.6990  150.4770  140.7690 O   0  0  0  0  0  0  0  0  0  0  0  0
  141.4530  151.6770  137.7560 N   0  0  0  0  0  0  0  0  0  0  0  0
  140.5770  150.6060  137.3700 C   0  0  0  0  0  0  0  0  0  0  0  0
  139.7390  150.1420  138.1860 O   0  0  0  0  0  0  0  0  0  0  0  0
  140.6250  150.0920  136.0790 O   0  0  0  0  0  0  0  0  0  0  0  0
  141.9370  152.6490  136.9500 C   0  0  0  0  0  0  0  0  0  0  0  0
  141.6750  152.8620  135.5910 C   0  0  0  0  0  0  0  0  0  0  0  0
  142.6910  150.6380  132.7460 C   0  0  0  0  0  0  0  0  0  0  0  0
  142.2990  149.4120  131.8830 C   0  0  0  0  0  0  0  0  0  0  0  0
  139.6404  147.3771  131.5802 H   0  0  0  0  0  0  0  0  0  0  0  0
  139.9338  148.8532  130.5995 H   0  0  0  0  0  0  0  0  0  0  0  0
  141.1384  147.5207  130.5995 H   0  0  0  0  0  0  0  0  0  0  0  0
  139.2627  149.0121  133.3466 H   0  0  0  0  0  0  0  0  0  0  0  0
  140.6843  149.9205  134.0084 H   0  0  0  0  0  0  0  0  0  0  0  0
  139.9356  150.5841  131.2031 H   0  0  0  0  0  0  0  0  0  0  0  0
  138.7300  151.0391  132.5036 H   0  0  0  0  0  0  0  0  0  0  0  0
  140.2286  152.9108  131.9836 H   0  0  0  0  0  0  0  0  0  0  0  0
  140.4504  152.2832  133.6811 H   0  0  0  0  0  0  0  0  0  0  0  0
  143.7549  152.8554  133.1652 H   0  0  0  0  0  0  0  0  0  0  0  0
  143.0434  153.6022  131.6573 H   0  0  0  0  0  0  0  0  0  0  0  0
  142.4578  155.1915  133.2186 H   0  0  0  0  0  0  0  0  0  0  0  0
  141.0127  154.1126  133.2698 H   0  0  0  0  0  0  0  0  0  0  0  0
  143.7374  155.5850  135.1597 H   0  0  0  0  0  0  0  0  0  0  0  0
  144.1888  155.1337  137.5945 H   0  0  0  0  0  0  0  0  0  0  0  0
  143.5320  153.3595  139.7363 H   0  0  0  0  0  0  0  0  0  0  0  0
  139.6380  150.7820  140.2820 H   0  0  0  0  0  0  0  0  0  0  0  0
  140.9857  152.2056  135.0397 H   0  0  0  0  0  0  0  0  0  0  0  0
  143.7795  150.7740  132.6644 H   0  0  0  0  0  0  0  0  0  0  0  0
  142.3437  150.4097  133.7645 H   0  0  0  0  0  0  0  0  0  0  0  0
  142.1125  149.7596  130.8562 H   0  0  0  0  0  0  0  0  0  0  0  0
  143.1355  148.7008  131.9498 H   0  0  0  0  0  0  0  0  0  0  0  0
  1  2  1  0
  2  3  1  0
  3  4  1  0
  4  5  1  0
  5  6  1  0
  6  7  1  0
  7  8  1  0
  8  9  1  0
  9 10  2  0
 10 11  1  0
 11 12  2  0
 12 13  1  0
 13 14  2  0
 14 15  1  0
 15 16  1  0
 15 17  2  0
 14 18  1  0
 18 19  1  0
 19 20  2  0
 19 21  1  0
 18 22  1  0
 22 23  2  0
  6 24  1  0
 24 25  1  0
 25  2  1  0
 23  9  1  0
 22 12  1  0
  1 26  1  0
  1 27  1  0
  1 28  1  0
  3 29  1  0
  3 30  1  0
  4 31  1  0
  4 32  1  0
  5 33  1  0
  5 34  1  0
  7 35  1  0
  7 36  1  0
  8 37  1  0
  8 38  1  0
 10 39  1  0
 11 40  1  0
 13 41  1  0
 16 42  1  0
 23 43  1  0
 24 44  1  0
 24 45  1  0
 25 46  1  0
 25 47  1  0
M  CHG  2  16  -1  21  -1
M  END
>  <UniqueID>  (46) 
46

>  <SMILES>  (46) 
CN1CCCN(CCc2ccc3cc(C([NH-])=O)n(C(=O)[O-])c3c2)CC1

>  <Energy>  (46) 
105.9683753393404

>  <Genealogy>  (46) 
CN1CCCN(CCc2ccc3cc(C([NH-])=O)n(C(=O)[O-])c3c2)CC1 (protonated)
CN1CCCN(CCc2ccc3cc(C([NH-])=O)n(C(=O)[O-])c3c2)CC1 (3D coordinates assigned)
CN1CCCN(CCc2ccc3cc(C([NH-])=O)n(C(=O)[O-])c3c2)CC1 (nonaromatic ring conformer: 105.9683753393404 kcal/mol)

>  <smiles>  (46) 
CN1CCCN(CCc2ccc3cc(C(N)=O)n(C(=O)O)c3c2)CC1

>  <score_type>  (46) 
oracle

>  <origin>  (46) 
adg

>  <m_score__min__energy>  (46) 
-5.8399999999999999

>  <m_primary>  (46) 
energy

$$$$
46:0
     RDKit          3D

 31 33  0  0  0  0  0  0  0  0999 V2000
  147.6320  152.6160  132.6090 N   0  0  0  0  0  0  0  0  0  0  0  0
  148.6480  153.6690  132.6280 C   0  0  0  0  0  0  0  0  0  0  0  0
  149.7900  153.2110  132.4920 O   0  0  0  0  0  0  0  0  0  0  0  0
  148.2070  155.0270  132.7930 C   0  0  0  0  0  0  0  0  0  0  0  0
  149.1100  156.0980  132.6190 C   0  0  0  0  0  0  0  0  0  0  0  0
  148.4300  157.2570  132.8270 C   0  0  0  0  0  0  0  0  0  0  0  0
  148.8650  158.5590  132.7750 C   0  0  0  0  0  0  0  0  0  0  0  0
  148.0000  159.5990  133.0240 C   0  0  0  0  0  0  0  0  0  0  0  0
  146.7100  159.2990  133.3210 C   0  0  0  0  0  0  0  0  0  0  0  0
  145.7630  160.3870  133.5910 C   0  0  0  0  0  0  0  0  0  0  0  0
  144.4350  160.3580  133.3970 N   0  0  0  0  0  0  0  0  0  0  0  0
  143.9540  161.5300  133.7610 O   0  0  0  0  0  0  0  0  0  0  0  0
  144.9270  162.3030  134.1800 C   0  0  0  0  0  0  0  0  0  0  0  0
  144.8840  163.4870  134.6100 O   0  0  0  0  0  0  0  0  0  0  0  0
  146.0830  161.6080  134.0830 N   0  0  0  0  0  0  0  0  0  0  0  0
  146.2840  157.9800  133.3710 C   0  0  0  0  0  0  0  0  0  0  0  0
  147.1320  156.9110  133.1250 C   0  0  0  0  0  0  0  0  0  0  0  0
  146.9920  155.5430  133.1040 N   0  0  0  0  0  0  0  0  0  0  0  0
  145.7690  154.9340  133.3680 C   0  0  0  0  0  0  0  0  0  0  0  0
  145.3870  154.0630  132.4740 O   0  0  0  0  0  0  0  0  0  0  0  0
  144.7910  155.0460  134.4400 C   0  0  0  0  0  0  0  0  0  0  0  0
  145.5920  155.1930  135.6570 F   0  0  0  0  0  0  0  0  0  0  0  0
  144.0360  156.1950  134.4210 F   0  0  0  0  0  0  0  0  0  0  0  0
  144.0600  153.9430  134.7380 F   0  0  0  0  0  0  0  0  0  0  0  0
  147.6620  151.8910  133.3620 H   0  0  0  0  0  0  0  0  0  0  0  0
  146.9080  152.6180  131.8480 H   0  0  0  0  0  0  0  0  0  0  0  0
  150.1757  156.0104  132.3607 H   0  0  0  0  0  0  0  0  0  0  0  0
  149.9164  158.7721  132.5316 H   0  0  0  0  0  0  0  0  0  0  0  0
  148.3436  160.6432  132.9836 H   0  0  0  0  0  0  0  0  0  0  0  0
  147.0380  161.9730  134.3500 H   0  0  0  0  0  0  0  0  0  0  0  0
  145.2315  157.7738  133.6155 H   0  0  0  0  0  0  0  0  0  0  0  0
  1  2  1  0
  2  3  2  0
  2  4  1  0
  4  5  2  0
  5  6  1  0
  6  7  2  0
  7  8  1  0
  8  9  2  0
  9 10  1  0
 10 11  2  0
 11 12  1  0
 12 13  1  0
 13 14  2  0
 13 15  1  0
  9 16  1  0
 16 17  2  0
 17 18  1  0
 18 19  1  0
 19 20  2  0
 19 21  1  0
 21 22  1  0
 21 23  1  0
 21 24  1  0
 18  4  1  0
 17  6  1  0
 15 10  1  0
  1 25  1  0
  1 26  1  0
  5 27  1  0
  7 28  1  0
  8 29  1  0
 15 30  1  0
 16 31  1  0
M  END
>  <smiles>  (47) 
NC(=O)c1cc2ccc(-c3noc(=O)[nH]3)cc2n1C(=O)C(F)(F)F

>  <score_type>  (47) 
oracle

>  <origin>  (47) 
adg

>  <m_score__min__energy>  (47) 
-7.3300000000000001

>  <m_primary>  (47) 
energy

$$$$
47:0
     RDKit          3D

 34 35  0  0  0  0  0  0  0  0999 V2000
  140.9590  159.1220  137.1090 C   0  0  0  0  0  0  0  0  0  0  0  0
  140.7960  159.9560  135.9670 O   0  0  0  0  0  0  0  0  0  0  0  0
  141.2520  159.5910  134.6980 C   0  0  0  0  0  0  0  0  0  0  0  0
  140.7720  160.1280  133.6620 O   0  0  0  0  0  0  0  0  0  0  0  0
  142.2820  158.5160  134.5690 C   0  0  0  0  0  0  0  0  0  0  0  0
  143.5870  159.1080  134.1130 C   0  0  0  0  0  0  0  0  0  0  0  0
  143.7690  160.5130  134.1140 C   0  0  0  0  0  0  0  0  0  0  0  0
  144.9990  161.0750  133.7350 C   0  0  0  0  0  0  0  0  0  0  0  0
  146.0240  160.2110  133.3630 C   0  0  0  0  0  0  0  0  0  0  0  0
  147.3180  160.4850  132.9840 C   0  0  0  0  0  0  0  0  0  0  0  0
  147.9050  159.2440  132.7450 C   0  0  0  0  0  0  0  0  0  0  0  0
  149.2810  159.0820  132.2300 C   0  0  0  0  0  0  0  0  0  0  0  0
  149.8410  157.7870  132.0290 N   0  0  0  0  0  0  0  0  0  0  0  0
  149.9540  160.1000  131.9190 O   0  0  0  0  0  0  0  0  0  0  0  0
  147.0100  158.2400  132.9760 N   0  0  0  0  0  0  0  0  0  0  0  0
  147.2410  156.8240  132.9280 C   0  0  0  0  0  0  0  0  0  0  0  0
  147.3590  156.2420  131.8150 O   0  0  0  0  0  0  0  0  0  0  0  0
  147.3600  156.0990  134.1180 O   0  0  0  0  0  0  0  0  0  0  0  0
  147.7280  154.7260  134.1460 C   0  0  0  0  0  0  0  0  0  0  0  0
  145.8630  158.8490  133.3500 C   0  0  0  0  0  0  0  0  0  0  0  0
  144.6540  158.2610  133.7410 C   0  0  0  0  0  0  0  0  0  0  0  0
  140.8414  159.7237  138.0223 H   0  0  0  0  0  0  0  0  0  0  0  0
  140.1993  158.3266  137.0936 H   0  0  0  0  0  0  0  0  0  0  0  0
  141.9622  158.6712  137.0936 H   0  0  0  0  0  0  0  0  0  0  0  0
  142.4241  158.0283  135.5447 H   0  0  0  0  0  0  0  0  0  0  0  0
  141.9422  157.7765  133.8290 H   0  0  0  0  0  0  0  0  0  0  0  0
  142.9393  161.1698  134.4144 H   0  0  0  0  0  0  0  0  0  0  0  0
  145.1474  162.1649  133.7324 H   0  0  0  0  0  0  0  0  0  0  0  0
  147.7894  161.4744  132.8896 H   0  0  0  0  0  0  0  0  0  0  0  0
  149.3310  157.0610  131.4790 H   0  0  0  0  0  0  0  0  0  0  0  0
  147.8176  154.3916  135.1901 H   0  0  0  0  0  0  0  0  0  0  0  0
  146.9580  154.1295  133.6348 H   0  0  0  0  0  0  0  0  0  0  0  0
  148.6931  154.5946  133.6348 H   0  0  0  0  0  0  0  0  0  0  0  0
  144.5382  157.1672  133.7580 H   0  0  0  0  0  0  0  0  0  0  0  0
  1  2  1  0
  2  3  1  0
  3  4  2  0
  3  5  1  0
  5  6  1  0
  6  7  2  0
  7  8  1  0
  8  9  2  0
  9 10  1  0
 10 11  2  0
 11 12  1  0
 12 13  1  0
 12 14  2  0
 11 15  1  0
 15 16  1  0
 16 17  2  0
 16 18  1  0
 18 19  1  0
 15 20  1  0
 20 21  2  0
 21  6  1  0
 20  9  1  0
  1 22  1  0
  1 23  1  0
  1 24  1  0
  5 25  1  0
  5 26  1  0
  7 27  1  0
  8 28  1  0
 10 29  1  0
 13 30  1  0
 19 31  1  0
 19 32  1  0
 19 33  1  0
 21 34  1  0
M  CHG  1  13  -1
M  END
>  <UniqueID>  (48) 
47

>  <SMILES>  (48) 
COC(=O)Cc1ccc2cc(C([NH-])=O)n(C(=O)OC)c2c1

>  <Energy>  (48) 
67.20466930778588

>  <Genealogy>  (48) 
COC(=O)Cc1ccc2cc(C([NH-])=O)n(C(=O)OC)c2c1 (protonated)
COC(=O)Cc1ccc2cc(C([NH-])=O)n(C(=O)OC)c2c1 (3D coordinates assigned)
COC(=O)Cc1ccc2cc(C([NH-])=O)n(C(=O)OC)c2c1 (optimized conformer: 67.20466930778588 kcal/mol)

>  <smiles>  (48) 
COC(=O)Cc1ccc2cc(C(N)=O)n(C(=O)OC)c2c1

>  <score_type>  (48) 
oracle

>  <origin>  (48) 
adg

>  <m_score__min__energy>  (48) 
-5.9400000000000004

>  <m_primary>  (48) 
energy

$$$$
48:0
     RDKit          3D

 35 37  0  0  0  0  0  0  0  0999 V2000
  149.8870  157.8510  132.2020 N   0  0  0  0  0  0  0  0  0  0  0  0
  149.2200  159.1100  132.1740 C   0  0  0  0  0  0  0  0  0  0  0  0
  149.8100  160.1070  131.6770 O   0  0  0  0  0  0  0  0  0  0  0  0
  147.8350  159.2540  132.6710 C   0  0  0  0  0  0  0  0  0  0  0  0
  147.2640  160.4840  132.9900 C   0  0  0  0  0  0  0  0  0  0  0  0
  145.9670  160.2040  133.3500 C   0  0  0  0  0  0  0  0  0  0  0  0
  144.9560  161.0580  133.7740 C   0  0  0  0  0  0  0  0  0  0  0  0
  143.7170  160.4960  134.1160 C   0  0  0  0  0  0  0  0  0  0  0  0
  143.5080  159.0920  134.0370 C   0  0  0  0  0  0  0  0  0  0  0  0
  142.1750  158.4800  134.4210 C   0  0  0  0  0  0  0  0  0  0  0  0
  141.7570  158.8670  135.8560 C   0  0  0  0  0  0  0  0  0  0  0  0
  140.2430  158.6800  136.0670 C   0  0  0  0  0  0  0  0  0  0  0  0
  139.7230  157.7150  135.1740 O   0  0  0  0  0  0  0  0  0  0  0  0
  139.7130  158.2280  133.8510 C   0  0  0  0  0  0  0  0  0  0  0  0
  141.0660  158.8430  133.4190 C   0  0  0  0  0  0  0  0  0  0  0  0
  144.5660  158.2570  133.6050 C   0  0  0  0  0  0  0  0  0  0  0  0
  145.7870  158.8480  133.2500 C   0  0  0  0  0  0  0  0  0  0  0  0
  146.9280  158.2490  132.8330 N   0  0  0  0  0  0  0  0  0  0  0  0
  147.1640  156.8380  132.6780 C   0  0  0  0  0  0  0  0  0  0  0  0
  147.8690  156.2040  133.5050 O   0  0  0  0  0  0  0  0  0  0  0  0
  149.7300  157.1780  132.9840 H   0  0  0  0  0  0  0  0  0  0  0  0
  147.7486  161.4710  132.9602 H   0  0  0  0  0  0  0  0  0  0  0  0
  145.1225  162.1433  133.8396 H   0  0  0  0  0  0  0  0  0  0  0  0
  142.8973  161.1495  134.4493 H   0  0  0  0  0  0  0  0  0  0  0  0
  142.3130  157.3891  134.3907 H   0  0  0  0  0  0  0  0  0  0  0  0
  142.2997  158.2314  136.5711 H   0  0  0  0  0  0  0  0  0  0  0  0
  142.0015  159.9277  136.0149 H   0  0  0  0  0  0  0  0  0  0  0  0
  140.0619  158.3487  137.1002 H   0  0  0  0  0  0  0  0  0  0  0  0
  139.7411  159.6402  135.8770 H   0  0  0  0  0  0  0  0  0  0  0  0
  139.4669  157.4075  133.1609 H   0  0  0  0  0  0  0  0  0  0  0  0
  138.9659  159.0348  133.8216 H   0  0  0  0  0  0  0  0  0  0  0  0
  141.3370  158.4567  132.4254 H   0  0  0  0  0  0  0  0  0  0  0  0
  140.9623  159.9377  133.3887 H   0  0  0  0  0  0  0  0  0  0  0  0
  144.4331  157.1665  133.5489 H   0  0  0  0  0  0  0  0  0  0  0  0
  146.7212  156.3055  131.8233 H   0  0  0  0  0  0  0  0  0  0  0  0
  1  2  1  0
  2  3  2  0
  2  4  1  0
  4  5  2  0
  5  6  1  0
  6  7  2  0
  7  8  1  0
  8  9  2  0
  9 10  1  0
 10 11  1  0
 11 12  1  0
 12 13  1  0
 13 14  1  0
 14 15  1  0
  9 16  1  0
 16 17  2  0
 17 18  1  0
 18 19  1  0
 19 20  2  0
 18  4  1  0
 17  6  1  0
 15 10  1  0
  1 21  1  0
  5 22  1  0
  7 23  1  0
  8 24  1  0
 10 25  1  0
 11 26  1  0
 11 27  1  0
 12 28  1  0
 12 29  1  0
 14 30  1  0
 14 31  1  0
 15 32  1  0
 15 33  1  0
 16 34  1  0
 19 35  1  0
M  CHG  1   1  -1
M  END
>  <UniqueID>  (49) 
48

>  <SMILES>  (49) 
[NH-]C(=O)c1cc2ccc(C3CCOCC3)cc2n1C=O

>  <Energy>  (49) 
82.09654305096244

>  <Genealogy>  (49) 
[NH-]C(=O)c1cc2ccc(C3CCOCC3)cc2n1C=O (protonated)
[NH-]C(=O)c1cc2ccc(C3CCOCC3)cc2n1C=O (3D coordinates assigned)
[NH-]C(=O)c1cc2ccc(C3CCOCC3)cc2n1C=O (nonaromatic ring conformer: 82.09654305096244 kcal/mol)

>  <smiles>  (49) 
NC(=O)c1cc2ccc(C3CCOCC3)cc2n1C=O

>  <score_type>  (49) 
oracle

>  <origin>  (49) 
adg

>  <m_score__min__energy>  (49) 
-7.0800000000000001

>  <m_primary>  (49) 
energy

$$$$
49:0
     RDKit          3D

 42 44  0  0  0  0  0  0  0  0999 V2000
  138.3750  157.0720  133.3630 N   0  0  0  0  0  0  0  0  0  0  0  0
  139.2560  157.7190  134.2810 C   0  0  0  0  0  0  0  0  0  0  0  0
  138.7800  158.2700  135.3100 O   0  0  0  0  0  0  0  0  0  0  0  0
  140.7190  157.6980  134.0820 C   0  0  0  0  0  0  0  0  0  0  0  0
  141.4930  158.8500  133.9790 C   0  0  0  0  0  0  0  0  0  0  0  0
  142.7900  158.4060  133.8650 C   0  0  0  0  0  0  0  0  0  0  0  0
  143.9700  159.1270  133.7110 C   0  0  0  0  0  0  0  0  0  0  0  0
  145.1680  158.4090  133.5720 C   0  0  0  0  0  0  0  0  0  0  0  0
  145.1650  156.9910  133.5870 C   0  0  0  0  0  0  0  0  0  0  0  0
  146.4490  156.2340  133.3840 C   0  0  0  0  0  0  0  0  0  0  0  0
  147.3480  156.9630  132.3760 C   0  0  0  0  0  0  0  0  0  0  0  0
  148.3480  157.9030  133.0620 C   0  0  0  0  0  0  0  0  0  0  0  0
  148.6860  159.0440  132.2080 N   0  0  0  0  0  0  0  0  0  0  0  0
  149.5880  158.9840  131.0720 C   0  0  0  0  0  0  0  0  0  0  0  0
  149.6290  160.4100  130.4870 C   0  0  0  0  0  0  0  0  0  0  0  0
  148.5420  161.2280  131.2010 C   0  0  0  0  0  0  0  0  0  0  0  0
  148.0760  160.3190  132.2650 C   0  0  0  0  0  0  0  0  0  0  0  0
  147.2120  160.6330  133.1250 O   0  0  0  0  0  0  0  0  0  0  0  0
  143.9470  156.2930  133.7300 C   0  0  0  0  0  0  0  0  0  0  0  0
  142.7690  157.0340  133.8900 C   0  0  0  0  0  0  0  0  0  0  0  0
  141.5010  156.5830  134.0190 N   0  0  0  0  0  0  0  0  0  0  0  0
  141.0670  155.2120  133.9750 C   0  0  0  0  0  0  0  0  0  0  0  0
  141.6010  154.3520  134.7230 O   0  0  0  0  0  0  0  0  0  0  0  0
  140.0530  154.8210  133.1090 O   0  0  0  0  0  0  0  0  0  0  0  0
  137.3410  157.1300  133.4990 H   0  0  0  0  0  0  0  0  0  0  0  0
  138.7450  156.4660  132.5970 H   0  0  0  0  0  0  0  0  0  0  0  0
  141.1426  159.8927  133.9870 H   0  0  0  0  0  0  0  0  0  0  0  0
  143.9642  160.2269  133.6985 H   0  0  0  0  0  0  0  0  0  0  0  0
  146.1175  158.9509  133.4504 H   0  0  0  0  0  0  0  0  0  0  0  0
  146.9764  156.1509  134.3458 H   0  0  0  0  0  0  0  0  0  0  0  0
  146.2143  155.2329  132.9931 H   0  0  0  0  0  0  0  0  0  0  0  0
  147.9070  156.2149  131.7947 H   0  0  0  0  0  0  0  0  0  0  0  0
  146.7017  157.5735  131.7283 H   0  0  0  0  0  0  0  0  0  0  0  0
  147.9045  158.2756  133.9971 H   0  0  0  0  0  0  0  0  0  0  0  0
  149.2701  157.3380  133.2634 H   0  0  0  0  0  0  0  0  0  0  0  0
  150.5924  158.6751  131.3972 H   0  0  0  0  0  0  0  0  0  0  0  0
  149.2477  158.2515  130.3253 H   0  0  0  0  0  0  0  0  0  0  0  0
  150.6166  160.8611  130.6636 H   0  0  0  0  0  0  0  0  0  0  0  0
  149.4521  160.3909  129.4015 H   0  0  0  0  0  0  0  0  0  0  0  0
  148.9604  162.1517  131.6273 H   0  0  0  0  0  0  0  0  0  0  0  0
  147.7347  161.5511  130.5273 H   0  0  0  0  0  0  0  0  0  0  0  0
  143.9231  155.1933  133.7162 H   0  0  0  0  0  0  0  0  0  0  0  0
  1  2  1  0
  2  3  2  0
  2  4  1  0
  4  5  2  0
  5  6  1  0
  6  7  2  0
  7  8  1  0
  8  9  2  0
  9 10  1  0
 10 11  1  0
 11 12  1  0
 12 13  1  0
 13 14  1  0
 14 15  1  0
 15 16  1  0
 16 17  1  0
 17 18  2  0
  9 19  1  0
 19 20  2  0
 20 21  1  0
 21 22  1  0
 22 23  2  0
 22 24  1  0
 21  4  1  0
 20  6  1  0
 17 13  1  0
  1 25  1  0
  1 26  1  0
  5 27  1  0
  7 28  1  0
  8 29  1  0
 10 30  1  0
 10 31  1  0
 11 32  1  0
 11 33  1  0
 12 34  1  0
 12 35  1  0
 14 36  1  0
 14 37  1  0
 15 38  1  0
 15 39  1  0
 16 40  1  0
 16 41  1  0
 19 42  1  0
M  CHG  1  24  -1
M  END
>  <UniqueID>  (50) 
49

>  <SMILES>  (50) 
NC(=O)c1cc2ccc(CCCN3CCCC3=O)cc2n1C(=O)[O-]

>  <Energy>  (50) 
83.41447695865124

>  <Genealogy>  (50) 
NC(=O)c1cc2ccc(CCCN3CCCC3=O)cc2n1C(=O)[O-] (protonated)
NC(=O)c1cc2ccc(CCCN3CCCC3=O)cc2n1C(=O)[O-] (3D coordinates assigned)
NC(=O)c1cc2ccc(CCCN3CCCC3=O)cc2n1C(=O)[O-] (nonaromatic ring conformer: 83.41447695865124 kcal/mol)

>  <smiles>  (50) 
NC(=O)c1cc2ccc(CCCN3CCCC3=O)cc2n1C(=O)O

>  <score_type>  (50) 
oracle

>  <origin>  (50) 
adg

>  <m_score__min__energy>  (50) 
-7.7400000000000002

>  <m_primary>  (50) 
energy

$$$$
50:0
     RDKit          3D

 46 48  0  0  0  0  0  0  0  0999 V2000
  148.4970  158.3110  134.2760 C   0  0  0  0  0  0  0  0  0  0  0  0
  148.4840  158.6810  132.8560 N   0  0  0  0  0  0  0  0  0  0  0  0
  149.2060  157.8630  131.8760 C   0  0  0  0  0  0  0  0  0  0  0  0
  147.7740  159.8550  132.4040 C   0  0  0  0  0  0  0  0  0  0  0  0
  147.8160  160.1740  131.1830 O   0  0  0  0  0  0  0  0  0  0  0  0
  147.0060  160.7230  133.3750 C   0  0  0  0  0  0  0  0  0  0  0  0
  145.5710  160.2870  133.5280 C   0  0  0  0  0  0  0  0  0  0  0  0
  144.5640  161.2400  133.8270 C   0  0  0  0  0  0  0  0  0  0  0  0
  143.2190  160.8480  133.9440 C   0  0  0  0  0  0  0  0  0  0  0  0
  142.9120  159.5060  133.7450 C   0  0  0  0  0  0  0  0  0  0  0  0
  141.7000  158.8530  133.8030 C   0  0  0  0  0  0  0  0  0  0  0  0
  141.9860  157.5190  133.5140 C   0  0  0  0  0  0  0  0  0  0  0  0
  140.9550  156.4630  133.4130 C   0  0  0  0  0  0  0  0  0  0  0  0
  141.3190  155.0890  133.3130 N   0  0  0  0  0  0  0  0  0  0  0  0
  139.7360  156.7810  133.3870 O   0  0  0  0  0  0  0  0  0  0  0  0
  143.3210  157.3550  133.2980 N   0  0  0  0  0  0  0  0  0  0  0  0
  144.0320  156.1420  133.0130 C   0  0  0  0  0  0  0  0  0  0  0  0
  143.8950  155.6040  131.8810 O   0  0  0  0  0  0  0  0  0  0  0  0
  144.9460  155.5380  134.0140 C   0  0  0  0  0  0  0  0  0  0  0  0
  146.3350  155.7240  133.9110 C   0  0  0  0  0  0  0  0  0  0  0  0
  147.2010  155.1550  134.8490 C   0  0  0  0  0  0  0  0  0  0  0  0
  146.6960  154.3910  135.9130 C   0  0  0  0  0  0  0  0  0  0  0  0
  147.6160  153.7890  136.9040 C   0  0  0  0  0  0  0  0  0  0  0  0
  147.4390  152.6080  137.3080 O   0  0  0  0  0  0  0  0  0  0  0  0
  148.6880  154.5190  137.4050 O   0  0  0  0  0  0  0  0  0  0  0  0
  145.3060  154.2110  136.0230 C   0  0  0  0  0  0  0  0  0  0  0  0
  144.4410  154.7800  135.0840 C   0  0  0  0  0  0  0  0  0  0  0  0
  143.8710  158.5780  133.4350 C   0  0  0  0  0  0  0  0  0  0  0  0
  145.2180  158.9350  133.3210 C   0  0  0  0  0  0  0  0  0  0  0  0
  148.4650  159.2215  134.8924 H   0  0  0  0  0  0  0  0  0  0  0  0
  147.6203  157.6856  134.5000 H   0  0  0  0  0  0  0  0  0  0  0  0
  149.4155  157.7486  134.5000 H   0  0  0  0  0  0  0  0  0  0  0  0
  149.8451  157.1389  132.4025 H   0  0  0  0  0  0  0  0  0  0  0  0
  148.4838  157.3239  131.2452 H   0  0  0  0  0  0  0  0  0  0  0  0
  149.8306  158.5126  131.2452 H   0  0  0  0  0  0  0  0  0  0  0  0
  147.4969  160.6723  134.3581 H   0  0  0  0  0  0  0  0  0  0  0  0
  147.0033  161.7485  132.9770 H   0  0  0  0  0  0  0  0  0  0  0  0
  144.8380  162.2959  133.9687 H   0  0  0  0  0  0  0  0  0  0  0  0
  142.4339  161.5797  134.1854 H   0  0  0  0  0  0  0  0  0  0  0  0
  140.7165  159.2907  134.0291 H   0  0  0  0  0  0  0  0  0  0  0  0
  142.0310  154.7710  132.6200 H   0  0  0  0  0  0  0  0  0  0  0  0
  146.7447  156.3231  133.0844 H   0  0  0  0  0  0  0  0  0  0  0  0
  148.2862  155.3069  134.7528 H   0  0  0  0  0  0  0  0  0  0  0  0
  144.8962  153.6181  136.8540 H   0  0  0  0  0  0  0  0  0  0  0  0
  143.3554  154.6331  135.1835 H   0  0  0  0  0  0  0  0  0  0  0  0
  145.9826  158.1829  133.0766 H   0  0  0  0  0  0  0  0  0  0  0  0
  1  2  1  0
  2  3  1  0
  2  4  1  0
  4  5  2  0
  4  6  1  0
  6  7  1  0
  7  8  2  0
  8  9  1  0
  9 10  2  0
 10 11  1  0
 11 12  2  0
 12 13  1  0
 13 14  1  0
 13 15  2  0
 12 16  1  0
 16 17  1  0
 17 18  2  0
 17 19  1  0
 19 20  2  0
 20 21  1  0
 21 22  2  0
 22 23  1  0
 23 24  2  0
 23 25  1  0
 22 26  1  0
 26 27  2  0
 16 28  1  0
 28 29  2  0
 29  7  1  0
 28 10  1  0
 27 19  1  0
  1 30  1  0
  1 31  1  0
  1 32  1  0
  3 33  1  0
  3 34  1  0
  3 35  1  0
  6 36  1  0
  6 37  1  0
  8 38  1  0
  9 39  1  0
 11 40  1  0
 14 41  1  0
 20 42  1  0
 21 43  1  0
 26 44  1  0
 27 45  1  0
 29 46  1  0
M  CHG  2  14  -1  25  -1
M  END
>  <UniqueID>  (51) 
50

>  <SMILES>  (51) 
CN(C)C(=O)Cc1ccc2cc(C([NH-])=O)n(C(=O)c3ccc(C(=O)[O-])cc3)c2c1

>  <Energy>  (51) 
87.6694699512089

>  <Genealogy>  (51) 
CN(C)C(=O)Cc1ccc2cc(C([NH-])=O)n(C(=O)c3ccc(C(=O)[O-])cc3)c2c1 (protonated)
CN(C)C(=O)Cc1ccc2cc(C([NH-])=O)n(C(=O)c3ccc(C(=O)[O-])cc3)c2c1 (3D coordinates assigned)
CN(C)C(=O)Cc1ccc2cc(C([NH-])=O)n(C(=O)c3ccc(C(=O)[O-])cc3)c2c1 (optimized conformer: 87.6694699512089 kcal/mol)

>  <smiles>  (51) 
CN(C)C(=O)Cc1ccc2cc(C(N)=O)n(C(=O)c3ccc(C(=O)O)cc3)c2c1

>  <score_type>  (51) 
oracle

>  <origin>  (51) 
adg

>  <m_score__min__energy>  (51) 
-8.5999999999999996

>  <m_primary>  (51) 
energy

$$$$
51:0
     RDKit          3D

 36 37  0  0  0  0  0  0  0  0999 V2000
  149.5920  162.0520  130.2530 C   0  0  0  0  0  0  0  0  0  0  0  0
  149.6080  160.6160  130.7950 C   0  0  0  0  0  0  0  0  0  0  0  0
  149.2290  159.6410  129.6670 C   0  0  0  0  0  0  0  0  0  0  0  0
  148.6560  160.4800  132.0130 C   0  0  0  0  0  0  0  0  0  0  0  0
  148.6930  159.0900  132.6730 C   0  0  0  0  0  0  0  0  0  0  0  0
  147.3210  158.5740  133.0180 C   0  0  0  0  0  0  0  0  0  0  0  0
  147.0780  157.1780  133.0770 C   0  0  0  0  0  0  0  0  0  0  0  0
  145.7920  156.6870  133.3580 C   0  0  0  0  0  0  0  0  0  0  0  0
  144.7750  157.6120  133.5800 C   0  0  0  0  0  0  0  0  0  0  0  0
  143.4400  157.4110  133.8410 C   0  0  0  0  0  0  0  0  0  0  0  0
  142.8900  158.6850  133.9600 C   0  0  0  0  0  0  0  0  0  0  0  0
  141.4790  158.9310  134.3240 C   0  0  0  0  0  0  0  0  0  0  0  0
  141.1590  159.9400  135.2800 N   0  0  0  0  0  0  0  0  0  0  0  0
  140.5480  158.2850  133.7760 O   0  0  0  0  0  0  0  0  0  0  0  0
  143.8480  159.6390  133.7740 N   0  0  0  0  0  0  0  0  0  0  0  0
  143.6800  161.0660  133.7500 C   0  0  0  0  0  0  0  0  0  0  0  0
  142.5890  161.5740  133.3830 O   0  0  0  0  0  0  0  0  0  0  0  0
  144.7310  161.9010  134.1090 O   0  0  0  0  0  0  0  0  0  0  0  0
  144.9970  158.9640  133.5460 C   0  0  0  0  0  0  0  0  0  0  0  0
  146.2640  159.4810  133.2520 C   0  0  0  0  0  0  0  0  0  0  0  0
  149.5841  162.7612  131.0938 H   0  0  0  0  0  0  0  0  0  0  0  0
  150.4883  162.2220  129.6384 H   0  0  0  0  0  0  0  0  0  0  0  0
  148.6921  162.2019  129.6384 H   0  0  0  0  0  0  0  0  0  0  0  0
  150.6204  160.3669  131.1457 H   0  0  0  0  0  0  0  0  0  0  0  0
  148.8632  158.6999  130.1034 H   0  0  0  0  0  0  0  0  0  0  0  0
  148.4393  160.0884  129.0456 H   0  0  0  0  0  0  0  0  0  0  0  0
  150.1135  159.4376  129.0456 H   0  0  0  0  0  0  0  0  0  0  0  0
  148.9442  161.2295  132.7648 H   0  0  0  0  0  0  0  0  0  0  0  0
  147.6323  160.6326  131.6404 H   0  0  0  0  0  0  0  0  0  0  0  0
  149.1704  158.3832  131.9784 H   0  0  0  0  0  0  0  0  0  0  0  0
  149.2589  159.1828  133.6117 H   0  0  0  0  0  0  0  0  0  0  0  0
  147.9040  156.4732  132.9011 H   0  0  0  0  0  0  0  0  0  0  0  0
  145.5946  155.6057  133.4013 H   0  0  0  0  0  0  0  0  0  0  0  0
  142.9171  156.4479  133.9358 H   0  0  0  0  0  0  0  0  0  0  0  0
  141.3860  160.9430  135.0970 H   0  0  0  0  0  0  0  0  0  0  0  0
  146.4324  160.5670  133.2044 H   0  0  0  0  0  0  0  0  0  0  0  0
  1  2  1  0
  2  3  1  0
  2  4  1  0
  4  5  1  0
  5  6  1  0
  6  7  2  0
  7  8  1  0
  8  9  2  0
  9 10  1  0
 10 11  2  0
 11 12  1  0
 12 13  1  0
 12 14  2  0
 11 15  1  0
 15 16  1  0
 16 17  2  0
 16 18  1  0
 15 19  1  0
 19 20  2  0
 20  6  1  0
 19  9  1  0
  1 21  1  0
  1 22  1  0
  1 23  1  0
  2 24  1  0
  3 25  1  0
  3 26  1  0
  3 27  1  0
  4 28  1  0
  4 29  1  0
  5 30  1  0
  5 31  1  0
  7 32  1  0
  8 33  1  0
 10 34  1  0
 13 35  1  0
 20 36  1  0
M  CHG  2  13  -1  18  -1
M  END
>  <UniqueID>  (52) 
51

>  <SMILES>  (52) 
CC(C)CCc1ccc2cc(C([NH-])=O)n(C(=O)[O-])c2c1

>  <Energy>  (52) 
69.62026375275008

>  <Genealogy>  (52) 
CC(C)CCc1ccc2cc(C([NH-])=O)n(C(=O)[O-])c2c1 (protonated)
CC(C)CCc1ccc2cc(C([NH-])=O)n(C(=O)[O-])c2c1 (3D coordinates assigned)
CC(C)CCc1ccc2cc(C([NH-])=O)n(C(=O)[O-])c2c1 (optimized conformer: 69.62026375275008 kcal/mol)

>  <smiles>  (52) 
CC(C)CCc1ccc2cc(C(N)=O)n(C(=O)O)c2c1

>  <score_type>  (52) 
oracle

>  <origin>  (52) 
adg

>  <m_score__min__energy>  (52) 
-7.5

>  <m_primary>  (52) 
energy

$$$$
52:0
     RDKit          3D

 49 51  0  0  0  0  0  0  0  0999 V2000
  148.3830  157.8060  132.2400 C   0  0  0  0  0  0  0  0  0  0  0  0
  148.7620  158.7160  133.3980 C   0  0  0  0  0  0  0  0  0  0  0  0
  147.5850  159.1200  134.0890 O   0  0  0  0  0  0  0  0  0  0  0  0
  146.8110  160.2130  133.6870 C   0  0  0  0  0  0  0  0  0  0  0  0
  147.3630  161.2460  133.2190 O   0  0  0  0  0  0  0  0  0  0  0  0
  145.3830  160.1630  133.8260 N   0  0  0  0  0  0  0  0  0  0  0  0
  144.5190  161.2120  133.9300 C   0  0  0  0  0  0  0  0  0  0  0  0
  144.8940  162.6320  134.0970 C   0  0  0  0  0  0  0  0  0  0  0  0
  145.9910  163.0080  134.9260 N   0  0  0  0  0  0  0  0  0  0  0  0
  144.2060  163.5290  133.5410 O   0  0  0  0  0  0  0  0  0  0  0  0
  143.2000  160.7620  133.9400 C   0  0  0  0  0  0  0  0  0  0  0  0
  143.2830  159.3910  133.8480 C   0  0  0  0  0  0  0  0  0  0  0  0
  142.2720  158.4360  133.8080 C   0  0  0  0  0  0  0  0  0  0  0  0
  142.6460  157.0870  133.6810 C   0  0  0  0  0  0  0  0  0  0  0  0
  144.0140  156.7190  133.5880 C   0  0  0  0  0  0  0  0  0  0  0  0
  144.3860  155.3350  133.4430 N   0  0  0  0  0  0  0  0  0  0  0  0
  144.7930  154.8290  132.1280 C   0  0  0  0  0  0  0  0  0  0  0  0
  145.0970  153.3260  132.1780 C   0  0  0  0  0  0  0  0  0  0  0  0
  145.8870  152.9430  133.3690 N   0  0  0  0  0  0  0  0  0  0  0  0
  147.5790  153.3840  133.2150 S   0  0  0  0  0  0  0  0  0  0  0  0
  148.5400  152.2030  132.2780 C   0  0  0  0  0  0  0  0  0  0  0  0
  147.6650  154.7110  132.5150 O   0  0  0  0  0  0  0  0  0  0  0  0
  148.1930  153.5280  134.5800 O   0  0  0  0  0  0  0  0  0  0  0  0
  145.3160  153.4020  134.6680 C   0  0  0  0  0  0  0  0  0  0  0  0
  144.1390  154.3830  134.5290 C   0  0  0  0  0  0  0  0  0  0  0  0
  145.0090  157.7220  133.6300 C   0  0  0  0  0  0  0  0  0  0  0  0
  144.6090  159.0550  133.7770 C   0  0  0  0  0  0  0  0  0  0  0  0
  147.9880  156.8576  132.6331 H   0  0  0  0  0  0  0  0  0  0  0  0
  147.6143  158.2964  131.6247 H   0  0  0  0  0  0  0  0  0  0  0  0
  149.2725  157.6058  131.6247 H   0  0  0  0  0  0  0  0  0  0  0  0
  149.4248  158.1739  134.0886 H   0  0  0  0  0  0  0  0  0  0  0  0
  149.2830  159.6041  133.0110 H   0  0  0  0  0  0  0  0  0  0  0  0
  146.9750  162.8270  134.6290 H   0  0  0  0  0  0  0  0  0  0  0  0
  142.2872  161.3722  134.0071 H   0  0  0  0  0  0  0  0  0  0  0  0
  141.2134  158.7275  133.8737 H   0  0  0  0  0  0  0  0  0  0  0  0
  141.8701  156.3078  133.6534 H   0  0  0  0  0  0  0  0  0  0  0  0
  143.9799  155.0063  131.4086 H   0  0  0  0  0  0  0  0  0  0  0  0
  145.7072  155.3578  131.8206 H   0  0  0  0  0  0  0  0  0  0  0  0
  144.1453  152.7747  132.1947 H   0  0  0  0  0  0  0  0  0  0  0  0
  145.6949  153.0780  131.2886 H   0  0  0  0  0  0  0  0  0  0  0  0
  145.8870  151.8950  133.3870 H   0  0  0  0  0  0  0  0  0  0  0  0
  149.0801  151.5392  132.9691 H   0  0  0  0  0  0  0  0  0  0  0  0
  147.8689  151.6047  131.6442 H   0  0  0  0  0  0  0  0  0  0  0  0
  149.2622  152.7385  131.6442 H   0  0  0  0  0  0  0  0  0  0  0  0
  144.9651  152.5187  135.2217 H   0  0  0  0  0  0  0  0  0  0  0  0
  146.1178  153.9431  135.1917 H   0  0  0  0  0  0  0  0  0  0  0  0
  143.2208  153.8174  134.3120 H   0  0  0  0  0  0  0  0  0  0  0  0
  144.0292  154.9405  135.4709 H   0  0  0  0  0  0  0  0  0  0  0  0
  146.0744  157.4606  133.5489 H   0  0  0  0  0  0  0  0  0  0  0  0
  1  2  1  0
  2  3  1  0
  3  4  1  0
  4  5  2  0
  4  6  1  0
  6  7  1  0
  7  8  1  0
  8  9  1  0
  8 10  2  0
  7 11  2  0
 11 12  1  0
 12 13  2  0
 13 14  1  0
 14 15  2  0
 15 16  1  0
 16 17  1  0
 17 18  1  0
 18 19  1  0
 19 20  1  0
 20 21  1  0
 20 22  2  0
 20 23  2  0
 19 24  1  0
 24 25  1  0
 15 26  1  0
 26 27  2  0
 27  6  1  0
 27 12  1  0
 25 16  1  0
  1 28  1  0
  1 29  1  0
  1 30  1  0
  2 31  1  0
  2 32  1  0
  9 33  1  0
 11 34  1  0
 13 35  1  0
 14 36  1  0
 17 37  1  0
 17 38  1  0
 18 39  1  0
 18 40  1  0
 19 41  1  0
 21 42  1  0
 21 43  1  0
 21 44  1  0
 24 45  1  0
 24 46  1  0
 25 47  1  0
 25 48  1  0
 26 49  1  0
M  CHG  2   9  -1  19   1
M  END
>  <UniqueID>  (53) 
52

>  <SMILES>  (53) 
CCOC(=O)n1c(C([NH-])=O)cc2ccc(N3CC[NH+](S(C)(=O)=O)CC3)cc21

>  <Energy>  (53) 
91.24958376184776

>  <Genealogy>  (53) 
CCOC(=O)n1c(C([NH-])=O)cc2ccc(N3CC[NH+](S(C)(=O)=O)CC3)cc21 (protonated)
CCOC(=O)n1c(C([NH-])=O)cc2ccc(N3CC[NH+](S(C)(=O)=O)CC3)cc21 (3D coordinates assigned)
CCOC(=O)n1c(C([NH-])=O)cc2ccc(N3CC[NH+](S(C)(=O)=O)CC3)cc21 (nonaromatic ring conformer: 91.24958376184776 kcal/mol)

>  <smiles>  (53) 
CCOC(=O)n1c(C(N)=O)cc2ccc(N3CCN(S(C)(=O)=O)CC3)cc21

>  <score_type>  (53) 
oracle

>  <origin>  (53) 
adg

>  <m_score__min__energy>  (53) 
-7.21

>  <m_primary>  (53) 
energy

$$$$
53:0
     RDKit          3D

 30 32  0  0  0  0  0  0  0  0999 V2000
  142.1300  159.3190  135.7920 N   0  0  0  0  0  0  0  0  0  0  0  0
  142.6260  159.9300  134.6040 C   0  0  0  0  0  0  0  0  0  0  0  0
  141.8900  160.7320  133.9700 O   0  0  0  0  0  0  0  0  0  0  0  0
  143.9630  159.5900  134.0760 C   0  0  0  0  0  0  0  0  0  0  0  0
  144.3440  158.2940  133.7330 C   0  0  0  0  0  0  0  0  0  0  0  0
  145.6700  158.3850  133.3800 C   0  0  0  0  0  0  0  0  0  0  0  0
  146.5490  157.3990  132.9430 C   0  0  0  0  0  0  0  0  0  0  0  0
  147.8600  157.7820  132.6180 C   0  0  0  0  0  0  0  0  0  0  0  0
  148.2690  159.1380  132.7280 C   0  0  0  0  0  0  0  0  0  0  0  0
  149.6070  159.5480  132.3900 N   0  0  0  0  0  0  0  0  0  0  0  0
  149.9690  160.0930  131.0840 C   0  0  0  0  0  0  0  0  0  0  0  0
  149.2060  161.3580  130.7290 C   0  0  0  0  0  0  0  0  0  0  0  0
  148.8460  160.0400  130.0620 C   0  0  0  0  0  0  0  0  0  0  0  0
  147.3450  160.1090  133.1750 C   0  0  0  0  0  0  0  0  0  0  0  0
  146.0500  159.6950  133.5090 C   0  0  0  0  0  0  0  0  0  0  0  0
  145.0110  160.4500  133.9330 N   0  0  0  0  0  0  0  0  0  0  0  0
  145.0020  161.8780  134.0930 C   0  0  0  0  0  0  0  0  0  0  0  0
  145.9010  162.4480  134.7670 O   0  0  0  0  0  0  0  0  0  0  0  0
  144.0180  162.6460  133.4830 O   0  0  0  0  0  0  0  0  0  0  0  0
  141.1730  159.5370  136.1490 H   0  0  0  0  0  0  0  0  0  0  0  0
  143.7171  157.3902  133.7426 H   0  0  0  0  0  0  0  0  0  0  0  0
  146.2265  156.3510  132.8548 H   0  0  0  0  0  0  0  0  0  0  0  0
  148.5787  157.0235  132.2743 H   0  0  0  0  0  0  0  0  0  0  0  0
  150.3410  159.5350  133.1350 H   0  0  0  0  0  0  0  0  0  0  0  0
  151.0268  159.7914  131.0927 H   0  0  0  0  0  0  0  0  0  0  0  0
  148.5197  161.8099  131.4603 H   0  0  0  0  0  0  0  0  0  0  0  0
  149.4848  162.3602  130.3715 H   0  0  0  0  0  0  0  0  0  0  0  0
  147.8992  159.5382  130.3106 H   0  0  0  0  0  0  0  0  0  0  0  0
  148.7564  159.6934  129.0219 H   0  0  0  0  0  0  0  0  0  0  0  0
  147.6366  161.1663  133.2587 H   0  0  0  0  0  0  0  0  0  0  0  0
  1  2  1  0
  2  3  2  0
  2  4  1  0
  4  5  2  0
  5  6  1  0
  6  7  2  0
  7  8  1  0
  8  9  2  0
  9 10  1  0
 10 11  1  0
 11 12  1  0
 12 13  1  0
  9 14  1  0
 14 15  2  0
 15 16  1  0
 16 17  1  0
 17 18  2  0
 17 19  1  0
 16  4  1  0
 15  6  1  0
 13 11  1  0
  1 20  1  0
  5 21  1  0
  7 22  1  0
  8 23  1  0
 10 24  1  0
 11 25  1  0
 12 26  1  0
 12 27  1  0
 13 28  1  0
 13 29  1  0
 14 30  1  0
M  CHG  2   1  -1  19  -1
M  END
>  <UniqueID>  (54) 
53

>  <SMILES>  (54) 
[NH-]C(=O)c1cc2ccc(NC3CC3)cc2n1C(=O)[O-]

>  <Energy>  (54) 
335.34913701025135

>  <Genealogy>  (54) 
[NH-]C(=O)c1cc2ccc(NC3CC3)cc2n1C(=O)[O-] (protonated)
[NH-]C(=O)c1cc2ccc(NC3CC3)cc2n1C(=O)[O-] (3D coordinates assigned)
[NH-]C(=O)c1cc2ccc(NC3CC3)cc2n1C(=O)[O-] (nonaromatic ring conformer: 335.34913701025135 kcal/mol)

>  <smiles>  (54) 
NC(=O)c1cc2ccc(NC3CC3)cc2n1C(=O)O

>  <score_type>  (54) 
oracle

>  <origin>  (54) 
adg

>  <m_score__min__energy>  (54) 
-6.96

>  <m_primary>  (54) 
energy

$$$$
54:0
     RDKit          3D

 27 28  0  0  0  0  0  0  0  0999 V2000
  147.1350  153.3690  136.0720 N   0  0  0  0  0  0  0  0  0  0  0  0
  146.3790  154.1030  135.1110 C   0  0  0  0  0  0  0  0  0  0  0  0
  145.2100  153.7290  134.8290 O   0  0  0  0  0  0  0  0  0  0  0  0
  146.9540  155.3160  134.4940 C   0  0  0  0  0  0  0  0  0  0  0  0
  146.4610  156.5990  134.7170 C   0  0  0  0  0  0  0  0  0  0  0  0
  147.1980  157.4230  133.8970 C   0  0  0  0  0  0  0  0  0  0  0  0
  147.1380  158.8020  133.7260 C   0  0  0  0  0  0  0  0  0  0  0  0
  148.0440  159.3940  132.8310 C   0  0  0  0  0  0  0  0  0  0  0  0
  148.9830  158.6030  132.1240 C   0  0  0  0  0  0  0  0  0  0  0  0
  149.9770  159.2540  131.2020 C   0  0  0  0  0  0  0  0  0  0  0  0
  149.3180  160.3530  130.4330 C   0  0  0  0  0  0  0  0  0  0  0  0
  148.4680  160.0830  129.5440 O   0  0  0  0  0  0  0  0  0  0  0  0
  149.6070  161.6790  130.7280 O   0  0  0  0  0  0  0  0  0  0  0  0
  149.0210  157.2060  132.3310 C   0  0  0  0  0  0  0  0  0  0  0  0
  148.0960  156.6410  133.2180 C   0  0  0  0  0  0  0  0  0  0  0  0
  147.9630  155.3450  133.5760 N   0  0  0  0  0  0  0  0  0  0  0  0
  148.7790  154.2500  133.1280 C   0  0  0  0  0  0  0  0  0  0  0  0
  148.6380  152.9590  133.7150 N   0  0  0  0  0  0  0  0  0  0  0  0
  149.6490  154.4340  132.2340 O   0  0  0  0  0  0  0  0  0  0  0  0
  148.0190  152.8840  135.8010 H   0  0  0  0  0  0  0  0  0  0  0  0
  145.6531  156.8921  135.4035 H   0  0  0  0  0  0  0  0  0  0  0  0
  146.4037  159.4101  134.2747 H   0  0  0  0  0  0  0  0  0  0  0  0
  148.0244  160.4830  132.6773 H   0  0  0  0  0  0  0  0  0  0  0  0
  150.8052  159.6700  131.7945 H   0  0  0  0  0  0  0  0  0  0  0  0
  150.3626  158.5019  130.4980 H   0  0  0  0  0  0  0  0  0  0  0  0
  149.7581  156.5782  131.8090 H   0  0  0  0  0  0  0  0  0  0  0  0
  147.7230  152.6450  134.1070 H   0  0  0  0  0  0  0  0  0  0  0  0
  1  2  1  0
  2  3  2  0
  2  4  1  0
  4  5  2  0
  5  6  1  0
  6  7  2  0
  7  8  1  0
  8  9  2  0
  9 10  1  0
 10 11  1  0
 11 12  2  0
 11 13  1  0
  9 14  1  0
 14 15  2  0
 15 16  1  0
 16 17  1  0
 17 18  1  0
 17 19  2  0
 16  4  1  0
 15  6  1  0
  1 20  1  0
  5 21  1  0
  7 22  1  0
  8 23  1  0
 10 24  1  0
 10 25  1  0
 14 26  1  0
 18 27  1  0
M  CHG  3   1  -1  13  -1  18  -1
M  END
>  <UniqueID>  (55) 
54

>  <SMILES>  (55) 
[NH-]C(=O)c1cc2ccc(CC(=O)[O-])cc2n1C([NH-])=O

>  <Energy>  (55) 
64.82132299719557

>  <Genealogy>  (55) 
[NH-]C(=O)c1cc2ccc(CC(=O)[O-])cc2n1C([NH-])=O (protonated)
[NH-]C(=O)c1cc2ccc(CC(=O)[O-])cc2n1C([NH-])=O (3D coordinates assigned)
[NH-]C(=O)c1cc2ccc(CC(=O)[O-])cc2n1C([NH-])=O (optimized conformer: 64.82132299719557 kcal/mol)

>  <smiles>  (55) 
NC(=O)c1cc2ccc(CC(=O)O)cc2n1C(N)=O

>  <score_type>  (55) 
oracle

>  <origin>  (55) 
adg

>  <m_score__min__energy>  (55) 
-6.5599999999999996

>  <m_primary>  (55) 
energy

$$$$
55:0
     RDKit          3D

 34 35  0  0  0  0  0  0  0  0999 V2000
  141.5870  158.6150  137.8320 C   0  0  0  0  0  0  0  0  0  0  0  0
  140.9960  159.2230  136.6910 O   0  0  0  0  0  0  0  0  0  0  0  0
  140.0990  158.5500  135.8560 C   0  0  0  0  0  0  0  0  0  0  0  0
  138.9520  158.2290  136.2700 O   0  0  0  0  0  0  0  0  0  0  0  0
  140.4890  158.2550  134.4440 C   0  0  0  0  0  0  0  0  0  0  0  0
  141.8300  158.8640  134.1450 C   0  0  0  0  0  0  0  0  0  0  0  0
  141.9530  160.2670  133.9780 C   0  0  0  0  0  0  0  0  0  0  0  0
  143.2050  160.8510  133.7230 C   0  0  0  0  0  0  0  0  0  0  0  0
  144.3140  160.0120  133.6560 C   0  0  0  0  0  0  0  0  0  0  0  0
  145.6380  160.3080  133.4180 C   0  0  0  0  0  0  0  0  0  0  0  0
  146.3050  159.0850  133.4720 C   0  0  0  0  0  0  0  0  0  0  0  0
  147.7740  158.9380  133.3720 C   0  0  0  0  0  0  0  0  0  0  0  0
  148.4740  158.0130  134.2070 N   0  0  0  0  0  0  0  0  0  0  0  0
  148.4200  159.6120  132.5280 O   0  0  0  0  0  0  0  0  0  0  0  0
  145.4270  158.0740  133.7270 N   0  0  0  0  0  0  0  0  0  0  0  0
  145.6970  156.6650  133.8090 C   0  0  0  0  0  0  0  0  0  0  0  0
  145.1370  155.7140  132.7990 C   0  0  0  0  0  0  0  0  0  0  0  0
  146.3790  156.2130  134.7670 O   0  0  0  0  0  0  0  0  0  0  0  0
  144.2150  158.6580  133.8410 C   0  0  0  0  0  0  0  0  0  0  0  0
  142.9800  158.0470  134.0820 C   0  0  0  0  0  0  0  0  0  0  0  0
  141.1592  159.0551  138.7449 H   0  0  0  0  0  0  0  0  0  0  0  0
  141.3855  157.5337  137.8170 H   0  0  0  0  0  0  0  0  0  0  0  0
  142.6736  158.7858  137.8170 H   0  0  0  0  0  0  0  0  0  0  0  0
  140.5431  157.1657  134.3007 H   0  0  0  0  0  0  0  0  0  0  0  0
  139.7376  158.6830  133.7642 H   0  0  0  0  0  0  0  0  0  0  0  0
  141.0592  160.9042  134.0488 H   0  0  0  0  0  0  0  0  0  0  0  0
  143.3059  161.9371  133.5808 H   0  0  0  0  0  0  0  0  0  0  0  0
  146.0759  161.2987  133.2261 H   0  0  0  0  0  0  0  0  0  0  0  0
  147.9830  157.4780  134.9580 H   0  0  0  0  0  0  0  0  0  0  0  0
  149.5060  157.8910  134.1030 H   0  0  0  0  0  0  0  0  0  0  0  0
  144.6445  154.8776  133.3165 H   0  0  0  0  0  0  0  0  0  0  0  0
  144.4035  156.2383  132.1689 H   0  0  0  0  0  0  0  0  0  0  0  0
  145.9513  155.3268  132.1689 H   0  0  0  0  0  0  0  0  0  0  0  0
  142.9065  156.9580  134.2189 H   0  0  0  0  0  0  0  0  0  0  0  0
  1  2  1  0
  2  3  1  0
  3  4  2  0
  3  5  1  0
  5  6  1  0
  6  7  2  0
  7  8  1  0
  8  9  2  0
  9 10  1  0
 10 11  2  0
 11 12  1  0
 12 13  1  0
 12 14  2  0
 11 15  1  0
 15 16  1  0
 16 17  1  0
 16 18  2  0
 15 19  1  0
 19 20  2  0
 20  6  1  0
 19  9  1  0
  1 21  1  0
  1 22  1  0
  1 23  1  0
  5 24  1  0
  5 25  1  0
  7 26  1  0
  8 27  1  0
 10 28  1  0
 13 29  1  0
 13 30  1  0
 17 31  1  0
 17 32  1  0
 17 33  1  0
 20 34  1  0
M  END
>  <UniqueID>  (56) 
55

>  <SMILES>  (56) 
COC(=O)Cc1ccc2cc(C(N)=O)n(C(C)=O)c2c1

>  <Energy>  (56) 
68.33219827866141

>  <Genealogy>  (56) 
COC(=O)Cc1ccc2cc(C(N)=O)n(C(C)=O)c2c1 (3D coordinates assigned)
COC(=O)Cc1ccc2cc(C(N)=O)n(C(C)=O)c2c1 (optimized conformer: 68.33219827866141 kcal/mol)

>  <smiles>  (56) 
COC(=O)Cc1ccc2cc(C(N)=O)n(C(C)=O)c2c1

>  <score_type>  (56) 
oracle

>  <origin>  (56) 
adg

>  <m_score__min__energy>  (56) 
-6.1900000000000004

>  <m_primary>  (56) 
energy

$$$$
56:0
     RDKit          3D

 36 37  0  0  0  0  0  0  0  0999 V2000
  146.9450  155.9610  132.3080 C   0  0  0  0  0  0  0  0  0  0  0  0
  147.0490  156.9320  133.4420 C   0  0  0  0  0  0  0  0  0  0  0  0
  147.7640  156.6390  134.4370 O   0  0  0  0  0  0  0  0  0  0  0  0
  146.3700  158.1990  133.3970 N   0  0  0  0  0  0  0  0  0  0  0  0
  146.9080  159.4330  133.1910 C   0  0  0  0  0  0  0  0  0  0  0  0
  148.3020  159.7140  132.7900 C   0  0  0  0  0  0  0  0  0  0  0  0
  149.3920  158.9740  133.3410 N   0  0  0  0  0  0  0  0  0  0  0  0
  148.5290  160.5830  131.9070 O   0  0  0  0  0  0  0  0  0  0  0  0
  145.9430  160.4240  133.3490 C   0  0  0  0  0  0  0  0  0  0  0  0
  144.7790  159.7520  133.6440 C   0  0  0  0  0  0  0  0  0  0  0  0
  143.5020  160.2410  133.9050 C   0  0  0  0  0  0  0  0  0  0  0  0
  142.4910  159.3150  134.2070 C   0  0  0  0  0  0  0  0  0  0  0  0
  142.7730  157.9250  134.2530 C   0  0  0  0  0  0  0  0  0  0  0  0
  141.6780  156.9380  134.5630 C   0  0  0  0  0  0  0  0  0  0  0  0
  140.4290  157.6120  135.1540 C   0  0  0  0  0  0  0  0  0  0  0  0
  140.5620  157.9370  136.6490 C   0  0  0  0  0  0  0  0  0  0  0  0
  140.2310  159.3330  136.9150 N   0  0  0  0  0  0  0  0  0  0  0  0
  144.0810  157.4670  133.9840 C   0  0  0  0  0  0  0  0  0  0  0  0
  145.0640  158.4100  133.6680 C   0  0  0  0  0  0  0  0  0  0  0  0
  146.8358  154.9417  132.7069 H   0  0  0  0  0  0  0  0  0  0  0  0
  146.0683  156.2094  131.6918 H   0  0  0  0  0  0  0  0  0  0  0  0
  147.8544  156.0181  131.6918 H   0  0  0  0  0  0  0  0  0  0  0  0
  149.2270  158.1380  133.9430 H   0  0  0  0  0  0  0  0  0  0  0  0
  150.3740  159.2150  133.0780 H   0  0  0  0  0  0  0  0  0  0  0  0
  146.0814  161.5114  133.2576 H   0  0  0  0  0  0  0  0  0  0  0  0
  143.2915  161.3203  133.8755 H   0  0  0  0  0  0  0  0  0  0  0  0
  141.4700  159.6705  134.4100 H   0  0  0  0  0  0  0  0  0  0  0  0
  141.3943  156.4222  133.6338 H   0  0  0  0  0  0  0  0  0  0  0  0
  142.0652  156.2337  135.3140 H   0  0  0  0  0  0  0  0  0  0  0  0
  140.2472  158.5495  134.6081 H   0  0  0  0  0  0  0  0  0  0  0  0
  139.5957  156.9017  135.0487 H   0  0  0  0  0  0  0  0  0  0  0  0
  139.8784  157.2908  137.2192 H   0  0  0  0  0  0  0  0  0  0  0  0
  141.6044  157.7612  136.9532 H   0  0  0  0  0  0  0  0  0  0  0  0
  139.7890  159.3810  137.8620 H   0  0  0  0  0  0  0  0  0  0  0  0
  139.5010  159.6340  136.2290 H   0  0  0  0  0  0  0  0  0  0  0  0
  144.3211  156.3942  134.0220 H   0  0  0  0  0  0  0  0  0  0  0  0
  1  2  1  0
  2  3  2  0
  2  4  1  0
  4  5  1  0
  5  6  1  0
  6  7  1  0
  6  8  2  0
  5  9  2  0
  9 10  1  0
 10 11  2  0
 11 12  1  0
 12 13  2  0
 13 14  1  0
 14 15  1  0
 15 16  1  0
 16 17  1  0
 13 18  1  0
 18 19  2  0
 19  4  1  0
 19 10  1  0
  1 20  1  0
  1 21  1  0
  1 22  1  0
  7 23  1  0
  7 24  1  0
  9 25  1  0
 11 26  1  0
 12 27  1  0
 14 28  1  0
 14 29  1  0
 15 30  1  0
 15 31  1  0
 16 32  1  0
 16 33  1  0
 17 34  1  0
 17 35  1  0
 18 36  1  0
M  END
>  <UniqueID>  (57) 
56

>  <SMILES>  (57) 
CC(=O)n1c(C(N)=O)cc2ccc(CCCN)cc21

>  <Energy>  (57) 
70.07455089345649

>  <Genealogy>  (57) 
CC(=O)n1c(C(N)=O)cc2ccc(CCCN)cc21 (3D coordinates assigned)
CC(=O)n1c(C(N)=O)cc2ccc(CCCN)cc21 (optimized conformer: 70.07455089345649 kcal/mol)

>  <smiles>  (57) 
CC(=O)n1c(C(N)=O)cc2ccc(CCCN)cc21

>  <score_type>  (57) 
oracle

>  <origin>  (57) 
adg

>  <m_score__min__energy>  (57) 
-7.4100000000000001

>  <m_primary>  (57) 
energy

$$$$
57:0
     RDKit          3D

 27 28  0  0  0  0  0  0  0  0999 V2000
  143.3330  157.0900  134.7960 C   0  0  0  0  0  0  0  0  0  0  0  0
  143.6880  157.8490  133.5570 C   0  0  0  0  0  0  0  0  0  0  0  0
  142.8780  157.8640  132.5910 O   0  0  0  0  0  0  0  0  0  0  0  0
  144.9300  158.5620  133.4590 N   0  0  0  0  0  0  0  0  0  0  0  0
  145.1260  159.9060  133.5660 C   0  0  0  0  0  0  0  0  0  0  0  0
  144.0660  160.9320  133.6820 C   0  0  0  0  0  0  0  0  0  0  0  0
  142.7120  160.6310  133.3570 N   0  0  0  0  0  0  0  0  0  0  0  0
  144.3660  162.1010  134.0430 O   0  0  0  0  0  0  0  0  0  0  0  0
  146.4840  160.2080  133.4910 C   0  0  0  0  0  0  0  0  0  0  0  0
  147.1190  158.9980  133.3340 C   0  0  0  0  0  0  0  0  0  0  0  0
  148.4740  158.7070  133.2110 C   0  0  0  0  0  0  0  0  0  0  0  0
  148.8490  157.3590  133.0860 C   0  0  0  0  0  0  0  0  0  0  0  0
  147.8750  156.3290  133.1120 C   0  0  0  0  0  0  0  0  0  0  0  0
  148.2870  154.8890  132.9390 C   0  0  0  0  0  0  0  0  0  0  0  0
  149.4750  154.8010  132.2340 F   0  0  0  0  0  0  0  0  0  0  0  0
  147.3010  154.2130  132.2460 F   0  0  0  0  0  0  0  0  0  0  0  0
  148.4710  154.2820  134.1700 F   0  0  0  0  0  0  0  0  0  0  0  0
  146.5050  156.6680  133.2180 C   0  0  0  0  0  0  0  0  0  0  0  0
  146.1600  158.0200  133.3210 C   0  0  0  0  0  0  0  0  0  0  0  0
  143.6099  157.6821  135.6807 H   0  0  0  0  0  0  0  0  0  0  0  0
  142.2504  156.8954  134.8092 H   0  0  0  0  0  0  0  0  0  0  0  0
  143.8775  156.1343  134.8092 H   0  0  0  0  0  0  0  0  0  0  0  0
  142.4790  159.9930  132.5640 H   0  0  0  0  0  0  0  0  0  0  0  0
  146.9496  161.2031  133.5457 H   0  0  0  0  0  0  0  0  0  0  0  0
  149.2283  159.5077  133.2116 H   0  0  0  0  0  0  0  0  0  0  0  0
  149.9112  157.0994  132.9665 H   0  0  0  0  0  0  0  0  0  0  0  0
  145.7301  155.8873  133.2194 H   0  0  0  0  0  0  0  0  0  0  0  0
  1  2  1  0
  2  3  2  0
  2  4  1  0
  4  5  1  0
  5  6  1  0
  6  7  1  0
  6  8  2  0
  5  9  2  0
  9 10  1  0
 10 11  2  0
 11 12  1  0
 12 13  2  0
 13 14  1  0
 14 15  1  0
 14 16  1  0
 14 17  1  0
 13 18  1  0
 18 19  2  0
 19  4  1  0
 19 10  1  0
  1 20  1  0
  1 21  1  0
  1 22  1  0
  7 23  1  0
  9 24  1  0
 11 25  1  0
 12 26  1  0
 18 27  1  0
M  CHG  1   7  -1
M  END
>  <UniqueID>  (58) 
57

>  <SMILES>  (58) 
CC(=O)n1c(C([NH-])=O)cc2ccc(C(F)(F)F)cc21

>  <Energy>  (58) 
66.79461405511944

>  <Genealogy>  (58) 
CC(=O)n1c(C([NH-])=O)cc2ccc(C(F)(F)F)cc21 (protonated)
CC(=O)n1c(C([NH-])=O)cc2ccc(C(F)(F)F)cc21 (3D coordinates assigned)
CC(=O)n1c(C([NH-])=O)cc2ccc(C(F)(F)F)cc21 (optimized conformer: 66.79461405511944 kcal/mol)

>  <smiles>  (58) 
CC(=O)n1c(C(N)=O)cc2ccc(C(F)(F)F)cc21

>  <score_type>  (58) 
oracle

>  <origin>  (58) 
adg

>  <m_score__min__energy>  (58) 
-5.6100000000000003

>  <m_primary>  (58) 
energy

$$$$
58:0
     RDKit          3D

 42 43  0  0  0  0  0  0  0  0999 V2000
  141.9870  158.8140  135.7090 C   0  0  0  0  0  0  0  0  0  0  0  0
  142.2630  157.3390  135.4220 C   0  0  0  0  0  0  0  0  0  0  0  0
  141.1340  156.7380  134.5790 C   0  0  0  0  0  0  0  0  0  0  0  0
  143.5060  157.2290  134.7280 O   0  0  0  0  0  0  0  0  0  0  0  0
  143.7800  157.8840  133.5230 C   0  0  0  0  0  0  0  0  0  0  0  0
  142.9580  157.8350  132.5670 O   0  0  0  0  0  0  0  0  0  0  0  0
  144.9990  158.6300  133.3820 N   0  0  0  0  0  0  0  0  0  0  0  0
  145.1790  159.9760  133.5010 C   0  0  0  0  0  0  0  0  0  0  0  0
  144.1110  160.9840  133.6770 C   0  0  0  0  0  0  0  0  0  0  0  0
  142.7610  160.6470  133.3680 N   0  0  0  0  0  0  0  0  0  0  0  0
  144.3730  162.1280  134.1330 O   0  0  0  0  0  0  0  0  0  0  0  0
  146.5250  160.3040  133.3510 C   0  0  0  0  0  0  0  0  0  0  0  0
  147.1690  159.1080  133.1270 C   0  0  0  0  0  0  0  0  0  0  0  0
  148.5200  158.8440  132.9220 C   0  0  0  0  0  0  0  0  0  0  0  0
  148.9100  157.5060  132.7460 C   0  0  0  0  0  0  0  0  0  0  0  0
  147.9500  156.4620  132.7850 C   0  0  0  0  0  0  0  0  0  0  0  0
  148.3910  155.0290  132.6360 C   0  0  0  0  0  0  0  0  0  0  0  0
  147.3910  154.0440  133.2700 C   0  0  0  0  0  0  0  0  0  0  0  0
  147.5020  152.6780  132.7310 N   0  0  0  0  0  0  0  0  0  0  0  0
  148.8720  152.2510  132.6740 C   0  0  0  0  0  0  0  0  0  0  0  0
  149.5220  152.3390  131.5990 O   0  0  0  0  0  0  0  0  0  0  0  0
  149.4950  151.7510  133.8120 O   0  0  0  0  0  0  0  0  0  0  0  0
  146.5880  156.7700  132.9970 C   0  0  0  0  0  0  0  0  0  0  0  0
  146.2260  158.1140  133.1510 C   0  0  0  0  0  0  0  0  0  0  0  0
  141.9566  158.9765  136.7965 H   0  0  0  0  0  0  0  0  0  0  0  0
  142.7857  159.4289  135.2686 H   0  0  0  0  0  0  0  0  0  0  0  0
  141.0200  159.0985  135.2686 H   0  0  0  0  0  0  0  0  0  0  0  0
  142.3157  156.7845  136.3705 H   0  0  0  0  0  0  0  0  0  0  0  0
  140.3600  156.3260  135.2431 H   0  0  0  0  0  0  0  0  0  0  0  0
  140.6936  157.5211  133.9442 H   0  0  0  0  0  0  0  0  0  0  0  0
  141.5377  155.9354  133.9442 H   0  0  0  0  0  0  0  0  0  0  0  0
  142.5380  159.9630  132.6120 H   0  0  0  0  0  0  0  0  0  0  0  0
  146.9769  161.3056  133.4009 H   0  0  0  0  0  0  0  0  0  0  0  0
  149.2596  159.6579  132.8985 H   0  0  0  0  0  0  0  0  0  0  0  0
  149.9699  157.2654  132.5763 H   0  0  0  0  0  0  0  0  0  0  0  0
  148.4861  154.7971  131.5649 H   0  0  0  0  0  0  0  0  0  0  0  0
  149.3532  154.9157  133.1569 H   0  0  0  0  0  0  0  0  0  0  0  0
  147.5748  154.0083  134.3539 H   0  0  0  0  0  0  0  0  0  0  0  0
  146.3799  154.4074  133.0344 H   0  0  0  0  0  0  0  0  0  0  0  0
  146.9880  152.0260  133.3680 H   0  0  0  0  0  0  0  0  0  0  0  0
  147.0600  152.6140  131.7850 H   0  0  0  0  0  0  0  0  0  0  0  0
  145.8303  155.9738  133.0401 H   0  0  0  0  0  0  0  0  0  0  0  0
  1  2  1  0
  2  3  1  0
  2  4  1  0
  4  5  1  0
  5  6  2  0
  5  7  1  0
  7  8  1  0
  8  9  1  0
  9 10  1  0
  9 11  2  0
  8 12  2  0
 12 13  1  0
 13 14  2  0
 14 15  1  0
 15 16  2  0
 16 17  1  0
 17 18  1  0
 18 19  1  0
 19 20  1  0
 20 21  2  0
 20 22  1  0
 16 23  1  0
 23 24  2  0
 24  7  1  0
 24 13  1  0
  1 25  1  0
  1 26  1  0
  1 27  1  0
  2 28  1  0
  3 29  1  0
  3 30  1  0
  3 31  1  0
 10 32  1  0
 12 33  1  0
 14 34  1  0
 15 35  1  0
 17 36  1  0
 17 37  1  0
 18 38  1  0
 18 39  1  0
 19 40  1  0
 19 41  1  0
 23 42  1  0
M  CHG  3  10  -1  19   1  22  -1
M  END
>  <UniqueID>  (59) 
58

>  <SMILES>  (59) 
CC(C)OC(=O)n1c(C([NH-])=O)cc2ccc(CC[NH2+]C(=O)[O-])cc21

>  <Energy>  (59) 
72.34979765287977

>  <Genealogy>  (59) 
CC(C)OC(=O)n1c(C([NH-])=O)cc2ccc(CC[NH2+]C(=O)[O-])cc21 (protonated)
CC(C)OC(=O)n1c(C([NH-])=O)cc2ccc(CC[NH2+]C(=O)[O-])cc21 (3D coordinates assigned)
CC(C)OC(=O)n1c(C([NH-])=O)cc2ccc(CC[NH2+]C(=O)[O-])cc21 (optimized conformer: 72.34979765287977 kcal/mol)

>  <smiles>  (59) 
CC(C)OC(=O)n1c(C(N)=O)cc2ccc(CCNC(=O)O)cc21

>  <score_type>  (59) 
oracle

>  <origin>  (59) 
adg

>  <m_score__min__energy>  (59) 
-7.1900000000000004

>  <m_primary>  (59) 
energy

$$$$
59:0
     RDKit          3D

 31 33  0  0  0  0  0  0  0  0999 V2000
  140.2290  159.0070  136.6950 N   0  0  0  0  0  0  0  0  0  0  0  0
  140.4380  158.5990  135.3460 C   0  0  0  0  0  0  0  0  0  0  0  0
  139.4420  158.3970  134.6010 O   0  0  0  0  0  0  0  0  0  0  0  0
  141.8000  158.3510  134.8300 C   0  0  0  0  0  0  0  0  0  0  0  0
  142.4770  157.1460  135.0050 C   0  0  0  0  0  0  0  0  0  0  0  0
  143.7280  157.3490  134.4690 C   0  0  0  0  0  0  0  0  0  0  0  0
  144.8080  156.4800  134.3650 C   0  0  0  0  0  0  0  0  0  0  0  0
  145.9740  156.9480  133.7370 C   0  0  0  0  0  0  0  0  0  0  0  0
  146.0390  158.2680  133.2180 C   0  0  0  0  0  0  0  0  0  0  0  0
  147.2730  158.7470  132.5450 C   0  0  0  0  0  0  0  0  0  0  0  0
  148.4220  157.9350  132.4940 C   0  0  0  0  0  0  0  0  0  0  0  0
  149.5830  158.3890  131.8590 C   0  0  0  0  0  0  0  0  0  0  0  0
  149.6100  159.6540  131.2680 C   0  0  0  0  0  0  0  0  0  0  0  0
  150.7360  160.0910  130.6530 F   0  0  0  0  0  0  0  0  0  0  0  0
  148.4760  160.4690  131.3110 C   0  0  0  0  0  0  0  0  0  0  0  0
  147.3140  160.0200  131.9450 C   0  0  0  0  0  0  0  0  0  0  0  0
  144.9180  159.1200  133.3430 C   0  0  0  0  0  0  0  0  0  0  0  0
  143.7760  158.6330  133.9900 C   0  0  0  0  0  0  0  0  0  0  0  0
  142.5970  159.2610  134.2020 N   0  0  0  0  0  0  0  0  0  0  0  0
  142.2410  160.5810  133.7570 C   0  0  0  0  0  0  0  0  0  0  0  0
  141.0580  160.8390  133.4140 O   0  0  0  0  0  0  0  0  0  0  0  0
  143.1950  161.5910  133.7300 O   0  0  0  0  0  0  0  0  0  0  0  0
  139.2810  158.9610  137.1290 H   0  0  0  0  0  0  0  0  0  0  0  0
  142.0930  156.2273  135.4725 H   0  0  0  0  0  0  0  0  0  0  0  0
  144.7512  155.4560  134.7628 H   0  0  0  0  0  0  0  0  0  0  0  0
  146.8466  156.2844  133.6463 H   0  0  0  0  0  0  0  0  0  0  0  0
  148.4068  156.9371  132.9565 H   0  0  0  0  0  0  0  0  0  0  0  0
  150.4764  157.7482  131.8251 H   0  0  0  0  0  0  0  0  0  0  0  0
  148.4977  161.4653  130.8453 H   0  0  0  0  0  0  0  0  0  0  0  0
  146.4245  160.6664  131.9754 H   0  0  0  0  0  0  0  0  0  0  0  0
  144.9424  160.1435  132.9406 H   0  0  0  0  0  0  0  0  0  0  0  0
  1  2  1  0
  2  3  2  0
  2  4  1  0
  4  5  2  0
  5  6  1  0
  6  7  2  0
  7  8  1  0
  8  9  2  0
  9 10  1  0
 10 11  2  0
 11 12  1  0
 12 13  2  0
 13 14  1  0
 13 15  1  0
 15 16  2  0
  9 17  1  0
 17 18  2  0
 18 19  1  0
 19 20  1  0
 20 21  2  0
 20 22  1  0
 19  4  1  0
 18  6  1  0
 16 10  1  0
  1 23  1  0
  5 24  1  0
  7 25  1  0
  8 26  1  0
 11 27  1  0
 12 28  1  0
 15 29  1  0
 16 30  1  0
 17 31  1  0
M  CHG  2   1  -1  22  -1
M  END
>  <UniqueID>  (60) 
59

>  <SMILES>  (60) 
[NH-]C(=O)c1cc2ccc(-c3ccc(F)cc3)cc2n1C(=O)[O-]

>  <Energy>  (60) 
79.2439708309108

>  <Genealogy>  (60) 
[NH-]C(=O)c1cc2ccc(-c3ccc(F)cc3)cc2n1C(=O)[O-] (protonated)
[NH-]C(=O)c1cc2ccc(-c3ccc(F)cc3)cc2n1C(=O)[O-] (3D coordinates assigned)
[NH-]C(=O)c1cc2ccc(-c3ccc(F)cc3)cc2n1C(=O)[O-] (optimized conformer: 79.2439708309108 kcal/mol)

>  <smiles>  (60) 
NC(=O)c1cc2ccc(-c3ccc(F)cc3)cc2n1C(=O)O

>  <score_type>  (60) 
oracle

>  <origin>  (60) 
adg

>  <m_score__min__energy>  (60) 
-7.3399999999999999

>  <m_primary>  (60) 
energy

$$$$
60:0
     RDKit          3D

 34 35  0  0  0  0  0  0  0  0999 V2000
  148.4610  160.5230  131.0450 C   0  0  0  0  0  0  0  0  0  0  0  0
  147.2280  160.0670  131.5870 O   0  0  0  0  0  0  0  0  0  0  0  0
  146.9380  160.1250  132.9540 C   0  0  0  0  0  0  0  0  0  0  0  0
  147.8450  160.4000  133.7860 O   0  0  0  0  0  0  0  0  0  0  0  0
  145.6060  159.8460  133.4110 N   0  0  0  0  0  0  0  0  0  0  0  0
  144.7170  160.7080  133.9820 C   0  0  0  0  0  0  0  0  0  0  0  0
  144.8830  162.1700  134.1100 C   0  0  0  0  0  0  0  0  0  0  0  0
  146.0770  162.7290  134.6560 N   0  0  0  0  0  0  0  0  0  0  0  0
  143.9800  162.9400  133.6880 O   0  0  0  0  0  0  0  0  0  0  0  0
  143.5600  160.0330  134.3670 C   0  0  0  0  0  0  0  0  0  0  0  0
  143.7650  158.7220  134.0030 C   0  0  0  0  0  0  0  0  0  0  0  0
  142.9370  157.6120  134.1520 C   0  0  0  0  0  0  0  0  0  0  0  0
  143.4150  156.3690  133.7040 C   0  0  0  0  0  0  0  0  0  0  0  0
  144.7080  156.2570  133.1330 C   0  0  0  0  0  0  0  0  0  0  0  0
  145.2010  154.9200  132.6420 C   0  0  0  0  0  0  0  0  0  0  0  0
  144.1360  154.1880  131.8110 C   0  0  0  0  0  0  0  0  0  0  0  0
  144.1820  154.5750  130.3990 N   0  0  0  0  0  0  0  0  0  0  0  0
  145.5170  157.4060  132.9940 C   0  0  0  0  0  0  0  0  0  0  0  0
  145.0060  158.6340  133.4300 C   0  0  0  0  0  0  0  0  0  0  0  0
  149.1497  160.7777  131.8640 H   0  0  0  0  0  0  0  0  0  0  0  0
  148.9051  159.7296  130.4258 H   0  0  0  0  0  0  0  0  0  0  0  0
  148.2820  161.4144  130.4258 H   0  0  0  0  0  0  0  0  0  0  0  0
  146.9870  162.2250  134.5820 H   0  0  0  0  0  0  0  0  0  0  0  0
  142.6719  160.4580  134.8575 H   0  0  0  0  0  0  0  0  0  0  0  0
  141.9396  157.7056  134.6064 H   0  0  0  0  0  0  0  0  0  0  0  0
  142.7807  155.4751  133.7970 H   0  0  0  0  0  0  0  0  0  0  0  0
  146.0933  155.0770  132.0181 H   0  0  0  0  0  0  0  0  0  0  0  0
  145.4355  154.2994  133.5194 H   0  0  0  0  0  0  0  0  0  0  0  0
  144.3079  153.1043  131.8883 H   0  0  0  0  0  0  0  0  0  0  0  0
  143.1472  154.4626  132.2071 H   0  0  0  0  0  0  0  0  0  0  0  0
  144.9490  155.2680  130.2380 H   0  0  0  0  0  0  0  0  0  0  0  0
  143.2730  155.0190  130.1390 H   0  0  0  0  0  0  0  0  0  0  0  0
  144.3320  153.7330  129.7970 H   0  0  0  0  0  0  0  0  0  0  0  0
  146.5230  157.3378  132.5544 H   0  0  0  0  0  0  0  0  0  0  0  0
  1  2  1  0
  2  3  1  0
  3  4  2  0
  3  5  1  0
  5  6  1  0
  6  7  1  0
  7  8  1  0
  7  9  2  0
  6 10  2  0
 10 11  1  0
 11 12  2  0
 12 13  1  0
 13 14  2  0
 14 15  1  0
 15 16  1  0
 16 17  1  0
 14 18  1  0
 18 19  2  0
 19  5  1  0
 19 11  1  0
  1 20  1  0
  1 21  1  0
  1 22  1  0
  8 23  1  0
 10 24  1  0
 12 25  1  0
 13 26  1  0
 15 27  1  0
 15 28  1  0
 16 29  1  0
 16 30  1  0
 17 31  1  0
 17 32  1  0
 17 33  1  0
 18 34  1  0
M  CHG  2   8  -1  17   1
M  END
>  <UniqueID>  (61) 
60

>  <SMILES>  (61) 
COC(=O)n1c(C([NH-])=O)cc2ccc(CC[NH3+])cc21

>  <Energy>  (61) 
67.69818142169964

>  <Genealogy>  (61) 
COC(=O)n1c(C([NH-])=O)cc2ccc(CC[NH3+])cc21 (protonated)
COC(=O)n1c(C([NH-])=O)cc2ccc(CC[NH3+])cc21 (3D coordinates assigned)
COC(=O)n1c(C([NH-])=O)cc2ccc(CC[NH3+])cc21 (optimized conformer: 67.69818142169964 kcal/mol)

>  <smiles>  (61) 
COC(=O)n1c(C(N)=O)cc2ccc(CCN)cc21

>  <score_type>  (61) 
oracle

>  <origin>  (61) 
adg

>  <m_score__min__energy>  (61) 
-6.21

>  <m_primary>  (61) 
energy

$$$$
61:0
     RDKit          3D

 50 53  0  0  0  0  0  0  0  0999 V2000
  149.1720  157.2920  132.5520 N   0  0  0  0  0  0  0  0  0  0  0  0
  148.7410  158.6000  132.9140 C   0  0  0  0  0  0  0  0  0  0  0  0
  149.5870  159.5300  132.9900 O   0  0  0  0  0  0  0  0  0  0  0  0
  147.3140  158.8860  133.1600 C   0  0  0  0  0  0  0  0  0  0  0  0
  146.8070  160.1710  133.3560 C   0  0  0  0  0  0  0  0  0  0  0  0
  145.4460  160.0090  133.4900 C   0  0  0  0  0  0  0  0  0  0  0  0
  144.4500  160.9510  133.7340 C   0  0  0  0  0  0  0  0  0  0  0  0
  143.1290  160.4900  133.8680 C   0  0  0  0  0  0  0  0  0  0  0  0
  142.8310  159.1090  133.7520 C   0  0  0  0  0  0  0  0  0  0  0  0
  141.4380  158.6390  133.9140 C   0  0  0  0  0  0  0  0  0  0  0  0
  140.7220  158.2540  132.7680 C   0  0  0  0  0  0  0  0  0  0  0  0
  139.3970  157.8290  132.8700 C   0  0  0  0  0  0  0  0  0  0  0  0
  138.7690  157.7840  134.1150 C   0  0  0  0  0  0  0  0  0  0  0  0
  139.4710  158.1510  135.2660 C   0  0  0  0  0  0  0  0  0  0  0  0
  140.8120  158.5630  135.1860 C   0  0  0  0  0  0  0  0  0  0  0  0
  141.5350  158.9150  136.4620 C   0  0  0  0  0  0  0  0  0  0  0  0
  140.7380  159.7680  137.2320 O   0  0  0  0  0  0  0  0  0  0  0  0
  143.8700  158.1820  133.5180 C   0  0  0  0  0  0  0  0  0  0  0  0
  145.1710  158.6720  133.3770 C   0  0  0  0  0  0  0  0  0  0  0  0
  146.3050  157.9690  133.1770 N   0  0  0  0  0  0  0  0  0  0  0  0
  146.4040  156.5390  133.1350 C   0  0  0  0  0  0  0  0  0  0  0  0
  146.6310  155.9720  132.0310 O   0  0  0  0  0  0  0  0  0  0  0  0
  146.0540  155.7330  134.3690 C   0  0  0  0  0  0  0  0  0  0  0  0
  144.7980  154.9570  134.2940 N   0  0  0  0  0  0  0  0  0  0  0  0
  143.8320  155.2280  135.3680 C   0  0  0  0  0  0  0  0  0  0  0  0
  142.4550  155.3480  134.7270 C   0  0  0  0  0  0  0  0  0  0  0  0
  142.6250  154.8060  133.3240 C   0  0  0  0  0  0  0  0  0  0  0  0
  144.0900  155.0340  133.0120 C   0  0  0  0  0  0  0  0  0  0  0  0
  148.6470  156.7270  131.8490 H   0  0  0  0  0  0  0  0  0  0  0  0
  147.3737  161.1130  133.3952 H   0  0  0  0  0  0  0  0  0  0  0  0
  144.6893  162.0213  133.8191 H   0  0  0  0  0  0  0  0  0  0  0  0
  142.3188  161.2076  134.0647 H   0  0  0  0  0  0  0  0  0  0  0  0
  141.2099  158.2879  131.7827 H   0  0  0  0  0  0  0  0  0  0  0  0
  138.8461  157.5286  131.9665 H   0  0  0  0  0  0  0  0  0  0  0  0
  137.7207  157.4594  134.1905 H   0  0  0  0  0  0  0  0  0  0  0  0
  138.9690  158.1171  136.2442 H   0  0  0  0  0  0  0  0  0  0  0  0
  141.7434  157.9964  137.0302 H   0  0  0  0  0  0  0  0  0  0  0  0
  142.4816  159.4197  136.2186 H   0  0  0  0  0  0  0  0  0  0  0  0
  139.8180  159.4050  137.1840 H   0  0  0  0  0  0  0  0  0  0  0  0
  143.6611  157.1042  133.4486 H   0  0  0  0  0  0  0  0  0  0  0  0
  146.8766  155.0270  134.5558 H   0  0  0  0  0  0  0  0  0  0  0  0
  145.9044  156.4676  135.1740 H   0  0  0  0  0  0  0  0  0  0  0  0
  143.8371  154.4023  136.0947 H   0  0  0  0  0  0  0  0  0  0  0  0
  144.0938  156.1549  135.8993 H   0  0  0  0  0  0  0  0  0  0  0  0
  141.7164  154.7529  135.2841 H   0  0  0  0  0  0  0  0  0  0  0  0
  142.0893  156.3855  134.7267 H   0  0  0  0  0  0  0  0  0  0  0  0
  142.3807  153.7341  133.2877 H   0  0  0  0  0  0  0  0  0  0  0  0
  141.9587  155.2968  132.5993 H   0  0  0  0  0  0  0  0  0  0  0  0
  144.4589  154.2578  132.3254 H   0  0  0  0  0  0  0  0  0  0  0  0
  144.2493  156.0068  132.5239 H   0  0  0  0  0  0  0  0  0  0  0  0
  1  2  1  0
  2  3  2  0
  2  4  1  0
  4  5  2  0
  5  6  1  0
  6  7  2  0
  7  8  1  0
  8  9  2  0
  9 10  1  0
 10 11  2  0
 11 12  1  0
 12 13  2  0
 13 14  1  0
 14 15  2  0
 15 16  1  0
 16 17  1  0
  9 18  1  0
 18 19  2  0
 19 20  1  0
 20 21  1  0
 21 22  2  0
 21 23  1  0
 23 24  1  0
 24 25  1  0
 25 26  1  0
 26 27  1  0
 27 28  1  0
 20  4  1  0
 28 24  1  0
 19  6  1  0
 15 10  1  0
  1 29  1  0
  5 30  1  0
  7 31  1  0
  8 32  1  0
 11 33  1  0
 12 34  1  0
 13 35  1  0
 14 36  1  0
 16 37  1  0
 16 38  1  0
 17 39  1  0
 18 40  1  0
 23 41  1  0
 23 42  1  0
 25 43  1  0
 25 44  1  0
 26 45  1  0
 26 46  1  0
 27 47  1  0
 27 48  1  0
 28 49  1  0
 28 50  1  0
M  CHG  1   1  -1
M  END
>  <UniqueID>  (62) 
61

>  <SMILES>  (62) 
[NH-]C(=O)c1cc2ccc(-c3ccccc3CO)cc2n1C(=O)CN1CCCC1

>  <Energy>  (62) 
107.71115804259071

>  <Genealogy>  (62) 
[NH-]C(=O)c1cc2ccc(-c3ccccc3CO)cc2n1C(=O)CN1CCCC1 (protonated)
[NH-]C(=O)c1cc2ccc(-c3ccccc3CO)cc2n1C(=O)CN1CCCC1 (3D coordinates assigned)
[NH-]C(=O)c1cc2ccc(-c3ccccc3CO)cc2n1C(=O)CN1CCCC1 (nonaromatic ring conformer: 107.71115804259071 kcal/mol)

>  <smiles>  (62) 
NC(=O)c1cc2ccc(-c3ccccc3CO)cc2n1C(=O)CN1CCCC1

>  <score_type>  (62) 
oracle

>  <origin>  (62) 
adg

>  <m_score__min__energy>  (62) 
-9.0899999999999999

>  <m_primary>  (62) 
energy

$$$$
62:0
     RDKit          3D

 34 36  0  0  0  0  0  0  0  0999 V2000
  146.9690  155.9160  134.3030 C   0  0  0  0  0  0  0  0  0  0  0  0
  146.9180  156.7180  133.0420 C   0  0  0  0  0  0  0  0  0  0  0  0
  146.9180  156.1220  131.9320 O   0  0  0  0  0  0  0  0  0  0  0  0
  146.8010  158.1480  133.0830 N   0  0  0  0  0  0  0  0  0  0  0  0
  147.7690  159.0800  132.8520 C   0  0  0  0  0  0  0  0  0  0  0  0
  149.1380  158.8020  132.3720 C   0  0  0  0  0  0  0  0  0  0  0  0
  149.5800  157.4540  132.2220 N   0  0  0  0  0  0  0  0  0  0  0  0
  149.9360  159.7430  132.1200 O   0  0  0  0  0  0  0  0  0  0  0  0
  147.2670  160.3640  133.0540 C   0  0  0  0  0  0  0  0  0  0  0  0
  145.9490  160.1890  133.4060 C   0  0  0  0  0  0  0  0  0  0  0  0
  144.9720  161.1290  133.7230 C   0  0  0  0  0  0  0  0  0  0  0  0
  143.6930  160.6590  134.0660 C   0  0  0  0  0  0  0  0  0  0  0  0
  143.4110  159.2670  134.0920 C   0  0  0  0  0  0  0  0  0  0  0  0
  142.0570  158.7830  134.4640 C   0  0  0  0  0  0  0  0  0  0  0  0
  141.2170  158.1950  133.4990 C   0  0  0  0  0  0  0  0  0  0  0  0
  139.9430  157.7400  133.8510 C   0  0  0  0  0  0  0  0  0  0  0  0
  139.4930  157.8650  135.1680 C   0  0  0  0  0  0  0  0  0  0  0  0
  140.3180  158.4460  136.1350 C   0  0  0  0  0  0  0  0  0  0  0  0
  141.5920  158.9030  135.7870 C   0  0  0  0  0  0  0  0  0  0  0  0
  144.4340  158.3450  133.7630 C   0  0  0  0  0  0  0  0  0  0  0  0
  145.6920  158.8430  133.4140 C   0  0  0  0  0  0  0  0  0  0  0  0
  146.9260  156.5922  135.1696 H   0  0  0  0  0  0  0  0  0  0  0  0
  146.1129  155.2259  134.3335 H   0  0  0  0  0  0  0  0  0  0  0  0
  147.9056  155.3399  134.3335 H   0  0  0  0  0  0  0  0  0  0  0  0
  148.9710  156.7360  131.7700 H   0  0  0  0  0  0  0  0  0  0  0  0
  147.8096  161.3156  132.9533 H   0  0  0  0  0  0  0  0  0  0  0  0
  145.1945  162.2061  133.7055 H   0  0  0  0  0  0  0  0  0  0  0  0
  142.8998  161.3783  134.3176 H   0  0  0  0  0  0  0  0  0  0  0  0
  141.5658  158.0930  132.4607 H   0  0  0  0  0  0  0  0  0  0  0  0
  139.2936  157.2828  133.0899 H   0  0  0  0  0  0  0  0  0  0  0  0
  138.4902  157.5064  135.4434 H   0  0  0  0  0  0  0  0  0  0  0  0
  139.9639  158.5437  137.1718 H   0  0  0  0  0  0  0  0  0  0  0  0
  142.2361  159.3599  136.5527 H   0  0  0  0  0  0  0  0  0  0  0  0
  144.2428  157.2619  133.7817 H   0  0  0  0  0  0  0  0  0  0  0  0
  1  2  1  0
  2  3  2  0
  2  4  1  0
  4  5  1  0
  5  6  1  0
  6  7  1  0
  6  8  2  0
  5  9  2  0
  9 10  1  0
 10 11  2  0
 11 12  1  0
 12 13  2  0
 13 14  1  0
 14 15  2  0
 15 16  1  0
 16 17  2  0
 17 18  1  0
 18 19  2  0
 13 20  1  0
 20 21  2  0
 21  4  1  0
 21 10  1  0
 19 14  1  0
  1 22  1  0
  1 23  1  0
  1 24  1  0
  7 25  1  0
  9 26  1  0
 11 27  1  0
 12 28  1  0
 15 29  1  0
 16 30  1  0
 17 31  1  0
 18 32  1  0
 19 33  1  0
 20 34  1  0
M  CHG  1   7  -1
M  END
>  <UniqueID>  (63) 
62

>  <SMILES>  (63) 
CC(=O)n1c(C([NH-])=O)cc2ccc(-c3ccccc3)cc21

>  <Energy>  (63) 
80.63018965062743

>  <Genealogy>  (63) 
CC(=O)n1c(C([NH-])=O)cc2ccc(-c3ccccc3)cc21 (protonated)
CC(=O)n1c(C([NH-])=O)cc2ccc(-c3ccccc3)cc21 (3D coordinates assigned)
CC(=O)n1c(C([NH-])=O)cc2ccc(-c3ccccc3)cc21 (optimized conformer: 80.63018965062743 kcal/mol)

>  <smiles>  (63) 
CC(=O)n1c(C(N)=O)cc2ccc(-c3ccccc3)cc21

>  <score_type>  (63) 
oracle

>  <origin>  (63) 
adg

>  <m_score__min__energy>  (63) 
-7.6399999999999997

>  <m_primary>  (63) 
energy

$$$$
63:0
     RDKit          3D

 50 52  0  0  0  0  0  0  0  0999 V2000
  140.3320  159.1060  131.5420 C   0  0  0  0  0  0  0  0  0  0  0  0
  138.7780  158.3080  131.8820 S   0  0  0  0  0  0  0  0  0  0  0  0
  137.7450  159.3620  132.1770 O   0  0  0  0  0  0  0  0  0  0  0  0
  138.3600  157.5400  130.6580 O   0  0  0  0  0  0  0  0  0  0  0  0
  138.9590  157.2160  133.2430 N   0  0  0  0  0  0  0  0  0  0  0  0
  140.0420  156.2240  133.0090 C   0  0  0  0  0  0  0  0  0  0  0  0
  141.3690  156.5400  133.7350 C   0  0  0  0  0  0  0  0  0  0  0  0
  141.5340  157.9800  133.9610 N   0  0  0  0  0  0  0  0  0  0  0  0
  142.8360  158.5860  133.8350 C   0  0  0  0  0  0  0  0  0  0  0  0
  142.9760  159.9970  133.8810 C   0  0  0  0  0  0  0  0  0  0  0  0
  144.2360  160.5990  133.7140 C   0  0  0  0  0  0  0  0  0  0  0  0
  145.3340  159.7710  133.5090 C   0  0  0  0  0  0  0  0  0  0  0  0
  146.6580  160.0820  133.2950 C   0  0  0  0  0  0  0  0  0  0  0  0
  147.3030  158.8610  133.1220 C   0  0  0  0  0  0  0  0  0  0  0  0
  148.7230  158.7280  132.7430 C   0  0  0  0  0  0  0  0  0  0  0  0
  149.2080  157.4950  132.2320 N   0  0  0  0  0  0  0  0  0  0  0  0
  149.5230  159.6850  132.9110 O   0  0  0  0  0  0  0  0  0  0  0  0
  146.4170  157.8330  133.2380 N   0  0  0  0  0  0  0  0  0  0  0  0
  146.6920  156.4240  133.2300 C   0  0  0  0  0  0  0  0  0  0  0  0
  146.6100  155.7760  132.1500 O   0  0  0  0  0  0  0  0  0  0  0  0
  146.9500  155.6850  134.5170 C   0  0  0  0  0  0  0  0  0  0  0  0
  146.3450  154.2770  134.4920 C   0  0  0  0  0  0  0  0  0  0  0  0
  145.9080  153.8300  135.8530 C   0  0  0  0  0  0  0  0  0  0  0  0
  144.7080  153.9650  136.2080 O   0  0  0  0  0  0  0  0  0  0  0  0
  146.8250  153.2790  136.7340 O   0  0  0  0  0  0  0  0  0  0  0  0
  145.2160  158.4060  133.4620 C   0  0  0  0  0  0  0  0  0  0  0  0
  143.9780  157.7780  133.6290 C   0  0  0  0  0  0  0  0  0  0  0  0
  140.4300  158.7480  134.5470 C   0  0  0  0  0  0  0  0  0  0  0  0
  139.1210  157.9480  134.5150 C   0  0  0  0  0  0  0  0  0  0  0  0
  140.8284  159.3609  132.4899 H   0  0  0  0  0  0  0  0  0  0  0  0
  140.9743  158.4262  130.9630 H   0  0  0  0  0  0  0  0  0  0  0  0
  140.1538  160.0241  130.9630 H   0  0  0  0  0  0  0  0  0  0  0  0
  138.0560  156.6890  133.3060 H   0  0  0  0  0  0  0  0  0  0  0  0
  139.6878  155.2411  133.3532 H   0  0  0  0  0  0  0  0  0  0  0  0
  140.2615  156.2492  131.9314 H   0  0  0  0  0  0  0  0  0  0  0  0
  141.3758  156.0236  134.7062 H   0  0  0  0  0  0  0  0  0  0  0  0
  142.1981  156.1953  133.0996 H   0  0  0  0  0  0  0  0  0  0  0  0
  142.0899  160.6267  134.0490 H   0  0  0  0  0  0  0  0  0  0  0  0
  144.3495  161.6927  133.7447 H   0  0  0  0  0  0  0  0  0  0  0  0
  147.1106  161.0842  133.2667 H   0  0  0  0  0  0  0  0  0  0  0  0
  148.5610  156.7770  131.8350 H   0  0  0  0  0  0  0  0  0  0  0  0
  148.0363  155.6038  134.6701 H   0  0  0  0  0  0  0  0  0  0  0  0
  146.4779  156.2471  135.3363 H   0  0  0  0  0  0  0  0  0  0  0  0
  145.4732  154.2769  133.8212 H   0  0  0  0  0  0  0  0  0  0  0  0
  147.1194  153.5806  134.1380 H   0  0  0  0  0  0  0  0  0  0  0  0
  143.8944  156.6815  133.6008 H   0  0  0  0  0  0  0  0  0  0  0  0
  140.6765  158.9916  135.5910 H   0  0  0  0  0  0  0  0  0  0  0  0
  140.2922  159.6663  133.9573 H   0  0  0  0  0  0  0  0  0  0  0  0
  139.1246  157.2252  135.3442 H   0  0  0  0  0  0  0  0  0  0  0  0
  138.2844  158.6555  134.6123 H   0  0  0  0  0  0  0  0  0  0  0  0
  1  2  1  0
  2  3  2  0
  2  4  2  0
  2  5  1  0
  5  6  1  0
  6  7  1  0
  7  8  1  0
  8  9  1  0
  9 10  2  0
 10 11  1  0
 11 12  2  0
 12 13  1  0
 13 14  2  0
 14 15  1  0
 15 16  1  0
 15 17  2  0
 14 18  1  0
 18 19  1  0
 19 20  2  0
 19 21  1  0
 21 22  1  0
 22 23  1  0
 23 24  2  0
 23 25  1  0
 18 26  1  0
 26 27  2  0
  8 28  1  0
 28 29  1  0
 29  5  1  0
 27  9  1  0
 26 12  1  0
  1 30  1  0
  1 31  1  0
  1 32  1  0
  5 33  1  0
  6 34  1  0
  6 35  1  0
  7 36  1  0
  7 37  1  0
 10 38  1  0
 11 39  1  0
 13 40  1  0
 16 41  1  0
 21 42  1  0
 21 43  1  0
 22 44  1  0
 22 45  1  0
 27 46  1  0
 28 47  1  0
 28 48  1  0
 29 49  1  0
 29 50  1  0
M  CHG  3   5   1  16  -1  25  -1
M  END
>  <UniqueID>  (64) 
63

>  <SMILES>  (64) 
CS(=O)(=O)[NH+]1CCN(c2ccc3cc(C([NH-])=O)n(C(=O)CCC(=O)[O-])c3c2)CC1

>  <Energy>  (64) 
93.13565389942202

>  <Genealogy>  (64) 
CS(=O)(=O)[NH+]1CCN(c2ccc3cc(C([NH-])=O)n(C(=O)CCC(=O)[O-])c3c2)CC1 (protonated)
CS(=O)(=O)[NH+]1CCN(c2ccc3cc(C([NH-])=O)n(C(=O)CCC(=O)[O-])c3c2)CC1 (3D coordinates assigned)
CS(=O)(=O)[NH+]1CCN(c2ccc3cc(C([NH-])=O)n(C(=O)CCC(=O)[O-])c3c2)CC1 (nonaromatic ring conformer: 93.13565389942202 kcal/mol)

>  <smiles>  (64) 
CS(=O)(=O)N1CCN(c2ccc3cc(C(N)=O)n(C(=O)CCC(=O)O)c3c2)CC1

>  <score_type>  (64) 
oracle

>  <origin>  (64) 
adg

>  <m_score__min__energy>  (64) 
-8.6300000000000008

>  <m_primary>  (64) 
energy

$$$$
64:0
     RDKit          3D

 46 47  0  0  0  0  0  0  0  0999 V2000
  139.8870  159.3490  131.0150 C   0  0  0  0  0  0  0  0  0  0  0  0
  139.9980  158.4070  132.0620 O   0  0  0  0  0  0  0  0  0  0  0  0
  138.7360  158.2050  132.6840 C   0  0  0  0  0  0  0  0  0  0  0  0
  138.9270  157.6160  134.0940 C   0  0  0  0  0  0  0  0  0  0  0  0
  140.3320  157.2030  134.3600 N   0  0  1  0  0  0  0  0  0  0  0  0
  140.6120  157.2150  135.8110 C   0  0  0  0  0  0  0  0  0  0  0  0
  140.7230  155.9050  133.7420 C   0  0  0  0  0  0  0  0  0  0  0  0
  141.9800  155.2380  134.3710 C   0  0  0  0  0  0  0  0  0  0  0  0
  143.1410  155.1480  133.3700 C   0  0  0  0  0  0  0  0  0  0  0  0
  143.9370  156.4290  133.3680 C   0  0  0  0  0  0  0  0  0  0  0  0
  145.3430  156.3940  133.2090 C   0  0  0  0  0  0  0  0  0  0  0  0
  146.1000  157.5760  133.2780 C   0  0  0  0  0  0  0  0  0  0  0  0
  145.4280  158.7710  133.5160 C   0  0  0  0  0  0  0  0  0  0  0  0
  145.9160  160.0570  133.6100 C   0  0  0  0  0  0  0  0  0  0  0  0
  144.7960  160.8530  133.8560 C   0  0  0  0  0  0  0  0  0  0  0  0
  144.8790  162.3050  134.1140 C   0  0  0  0  0  0  0  0  0  0  0  0
  145.8970  162.8390  134.9620 N   0  0  0  0  0  0  0  0  0  0  0  0
  144.0760  163.0890  133.5430 O   0  0  0  0  0  0  0  0  0  0  0  0
  143.6620  160.0960  133.9000 N   0  0  0  0  0  0  0  0  0  0  0  0
  142.3020  160.5590  134.0040 C   0  0  0  0  0  0  0  0  0  0  0  0
  141.9350  161.6120  133.4150 O   0  0  0  0  0  0  0  0  0  0  0  0
  141.3890  159.8720  134.7940 O   0  0  0  0  0  0  0  0  0  0  0  0
  144.0670  158.8210  133.6930 C   0  0  0  0  0  0  0  0  0  0  0  0
  143.2850  157.6590  133.6170 C   0  0  0  0  0  0  0  0  0  0  0  0
  139.7682  160.3568  131.4396 H   0  0  0  0  0  0  0  0  0  0  0  0
  140.7951  159.3169  130.3951 H   0  0  0  0  0  0  0  0  0  0  0  0
  139.0112  159.1067  130.3951 H   0  0  0  0  0  0  0  0  0  0  0  0
  138.2102  159.1682  132.7606 H   0  0  0  0  0  0  0  0  0  0  0  0
  138.1453  157.5022  132.0781 H   0  0  0  0  0  0  0  0  0  0  0  0
  138.6376  158.3760  134.8347 H   0  0  0  0  0  0  0  0  0  0  0  0
  138.2977  156.7166  134.1657 H   0  0  0  0  0  0  0  0  0  0  0  0
  140.9510  157.9400  133.9390 H   0  0  0  0  0  0  0  0  0  0  0  0
  139.6641  157.1744  136.3677 H   0  0  0  0  0  0  0  0  0  0  0  0
  141.2286  156.3424  136.0727 H   0  0  0  0  0  0  0  0  0  0  0  0
  141.1517  158.1371  136.0727 H   0  0  0  0  0  0  0  0  0  0  0  0
  139.8779  155.2083  133.8445 H   0  0  0  0  0  0  0  0  0  0  0  0
  140.9787  156.1240  132.6948 H   0  0  0  0  0  0  0  0  0  0  0  0
  142.3028  155.8337  135.2376 H   0  0  0  0  0  0  0  0  0  0  0  0
  141.7090  154.2153  134.6721 H   0  0  0  0  0  0  0  0  0  0  0  0
  143.7991  154.3133  133.6530 H   0  0  0  0  0  0  0  0  0  0  0  0
  142.7305  154.9825  132.3629 H   0  0  0  0  0  0  0  0  0  0  0  0
  145.8476  155.4331  133.0298 H   0  0  0  0  0  0  0  0  0  0  0  0
  147.1921  157.5571  133.1476 H   0  0  0  0  0  0  0  0  0  0  0  0
  146.9615  160.3848  133.5123 H   0  0  0  0  0  0  0  0  0  0  0  0
  146.9070  162.7480  134.7080 H   0  0  0  0  0  0  0  0  0  0  0  0
  142.1937  157.7033  133.7476 H   0  0  0  0  0  0  0  0  0  0  0  0
  1  2  1  0
  2  3  1  0
  3  4  1  0
  4  5  1  0
  5  6  1  0
  5  7  1  0
  7  8  1  0
  8  9  1  0
  9 10  1  0
 10 11  2  0
 11 12  1  0
 12 13  2  0
 13 14  1  0
 14 15  2  0
 15 16  1  0
 16 17  1  0
 16 18  2  0
 15 19  1  0
 19 20  1  0
 20 21  2  0
 20 22  1  0
 19 23  1  0
 23 24  2  0
 24 10  1  0
 23 13  1  0
  1 25  1  0
  1 26  1  0
  1 27  1  0
  3 28  1  0
  3 29  1  0
  4 30  1  0
  4 31  1  0
  5 32  1  6
  6 33  1  0
  6 34  1  0
  6 35  1  0
  7 36  1  0
  7 37  1  0
  8 38  1  0
  8 39  1  0
  9 40  1  0
  9 41  1  0
 11 42  1  0
 12 43  1  0
 14 44  1  0
 17 45  1  0
 24 46  1  0
M  CHG  3   5   1  17  -1  22  -1
M  END
>  <UniqueID>  (65) 
64

>  <SMILES>  (65) 
COCC[N@@H+](C)CCCc1ccc2cc(C([NH-])=O)n(C(=O)[O-])c2c1

>  <Energy>  (65) 
91.21100803066263

>  <Genealogy>  (65) 
COCC[NH+](C)CCCc1ccc2cc(C([NH-])=O)n(C(=O)[O-])c2c1 (protonated)
COCC[N@@H+](C)CCCc1ccc2cc(C([NH-])=O)n(C(=O)[O-])c2c1 (chirality)
COCC[N@@H+](C)CCCc1ccc2cc(C([NH-])=O)n(C(=O)[O-])c2c1 (3D coordinates assigned)
COCC[N@@H+](C)CCCc1ccc2cc(C([NH-])=O)n(C(=O)[O-])c2c1 (optimized conformer: 91.21100803066263 kcal/mol)

>  <smiles>  (65) 
COCCN(C)CCCc1ccc2cc(C(N)=O)n(C(=O)O)c2c1

>  <score_type>  (65) 
oracle

>  <origin>  (65) 
adg

>  <m_score__min__energy>  (65) 
-5.8700000000000001

>  <m_primary>  (65) 
energy

$$$$
65:0
     RDKit          3D

 34 37  0  0  0  0  0  0  0  0999 V2000
  139.7070  158.2250  136.6780 N   0  0  0  0  0  0  0  0  0  0  0  0
  140.0190  158.1690  135.2880 C   0  0  0  0  0  0  0  0  0  0  0  0
  139.0860  158.2490  134.4430 O   0  0  0  0  0  0  0  0  0  0  0  0
  141.4070  157.9580  134.8280 C   0  0  0  0  0  0  0  0  0  0  0  0
  142.1280  156.7950  135.0830 C   0  0  0  0  0  0  0  0  0  0  0  0
  143.3870  157.0280  134.5790 C   0  0  0  0  0  0  0  0  0  0  0  0
  144.5070  156.2040  134.5530 C   0  0  0  0  0  0  0  0  0  0  0  0
  145.6720  156.6930  133.9410 C   0  0  0  0  0  0  0  0  0  0  0  0
  145.6990  157.9890  133.3600 C   0  0  0  0  0  0  0  0  0  0  0  0
  146.9330  158.4900  132.7040 C   0  0  0  0  0  0  0  0  0  0  0  0
  148.1320  157.7270  132.7470 C   0  0  0  0  0  0  0  0  0  0  0  0
  149.3040  158.1960  132.1270 C   0  0  0  0  0  0  0  0  0  0  0  0
  149.2500  159.4240  131.4780 C   0  0  0  0  0  0  0  0  0  0  0  0
  148.1120  160.1610  131.4310 C   0  0  0  0  0  0  0  0  0  0  0  0
  146.9300  159.7350  132.0300 C   0  0  0  0  0  0  0  0  0  0  0  0
  148.3470  161.3240  130.7230 O   0  0  0  0  0  0  0  0  0  0  0  0
  149.7170  161.3170  130.3000 C   0  0  0  0  0  0  0  0  0  0  0  0
  150.2570  160.0870  130.8030 O   0  0  0  0  0  0  0  0  0  0  0  0
  144.5370  158.7960  133.4070 C   0  0  0  0  0  0  0  0  0  0  0  0
  143.3960  158.2890  134.0400 C   0  0  0  0  0  0  0  0  0  0  0  0
  142.1850  158.8730  134.1830 N   0  0  0  0  0  0  0  0  0  0  0  0
  141.7880  160.1520  133.6630 C   0  0  0  0  0  0  0  0  0  0  0  0
  140.6460  160.3070  133.1560 O   0  0  0  0  0  0  0  0  0  0  0  0
  142.6520  161.2380  133.7390 O   0  0  0  0  0  0  0  0  0  0  0  0
  139.0930  158.9780  137.0600 H   0  0  0  0  0  0  0  0  0  0  0  0
  141.7678  155.8831  135.5816 H   0  0  0  0  0  0  0  0  0  0  0  0
  144.4808  155.1987  134.9988 H   0  0  0  0  0  0  0  0  0  0  0  0
  146.5747  156.0651  133.9110 H   0  0  0  0  0  0  0  0  0  0  0  0
  148.1431  156.7597  133.2707 H   0  0  0  0  0  0  0  0  0  0  0  0
  150.2342  157.6095  132.1548 H   0  0  0  0  0  0  0  0  0  0  0  0
  146.0185  160.3489  131.9810 H   0  0  0  0  0  0  0  0  0  0  0  0
  149.7824  161.3472  129.2024 H   0  0  0  0  0  0  0  0  0  0  0  0
  150.2682  162.1925  130.6737 H   0  0  0  0  0  0  0  0  0  0  0  0
  144.5307  159.7993  132.9561 H   0  0  0  0  0  0  0  0  0  0  0  0
  1  2  1  0
  2  3  2  0
  2  4  1  0
  4  5  2  0
  5  6  1  0
  6  7  2  0
  7  8  1  0
  8  9  2  0
  9 10  1  0
 10 11  2  0
 11 12  1  0
 12 13  2  0
 13 14  1  0
 14 15  2  0
 14 16  1  0
 16 17  1  0
 17 18  1  0
  9 19  1  0
 19 20  2  0
 20 21  1  0
 21 22  1  0
 22 23  2  0
 22 24  1  0
 21  4  1  0
 20  6  1  0
 15 10  1  0
 18 13  1  0
  1 25  1  0
  5 26  1  0
  7 27  1  0
  8 28  1  0
 11 29  1  0
 12 30  1  0
 15 31  1  0
 17 32  1  0
 17 33  1  0
 19 34  1  0
M  CHG  2   1  -1  24  -1
M  END
>  <UniqueID>  (66) 
65

>  <SMILES>  (66) 
[NH-]C(=O)c1cc2ccc(-c3ccc4c(c3)OCO4)cc2n1C(=O)[O-]

>  <Energy>  (66) 
111.40164129922621

>  <Genealogy>  (66) 
[NH-]C(=O)c1cc2ccc(-c3ccc4c(c3)OCO4)cc2n1C(=O)[O-] (protonated)
[NH-]C(=O)c1cc2ccc(-c3ccc4c(c3)OCO4)cc2n1C(=O)[O-] (3D coordinates assigned)
[NH-]C(=O)c1cc2ccc(-c3ccc4c(c3)OCO4)cc2n1C(=O)[O-] (nonaromatic ring conformer: 111.40164129922621 kcal/mol)

>  <smiles>  (66) 
NC(=O)c1cc2ccc(-c3ccc4c(c3)OCO4)cc2n1C(=O)O

>  <score_type>  (66) 
oracle

>  <origin>  (66) 
adg

>  <m_score__min__energy>  (66) 
-7.4500000000000002

>  <m_primary>  (66) 
energy

$$$$
66:0
     RDKit          3D

 32 34  0  0  0  0  0  0  0  0999 V2000
  149.3010  150.6830  132.4960 C   0  0  0  0  0  0  0  0  0  0  0  0
  148.9220  152.1220  132.5810 C   0  0  0  0  0  0  0  0  0  0  0  0
  147.6390  152.4720  132.8650 N   0  0  0  0  0  0  0  0  0  0  0  0
  147.2770  153.7750  132.9840 C   0  0  0  0  0  0  0  0  0  0  0  0
  148.2310  154.7900  132.8210 C   0  0  0  0  0  0  0  0  0  0  0  0
  147.8620  156.2240  132.9430 C   0  0  0  0  0  0  0  0  0  0  0  0
  148.8550  157.2330  132.8360 C   0  0  0  0  0  0  0  0  0  0  0  0
  148.5190  158.5900  132.9610 C   0  0  0  0  0  0  0  0  0  0  0  0
  147.1850  158.9140  133.1850 C   0  0  0  0  0  0  0  0  0  0  0  0
  146.5930  160.1410  133.3710 C   0  0  0  0  0  0  0  0  0  0  0  0
  145.2390  159.8730  133.5660 C   0  0  0  0  0  0  0  0  0  0  0  0
  144.2170  160.9290  133.7170 C   0  0  0  0  0  0  0  0  0  0  0  0
  142.8560  160.6860  133.3720 N   0  0  0  0  0  0  0  0  0  0  0  0
  144.5580  162.0760  134.1090 O   0  0  0  0  0  0  0  0  0  0  0  0
  145.0060  158.5310  133.5120 N   0  0  0  0  0  0  0  0  0  0  0  0
  143.7670  157.8470  133.7560 C   0  0  0  0  0  0  0  0  0  0  0  0
  143.5750  157.2490  134.8490 O   0  0  0  0  0  0  0  0  0  0  0  0
  142.7570  157.8610  132.8030 O   0  0  0  0  0  0  0  0  0  0  0  0
  146.2070  157.9580  133.2740 C   0  0  0  0  0  0  0  0  0  0  0  0
  146.5160  156.5970  133.1720 C   0  0  0  0  0  0  0  0  0  0  0  0
  149.5510  154.4020  132.5400 C   0  0  0  0  0  0  0  0  0  0  0  0
  149.8680  153.0860  132.4330 N   0  0  0  0  0  0  0  0  0  0  0  0
  149.4093  150.2718  133.5105 H   0  0  0  0  0  0  0  0  0  0  0  0
  148.5182  150.1288  131.9574 H   0  0  0  0  0  0  0  0  0  0  0  0
  150.2552  150.5863  131.9574 H   0  0  0  0  0  0  0  0  0  0  0  0
  146.2322  154.0355  133.2089 H   0  0  0  0  0  0  0  0  0  0  0  0
  149.9014  156.9475  132.6527 H   0  0  0  0  0  0  0  0  0  0  0  0
  149.2873  159.3735  132.8842 H   0  0  0  0  0  0  0  0  0  0  0  0
  147.0838  161.1254  133.3668 H   0  0  0  0  0  0  0  0  0  0  0  0
  142.6070  160.0200  132.6060 H   0  0  0  0  0  0  0  0  0  0  0  0
  145.7299  155.8336  133.2677 H   0  0  0  0  0  0  0  0  0  0  0  0
  150.3305  155.1664  132.4061 H   0  0  0  0  0  0  0  0  0  0  0  0
  1  2  1  0
  2  3  2  0
  3  4  1  0
  4  5  2  0
  5  6  1  0
  6  7  2  0
  7  8  1  0
  8  9  2  0
  9 10  1  0
 10 11  2  0
 11 12  1  0
 12 13  1  0
 12 14  2  0
 11 15  1  0
 15 16  1  0
 16 17  2  0
 16 18  1  0
 15 19  1  0
 19 20  2  0
  5 21  1  0
 21 22  2  0
 22  2  1  0
 20  6  1  0
 19  9  1  0
  1 23  1  0
  1 24  1  0
  1 25  1  0
  4 26  1  0
  7 27  1  0
  8 28  1  0
 10 29  1  0
 13 30  1  0
 20 31  1  0
 21 32  1  0
M  CHG  2  13  -1  18  -1
M  END
>  <UniqueID>  (67) 
66

>  <SMILES>  (67) 
Cc1ncc(-c2ccc3cc(C([NH-])=O)n(C(=O)[O-])c3c2)cn1

>  <Energy>  (67) 
79.47766484985296

>  <Genealogy>  (67) 
Cc1ncc(-c2ccc3cc(C([NH-])=O)n(C(=O)[O-])c3c2)cn1 (protonated)
Cc1ncc(-c2ccc3cc(C([NH-])=O)n(C(=O)[O-])c3c2)cn1 (3D coordinates assigned)
Cc1ncc(-c2ccc3cc(C([NH-])=O)n(C(=O)[O-])c3c2)cn1 (optimized conformer: 79.47766484985296 kcal/mol)

>  <smiles>  (67) 
Cc1ncc(-c2ccc3cc(C(N)=O)n(C(=O)O)c3c2)cn1

>  <score_type>  (67) 
oracle

>  <origin>  (67) 
adg

>  <m_score__min__energy>  (67) 
-6.9900000000000002

>  <m_primary>  (67) 
energy

$$$$
67:0
     RDKit          3D

 33 34  0  0  0  0  0  0  0  0999 V2000
  147.3500  153.5050  136.0240 N   0  0  0  0  0  0  0  0  0  0  0  0
  146.5700  154.2050  135.0570 C   0  0  0  0  0  0  0  0  0  0  0  0
  145.4210  153.7790  134.7680 O   0  0  0  0  0  0  0  0  0  0  0  0
  147.1070  155.4260  134.4210 C   0  0  0  0  0  0  0  0  0  0  0  0
  146.6540  156.7140  134.7070 C   0  0  0  0  0  0  0  0  0  0  0  0
  147.3750  157.5460  133.8800 C   0  0  0  0  0  0  0  0  0  0  0  0
  147.3500  158.9320  133.7600 C   0  0  0  0  0  0  0  0  0  0  0  0
  148.2340  159.5300  132.8450 C   0  0  0  0  0  0  0  0  0  0  0  0
  149.1190  158.7360  132.0730 C   0  0  0  0  0  0  0  0  0  0  0  0
  150.0930  159.3900  131.1330 C   0  0  0  0  0  0  0  0  0  0  0  0
  149.2510  160.6550  130.1320 P   0  0  2  0  0  0  0  0  0  0  0  0
  149.6460  160.5060  128.6800 O   0  0  0  0  0  0  0  0  0  0  0  0
  149.6920  162.1940  130.6770 O   0  0  0  0  0  0  0  0  0  0  0  0
  147.5760  160.4700  130.2830 O   0  0  0  0  0  0  0  0  0  0  0  0
  149.1230  157.3330  132.2310 C   0  0  0  0  0  0  0  0  0  0  0  0
  148.2210  156.7660  133.1360 C   0  0  0  0  0  0  0  0  0  0  0  0
  148.0650  155.4640  133.4550 N   0  0  0  0  0  0  0  0  0  0  0  0
  148.8050  154.3610  132.9120 C   0  0  0  0  0  0  0  0  0  0  0  0
  149.9900  154.5350  132.5170 O   0  0  0  0  0  0  0  0  0  0  0  0
  148.2030  152.9900  132.8590 C   0  0  0  0  0  0  0  0  0  0  0  0
  149.2360  151.9680  133.2060 C   0  0  0  0  0  0  0  0  0  0  0  0
  149.8200  151.3240  132.2950 O   0  0  0  0  0  0  0  0  0  0  0  0
  149.5190  151.6880  134.5360 O   0  0  0  0  0  0  0  0  0  0  0  0
  148.1210  152.8650  135.7290 H   0  0  0  0  0  0  0  0  0  0  0  0
  145.8845  157.0034  135.4378 H   0  0  0  0  0  0  0  0  0  0  0  0
  146.6599  159.5410  134.3624 H   0  0  0  0  0  0  0  0  0  0  0  0
  148.2390  160.6236  132.7270 H   0  0  0  0  0  0  0  0  0  0  0  0
  150.8971  159.8638  131.7152 H   0  0  0  0  0  0  0  0  0  0  0  0
  150.5134  158.6250  130.4636 H   0  0  0  0  0  0  0  0  0  0  0  0
  147.1930  161.2870  129.8730 H   0  0  0  0  0  0  0  0  0  0  0  0
  149.8178  156.7025  131.6569 H   0  0  0  0  0  0  0  0  0  0  0  0
  147.3726  152.9281  133.5778 H   0  0  0  0  0  0  0  0  0  0  0  0
  147.8296  152.7972  131.8424 H   0  0  0  0  0  0  0  0  0  0  0  0
  1  2  1  0
  2  3  2  0
  2  4  1  0
  4  5  2  0
  5  6  1  0
  6  7  2  0
  7  8  1  0
  8  9  2  0
  9 10  1  0
 10 11  1  0
 11 12  2  0
 11 13  1  1
 11 14  1  0
  9 15  1  0
 15 16  2  0
 16 17  1  0
 17 18  1  0
 18 19  2  0
 18 20  1  0
 20 21  1  0
 21 22  2  0
 21 23  1  0
 17  4  1  0
 16  6  1  0
  1 24  1  0
  5 25  1  0
  7 26  1  0
  8 27  1  0
 10 28  1  0
 10 29  1  0
 14 30  1  0
 15 31  1  0
 20 32  1  0
 20 33  1  0
M  CHG  3   1  -1  13  -1  23  -1
M  END
>  <UniqueID>  (68) 
67

>  <SMILES>  (68) 
[NH-]C(=O)c1cc2ccc(C[P@](=O)([O-])O)cc2n1C(=O)CC(=O)[O-]

>  <Energy>  (68) 
64.69364967025102

>  <Genealogy>  (68) 
[NH-]C(=O)c1cc2ccc(CP(=O)([O-])O)cc2n1C(=O)CC(=O)[O-] (protonated)
[NH-]C(=O)c1cc2ccc(C[P@](=O)([O-])O)cc2n1C(=O)CC(=O)[O-] (chirality)
[NH-]C(=O)c1cc2ccc(C[P@](=O)([O-])O)cc2n1C(=O)CC(=O)[O-] (3D coordinates assigned)
[NH-]C(=O)c1cc2ccc(C[P@](=O)([O-])O)cc2n1C(=O)CC(=O)[O-] (optimized conformer: 64.69364967025102 kcal/mol)

>  <smiles>  (68) 
NC(=O)c1cc2ccc(CP(=O)(O)O)cc2n1C(=O)CC(=O)O

>  <score_type>  (68) 
oracle

>  <origin>  (68) 
adg

>  <m_score__min__energy>  (68) 
-6.7800000000000002

>  <m_primary>  (68) 
energy

$$$$
68:0
     RDKit          3D

 38 40  0  0  0  0  0  0  0  0999 V2000
  149.6040  162.7080  129.9790 C   0  0  0  0  0  0  0  0  0  0  0  0
  149.7310  161.7080  130.9830 O   0  0  0  0  0  0  0  0  0  0  0  0
  149.6650  160.3400  130.6970 C   0  0  0  0  0  0  0  0  0  0  0  0
  150.2370  159.8810  129.6690 O   0  0  0  0  0  0  0  0  0  0  0  0
  148.9230  159.4320  131.6020 C   0  0  0  0  0  0  0  0  0  0  0  0
  149.5170  158.2390  132.0480 C   0  0  0  0  0  0  0  0  0  0  0  0
  148.8210  157.3800  132.9000 C   0  0  0  0  0  0  0  0  0  0  0  0
  147.5280  157.6970  133.3210 C   0  0  0  0  0  0  0  0  0  0  0  0
  146.8640  156.8220  134.1190 F   0  0  0  0  0  0  0  0  0  0  0  0
  146.9150  158.8900  132.8910 C   0  0  0  0  0  0  0  0  0  0  0  0
  145.5450  159.2440  133.3300 C   0  0  0  0  0  0  0  0  0  0  0  0
  145.2320  160.5790  133.6960 C   0  0  0  0  0  0  0  0  0  0  0  0
  143.9360  160.9250  134.1070 C   0  0  0  0  0  0  0  0  0  0  0  0
  142.9710  159.9230  134.1390 C   0  0  0  0  0  0  0  0  0  0  0  0
  141.6450  159.9870  134.5010 C   0  0  0  0  0  0  0  0  0  0  0  0
  141.1580  158.6910  134.3470 C   0  0  0  0  0  0  0  0  0  0  0  0
  139.7620  158.3020  134.6440 C   0  0  0  0  0  0  0  0  0  0  0  0
  139.3410  158.1450  135.9960 N   0  0  0  0  0  0  0  0  0  0  0  0
  138.9350  158.1020  133.7150 O   0  0  0  0  0  0  0  0  0  0  0  0
  142.1420  157.8590  133.9020 N   0  0  0  0  0  0  0  0  0  0  0  0
  142.0170  156.4250  133.6230 C   0  0  0  0  0  0  0  0  0  0  0  0
  143.2490  158.6280  133.7820 C   0  0  0  0  0  0  0  0  0  0  0  0
  144.5350  158.2550  133.3710 C   0  0  0  0  0  0  0  0  0  0  0  0
  147.6200  159.7480  132.0280 C   0  0  0  0  0  0  0  0  0  0  0  0
  149.4791  163.6917  130.4551 H   0  0  0  0  0  0  0  0  0  0  0  0
  150.5084  162.7159  129.3528 H   0  0  0  0  0  0  0  0  0  0  0  0
  148.7264  162.4895  129.3528 H   0  0  0  0  0  0  0  0  0  0  0  0
  150.5360  157.9808  131.7239 H   0  0  0  0  0  0  0  0  0  0  0  0
  149.2940  156.4476  133.2419 H   0  0  0  0  0  0  0  0  0  0  0  0
  146.0144  161.3512  133.6570 H   0  0  0  0  0  0  0  0  0  0  0  0
  143.6900  161.9576  134.3954 H   0  0  0  0  0  0  0  0  0  0  0  0
  141.0881  160.8730  134.8399 H   0  0  0  0  0  0  0  0  0  0  0  0
  139.1320  158.9760  136.5930 H   0  0  0  0  0  0  0  0  0  0  0  0
  141.9686  155.8698  134.5714 H   0  0  0  0  0  0  0  0  0  0  0  0
  141.0996  156.2427  133.0442 H   0  0  0  0  0  0  0  0  0  0  0  0
  142.8891  156.0867  133.0442 H   0  0  0  0  0  0  0  0  0  0  0  0
  144.7546  157.2154  133.0863 H   0  0  0  0  0  0  0  0  0  0  0  0
  147.1463  160.6784  131.6815 H   0  0  0  0  0  0  0  0  0  0  0  0
  1  2  1  0
  2  3  1  0
  3  4  2  0
  3  5  1  0
  5  6  2  0
  6  7  1  0
  7  8  2  0
  8  9  1  0
  8 10  1  0
 10 11  1  0
 11 12  2  0
 12 13  1  0
 13 14  2  0
 14 15  1  0
 15 16  2  0
 16 17  1  0
 17 18  1  0
 17 19  2  0
 16 20  1  0
 20 21  1  0
 20 22  1  0
 22 23  2  0
 10 24  2  0
 24  5  1  0
 23 11  1  0
 22 14  1  0
  1 25  1  0
  1 26  1  0
  1 27  1  0
  6 28  1  0
  7 29  1  0
 12 30  1  0
 13 31  1  0
 15 32  1  0
 18 33  1  0
 21 34  1  0
 21 35  1  0
 21 36  1  0
 23 37  1  0
 24 38  1  0
M  CHG  1  18  -1
M  END
>  <UniqueID>  (69) 
68

>  <SMILES>  (69) 
COC(=O)c1ccc(F)c(-c2ccc3cc(C([NH-])=O)n(C)c3c2)c1

>  <Energy>  (69) 
79.38844952569927

>  <Genealogy>  (69) 
COC(=O)c1ccc(F)c(-c2ccc3cc(C([NH-])=O)n(C)c3c2)c1 (protonated)
COC(=O)c1ccc(F)c(-c2ccc3cc(C([NH-])=O)n(C)c3c2)c1 (3D coordinates assigned)
COC(=O)c1ccc(F)c(-c2ccc3cc(C([NH-])=O)n(C)c3c2)c1 (optimized conformer: 79.38844952569927 kcal/mol)

>  <smiles>  (69) 
COC(=O)c1ccc(F)c(-c2ccc3cc(C(N)=O)n(C)c3c2)c1

>  <score_type>  (69) 
oracle

>  <origin>  (69) 
adg

>  <m_score__min__energy>  (69) 
-8.2400000000000002

>  <m_primary>  (69) 
energy

$$$$
69:0
     RDKit          3D

 44 45  0  0  0  0  0  0  0  0999 V2000
  137.7290  160.0870  130.7500 C   0  0  0  0  0  0  0  0  0  0  0  0
  139.0230  160.3300  131.5260 C   0  0  0  0  0  0  0  0  0  0  0  0
  139.7140  159.0090  131.9560 C   0  0  2  0  0  0  0  0  0  0  0  0
  138.9280  158.2540  133.0410 C   0  0  0  0  0  0  0  0  0  0  0  0
  141.1180  159.2170  132.3650 N   0  0  0  0  0  0  0  0  0  0  0  0
  141.3070  160.0330  133.5790 C   0  0  0  0  0  0  0  0  0  0  0  0
  142.7910  160.3610  133.7440 C   0  0  0  0  0  0  0  0  0  0  0  0
  143.6180  159.1040  133.7500 C   0  0  0  0  0  0  0  0  0  0  0  0
  143.0360  157.8670  134.1210 C   0  0  0  0  0  0  0  0  0  0  0  0
  143.7960  156.6850  134.1100 C   0  0  0  0  0  0  0  0  0  0  0  0
  145.1270  156.7700  133.7100 C   0  0  0  0  0  0  0  0  0  0  0  0
  146.0920  155.7920  133.6230 C   0  0  0  0  0  0  0  0  0  0  0  0
  147.2380  156.4430  133.1710 C   0  0  0  0  0  0  0  0  0  0  0  0
  148.5050  155.7480  132.8630 C   0  0  0  0  0  0  0  0  0  0  0  0
  149.5950  156.4420  132.2640 N   0  0  0  0  0  0  0  0  0  0  0  0
  148.6150  154.5150  133.1020 O   0  0  0  0  0  0  0  0  0  0  0  0
  146.9930  157.7730  132.9970 N   0  0  0  0  0  0  0  0  0  0  0  0
  147.9170  158.8070  132.6230 C   0  0  0  0  0  0  0  0  0  0  0  0
  148.4400  159.7730  133.6380 C   0  0  0  0  0  0  0  0  0  0  0  0
  148.2390  158.9490  131.4130 O   0  0  0  0  0  0  0  0  0  0  0  0
  145.6970  157.9550  133.3250 C   0  0  0  0  0  0  0  0  0  0  0  0
  144.9690  159.1490  133.3390 C   0  0  0  0  0  0  0  0  0  0  0  0
  136.9010  159.9315  131.4573 H   0  0  0  0  0  0  0  0  0  0  0  0
  137.5116  160.9600  130.1171 H   0  0  0  0  0  0  0  0  0  0  0  0
  137.8431  159.1946  130.1171 H   0  0  0  0  0  0  0  0  0  0  0  0
  139.7154  160.8991  130.8883 H   0  0  0  0  0  0  0  0  0  0  0  0
  138.7658  160.8859  132.4397 H   0  0  0  0  0  0  0  0  0  0  0  0
  139.7215  158.3718  131.0594 H   0  0  0  0  0  0  0  0  0  0  0  0
  139.2683  158.5809  134.0347 H   0  0  0  0  0  0  0  0  0  0  0  0
  137.8546  158.4683  132.9322 H   0  0  0  0  0  0  0  0  0  0  0  0
  139.0989  157.1728  132.9322 H   0  0  0  0  0  0  0  0  0  0  0  0
  141.6420  159.6530  131.5710 H   0  0  0  0  0  0  0  0  0  0  0  0
  140.7328  160.9667  133.4867 H   0  0  0  0  0  0  0  0  0  0  0  0
  140.9546  159.4723  134.4573 H   0  0  0  0  0  0  0  0  0  0  0  0
  143.1139  161.0012  132.9098 H   0  0  0  0  0  0  0  0  0  0  0  0
  142.9329  160.8812  134.7028 H   0  0  0  0  0  0  0  0  0  0  0  0
  141.9782  157.8313  134.4208 H   0  0  0  0  0  0  0  0  0  0  0  0
  143.3534  155.7231  134.4080 H   0  0  0  0  0  0  0  0  0  0  0  0
  145.9817  154.7235  133.8600 H   0  0  0  0  0  0  0  0  0  0  0  0
  149.4380  157.1180  131.4850 H   0  0  0  0  0  0  0  0  0  0  0  0
  148.2331  159.3909  134.6485 H   0  0  0  0  0  0  0  0  0  0  0  0
  149.5256  159.8917  133.5060 H   0  0  0  0  0  0  0  0  0  0  0  0
  147.9460  160.7469  133.5060 H   0  0  0  0  0  0  0  0  0  0  0  0
  145.4360  160.0983  133.0379 H   0  0  0  0  0  0  0  0  0  0  0  0
  1  2  1  0
  2  3  1  0
  3  4  1  0
  3  5  1  0
  5  6  1  0
  6  7  1  0
  7  8  1  0
  8  9  2  0
  9 10  1  0
 10 11  2  0
 11 12  1  0
 12 13  2  0
 13 14  1  0
 14 15  1  0
 14 16  2  0
 13 17  1  0
 17 18  1  0
 18 19  1  0
 18 20  2  0
 17 21  1  0
 21 22  2  0
 22  8  1  0
 21 11  1  0
  1 23  1  0
  1 24  1  0
  1 25  1  0
  2 26  1  0
  2 27  1  0
  3 28  1  6
  4 29  1  0
  4 30  1  0
  4 31  1  0
  5 32  1  0
  6 33  1  0
  6 34  1  0
  7 35  1  0
  7 36  1  0
  9 37  1  0
 10 38  1  0
 12 39  1  0
 15 40  1  0
 19 41  1  0
 19 42  1  0
 19 43  1  0
 22 44  1  0
M  CHG  1  15  -1
M  END
>  <UniqueID>  (70) 
69

>  <SMILES>  (70) 
CC[C@H](C)NCCc1ccc2cc(C([NH-])=O)n(C(C)=O)c2c1

>  <Energy>  (70) 
78.96100455872738

>  <Genealogy>  (70) 
CC[C@H](C)NCCc1ccc2cc(C([NH-])=O)n(C(C)=O)c2c1 (protonated)
CC[C@H](C)NCCc1ccc2cc(C([NH-])=O)n(C(C)=O)c2c1 (3D coordinates assigned)
CC[C@H](C)NCCc1ccc2cc(C([NH-])=O)n(C(C)=O)c2c1 (optimized conformer: 78.96100455872738 kcal/mol)

>  <smiles>  (70) 
CC[C@H](C)NCCc1ccc2cc(C(N)=O)n(C(C)=O)c2c1

>  <score_type>  (70) 
oracle

>  <origin>  (70) 
adg

>  <m_score__min__energy>  (70) 
-7.5099999999999998

>  <m_primary>  (70) 
energy

$$$$
70:0
     RDKit          3D

 47 49  0  0  0  0  0  0  0  0999 V2000
  142.2760  157.3530  132.5740 N   0  0  0  0  0  0  0  0  0  0  0  0
  142.3490  157.6560  133.9670 C   0  0  0  0  0  0  0  0  0  0  0  0
  142.7610  158.7890  134.3300 O   0  0  0  0  0  0  0  0  0  0  0  0
  142.0200  156.6440  134.9910 C   0  0  0  0  0  0  0  0  0  0  0  0
  141.3450  156.9500  136.1680 C   0  0  0  0  0  0  0  0  0  0  0  0
  141.3000  155.7730  136.8780 C   0  0  0  0  0  0  0  0  0  0  0  0
  140.7520  155.5080  138.1290 C   0  0  0  0  0  0  0  0  0  0  0  0
  140.8390  154.1950  138.6200 C   0  0  0  0  0  0  0  0  0  0  0  0
  141.4620  153.1790  137.8550 C   0  0  0  0  0  0  0  0  0  0  0  0
  141.5180  151.7700  138.3750 C   0  0  0  0  0  0  0  0  0  0  0  0
  140.5450  150.9100  137.6340 C   0  0  0  0  0  0  0  0  0  0  0  0
  140.6200  150.8030  136.3820 O   0  0  0  0  0  0  0  0  0  0  0  0
  139.5250  150.2650  138.3210 O   0  0  0  0  0  0  0  0  0  0  0  0
  141.9890  153.4810  136.5800 C   0  0  0  0  0  0  0  0  0  0  0  0
  141.9150  154.8050  136.1260 C   0  0  0  0  0  0  0  0  0  0  0  0
  142.3650  155.3250  134.9600 N   0  0  0  0  0  0  0  0  0  0  0  0
  143.0390  154.6180  133.9040 C   0  0  0  0  0  0  0  0  0  0  0  0
  143.7440  155.2490  133.0700 O   0  0  0  0  0  0  0  0  0  0  0  0
  142.9140  153.2280  133.8070 O   0  0  0  0  0  0  0  0  0  0  0  0
  142.3880  152.5610  132.6630 C   0  0  0  0  0  0  0  0  0  0  0  0
  140.9830  152.0110  132.9480 C   0  0  0  0  0  0  0  0  0  0  0  0
  140.9820  150.5160  133.3160 C   0  0  0  0  0  0  0  0  0  0  0  0
  140.2620  149.6680  132.2980 C   0  0  0  0  0  0  0  0  0  0  0  0
  140.8550  148.4950  131.7980 C   0  0  0  0  0  0  0  0  0  0  0  0
  140.1980  147.7290  130.8310 C   0  0  0  0  0  0  0  0  0  0  0  0
  138.9510  148.1330  130.3450 C   0  0  0  0  0  0  0  0  0  0  0  0
  138.3550  149.2980  130.8360 C   0  0  0  0  0  0  0  0  0  0  0  0
  139.0030  150.0590  131.8140 C   0  0  0  0  0  0  0  0  0  0  0  0
  142.0900  156.3830  132.2420 H   0  0  0  0  0  0  0  0  0  0  0  0
  142.4880  158.0910  131.8650 H   0  0  0  0  0  0  0  0  0  0  0  0
  140.9345  157.9257  136.4673 H   0  0  0  0  0  0  0  0  0  0  0  0
  140.2659  156.3018  138.7151 H   0  0  0  0  0  0  0  0  0  0  0  0
  140.4194  153.9536  139.6078 H   0  0  0  0  0  0  0  0  0  0  0  0
  142.5340  151.3715  138.2375 H   0  0  0  0  0  0  0  0  0  0  0  0
  141.2575  151.7700  139.4437 H   0  0  0  0  0  0  0  0  0  0  0  0
  142.4461  152.6967  135.9587 H   0  0  0  0  0  0  0  0  0  0  0  0
  142.3336  153.2715  131.8250 H   0  0  0  0  0  0  0  0  0  0  0  0
  143.0505  151.7199  132.4107 H   0  0  0  0  0  0  0  0  0  0  0  0
  140.5485  152.5776  133.7847 H   0  0  0  0  0  0  0  0  0  0  0  0
  140.3944  152.1217  132.0253 H   0  0  0  0  0  0  0  0  0  0  0  0
  142.0238  150.1705  133.3886 H   0  0  0  0  0  0  0  0  0  0  0  0
  140.4511  150.4093  134.2735 H   0  0  0  0  0  0  0  0  0  0  0  0
  141.8408  148.1787  132.1698 H   0  0  0  0  0  0  0  0  0  0  0  0
  140.6628  146.8070  130.4518 H   0  0  0  0  0  0  0  0  0  0  0  0
  138.4393  147.5345  129.5769 H   0  0  0  0  0  0  0  0  0  0  0  0
  137.3745  149.6168  130.4525 H   0  0  0  0  0  0  0  0  0  0  0  0
  138.5242  150.9684  132.2061 H   0  0  0  0  0  0  0  0  0  0  0  0
  1  2  1  0
  2  3  2  0
  2  4  1  0
  4  5  2  0
  5  6  1  0
  6  7  2  0
  7  8  1  0
  8  9  2  0
  9 10  1  0
 10 11  1  0
 11 12  2  0
 11 13  1  0
  9 14  1  0
 14 15  2  0
 15 16  1  0
 16 17  1  0
 17 18  2  0
 17 19  1  0
 19 20  1  0
 20 21  1  0
 21 22  1  0
 22 23  1  0
 23 24  2  0
 24 25  1  0
 25 26  2  0
 26 27  1  0
 27 28  2  0
 16  4  1  0
 28 23  1  0
 15  6  1  0
  1 29  1  0
  1 30  1  0
  5 31  1  0
  7 32  1  0
  8 33  1  0
 10 34  1  0
 10 35  1  0
 14 36  1  0
 20 37  1  0
 20 38  1  0
 21 39  1  0
 21 40  1  0
 22 41  1  0
 22 42  1  0
 24 43  1  0
 25 44  1  0
 26 45  1  0
 27 46  1  0
 28 47  1  0
M  CHG  1  13  -1
M  END
>  <UniqueID>  (71) 
70

>  <SMILES>  (71) 
NC(=O)c1cc2ccc(CC(=O)[O-])cc2n1C(=O)OCCCc1ccccc1

>  <Energy>  (71) 
76.2007605636245

>  <Genealogy>  (71) 
NC(=O)c1cc2ccc(CC(=O)[O-])cc2n1C(=O)OCCCc1ccccc1 (protonated)
NC(=O)c1cc2ccc(CC(=O)[O-])cc2n1C(=O)OCCCc1ccccc1 (3D coordinates assigned)
NC(=O)c1cc2ccc(CC(=O)[O-])cc2n1C(=O)OCCCc1ccccc1 (optimized conformer: 76.2007605636245 kcal/mol)

>  <smiles>  (71) 
NC(=O)c1cc2ccc(CC(=O)O)cc2n1C(=O)OCCCc1ccccc1

>  <score_type>  (71) 
oracle

>  <origin>  (71) 
adg

>  <m_score__min__energy>  (71) 
-9.25

>  <m_primary>  (71) 
energy

$$$$
71:0
     RDKit          3D

 31 33  0  0  0  0  0  0  0  0999 V2000
  140.2860  158.9440  136.4910 N   0  0  0  0  0  0  0  0  0  0  0  0
  140.4770  158.6360  135.1120 C   0  0  0  0  0  0  0  0  0  0  0  0
  139.4820  158.6090  134.3410 O   0  0  0  0  0  0  0  0  0  0  0  0
  141.8420  158.3990  134.5940 C   0  0  0  0  0  0  0  0  0  0  0  0
  142.4960  157.1730  134.6930 C   0  0  0  0  0  0  0  0  0  0  0  0
  143.7560  157.3900  134.1850 C   0  0  0  0  0  0  0  0  0  0  0  0
  144.8230  156.5100  134.0340 C   0  0  0  0  0  0  0  0  0  0  0  0
  146.0040  157.0000  133.4530 C   0  0  0  0  0  0  0  0  0  0  0  0
  146.0950  158.3500  133.0240 C   0  0  0  0  0  0  0  0  0  0  0  0
  147.3450  158.8590  132.4070 C   0  0  0  0  0  0  0  0  0  0  0  0
  147.3570  160.1200  131.7830 C   0  0  0  0  0  0  0  0  0  0  0  0
  148.5290  160.6120  131.2040 C   0  0  0  0  0  0  0  0  0  0  0  0
  149.7000  159.8520  131.2380 C   0  0  0  0  0  0  0  0  0  0  0  0
  149.7010  158.5950  131.8480 C   0  0  0  0  0  0  0  0  0  0  0  0
  150.8380  157.8570  131.8670 F   0  0  0  0  0  0  0  0  0  0  0  0
  148.5300  158.0960  132.4310 C   0  0  0  0  0  0  0  0  0  0  0  0
  148.5470  156.8560  132.9830 F   0  0  0  0  0  0  0  0  0  0  0  0
  144.9900  159.2150  133.2000 C   0  0  0  0  0  0  0  0  0  0  0  0
  143.8320  158.7030  133.7980 C   0  0  0  0  0  0  0  0  0  0  0  0
  142.6610  159.3360  134.0400 N   0  0  0  0  0  0  0  0  0  0  0  0
  142.3420  160.6970  133.7060 C   0  0  0  0  0  0  0  0  0  0  0  0
  141.1600  161.0240  133.4250 O   0  0  0  0  0  0  0  0  0  0  0  0
  143.3330  161.6720  133.7160 O   0  0  0  0  0  0  0  0  0  0  0  0
  139.3260  159.0540  136.8880 H   0  0  0  0  0  0  0  0  0  0  0  0
  142.0910  156.2315  135.0925 H   0  0  0  0  0  0  0  0  0  0  0  0
  144.7440  155.4623  134.3598 H   0  0  0  0  0  0  0  0  0  0  0  0
  146.8678  156.3304  133.3291 H   0  0  0  0  0  0  0  0  0  0  0  0
  146.4372  160.7224  131.7509 H   0  0  0  0  0  0  0  0  0  0  0  0
  148.5296  161.6000  130.7203 H   0  0  0  0  0  0  0  0  0  0  0  0
  150.6224  160.2433  130.7842 H   0  0  0  0  0  0  0  0  0  0  0  0
  145.0391  160.2647  132.8749 H   0  0  0  0  0  0  0  0  0  0  0  0
  1  2  1  0
  2  3  2  0
  2  4  1  0
  4  5  2  0
  5  6  1  0
  6  7  2  0
  7  8  1  0
  8  9  2  0
  9 10  1  0
 10 11  2  0
 11 12  1  0
 12 13  2  0
 13 14  1  0
 14 15  1  0
 14 16  2  0
 16 17  1  0
  9 18  1  0
 18 19  2  0
 19 20  1  0
 20 21  1  0
 21 22  2  0
 21 23  1  0
 20  4  1  0
 19  6  1  0
 16 10  1  0
  1 24  1  0
  5 25  1  0
  7 26  1  0
  8 27  1  0
 11 28  1  0
 12 29  1  0
 13 30  1  0
 18 31  1  0
M  CHG  2   1  -1  23  -1
M  END
>  <UniqueID>  (72) 
71

>  <SMILES>  (72) 
[NH-]C(=O)c1cc2ccc(-c3cccc(F)c3F)cc2n1C(=O)[O-]

>  <Energy>  (72) 
79.74415809385704

>  <Genealogy>  (72) 
[NH-]C(=O)c1cc2ccc(-c3cccc(F)c3F)cc2n1C(=O)[O-] (protonated)
[NH-]C(=O)c1cc2ccc(-c3cccc(F)c3F)cc2n1C(=O)[O-] (3D coordinates assigned)
[NH-]C(=O)c1cc2ccc(-c3cccc(F)c3F)cc2n1C(=O)[O-] (optimized conformer: 79.74415809385704 kcal/mol)

>  <smiles>  (72) 
NC(=O)c1cc2ccc(-c3cccc(F)c3F)cc2n1C(=O)O

>  <score_type>  (72) 
oracle

>  <origin>  (72) 
adg

>  <m_score__min__energy>  (72) 
-7.2300000000000004

>  <m_primary>  (72) 
energy

$$$$
72:0
     RDKit          3D

 32 34  0  0  0  0  0  0  0  0999 V2000
  137.7390  159.0480  131.4600 C   0  0  0  0  0  0  0  0  0  0  0  0
  138.8650  158.7600  132.3940 C   0  0  0  0  0  0  0  0  0  0  0  0
  140.1530  159.2660  132.2940 C   0  0  0  0  0  0  0  0  0  0  0  0
  140.9890  158.8830  133.3600 C   0  0  0  0  0  0  0  0  0  0  0  0
  142.4110  159.2940  133.4790 C   0  0  0  0  0  0  0  0  0  0  0  0
  142.7530  160.6630  133.6300 C   0  0  0  0  0  0  0  0  0  0  0  0
  144.0950  161.0640  133.7310 C   0  0  0  0  0  0  0  0  0  0  0  0
  145.0760  160.0800  133.6870 C   0  0  0  0  0  0  0  0  0  0  0  0
  146.4460  160.1970  133.7260 C   0  0  0  0  0  0  0  0  0  0  0  0
  146.9280  158.8950  133.6280 C   0  0  0  0  0  0  0  0  0  0  0  0
  148.3630  158.5560  133.6890 C   0  0  0  0  0  0  0  0  0  0  0  0
  148.9610  157.6940  132.7190 N   0  0  0  0  0  0  0  0  0  0  0  0
  149.0620  158.9870  134.6440 O   0  0  0  0  0  0  0  0  0  0  0  0
  145.8990  158.0060  133.5200 N   0  0  0  0  0  0  0  0  0  0  0  0
  145.9900  156.5900  133.2900 C   0  0  0  0  0  0  0  0  0  0  0  0
  145.3220  155.7870  133.9930 O   0  0  0  0  0  0  0  0  0  0  0  0
  146.8160  156.0900  132.2910 O   0  0  0  0  0  0  0  0  0  0  0  0
  144.7700  158.7490  133.5620 C   0  0  0  0  0  0  0  0  0  0  0  0
  143.4420  158.3240  133.4370 C   0  0  0  0  0  0  0  0  0  0  0  0
  140.3360  158.0850  134.3020 C   0  0  0  0  0  0  0  0  0  0  0  0
  138.7430  157.8690  133.8120 S   0  0  0  0  0  0  0  0  0  0  0  0
  136.8327  159.2798  132.0387 H   0  0  0  0  0  0  0  0  0  0  0  0
  137.9993  159.9085  130.8261 H   0  0  0  0  0  0  0  0  0  0  0  0
  137.5542  158.1682  130.8261 H   0  0  0  0  0  0  0  0  0  0  0  0
  140.4882  159.9041  131.4630 H   0  0  0  0  0  0  0  0  0  0  0  0
  141.9561  161.4203  133.6685 H   0  0  0  0  0  0  0  0  0  0  0  0
  144.3621  162.1253  133.8417 H   0  0  0  0  0  0  0  0  0  0  0  0
  147.0348  161.1219  133.8155 H   0  0  0  0  0  0  0  0  0  0  0  0
  148.3780  157.1860  132.0180 H   0  0  0  0  0  0  0  0  0  0  0  0
  149.9850  157.4960  132.7550 H   0  0  0  0  0  0  0  0  0  0  0  0
  143.2040  157.2577  133.3087 H   0  0  0  0  0  0  0  0  0  0  0  0
  140.7890  157.6673  135.2132 H   0  0  0  0  0  0  0  0  0  0  0  0
  1  2  1  0
  2  3  2  0
  3  4  1  0
  4  5  1  0
  5  6  2  0
  6  7  1  0
  7  8  2  0
  8  9  1  0
  9 10  2  0
 10 11  1  0
 11 12  1  0
 11 13  2  0
 10 14  1  0
 14 15  1  0
 15 16  2  0
 15 17  1  0
 14 18  1  0
 18 19  2  0
  4 20  2  0
 20 21  1  0
 21  2  1  0
 19  5  1  0
 18  8  1  0
  1 22  1  0
  1 23  1  0
  1 24  1  0
  3 25  1  0
  6 26  1  0
  7 27  1  0
  9 28  1  0
 12 29  1  0
 12 30  1  0
 19 31  1  0
 20 32  1  0
M  CHG  1  17  -1
M  END
>  <UniqueID>  (73) 
72

>  <SMILES>  (73) 
Cc1cc(-c2ccc3cc(C(N)=O)n(C(=O)[O-])c3c2)cs1

>  <Energy>  (73) 
102.67364158866543

>  <Genealogy>  (73) 
Cc1cc(-c2ccc3cc(C(N)=O)n(C(=O)[O-])c3c2)cs1 (protonated)
Cc1cc(-c2ccc3cc(C(N)=O)n(C(=O)[O-])c3c2)cs1 (3D coordinates assigned)
Cc1cc(-c2ccc3cc(C(N)=O)n(C(=O)[O-])c3c2)cs1 (optimized conformer: 102.67364158866543 kcal/mol)

>  <smiles>  (73) 
Cc1cc(-c2ccc3cc(C(N)=O)n(C(=O)O)c3c2)cs1

>  <score_type>  (73) 
oracle

>  <origin>  (73) 
adg

>  <m_score__min__energy>  (73) 
-7.4800000000000004

>  <m_primary>  (73) 
energy

$$$$
73:0
     RDKit          3D

 49 51  0  0  0  0  0  0  0  0999 V2000
  141.3630  155.3830  135.1070 C   0  0  0  0  0  0  0  0  0  0  0  0
  141.3550  154.5040  133.8960 C   0  0  0  0  0  0  0  0  0  0  0  0
  140.3430  154.4990  133.1430 O   0  0  0  0  0  0  0  0  0  0  0  0
  142.4850  153.6750  133.5770 N   0  0  0  0  0  0  0  0  0  0  0  0
  142.4820  152.3420  133.2920 C   0  0  0  0  0  0  0  0  0  0  0  0
  141.2910  151.4590  133.3560 C   0  0  0  0  0  0  0  0  0  0  0  0
  140.0960  151.7800  132.6380 N   0  0  0  0  0  0  0  0  0  0  0  0
  141.3240  150.4030  134.0430 O   0  0  0  0  0  0  0  0  0  0  0  0
  143.7710  151.9110  132.9810 C   0  0  0  0  0  0  0  0  0  0  0  0
  144.5660  153.0300  133.0790 C   0  0  0  0  0  0  0  0  0  0  0  0
  145.9290  153.1830  132.8490 C   0  0  0  0  0  0  0  0  0  0  0  0
  146.4810  154.4670  132.9900 C   0  0  0  0  0  0  0  0  0  0  0  0
  145.6700  155.5720  133.3600 C   0  0  0  0  0  0  0  0  0  0  0  0
  146.2460  156.8890  133.4890 N   0  0  0  0  0  0  0  0  0  0  0  0
  145.4050  158.0870  133.3370 C   0  0  0  0  0  0  0  0  0  0  0  0
  146.2690  159.3420  133.1650 C   0  0  0  0  0  0  0  0  0  0  0  0
  147.3880  159.0580  132.2410 N   0  0  0  0  0  0  0  0  0  0  0  0
  148.1030  160.3080  131.8940 C   0  0  0  0  0  0  0  0  0  0  0  0
  149.5600  160.0390  131.4670 C   0  0  0  0  0  0  0  0  0  0  0  0
  149.7250  159.6760  129.9860 C   0  0  0  0  0  0  0  0  0  0  0  0
  148.8670  158.6170  129.6420 O   0  0  0  0  0  0  0  0  0  0  0  0
  148.3140  158.0190  132.7730 C   0  0  0  0  0  0  0  0  0  0  0  0
  147.6660  157.0730  133.8010 C   0  0  0  0  0  0  0  0  0  0  0  0
  144.2850  155.3740  133.5720 C   0  0  0  0  0  0  0  0  0  0  0  0
  143.7660  154.0810  133.4370 C   0  0  0  0  0  0  0  0  0  0  0  0
  141.3573  154.7591  136.0129 H   0  0  0  0  0  0  0  0  0  0  0  0
  142.2669  156.0098  135.0991 H   0  0  0  0  0  0  0  0  0  0  0  0
  140.4707  156.0262  135.0991 H   0  0  0  0  0  0  0  0  0  0  0  0
  140.0110  152.6540  132.0750 H   0  0  0  0  0  0  0  0  0  0  0  0
  139.2750  151.1360  132.6790 H   0  0  0  0  0  0  0  0  0  0  0  0
  144.0860  150.8915  132.7137 H   0  0  0  0  0  0  0  0  0  0  0  0
  146.5557  152.3247  132.5653 H   0  0  0  0  0  0  0  0  0  0  0  0
  147.5558  154.6183  132.8114 H   0  0  0  0  0  0  0  0  0  0  0  0
  144.7634  157.9670  132.4516 H   0  0  0  0  0  0  0  0  0  0  0  0
  144.7912  158.2035  134.2424 H   0  0  0  0  0  0  0  0  0  0  0  0
  145.6533  160.1554  132.7535 H   0  0  0  0  0  0  0  0  0  0  0  0
  146.6733  159.6410  134.1433 H   0  0  0  0  0  0  0  0  0  0  0  0
  147.5748  160.8010  131.0645 H   0  0  0  0  0  0  0  0  0  0  0  0
  148.1231  160.9481  132.7884 H   0  0  0  0  0  0  0  0  0  0  0  0
  150.1510  160.9447  131.6680 H   0  0  0  0  0  0  0  0  0  0  0  0
  149.9031  159.1686  132.0456 H   0  0  0  0  0  0  0  0  0  0  0  0
  149.4829  160.5536  129.3686 H   0  0  0  0  0  0  0  0  0  0  0  0
  150.7650  159.3643  129.8090 H   0  0  0  0  0  0  0  0  0  0  0  0
  148.4820  158.2780  130.4960 H   0  0  0  0  0  0  0  0  0  0  0  0
  148.6791  157.4155  131.9289 H   0  0  0  0  0  0  0  0  0  0  0  0
  149.1242  158.5500  133.2941 H   0  0  0  0  0  0  0  0  0  0  0  0
  148.1748  156.0982  133.7701 H   0  0  0  0  0  0  0  0  0  0  0  0
  147.7606  157.5122  134.8051 H   0  0  0  0  0  0  0  0  0  0  0  0
  143.6306  156.2175  133.8371 H   0  0  0  0  0  0  0  0  0  0  0  0
  1  2  1  0
  2  3  2  0
  2  4  1  0
  4  5  1  0
  5  6  1  0
  6  7  1  0
  6  8  2  0
  5  9  2  0
  9 10  1  0
 10 11  2  0
 11 12  1  0
 12 13  2  0
 13 14  1  0
 14 15  1  0
 15 16  1  0
 16 17  1  0
 17 18  1  0
 18 19  1  0
 19 20  1  0
 20 21  1  0
 17 22  1  0
 22 23  1  0
 13 24  1  0
 24 25  2  0
 25  4  1  0
 25 10  1  0
 23 14  1  0
  1 26  1  0
  1 27  1  0
  1 28  1  0
  7 29  1  0
  7 30  1  0
  9 31  1  0
 11 32  1  0
 12 33  1  0
 15 34  1  0
 15 35  1  0
 16 36  1  0
 16 37  1  0
 18 38  1  0
 18 39  1  0
 19 40  1  0
 19 41  1  0
 20 42  1  0
 20 43  1  0
 21 44  1  0
 22 45  1  0
 22 46  1  0
 23 47  1  0
 23 48  1  0
 24 49  1  0
M  END
>  <UniqueID>  (74) 
73

>  <SMILES>  (74) 
CC(=O)n1c(C(N)=O)cc2ccc(N3CCN(CCCO)CC3)cc21

>  <Energy>  (74) 
97.71512463256008

>  <Genealogy>  (74) 
CC(=O)n1c(C(N)=O)cc2ccc(N3CCN(CCCO)CC3)cc21 (3D coordinates assigned)
CC(=O)n1c(C(N)=O)cc2ccc(N3CCN(CCCO)CC3)cc21 (nonaromatic ring conformer: 97.71512463256008 kcal/mol)

>  <smiles>  (74) 
CC(=O)n1c(C(N)=O)cc2ccc(N3CCN(CCCO)CC3)cc21

>  <score_type>  (74) 
oracle

>  <origin>  (74) 
adg

>  <m_score__min__energy>  (74) 
-7.9299999999999997

>  <m_primary>  (74) 
energy

$$$$
74:0
     RDKit          3D

 28 30  0  0  0  0  0  0  0  0999 V2000
  138.7180  155.6290  133.0080 N   0  0  0  0  0  0  0  0  0  0  0  0
  140.0780  155.2860  133.2760 C   0  0  0  0  0  0  0  0  0  0  0  0
  140.3760  154.0860  133.5220 O   0  0  0  0  0  0  0  0  0  0  0  0
  141.1310  156.3200  133.3370 C   0  0  0  0  0  0  0  0  0  0  0  0
  142.4900  156.0350  133.2450 C   0  0  0  0  0  0  0  0  0  0  0  0
  143.1260  157.2430  133.4080 C   0  0  0  0  0  0  0  0  0  0  0  0
  144.4840  157.5470  133.3910 C   0  0  0  0  0  0  0  0  0  0  0  0
  144.8600  158.8900  133.5440 C   0  0  0  0  0  0  0  0  0  0  0  0
  143.8830  159.9060  133.7010 C   0  0  0  0  0  0  0  0  0  0  0  0
  144.3180  161.3140  133.8450 C   0  0  0  0  0  0  0  0  0  0  0  0
  145.4820  161.7900  134.4170 C   0  0  0  0  0  0  0  0  0  0  0  0
  145.4850  163.1340  134.3420 N   0  0  0  0  0  0  0  0  0  0  0  0
  144.3190  163.4230  133.7260 C   0  0  0  0  0  0  0  0  0  0  0  0
  143.6270  162.3470  133.4320 O   0  0  0  0  0  0  0  0  0  0  0  0
  142.5120  159.5570  133.7110 C   0  0  0  0  0  0  0  0  0  0  0  0
  142.1640  158.2070  133.5780 C   0  0  0  0  0  0  0  0  0  0  0  0
  140.9300  157.6540  133.5340 N   0  0  0  0  0  0  0  0  0  0  0  0
  139.6740  158.3530  133.5670 C   0  0  0  0  0  0  0  0  0  0  0  0
  139.4170  159.2370  132.7060 O   0  0  0  0  0  0  0  0  0  0  0  0
  138.7310  158.0650  134.5450 O   0  0  0  0  0  0  0  0  0  0  0  0
  137.9950  154.8810  132.9300 H   0  0  0  0  0  0  0  0  0  0  0  0
  138.4120  156.6260  132.9700 H   0  0  0  0  0  0  0  0  0  0  0  0
  142.9560  155.0528  133.0776 H   0  0  0  0  0  0  0  0  0  0  0  0
  145.2397  156.7582  133.2615 H   0  0  0  0  0  0  0  0  0  0  0  0
  145.9267  159.1585  133.5422 H   0  0  0  0  0  0  0  0  0  0  0  0
  146.2762  161.1719  134.8610 H   0  0  0  0  0  0  0  0  0  0  0  0
  143.9860  164.4459  133.4961 H   0  0  0  0  0  0  0  0  0  0  0  0
  141.7363  160.3292  133.8208 H   0  0  0  0  0  0  0  0  0  0  0  0
  1  2  1  0
  2  3  2  0
  2  4  1  0
  4  5  2  0
  5  6  1  0
  6  7  2  0
  7  8  1  0
  8  9  2  0
  9 10  1  0
 10 11  2  0
 11 12  1  0
 12 13  2  0
 13 14  1  0
  9 15  1  0
 15 16  2  0
 16 17  1  0
 17 18  1  0
 18 19  2  0
 18 20  1  0
 17  4  1  0
 16  6  1  0
 14 10  1  0
  1 21  1  0
  1 22  1  0
  5 23  1  0
  7 24  1  0
  8 25  1  0
 11 26  1  0
 13 27  1  0
 15 28  1  0
M  CHG  1  20  -1
M  END
>  <UniqueID>  (75) 
74

>  <SMILES>  (75) 
NC(=O)c1cc2ccc(-c3cnco3)cc2n1C(=O)[O-]

>  <Energy>  (75) 
101.45403711848073

>  <Genealogy>  (75) 
NC(=O)c1cc2ccc(-c3cnco3)cc2n1C(=O)[O-] (protonated)
NC(=O)c1cc2ccc(-c3cnco3)cc2n1C(=O)[O-] (3D coordinates assigned)
NC(=O)c1cc2ccc(-c3cnco3)cc2n1C(=O)[O-] (optimized conformer: 101.45403711848073 kcal/mol)

>  <smiles>  (75) 
NC(=O)c1cc2ccc(-c3cnco3)cc2n1C(=O)O

>  <score_type>  (75) 
oracle

>  <origin>  (75) 
adg

>  <m_score__min__energy>  (75) 
-6.1699999999999999

>  <m_primary>  (75) 
energy

$$$$
75:0
     RDKit          3D

 56 59  0  0  0  0  0  0  0  0999 V2000
  150.2710  150.7210  131.0100 C   0  0  0  0  0  0  0  0  0  0  0  0
  149.8680  151.4180  132.1850 O   0  0  0  0  0  0  0  0  0  0  0  0
  148.6370  152.0760  132.3360 C   0  0  0  0  0  0  0  0  0  0  0  0
  148.5520  153.4630  132.5710 C   0  0  0  0  0  0  0  0  0  0  0  0
  147.3010  154.0930  132.7150 C   0  0  0  0  0  0  0  0  0  0  0  0
  147.2190  155.5550  132.9570 C   0  0  0  0  0  0  0  0  0  0  0  0
  148.4000  156.3380  133.0480 C   0  0  0  0  0  0  0  0  0  0  0  0
  148.3300  157.7220  133.2790 C   0  0  0  0  0  0  0  0  0  0  0  0
  147.0710  158.2990  133.4080 C   0  0  0  0  0  0  0  0  0  0  0  0
  146.7170  159.6090  133.6420 C   0  0  0  0  0  0  0  0  0  0  0  0
  145.3240  159.6160  133.6700 C   0  0  0  0  0  0  0  0  0  0  0  0
  144.5180  160.8480  133.7900 C   0  0  0  0  0  0  0  0  0  0  0  0
  143.1580  160.8500  133.3620 N   0  0  0  0  0  0  0  0  0  0  0  0
  145.0050  161.8910  134.3000 O   0  0  0  0  0  0  0  0  0  0  0  0
  144.8370  158.3560  133.4760 N   0  0  0  0  0  0  0  0  0  0  0  0
  143.4660  157.9330  133.4650 C   0  0  0  0  0  0  0  0  0  0  0  0
  142.8330  157.8710  132.3760 O   0  0  0  0  0  0  0  0  0  0  0  0
  142.8350  157.6010  134.6700 O   0  0  0  0  0  0  0  0  0  0  0  0
  141.4560  157.8450  134.9300 C   0  0  0  0  0  0  0  0  0  0  0  0
  141.0230  159.2330  134.4310 C   0  0  0  0  0  0  0  0  0  0  0  0
  140.6900  159.2210  132.9880 N   0  0  0  0  0  0  0  0  0  0  0  0
  140.0250  160.4780  132.5630 C   0  0  0  0  0  0  0  0  0  0  0  0
  139.1320  160.2530  131.3320 C   0  0  0  0  0  0  0  0  0  0  0  0
  138.0800  159.3240  131.5580 O   0  0  0  0  0  0  0  0  0  0  0  0
  138.3970  158.3300  132.5220 C   0  0  0  0  0  0  0  0  0  0  0  0
  139.9020  158.0180  132.6210 C   0  0  0  0  0  0  0  0  0  0  0  0
  145.9190  157.5640  133.3100 C   0  0  0  0  0  0  0  0  0  0  0  0
  145.9580  156.1820  133.1000 C   0  0  0  0  0  0  0  0  0  0  0  0
  146.1340  153.3160  132.6240 C   0  0  0  0  0  0  0  0  0  0  0  0
  146.2140  151.9420  132.3930 C   0  0  0  0  0  0  0  0  0  0  0  0
  147.4610  151.3210  132.2470 C   0  0  0  0  0  0  0  0  0  0  0  0
  147.5390  149.9480  132.0150 O   0  0  0  0  0  0  0  0  0  0  0  0
  150.8030  149.8009  131.2937 H   0  0  0  0  0  0  0  0  0  0  0  0
  149.3831  150.4623  130.4144 H   0  0  0  0  0  0  0  0  0  0  0  0
  150.9382  151.3614  130.4144 H   0  0  0  0  0  0  0  0  0  0  0  0
  149.4731  154.0600  132.6427 H   0  0  0  0  0  0  0  0  0  0  0  0
  149.3819  155.8549  132.9362 H   0  0  0  0  0  0  0  0  0  0  0  0
  149.2430  158.3307  133.3555 H   0  0  0  0  0  0  0  0  0  0  0  0
  147.3909  160.4677  133.7780 H   0  0  0  0  0  0  0  0  0  0  0  0
  142.7530  160.0320  132.8570 H   0  0  0  0  0  0  0  0  0  0  0  0
  140.8552  157.0784  134.4187 H   0  0  0  0  0  0  0  0  0  0  0  0
  141.2989  157.8061  136.0180 H   0  0  0  0  0  0  0  0  0  0  0  0
  140.1369  159.5544  134.9980 H   0  0  0  0  0  0  0  0  0  0  0  0
  141.8629  159.9272  134.5817 H   0  0  0  0  0  0  0  0  0  0  0  0
  139.4051  160.8523  133.3910 H   0  0  0  0  0  0  0  0  0  0  0  0
  140.8035  161.2080  132.2966 H   0  0  0  0  0  0  0  0  0  0  0  0
  138.6890  161.2172  131.0421 H   0  0  0  0  0  0  0  0  0  0  0  0
  139.7706  159.8332  130.5408 H   0  0  0  0  0  0  0  0  0  0  0  0
  138.0494  158.6778  133.5060 H   0  0  0  0  0  0  0  0  0  0  0  0
  137.8979  157.4032  132.2027 H   0  0  0  0  0  0  0  0  0  0  0  0
  140.0557  157.2439  133.3873 H   0  0  0  0  0  0  0  0  0  0  0  0
  140.2454  157.6712  131.6352 H   0  0  0  0  0  0  0  0  0  0  0  0
  145.0292  155.5951  133.0471 H   0  0  0  0  0  0  0  0  0  0  0  0
  145.1497  153.7943  132.7357 H   0  0  0  0  0  0  0  0  0  0  0  0
  145.2934  151.3438  132.3253 H   0  0  0  0  0  0  0  0  0  0  0  0
  146.8350  149.4620  131.4710 H   0  0  0  0  0  0  0  0  0  0  0  0
  1  2  1  0
  2  3  1  0
  3  4  2  0
  4  5  1  0
  5  6  1  0
  6  7  2  0
  7  8  1  0
  8  9  2  0
  9 10  1  0
 10 11  2  0
 11 12  1  0
 12 13  1  0
 12 14  2  0
 11 15  1  0
 15 16  1  0
 16 17  2  0
 16 18  1  0
 18 19  1  0
 19 20  1  0
 20 21  1  0
 21 22  1  0
 22 23  1  0
 23 24  1  0
 24 25  1  0
 25 26  1  0
 15 27  1  0
 27 28  2  0
  5 29  2  0
 29 30  1  0
 30 31  2  0
 31 32  1  0
 31  3  1  0
 28  6  1  0
 27  9  1  0
 26 21  1  0
  1 33  1  0
  1 34  1  0
  1 35  1  0
  4 36  1  0
  7 37  1  0
  8 38  1  0
 10 39  1  0
 13 40  1  0
 19 41  1  0
 19 42  1  0
 20 43  1  0
 20 44  1  0
 22 45  1  0
 22 46  1  0
 23 47  1  0
 23 48  1  0
 25 49  1  0
 25 50  1  0
 26 51  1  0
 26 52  1  0
 28 53  1  0
 29 54  1  0
 30 55  1  0
 32 56  1  0
M  CHG  1  13  -1
M  END
>  <UniqueID>  (76) 
75

>  <SMILES>  (76) 
COc1cc(-c2ccc3cc(C([NH-])=O)n(C(=O)OCCN4CCOCC4)c3c2)ccc1O

>  <Energy>  (76) 
113.92669071112746

>  <Genealogy>  (76) 
COc1cc(-c2ccc3cc(C([NH-])=O)n(C(=O)OCCN4CCOCC4)c3c2)ccc1O (protonated)
COc1cc(-c2ccc3cc(C([NH-])=O)n(C(=O)OCCN4CCOCC4)c3c2)ccc1O (3D coordinates assigned)
COc1cc(-c2ccc3cc(C([NH-])=O)n(C(=O)OCCN4CCOCC4)c3c2)ccc1O (nonaromatic ring conformer: 113.92669071112746 kcal/mol)

>  <smiles>  (76) 
COc1cc(-c2ccc3cc(C(N)=O)n(C(=O)OCCN4CCOCC4)c3c2)ccc1O

>  <score_type>  (76) 
oracle

>  <origin>  (76) 
adg

>  <m_score__min__energy>  (76) 
-8.3300000000000001

>  <m_primary>  (76) 
energy

$$$$
76:0
     RDKit          3D

 32 33  0  0  0  0  0  0  0  0999 V2000
  148.7930  160.2850  130.3640 C   0  0  0  0  0  0  0  0  0  0  0  0
  149.9340  159.6170  131.1240 C   0  0  0  0  0  0  0  0  0  0  0  0
  149.4690  158.4580  131.8120 O   0  0  0  0  0  0  0  0  0  0  0  0
  148.6570  158.5110  132.9510 C   0  0  0  0  0  0  0  0  0  0  0  0
  148.9180  159.3240  133.8800 O   0  0  0  0  0  0  0  0  0  0  0  0
  147.5260  157.6330  133.0650 N   0  0  0  0  0  0  0  0  0  0  0  0
  146.2260  157.9800  133.2800 C   0  0  0  0  0  0  0  0  0  0  0  0
  145.6870  159.3540  133.2820 C   0  0  0  0  0  0  0  0  0  0  0  0
  146.5150  160.4760  132.9740 N   0  0  0  0  0  0  0  0  0  0  0  0
  144.4600  159.5370  133.5070 O   0  0  0  0  0  0  0  0  0  0  0  0
  145.4360  156.8470  133.4540 C   0  0  0  0  0  0  0  0  0  0  0  0
  146.2970  155.7810  133.3220 C   0  0  0  0  0  0  0  0  0  0  0  0
  146.0500  154.4160  133.4220 C   0  0  0  0  0  0  0  0  0  0  0  0
  147.1380  153.5370  133.2850 C   0  0  0  0  0  0  0  0  0  0  0  0
  148.4430  154.0370  133.0500 C   0  0  0  0  0  0  0  0  0  0  0  0
  149.6040  153.0910  132.9560 C   0  0  0  0  0  0  0  0  0  0  0  0
  149.1990  151.7460  131.8630 Cl  0  0  0  0  0  0  0  0  0  0  0  0
  148.6590  155.4300  132.9690 C   0  0  0  0  0  0  0  0  0  0  0  0
  147.5530  156.2820  133.0890 C   0  0  0  0  0  0  0  0  0  0  0  0
  148.0726  160.7067  131.0804 H   0  0  0  0  0  0  0  0  0  0  0  0
  149.1954  161.0901  129.7317 H   0  0  0  0  0  0  0  0  0  0  0  0
  148.2879  159.5400  129.7317 H   0  0  0  0  0  0  0  0  0  0  0  0
  150.7195  159.3237  130.4120 H   0  0  0  0  0  0  0  0  0  0  0  0
  150.3341  160.3295  131.8604 H   0  0  0  0  0  0  0  0  0  0  0  0
  147.4870  160.3470  132.6150 H   0  0  0  0  0  0  0  0  0  0  0  0
  146.1270  161.4440  133.0210 H   0  0  0  0  0  0  0  0  0  0  0  0
  144.3550  156.8112  133.6541 H   0  0  0  0  0  0  0  0  0  0  0  0
  145.0337  154.0358  133.6028 H   0  0  0  0  0  0  0  0  0  0  0  0
  146.9752  152.4518  133.3608 H   0  0  0  0  0  0  0  0  0  0  0  0
  150.4814  153.6274  132.5654 H   0  0  0  0  0  0  0  0  0  0  0  0
  149.8286  152.6913  133.9559 H   0  0  0  0  0  0  0  0  0  0  0  0
  149.6697  155.8360  132.8156 H   0  0  0  0  0  0  0  0  0  0  0  0
  1  2  1  0
  2  3  1  0
  3  4  1  0
  4  5  2  0
  4  6  1  0
  6  7  1  0
  7  8  1  0
  8  9  1  0
  8 10  2  0
  7 11  2  0
 11 12  1  0
 12 13  2  0
 13 14  1  0
 14 15  2  0
 15 16  1  0
 16 17  1  0
 15 18  1  0
 18 19  2  0
 19  6  1  0
 19 12  1  0
  1 20  1  0
  1 21  1  0
  1 22  1  0
  2 23  1  0
  2 24  1  0
  9 25  1  0
  9 26  1  0
 11 27  1  0
 13 28  1  0
 14 29  1  0
 16 30  1  0
 16 31  1  0
 18 32  1  0
M  END
>  <UniqueID>  (77) 
76

>  <SMILES>  (77) 
CCOC(=O)n1c(C(N)=O)cc2ccc(CCl)cc21

>  <Energy>  (77) 
66.4314953039728

>  <Genealogy>  (77) 
CCOC(=O)n1c(C(N)=O)cc2ccc(CCl)cc21 (3D coordinates assigned)
CCOC(=O)n1c(C(N)=O)cc2ccc(CCl)cc21 (optimized conformer: 66.4314953039728 kcal/mol)

>  <smiles>  (77) 
CCOC(=O)n1c(C(N)=O)cc2ccc(CCl)cc21

>  <score_type>  (77) 
oracle

>  <origin>  (77) 
adg

>  <m_score__min__energy>  (77) 
-6.71

>  <m_primary>  (77) 
energy

$$$$
77:0
     RDKit          3D

 42 44  0  0  0  0  0  0  0  0999 V2000
  143.5760  160.4920  134.0830 C   0  0  0  0  0  0  0  0  0  0  0  0
  144.7470  159.7120  133.8720 O   0  0  0  0  0  0  0  0  0  0  0  0
  144.7220  158.4750  133.2210 C   0  0  0  0  0  0  0  0  0  0  0  0
  143.6810  158.0970  132.6170 O   0  0  0  0  0  0  0  0  0  0  0  0
  145.8850  157.6300  133.2410 N   0  0  0  0  0  0  0  0  0  0  0  0
  147.1910  158.0180  133.2380 C   0  0  0  0  0  0  0  0  0  0  0  0
  147.6840  159.4030  133.3730 C   0  0  0  0  0  0  0  0  0  0  0  0
  147.0050  160.4950  132.7490 N   0  0  0  0  0  0  0  0  0  0  0  0
  148.6880  159.6350  134.0980 O   0  0  0  0  0  0  0  0  0  0  0  0
  148.0320  156.9130  133.1390 C   0  0  0  0  0  0  0  0  0  0  0  0
  147.1940  155.8230  133.0950 C   0  0  0  0  0  0  0  0  0  0  0  0
  147.4950  154.4700  132.9810 C   0  0  0  0  0  0  0  0  0  0  0  0
  146.4280  153.5600  132.9180 C   0  0  0  0  0  0  0  0  0  0  0  0
  145.0830  154.0120  132.9580 C   0  0  0  0  0  0  0  0  0  0  0  0
  143.9620  153.0420  132.8750 C   0  0  0  0  0  0  0  0  0  0  0  0
  142.6290  153.4800  132.9790 C   0  0  0  0  0  0  0  0  0  0  0  0
  141.5750  152.5660  132.9000 C   0  0  0  0  0  0  0  0  0  0  0  0
  141.8340  151.2020  132.7190 C   0  0  0  0  0  0  0  0  0  0  0  0
  140.5040  150.0550  132.6000 S   0  0  0  0  0  0  0  0  0  0  0  0
  140.8970  148.8200  131.3830 C   0  0  0  0  0  0  0  0  0  0  0  0
  139.2460  150.7740  132.2000 O   0  0  0  0  0  0  0  0  0  0  0  0
  140.2800  149.3950  133.9310 O   0  0  0  0  0  0  0  0  0  0  0  0
  143.1580  150.7600  132.6060 C   0  0  0  0  0  0  0  0  0  0  0  0
  144.2150  151.6710  132.6860 C   0  0  0  0  0  0  0  0  0  0  0  0
  144.8200  155.3980  133.0710 C   0  0  0  0  0  0  0  0  0  0  0  0
  145.9040  156.2810  133.1570 C   0  0  0  0  0  0  0  0  0  0  0  0
  143.4022  160.6078  135.1630 H   0  0  0  0  0  0  0  0  0  0  0  0
  143.7081  161.4832  133.6246 H   0  0  0  0  0  0  0  0  0  0  0  0
  142.7123  159.9882  133.6246 H   0  0  0  0  0  0  0  0  0  0  0  0
  146.0780  160.3610  132.2880 H   0  0  0  0  0  0  0  0  0  0  0  0
  147.3910  161.4620  132.8220 H   0  0  0  0  0  0  0  0  0  0  0  0
  149.1314  156.9118  133.1036 H   0  0  0  0  0  0  0  0  0  0  0  0
  148.5382  154.1233  132.9414 H   0  0  0  0  0  0  0  0  0  0  0  0
  146.6368  152.4831  132.8366 H   0  0  0  0  0  0  0  0  0  0  0  0
  142.4151  154.5493  133.1235 H   0  0  0  0  0  0  0  0  0  0  0  0
  140.5366  152.9199  132.9804 H   0  0  0  0  0  0  0  0  0  0  0  0
  141.1933  147.8888  131.8880 H   0  0  0  0  0  0  0  0  0  0  0  0
  140.0146  148.6312  130.7540 H   0  0  0  0  0  0  0  0  0  0  0  0
  141.7263  149.1759  130.7540 H   0  0  0  0  0  0  0  0  0  0  0  0
  143.3671  149.6909  132.4536 H   0  0  0  0  0  0  0  0  0  0  0  0
  145.2518  151.3136  132.6006 H   0  0  0  0  0  0  0  0  0  0  0  0
  143.7864  155.7738  133.0909 H   0  0  0  0  0  0  0  0  0  0  0  0
  1  2  1  0
  2  3  1  0
  3  4  2  0
  3  5  1  0
  5  6  1  0
  6  7  1  0
  7  8  1  0
  7  9  2  0
  6 10  2  0
 10 11  1  0
 11 12  2  0
 12 13  1  0
 13 14  2  0
 14 15  1  0
 15 16  2  0
 16 17  1  0
 17 18  2  0
 18 19  1  0
 19 20  1  0
 19 21  2  0
 19 22  2  0
 18 23  1  0
 23 24  2  0
 14 25  1  0
 25 26  2  0
 26  5  1  0
 26 11  1  0
 24 15  1  0
  1 27  1  0
  1 28  1  0
  1 29  1  0
  8 30  1  0
  8 31  1  0
 10 32  1  0
 12 33  1  0
 13 34  1  0
 16 35  1  0
 17 36  1  0
 20 37  1  0
 20 38  1  0
 20 39  1  0
 23 40  1  0
 24 41  1  0
 25 42  1  0
M  END
>  <UniqueID>  (78) 
77

>  <SMILES>  (78) 
COC(=O)n1c(C(N)=O)cc2ccc(-c3ccc(S(C)(=O)=O)cc3)cc21

>  <Energy>  (78) 
84.3247196180403

>  <Genealogy>  (78) 
COC(=O)n1c(C(N)=O)cc2ccc(-c3ccc(S(C)(=O)=O)cc3)cc21 (3D coordinates assigned)
COC(=O)n1c(C(N)=O)cc2ccc(-c3ccc(S(C)(=O)=O)cc3)cc21 (optimized conformer: 84.3247196180403 kcal/mol)

>  <smiles>  (78) 
COC(=O)n1c(C(N)=O)cc2ccc(-c3ccc(S(C)(=O)=O)cc3)cc21

>  <score_type>  (78) 
oracle

>  <origin>  (78) 
adg

>  <m_score__min__energy>  (78) 
-8.5600000000000005

>  <m_primary>  (78) 
energy

$$$$
78:0
     RDKit          3D

 56 59  0  0  0  0  0  0  0  0999 V2000
  142.8220  151.6230  132.8240 N   0  0  0  0  0  0  0  0  0  0  0  0
  141.8520  151.9830  133.8020 C   0  0  0  0  0  0  0  0  0  0  0  0
  141.3750  151.0950  134.5570 O   0  0  0  0  0  0  0  0  0  0  0  0
  141.3950  153.3820  133.9050 C   0  0  0  0  0  0  0  0  0  0  0  0
  140.5190  153.9810  133.0020 C   0  0  0  0  0  0  0  0  0  0  0  0
  140.2850  155.2430  133.5050 C   0  0  0  0  0  0  0  0  0  0  0  0
  139.4840  156.2710  133.0180 C   0  0  0  0  0  0  0  0  0  0  0  0
  139.4510  157.4770  133.7400 C   0  0  0  0  0  0  0  0  0  0  0  0
  140.2160  157.6340  134.9240 C   0  0  0  0  0  0  0  0  0  0  0  0
  140.2440  158.9590  135.6380 C   0  0  0  0  0  0  0  0  0  0  0  0
  141.5580  159.7150  135.3870 C   0  0  0  0  0  0  0  0  0  0  0  0
  141.8490  159.8830  133.9120 C   0  0  0  0  0  0  0  0  0  0  0  0
  140.9690  160.3300  133.1870 O   0  0  0  0  0  0  0  0  0  0  0  0
  143.1440  159.5290  133.3570 N   0  0  0  0  0  0  0  0  0  0  0  0
  144.1580  160.5350  133.7340 C   0  0  0  0  0  0  0  0  0  0  0  0
  145.5840  160.0710  133.3630 C   0  0  0  0  0  0  0  0  0  0  0  0
  145.5640  158.8710  132.6180 O   0  0  0  0  0  0  0  0  0  0  0  0
  144.9890  157.8440  133.3980 C   0  0  0  0  0  0  0  0  0  0  0  0
  143.5360  158.1740  133.7970 C   0  0  0  0  0  0  0  0  0  0  0  0
  141.0070  156.5630  135.3930 C   0  0  0  0  0  0  0  0  0  0  0  0
  141.0100  155.3720  134.6610 C   0  0  0  0  0  0  0  0  0  0  0  0
  141.6950  154.2410  134.9180 N   0  0  0  0  0  0  0  0  0  0  0  0
  142.5680  154.0220  136.0340 C   0  0  0  0  0  0  0  0  0  0  0  0
  143.6450  154.6770  136.1130 O   0  0  0  0  0  0  0  0  0  0  0  0
  142.2560  152.9310  137.0250 C   0  0  0  0  0  0  0  0  0  0  0  0
  141.4550  153.4390  138.1980 C   0  0  0  0  0  0  0  0  0  0  0  0
  140.9940  154.7690  138.2190 C   0  0  0  0  0  0  0  0  0  0  0  0
  140.2840  155.2520  139.3230 C   0  0  0  0  0  0  0  0  0  0  0  0
  140.0290  154.4170  140.4130 C   0  0  0  0  0  0  0  0  0  0  0  0
  140.4860  153.0950  140.4010 C   0  0  0  0  0  0  0  0  0  0  0  0
  141.2010  152.6090  139.3000 C   0  0  0  0  0  0  0  0  0  0  0  0
  142.5970  151.6630  131.8030 H   0  0  0  0  0  0  0  0  0  0  0  0
  140.1030  153.5408  132.0838 H   0  0  0  0  0  0  0  0  0  0  0  0
  138.8953  156.1443  132.0975 H   0  0  0  0  0  0  0  0  0  0  0  0
  138.8250  158.3079  133.3827 H   0  0  0  0  0  0  0  0  0  0  0  0
  139.4053  159.5742  135.2799 H   0  0  0  0  0  0  0  0  0  0  0  0
  140.1609  158.7672  136.7180 H   0  0  0  0  0  0  0  0  0  0  0  0
  141.4877  160.7105  135.8496 H   0  0  0  0  0  0  0  0  0  0  0  0
  142.3757  159.1253  135.8270 H   0  0  0  0  0  0  0  0  0  0  0  0
  143.0780  159.5190  132.3120 H   0  0  0  0  0  0  0  0  0  0  0  0
  143.9404  161.4760  133.2075 H   0  0  0  0  0  0  0  0  0  0  0  0
  144.1145  160.6759  134.8241 H   0  0  0  0  0  0  0  0  0  0  0  0
  146.0697  160.8551  132.7636 H   0  0  0  0  0  0  0  0  0  0  0  0
  146.1391  159.8877  134.2948 H   0  0  0  0  0  0  0  0  0  0  0  0
  144.9955  156.9097  132.8174 H   0  0  0  0  0  0  0  0  0  0  0  0
  145.5818  157.7410  134.3189 H   0  0  0  0  0  0  0  0  0  0  0  0
  142.8626  157.4391  133.3317 H   0  0  0  0  0  0  0  0  0  0  0  0
  143.4637  158.1348  134.8939 H   0  0  0  0  0  0  0  0  0  0  0  0
  141.6054  156.6630  136.3105 H   0  0  0  0  0  0  0  0  0  0  0  0
  141.6793  152.1445  136.5162 H   0  0  0  0  0  0  0  0  0  0  0  0
  143.2099  152.5419  137.4105 H   0  0  0  0  0  0  0  0  0  0  0  0
  141.1930  155.4312  137.3635 H   0  0  0  0  0  0  0  0  0  0  0  0
  139.9256  156.2919  139.3327 H   0  0  0  0  0  0  0  0  0  0  0  0
  139.4695  154.7984  141.2799 H   0  0  0  0  0  0  0  0  0  0  0  0
  140.2832  152.4362  141.2582 H   0  0  0  0  0  0  0  0  0  0  0  0
  141.5655  151.5711  139.2990 H   0  0  0  0  0  0  0  0  0  0  0  0
  1  2  1  0
  2  3  2  0
  2  4  1  0
  4  5  2  0
  5  6  1  0
  6  7  2  0
  7  8  1  0
  8  9  2  0
  9 10  1  0
 10 11  1  0
 11 12  1  0
 12 13  2  0
 12 14  1  0
 14 15  1  0
 15 16  1  0
 16 17  1  0
 17 18  1  0
 18 19  1  0
  9 20  1  0
 20 21  2  0
 21 22  1  0
 22 23  1  0
 23 24  2  0
 23 25  1  0
 25 26  1  0
 26 27  2  0
 27 28  1  0
 28 29  2  0
 29 30  1  0
 30 31  2  0
 22  4  1  0
 31 26  1  0
 21  6  1  0
 19 14  1  0
  1 32  1  0
  5 33  1  0
  7 34  1  0
  8 35  1  0
 10 36  1  0
 10 37  1  0
 11 38  1  0
 11 39  1  0
 14 40  1  0
 15 41  1  0
 15 42  1  0
 16 43  1  0
 16 44  1  0
 18 45  1  0
 18 46  1  0
 19 47  1  0
 19 48  1  0
 20 49  1  0
 25 50  1  0
 25 51  1  0
 27 52  1  0
 28 53  1  0
 29 54  1  0
 30 55  1  0
 31 56  1  0
M  CHG  2   1  -1  14   1
M  END
>  <UniqueID>  (79) 
78

>  <SMILES>  (79) 
[NH-]C(=O)c1cc2ccc(CCC(=O)[NH+]3CCOCC3)cc2n1C(=O)Cc1ccccc1

>  <Energy>  (79) 
103.8387167026692

>  <Genealogy>  (79) 
[NH-]C(=O)c1cc2ccc(CCC(=O)[NH+]3CCOCC3)cc2n1C(=O)Cc1ccccc1 (protonated)
[NH-]C(=O)c1cc2ccc(CCC(=O)[NH+]3CCOCC3)cc2n1C(=O)Cc1ccccc1 (3D coordinates assigned)
[NH-]C(=O)c1cc2ccc(CCC(=O)[NH+]3CCOCC3)cc2n1C(=O)Cc1ccccc1 (nonaromatic ring conformer: 103.8387167026692 kcal/mol)

>  <smiles>  (79) 
NC(=O)c1cc2ccc(CCC(=O)N3CCOCC3)cc2n1C(=O)Cc1ccccc1

>  <score_type>  (79) 
oracle

>  <origin>  (79) 
adg

>  <m_score__min__energy>  (79) 
-9.3000000000000007

>  <m_primary>  (79) 
energy

$$$$
79:0
     RDKit          3D

 42 44  0  0  0  0  0  0  0  0999 V2000
  145.6540  155.0260  132.3010 C   0  0  0  0  0  0  0  0  0  0  0  0
  146.6220  155.9850  131.8950 O   0  0  0  0  0  0  0  0  0  0  0  0
  147.3150  156.7910  132.8040 C   0  0  0  0  0  0  0  0  0  0  0  0
  148.2030  156.2920  133.5470 O   0  0  0  0  0  0  0  0  0  0  0  0
  146.9920  158.1860  132.9090 N   0  0  0  0  0  0  0  0  0  0  0  0
  147.8070  159.2560  132.6840 C   0  0  0  0  0  0  0  0  0  0  0  0
  149.1750  159.2050  132.1280 C   0  0  0  0  0  0  0  0  0  0  0  0
  149.9390  158.0010  132.1640 N   0  0  0  0  0  0  0  0  0  0  0  0
  149.6600  160.2250  131.5690 O   0  0  0  0  0  0  0  0  0  0  0  0
  147.1430  160.4470  132.9730 C   0  0  0  0  0  0  0  0  0  0  0  0
  145.8810  160.0710  133.3750 C   0  0  0  0  0  0  0  0  0  0  0  0
  144.8020  160.8520  133.7790 C   0  0  0  0  0  0  0  0  0  0  0  0
  143.6200  160.1950  134.1610 C   0  0  0  0  0  0  0  0  0  0  0  0
  143.5470  158.7790  134.1490 C   0  0  0  0  0  0  0  0  0  0  0  0
  142.2670  158.0860  134.5310 C   0  0  0  0  0  0  0  0  0  0  0  0
  141.1620  158.4880  133.5920 C   0  0  0  0  0  0  0  0  0  0  0  0
  140.2730  157.5250  133.0930 C   0  0  0  0  0  0  0  0  0  0  0  0
  139.2210  157.9010  132.2520 C   0  0  0  0  0  0  0  0  0  0  0  0
  139.0390  159.2500  131.8980 C   0  0  0  0  0  0  0  0  0  0  0  0
  137.9230  159.6680  131.0130 C   0  0  0  0  0  0  0  0  0  0  0  0
  138.1190  160.5630  130.1480 O   0  0  0  0  0  0  0  0  0  0  0  0
  136.6290  159.0610  131.1070 N   0  0  0  0  0  0  0  0  0  0  0  0
  135.6050  159.5250  130.3540 O   0  0  0  0  0  0  0  0  0  0  0  0
  139.9190  160.2140  132.4210 C   0  0  0  0  0  0  0  0  0  0  0  0
  140.9700  159.8370  133.2610 C   0  0  0  0  0  0  0  0  0  0  0  0
  144.6600  158.0210  133.7250 C   0  0  0  0  0  0  0  0  0  0  0  0
  145.8160  158.7030  133.3290 C   0  0  0  0  0  0  0  0  0  0  0  0
  145.6148  154.9871  133.3996 H   0  0  0  0  0  0  0  0  0  0  0  0
  144.6671  155.3125  131.9087 H   0  0  0  0  0  0  0  0  0  0  0  0
  145.9313  154.0364  131.9087 H   0  0  0  0  0  0  0  0  0  0  0  0
  149.9040  157.3690  132.9940 H   0  0  0  0  0  0  0  0  0  0  0  0
  147.5421  161.4692  132.8963 H   0  0  0  0  0  0  0  0  0  0  0  0
  144.8724  161.9496  133.7987 H   0  0  0  0  0  0  0  0  0  0  0  0
  142.7444  160.7839  134.4718 H   0  0  0  0  0  0  0  0  0  0  0  0
  142.4125  156.9970  134.4768 H   0  0  0  0  0  0  0  0  0  0  0  0
  141.9922  158.3760  135.5559 H   0  0  0  0  0  0  0  0  0  0  0  0
  140.4041  156.4672  133.3649 H   0  0  0  0  0  0  0  0  0  0  0  0
  138.5312  157.1367  131.8647 H   0  0  0  0  0  0  0  0  0  0  0  0
  136.4720  158.2110  131.6890 H   0  0  0  0  0  0  0  0  0  0  0  0
  139.7787  161.2749  132.1665 H   0  0  0  0  0  0  0  0  0  0  0  0
  141.6498  160.6019  133.6645 H   0  0  0  0  0  0  0  0  0  0  0  0
  144.6195  156.9219  133.7064 H   0  0  0  0  0  0  0  0  0  0  0  0
  1  2  1  0
  2  3  1  0
  3  4  2  0
  3  5  1  0
  5  6  1  0
  6  7  1  0
  7  8  1  0
  7  9  2  0
  6 10  2  0
 10 11  1  0
 11 12  2  0
 12 13  1  0
 13 14  2  0
 14 15  1  0
 15 16  1  0
 16 17  2  0
 17 18  1  0
 18 19  2  0
 19 20  1  0
 20 21  2  0
 20 22  1  0
 22 23  1  0
 19 24  1  0
 24 25  2  0
 14 26  1  0
 26 27  2  0
 27  5  1  0
 27 11  1  0
 25 16  1  0
  1 28  1  0
  1 29  1  0
  1 30  1  0
  8 31  1  0
 10 32  1  0
 12 33  1  0
 13 34  1  0
 15 35  1  0
 15 36  1  0
 17 37  1  0
 18 38  1  0
 22 39  1  0
 24 40  1  0
 25 41  1  0
 26 42  1  0
M  CHG  2   8  -1  23  -1
M  END
>  <UniqueID>  (80) 
79

>  <SMILES>  (80) 
COC(=O)n1c(C([NH-])=O)cc2ccc(Cc3ccc(C(=O)N[O-])cc3)cc21

>  <Energy>  (80) 
81.6728287649795

>  <Genealogy>  (80) 
COC(=O)n1c(C([NH-])=O)cc2ccc(Cc3ccc(C(=O)N[O-])cc3)cc21 (protonated)
COC(=O)n1c(C([NH-])=O)cc2ccc(Cc3ccc(C(=O)N[O-])cc3)cc21 (3D coordinates assigned)
COC(=O)n1c(C([NH-])=O)cc2ccc(Cc3ccc(C(=O)N[O-])cc3)cc21 (optimized conformer: 81.6728287649795 kcal/mol)

>  <smiles>  (80) 
COC(=O)n1c(C(N)=O)cc2ccc(Cc3ccc(C(=O)NO)cc3)cc21

>  <score_type>  (80) 
oracle

>  <origin>  (80) 
adg

>  <m_score__min__energy>  (80) 
-8.5899999999999999

>  <m_primary>  (80) 
energy

$$$$
80:0
     RDKit          3D

 36 38  0  0  0  0  0  0  0  0999 V2000
  141.4910  158.6810  135.1490 C   0  0  0  0  0  0  0  0  0  0  0  0
  142.9040  158.5670  135.0290 O   0  0  0  0  0  0  0  0  0  0  0  0
  143.5470  158.4350  133.7940 C   0  0  0  0  0  0  0  0  0  0  0  0
  142.9810  157.8300  132.8430 O   0  0  0  0  0  0  0  0  0  0  0  0
  144.8480  159.0150  133.6030 N   0  0  0  0  0  0  0  0  0  0  0  0
  145.1910  160.3340  133.6430 C   0  0  0  0  0  0  0  0  0  0  0  0
  144.2570  161.4750  133.7390 C   0  0  0  0  0  0  0  0  0  0  0  0
  142.8470  161.2730  133.7060 N   0  0  0  0  0  0  0  0  0  0  0  0
  144.7100  162.6480  133.8000 O   0  0  0  0  0  0  0  0  0  0  0  0
  146.5700  160.4830  133.4980 C   0  0  0  0  0  0  0  0  0  0  0  0
  147.0610  159.2060  133.3560 C   0  0  0  0  0  0  0  0  0  0  0  0
  148.3690  158.7650  133.1910 C   0  0  0  0  0  0  0  0  0  0  0  0
  148.5940  157.3810  133.1020 C   0  0  0  0  0  0  0  0  0  0  0  0
  147.5150  156.4610  133.1870 C   0  0  0  0  0  0  0  0  0  0  0  0
  147.7640  154.9990  133.1040 C   0  0  0  0  0  0  0  0  0  0  0  0
  146.9130  153.9720  133.4920 C   0  0  0  0  0  0  0  0  0  0  0  0
  147.5100  152.7950  133.2340 N   0  0  0  0  0  0  0  0  0  0  0  0
  148.7030  153.0300  132.7150 N   0  0  0  0  0  0  0  0  0  0  0  0
  149.6120  151.9950  132.2370 C   0  0  0  0  0  0  0  0  0  0  0  0
  148.8900  154.3570  132.6050 C   0  0  0  0  0  0  0  0  0  0  0  0
  146.1990  156.9540  133.3570 C   0  0  0  0  0  0  0  0  0  0  0  0
  146.0040  158.3380  133.4230 C   0  0  0  0  0  0  0  0  0  0  0  0
  141.2140  158.7033  136.2133 H   0  0  0  0  0  0  0  0  0  0  0  0
  141.1554  159.6091  134.6632 H   0  0  0  0  0  0  0  0  0  0  0  0
  141.0110  157.8187  134.6632 H   0  0  0  0  0  0  0  0  0  0  0  0
  142.4380  160.3170  133.8030 H   0  0  0  0  0  0  0  0  0  0  0  0
  147.1431  161.4219  133.4973 H   0  0  0  0  0  0  0  0  0  0  0  0
  149.2037  159.4790  133.1318 H   0  0  0  0  0  0  0  0  0  0  0  0
  149.6186  157.0051  132.9648 H   0  0  0  0  0  0  0  0  0  0  0  0
  145.9152  154.1004  133.9370 H   0  0  0  0  0  0  0  0  0  0  0  0
  147.1040  151.8470  133.4010 H   0  0  0  0  0  0  0  0  0  0  0  0
  150.0649  151.4793  133.0966 H   0  0  0  0  0  0  0  0  0  0  0  0
  149.0536  151.2698  131.6269 H   0  0  0  0  0  0  0  0  0  0  0  0
  150.4032  152.4551  131.6269 H   0  0  0  0  0  0  0  0  0  0  0  0
  149.7820  154.8497  132.1907 H   0  0  0  0  0  0  0  0  0  0  0  0
  145.3468  156.2629  133.4356 H   0  0  0  0  0  0  0  0  0  0  0  0
  1  2  1  0
  2  3  1  0
  3  4  2  0
  3  5  1  0
  5  6  1  0
  6  7  1  0
  7  8  1  0
  7  9  2  0
  6 10  2  0
 10 11  1  0
 11 12  2  0
 12 13  1  0
 13 14  2  0
 14 15  1  0
 15 16  1  0
 16 17  2  0
 17 18  1  0
 18 19  1  0
 18 20  1  0
 14 21  1  0
 21 22  2  0
 22  5  1  0
 22 11  1  0
 20 15  2  0
  1 23  1  0
  1 24  1  0
  1 25  1  0
  8 26  1  0
 10 27  1  0
 12 28  1  0
 13 29  1  0
 16 30  1  0
 17 31  1  0
 19 32  1  0
 19 33  1  0
 19 34  1  0
 20 35  1  0
 21 36  1  0
M  CHG  2   8  -1  17   1
M  END
>  <UniqueID>  (81) 
80

>  <SMILES>  (81) 
COC(=O)n1c(C([NH-])=O)cc2ccc(-c3c[nH+]n(C)c3)cc21

>  <Energy>  (81) 
107.11877871665645

>  <Genealogy>  (81) 
COC(=O)n1c(C([NH-])=O)cc2ccc(-c3c[nH+]n(C)c3)cc21 (protonated)
COC(=O)n1c(C([NH-])=O)cc2ccc(-c3c[nH+]n(C)c3)cc21 (3D coordinates assigned)
COC(=O)n1c(C([NH-])=O)cc2ccc(-c3c[nH+]n(C)c3)cc21 (optimized conformer: 107.11877871665645 kcal/mol)

>  <smiles>  (81) 
COC(=O)n1c(C(N)=O)cc2ccc(-c3cnn(C)c3)cc21

>  <score_type>  (81) 
oracle

>  <origin>  (81) 
adg

>  <m_score__min__energy>  (81) 
-6.7800000000000002

>  <m_primary>  (81) 
energy

$$$$
81:0
     RDKit          3D

 49 50  0  0  0  0  0  0  0  0999 V2000
  138.6670  160.7600  130.6910 C   0  0  0  0  0  0  0  0  0  0  0  0
  138.0090  159.3910  130.8110 C   0  0  0  0  0  0  0  0  0  0  0  0
  138.9740  158.3970  131.1500 O   0  0  0  0  0  0  0  0  0  0  0  0
  139.2920  158.0500  132.4680 C   0  0  0  0  0  0  0  0  0  0  0  0
  139.0800  156.8830  132.8970 O   0  0  0  0  0  0  0  0  0  0  0  0
  139.9410  159.0640  133.3590 C   0  0  0  0  0  0  0  0  0  0  0  0
  140.9930  158.4110  134.2780 C   0  0  2  0  0  0  0  0  0  0  0  0
  140.6430  158.5460  135.7380 C   0  0  0  0  0  0  0  0  0  0  0  0
  139.4820  158.2640  136.1450 O   0  0  0  0  0  0  0  0  0  0  0  0
  141.6090  159.0200  136.6290 O   0  0  0  0  0  0  0  0  0  0  0  0
  141.6920  158.5750  137.9790 C   0  0  0  0  0  0  0  0  0  0  0  0
  141.4260  157.0780  138.0400 C   0  0  0  0  0  0  0  0  0  0  0  0
  142.3770  158.9740  134.0180 C   0  0  0  0  0  0  0  0  0  0  0  0
  142.5830  160.3780  134.0380 C   0  0  0  0  0  0  0  0  0  0  0  0
  143.8570  160.9210  133.8060 C   0  0  0  0  0  0  0  0  0  0  0  0
  144.9040  160.0430  133.5480 C   0  0  0  0  0  0  0  0  0  0  0  0
  146.2350  160.2990  133.3110 C   0  0  0  0  0  0  0  0  0  0  0  0
  146.8240  159.0510  133.1250 C   0  0  0  0  0  0  0  0  0  0  0  0
  148.2430  158.8670  132.7520 C   0  0  0  0  0  0  0  0  0  0  0  0
  148.5800  158.0990  131.6000 N   0  0  0  0  0  0  0  0  0  0  0  0
  149.1640  159.3480  133.4630 O   0  0  0  0  0  0  0  0  0  0  0  0
  145.8960  158.0600  133.2490 N   0  0  0  0  0  0  0  0  0  0  0  0
  146.1140  156.6420  133.1970 C   0  0  0  0  0  0  0  0  0  0  0  0
  147.2890  156.1830  133.2060 O   0  0  0  0  0  0  0  0  0  0  0  0
  145.0210  155.7720  133.1150 O   0  0  0  0  0  0  0  0  0  0  0  0
  144.8250  154.8870  132.0190 C   0  0  0  0  0  0  0  0  0  0  0  0
  144.7250  158.6850  133.5070 C   0  0  0  0  0  0  0  0  0  0  0  0
  143.4720  158.1140  133.7540 C   0  0  0  0  0  0  0  0  0  0  0  0
  138.8607  161.1631  131.6960 H   0  0  0  0  0  0  0  0  0  0  0  0
  139.6172  160.6635  130.1452 H   0  0  0  0  0  0  0  0  0  0  0  0
  137.9982  161.4417  130.1452 H   0  0  0  0  0  0  0  0  0  0  0  0
  137.2380  159.4282  131.5947 H   0  0  0  0  0  0  0  0  0  0  0  0
  137.5563  159.1296  129.8431 H   0  0  0  0  0  0  0  0  0  0  0  0
  140.4328  159.8257  132.7362 H   0  0  0  0  0  0  0  0  0  0  0  0
  139.1637  159.5196  133.9901 H   0  0  0  0  0  0  0  0  0  0  0  0
  140.9952  157.3384  134.0341 H   0  0  0  0  0  0  0  0  0  0  0  0
  142.6977  158.7845  138.3724 H   0  0  0  0  0  0  0  0  0  0  0  0
  140.9420  159.1044  138.5850 H   0  0  0  0  0  0  0  0  0  0  0  0
  141.3692  156.7582  139.0909 H   0  0  0  0  0  0  0  0  0  0  0  0
  140.4740  156.8539  137.5366 H   0  0  0  0  0  0  0  0  0  0  0  0
  142.2426  156.5397  137.5366 H   0  0  0  0  0  0  0  0  0  0  0  0
  141.7345  161.0489  134.2376 H   0  0  0  0  0  0  0  0  0  0  0  0
  144.0218  162.0084  133.8277 H   0  0  0  0  0  0  0  0  0  0  0  0
  146.7290  161.2812  133.2759 H   0  0  0  0  0  0  0  0  0  0  0  0
  148.2050  157.1320  131.4710 H   0  0  0  0  0  0  0  0  0  0  0  0
  144.6017  153.8786  132.3974 H   0  0  0  0  0  0  0  0  0  0  0  0
  143.9840  155.2432  131.4060 H   0  0  0  0  0  0  0  0  0  0  0  0
  145.7378  154.8548  131.4060 H   0  0  0  0  0  0  0  0  0  0  0  0
  143.3397  157.0220  133.7435 H   0  0  0  0  0  0  0  0  0  0  0  0
  1  2  1  0
  2  3  1  0
  3  4  1  0
  4  5  2  0
  4  6  1  0
  6  7  1  0
  7  8  1  0
  8  9  2  0
  8 10  1  0
 10 11  1  0
 11 12  1  0
  7 13  1  0
 13 14  2  0
 14 15  1  0
 15 16  2  0
 16 17  1  0
 17 18  2  0
 18 19  1  0
 19 20  1  0
 19 21  2  0
 18 22  1  0
 22 23  1  0
 23 24  2  0
 23 25  1  0
 25 26  1  0
 22 27  1  0
 27 28  2  0
 28 13  1  0
 27 16  1  0
  1 29  1  0
  1 30  1  0
  1 31  1  0
  2 32  1  0
  2 33  1  0
  6 34  1  0
  6 35  1  0
  7 36  1  6
 11 37  1  0
 11 38  1  0
 12 39  1  0
 12 40  1  0
 12 41  1  0
 14 42  1  0
 15 43  1  0
 17 44  1  0
 20 45  1  0
 26 46  1  0
 26 47  1  0
 26 48  1  0
 28 49  1  0
M  CHG  1  20  -1
M  END
>  <UniqueID>  (82) 
81

>  <SMILES>  (82) 
CCOC(=O)C[C@H](C(=O)OCC)c1ccc2cc(C([NH-])=O)n(C(=O)OC)c2c1

>  <Energy>  (82) 
74.16975494209842

>  <Genealogy>  (82) 
CCOC(=O)CC(C(=O)OCC)c1ccc2cc(C([NH-])=O)n(C(=O)OC)c2c1 (protonated)
CCOC(=O)C[C@H](C(=O)OCC)c1ccc2cc(C([NH-])=O)n(C(=O)OC)c2c1 (chirality)
CCOC(=O)C[C@H](C(=O)OCC)c1ccc2cc(C([NH-])=O)n(C(=O)OC)c2c1 (3D coordinates assigned)
CCOC(=O)C[C@H](C(=O)OCC)c1ccc2cc(C([NH-])=O)n(C(=O)OC)c2c1 (optimized conformer: 74.16975494209842 kcal/mol)

>  <smiles>  (82) 
CCOC(=O)CC(C(=O)OCC)c1ccc2cc(C(N)=O)n(C(=O)OC)c2c1

>  <score_type>  (82) 
oracle

>  <origin>  (82) 
adg

>  <m_score__min__energy>  (82) 
-6.5899999999999999

>  <m_primary>  (82) 
energy

$$$$
82:0
     RDKit          3D

 32 34  0  0  0  0  0  0  0  0999 V2000
  140.6020  159.5210  136.5210 N   0  0  0  0  0  0  0  0  0  0  0  0
  141.4730  158.4410  136.2000 C   0  0  0  0  0  0  0  0  0  0  0  0
  142.3300  158.5900  135.2890 O   0  0  0  0  0  0  0  0  0  0  0  0
  141.4050  157.1610  136.9380 C   0  0  0  0  0  0  0  0  0  0  0  0
  140.9680  157.0500  138.2560 C   0  0  0  0  0  0  0  0  0  0  0  0
  141.0120  155.7050  138.5450 C   0  0  0  0  0  0  0  0  0  0  0  0
  140.6880  155.0260  139.7170 C   0  0  0  0  0  0  0  0  0  0  0  0
  140.8460  153.6280  139.7320 C   0  0  0  0  0  0  0  0  0  0  0  0
  141.3400  152.9440  138.5940 C   0  0  0  0  0  0  0  0  0  0  0  0
  141.4770  151.4480  138.6110 C   0  0  0  0  0  0  0  0  0  0  0  0
  140.4270  150.8270  137.7470 C   0  0  0  0  0  0  0  0  0  0  0  0
  139.3870  150.3420  138.2640 O   0  0  0  0  0  0  0  0  0  0  0  0
  140.6200  150.7370  136.3740 O   0  0  0  0  0  0  0  0  0  0  0  0
  141.6510  153.6670  137.4210 C   0  0  0  0  0  0  0  0  0  0  0  0
  141.4640  155.0520  137.4280 C   0  0  0  0  0  0  0  0  0  0  0  0
  141.7040  155.9310  136.4310 N   0  0  0  0  0  0  0  0  0  0  0  0
  142.2400  155.6210  135.1370 C   0  0  0  0  0  0  0  0  0  0  0  0
  143.4400  155.9050  134.8770 O   0  0  0  0  0  0  0  0  0  0  0  0
  141.4050  154.9750  134.1120 C   0  0  0  0  0  0  0  0  0  0  0  0
  141.5740  153.7240  133.5600 C   0  0  0  0  0  0  0  0  0  0  0  0
  140.6050  153.5200  132.6470 N   0  0  0  0  0  0  0  0  0  0  0  0
  139.8660  154.5930  132.6220 O   0  0  0  0  0  0  0  0  0  0  0  0
  140.2980  155.4940  133.4740 C   0  0  0  0  0  0  0  0  0  0  0  0
  139.8300  159.4010  137.2140 H   0  0  0  0  0  0  0  0  0  0  0  0
  140.6541  157.8651  138.9246 H   0  0  0  0  0  0  0  0  0  0  0  0
  140.3204  155.5653  140.6024 H   0  0  0  0  0  0  0  0  0  0  0  0
  140.5832  153.0602  140.6367 H   0  0  0  0  0  0  0  0  0  0  0  0
  142.4715  151.1692  138.2325 H   0  0  0  0  0  0  0  0  0  0  0  0
  141.3549  151.0866  139.6427 H   0  0  0  0  0  0  0  0  0  0  0  0
  142.0305  153.1533  136.5254 H   0  0  0  0  0  0  0  0  0  0  0  0
  142.3688  153.0100  133.8216 H   0  0  0  0  0  0  0  0  0  0  0  0
  139.8557  156.4860  133.6479 H   0  0  0  0  0  0  0  0  0  0  0  0
  1  2  1  0
  2  3  2  0
  2  4  1  0
  4  5  2  0
  5  6  1  0
  6  7  2  0
  7  8  1  0
  8  9  2  0
  9 10  1  0
 10 11  1  0
 11 12  2  0
 11 13  1  0
  9 14  1  0
 14 15  2  0
 15 16  1  0
 16 17  1  0
 17 18  2  0
 17 19  1  0
 19 20  1  0
 20 21  2  0
 21 22  1  0
 22 23  1  0
 16  4  1  0
 23 19  2  0
 15  6  1  0
  1 24  1  0
  5 25  1  0
  7 26  1  0
  8 27  1  0
 10 28  1  0
 10 29  1  0
 14 30  1  0
 20 31  1  0
 23 32  1  0
M  CHG  2   1  -1  13  -1
M  END
>  <UniqueID>  (83) 
82

>  <SMILES>  (83) 
[NH-]C(=O)c1cc2ccc(CC(=O)[O-])cc2n1C(=O)c1cnoc1

>  <Energy>  (83) 
102.51197085714222

>  <Genealogy>  (83) 
[NH-]C(=O)c1cc2ccc(CC(=O)[O-])cc2n1C(=O)c1cnoc1 (protonated)
[NH-]C(=O)c1cc2ccc(CC(=O)[O-])cc2n1C(=O)c1cnoc1 (3D coordinates assigned)
[NH-]C(=O)c1cc2ccc(CC(=O)[O-])cc2n1C(=O)c1cnoc1 (optimized conformer: 102.51197085714222 kcal/mol)

>  <smiles>  (83) 
NC(=O)c1cc2ccc(CC(=O)O)cc2n1C(=O)c1cnoc1

>  <score_type>  (83) 
oracle

>  <origin>  (83) 
adg

>  <m_score__min__energy>  (83) 
-7.1500000000000004

>  <m_primary>  (83) 
energy

$$$$
83:0
     RDKit          3D

 42 44  0  0  0  0  0  0  0  0999 V2000
  146.1790  162.8200  134.4990 C   0  0  0  0  0  0  0  0  0  0  0  0
  144.7440  162.5160  134.0880 C   0  0  0  0  0  0  0  0  0  0  0  0
  144.3500  161.2260  134.5540 O   0  0  0  0  0  0  0  0  0  0  0  0
  143.3370  160.4670  133.9570 C   0  0  0  0  0  0  0  0  0  0  0  0
  142.3210  161.0310  133.4680 O   0  0  0  0  0  0  0  0  0  0  0  0
  143.4710  159.0400  133.8760 N   0  0  0  0  0  0  0  0  0  0  0  0
  142.4800  158.1040  133.8970 C   0  0  0  0  0  0  0  0  0  0  0  0
  141.0500  158.3570  134.1700 C   0  0  0  0  0  0  0  0  0  0  0  0
  140.6470  159.3570  135.1020 N   0  0  0  0  0  0  0  0  0  0  0  0
  140.1730  157.6480  133.6090 O   0  0  0  0  0  0  0  0  0  0  0  0
  143.0100  156.8290  133.7070 C   0  0  0  0  0  0  0  0  0  0  0  0
  144.3670  157.0130  133.5770 C   0  0  0  0  0  0  0  0  0  0  0  0
  145.3790  156.0840  133.3600 C   0  0  0  0  0  0  0  0  0  0  0  0
  146.6950  156.5600  133.2380 C   0  0  0  0  0  0  0  0  0  0  0  0
  146.9780  157.9520  133.3260 C   0  0  0  0  0  0  0  0  0  0  0  0
  148.3890  158.4960  133.1850 C   0  0  0  0  0  0  0  0  0  0  0  0
  148.9720  158.4040  131.8070 C   0  0  0  0  0  0  0  0  0  0  0  0
  149.0390  159.8590  131.5720 N   0  0  0  0  0  0  0  0  0  0  0  0
  149.4490  160.7390  130.5280 C   0  0  0  0  0  0  0  0  0  0  0  0
  149.9720  160.1850  129.2440 C   0  0  0  0  0  0  0  0  0  0  0  0
  149.3500  161.9850  130.6860 O   0  0  0  0  0  0  0  0  0  0  0  0
  148.4790  159.9720  132.9320 C   0  0  0  0  0  0  0  0  0  0  0  0
  145.9190  158.8600  133.5460 C   0  0  0  0  0  0  0  0  0  0  0  0
  144.6200  158.3560  133.6830 C   0  0  0  0  0  0  0  0  0  0  0  0
  146.2507  162.8352  135.5966 H   0  0  0  0  0  0  0  0  0  0  0  0
  146.8474  162.0435  134.0986 H   0  0  0  0  0  0  0  0  0  0  0  0
  146.4751  163.8008  134.0986 H   0  0  0  0  0  0  0  0  0  0  0  0
  144.0758  163.2758  134.5196 H   0  0  0  0  0  0  0  0  0  0  0  0
  144.6791  162.5312  132.9900 H   0  0  0  0  0  0  0  0  0  0  0  0
  141.0310  160.3260  135.0480 H   0  0  0  0  0  0  0  0  0  0  0  0
  142.4597  155.8773  133.6690 H   0  0  0  0  0  0  0  0  0  0  0  0
  145.1557  155.0094  133.2862 H   0  0  0  0  0  0  0  0  0  0  0  0
  147.5170  155.8480  133.0724 H   0  0  0  0  0  0  0  0  0  0  0  0
  148.8147  157.9956  134.0673 H   0  0  0  0  0  0  0  0  0  0  0  0
  149.9623  157.9254  131.7954 H   0  0  0  0  0  0  0  0  0  0  0  0
  148.4234  157.8007  131.0687 H   0  0  0  0  0  0  0  0  0  0  0  0
  150.7127  159.4004  129.4579 H   0  0  0  0  0  0  0  0  0  0  0  0
  149.1412  159.7567  128.6641 H   0  0  0  0  0  0  0  0  0  0  0  0
  150.4474  160.9898  128.6641 H   0  0  0  0  0  0  0  0  0  0  0  0
  149.1581  160.4827  133.6306 H   0  0  0  0  0  0  0  0  0  0  0  0
  147.5562  160.5592  133.0485 H   0  0  0  0  0  0  0  0  0  0  0  0
  146.1108  159.9413  133.6085 H   0  0  0  0  0  0  0  0  0  0  0  0
  1  2  1  0
  2  3  1  0
  3  4  1  0
  4  5  2  0
  4  6  1  0
  6  7  1  0
  7  8  1  0
  8  9  1  0
  8 10  2  0
  7 11  2  0
 11 12  1  0
 12 13  2  0
 13 14  1  0
 14 15  2  0
 15 16  1  0
 16 17  1  0
 17 18  1  0
 18 19  1  0
 19 20  1  0
 19 21  2  0
 18 22  1  0
 15 23  1  0
 23 24  2  0
 24  6  1  0
 24 12  1  0
 22 16  1  0
  1 25  1  0
  1 26  1  0
  1 27  1  0
  2 28  1  0
  2 29  1  0
  9 30  1  0
 11 31  1  0
 13 32  1  0
 14 33  1  0
 16 34  1  0
 17 35  1  0
 17 36  1  0
 20 37  1  0
 20 38  1  0
 20 39  1  0
 22 40  1  0
 22 41  1  0
 23 42  1  0
M  CHG  1   9  -1
M  END
>  <UniqueID>  (84) 
83

>  <SMILES>  (84) 
CCOC(=O)n1c(C([NH-])=O)cc2ccc(C3CN(C(C)=O)C3)cc21

>  <Energy>  (84) 
122.90085768093834

>  <Genealogy>  (84) 
CCOC(=O)n1c(C([NH-])=O)cc2ccc(C3CN(C(C)=O)C3)cc21 (protonated)
CCOC(=O)n1c(C([NH-])=O)cc2ccc(C3CN(C(C)=O)C3)cc21 (3D coordinates assigned)
CCOC(=O)n1c(C([NH-])=O)cc2ccc(C3CN(C(C)=O)C3)cc21 (nonaromatic ring conformer: 122.90085768093834 kcal/mol)

>  <smiles>  (84) 
CCOC(=O)n1c(C(N)=O)cc2ccc(C3CN(C(C)=O)C3)cc21

>  <score_type>  (84) 
oracle

>  <origin>  (84) 
adg

>  <m_score__min__energy>  (84) 
-7.4199999999999999

>  <m_primary>  (84) 
energy

$$$$
84:0
     RDKit          3D

 39 41  0  0  0  0  0  0  0  0999 V2000
  148.7780  158.8120  131.8830 C   0  0  0  0  0  0  0  0  0  0  0  0
  148.7370  158.7240  133.4040 C   0  0  0  0  0  0  0  0  0  0  0  0
  147.4250  159.0040  133.8880 O   0  0  0  0  0  0  0  0  0  0  0  0
  146.7350  160.1870  133.6060 C   0  0  0  0  0  0  0  0  0  0  0  0
  147.3640  161.2320  133.2820 O   0  0  0  0  0  0  0  0  0  0  0  0
  145.3000  160.2070  133.6660 N   0  0  0  0  0  0  0  0  0  0  0  0
  144.4930  161.2640  133.9630 C   0  0  0  0  0  0  0  0  0  0  0  0
  144.9240  162.6700  134.1120 C   0  0  0  0  0  0  0  0  0  0  0  0
  146.0150  163.0160  134.9590 N   0  0  0  0  0  0  0  0  0  0  0  0
  144.3500  163.5720  133.4450 O   0  0  0  0  0  0  0  0  0  0  0  0
  143.1630  160.8580  134.0360 C   0  0  0  0  0  0  0  0  0  0  0  0
  143.1770  159.5090  133.7650 C   0  0  0  0  0  0  0  0  0  0  0  0
  142.1310  158.5910  133.7280 C   0  0  0  0  0  0  0  0  0  0  0  0
  142.4430  157.2480  133.4620 C   0  0  0  0  0  0  0  0  0  0  0  0
  143.7840  156.8500  133.2360 C   0  0  0  0  0  0  0  0  0  0  0  0
  144.1130  155.3990  133.0150 C   0  0  0  0  0  0  0  0  0  0  0  0
  145.5570  155.2020  133.0980 N   0  0  0  0  0  0  0  0  0  0  0  0
  146.2390  154.7740  134.1770 C   0  0  0  0  0  0  0  0  0  0  0  0
  147.5890  154.8030  133.8790 C   0  0  0  0  0  0  0  0  0  0  0  0
  147.6590  155.2780  132.5810 C   0  0  0  0  0  0  0  0  0  0  0  0
  146.4110  155.5160  132.1380 N   0  0  0  0  0  0  0  0  0  0  0  0
  144.8210  157.8050  133.2950 C   0  0  0  0  0  0  0  0  0  0  0  0
  144.4790  159.1410  133.5440 C   0  0  0  0  0  0  0  0  0  0  0  0
  149.2250  159.7713  131.5831 H   0  0  0  0  0  0  0  0  0  0  0  0
  149.3834  157.9848  131.4840 H   0  0  0  0  0  0  0  0  0  0  0  0
  147.7552  158.7434  131.4840 H   0  0  0  0  0  0  0  0  0  0  0  0
  149.0284  157.7100  133.7154 H   0  0  0  0  0  0  0  0  0  0  0  0
  149.4345  159.4654  133.8210 H   0  0  0  0  0  0  0  0  0  0  0  0
  147.0010  162.8410  134.6630 H   0  0  0  0  0  0  0  0  0  0  0  0
  142.2867  161.4833  134.2624 H   0  0  0  0  0  0  0  0  0  0  0  0
  141.0921  158.9080  133.9018 H   0  0  0  0  0  0  0  0  0  0  0  0
  141.6390  156.4980  133.4288 H   0  0  0  0  0  0  0  0  0  0  0  0
  143.6164  154.7904  133.7851 H   0  0  0  0  0  0  0  0  0  0  0  0
  143.7612  155.0942  132.0183 H   0  0  0  0  0  0  0  0  0  0  0  0
  145.7975  154.4555  135.1328 H   0  0  0  0  0  0  0  0  0  0  0  0
  148.4253  154.5119  134.5316 H   0  0  0  0  0  0  0  0  0  0  0  0
  148.5833  155.4352  132.0058 H   0  0  0  0  0  0  0  0  0  0  0  0
  146.1500  155.8990  131.2020 H   0  0  0  0  0  0  0  0  0  0  0  0
  145.8703  157.5086  133.1494 H   0  0  0  0  0  0  0  0  0  0  0  0
  1  2  1  0
  2  3  1  0
  3  4  1  0
  4  5  2  0
  4  6  1  0
  6  7  1  0
  7  8  1  0
  8  9  1  0
  8 10  2  0
  7 11  2  0
 11 12  1  0
 12 13  2  0
 13 14  1  0
 14 15  2  0
 15 16  1  0
 16 17  1  0
 17 18  1  0
 18 19  2  0
 19 20  1  0
 20 21  2  0
 15 22  1  0
 22 23  2  0
 23  6  1  0
 23 12  1  0
 21 17  1  0
  1 24  1  0
  1 25  1  0
  1 26  1  0
  2 27  1  0
  2 28  1  0
  9 29  1  0
 11 30  1  0
 13 31  1  0
 14 32  1  0
 16 33  1  0
 16 34  1  0
 18 35  1  0
 19 36  1  0
 20 37  1  0
 21 38  1  0
 22 39  1  0
M  CHG  2   9  -1  21   1
M  END
>  <UniqueID>  (85) 
84

>  <SMILES>  (85) 
CCOC(=O)n1c(C([NH-])=O)cc2ccc(Cn3ccc[nH+]3)cc21

>  <Energy>  (85) 
104.24861865880047

>  <Genealogy>  (85) 
CCOC(=O)n1c(C([NH-])=O)cc2ccc(Cn3ccc[nH+]3)cc21 (protonated)
CCOC(=O)n1c(C([NH-])=O)cc2ccc(Cn3ccc[nH+]3)cc21 (3D coordinates assigned)
CCOC(=O)n1c(C([NH-])=O)cc2ccc(Cn3ccc[nH+]3)cc21 (optimized conformer: 104.24861865880047 kcal/mol)

>  <smiles>  (85) 
CCOC(=O)n1c(C(N)=O)cc2ccc(Cn3cccn3)cc21

>  <score_type>  (85) 
oracle

>  <origin>  (85) 
adg

>  <m_score__min__energy>  (85) 
-6.9800000000000004

>  <m_primary>  (85) 
energy

$$$$
85:0
     RDKit          3D

 52 54  0  0  0  0  0  0  0  0999 V2000
  144.1600  160.5820  133.7410 C   0  0  0  0  0  0  0  0  0  0  0  0
  145.1510  160.0100  132.8980 O   0  0  0  0  0  0  0  0  0  0  0  0
  146.5210  160.1090  133.1660 C   0  0  0  0  0  0  0  0  0  0  0  0
  146.9980  161.1640  133.6640 O   0  0  0  0  0  0  0  0  0  0  0  0
  147.3800  158.9910  132.8940 N   0  0  0  0  0  0  0  0  0  0  0  0
  148.5690  158.9860  132.2270 C   0  0  0  0  0  0  0  0  0  0  0  0
  149.1750  160.1330  131.5190 C   0  0  0  0  0  0  0  0  0  0  0  0
  148.4030  161.2850  131.1880 N   0  0  0  0  0  0  0  0  0  0  0  0
  150.3810  160.0750  131.1570 O   0  0  0  0  0  0  0  0  0  0  0  0
  149.1180  157.7050  132.2190 C   0  0  0  0  0  0  0  0  0  0  0  0
  148.2170  156.9170  132.8960 C   0  0  0  0  0  0  0  0  0  0  0  0
  148.2500  155.5530  133.1740 C   0  0  0  0  0  0  0  0  0  0  0  0
  147.1780  155.0020  133.9000 C   0  0  0  0  0  0  0  0  0  0  0  0
  146.1150  155.8230  134.3490 C   0  0  0  0  0  0  0  0  0  0  0  0
  144.9580  155.2190  135.1030 C   0  0  0  0  0  0  0  0  0  0  0  0
  143.8800  154.6700  134.1560 C   0  0  0  0  0  0  0  0  0  0  0  0
  142.6090  155.5330  134.1520 C   0  0  0  0  0  0  0  0  0  0  0  0
  142.7340  156.7230  135.1150 C   0  0  0  0  0  0  0  0  0  0  0  0
  141.9540  157.8930  134.6460 N   0  0  0  0  0  0  0  0  0  0  0  0
  140.6110  157.5110  134.1260 C   0  0  0  0  0  0  0  0  0  0  0  0
  139.4390  157.8790  135.0610 C   0  0  0  0  0  0  0  0  0  0  0  0
  139.8400  157.7470  136.5290 C   0  0  0  0  0  0  0  0  0  0  0  0
  141.0460  158.6430  136.8700 C   0  0  2  0  0  0  0  0  0  0  0  0
  140.6050  159.8110  137.4670 F   0  0  0  0  0  0  0  0  0  0  0  0
  141.8860  159.0010  135.6260 C   0  0  0  0  0  0  0  0  0  0  0  0
  146.1170  157.2030  134.0480 C   0  0  0  0  0  0  0  0  0  0  0  0
  147.1790  157.7180  133.2970 C   0  0  0  0  0  0  0  0  0  0  0  0
  144.4371  160.4221  134.7934 H   0  0  0  0  0  0  0  0  0  0  0  0
  144.0869  161.6612  133.5410 H   0  0  0  0  0  0  0  0  0  0  0  0
  143.1890  160.1055  133.5410 H   0  0  0  0  0  0  0  0  0  0  0  0
  148.0470  161.9250  131.9320 H   0  0  0  0  0  0  0  0  0  0  0  0
  150.0703  157.3908  131.7669 H   0  0  0  0  0  0  0  0  0  0  0  0
  149.0882  154.9256  132.8365 H   0  0  0  0  0  0  0  0  0  0  0  0
  147.1655  153.9244  134.1207 H   0  0  0  0  0  0  0  0  0  0  0  0
  145.3328  154.3965  135.7299 H   0  0  0  0  0  0  0  0  0  0  0  0
  144.5016  156.0096  135.7167 H   0  0  0  0  0  0  0  0  0  0  0  0
  144.2891  154.6389  133.1354 H   0  0  0  0  0  0  0  0  0  0  0  0
  143.6025  153.6661  134.5099 H   0  0  0  0  0  0  0  0  0  0  0  0
  142.4383  155.9133  133.1340 H   0  0  0  0  0  0  0  0  0  0  0  0
  141.7663  154.9081  134.4828 H   0  0  0  0  0  0  0  0  0  0  0  0
  142.3623  156.4207  136.1052 H   0  0  0  0  0  0  0  0  0  0  0  0
  143.7935  157.0147  135.1634 H   0  0  0  0  0  0  0  0  0  0  0  0
  140.4567  158.0205  133.1634 H   0  0  0  0  0  0  0  0  0  0  0  0
  140.6088  156.4148  134.0350 H   0  0  0  0  0  0  0  0  0  0  0  0
  139.1357  158.9179  134.8641 H   0  0  0  0  0  0  0  0  0  0  0  0
  138.6065  157.1875  134.8642 H   0  0  0  0  0  0  0  0  0  0  0  0
  138.9878  158.0402  137.1597 H   0  0  0  0  0  0  0  0  0  0  0  0
  140.1248  156.7010  136.7153 H   0  0  0  0  0  0  0  0  0  0  0  0
  141.6884  158.0729  137.5573 H   0  0  0  0  0  0  0  0  0  0  0  0
  141.4350  159.8769  135.1366 H   0  0  0  0  0  0  0  0  0  0  0  0
  142.9115  159.2088  135.9653 H   0  0  0  0  0  0  0  0  0  0  0  0
  145.3035  157.8567  134.3956 H   0  0  0  0  0  0  0  0  0  0  0  0
  1  2  1  0
  2  3  1  0
  3  4  2  0
  3  5  1  0
  5  6  1  0
  6  7  1  0
  7  8  1  0
  7  9  2  0
  6 10  2  0
 10 11  1  0
 11 12  2  0
 12 13  1  0
 13 14  2  0
 14 15  1  0
 15 16  1  0
 16 17  1  0
 17 18  1  0
 18 19  1  0
 19 20  1  0
 20 21  1  0
 21 22  1  0
 22 23  1  0
 23 24  1  0
 23 25  1  0
 14 26  1  0
 26 27  2  0
 27  5  1  0
 27 11  1  0
 25 19  1  0
  1 28  1  0
  1 29  1  0
  1 30  1  0
  8 31  1  0
 10 32  1  0
 12 33  1  0
 13 34  1  0
 15 35  1  0
 15 36  1  0
 16 37  1  0
 16 38  1  0
 17 39  1  0
 17 40  1  0
 18 41  1  0
 18 42  1  0
 20 43  1  0
 20 44  1  0
 21 45  1  0
 21 46  1  0
 22 47  1  0
 22 48  1  0
 23 49  1  1
 25 50  1  0
 25 51  1  0
 26 52  1  0
M  CHG  1   8  -1
M  END
>  <UniqueID>  (86) 
85

>  <SMILES>  (86) 
COC(=O)n1c(C([NH-])=O)cc2ccc(CCCCN3CCC[C@H](F)C3)cc21

>  <Energy>  (86) 
93.45192725103689

>  <Genealogy>  (86) 
COC(=O)n1c(C([NH-])=O)cc2ccc(CCCCN3CCCC(F)C3)cc21 (protonated)
COC(=O)n1c(C([NH-])=O)cc2ccc(CCCCN3CCC[C@H](F)C3)cc21 (chirality)
COC(=O)n1c(C([NH-])=O)cc2ccc(CCCCN3CCC[C@H](F)C3)cc21 (3D coordinates assigned)
COC(=O)n1c(C([NH-])=O)cc2ccc(CCCCN3CCC[C@H](F)C3)cc21 (nonaromatic ring conformer: 93.45192725103689 kcal/mol)

>  <smiles>  (86) 
COC(=O)n1c(C(N)=O)cc2ccc(CCCCN3CCCC(F)C3)cc21

>  <score_type>  (86) 
oracle

>  <origin>  (86) 
adg

>  <m_score__min__energy>  (86) 
-7.71

>  <m_primary>  (86) 
energy

$$$$
86:0
     RDKit          3D

 42 43  0  0  0  0  0  0  0  0999 V2000
  149.7100  160.0510  130.6550 C   0  0  0  0  0  0  0  0  0  0  0  0
  149.7640  159.0470  131.8010 C   0  0  0  0  0  0  0  0  0  0  0  0
  148.7190  159.2970  132.7390 O   0  0  0  0  0  0  0  0  0  0  0  0
  147.3590  159.2510  132.4090 C   0  0  0  0  0  0  0  0  0  0  0  0
  146.8620  160.1110  131.6310 O   0  0  0  0  0  0  0  0  0  0  0  0
  146.5220  158.2360  132.9830 N   0  0  0  0  0  0  0  0  0  0  0  0
  145.2920  158.3870  133.5500 C   0  0  0  0  0  0  0  0  0  0  0  0
  144.4810  159.6230  133.5530 C   0  0  0  0  0  0  0  0  0  0  0  0
  145.0900  160.8990  133.7310 N   0  0  0  0  0  0  0  0  0  0  0  0
  143.2400  159.5540  133.3500 O   0  0  0  0  0  0  0  0  0  0  0  0
  144.8400  157.1740  134.0670 C   0  0  0  0  0  0  0  0  0  0  0  0
  145.8360  156.2650  133.7880 C   0  0  0  0  0  0  0  0  0  0  0  0
  145.9130  154.9060  134.0770 C   0  0  0  0  0  0  0  0  0  0  0  0
  147.0730  154.2160  133.6880 C   0  0  0  0  0  0  0  0  0  0  0  0
  148.1330  154.8940  133.0350 C   0  0  0  0  0  0  0  0  0  0  0  0
  149.3610  154.1390  132.5970 C   0  0  0  0  0  0  0  0  0  0  0  0
  149.0210  152.6910  132.2200 C   0  0  0  0  0  0  0  0  0  0  0  0
  150.0620  151.7500  132.6930 N   0  0  0  0  0  0  0  0  0  0  0  0
  150.3560  150.7280  131.6740 C   0  0  0  0  0  0  0  0  0  0  0  0
  149.6260  151.0910  133.9360 C   0  0  0  0  0  0  0  0  0  0  0  0
  148.0140  156.2730  132.7520 C   0  0  0  0  0  0  0  0  0  0  0  0
  146.8400  156.9310  133.1350 C   0  0  0  0  0  0  0  0  0  0  0  0
  149.6551  161.0709  131.0633 H   0  0  0  0  0  0  0  0  0  0  0  0
  150.6148  159.9515  130.0374 H   0  0  0  0  0  0  0  0  0  0  0  0
  148.8211  159.8550  130.0374 H   0  0  0  0  0  0  0  0  0  0  0  0
  149.6506  158.0305  131.3963 H   0  0  0  0  0  0  0  0  0  0  0  0
  150.7318  159.1473  132.3142 H   0  0  0  0  0  0  0  0  0  0  0  0
  145.7030  161.3100  132.9930 H   0  0  0  0  0  0  0  0  0  0  0  0
  143.8897  156.9834  134.5872 H   0  0  0  0  0  0  0  0  0  0  0  0
  145.0914  154.3884  134.5938 H   0  0  0  0  0  0  0  0  0  0  0  0
  147.1598  153.1386  133.8921 H   0  0  0  0  0  0  0  0  0  0  0  0
  149.7988  154.6434  131.7230 H   0  0  0  0  0  0  0  0  0  0  0  0
  150.0743  154.1212  133.4342 H   0  0  0  0  0  0  0  0  0  0  0  0
  148.0583  152.4189  132.6774 H   0  0  0  0  0  0  0  0  0  0  0  0
  148.9658  152.6230  131.1235 H   0  0  0  0  0  0  0  0  0  0  0  0
  150.6276  149.7840  132.1691 H   0  0  0  0  0  0  0  0  0  0  0  0
  149.4669  150.5700  131.0459 H   0  0  0  0  0  0  0  0  0  0  0  0
  151.1932  151.0666  131.0459 H   0  0  0  0  0  0  0  0  0  0  0  0
  150.0004  151.6569  134.8018 H   0  0  0  0  0  0  0  0  0  0  0  0
  148.5270  151.0576  133.9673 H   0  0  0  0  0  0  0  0  0  0  0  0
  150.0251  150.0664  133.9673 H   0  0  0  0  0  0  0  0  0  0  0  0
  148.8242  156.8159  132.2432 H   0  0  0  0  0  0  0  0  0  0  0  0
  1  2  1  0
  2  3  1  0
  3  4  1  0
  4  5  2  0
  4  6  1  0
  6  7  1  0
  7  8  1  0
  8  9  1  0
  8 10  2  0
  7 11  2  0
 11 12  1  0
 12 13  2  0
 13 14  1  0
 14 15  2  0
 15 16  1  0
 16 17  1  0
 17 18  1  0
 18 19  1  0
 18 20  1  0
 15 21  1  0
 21 22  2  0
 22  6  1  0
 22 12  1  0
  1 23  1  0
  1 24  1  0
  1 25  1  0
  2 26  1  0
  2 27  1  0
  9 28  1  0
 11 29  1  0
 13 30  1  0
 14 31  1  0
 16 32  1  0
 16 33  1  0
 17 34  1  0
 17 35  1  0
 19 36  1  0
 19 37  1  0
 19 38  1  0
 20 39  1  0
 20 40  1  0
 20 41  1  0
 21 42  1  0
M  CHG  1   9  -1
M  END
>  <UniqueID>  (87) 
86

>  <SMILES>  (87) 
CCOC(=O)n1c(C([NH-])=O)cc2ccc(CCN(C)C)cc21

>  <Energy>  (87) 
74.69774479371254

>  <Genealogy>  (87) 
CCOC(=O)n1c(C([NH-])=O)cc2ccc(CCN(C)C)cc21 (protonated)
CCOC(=O)n1c(C([NH-])=O)cc2ccc(CCN(C)C)cc21 (3D coordinates assigned)
CCOC(=O)n1c(C([NH-])=O)cc2ccc(CCN(C)C)cc21 (optimized conformer: 74.69774479371254 kcal/mol)

>  <smiles>  (87) 
CCOC(=O)n1c(C(N)=O)cc2ccc(CCN(C)C)cc21

>  <score_type>  (87) 
oracle

>  <origin>  (87) 
adg

>  <m_score__min__energy>  (87) 
-6.6500000000000004

>  <m_primary>  (87) 
energy

$$$$
87:0
     RDKit          3D

 48 50  0  0  0  0  0  0  0  0999 V2000
  142.3710  156.5780  133.2520 C   0  0  0  0  0  0  0  0  0  0  0  0
  143.2540  157.4910  132.8520 C   0  0  0  0  0  0  0  0  0  0  0  0
  143.8570  158.4700  133.7770 C   0  0  0  0  0  0  0  0  0  0  0  0
  143.2230  158.8620  134.7940 O   0  0  0  0  0  0  0  0  0  0  0  0
  145.1940  158.9440  133.5510 N   0  0  0  0  0  0  0  0  0  0  0  0
  145.6570  160.2240  133.6270 C   0  0  0  0  0  0  0  0  0  0  0  0
  144.8910  161.3940  134.1030 C   0  0  0  0  0  0  0  0  0  0  0  0
  143.5260  161.5510  133.7250 N   0  0  0  0  0  0  0  0  0  0  0  0
  145.4410  162.2760  134.8140 O   0  0  0  0  0  0  0  0  0  0  0  0
  147.0040  160.2760  133.2710 C   0  0  0  0  0  0  0  0  0  0  0  0
  147.3550  158.9770  132.9800 C   0  0  0  0  0  0  0  0  0  0  0  0
  148.5740  158.4490  132.5670 C   0  0  0  0  0  0  0  0  0  0  0  0
  148.6440  157.0670  132.3230 C   0  0  0  0  0  0  0  0  0  0  0  0
  147.5020  156.2410  132.4870 C   0  0  0  0  0  0  0  0  0  0  0  0
  147.5920  154.8220  132.2330 N   0  0  0  0  0  0  0  0  0  0  0  0
  148.2250  154.1100  133.3710 C   0  0  1  0  0  0  0  0  0  0  0  0
  147.3470  154.2060  134.6350 C   0  0  0  0  0  0  0  0  0  0  0  0
  148.5550  152.6170  133.0470 C   0  0  0  0  0  0  0  0  0  0  0  0
  149.3690  152.4130  131.7480 C   0  0  0  0  0  0  0  0  0  0  0  0
  150.0030  151.0100  131.6990 C   0  0  0  0  0  0  0  0  0  0  0  0
  149.2780  150.0980  132.5010 O   0  0  0  0  0  0  0  0  0  0  0  0
  149.4670  150.3970  133.8770 C   0  0  0  0  0  0  0  0  0  0  0  0
  149.2410  151.8890  134.2190 C   0  0  0  0  0  0  0  0  0  0  0  0
  146.2800  156.8180  132.9100 C   0  0  0  0  0  0  0  0  0  0  0  0
  146.2450  158.1940  133.1590 C   0  0  0  0  0  0  0  0  0  0  0  0
  141.9473  155.8678  132.5267 H   0  0  0  0  0  0  0  0  0  0  0  0
  142.0653  156.5340  134.3077 H   0  0  0  0  0  0  0  0  0  0  0  0
  143.5451  157.5164  131.7915 H   0  0  0  0  0  0  0  0  0  0  0  0
  142.8290  160.7970  133.9090 H   0  0  0  0  0  0  0  0  0  0  0  0
  147.6493  161.1660  133.2311 H   0  0  0  0  0  0  0  0  0  0  0  0
  149.4557  159.0934  132.4355 H   0  0  0  0  0  0  0  0  0  0  0  0
  149.5960  156.6199  132.0008 H   0  0  0  0  0  0  0  0  0  0  0  0
  146.6360  154.4380  132.0470 H   0  0  0  0  0  0  0  0  0  0  0  0
  148.1430  154.6930  131.3560 H   0  0  0  0  0  0  0  0  0  0  0  0
  149.1839  154.6149  133.5596 H   0  0  0  0  0  0  0  0  0  0  0  0
  147.9833  154.1364  135.5296 H   0  0  0  0  0  0  0  0  0  0  0  0
  146.8133  155.1678  134.6385 H   0  0  0  0  0  0  0  0  0  0  0  0
  146.6181  153.3822  134.6385 H   0  0  0  0  0  0  0  0  0  0  0  0
  147.5676  152.1615  132.8809 H   0  0  0  0  0  0  0  0  0  0  0  0
  148.7001  152.5343  130.8832 H   0  0  0  0  0  0  0  0  0  0  0  0
  150.1763  153.1597  131.7234 H   0  0  0  0  0  0  0  0  0  0  0  0
  150.0045  150.6520  130.6589 H   0  0  0  0  0  0  0  0  0  0  0  0
  151.0309  151.0761  132.0852 H   0  0  0  0  0  0  0  0  0  0  0  0
  148.7599  149.7936  134.4651 H   0  0  0  0  0  0  0  0  0  0  0  0
  150.5144  150.1638  134.1188 H   0  0  0  0  0  0  0  0  0  0  0  0
  148.6038  151.9624  135.1126 H   0  0  0  0  0  0  0  0  0  0  0  0
  150.2166  152.3611  134.4070 H   0  0  0  0  0  0  0  0  0  0  0  0
  145.3799  156.1991  133.0397 H   0  0  0  0  0  0  0  0  0  0  0  0
  1  2  2  0
  2  3  1  0
  3  4  2  0
  3  5  1  0
  5  6  1  0
  6  7  1  0
  7  8  1  0
  7  9  2  0
  6 10  2  0
 10 11  1  0
 11 12  2  0
 12 13  1  0
 13 14  2  0
 14 15  1  0
 15 16  1  0
 16 17  1  0
 16 18  1  0
 18 19  1  0
 19 20  1  0
 20 21  1  0
 21 22  1  0
 22 23  1  0
 14 24  1  0
 24 25  2  0
 25  5  1  0
 25 11  1  0
 23 18  1  0
  1 26  1  0
  1 27  1  0
  2 28  1  0
  8 29  1  0
 10 30  1  0
 12 31  1  0
 13 32  1  0
 15 33  1  0
 15 34  1  0
 16 35  1  1
 17 36  1  0
 17 37  1  0
 17 38  1  0
 18 39  1  0
 19 40  1  0
 19 41  1  0
 20 42  1  0
 20 43  1  0
 22 44  1  0
 22 45  1  0
 23 46  1  0
 23 47  1  0
 24 48  1  0
M  CHG  2   8  -1  15   1
M  END
>  <UniqueID>  (88) 
87

>  <SMILES>  (88) 
C=CC(=O)n1c(C([NH-])=O)cc2ccc([NH2+][C@@H](C)C3CCOCC3)cc21

>  <Energy>  (88) 
96.13137916974803

>  <Genealogy>  (88) 
C=CC(=O)n1c(C([NH-])=O)cc2ccc([NH2+]C(C)C3CCOCC3)cc21 (protonated)
C=CC(=O)n1c(C([NH-])=O)cc2ccc([NH2+][C@@H](C)C3CCOCC3)cc21 (chirality)
C=CC(=O)n1c(C([NH-])=O)cc2ccc([NH2+][C@@H](C)C3CCOCC3)cc21 (3D coordinates assigned)
C=CC(=O)n1c(C([NH-])=O)cc2ccc([NH2+][C@@H](C)C3CCOCC3)cc21 (nonaromatic ring conformer: 96.13137916974803 kcal/mol)

>  <smiles>  (88) 
C=CC(=O)n1c(C(N)=O)cc2ccc(NC(C)C3CCOCC3)cc21

>  <score_type>  (88) 
oracle

>  <origin>  (88) 
adg

>  <m_score__min__energy>  (88) 
-8.7400000000000002

>  <m_primary>  (88) 
energy

$$$$
88:0
     RDKit          3D

 57 59  0  0  0  0  0  0  0  0999 V2000
  142.3530  155.5990  136.5230 C   0  0  0  0  0  0  0  0  0  0  0  0
  143.1670  155.6570  135.2340 C   0  0  0  0  0  0  0  0  0  0  0  0
  142.4270  156.4530  134.1930 C   0  0  0  0  0  0  0  0  0  0  0  0
  141.6840  155.8740  133.3510 O   0  0  0  0  0  0  0  0  0  0  0  0
  142.5940  157.8790  134.1280 N   0  0  0  0  0  0  0  0  0  0  0  0
  141.6620  158.8230  134.4260 C   0  0  0  0  0  0  0  0  0  0  0  0
  140.2840  158.5310  134.8580 C   0  0  0  0  0  0  0  0  0  0  0  0
  139.4350  157.7260  134.0500 N   0  0  0  0  0  0  0  0  0  0  0  0
  139.8700  158.9610  135.9640 O   0  0  0  0  0  0  0  0  0  0  0  0
  142.2210  160.0950  134.3750 C   0  0  0  0  0  0  0  0  0  0  0  0
  143.5440  159.8970  134.0360 C   0  0  0  0  0  0  0  0  0  0  0  0
  144.5720  160.8160  133.8480 C   0  0  0  0  0  0  0  0  0  0  0  0
  145.8480  160.3160  133.5480 C   0  0  0  0  0  0  0  0  0  0  0  0
  146.0830  158.9150  133.4670 C   0  0  0  0  0  0  0  0  0  0  0  0
  147.4200  158.4130  133.2850 N   0  0  0  0  0  0  0  0  0  0  0  0
  147.7390  157.0400  133.7170 C   0  0  0  0  0  0  0  0  0  0  0  0
  148.4680  156.2520  132.6110 C   0  0  0  0  0  0  0  0  0  0  0  0
  147.7320  155.0180  132.2360 N   0  0  0  0  0  0  0  0  0  0  0  0
  148.3220  153.8320  132.8890 C   0  0  0  0  0  0  0  0  0  0  0  0
  146.3070  155.1390  132.6040 C   0  0  0  0  0  0  0  0  0  0  0  0
  148.5060  159.3140  132.8490 C   0  0  0  0  0  0  0  0  0  0  0  0
  148.6030  159.4860  131.3140 C   0  0  0  0  0  0  0  0  0  0  0  0
  148.1450  160.8260  130.7330 C   0  0  0  0  0  0  0  0  0  0  0  0
  149.5560  161.0720  130.2040 C   0  0  0  0  0  0  0  0  0  0  0  0
  150.0080  159.7280  130.7580 C   0  0  0  0  0  0  0  0  0  0  0  0
  145.0080  158.0160  133.6410 C   0  0  0  0  0  0  0  0  0  0  0  0
  143.7440  158.5460  133.9150 C   0  0  0  0  0  0  0  0  0  0  0  0
  143.0314  155.6473  137.3875 H   0  0  0  0  0  0  0  0  0  0  0  0
  141.6565  156.4498  136.5554 H   0  0  0  0  0  0  0  0  0  0  0  0
  141.7842  154.6580  136.5554 H   0  0  0  0  0  0  0  0  0  0  0  0
  144.1367  156.1351  135.4368 H   0  0  0  0  0  0  0  0  0  0  0  0
  143.3258  154.6344  134.8610 H   0  0  0  0  0  0  0  0  0  0  0  0
  139.7550  156.8130  133.6550 H   0  0  0  0  0  0  0  0  0  0  0  0
  141.7166  161.0540  134.5644 H   0  0  0  0  0  0  0  0  0  0  0  0
  144.3903  161.8976  133.9318 H   0  0  0  0  0  0  0  0  0  0  0  0
  146.6779  161.0164  133.3731 H   0  0  0  0  0  0  0  0  0  0  0  0
  148.3843  157.0865  134.6066 H   0  0  0  0  0  0  0  0  0  0  0  0
  146.7950  156.5224  133.9430 H   0  0  0  0  0  0  0  0  0  0  0  0
  148.5648  156.8928  131.7221 H   0  0  0  0  0  0  0  0  0  0  0  0
  149.4555  155.9573  132.9956 H   0  0  0  0  0  0  0  0  0  0  0  0
  147.7740  154.8740  131.1960 H   0  0  0  0  0  0  0  0  0  0  0  0
  148.2642  153.9481  133.9813 H   0  0  0  0  0  0  0  0  0  0  0  0
  147.7665  152.9322  132.5860 H   0  0  0  0  0  0  0  0  0  0  0  0
  149.3747  153.7323  132.5860 H   0  0  0  0  0  0  0  0  0  0  0  0
  146.2107  155.1472  133.6998 H   0  0  0  0  0  0  0  0  0  0  0  0
  145.9004  156.0749  132.1932 H   0  0  0  0  0  0  0  0  0  0  0  0
  145.7484  154.2851  132.1932 H   0  0  0  0  0  0  0  0  0  0  0  0
  148.3356  160.3037  133.2979 H   0  0  0  0  0  0  0  0  0  0  0  0
  149.4506  158.8565  133.1783 H   0  0  0  0  0  0  0  0  0  0  0  0
  148.0496  158.5682  131.0663 H   0  0  0  0  0  0  0  0  0  0  0  0
  147.3792  160.7380  129.9482 H   0  0  0  0  0  0  0  0  0  0  0  0
  147.6499  161.5720  131.3720 H   0  0  0  0  0  0  0  0  0  0  0  0
  149.6165  161.1478  129.1083 H   0  0  0  0  0  0  0  0  0  0  0  0
  150.0958  161.9918  130.4735 H   0  0  0  0  0  0  0  0  0  0  0  0
  150.3170  159.0057  129.9881 H   0  0  0  0  0  0  0  0  0  0  0  0
  150.8865  159.6640  131.4168 H   0  0  0  0  0  0  0  0  0  0  0  0
  145.1610  156.9295  133.5631 H   0  0  0  0  0  0  0  0  0  0  0  0
  1  2  1  0
  2  3  1  0
  3  4  2  0
  3  5  1  0
  5  6  1  0
  6  7  1  0
  7  8  1  0
  7  9  2  0
  6 10  2  0
 10 11  1  0
 11 12  2  0
 12 13  1  0
 13 14  2  0
 14 15  1  0
 15 16  1  0
 16 17  1  0
 17 18  1  0
 18 19  1  0
 18 20  1  0
 15 21  1  0
 21 22  1  0
 22 23  1  0
 23 24  1  0
 24 25  1  0
 14 26  1  0
 26 27  2  0
 27  5  1  0
 27 11  1  0
 25 22  1  0
  1 28  1  0
  1 29  1  0
  1 30  1  0
  2 31  1  0
  2 32  1  0
  8 33  1  0
 10 34  1  0
 12 35  1  0
 13 36  1  0
 16 37  1  0
 16 38  1  0
 17 39  1  0
 17 40  1  0
 18 41  1  0
 19 42  1  0
 19 43  1  0
 19 44  1  0
 20 45  1  0
 20 46  1  0
 20 47  1  0
 21 48  1  0
 21 49  1  0
 22 50  1  0
 23 51  1  0
 23 52  1  0
 24 53  1  0
 24 54  1  0
 25 55  1  0
 25 56  1  0
 26 57  1  0
M  CHG  2   8  -1  18   1
M  END
>  <UniqueID>  (89) 
88

>  <SMILES>  (89) 
CCC(=O)n1c(C([NH-])=O)cc2ccc(N(CC[NH+](C)C)CC3CCC3)cc21

>  <Energy>  (89) 
163.14278192344847

>  <Genealogy>  (89) 
CCC(=O)n1c(C([NH-])=O)cc2ccc(N(CC[NH+](C)C)CC3CCC3)cc21 (protonated)
CCC(=O)n1c(C([NH-])=O)cc2ccc(N(CC[NH+](C)C)CC3CCC3)cc21 (3D coordinates assigned)
CCC(=O)n1c(C([NH-])=O)cc2ccc(N(CC[NH+](C)C)CC3CCC3)cc21 (nonaromatic ring conformer: 163.14278192344847 kcal/mol)

>  <smiles>  (89) 
CCC(=O)n1c(C(N)=O)cc2ccc(N(CCN(C)C)CC3CCC3)cc21

>  <score_type>  (89) 
oracle

>  <origin>  (89) 
adg

>  <m_score__min__energy>  (89) 
-8.5800000000000001

>  <m_primary>  (89) 
energy

$$$$
89:0
     RDKit          3D

 37 39  0  0  0  0  0  0  0  0999 V2000
  140.8990  156.6160  133.7090 C   0  0  0  0  0  0  0  0  0  0  0  0
  141.6960  157.1950  134.8840 C   0  0  2  0  0  0  0  0  0  0  0  0
  140.8050  157.9000  135.8710 C   0  0  0  0  0  0  0  0  0  0  0  0
  141.2920  158.5250  136.8520 O   0  0  0  0  0  0  0  0  0  0  0  0
  139.4250  157.8200  135.7310 O   0  0  0  0  0  0  0  0  0  0  0  0
  142.7950  158.1180  134.4010 C   0  0  0  0  0  0  0  0  0  0  0  0
  142.5130  159.4870  134.1560 C   0  0  0  0  0  0  0  0  0  0  0  0
  143.5220  160.3640  133.7230 C   0  0  0  0  0  0  0  0  0  0  0  0
  144.7990  159.8470  133.5360 C   0  0  0  0  0  0  0  0  0  0  0  0
  145.9610  160.4770  133.1490 C   0  0  0  0  0  0  0  0  0  0  0  0
  146.9360  159.4800  133.1410 C   0  0  0  0  0  0  0  0  0  0  0  0
  148.3390  159.6930  132.7160 C   0  0  0  0  0  0  0  0  0  0  0  0
  149.4110  158.9890  133.3480 N   0  0  0  0  0  0  0  0  0  0  0  0
  148.6040  160.5170  131.8020 O   0  0  0  0  0  0  0  0  0  0  0  0
  146.3960  158.2830  133.5050 N   0  0  0  0  0  0  0  0  0  0  0  0
  147.0830  157.0300  133.6590 C   0  0  0  0  0  0  0  0  0  0  0  0
  147.7540  156.8150  134.7060 O   0  0  0  0  0  0  0  0  0  0  0  0
  147.0050  155.9910  132.5680 C   0  0  0  0  0  0  0  0  0  0  0  0
  146.5710  154.6110  133.0380 C   0  0  0  0  0  0  0  0  0  0  0  0
  148.0150  154.8520  132.6260 C   0  0  0  0  0  0  0  0  0  0  0  0
  145.0900  158.5250  133.7480 C   0  0  0  0  0  0  0  0  0  0  0  0
  144.1110  157.6350  134.2020 C   0  0  0  0  0  0  0  0  0  0  0  0
  140.0654  156.0104  134.0943 H   0  0  0  0  0  0  0  0  0  0  0  0
  140.5020  157.4377  133.0949 H   0  0  0  0  0  0  0  0  0  0  0  0
  141.5578  155.9845  133.0949 H   0  0  0  0  0  0  0  0  0  0  0  0
  142.1638  156.3463  135.4044 H   0  0  0  0  0  0  0  0  0  0  0  0
  141.4916  159.8665  134.3070 H   0  0  0  0  0  0  0  0  0  0  0  0
  143.3081  161.4270  133.5377 H   0  0  0  0  0  0  0  0  0  0  0  0
  146.0921  161.5403  132.8994 H   0  0  0  0  0  0  0  0  0  0  0  0
  150.3980  159.1770  133.0640 H   0  0  0  0  0  0  0  0  0  0  0  0
  149.2320  158.2510  134.0630 H   0  0  0  0  0  0  0  0  0  0  0  0
  146.6911  156.6975  131.7855 H   0  0  0  0  0  0  0  0  0  0  0  0
  146.3219  154.4439  134.0963 H   0  0  0  0  0  0  0  0  0  0  0  0
  145.7863  153.8998  132.7405 H   0  0  0  0  0  0  0  0  0  0  0  0
  148.8100  154.8599  133.3862 H   0  0  0  0  0  0  0  0  0  0  0  0
  148.7069  154.3883  131.9075 H   0  0  0  0  0  0  0  0  0  0  0  0
  144.3584  156.5817  134.4003 H   0  0  0  0  0  0  0  0  0  0  0  0
  1  2  1  0
  2  3  1  0
  3  4  2  0
  3  5  1  0
  2  6  1  0
  6  7  2  0
  7  8  1  0
  8  9  2  0
  9 10  1  0
 10 11  2  0
 11 12  1  0
 12 13  1  0
 12 14  2  0
 11 15  1  0
 15 16  1  0
 16 17  2  0
 16 18  1  0
 18 19  1  0
 19 20  1  0
 15 21  1  0
 21 22  2  0
 22  6  1  0
 21  9  1  0
 20 18  1  0
  1 23  1  0
  1 24  1  0
  1 25  1  0
  2 26  1  1
  7 27  1  0
  8 28  1  0
 10 29  1  0
 13 30  1  0
 13 31  1  0
 18 32  1  0
 19 33  1  0
 19 34  1  0
 20 35  1  0
 20 36  1  0
 22 37  1  0
M  CHG  1   5  -1
M  END
>  <UniqueID>  (90) 
89

>  <SMILES>  (90) 
C[C@H](C(=O)[O-])c1ccc2cc(C(N)=O)n(C(=O)C3CC3)c2c1

>  <Energy>  (90) 
340.24389749201157

>  <Genealogy>  (90) 
CC(C(=O)[O-])c1ccc2cc(C(N)=O)n(C(=O)C3CC3)c2c1 (protonated)
C[C@H](C(=O)[O-])c1ccc2cc(C(N)=O)n(C(=O)C3CC3)c2c1 (chirality)
C[C@H](C(=O)[O-])c1ccc2cc(C(N)=O)n(C(=O)C3CC3)c2c1 (3D coordinates assigned)
C[C@H](C(=O)[O-])c1ccc2cc(C(N)=O)n(C(=O)C3CC3)c2c1 (nonaromatic ring conformer: 340.24389749201157 kcal/mol)

>  <smiles>  (90) 
CC(C(=O)O)c1ccc2cc(C(N)=O)n(C(=O)C3CC3)c2c1

>  <score_type>  (90) 
oracle

>  <origin>  (90) 
adg

>  <m_score__min__energy>  (90) 
-7.2199999999999998

>  <m_primary>  (90) 
energy

$$$$
90:0
     RDKit          3D

 35 37  0  0  0  0  0  0  0  0999 V2000
  149.5550  159.7120  129.5890 C   0  0  0  0  0  0  0  0  0  0  0  0
  149.2130  159.5100  130.9920 N   0  0  0  0  0  0  0  0  0  0  0  0
  149.2890  158.2390  131.6880 C   0  0  0  0  0  0  0  0  0  0  0  0
  148.8590  158.5250  133.1420 C   0  0  0  0  0  0  0  0  0  0  0  0
  148.3170  159.9740  133.1820 C   0  0  2  0  0  0  0  0  0  0  0  0
  146.8230  160.0220  133.4270 C   0  0  0  0  0  0  0  0  0  0  0  0
  146.2000  161.2600  133.7330 C   0  0  0  0  0  0  0  0  0  0  0  0
  144.8210  161.3270  133.9860 C   0  0  0  0  0  0  0  0  0  0  0  0
  144.0870  160.1460  133.9220 C   0  0  0  0  0  0  0  0  0  0  0  0
  142.7480  159.9240  134.1510 C   0  0  0  0  0  0  0  0  0  0  0  0
  142.5630  158.5560  133.9610 C   0  0  0  0  0  0  0  0  0  0  0  0
  141.2410  157.9000  134.0250 C   0  0  0  0  0  0  0  0  0  0  0  0
  140.6700  157.2830  132.8740 N   0  0  0  0  0  0  0  0  0  0  0  0
  140.5830  157.9270  135.1000 O   0  0  0  0  0  0  0  0  0  0  0  0
  143.7440  157.9540  133.6390 N   0  0  0  0  0  0  0  0  0  0  0  0
  143.9970  156.5520  133.4480 C   0  0  0  0  0  0  0  0  0  0  0  0
  144.9690  155.9980  134.0250 O   0  0  0  0  0  0  0  0  0  0  0  0
  143.1880  155.8010  132.6050 O   0  0  0  0  0  0  0  0  0  0  0  0
  144.6650  158.9420  133.6160 C   0  0  0  0  0  0  0  0  0  0  0  0
  146.0410  158.8420  133.3780 C   0  0  0  0  0  0  0  0  0  0  0  0
  148.6590  160.4950  131.8380 C   0  0  0  0  0  0  0  0  0  0  0  0
  148.4760  161.6900  131.4780 O   0  0  0  0  0  0  0  0  0  0  0  0
  150.5002  160.2703  129.5187 H   0  0  0  0  0  0  0  0  0  0  0  0
  149.6682  158.7357  129.0949 H   0  0  0  0  0  0  0  0  0  0  0  0
  148.7546  160.2824  129.0949 H   0  0  0  0  0  0  0  0  0  0  0  0
  148.6095  157.5083  131.2250 H   0  0  0  0  0  0  0  0  0  0  0  0
  150.3029  157.8148  131.6434 H   0  0  0  0  0  0  0  0  0  0  0  0
  148.0723  157.8197  133.4481 H   0  0  0  0  0  0  0  0  0  0  0  0
  149.7083  158.4065  133.8310 H   0  0  0  0  0  0  0  0  0  0  0  0
  148.7490  160.5634  134.0042 H   0  0  0  0  0  0  0  0  0  0  0  0
  146.8050  162.1778  133.7724 H   0  0  0  0  0  0  0  0  0  0  0  0
  144.3350  162.2838  134.2275 H   0  0  0  0  0  0  0  0  0  0  0  0
  141.9860  160.6683  134.4256 H   0  0  0  0  0  0  0  0  0  0  0  0
  141.2530  156.7030  132.2310 H   0  0  0  0  0  0  0  0  0  0  0  0
  146.5044  157.8690  133.1579 H   0  0  0  0  0  0  0  0  0  0  0  0
  1  2  1  0
  2  3  1  0
  3  4  1  0
  4  5  1  0
  5  6  1  0
  6  7  2  0
  7  8  1  0
  8  9  2  0
  9 10  1  0
 10 11  2  0
 11 12  1  0
 12 13  1  0
 12 14  2  0
 11 15  1  0
 15 16  1  0
 16 17  2  0
 16 18  1  0
 15 19  1  0
 19 20  2  0
  5 21  1  0
 21 22  2  0
 21  2  1  0
 20  6  1  0
 19  9  1  0
  1 23  1  0
  1 24  1  0
  1 25  1  0
  3 26  1  0
  3 27  1  0
  4 28  1  0
  4 29  1  0
  5 30  1  1
  7 31  1  0
  8 32  1  0
 10 33  1  0
 13 34  1  0
 20 35  1  0
M  CHG  2  13  -1  18  -1
M  END
>  <UniqueID>  (91) 
90

>  <SMILES>  (91) 
CN1CC[C@H](c2ccc3cc(C([NH-])=O)n(C(=O)[O-])c3c2)C1=O

>  <Energy>  (91) 
81.64685416598604

>  <Genealogy>  (91) 
CN1CCC(c2ccc3cc(C([NH-])=O)n(C(=O)[O-])c3c2)C1=O (protonated)
CN1CC[C@H](c2ccc3cc(C([NH-])=O)n(C(=O)[O-])c3c2)C1=O (chirality)
CN1CC[C@H](c2ccc3cc(C([NH-])=O)n(C(=O)[O-])c3c2)C1=O (3D coordinates assigned)
CN1CC[C@H](c2ccc3cc(C([NH-])=O)n(C(=O)[O-])c3c2)C1=O (nonaromatic ring conformer: 81.64685416598604 kcal/mol)

>  <smiles>  (91) 
CN1CCC(c2ccc3cc(C(N)=O)n(C(=O)O)c3c2)C1=O

>  <score_type>  (91) 
oracle

>  <origin>  (91) 
adg

>  <m_score__min__energy>  (91) 
-7.0199999999999996

>  <m_primary>  (91) 
energy

$$$$
91:0
     RDKit          3D

 41 43  0  0  0  0  0  0  0  0999 V2000
  142.4340  153.0280  132.9680 C   0  0  0  0  0  0  0  0  0  0  0  0
  143.6100  153.8790  132.5020 C   0  0  0  0  0  0  0  0  0  0  0  0
  143.3330  155.2980  132.7120 N   0  0  0  0  0  0  0  0  0  0  0  0
  144.1070  156.1120  133.6040 C   0  0  0  0  0  0  0  0  0  0  0  0
  145.0540  155.6080  134.2650 O   0  0  0  0  0  0  0  0  0  0  0  0
  143.7830  157.5000  133.7770 N   0  0  0  0  0  0  0  0  0  0  0  0
  142.5730  158.0470  134.0860 C   0  0  0  0  0  0  0  0  0  0  0  0
  141.2940  157.3140  134.1790 C   0  0  0  0  0  0  0  0  0  0  0  0
  140.7790  156.6370  133.0340 N   0  0  0  0  0  0  0  0  0  0  0  0
  140.6640  157.2530  135.2680 O   0  0  0  0  0  0  0  0  0  0  0  0
  142.6870  159.4280  134.2280 C   0  0  0  0  0  0  0  0  0  0  0  0
  144.0130  159.7130  133.9870 C   0  0  0  0  0  0  0  0  0  0  0  0
  144.6870  160.9300  133.9980 C   0  0  0  0  0  0  0  0  0  0  0  0
  146.0650  160.9210  133.7300 C   0  0  0  0  0  0  0  0  0  0  0  0
  146.7500  159.7060  133.4660 C   0  0  0  0  0  0  0  0  0  0  0  0
  148.2420  159.7340  133.1710 C   0  0  2  0  0  0  0  0  0  0  0  0
  148.5610  160.5210  131.9140 C   0  0  0  0  0  0  0  0  0  0  0  0
  148.7800  159.4770  130.8310 C   0  0  0  0  0  0  0  0  0  0  0  0
  149.0300  158.1840  131.4710 N   0  0  0  0  0  0  0  0  0  0  0  0
  148.8200  158.3430  132.9110 C   0  0  0  0  0  0  0  0  0  0  0  0
  146.0230  158.4900  133.4580 C   0  0  0  0  0  0  0  0  0  0  0  0
  144.6500  158.5320  133.7160 C   0  0  0  0  0  0  0  0  0  0  0  0
  142.4080  153.0092  134.0675 H   0  0  0  0  0  0  0  0  0  0  0  0
  141.4962  153.4580  132.5864 H   0  0  0  0  0  0  0  0  0  0  0  0
  142.5493  152.0028  132.5864 H   0  0  0  0  0  0  0  0  0  0  0  0
  144.5079  153.5978  133.0717 H   0  0  0  0  0  0  0  0  0  0  0  0
  143.7706  153.7042  131.4279 H   0  0  0  0  0  0  0  0  0  0  0  0
  142.5490  155.7370  132.1790 H   0  0  0  0  0  0  0  0  0  0  0  0
  141.3830  156.4580  132.2010 H   0  0  0  0  0  0  0  0  0  0  0  0
  141.8873  160.1403  134.4794 H   0  0  0  0  0  0  0  0  0  0  0  0
  144.1566  161.8701  134.2101 H   0  0  0  0  0  0  0  0  0  0  0  0
  146.6222  161.8694  133.7245 H   0  0  0  0  0  0  0  0  0  0  0  0
  148.6804  160.1916  134.0701 H   0  0  0  0  0  0  0  0  0  0  0  0
  147.7215  161.1806  131.6491 H   0  0  0  0  0  0  0  0  0  0  0  0
  149.4427  161.1652  132.0465 H   0  0  0  0  0  0  0  0  0  0  0  0
  147.8846  159.4089  130.1957 H   0  0  0  0  0  0  0  0  0  0  0  0
  149.6402  159.7591  130.2061 H   0  0  0  0  0  0  0  0  0  0  0  0
  148.3390  157.4870  131.1050 H   0  0  0  0  0  0  0  0  0  0  0  0
  148.1167  157.5769  133.2694 H   0  0  0  0  0  0  0  0  0  0  0  0
  149.7753  158.2283  133.4441 H   0  0  0  0  0  0  0  0  0  0  0  0
  146.5278  157.5343  133.2533 H   0  0  0  0  0  0  0  0  0  0  0  0
  1  2  1  0
  2  3  1  0
  3  4  1  0
  4  5  2  0
  4  6  1  0
  6  7  1  0
  7  8  1  0
  8  9  1  0
  8 10  2  0
  7 11  2  0
 11 12  1  0
 12 13  2  0
 13 14  1  0
 14 15  2  0
 15 16  1  0
 16 17  1  0
 17 18  1  0
 18 19  1  0
 19 20  1  0
 15 21  1  0
 21 22  2  0
 22  6  1  0
 22 12  1  0
 20 16  1  0
  1 23  1  0
  1 24  1  0
  1 25  1  0
  2 26  1  0
  2 27  1  0
  3 28  1  0
  9 29  1  0
 11 30  1  0
 13 31  1  0
 14 32  1  0
 16 33  1  1
 17 34  1  0
 17 35  1  0
 18 36  1  0
 18 37  1  0
 19 38  1  0
 20 39  1  0
 20 40  1  0
 21 41  1  0
M  CHG  1   9  -1
M  END
>  <UniqueID>  (92) 
91

>  <SMILES>  (92) 
CCNC(=O)n1c(C([NH-])=O)cc2ccc([C@@H]3CCNC3)cc21

>  <Energy>  (92) 
78.21467751821025

>  <Genealogy>  (92) 
CCNC(=O)n1c(C([NH-])=O)cc2ccc(C3CCNC3)cc21 (protonated)
CCNC(=O)n1c(C([NH-])=O)cc2ccc([C@@H]3CCNC3)cc21 (chirality)
CCNC(=O)n1c(C([NH-])=O)cc2ccc([C@@H]3CCNC3)cc21 (3D coordinates assigned)
CCNC(=O)n1c(C([NH-])=O)cc2ccc([C@@H]3CCNC3)cc21 (nonaromatic ring conformer: 78.21467751821025 kcal/mol)

>  <smiles>  (92) 
CCNC(=O)n1c(C(N)=O)cc2ccc(C3CCNC3)cc21

>  <score_type>  (92) 
oracle

>  <origin>  (92) 
adg

>  <m_score__min__energy>  (92) 
-8.1400000000000006

>  <m_primary>  (92) 
energy

$$$$
92:0
     RDKit          3D

 32 33  0  0  0  0  0  0  0  0999 V2000
  148.5810  156.5640  132.6500 C   0  0  0  0  0  0  0  0  0  0  0  0
  148.9340  158.0460  132.8210 C   0  0  0  0  0  0  0  0  0  0  0  0
  149.6670  158.5870  131.5870 C   0  0  0  0  0  0  0  0  0  0  0  0
  147.6970  158.8700  133.1260 C   0  0  0  0  0  0  0  0  0  0  0  0
  147.8010  160.2490  133.4560 C   0  0  0  0  0  0  0  0  0  0  0  0
  146.6530  161.0130  133.7250 C   0  0  0  0  0  0  0  0  0  0  0  0
  145.4180  160.3770  133.6670 C   0  0  0  0  0  0  0  0  0  0  0  0
  144.1520  160.8840  133.8530 C   0  0  0  0  0  0  0  0  0  0  0  0
  143.2900  159.8060  133.6560 C   0  0  0  0  0  0  0  0  0  0  0  0
  141.8230  159.8910  133.8190 C   0  0  0  0  0  0  0  0  0  0  0  0
  140.9750  159.7700  132.6780 N   0  0  0  0  0  0  0  0  0  0  0  0
  141.3100  160.0940  134.9490 O   0  0  0  0  0  0  0  0  0  0  0  0
  143.9970  158.6790  133.3600 N   0  0  0  0  0  0  0  0  0  0  0  0
  143.4810  157.3770  133.0430 C   0  0  0  0  0  0  0  0  0  0  0  0
  142.1520  157.2280  132.5460 N   0  0  0  0  0  0  0  0  0  0  0  0
  144.2010  156.3560  133.2100 O   0  0  0  0  0  0  0  0  0  0  0  0
  145.2970  159.0450  133.3690 C   0  0  0  0  0  0  0  0  0  0  0  0
  146.4200  158.2630  133.0760 C   0  0  0  0  0  0  0  0  0  0  0  0
  148.4698  156.0970  133.6397 H   0  0  0  0  0  0  0  0  0  0  0  0
  147.6363  156.4739  132.0938 H   0  0  0  0  0  0  0  0  0  0  0  0
  149.3837  156.0577  132.0938 H   0  0  0  0  0  0  0  0  0  0  0  0
  149.6159  158.1312  133.6799 H   0  0  0  0  0  0  0  0  0  0  0  0
  150.5135  159.2118  131.9080 H   0  0  0  0  0  0  0  0  0  0  0  0
  150.0399  157.7460  130.9840 H   0  0  0  0  0  0  0  0  0  0  0  0
  148.9732  159.1912  130.9840 H   0  0  0  0  0  0  0  0  0  0  0  0
  148.7923  160.7235  133.5012 H   0  0  0  0  0  0  0  0  0  0  0  0
  146.7290  162.0818  133.9739 H   0  0  0  0  0  0  0  0  0  0  0  0
  143.8784  161.9195  134.1037 H   0  0  0  0  0  0  0  0  0  0  0  0
  141.3590  159.4720  131.7530 H   0  0  0  0  0  0  0  0  0  0  0  0
  141.7670  156.2790  132.3450 H   0  0  0  0  0  0  0  0  0  0  0  0
  141.5660  158.0670  132.3380 H   0  0  0  0  0  0  0  0  0  0  0  0
  146.3123  157.2004  132.8128 H   0  0  0  0  0  0  0  0  0  0  0  0
  1  2  1  0
  2  3  1  0
  2  4  1  0
  4  5  2  0
  5  6  1  0
  6  7  2  0
  7  8  1  0
  8  9  2  0
  9 10  1  0
 10 11  1  0
 10 12  2  0
  9 13  1  0
 13 14  1  0
 14 15  1  0
 14 16  2  0
 13 17  1  0
 17 18  2  0
 18  4  1  0
 17  7  1  0
  1 19  1  0
  1 20  1  0
  1 21  1  0
  2 22  1  0
  3 23  1  0
  3 24  1  0
  3 25  1  0
  5 26  1  0
  6 27  1  0
  8 28  1  0
 11 29  1  0
 15 30  1  0
 15 31  1  0
 18 32  1  0
M  CHG  1  11  -1
M  END
>  <UniqueID>  (93) 
92

>  <SMILES>  (93) 
CC(C)c1ccc2cc(C([NH-])=O)n(C(N)=O)c2c1

>  <Energy>  (93) 
66.65267782404933

>  <Genealogy>  (93) 
CC(C)c1ccc2cc(C([NH-])=O)n(C(N)=O)c2c1 (protonated)
CC(C)c1ccc2cc(C([NH-])=O)n(C(N)=O)c2c1 (3D coordinates assigned)
CC(C)c1ccc2cc(C([NH-])=O)n(C(N)=O)c2c1 (optimized conformer: 66.65267782404933 kcal/mol)

>  <smiles>  (93) 
CC(C)c1ccc2cc(C(N)=O)n(C(N)=O)c2c1

>  <score_type>  (93) 
oracle

>  <origin>  (93) 
adg

>  <m_score__min__energy>  (93) 
-6.8099999999999996

>  <m_primary>  (93) 
energy

$$$$
93:0
     RDKit          3D

 29 30  0  0  0  0  0  0  0  0999 V2000
  141.7690  160.9700  133.7550 N   0  0  0  0  0  0  0  0  0  0  0  0
  142.6040  160.1120  134.5290 C   0  0  0  0  0  0  0  0  0  0  0  0
  142.1440  159.5820  135.5760 O   0  0  0  0  0  0  0  0  0  0  0  0
  143.9780  159.7910  134.0900 C   0  0  0  0  0  0  0  0  0  0  0  0
  144.4040  158.4980  133.7910 C   0  0  0  0  0  0  0  0  0  0  0  0
  145.6940  158.6350  133.3340 C   0  0  0  0  0  0  0  0  0  0  0  0
  146.5970  157.6690  132.8990 C   0  0  0  0  0  0  0  0  0  0  0  0
  147.8760  158.0950  132.5020 C   0  0  0  0  0  0  0  0  0  0  0  0
  148.2300  159.4660  132.5590 C   0  0  0  0  0  0  0  0  0  0  0  0
  149.5950  159.9160  132.1110 C   0  0  0  0  0  0  0  0  0  0  0  0
  149.5980  160.3110  130.6320 C   0  0  0  0  0  0  0  0  0  0  0  0
  149.2380  161.6570  130.4760 O   0  0  0  0  0  0  0  0  0  0  0  0
  147.2830  160.4180  132.9970 C   0  0  0  0  0  0  0  0  0  0  0  0
  146.0120  159.9690  133.3700 C   0  0  0  0  0  0  0  0  0  0  0  0
  144.9690  160.6910  133.8360 N   0  0  0  0  0  0  0  0  0  0  0  0
  144.9640  162.1040  134.0960 C   0  0  0  0  0  0  0  0  0  0  0  0
  143.9670  162.9380  133.5090 N   0  0  0  0  0  0  0  0  0  0  0  0
  145.8200  162.6090  134.8690 O   0  0  0  0  0  0  0  0  0  0  0  0
  142.1750  161.7440  133.1850 H   0  0  0  0  0  0  0  0  0  0  0  0
  143.8302  157.5657  133.8979 H   0  0  0  0  0  0  0  0  0  0  0  0
  146.3181  156.6054  132.8670 H   0  0  0  0  0  0  0  0  0  0  0  0
  148.6092  157.3574  132.1437 H   0  0  0  0  0  0  0  0  0  0  0  0
  149.9008  160.7841  132.7134 H   0  0  0  0  0  0  0  0  0  0  0  0
  150.2960  159.0791  132.2462 H   0  0  0  0  0  0  0  0  0  0  0  0
  150.6061  160.1571  130.2196 H   0  0  0  0  0  0  0  0  0  0  0  0
  148.8668  159.6861  130.0984 H   0  0  0  0  0  0  0  0  0  0  0  0
  148.3910  161.6700  129.9590 H   0  0  0  0  0  0  0  0  0  0  0  0
  147.5389  161.4868  133.0436 H   0  0  0  0  0  0  0  0  0  0  0  0
  142.9530  162.7750  133.6950 H   0  0  0  0  0  0  0  0  0  0  0  0
  1  2  1  0
  2  3  2  0
  2  4  1  0
  4  5  2  0
  5  6  1  0
  6  7  2  0
  7  8  1  0
  8  9  2  0
  9 10  1  0
 10 11  1  0
 11 12  1  0
  9 13  1  0
 13 14  2  0
 14 15  1  0
 15 16  1  0
 16 17  1  0
 16 18  2  0
 15  4  1  0
 14  6  1  0
  1 19  1  0
  5 20  1  0
  7 21  1  0
  8 22  1  0
 10 23  1  0
 10 24  1  0
 11 25  1  0
 11 26  1  0
 12 27  1  0
 13 28  1  0
 17 29  1  0
M  CHG  2   1  -1  17  -1
M  END
>  <UniqueID>  (94) 
93

>  <SMILES>  (94) 
[NH-]C(=O)c1cc2ccc(CCO)cc2n1C([NH-])=O

>  <Energy>  (94) 
66.13503654977248

>  <Genealogy>  (94) 
[NH-]C(=O)c1cc2ccc(CCO)cc2n1C([NH-])=O (protonated)
[NH-]C(=O)c1cc2ccc(CCO)cc2n1C([NH-])=O (3D coordinates assigned)
[NH-]C(=O)c1cc2ccc(CCO)cc2n1C([NH-])=O (optimized conformer: 66.13503654977248 kcal/mol)

>  <smiles>  (94) 
NC(=O)c1cc2ccc(CCO)cc2n1C(N)=O

>  <score_type>  (94) 
oracle

>  <origin>  (94) 
adg

>  <m_score__min__energy>  (94) 
-6.5300000000000002

>  <m_primary>  (94) 
energy

$$$$
94:0
     RDKit          3D

 41 43  0  0  0  0  0  0  0  0999 V2000
  146.8830  155.8370  134.2240 C   0  0  0  0  0  0  0  0  0  0  0  0
  146.9130  156.6600  132.9760 C   0  0  0  0  0  0  0  0  0  0  0  0
  146.9900  156.0830  131.8580 O   0  0  0  0  0  0  0  0  0  0  0  0
  146.7680  158.0870  133.0340 N   0  0  0  0  0  0  0  0  0  0  0  0
  147.7220  159.0410  132.8350 C   0  0  0  0  0  0  0  0  0  0  0  0
  149.1010  158.8010  132.3650 C   0  0  0  0  0  0  0  0  0  0  0  0
  149.6090  157.4770  132.2260 N   0  0  0  0  0  0  0  0  0  0  0  0
  149.8310  159.7770  132.0440 O   0  0  0  0  0  0  0  0  0  0  0  0
  147.1940  160.3100  133.0650 C   0  0  0  0  0  0  0  0  0  0  0  0
  145.8760  160.1010  133.4020 C   0  0  0  0  0  0  0  0  0  0  0  0
  144.8800  161.0120  133.7390 C   0  0  0  0  0  0  0  0  0  0  0  0
  143.6100  160.5070  134.0630 C   0  0  0  0  0  0  0  0  0  0  0  0
  143.3500  159.1120  134.0550 C   0  0  0  0  0  0  0  0  0  0  0  0
  142.0230  158.6560  134.4110 N   0  0  0  0  0  0  0  0  0  0  0  0
  140.7360  159.0620  133.8220 C   0  0  2  0  0  0  0  0  0  0  0  0
  139.5560  158.2290  134.2980 C   0  0  0  0  0  0  0  0  0  0  0  0
  138.7840  157.8650  133.0320 C   0  0  0  0  0  0  0  0  0  0  0  0
  139.3590  158.6050  131.8940 N   0  0  0  0  0  0  0  0  0  0  0  0
  138.5460  159.7920  131.5780 C   0  0  0  0  0  0  0  0  0  0  0  0
  140.7180  158.9970  132.3000 C   0  0  0  0  0  0  0  0  0  0  0  0
  144.3950  158.2220  133.7050 C   0  0  0  0  0  0  0  0  0  0  0  0
  145.6440  158.7530  133.3740 C   0  0  0  0  0  0  0  0  0  0  0  0
  146.9072  156.5002  135.1012 H   0  0  0  0  0  0  0  0  0  0  0  0
  145.9623  155.2354  134.2444 H   0  0  0  0  0  0  0  0  0  0  0  0
  147.7574  155.1700  134.2444 H   0  0  0  0  0  0  0  0  0  0  0  0
  149.0530  156.7350  131.7470 H   0  0  0  0  0  0  0  0  0  0  0  0
  147.7190  161.2739  132.9926 H   0  0  0  0  0  0  0  0  0  0  0  0
  145.0807  162.0935  133.7513 H   0  0  0  0  0  0  0  0  0  0  0  0
  142.8025  161.2054  134.3277 H   0  0  0  0  0  0  0  0  0  0  0  0
  141.9580  157.9470  135.1770 H   0  0  0  0  0  0  0  0  0  0  0  0
  140.6323  160.1019  134.1654 H   0  0  0  0  0  0  0  0  0  0  0  0
  139.9069  157.3208  134.8100 H   0  0  0  0  0  0  0  0  0  0  0  0
  138.9299  158.7776  135.0171 H   0  0  0  0  0  0  0  0  0  0  0  0
  138.8648  156.7835  132.8481 H   0  0  0  0  0  0  0  0  0  0  0  0
  137.7234  158.1308  133.1523 H   0  0  0  0  0  0  0  0  0  0  0  0
  138.2179  160.2710  132.5123 H   0  0  0  0  0  0  0  0  0  0  0  0
  139.1475  160.5032  130.9929 H   0  0  0  0  0  0  0  0  0  0  0  0
  137.6655  159.4882  130.9929 H   0  0  0  0  0  0  0  0  0  0  0  0
  141.4460  158.2519  131.9466 H   0  0  0  0  0  0  0  0  0  0  0  0
  140.9881  159.9709  131.8657 H   0  0  0  0  0  0  0  0  0  0  0  0
  144.2265  157.1350  133.6941 H   0  0  0  0  0  0  0  0  0  0  0  0
  1  2  1  0
  2  3  2  0
  2  4  1  0
  4  5  1  0
  5  6  1  0
  6  7  1  0
  6  8  2  0
  5  9  2  0
  9 10  1  0
 10 11  2  0
 11 12  1  0
 12 13  2  0
 13 14  1  0
 14 15  1  0
 15 16  1  0
 16 17  1  0
 17 18  1  0
 18 19  1  0
 18 20  1  0
 13 21  1  0
 21 22  2  0
 22  4  1  0
 22 10  1  0
 20 15  1  0
  1 23  1  0
  1 24  1  0
  1 25  1  0
  7 26  1  0
  9 27  1  0
 11 28  1  0
 12 29  1  0
 14 30  1  0
 15 31  1  6
 16 32  1  0
 16 33  1  0
 17 34  1  0
 17 35  1  0
 19 36  1  0
 19 37  1  0
 19 38  1  0
 20 39  1  0
 20 40  1  0
 21 41  1  0
M  CHG  1   7  -1
M  END
>  <UniqueID>  (95) 
94

>  <SMILES>  (95) 
CC(=O)n1c(C([NH-])=O)cc2ccc(N[C@@H]3CCN(C)C3)cc21

>  <Energy>  (95) 
87.28817782183849

>  <Genealogy>  (95) 
CC(=O)n1c(C([NH-])=O)cc2ccc(N[C@@H]3CCN(C)C3)cc21 (protonated)
CC(=O)n1c(C([NH-])=O)cc2ccc(N[C@@H]3CCN(C)C3)cc21 (3D coordinates assigned)
CC(=O)n1c(C([NH-])=O)cc2ccc(N[C@@H]3CCN(C)C3)cc21 (nonaromatic ring conformer: 87.28817782183849 kcal/mol)

>  <smiles>  (95) 
CC(=O)n1c(C(N)=O)cc2ccc(N[C@@H]3CCN(C)C3)cc21

>  <score_type>  (95) 
oracle

>  <origin>  (95) 
adg

>  <m_score__min__energy>  (95) 
-7.4199999999999999

>  <m_primary>  (95) 
energy

$$$$
95:0
     RDKit          3D

 46 48  0  0  0  0  0  0  0  0999 V2000
  147.7600  160.0920  131.3820 C   0  0  0  0  0  0  0  0  0  0  0  0
  147.3430  159.8620  132.7990 C   0  0  0  0  0  0  0  0  0  0  0  0
  147.9390  160.4750  133.7230 O   0  0  0  0  0  0  0  0  0  0  0  0
  146.2680  158.9610  133.1150 N   0  0  0  0  0  0  0  0  0  0  0  0
  144.9990  159.2840  133.4920 C   0  0  0  0  0  0  0  0  0  0  0  0
  144.4960  160.6510  133.7540 C   0  0  0  0  0  0  0  0  0  0  0  0
  145.4090  161.6840  134.1170 N   0  0  0  0  0  0  0  0  0  0  0  0
  143.2730  160.9210  133.6370 O   0  0  0  0  0  0  0  0  0  0  0  0
  144.2310  158.1330  133.6580 C   0  0  0  0  0  0  0  0  0  0  0  0
  145.0760  157.0870  133.3680 C   0  0  0  0  0  0  0  0  0  0  0  0
  144.8290  155.7160  133.3490 C   0  0  0  0  0  0  0  0  0  0  0  0
  145.8800  154.8640  132.9740 C   0  0  0  0  0  0  0  0  0  0  0  0
  147.1520  155.3890  132.6260 C   0  0  0  0  0  0  0  0  0  0  0  0
  148.2080  154.5070  132.1980 N   0  0  0  0  0  0  0  0  0  0  0  0
  148.7460  153.7710  133.3560 C   0  0  0  0  0  0  0  0  0  0  0  0
  148.5740  152.2440  133.2140 C   0  0  2  0  0  0  0  0  0  0  0  0
  149.9370  151.5170  133.0430 C   0  0  0  0  0  0  0  0  0  0  0  0
  149.8530  150.3570  132.1290 N   0  0  0  0  0  0  0  0  0  0  0  0
  150.1190  150.7310  130.7300 C   0  0  0  0  0  0  0  0  0  0  0  0
  148.5700  149.6450  132.2780 C   0  0  0  0  0  0  0  0  0  0  0  0
  147.3520  150.5890  132.1380 C   0  0  0  0  0  0  0  0  0  0  0  0
  147.7080  151.9580  132.1350 O   0  0  0  0  0  0  0  0  0  0  0  0
  147.3580  156.7880  132.6450 C   0  0  0  0  0  0  0  0  0  0  0  0
  146.2990  157.6120  133.0420 C   0  0  0  0  0  0  0  0  0  0  0  0
  148.7231  160.6232  131.3648 H   0  0  0  0  0  0  0  0  0  0  0  0
  147.8656  159.1246  130.8692 H   0  0  0  0  0  0  0  0  0  0  0  0
  146.9981  160.6975  130.8692 H   0  0  0  0  0  0  0  0  0  0  0  0
  146.2620  161.8720  133.5460 H   0  0  0  0  0  0  0  0  0  0  0  0
  143.1741  158.0736  133.9572 H   0  0  0  0  0  0  0  0  0  0  0  0
  143.8415  155.3137  133.6193 H   0  0  0  0  0  0  0  0  0  0  0  0
  145.7157  153.7766  132.9496 H   0  0  0  0  0  0  0  0  0  0  0  0
  147.8290  153.8340  131.4920 H   0  0  0  0  0  0  0  0  0  0  0  0
  148.9590  155.0670  131.7320 H   0  0  0  0  0  0  0  0  0  0  0  0
  149.8180  153.9983  133.4521 H   0  0  0  0  0  0  0  0  0  0  0  0
  148.1849  154.0904  134.2466 H   0  0  0  0  0  0  0  0  0  0  0  0
  148.1271  151.8640  134.1445 H   0  0  0  0  0  0  0  0  0  0  0  0
  150.6690  152.2316  132.6387 H   0  0  0  0  0  0  0  0  0  0  0  0
  150.2399  151.1408  134.0313 H   0  0  0  0  0  0  0  0  0  0  0  0
  150.7564  151.6272  130.7049 H   0  0  0  0  0  0  0  0  0  0  0  0
  150.6316  149.9021  130.2200 H   0  0  0  0  0  0  0  0  0  0  0  0
  149.1678  150.9432  130.2200 H   0  0  0  0  0  0  0  0  0  0  0  0
  148.5053  148.8675  131.5026 H   0  0  0  0  0  0  0  0  0  0  0  0
  148.5430  149.2101  133.2880 H   0  0  0  0  0  0  0  0  0  0  0  0
  146.8377  150.3590  131.1932 H   0  0  0  0  0  0  0  0  0  0  0  0
  146.7046  150.4205  133.0112 H   0  0  0  0  0  0  0  0  0  0  0  0
  148.3278  157.2182  132.3546 H   0  0  0  0  0  0  0  0  0  0  0  0
  1  2  1  0
  2  3  2  0
  2  4  1  0
  4  5  1  0
  5  6  1  0
  6  7  1  0
  6  8  2  0
  5  9  2  0
  9 10  1  0
 10 11  2  0
 11 12  1  0
 12 13  2  0
 13 14  1  0
 14 15  1  0
 15 16  1  0
 16 17  1  0
 17 18  1  0
 18 19  1  0
 18 20  1  0
 20 21  1  0
 21 22  1  0
 13 23  1  0
 23 24  2  0
 24  4  1  0
 24 10  1  0
 22 16  1  0
  1 25  1  0
  1 26  1  0
  1 27  1  0
  7 28  1  0
  9 29  1  0
 11 30  1  0
 12 31  1  0
 14 32  1  0
 14 33  1  0
 15 34  1  0
 15 35  1  0
 16 36  1  1
 17 37  1  0
 17 38  1  0
 19 39  1  0
 19 40  1  0
 19 41  1  0
 20 42  1  0
 20 43  1  0
 21 44  1  0
 21 45  1  0
 23 46  1  0
M  CHG  2   7  -1  14   1
M  END
>  <UniqueID>  (96) 
95

>  <SMILES>  (96) 
CC(=O)n1c(C([NH-])=O)cc2ccc([NH2+]C[C@@H]3CN(C)CCO3)cc21

>  <Energy>  (96) 
97.16247770497947

>  <Genealogy>  (96) 
CC(=O)n1c(C([NH-])=O)cc2ccc([NH2+]CC3CN(C)CCO3)cc21 (protonated)
CC(=O)n1c(C([NH-])=O)cc2ccc([NH2+]C[C@@H]3CN(C)CCO3)cc21 (chirality)
CC(=O)n1c(C([NH-])=O)cc2ccc([NH2+]C[C@@H]3CN(C)CCO3)cc21 (3D coordinates assigned)
CC(=O)n1c(C([NH-])=O)cc2ccc([NH2+]C[C@@H]3CN(C)CCO3)cc21 (nonaromatic ring conformer: 97.16247770497947 kcal/mol)

>  <smiles>  (96) 
CC(=O)n1c(C(N)=O)cc2ccc(NCC3CN(C)CCO3)cc21

>  <score_type>  (96) 
oracle

>  <origin>  (96) 
adg

>  <m_score__min__energy>  (96) 
-7.3399999999999999

>  <m_primary>  (96) 
energy

$$$$
96:0
     RDKit          3D

 30 31  0  0  0  0  0  0  0  0999 V2000
  149.2680  162.0650  130.3620 C   0  0  0  0  0  0  0  0  0  0  0  0
  149.9840  161.0010  130.9780 O   0  0  0  0  0  0  0  0  0  0  0  0
  149.4050  159.7570  131.2360 C   0  0  0  0  0  0  0  0  0  0  0  0
  149.0110  159.0200  130.2910 O   0  0  0  0  0  0  0  0  0  0  0  0
  149.2990  159.2740  132.6470 C   0  0  0  0  0  0  0  0  0  0  0  0
  147.8680  158.9570  132.9760 C   0  0  0  0  0  0  0  0  0  0  0  0
  147.3910  157.6280  132.8640 C   0  0  0  0  0  0  0  0  0  0  0  0
  146.0440  157.3260  133.1220 C   0  0  0  0  0  0  0  0  0  0  0  0
  145.2000  158.3710  133.4890 C   0  0  0  0  0  0  0  0  0  0  0  0
  143.8520  158.3640  133.7620 C   0  0  0  0  0  0  0  0  0  0  0  0
  143.5260  159.6880  134.0500 C   0  0  0  0  0  0  0  0  0  0  0  0
  142.1800  160.1160  134.4830 C   0  0  0  0  0  0  0  0  0  0  0  0
  141.4160  161.0340  133.7050 N   0  0  0  0  0  0  0  0  0  0  0  0
  141.7170  159.7040  135.5800 O   0  0  0  0  0  0  0  0  0  0  0  0
  144.6290  160.4850  133.9490 N   0  0  0  0  0  0  0  0  0  0  0  0
  144.6990  161.9140  134.0790 C   0  0  0  0  0  0  0  0  0  0  0  0
  143.8860  162.6510  133.4620 O   0  0  0  0  0  0  0  0  0  0  0  0
  145.6830  162.4980  134.8680 O   0  0  0  0  0  0  0  0  0  0  0  0
  145.6460  159.6630  133.6070 C   0  0  0  0  0  0  0  0  0  0  0  0
  146.9790  159.9950  133.3370 C   0  0  0  0  0  0  0  0  0  0  0  0
  148.8328  162.7117  131.1381 H   0  0  0  0  0  0  0  0  0  0  0  0
  149.9540  162.6544  129.7358 H   0  0  0  0  0  0  0  0  0  0  0  0
  148.4637  161.6515  129.7358 H   0  0  0  0  0  0  0  0  0  0  0  0
  149.9100  158.3674  132.7685 H   0  0  0  0  0  0  0  0  0  0  0  0
  149.6595  160.0609  133.3258 H   0  0  0  0  0  0  0  0  0  0  0  0
  148.0828  156.8242  132.5719 H   0  0  0  0  0  0  0  0  0  0  0  0
  145.6674  156.2960  133.0368 H   0  0  0  0  0  0  0  0  0  0  0  0
  143.1748  157.4972  133.7546 H   0  0  0  0  0  0  0  0  0  0  0  0
  141.8350  161.9280  133.3650 H   0  0  0  0  0  0  0  0  0  0  0  0
  147.3256  161.0368  133.4041 H   0  0  0  0  0  0  0  0  0  0  0  0
  1  2  1  0
  2  3  1  0
  3  4  2  0
  3  5  1  0
  5  6  1  0
  6  7  2  0
  7  8  1  0
  8  9  2  0
  9 10  1  0
 10 11  2  0
 11 12  1  0
 12 13  1  0
 12 14  2  0
 11 15  1  0
 15 16  1  0
 16 17  2  0
 16 18  1  0
 15 19  1  0
 19 20  2  0
 20  6  1  0
 19  9  1  0
  1 21  1  0
  1 22  1  0
  1 23  1  0
  5 24  1  0
  5 25  1  0
  7 26  1  0
  8 27  1  0
 10 28  1  0
 13 29  1  0
 20 30  1  0
M  CHG  2  13  -1  18  -1
M  END
>  <UniqueID>  (97) 
96

>  <SMILES>  (97) 
COC(=O)Cc1ccc2cc(C([NH-])=O)n(C(=O)[O-])c2c1

>  <Energy>  (97) 
66.11583727180263

>  <Genealogy>  (97) 
COC(=O)Cc1ccc2cc(C([NH-])=O)n(C(=O)[O-])c2c1 (protonated)
COC(=O)Cc1ccc2cc(C([NH-])=O)n(C(=O)[O-])c2c1 (3D coordinates assigned)
COC(=O)Cc1ccc2cc(C([NH-])=O)n(C(=O)[O-])c2c1 (optimized conformer: 66.11583727180263 kcal/mol)

>  <smiles>  (97) 
COC(=O)Cc1ccc2cc(C(N)=O)n(C(=O)O)c2c1

>  <score_type>  (97) 
oracle

>  <origin>  (97) 
adg

>  <m_score__min__energy>  (97) 
-6.1699999999999999

>  <m_primary>  (97) 
energy

$$$$
97:0
     RDKit          3D

 53 56  0  0  0  0  0  0  0  0999 V2000
  139.7230  155.3200  132.9950 C   0  0  0  0  0  0  0  0  0  0  0  0
  140.3670  154.0550  132.8990 O   0  0  0  0  0  0  0  0  0  0  0  0
  141.4020  153.6690  133.7570 C   0  0  0  0  0  0  0  0  0  0  0  0
  141.5310  154.2220  134.8830 O   0  0  0  0  0  0  0  0  0  0  0  0
  142.3170  152.6360  133.3560 N   0  0  0  0  0  0  0  0  0  0  0  0
  142.0140  151.3690  132.9530 C   0  0  0  0  0  0  0  0  0  0  0  0
  140.6790  150.7420  133.0010 C   0  0  0  0  0  0  0  0  0  0  0  0
  139.5270  151.4140  132.4900 N   0  0  0  0  0  0  0  0  0  0  0  0
  140.5440  149.6170  133.5530 O   0  0  0  0  0  0  0  0  0  0  0  0
  143.1580  150.7020  132.5240 C   0  0  0  0  0  0  0  0  0  0  0  0
  144.1860  151.6030  132.6890 C   0  0  0  0  0  0  0  0  0  0  0  0
  145.5410  151.4730  132.4050 C   0  0  0  0  0  0  0  0  0  0  0  0
  146.3730  152.5800  132.6360 C   0  0  0  0  0  0  0  0  0  0  0  0
  145.8410  153.7980  133.1350 C   0  0  0  0  0  0  0  0  0  0  0  0
  146.7020  154.9360  133.3570 N   0  0  0  0  0  0  0  0  0  0  0  0
  146.3840  155.9140  134.4070 C   0  0  0  0  0  0  0  0  0  0  0  0
  147.6540  156.6460  134.8590 C   0  0  0  0  0  0  0  0  0  0  0  0
  148.3800  157.2780  133.7310 N   0  0  0  0  0  0  0  0  0  0  0  0
  148.2910  158.7550  133.6920 C   0  0  0  0  0  0  0  0  0  0  0  0
  148.6760  159.3580  132.3550 C   0  0  0  0  0  0  0  0  0  0  0  0
  147.7620  160.1490  131.6340 C   0  0  0  0  0  0  0  0  0  0  0  0
  148.1210  160.6930  130.3970 C   0  0  0  0  0  0  0  0  0  0  0  0
  149.3970  160.4710  129.8760 C   0  0  0  0  0  0  0  0  0  0  0  0
  150.3220  159.7130  130.5960 C   0  0  0  0  0  0  0  0  0  0  0  0
  149.9680  159.1650  131.8330 C   0  0  0  0  0  0  0  0  0  0  0  0
  148.1990  156.6340  132.4080 C   0  0  0  0  0  0  0  0  0  0  0  0
  147.9030  155.1370  132.5340 C   0  0  0  0  0  0  0  0  0  0  0  0
  144.4550  153.8880  133.4090 C   0  0  0  0  0  0  0  0  0  0  0  0
  143.6540  152.7620  133.1900 C   0  0  0  0  0  0  0  0  0  0  0  0
  139.5888  155.5837  134.0545 H   0  0  0  0  0  0  0  0  0  0  0  0
  140.3416  156.0847  132.5024 H   0  0  0  0  0  0  0  0  0  0  0  0
  138.7408  155.2697  132.5024 H   0  0  0  0  0  0  0  0  0  0  0  0
  138.5970  150.9390  132.4970 H   0  0  0  0  0  0  0  0  0  0  0  0
  139.5740  152.4110  132.1850 H   0  0  0  0  0  0  0  0  0  0  0  0
  143.2262  149.6749  132.1362 H   0  0  0  0  0  0  0  0  0  0  0  0
  145.9490  150.5305  132.0109 H   0  0  0  0  0  0  0  0  0  0  0  0
  147.4503  152.5027  132.4278 H   0  0  0  0  0  0  0  0  0  0  0  0
  145.6640  156.6467  134.0137 H   0  0  0  0  0  0  0  0  0  0  0  0
  145.9519  155.3842  135.2688 H   0  0  0  0  0  0  0  0  0  0  0  0
  147.3723  157.4283  135.5791 H   0  0  0  0  0  0  0  0  0  0  0  0
  148.3249  155.9008  135.3112 H   0  0  0  0  0  0  0  0  0  0  0  0
  147.2544  159.0457  133.9176 H   0  0  0  0  0  0  0  0  0  0  0  0
  149.0075  159.1380  134.4335 H   0  0  0  0  0  0  0  0  0  0  0  0
  146.7601  160.3402  132.0458 H   0  0  0  0  0  0  0  0  0  0  0  0
  147.3958  161.2977  129.8327 H   0  0  0  0  0  0  0  0  0  0  0  0
  149.6734  160.8932  128.8986 H   0  0  0  0  0  0  0  0  0  0  0  0
  151.3306  159.5465  130.1899 H   0  0  0  0  0  0  0  0  0  0  0  0
  150.7049  158.5790  132.4018 H   0  0  0  0  0  0  0  0  0  0  0  0
  147.3596  157.1194  131.8887 H   0  0  0  0  0  0  0  0  0  0  0  0
  149.1361  156.7485  131.8435 H   0  0  0  0  0  0  0  0  0  0  0  0
  147.7356  154.7121  131.5333 H   0  0  0  0  0  0  0  0  0  0  0  0
  148.7585  154.6358  133.0103 H   0  0  0  0  0  0  0  0  0  0  0  0
  144.0169  154.8238  133.7863 H   0  0  0  0  0  0  0  0  0  0  0  0
  1  2  1  0
  2  3  1  0
  3  4  2  0
  3  5  1  0
  5  6  1  0
  6  7  1  0
  7  8  1  0
  7  9  2  0
  6 10  2  0
 10 11  1  0
 11 12  2  0
 12 13  1  0
 13 14  2  0
 14 15  1  0
 15 16  1  0
 16 17  1  0
 17 18  1  0
 18 19  1  0
 19 20  1  0
 20 21  2  0
 21 22  1  0
 22 23  2  0
 23 24  1  0
 24 25  2  0
 18 26  1  0
 26 27  1  0
 14 28  1  0
 28 29  2  0
 29  5  1  0
 29 11  1  0
 27 15  1  0
 25 20  1  0
  1 30  1  0
  1 31  1  0
  1 32  1  0
  8 33  1  0
  8 34  1  0
 10 35  1  0
 12 36  1  0
 13 37  1  0
 16 38  1  0
 16 39  1  0
 17 40  1  0
 17 41  1  0
 19 42  1  0
 19 43  1  0
 21 44  1  0
 22 45  1  0
 23 46  1  0
 24 47  1  0
 25 48  1  0
 26 49  1  0
 26 50  1  0
 27 51  1  0
 27 52  1  0
 28 53  1  0
M  END
>  <UniqueID>  (98) 
97

>  <SMILES>  (98) 
COC(=O)n1c(C(N)=O)cc2ccc(N3CCN(Cc4ccccc4)CC3)cc21

>  <Energy>  (98) 
106.12819041066767

>  <Genealogy>  (98) 
COC(=O)n1c(C(N)=O)cc2ccc(N3CCN(Cc4ccccc4)CC3)cc21 (3D coordinates assigned)
COC(=O)n1c(C(N)=O)cc2ccc(N3CCN(Cc4ccccc4)CC3)cc21 (nonaromatic ring conformer: 106.12819041066767 kcal/mol)

>  <smiles>  (98) 
COC(=O)n1c(C(N)=O)cc2ccc(N3CCN(Cc4ccccc4)CC3)cc21

>  <score_type>  (98) 
oracle

>  <origin>  (98) 
adg

>  <m_score__min__energy>  (98) 
-8.9900000000000002

>  <m_primary>  (98) 
energy

$$$$
