0:0
     RDKit          3D

 36 37  0  0  0  0  0  0  0  0999 V2000
  140.6120  159.6170  133.5300 C   0  0  0  0  0  0  0  0  0  0  0  0
  140.6140  158.9580  132.2840 O   0  0  0  0  0  0  0  0  0  0  0  0
  139.4380  158.1900  132.1580 C   0  0  0  0  0  0  0  0  0  0  0  0
  139.2640  157.3180  133.4000 C   0  0  0  0  0  0  0  0  0  0  0  0
  140.4210  156.4480  133.5880 N   0  0  0  0  0  0  0  0  0  0  0  0
  140.4980  155.1090  133.0880 C   0  0  0  0  0  0  0  0  0  0  0  0
  139.4620  154.5350  132.6560 O   0  0  0  0  0  0  0  0  0  0  0  0
  141.7610  154.4250  133.0610 N   0  0  0  0  0  0  0  0  0  0  0  0
  143.0040  154.9800  132.9800 C   0  0  0  0  0  0  0  0  0  0  0  0
  143.3070  156.4240  133.0770 C   0  0  0  0  0  0  0  0  0  0  0  0
  142.5070  157.3880  132.3890 N   0  0  0  0  0  0  0  0  0  0  0  0
  144.2980  156.8180  133.7480 O   0  0  0  0  0  0  0  0  0  0  0  0
  143.9760  153.9840  132.8870 C   0  0  0  0  0  0  0  0  0  0  0  0
  143.2830  152.7950  132.9140 C   0  0  0  0  0  0  0  0  0  0  0  0
  143.7500  151.4860  132.8520 C   0  0  0  0  0  0  0  0  0  0  0  0
  142.8050  150.4460  132.8810 C   0  0  0  0  0  0  0  0  0  0  0  0
  141.4170  150.7310  132.9470 C   0  0  0  0  0  0  0  0  0  0  0  0
  140.4160  149.6050  133.0180 C   0  0  0  0  0  0  0  0  0  0  0  0
  140.8660  148.5060  132.3060 F   0  0  0  0  0  0  0  0  0  0  0  0
  140.2320  149.2420  134.3390 F   0  0  0  0  0  0  0  0  0  0  0  0
  139.2000  149.9960  132.4850 F   0  0  0  0  0  0  0  0  0  0  0  0
  140.9830  152.0740  133.0340 C   0  0  0  0  0  0  0  0  0  0  0  0
  141.9490  153.0890  133.0190 C   0  0  0  0  0  0  0  0  0  0  0  0
  140.6143  158.8717  134.3390 H   0  0  0  0  0  0  0  0  0  0  0  0
  141.5082  160.2495  133.6117 H   0  0  0  0  0  0  0  0  0  0  0  0
  139.7119  160.2441  133.6117 H   0  0  0  0  0  0  0  0  0  0  0  0
  138.5716  158.8601  132.0561 H   0  0  0  0  0  0  0  0  0  0  0  0
  139.5124  157.5489  131.2673 H   0  0  0  0  0  0  0  0  0  0  0  0
  139.1521  157.9652  134.2824 H   0  0  0  0  0  0  0  0  0  0  0  0
  138.3692  156.6918  133.2689 H   0  0  0  0  0  0  0  0  0  0  0  0
  141.6520  157.1060  131.8610 H   0  0  0  0  0  0  0  0  0  0  0  0
  142.7510  158.4010  132.4380 H   0  0  0  0  0  0  0  0  0  0  0  0
  145.0648  154.1198  132.8087 H   0  0  0  0  0  0  0  0  0  0  0  0
  144.8266  151.2713  132.7824 H   0  0  0  0  0  0  0  0  0  0  0  0
  143.1452  149.4003  132.8522 H   0  0  0  0  0  0  0  0  0  0  0  0
  139.9128  152.3161  133.1116 H   0  0  0  0  0  0  0  0  0  0  0  0
  1  2  1  0
  2  3  1  0
  3  4  1  0
  4  5  1  0
  5  6  1  0
  6  7  2  0
  6  8  1  0
  8  9  1  0
  9 10  1  0
 10 11  1  0
 10 12  2  0
  9 13  2  0
 13 14  1  0
 14 15  2  0
 15 16  1  0
 16 17  2  0
 17 18  1  0
 18 19  1  0
 18 20  1  0
 18 21  1  0
 17 22  1  0
 22 23  2  0
 23  8  1  0
 23 14  1  0
  1 24  1  0
  1 25  1  0
  1 26  1  0
  3 27  1  0
  3 28  1  0
  4 29  1  0
  4 30  1  0
 11 31  1  0
 11 32  1  0
 13 33  1  0
 15 34  1  0
 16 35  1  0
 22 36  1  0
M  CHG  1   5  -1
M  END
>  <UniqueID>  (1) 
1

>  <SMILES>  (1) 
COCC[N-]C(=O)n1c(C(N)=O)cc2ccc(C(F)(F)F)cc21

>  <Energy>  (1) 
72.19562971177244

>  <Genealogy>  (1) 
COCC[N-]C(=O)n1c(C(N)=O)cc2ccc(C(F)(F)F)cc21 (protonated)
COCC[N-]C(=O)n1c(C(N)=O)cc2ccc(C(F)(F)F)cc21 (3D coordinates assigned)
COCC[N-]C(=O)n1c(C(N)=O)cc2ccc(C(F)(F)F)cc21 (optimized conformer: 72.19562971177244 kcal/mol)

>  <smiles>  (1) 
COCCNC(=O)n1c(C(N)=O)cc2ccc(C(F)(F)F)cc21

>  <score_type>  (1) 
oracle

>  <origin>  (1) 
adg

>  <m_score__min__energy>  (1) 
-6.4000000000000004

>  <m_primary>  (1) 
energy

$$$$
1:0
     RDKit          3D

 38 40  0  0  0  0  0  0  0  0999 V2000
  141.5940  155.3620  139.1490 C   0  0  0  0  0  0  0  0  0  0  0  0
  141.3890  156.4660  138.1570 C   0  0  0  0  0  0  0  0  0  0  0  0
  141.5290  157.8150  138.5650 C   0  0  0  0  0  0  0  0  0  0  0  0
  141.3020  158.8640  137.6600 C   0  0  0  0  0  0  0  0  0  0  0  0
  140.9390  158.5340  136.3560 C   0  0  0  0  0  0  0  0  0  0  0  0
  140.6330  159.3510  135.2920 C   0  0  0  0  0  0  0  0  0  0  0  0
  140.3280  158.4880  134.2430 C   0  0  0  0  0  0  0  0  0  0  0  0
  139.9980  158.9510  132.8810 C   0  0  0  0  0  0  0  0  0  0  0  0
  140.9900  158.9950  131.8530 N   0  0  0  0  0  0  0  0  0  0  0  0
  138.8320  159.3640  132.6340 O   0  0  0  0  0  0  0  0  0  0  0  0
  140.4250  157.1890  134.6430 N   0  0  0  0  0  0  0  0  0  0  0  0
  140.0850  156.0130  133.8890 C   0  0  0  0  0  0  0  0  0  0  0  0
  139.0790  156.0240  133.1260 O   0  0  0  0  0  0  0  0  0  0  0  0
  140.8710  154.8610  134.0010 O   0  0  0  0  0  0  0  0  0  0  0  0
  142.1220  154.6970  133.3370 C   0  0  0  0  0  0  0  0  0  0  0  0
  142.9820  155.9050  133.5540 C   0  0  0  0  0  0  0  0  0  0  0  0
  142.8660  157.0250  132.8800 O   0  0  0  0  0  0  0  0  0  0  0  0
  143.7890  157.8290  133.3570 C   0  0  0  0  0  0  0  0  0  0  0  0
  143.9760  159.0020  132.9390 O   0  0  0  0  0  0  0  0  0  0  0  0
  144.5000  157.2730  134.3120 O   0  0  0  0  0  0  0  0  0  0  0  0
  144.0150  156.0630  134.4620 C   0  0  0  0  0  0  0  0  0  0  0  0
  144.5400  155.0550  135.4330 C   0  0  0  0  0  0  0  0  0  0  0  0
  140.8030  157.2340  135.9410 C   0  0  0  0  0  0  0  0  0  0  0  0
  140.9970  156.1690  136.8330 C   0  0  0  0  0  0  0  0  0  0  0  0
  141.5188  155.7669  140.1690 H   0  0  0  0  0  0  0  0  0  0  0  0
  140.8238  154.5903  139.0032 H   0  0  0  0  0  0  0  0  0  0  0  0
  142.5899  154.9182  139.0032 H   0  0  0  0  0  0  0  0  0  0  0  0
  141.8185  158.0431  139.6014 H   0  0  0  0  0  0  0  0  0  0  0  0
  141.4075  159.9139  137.9708 H   0  0  0  0  0  0  0  0  0  0  0  0
  140.6300  160.4508  135.2741 H   0  0  0  0  0  0  0  0  0  0  0  0
  140.7200  159.2560  130.8780 H   0  0  0  0  0  0  0  0  0  0  0  0
  141.9960  158.8250  132.0690 H   0  0  0  0  0  0  0  0  0  0  0  0
  142.6333  153.8095  133.7381 H   0  0  0  0  0  0  0  0  0  0  0  0
  141.9437  154.5707  132.2589 H   0  0  0  0  0  0  0  0  0  0  0  0
  144.3576  155.4052  136.4597 H   0  0  0  0  0  0  0  0  0  0  0  0
  144.0278  154.0941  135.2769 H   0  0  0  0  0  0  0  0  0  0  0  0
  145.6209  154.9239  135.2769 H   0  0  0  0  0  0  0  0  0  0  0  0
  140.8475  155.1284  136.5094 H   0  0  0  0  0  0  0  0  0  0  0  0
  1  2  1  0
  2  3  2  0
  3  4  1  0
  4  5  2  0
  5  6  1  0
  6  7  2  0
  7  8  1  0
  8  9  1  0
  8 10  2  0
  7 11  1  0
 11 12  1  0
 12 13  2  0
 12 14  1  0
 14 15  1  0
 15 16  1  0
 16 17  1  0
 17 18  1  0
 18 19  2  0
 18 20  1  0
 20 21  1  0
 21 22  1  0
 11 23  1  0
 23 24  2  0
 24  2  1  0
 23  5  1  0
 21 16  2  0
  1 25  1  0
  1 26  1  0
  1 27  1  0
  3 28  1  0
  4 29  1  0
  6 30  1  0
  9 31  1  0
  9 32  1  0
 15 33  1  0
 15 34  1  0
 22 35  1  0
 22 36  1  0
 22 37  1  0
 24 38  1  0
M  END
>  <UniqueID>  (2) 
2

>  <SMILES>  (2) 
Cc1ccc2cc(C(N)=O)n(C(=O)OCc3oc(=O)oc3C)c2c1

>  <Energy>  (2) 
108.38347056440693

>  <Genealogy>  (2) 
Cc1ccc2cc(C(N)=O)n(C(=O)OCc3oc(=O)oc3C)c2c1 (3D coordinates assigned)
Cc1ccc2cc(C(N)=O)n(C(=O)OCc3oc(=O)oc3C)c2c1 (optimized conformer: 108.38347056440693 kcal/mol)

>  <smiles>  (2) 
Cc1ccc2cc(C(N)=O)n(C(=O)OCc3oc(=O)oc3C)c2c1

>  <score_type>  (2) 
oracle

>  <origin>  (2) 
adg

>  <m_score__min__energy>  (2) 
-6.7000000000000002

>  <m_primary>  (2) 
energy

$$$$
2:0
     RDKit          3D

 52 54  0  0  0  0  0  0  0  0999 V2000
  139.5690  159.7180  132.4800 C   0  0  0  0  0  0  0  0  0  0  0  0
  140.9820  159.3810  132.9670 C   0  0  2  0  0  0  0  0  0  0  0  0
  141.3640  157.9010  132.6750 C   0  0  0  0  0  0  0  0  0  0  0  0
  140.7880  156.9180  133.6370 N   0  0  2  0  0  0  0  0  0  0  0  0
  139.6530  156.1530  133.0550 C   0  0  0  0  0  0  0  0  0  0  0  0
  139.9310  154.6370  132.9800 C   0  0  0  0  0  0  0  0  0  0  0  0
  141.0060  154.2180  133.9450 C   0  0  0  0  0  0  0  0  0  0  0  0
  141.0270  154.7120  135.1040 O   0  0  0  0  0  0  0  0  0  0  0  0
  142.0180  153.2790  133.5520 N   0  0  0  0  0  0  0  0  0  0  0  0
  143.3720  153.4160  133.6470 C   0  0  0  0  0  0  0  0  0  0  0  0
  144.0980  154.6090  134.1390 C   0  0  0  0  0  0  0  0  0  0  0  0
  143.4970  155.9010  134.1230 N   0  0  0  0  0  0  0  0  0  0  0  0
  145.2760  154.4860  134.5690 O   0  0  0  0  0  0  0  0  0  0  0  0
  144.0100  152.2700  133.1730 C   0  0  0  0  0  0  0  0  0  0  0  0
  142.9990  151.4170  132.7940 C   0  0  0  0  0  0  0  0  0  0  0  0
  143.0640  150.1280  132.2720 C   0  0  0  0  0  0  0  0  0  0  0  0
  141.8540  149.4650  132.0050 C   0  0  0  0  0  0  0  0  0  0  0  0
  140.6120  150.0890  132.2850 C   0  0  0  0  0  0  0  0  0  0  0  0
  139.3230  149.3770  131.9790 C   0  0  0  0  0  0  0  0  0  0  0  0
  139.4270  148.6480  130.6740 C   0  0  0  0  0  0  0  0  0  0  0  0
  139.3940  147.4300  130.6420 O   0  0  0  0  0  0  0  0  0  0  0  0
  140.5870  151.4000  132.8080 C   0  0  0  0  0  0  0  0  0  0  0  0
  141.8070  152.0460  133.0380 C   0  0  0  0  0  0  0  0  0  0  0  0
  140.3860  157.5460  134.9170 C   0  0  0  0  0  0  0  0  0  0  0  0
  141.2980  158.7410  135.2460 C   0  0  2  0  0  0  0  0  0  0  0  0
  141.0020  159.2670  136.6500 C   0  0  0  0  0  0  0  0  0  0  0  0
  141.1300  159.8000  134.3190 O   0  0  0  0  0  0  0  0  0  0  0  0
  138.9102  159.8751  133.3467 H   0  0  0  0  0  0  0  0  0  0  0  0
  139.5995  160.6341  131.8718 H   0  0  0  0  0  0  0  0  0  0  0  0
  139.1828  158.8868  131.8718 H   0  0  0  0  0  0  0  0  0  0  0  0
  141.7264  159.9485  132.3893 H   0  0  0  0  0  0  0  0  0  0  0  0
  141.0073  157.6456  131.6663 H   0  0  0  0  0  0  0  0  0  0  0  0
  142.4576  157.8328  132.7714 H   0  0  0  0  0  0  0  0  0  0  0  0
  141.5490  156.2390  133.8730 H   0  0  0  0  0  0  0  0  0  0  0  0
  138.7620  156.3167  133.6789 H   0  0  0  0  0  0  0  0  0  0  0  0
  139.5025  156.5138  132.0268 H   0  0  0  0  0  0  0  0  0  0  0  0
  139.0055  154.0930  133.2197 H   0  0  0  0  0  0  0  0  0  0  0  0
  140.2750  154.4023  131.9619 H   0  0  0  0  0  0  0  0  0  0  0  0
  142.6010  156.0830  134.6250 H   0  0  0  0  0  0  0  0  0  0  0  0
  145.0930  152.0867  133.1145 H   0  0  0  0  0  0  0  0  0  0  0  0
  144.0318  149.6438  132.0748 H   0  0  0  0  0  0  0  0  0  0  0  0
  141.8706  148.4527  131.5749 H   0  0  0  0  0  0  0  0  0  0  0  0
  139.1079  148.6557  132.7812 H   0  0  0  0  0  0  0  0  0  0  0  0
  138.5131  150.1182  131.9106 H   0  0  0  0  0  0  0  0  0  0  0  0
  139.5339  149.2161  129.7382 H   0  0  0  0  0  0  0  0  0  0  0  0
  139.6330  151.9010  133.0291 H   0  0  0  0  0  0  0  0  0  0  0  0
  139.3464  157.8964  134.8366 H   0  0  0  0  0  0  0  0  0  0  0  0
  140.4760  156.8003  135.7207 H   0  0  0  0  0  0  0  0  0  0  0  0
  142.3355  158.3801  135.1876 H   0  0  0  0  0  0  0  0  0  0  0  0
  141.3982  158.5629  137.3964 H   0  0  0  0  0  0  0  0  0  0  0  0
  141.4801  160.2488  136.7821 H   0  0  0  0  0  0  0  0  0  0  0  0
  139.9146  159.3679  136.7821 H   0  0  0  0  0  0  0  0  0  0  0  0
  1  2  1  0
  2  3  1  0
  3  4  1  0
  4  5  1  0
  5  6  1  0
  6  7  1  0
  7  8  2  0
  7  9  1  0
  9 10  1  0
 10 11  1  0
 11 12  1  0
 11 13  2  0
 10 14  2  0
 14 15  1  0
 15 16  2  0
 16 17  1  0
 17 18  2  0
 18 19  1  0
 19 20  1  0
 20 21  2  0
 18 22  1  0
 22 23  2  0
  4 24  1  0
 24 25  1  0
 25 26  1  0
 25 27  1  0
 27  2  1  0
 23  9  1  0
 23 15  1  0
  1 28  1  0
  1 29  1  0
  1 30  1  0
  2 31  1  6
  3 32  1  0
  3 33  1  0
  4 34  1  1
  5 35  1  0
  5 36  1  0
  6 37  1  0
  6 38  1  0
 12 39  1  0
 14 40  1  0
 16 41  1  0
 17 42  1  0
 19 43  1  0
 19 44  1  0
 20 45  1  0
 22 46  1  0
 24 47  1  0
 24 48  1  0
 25 49  1  1
 26 50  1  0
 26 51  1  0
 26 52  1  0
M  CHG  2   4   1  12  -1
M  END
>  <UniqueID>  (3) 
3

>  <SMILES>  (3) 
C[C@@H]1C[NH+](CCC(=O)n2c(C([NH-])=O)cc3ccc(CC=O)cc32)C[C@H](C)O1

>  <Energy>  (3) 
100.95593365895756

>  <Genealogy>  (3) 
CC1C[NH+](CCC(=O)n2c(C([NH-])=O)cc3ccc(CC=O)cc32)CC(C)O1 (protonated)
C[C@@H]1C[NH+](CCC(=O)n2c(C([NH-])=O)cc3ccc(CC=O)cc32)C[C@H](C)O1 (chirality)
C[C@@H]1C[NH+](CCC(=O)n2c(C([NH-])=O)cc3ccc(CC=O)cc32)C[C@H](C)O1 (3D coordinates assigned)
C[C@@H]1C[NH+](CCC(=O)n2c(C([NH-])=O)cc3ccc(CC=O)cc32)C[C@H](C)O1 (nonaromatic ring conformer: 100.95593365895756 kcal/mol)

>  <smiles>  (3) 
CC1CN(CCC(=O)n2c(C(N)=O)cc3ccc(CC=O)cc32)CC(C)O1

>  <score_type>  (3) 
oracle

>  <origin>  (3) 
adg

>  <m_score__min__energy>  (3) 
-7.8300000000000001

>  <m_primary>  (3) 
energy

$$$$
3:0
     RDKit          3D

 58 61  0  0  0  0  0  0  0  0999 V2000
  145.4920  159.6410  133.3890 C   0  0  0  0  0  0  0  0  0  0  0  0
  145.1630  158.2090  133.2660 N   0  0  0  0  0  0  0  0  0  0  0  0
  146.3250  157.4030  133.6840 C   0  0  0  0  0  0  0  0  0  0  0  0
  143.9720  157.9010  134.0900 C   0  0  0  0  0  0  0  0  0  0  0  0
  143.1610  159.1630  134.4110 C   0  0  0  0  0  0  0  0  0  0  0  0
  142.4750  159.6540  133.2240 N   0  0  0  0  0  0  0  0  0  0  0  0
  141.2960  160.4670  133.2430 C   0  0  0  0  0  0  0  0  0  0  0  0
  141.3530  161.6270  133.7340 O   0  0  0  0  0  0  0  0  0  0  0  0
  140.0120  159.9690  132.6700 C   0  0  0  0  0  0  0  0  0  0  0  0
  139.4210  160.6890  131.6110 C   0  0  0  0  0  0  0  0  0  0  0  0
  138.2460  160.2440  131.0040 C   0  0  0  0  0  0  0  0  0  0  0  0
  137.6370  159.0700  131.4380 C   0  0  0  0  0  0  0  0  0  0  0  0
  138.1930  158.3420  132.4900 C   0  0  0  0  0  0  0  0  0  0  0  0
  139.3670  158.7820  133.1220 C   0  0  0  0  0  0  0  0  0  0  0  0
  139.8750  157.9900  134.2580 C   0  0  0  0  0  0  0  0  0  0  0  0
  139.8840  158.5470  135.5600 C   0  0  0  0  0  0  0  0  0  0  0  0
  140.4570  157.8430  136.6320 C   0  0  0  0  0  0  0  0  0  0  0  0
  141.0090  156.5930  136.3690 C   0  0  0  0  0  0  0  0  0  0  0  0
  141.6550  155.7150  137.2080 C   0  0  0  0  0  0  0  0  0  0  0  0
  142.0210  154.6380  136.4050 C   0  0  0  0  0  0  0  0  0  0  0  0
  142.8250  153.4950  136.8800 C   0  0  0  0  0  0  0  0  0  0  0  0
  144.2440  153.6140  136.9730 N   0  0  0  0  0  0  0  0  0  0  0  0
  142.2750  152.4000  137.1800 O   0  0  0  0  0  0  0  0  0  0  0  0
  141.6000  154.8360  135.1240 N   0  0  0  0  0  0  0  0  0  0  0  0
  141.7250  153.9490  134.0010 C   0  0  0  0  0  0  0  0  0  0  0  0
  140.6810  153.4860  133.4650 O   0  0  0  0  0  0  0  0  0  0  0  0
  143.0570  153.5430  133.4910 C   0  0  0  0  0  0  0  0  0  0  0  0
  143.2970  152.2110  133.1060 C   0  0  0  0  0  0  0  0  0  0  0  0
  144.5500  151.8320  132.6130 C   0  0  0  0  0  0  0  0  0  0  0  0
  145.5790  152.7720  132.5120 C   0  0  0  0  0  0  0  0  0  0  0  0
  145.3540  154.0970  132.8990 C   0  0  0  0  0  0  0  0  0  0  0  0
  144.1010  154.4830  133.3830 C   0  0  0  0  0  0  0  0  0  0  0  0
  140.9930  156.0390  135.1160 C   0  0  0  0  0  0  0  0  0  0  0  0
  140.4160  156.7080  134.0320 C   0  0  0  0  0  0  0  0  0  0  0  0
  145.5544  159.9128  134.4531 H   0  0  0  0  0  0  0  0  0  0  0  0
  146.4588  159.8382  132.9029 H   0  0  0  0  0  0  0  0  0  0  0  0
  144.7082  160.2404  132.9029 H   0  0  0  0  0  0  0  0  0  0  0  0
  146.3724  157.3701  134.7825 H   0  0  0  0  0  0  0  0  0  0  0  0
  146.2228  156.3808  133.2907 H   0  0  0  0  0  0  0  0  0  0  0  0
  147.2466  157.8568  133.2907 H   0  0  0  0  0  0  0  0  0  0  0  0
  143.3311  157.1959  133.5404 H   0  0  0  0  0  0  0  0  0  0  0  0
  144.3159  157.4643  135.0392 H   0  0  0  0  0  0  0  0  0  0  0  0
  142.4165  158.9258  135.1853 H   0  0  0  0  0  0  0  0  0  0  0  0
  143.8498  159.9430  134.7675 H   0  0  0  0  0  0  0  0  0  0  0  0
  139.8943  161.6169  131.2576 H   0  0  0  0  0  0  0  0  0  0  0  0
  137.8002  160.8220  130.1811 H   0  0  0  0  0  0  0  0  0  0  0  0
  136.7164  158.7160  130.9510 H   0  0  0  0  0  0  0  0  0  0  0  0
  137.7072  157.4146  132.8276 H   0  0  0  0  0  0  0  0  0  0  0  0
  139.4391  159.5380  135.7331 H   0  0  0  0  0  0  0  0  0  0  0  0
  140.4690  158.2664  137.6472 H   0  0  0  0  0  0  0  0  0  0  0  0
  141.8426  155.8377  138.2849 H   0  0  0  0  0  0  0  0  0  0  0  0
  144.6820  154.4140  137.4770 H   0  0  0  0  0  0  0  0  0  0  0  0
  142.4947  151.4635  133.1932 H   0  0  0  0  0  0  0  0  0  0  0  0
  144.7258  150.7910  132.3040 H   0  0  0  0  0  0  0  0  0  0  0  0
  146.5648  152.4702  132.1285 H   0  0  0  0  0  0  0  0  0  0  0  0
  146.1646  154.8366  132.8223 H   0  0  0  0  0  0  0  0  0  0  0  0
  143.9287  155.5276  133.6816 H   0  0  0  0  0  0  0  0  0  0  0  0
  140.3852  156.2479  133.0333 H   0  0  0  0  0  0  0  0  0  0  0  0
  1  2  1  0
  2  3  1  0
  2  4  1  0
  4  5  1  0
  5  6  1  0
  6  7  1  0
  7  8  2  0
  7  9  1  0
  9 10  2  0
 10 11  1  0
 11 12  2  0
 12 13  1  0
 13 14  2  0
 14 15  1  0
 15 16  2  0
 16 17  1  0
 17 18  2  0
 18 19  1  0
 19 20  2  0
 20 21  1  0
 21 22  1  0
 21 23  2  0
 20 24  1  0
 24 25  1  0
 25 26  2  0
 25 27  1  0
 27 28  2  0
 28 29  1  0
 29 30  2  0
 30 31  1  0
 31 32  2  0
 24 33  1  0
 33 34  2  0
 14  9  1  0
 34 15  1  0
 33 18  1  0
 32 27  1  0
  1 35  1  0
  1 36  1  0
  1 37  1  0
  3 38  1  0
  3 39  1  0
  3 40  1  0
  4 41  1  0
  4 42  1  0
  5 43  1  0
  5 44  1  0
 10 45  1  0
 11 46  1  0
 12 47  1  0
 13 48  1  0
 16 49  1  0
 17 50  1  0
 19 51  1  0
 22 52  1  0
 28 53  1  0
 29 54  1  0
 30 55  1  0
 31 56  1  0
 32 57  1  0
 34 58  1  0
M  CHG  2   6  -1  22  -1
M  END
>  <UniqueID>  (4) 
4

>  <SMILES>  (4) 
CN(C)CC[N-]C(=O)c1ccccc1-c1ccc2cc(C([NH-])=O)n(C(=O)c3ccccc3)c2c1

>  <Energy>  (4) 
109.67610181415661

>  <Genealogy>  (4) 
CN(C)CC[N-]C(=O)c1ccccc1-c1ccc2cc(C([NH-])=O)n(C(=O)c3ccccc3)c2c1 (protonated)
CN(C)CC[N-]C(=O)c1ccccc1-c1ccc2cc(C([NH-])=O)n(C(=O)c3ccccc3)c2c1 (3D coordinates assigned)
CN(C)CC[N-]C(=O)c1ccccc1-c1ccc2cc(C([NH-])=O)n(C(=O)c3ccccc3)c2c1 (optimized conformer: 109.67610181415661 kcal/mol)

>  <smiles>  (4) 
CN(C)CCNC(=O)c1ccccc1-c1ccc2cc(C(N)=O)n(C(=O)c3ccccc3)c2c1

>  <score_type>  (4) 
oracle

>  <origin>  (4) 
adg

>  <m_score__min__energy>  (4) 
-10.1

>  <m_primary>  (4) 
energy

$$$$
4:0
     RDKit          3D

 45 46  0  0  0  0  0  0  0  0999 V2000
  138.6390  158.6630  131.4810 C   0  0  0  0  0  0  0  0  0  0  0  0
  138.8880  157.7760  132.6200 N   0  0  0  0  0  0  0  0  0  0  0  0
  139.6020  158.4520  133.7170 C   0  0  0  0  0  0  0  0  0  0  0  0
  140.7630  157.6260  134.3090 C   0  0  0  0  0  0  0  0  0  0  0  0
  142.1030  158.2730  134.0740 C   0  0  0  0  0  0  0  0  0  0  0  0
  142.2010  159.6830  133.9700 C   0  0  0  0  0  0  0  0  0  0  0  0
  143.4340  160.2960  133.6900 C   0  0  0  0  0  0  0  0  0  0  0  0
  144.5470  159.4760  133.5260 C   0  0  0  0  0  0  0  0  0  0  0  0
  145.8400  159.7980  133.1800 C   0  0  0  0  0  0  0  0  0  0  0  0
  146.5140  158.5810  133.1030 C   0  0  0  0  0  0  0  0  0  0  0  0
  147.9480  158.4620  132.7740 C   0  0  0  0  0  0  0  0  0  0  0  0
  148.4170  157.4840  131.8440 N   0  0  0  0  0  0  0  0  0  0  0  0
  148.7820  159.2040  133.3590 O   0  0  0  0  0  0  0  0  0  0  0  0
  145.6730  157.5480  133.3860 N   0  0  0  0  0  0  0  0  0  0  0  0
  145.9420  156.1450  133.2590 C   0  0  0  0  0  0  0  0  0  0  0  0
  146.1400  155.6430  132.1190 O   0  0  0  0  0  0  0  0  0  0  0  0
  145.9990  155.3450  134.4050 O   0  0  0  0  0  0  0  0  0  0  0  0
  147.1290  154.5440  134.7500 C   0  0  0  0  0  0  0  0  0  0  0  0
  147.3300  153.4030  133.7440 C   0  0  0  0  0  0  0  0  0  0  0  0
  148.6170  153.5750  132.9330 C   0  0  0  0  0  0  0  0  0  0  0  0
  148.6070  154.8610  132.2430 N   0  0  0  0  0  0  0  0  0  0  0  0
  144.4710  158.1120  133.6430 C   0  0  0  0  0  0  0  0  0  0  0  0
  143.2540  157.4740  133.9030 C   0  0  0  0  0  0  0  0  0  0  0  0
  138.3588  159.6613  131.8481 H   0  0  0  0  0  0  0  0  0  0  0  0
  139.5504  158.7396  130.8698 H   0  0  0  0  0  0  0  0  0  0  0  0
  137.8209  158.2541  130.8698 H   0  0  0  0  0  0  0  0  0  0  0  0
  137.9780  157.3890  132.9610 H   0  0  0  0  0  0  0  0  0  0  0  0
  140.0106  159.3984  133.3331 H   0  0  0  0  0  0  0  0  0  0  0  0
  138.8731  158.6046  134.5265 H   0  0  0  0  0  0  0  0  0  0  0  0
  140.6060  157.5212  135.3927 H   0  0  0  0  0  0  0  0  0  0  0  0
  140.7694  156.6470  133.8075 H   0  0  0  0  0  0  0  0  0  0  0  0
  141.3034  160.3033  134.1098 H   0  0  0  0  0  0  0  0  0  0  0  0
  143.5172  161.3894  133.6031 H   0  0  0  0  0  0  0  0  0  0  0  0
  146.2529  160.8019  133.0022 H   0  0  0  0  0  0  0  0  0  0  0  0
  147.7840  156.7390  131.4770 H   0  0  0  0  0  0  0  0  0  0  0  0
  149.4290  157.4470  131.5880 H   0  0  0  0  0  0  0  0  0  0  0  0
  148.0283  155.1773  134.7582 H   0  0  0  0  0  0  0  0  0  0  0  0
  146.9538  154.1050  135.7433 H   0  0  0  0  0  0  0  0  0  0  0  0
  147.3800  152.4506  134.2922 H   0  0  0  0  0  0  0  0  0  0  0  0
  146.4822  153.4140  133.0432 H   0  0  0  0  0  0  0  0  0  0  0  0
  149.4825  153.5324  133.6106 H   0  0  0  0  0  0  0  0  0  0  0  0
  148.6842  152.7677  132.1889 H   0  0  0  0  0  0  0  0  0  0  0  0
  148.1470  155.5570  132.8730 H   0  0  0  0  0  0  0  0  0  0  0  0
  147.9940  154.7740  131.4000 H   0  0  0  0  0  0  0  0  0  0  0  0
  143.1952  156.3778  133.9725 H   0  0  0  0  0  0  0  0  0  0  0  0
  1  2  1  0
  2  3  1  0
  3  4  1  0
  4  5  1  0
  5  6  2  0
  6  7  1  0
  7  8  2  0
  8  9  1  0
  9 10  2  0
 10 11  1  0
 11 12  1  0
 11 13  2  0
 10 14  1  0
 14 15  1  0
 15 16  2  0
 15 17  1  0
 17 18  1  0
 18 19  1  0
 19 20  1  0
 20 21  1  0
 14 22  1  0
 22 23  2  0
 23  5  1  0
 22  8  1  0
  1 24  1  0
  1 25  1  0
  1 26  1  0
  2 27  1  0
  3 28  1  0
  3 29  1  0
  4 30  1  0
  4 31  1  0
  6 32  1  0
  7 33  1  0
  9 34  1  0
 12 35  1  0
 12 36  1  0
 18 37  1  0
 18 38  1  0
 19 39  1  0
 19 40  1  0
 20 41  1  0
 20 42  1  0
 21 43  1  0
 21 44  1  0
 23 45  1  0
M  END
>  <UniqueID>  (5) 
5

>  <SMILES>  (5) 
CNCCc1ccc2cc(C(N)=O)n(C(=O)OCCCN)c2c1

>  <Energy>  (5) 
74.32573126831322

>  <Genealogy>  (5) 
CNCCc1ccc2cc(C(N)=O)n(C(=O)OCCCN)c2c1 (3D coordinates assigned)
CNCCc1ccc2cc(C(N)=O)n(C(=O)OCCCN)c2c1 (optimized conformer: 74.32573126831322 kcal/mol)

>  <smiles>  (5) 
CNCCc1ccc2cc(C(N)=O)n(C(=O)OCCCN)c2c1

>  <score_type>  (5) 
oracle

>  <origin>  (5) 
adg

>  <m_score__min__energy>  (5) 
-7.3899999999999997

>  <m_primary>  (5) 
energy

$$$$
5:0
     RDKit          3D

 35 37  0  0  0  0  0  0  0  0999 V2000
  147.7660  155.5330  132.9910 C   0  0  0  0  0  0  0  0  0  0  0  0
  148.4810  156.8790  132.9900 C   0  0  0  0  0  0  0  0  0  0  0  0
  147.5030  158.0020  133.1990 C   0  0  0  0  0  0  0  0  0  0  0  0
  147.9370  159.3500  133.1270 C   0  0  0  0  0  0  0  0  0  0  0  0
  147.0280  160.4070  133.3080 C   0  0  0  0  0  0  0  0  0  0  0  0
  145.6940  160.0870  133.5430 C   0  0  0  0  0  0  0  0  0  0  0  0
  144.6100  160.9020  133.7840 C   0  0  0  0  0  0  0  0  0  0  0  0
  143.5330  160.0380  133.9770 C   0  0  0  0  0  0  0  0  0  0  0  0
  142.1510  160.4880  134.2510 C   0  0  0  0  0  0  0  0  0  0  0  0
  141.2780  159.7190  135.0730 N   0  0  0  0  0  0  0  0  0  0  0  0
  141.7290  161.5580  133.7360 O   0  0  0  0  0  0  0  0  0  0  0  0
  143.9370  158.7440  133.8540 N   0  0  0  0  0  0  0  0  0  0  0  0
  143.1690  157.5560  134.0720 C   0  0  0  0  0  0  0  0  0  0  0  0
  143.1190  157.0460  135.2230 O   0  0  0  0  0  0  0  0  0  0  0  0
  142.3320  156.9890  132.9670 C   0  0  0  0  0  0  0  0  0  0  0  0
  140.9080  157.4130  133.1500 C   0  0  0  0  0  0  0  0  0  0  0  0
  140.2460  158.2710  132.2280 C   0  0  0  0  0  0  0  0  0  0  0  0
  138.9800  158.6400  132.5480 N   0  0  0  0  0  0  0  0  0  0  0  0
  138.7850  157.8560  133.9870 S   0  0  0  0  0  0  0  0  0  0  0  0
  140.2070  157.0650  134.2600 N   0  0  0  0  0  0  0  0  0  0  0  0
  145.2580  158.7890  133.5920 C   0  0  0  0  0  0  0  0  0  0  0  0
  146.1380  157.7170  133.4240 C   0  0  0  0  0  0  0  0  0  0  0  0
  147.5943  155.2098  134.0283 H   0  0  0  0  0  0  0  0  0  0  0  0
  146.8007  155.6302  132.4727 H   0  0  0  0  0  0  0  0  0  0  0  0
  148.3870  154.7875  132.4727 H   0  0  0  0  0  0  0  0  0  0  0  0
  149.2250  156.8930  133.8001 H   0  0  0  0  0  0  0  0  0  0  0  0
  148.9736  157.0164  132.0161 H   0  0  0  0  0  0  0  0  0  0  0  0
  148.9959  159.5710  132.9274 H   0  0  0  0  0  0  0  0  0  0  0  0
  147.3607  161.4546  133.2652 H   0  0  0  0  0  0  0  0  0  0  0  0
  144.5969  162.0014  133.8171 H   0  0  0  0  0  0  0  0  0  0  0  0
  141.3880  158.6840  135.1520 H   0  0  0  0  0  0  0  0  0  0  0  0
  142.7030  157.3587  131.9997 H   0  0  0  0  0  0  0  0  0  0  0  0
  142.3927  155.8909  132.9883 H   0  0  0  0  0  0  0  0  0  0  0  0
  140.7344  158.6167  131.3050 H   0  0  0  0  0  0  0  0  0  0  0  0
  145.7774  156.6786  133.4658 H   0  0  0  0  0  0  0  0  0  0  0  0
  1  2  1  0
  2  3  1  0
  3  4  2  0
  4  5  1  0
  5  6  2  0
  6  7  1  0
  7  8  2  0
  8  9  1  0
  9 10  1  0
  9 11  2  0
  8 12  1  0
 12 13  1  0
 13 14  2  0
 13 15  1  0
 15 16  1  0
 16 17  1  0
 17 18  2  0
 18 19  1  0
 19 20  1  0
 12 21  1  0
 21 22  2  0
 22  3  1  0
 21  6  1  0
 20 16  2  0
  1 23  1  0
  1 24  1  0
  1 25  1  0
  2 26  1  0
  2 27  1  0
  4 28  1  0
  5 29  1  0
  7 30  1  0
 10 31  1  0
 15 32  1  0
 15 33  1  0
 17 34  1  0
 22 35  1  0
M  CHG  1  10  -1
M  END
>  <UniqueID>  (6) 
6

>  <SMILES>  (6) 
CCc1ccc2cc(C([NH-])=O)n(C(=O)Cc3cnsn3)c2c1

>  <Energy>  (6) 
105.7770739726553

>  <Genealogy>  (6) 
CCc1ccc2cc(C([NH-])=O)n(C(=O)Cc3cnsn3)c2c1 (protonated)
CCc1ccc2cc(C([NH-])=O)n(C(=O)Cc3cnsn3)c2c1 (3D coordinates assigned)
CCc1ccc2cc(C([NH-])=O)n(C(=O)Cc3cnsn3)c2c1 (optimized conformer: 105.7770739726553 kcal/mol)

>  <smiles>  (6) 
CCc1ccc2cc(C(N)=O)n(C(=O)Cc3cnsn3)c2c1

>  <score_type>  (6) 
oracle

>  <origin>  (6) 
adg

>  <m_score__min__energy>  (6) 
-7.7400000000000002

>  <m_primary>  (6) 
energy

$$$$
6:0
     RDKit          3D

 41 43  0  0  0  0  0  0  0  0999 V2000
  140.1400  150.9790  131.8800 C   0  0  0  0  0  0  0  0  0  0  0  0
  141.3460  150.3240  132.3990 N   0  0  0  0  0  0  0  0  0  0  0  0
  141.3530  148.8720  132.5960 C   0  0  0  0  0  0  0  0  0  0  0  0
  142.5680  151.0630  132.6210 C   0  0  0  0  0  0  0  0  0  0  0  0
  143.6690  150.4470  132.6020 O   0  0  0  0  0  0  0  0  0  0  0  0
  142.5760  152.5240  132.8820 C   0  0  0  0  0  0  0  0  0  0  0  0
  141.5140  153.1320  133.5700 C   0  0  0  0  0  0  0  0  0  0  0  0
  141.5300  154.5110  133.7840 C   0  0  0  0  0  0  0  0  0  0  0  0
  142.5980  155.2900  133.3110 C   0  0  0  0  0  0  0  0  0  0  0  0
  142.6300  156.7570  133.5340 C   0  0  0  0  0  0  0  0  0  0  0  0
  141.4250  157.4730  133.7570 C   0  0  0  0  0  0  0  0  0  0  0  0
  141.4400  158.8630  133.9560 C   0  0  0  0  0  0  0  0  0  0  0  0
  142.6700  159.5110  133.9400 C   0  0  0  0  0  0  0  0  0  0  0  0
  142.9640  160.8490  134.0720 C   0  0  0  0  0  0  0  0  0  0  0  0
  144.3490  160.9320  133.9610 C   0  0  0  0  0  0  0  0  0  0  0  0
  145.1000  162.1950  134.1060 C   0  0  0  0  0  0  0  0  0  0  0  0
  146.5240  162.2010  134.2220 N   0  0  0  0  0  0  0  0  0  0  0  0
  144.4700  163.2830  134.1880 O   0  0  0  0  0  0  0  0  0  0  0  0
  144.8930  159.6990  133.7540 N   0  0  0  0  0  0  0  0  0  0  0  0
  146.2680  159.3850  133.4770 C   0  0  0  0  0  0  0  0  0  0  0  0
  146.8420  158.4480  134.0940 O   0  0  0  0  0  0  0  0  0  0  0  0
  146.9800  160.1100  132.5310 O   0  0  0  0  0  0  0  0  0  0  0  0
  143.8490  158.8380  133.7450 C   0  0  0  0  0  0  0  0  0  0  0  0
  143.8600  157.4560  133.5220 C   0  0  0  0  0  0  0  0  0  0  0  0
  143.6350  154.6420  132.6180 C   0  0  0  0  0  0  0  0  0  0  0  0
  143.5950  153.2980  132.4200 N   0  0  0  0  0  0  0  0  0  0  0  0
  139.5163  151.3178  132.7204 H   0  0  0  0  0  0  0  0  0  0  0  0
  140.4285  151.8444  131.2653 H   0  0  0  0  0  0  0  0  0  0  0  0
  139.5711  150.2659  131.2653 H   0  0  0  0  0  0  0  0  0  0  0  0
  141.3541  148.6481  133.6730 H   0  0  0  0  0  0  0  0  0  0  0  0
  140.4570  148.4346  132.1314 H   0  0  0  0  0  0  0  0  0  0  0  0
  142.2532  148.4433  132.1314 H   0  0  0  0  0  0  0  0  0  0  0  0
  140.6740  152.5249  133.9384 H   0  0  0  0  0  0  0  0  0  0  0  0
  140.7014  154.9901  134.3261 H   0  0  0  0  0  0  0  0  0  0  0  0
  140.4672  156.9323  133.7742 H   0  0  0  0  0  0  0  0  0  0  0  0
  140.5070  159.4222  134.1196 H   0  0  0  0  0  0  0  0  0  0  0  0
  142.2561  161.6757  134.2312 H   0  0  0  0  0  0  0  0  0  0  0  0
  147.0410  163.1050  134.2860 H   0  0  0  0  0  0  0  0  0  0  0  0
  147.0590  161.3110  134.3300 H   0  0  0  0  0  0  0  0  0  0  0  0
  144.8058  156.9243  133.3411 H   0  0  0  0  0  0  0  0  0  0  0  0
  144.4841  155.2262  132.2336 H   0  0  0  0  0  0  0  0  0  0  0  0
  1  2  1  0
  2  3  1  0
  2  4  1  0
  4  5  2  0
  4  6  1  0
  6  7  2  0
  7  8  1  0
  8  9  2  0
  9 10  1  0
 10 11  2  0
 11 12  1  0
 12 13  2  0
 13 14  1  0
 14 15  2  0
 15 16  1  0
 16 17  1  0
 16 18  2  0
 15 19  1  0
 19 20  1  0
 20 21  2  0
 20 22  1  0
 19 23  1  0
 23 24  2  0
  9 25  1  0
 25 26  2  0
 26  6  1  0
 24 10  1  0
 23 13  1  0
  1 27  1  0
  1 28  1  0
  1 29  1  0
  3 30  1  0
  3 31  1  0
  3 32  1  0
  7 33  1  0
  8 34  1  0
 11 35  1  0
 12 36  1  0
 14 37  1  0
 17 38  1  0
 17 39  1  0
 24 40  1  0
 25 41  1  0
M  CHG  1  22  -1
M  END
>  <UniqueID>  (7) 
7

>  <SMILES>  (7) 
CN(C)C(=O)c1ccc(-c2ccc3cc(C(N)=O)n(C(=O)[O-])c3c2)cn1

>  <Energy>  (7) 
90.7737351314965

>  <Genealogy>  (7) 
CN(C)C(=O)c1ccc(-c2ccc3cc(C(N)=O)n(C(=O)[O-])c3c2)cn1 (protonated)
CN(C)C(=O)c1ccc(-c2ccc3cc(C(N)=O)n(C(=O)[O-])c3c2)cn1 (3D coordinates assigned)
CN(C)C(=O)c1ccc(-c2ccc3cc(C(N)=O)n(C(=O)[O-])c3c2)cn1 (optimized conformer: 90.7737351314965 kcal/mol)

>  <smiles>  (7) 
CN(C)C(=O)c1ccc(-c2ccc3cc(C(N)=O)n(C(=O)O)c3c2)cn1

>  <score_type>  (7) 
oracle

>  <origin>  (7) 
adg

>  <m_score__min__energy>  (7) 
-7.9900000000000002

>  <m_primary>  (7) 
energy

$$$$
7:0
     RDKit          3D

 62 66  0  0  0  0  0  0  0  0999 V2000
  142.4090  153.3520  136.2760 C   0  0  0  0  0  0  0  0  0  0  0  0
  141.9050  154.6370  135.6990 C   0  0  0  0  0  0  0  0  0  0  0  0
  141.9620  155.7950  136.4130 N   0  0  0  0  0  0  0  0  0  0  0  0
  141.4560  156.8460  135.7350 C   0  0  0  0  0  0  0  0  0  0  0  0
  140.9150  156.3780  134.2140 S   0  0  0  0  0  0  0  0  0  0  0  0
  141.3360  154.7610  134.4230 C   0  0  0  0  0  0  0  0  0  0  0  0
  141.1390  153.7040  133.4100 C   0  0  0  0  0  0  0  0  0  0  0  0
  140.0450  153.6140  132.7910 O   0  0  0  0  0  0  0  0  0  0  0  0
  142.1820  152.7570  133.1310 N   0  0  0  0  0  0  0  0  0  0  0  0
  142.0520  151.4240  132.8840 C   0  0  0  0  0  0  0  0  0  0  0  0
  140.7920  150.6540  132.9400 C   0  0  0  0  0  0  0  0  0  0  0  0
  139.7280  150.9660  132.0450 N   0  0  0  0  0  0  0  0  0  0  0  0
  140.6530  149.7080  133.7570 O   0  0  0  0  0  0  0  0  0  0  0  0
  143.3000  150.8520  132.6330 C   0  0  0  0  0  0  0  0  0  0  0  0
  144.2030  151.8870  132.7350 C   0  0  0  0  0  0  0  0  0  0  0  0
  145.5880  151.8870  132.5950 C   0  0  0  0  0  0  0  0  0  0  0  0
  146.2660  153.1070  132.7560 C   0  0  0  0  0  0  0  0  0  0  0  0
  145.5550  154.3030  133.0410 C   0  0  0  0  0  0  0  0  0  0  0  0
  146.2640  155.5470  133.2180 N   0  0  0  0  0  0  0  0  0  0  0  0
  145.6540  156.6540  133.9680 C   0  0  0  0  0  0  0  0  0  0  0  0
  146.1580  157.9950  133.4250 C   0  0  0  0  0  0  0  0  0  0  0  0
  147.7140  158.1480  133.4580 C   0  0  0  0  0  0  0  0  0  0  0  0
  148.1900  158.9570  132.2910 N   0  0  0  0  0  0  0  0  0  0  0  0
  148.2300  160.4010  132.6210 C   0  0  0  0  0  0  0  0  0  0  0  0
  148.4760  161.2340  131.3480 C   0  0  0  0  0  0  0  0  0  0  0  0
  149.4040  160.5880  130.3900 N   0  0  0  0  0  0  0  0  0  0  0  0
  148.6890  159.9650  129.2600 C   0  0  0  0  0  0  0  0  0  0  0  0
  150.3060  159.6300  131.0560 C   0  0  0  0  0  0  0  0  0  0  0  0
  149.5330  158.5260  131.8130 C   0  0  0  0  0  0  0  0  0  0  0  0
  148.3940  156.7430  133.5490 C   0  0  0  0  0  0  0  0  0  0  0  0
  147.6490  155.6780  132.7400 C   0  0  0  0  0  0  0  0  0  0  0  0
  144.1470  154.2600  133.1670 C   0  0  0  0  0  0  0  0  0  0  0  0
  143.5020  153.0260  133.0270 C   0  0  0  0  0  0  0  0  0  0  0  0
  142.3865  153.4094  137.3743 H   0  0  0  0  0  0  0  0  0  0  0  0
  141.7694  152.5229  135.9390 H   0  0  0  0  0  0  0  0  0  0  0  0
  143.4417  153.1788  135.9390 H   0  0  0  0  0  0  0  0  0  0  0  0
  141.4043  157.8729  136.1258 H   0  0  0  0  0  0  0  0  0  0  0  0
  139.6980  151.8810  131.5430 H   0  0  0  0  0  0  0  0  0  0  0  0
  143.5165  149.7984  132.4026 H   0  0  0  0  0  0  0  0  0  0  0  0
  146.1347  150.9605  132.3654 H   0  0  0  0  0  0  0  0  0  0  0  0
  147.3614  153.1362  132.6601 H   0  0  0  0  0  0  0  0  0  0  0  0
  144.5601  156.6063  133.8627 H   0  0  0  0  0  0  0  0  0  0  0  0
  145.9307  156.5671  135.0291 H   0  0  0  0  0  0  0  0  0  0  0  0
  145.8223  158.0945  132.3822 H   0  0  0  0  0  0  0  0  0  0  0  0
  145.7464  158.7787  134.0780 H   0  0  0  0  0  0  0  0  0  0  0  0
  148.0087  158.7030  134.3608 H   0  0  0  0  0  0  0  0  0  0  0  0
  147.2701  160.6976  133.0689 H   0  0  0  0  0  0  0  0  0  0  0  0
  149.0496  160.5830  133.3317 H   0  0  0  0  0  0  0  0  0  0  0  0
  147.5112  161.3938  130.8445 H   0  0  0  0  0  0  0  0  0  0  0  0
  148.9426  162.1786  131.6642 H   0  0  0  0  0  0  0  0  0  0  0  0
  147.9123  159.2883  129.6458 H   0  0  0  0  0  0  0  0  0  0  0  0
  148.2207  160.7482  128.6458 H   0  0  0  0  0  0  0  0  0  0  0  0
  149.4008  159.3939  128.6458 H   0  0  0  0  0  0  0  0  0  0  0  0
  150.9439  159.1569  130.2949 H   0  0  0  0  0  0  0  0  0  0  0  0
  150.9046  160.1869  131.7919 H   0  0  0  0  0  0  0  0  0  0  0  0
  149.4024  157.6678  131.1374 H   0  0  0  0  0  0  0  0  0  0  0  0
  150.1255  158.2717  132.7042 H   0  0  0  0  0  0  0  0  0  0  0  0
  149.4217  156.8229  133.1651 H   0  0  0  0  0  0  0  0  0  0  0  0
  148.3796  156.4323  134.6041 H   0  0  0  0  0  0  0  0  0  0  0  0
  147.6404  155.9688  131.6792 H   0  0  0  0  0  0  0  0  0  0  0  0
  148.1619  154.7127  132.8631 H   0  0  0  0  0  0  0  0  0  0  0  0
  143.5721  155.1755  133.3704 H   0  0  0  0  0  0  0  0  0  0  0  0
  1  2  1  0
  2  3  1  0
  3  4  2  0
  4  5  1  0
  5  6  1  0
  6  7  1  0
  7  8  2  0
  7  9  1  0
  9 10  1  0
 10 11  1  0
 11 12  1  0
 11 13  2  0
 10 14  2  0
 14 15  1  0
 15 16  2  0
 16 17  1  0
 17 18  2  0
 18 19  1  0
 19 20  1  0
 20 21  1  0
 21 22  1  0
 22 23  1  0
 23 24  1  0
 24 25  1  0
 25 26  1  0
 26 27  1  0
 26 28  1  0
 28 29  1  0
 22 30  1  0
 30 31  1  0
 18 32  1  0
 32 33  2  0
  6  2  2  0
 33  9  1  0
 33 15  1  0
 31 19  1  0
 29 23  1  0
  1 34  1  0
  1 35  1  0
  1 36  1  0
  4 37  1  0
 12 38  1  0
 14 39  1  0
 16 40  1  0
 17 41  1  0
 20 42  1  0
 20 43  1  0
 21 44  1  0
 21 45  1  0
 22 46  1  0
 24 47  1  0
 24 48  1  0
 25 49  1  0
 25 50  1  0
 27 51  1  0
 27 52  1  0
 27 53  1  0
 28 54  1  0
 28 55  1  0
 29 56  1  0
 29 57  1  0
 30 58  1  0
 30 59  1  0
 31 60  1  0
 31 61  1  0
 32 62  1  0
M  CHG  1  12  -1
M  END
>  <UniqueID>  (8) 
8

>  <SMILES>  (8) 
Cc1ncsc1C(=O)n1c(C([NH-])=O)cc2ccc(N3CCC(N4CCN(C)CC4)CC3)cc21

>  <Energy>  (8) 
157.74960668713294

>  <Genealogy>  (8) 
Cc1ncsc1C(=O)n1c(C([NH-])=O)cc2ccc(N3CCC(N4CCN(C)CC4)CC3)cc21 (protonated)
Cc1ncsc1C(=O)n1c(C([NH-])=O)cc2ccc(N3CCC(N4CCN(C)CC4)CC3)cc21 (3D coordinates assigned)
Cc1ncsc1C(=O)n1c(C([NH-])=O)cc2ccc(N3CCC(N4CCN(C)CC4)CC3)cc21 (nonaromatic ring conformer: 157.74960668713294 kcal/mol)

>  <smiles>  (8) 
Cc1ncsc1C(=O)n1c(C(N)=O)cc2ccc(N3CCC(N4CCN(C)CC4)CC3)cc21

>  <score_type>  (8) 
oracle

>  <origin>  (8) 
adg

>  <m_score__min__energy>  (8) 
-10.65

>  <m_primary>  (8) 
energy

$$$$
8:0
     RDKit          3D

 40 41  0  0  0  0  0  0  0  0999 V2000
  149.6390  151.7500  131.4570 C   0  0  0  0  0  0  0  0  0  0  0  0
  148.7430  151.9720  132.6860 C   0  0  0  0  0  0  0  0  0  0  0  0
  149.4750  151.5170  133.9530 C   0  0  0  0  0  0  0  0  0  0  0  0
  147.5580  151.2230  132.5630 O   0  0  0  0  0  0  0  0  0  0  0  0
  148.4150  153.4060  132.8110 C   0  0  0  0  0  0  0  0  0  0  0  0
  148.1480  154.5780  132.9110 C   0  0  0  0  0  0  0  0  0  0  0  0
  147.8290  155.9750  133.0290 C   0  0  0  0  0  0  0  0  0  0  0  0
  148.8550  156.9420  132.9330 C   0  0  0  0  0  0  0  0  0  0  0  0
  148.5540  158.3100  133.0300 C   0  0  0  0  0  0  0  0  0  0  0  0
  147.2250  158.6730  133.2350 C   0  0  0  0  0  0  0  0  0  0  0  0
  146.6560  159.9220  133.3290 C   0  0  0  0  0  0  0  0  0  0  0  0
  145.2950  159.6920  133.5140 C   0  0  0  0  0  0  0  0  0  0  0  0
  144.3100  160.7730  133.7210 C   0  0  0  0  0  0  0  0  0  0  0  0
  142.9260  160.5800  133.4250 N   0  0  0  0  0  0  0  0  0  0  0  0
  144.6890  161.8670  134.2180 O   0  0  0  0  0  0  0  0  0  0  0  0
  145.0270  158.3560  133.5190 N   0  0  0  0  0  0  0  0  0  0  0  0
  143.7340  157.7290  133.5600 C   0  0  0  0  0  0  0  0  0  0  0  0
  143.0670  157.5840  132.5000 O   0  0  0  0  0  0  0  0  0  0  0  0
  143.2200  157.2820  134.7810 O   0  0  0  0  0  0  0  0  0  0  0  0
  142.3240  158.0560  135.5690 C   0  0  0  0  0  0  0  0  0  0  0  0
  141.3650  158.7600  134.6700 C   0  0  0  0  0  0  0  0  0  0  0  0
  140.8800  158.1660  133.6720 O   0  0  0  0  0  0  0  0  0  0  0  0
  141.0480  160.0920  134.9000 O   0  0  0  0  0  0  0  0  0  0  0  0
  146.2220  157.7440  133.3490 C   0  0  0  0  0  0  0  0  0  0  0  0
  146.4930  156.3740  133.2340 C   0  0  0  0  0  0  0  0  0  0  0  0
  150.6576  151.4976  131.7867 H   0  0  0  0  0  0  0  0  0  0  0  0
  149.2343  150.9250  130.8524 H   0  0  0  0  0  0  0  0  0  0  0  0
  149.6663  152.6685  130.8524 H   0  0  0  0  0  0  0  0  0  0  0  0
  148.9219  151.8608  134.8395 H   0  0  0  0  0  0  0  0  0  0  0  0
  149.5402  150.4190  133.9645 H   0  0  0  0  0  0  0  0  0  0  0  0
  150.4884  151.9446  133.9645 H   0  0  0  0  0  0  0  0  0  0  0  0
  146.9820  151.4270  133.3480 H   0  0  0  0  0  0  0  0  0  0  0  0
  149.8961  156.6209  132.7813 H   0  0  0  0  0  0  0  0  0  0  0  0
  149.3434  159.0715  132.9467 H   0  0  0  0  0  0  0  0  0  0  0  0
  147.1668  160.8944  133.2705 H   0  0  0  0  0  0  0  0  0  0  0  0
  142.2520  161.3690  133.5350 H   0  0  0  0  0  0  0  0  0  0  0  0
  142.5550  159.6380  133.1730 H   0  0  0  0  0  0  0  0  0  0  0  0
  141.7706  157.3956  136.2528 H   0  0  0  0  0  0  0  0  0  0  0  0
  142.8904  158.7937  136.1563 H   0  0  0  0  0  0  0  0  0  0  0  0
  145.6852  155.6305  133.3018 H   0  0  0  0  0  0  0  0  0  0  0  0
  1  2  1  0
  2  3  1  0
  2  4  1  0
  2  5  1  0
  5  6  3  0
  6  7  1  0
  7  8  2  0
  8  9  1  0
  9 10  2  0
 10 11  1  0
 11 12  2  0
 12 13  1  0
 13 14  1  0
 13 15  2  0
 12 16  1  0
 16 17  1  0
 17 18  2  0
 17 19  1  0
 19 20  1  0
 20 21  1  0
 21 22  2  0
 21 23  1  0
 16 24  1  0
 24 25  2  0
 25  7  1  0
 24 10  1  0
  1 26  1  0
  1 27  1  0
  1 28  1  0
  3 29  1  0
  3 30  1  0
  3 31  1  0
  4 32  1  0
  8 33  1  0
  9 34  1  0
 11 35  1  0
 14 36  1  0
 14 37  1  0
 20 38  1  0
 20 39  1  0
 25 40  1  0
M  CHG  1  23  -1
M  END
>  <UniqueID>  (9) 
9

>  <SMILES>  (9) 
CC(C)(O)C#Cc1ccc2cc(C(N)=O)n(C(=O)OCC(=O)[O-])c2c1

>  <Energy>  (9) 
68.53312507830248

>  <Genealogy>  (9) 
CC(C)(O)C#Cc1ccc2cc(C(N)=O)n(C(=O)OCC(=O)[O-])c2c1 (protonated)
CC(C)(O)C#Cc1ccc2cc(C(N)=O)n(C(=O)OCC(=O)[O-])c2c1 (3D coordinates assigned)
CC(C)(O)C#Cc1ccc2cc(C(N)=O)n(C(=O)OCC(=O)[O-])c2c1 (optimized conformer: 68.53312507830248 kcal/mol)

>  <smiles>  (9) 
CC(C)(O)C#Cc1ccc2cc(C(N)=O)n(C(=O)OCC(=O)O)c2c1

>  <score_type>  (9) 
oracle

>  <origin>  (9) 
adg

>  <m_score__min__energy>  (9) 
-7.5700000000000003

>  <m_primary>  (9) 
energy

$$$$
9:0
     RDKit          3D

 40 41  0  0  0  0  0  0  0  0999 V2000
  149.2110  152.6520  132.5210 C   0  0  0  0  0  0  0  0  0  0  0  0
  149.5810  154.1110  132.2840 C   0  0  0  0  0  0  0  0  0  0  0  0
  148.6220  154.9770  132.8880 O   0  0  0  0  0  0  0  0  0  0  0  0
  147.6080  154.5270  133.7410 C   0  0  0  0  0  0  0  0  0  0  0  0
  147.8120  154.4020  134.9790 O   0  0  0  0  0  0  0  0  0  0  0  0
  146.2540  154.2330  133.1790 C   0  0  0  0  0  0  0  0  0  0  0  0
  145.5280  155.5320  132.8300 C   0  0  0  0  0  0  0  0  0  0  0  0
  145.5780  156.4810  133.9910 C   0  0  0  0  0  0  0  0  0  0  0  0
  145.8140  156.0340  135.1460 O   0  0  0  0  0  0  0  0  0  0  0  0
  145.4620  157.8970  133.7860 N   0  0  0  0  0  0  0  0  0  0  0  0
  146.4640  158.8080  133.6370 C   0  0  0  0  0  0  0  0  0  0  0  0
  147.9030  158.5020  133.4940 C   0  0  0  0  0  0  0  0  0  0  0  0
  148.4560  157.2800  133.9850 N   0  0  0  0  0  0  0  0  0  0  0  0
  148.6510  159.3170  132.8900 O   0  0  0  0  0  0  0  0  0  0  0  0
  145.9450  160.1010  133.5970 C   0  0  0  0  0  0  0  0  0  0  0  0
  144.5820  159.9490  133.7150 C   0  0  0  0  0  0  0  0  0  0  0  0
  143.5720  160.9050  133.7370 C   0  0  0  0  0  0  0  0  0  0  0  0
  142.2480  160.4610  133.8970 C   0  0  0  0  0  0  0  0  0  0  0  0
  141.9590  159.0800  134.0560 C   0  0  0  0  0  0  0  0  0  0  0  0
  140.5310  158.6150  134.1870 C   0  0  0  0  0  0  0  0  0  0  0  0
  140.0740  158.7940  135.4810 F   0  0  0  0  0  0  0  0  0  0  0  0
  139.7060  159.3280  133.3350 F   0  0  0  0  0  0  0  0  0  0  0  0
  140.4590  157.2730  133.8650 F   0  0  0  0  0  0  0  0  0  0  0  0
  143.0140  158.1380  134.0040 C   0  0  0  0  0  0  0  0  0  0  0  0
  144.3190  158.6100  133.8280 C   0  0  0  0  0  0  0  0  0  0  0  0
  149.1616  152.4573  133.6025 H   0  0  0  0  0  0  0  0  0  0  0  0
  148.2315  152.4435  132.0658 H   0  0  0  0  0  0  0  0  0  0  0  0
  149.9727  152.0019  132.0658 H   0  0  0  0  0  0  0  0  0  0  0  0
  150.5714  154.3082  132.7202 H   0  0  0  0  0  0  0  0  0  0  0  0
  149.5975  154.3010  131.2007 H   0  0  0  0  0  0  0  0  0  0  0  0
  146.3635  153.6236  132.2698 H   0  0  0  0  0  0  0  0  0  0  0  0
  145.6663  153.6871  133.9317 H   0  0  0  0  0  0  0  0  0  0  0  0
  146.0134  155.9970  131.9593 H   0  0  0  0  0  0  0  0  0  0  0  0
  144.4773  155.3047  132.5970 H   0  0  0  0  0  0  0  0  0  0  0  0
  149.4850  157.1110  133.9250 H   0  0  0  0  0  0  0  0  0  0  0  0
  147.8460  156.5040  134.3200 H   0  0  0  0  0  0  0  0  0  0  0  0
  146.5051  161.0420  133.4933 H   0  0  0  0  0  0  0  0  0  0  0  0
  143.8023  161.9755  133.6324 H   0  0  0  0  0  0  0  0  0  0  0  0
  141.4261  161.1920  133.8991 H   0  0  0  0  0  0  0  0  0  0  0  0
  142.8127  157.0608  134.0997 H   0  0  0  0  0  0  0  0  0  0  0  0
  1  2  1  0
  2  3  1  0
  3  4  1  0
  4  5  2  0
  4  6  1  0
  6  7  1  0
  7  8  1  0
  8  9  2  0
  8 10  1  0
 10 11  1  0
 11 12  1  0
 12 13  1  0
 12 14  2  0
 11 15  2  0
 15 16  1  0
 16 17  2  0
 17 18  1  0
 18 19  2  0
 19 20  1  0
 20 21  1  0
 20 22  1  0
 20 23  1  0
 19 24  1  0
 24 25  2  0
 25 10  1  0
 25 16  1  0
  1 26  1  0
  1 27  1  0
  1 28  1  0
  2 29  1  0
  2 30  1  0
  6 31  1  0
  6 32  1  0
  7 33  1  0
  7 34  1  0
 13 35  1  0
 13 36  1  0
 15 37  1  0
 17 38  1  0
 18 39  1  0
 24 40  1  0
M  END
>  <UniqueID>  (10) 
10

>  <SMILES>  (10) 
CCOC(=O)CCC(=O)n1c(C(N)=O)cc2ccc(C(F)(F)F)cc21

>  <Energy>  (10) 
72.24350395299545

>  <Genealogy>  (10) 
CCOC(=O)CCC(=O)n1c(C(N)=O)cc2ccc(C(F)(F)F)cc21 (3D coordinates assigned)
CCOC(=O)CCC(=O)n1c(C(N)=O)cc2ccc(C(F)(F)F)cc21 (optimized conformer: 72.24350395299545 kcal/mol)

>  <smiles>  (10) 
CCOC(=O)CCC(=O)n1c(C(N)=O)cc2ccc(C(F)(F)F)cc21

>  <score_type>  (10) 
oracle

>  <origin>  (10) 
adg

>  <m_score__min__energy>  (10) 
-6.4400000000000004

>  <m_primary>  (10) 
energy

$$$$
10:0
     RDKit          3D

 34 36  0  0  0  0  0  0  0  0999 V2000
  142.4000  157.3290  132.3270 N   0  0  0  0  0  0  0  0  0  0  0  0
  143.2530  156.3960  132.9920 C   0  0  0  0  0  0  0  0  0  0  0  0
  144.2430  156.8210  133.6450 O   0  0  0  0  0  0  0  0  0  0  0  0
  142.9580  154.9500  132.9820 C   0  0  0  0  0  0  0  0  0  0  0  0
  143.9330  153.9710  132.8100 C   0  0  0  0  0  0  0  0  0  0  0  0
  143.2710  152.7730  132.9330 C   0  0  0  0  0  0  0  0  0  0  0  0
  143.7550  151.4720  132.8440 C   0  0  0  0  0  0  0  0  0  0  0  0
  142.8390  150.4170  132.9810 C   0  0  0  0  0  0  0  0  0  0  0  0
  141.4620  150.6790  133.1850 C   0  0  0  0  0  0  0  0  0  0  0  0
  140.4930  149.5410  133.3570 C   0  0  0  0  0  0  0  0  0  0  0  0
  139.9760  149.1000  132.0210 C   0  0  0  0  0  0  0  0  0  0  0  0
  139.2670  149.9890  131.1970 C   0  0  0  0  0  0  0  0  0  0  0  0
  138.8320  149.5600  129.9420 C   0  0  0  0  0  0  0  0  0  0  0  0
  139.1110  148.2600  129.5170 C   0  0  0  0  0  0  0  0  0  0  0  0
  139.8270  147.4050  130.3580 C   0  0  0  0  0  0  0  0  0  0  0  0
  140.2440  147.8410  131.5770 N   0  0  0  0  0  0  0  0  0  0  0  0
  141.0070  152.0130  133.2790 C   0  0  0  0  0  0  0  0  0  0  0  0
  141.9450  153.0460  133.1600 C   0  0  0  0  0  0  0  0  0  0  0  0
  141.7360  154.3820  133.1910 N   0  0  0  0  0  0  0  0  0  0  0  0
  140.4700  155.0560  133.2910 C   0  0  0  0  0  0  0  0  0  0  0  0
  140.4130  156.2580  133.6620 O   0  0  0  0  0  0  0  0  0  0  0  0
  139.2910  154.3850  132.9870 O   0  0  0  0  0  0  0  0  0  0  0  0
  142.6440  158.3450  132.3150 H   0  0  0  0  0  0  0  0  0  0  0  0
  141.4870  157.0300  131.9200 H   0  0  0  0  0  0  0  0  0  0  0  0
  145.0050  154.1239  132.6168 H   0  0  0  0  0  0  0  0  0  0  0  0
  144.8235  151.2757  132.6714 H   0  0  0  0  0  0  0  0  0  0  0  0
  143.1940  149.3771  132.9295 H   0  0  0  0  0  0  0  0  0  0  0  0
  141.0040  148.6984  133.8458 H   0  0  0  0  0  0  0  0  0  0  0  0
  139.6489  149.8768  133.9773 H   0  0  0  0  0  0  0  0  0  0  0  0
  139.0564  151.0136  131.5373 H   0  0  0  0  0  0  0  0  0  0  0  0
  138.2706  150.2448  129.2894 H   0  0  0  0  0  0  0  0  0  0  0  0
  138.7706  147.9126  128.5304 H   0  0  0  0  0  0  0  0  0  0  0  0
  140.0537  146.3785  130.0343 H   0  0  0  0  0  0  0  0  0  0  0  0
  139.9420  152.2349  133.4417 H   0  0  0  0  0  0  0  0  0  0  0  0
  1  2  1  0
  2  3  2  0
  2  4  1  0
  4  5  2  0
  5  6  1  0
  6  7  2  0
  7  8  1  0
  8  9  2  0
  9 10  1  0
 10 11  1  0
 11 12  2  0
 12 13  1  0
 13 14  2  0
 14 15  1  0
 15 16  2  0
  9 17  1  0
 17 18  2  0
 18 19  1  0
 19 20  1  0
 20 21  2  0
 20 22  1  0
 19  4  1  0
 18  6  1  0
 16 11  1  0
  1 23  1  0
  1 24  1  0
  5 25  1  0
  7 26  1  0
  8 27  1  0
 10 28  1  0
 10 29  1  0
 12 30  1  0
 13 31  1  0
 14 32  1  0
 15 33  1  0
 17 34  1  0
M  CHG  1  22  -1
M  END
>  <UniqueID>  (11) 
11

>  <SMILES>  (11) 
NC(=O)c1cc2ccc(Cc3ccccn3)cc2n1C(=O)[O-]

>  <Energy>  (11) 
75.7526583964269

>  <Genealogy>  (11) 
NC(=O)c1cc2ccc(Cc3ccccn3)cc2n1C(=O)[O-] (protonated)
NC(=O)c1cc2ccc(Cc3ccccn3)cc2n1C(=O)[O-] (3D coordinates assigned)
NC(=O)c1cc2ccc(Cc3ccccn3)cc2n1C(=O)[O-] (optimized conformer: 75.7526583964269 kcal/mol)

>  <smiles>  (11) 
NC(=O)c1cc2ccc(Cc3ccccn3)cc2n1C(=O)O

>  <score_type>  (11) 
oracle

>  <origin>  (11) 
adg

>  <m_score__min__energy>  (11) 
-7.5700000000000003

>  <m_primary>  (11) 
energy

$$$$
11:0
     RDKit          3D

 33 34  0  0  0  0  0  0  0  0999 V2000
  141.8770  157.4960  134.3390 C   0  0  0  0  0  0  0  0  0  0  0  0
  142.0410  159.0070  134.4660 C   0  0  0  0  0  0  0  0  0  0  0  0
  141.1390  159.6330  133.6210 F   0  0  0  0  0  0  0  0  0  0  0  0
  141.7430  159.3890  135.7640 F   0  0  0  0  0  0  0  0  0  0  0  0
  143.4580  159.4110  134.1160 C   0  0  0  0  0  0  0  0  0  0  0  0
  143.8260  160.7820  134.0880 C   0  0  0  0  0  0  0  0  0  0  0  0
  145.1280  161.1680  133.7320 C   0  0  0  0  0  0  0  0  0  0  0  0
  146.0340  160.1700  133.3860 C   0  0  0  0  0  0  0  0  0  0  0  0
  147.3570  160.2650  133.0200 C   0  0  0  0  0  0  0  0  0  0  0  0
  147.7710  158.9540  132.7880 C   0  0  0  0  0  0  0  0  0  0  0  0
  149.1200  158.6000  132.2960 C   0  0  0  0  0  0  0  0  0  0  0  0
  149.5210  157.2320  132.2520 N   0  0  0  0  0  0  0  0  0  0  0  0
  149.9340  159.4930  131.9430 O   0  0  0  0  0  0  0  0  0  0  0  0
  146.7440  158.0840  133.0070 N   0  0  0  0  0  0  0  0  0  0  0  0
  146.7760  156.6500  132.9310 C   0  0  0  0  0  0  0  0  0  0  0  0
  147.1470  156.0840  131.8670 O   0  0  0  0  0  0  0  0  0  0  0  0
  146.4000  155.8650  134.0700 N   0  0  0  0  0  0  0  0  0  0  0  0
  147.3580  155.1510  134.9060 C   0  0  0  0  0  0  0  0  0  0  0  0
  146.6470  154.1890  135.8010 C   0  0  0  0  0  0  0  0  0  0  0  0
  145.3890  154.1200  135.7820 O   0  0  0  0  0  0  0  0  0  0  0  0
  147.3710  153.3380  136.6260 O   0  0  0  0  0  0  0  0  0  0  0  0
  145.6880  158.8450  133.3720 C   0  0  0  0  0  0  0  0  0  0  0  0
  144.4030  158.4280  133.7400 C   0  0  0  0  0  0  0  0  0  0  0  0
  141.8283  157.0469  135.3420 H   0  0  0  0  0  0  0  0  0  0  0  0
  140.9493  157.2726  133.7917 H   0  0  0  0  0  0  0  0  0  0  0  0
  142.7351  157.0788  133.7917 H   0  0  0  0  0  0  0  0  0  0  0  0
  143.0828  161.5501  134.3481 H   0  0  0  0  0  0  0  0  0  0  0  0
  145.4232  162.2276  133.7267 H   0  0  0  0  0  0  0  0  0  0  0  0
  147.9599  161.1806  132.9297 H   0  0  0  0  0  0  0  0  0  0  0  0
  149.2020  156.6040  131.4810 H   0  0  0  0  0  0  0  0  0  0  0  0
  148.0597  154.5987  134.2637 H   0  0  0  0  0  0  0  0  0  0  0  0
  147.9059  155.8776  135.5239 H   0  0  0  0  0  0  0  0  0  0  0  0
  144.1348  157.3612  133.7368 H   0  0  0  0  0  0  0  0  0  0  0  0
  1  2  1  0
  2  3  1  0
  2  4  1  0
  2  5  1  0
  5  6  2  0
  6  7  1  0
  7  8  2  0
  8  9  1  0
  9 10  2  0
 10 11  1  0
 11 12  1  0
 11 13  2  0
 10 14  1  0
 14 15  1  0
 15 16  2  0
 15 17  1  0
 17 18  1  0
 18 19  1  0
 19 20  2  0
 19 21  1  0
 14 22  1  0
 22 23  2  0
 23  5  1  0
 22  8  1  0
  1 24  1  0
  1 25  1  0
  1 26  1  0
  6 27  1  0
  7 28  1  0
  9 29  1  0
 12 30  1  0
 18 31  1  0
 18 32  1  0
 23 33  1  0
M  CHG  3  12  -1  17  -1  21  -1
M  END
>  <UniqueID>  (12) 
12

>  <SMILES>  (12) 
CC(F)(F)c1ccc2cc(C([NH-])=O)n(C(=O)[N-]CC(=O)[O-])c2c1

>  <Energy>  (12) 
67.65954093028495

>  <Genealogy>  (12) 
CC(F)(F)c1ccc2cc(C([NH-])=O)n(C(=O)[N-]CC(=O)[O-])c2c1 (protonated)
CC(F)(F)c1ccc2cc(C([NH-])=O)n(C(=O)[N-]CC(=O)[O-])c2c1 (3D coordinates assigned)
CC(F)(F)c1ccc2cc(C([NH-])=O)n(C(=O)[N-]CC(=O)[O-])c2c1 (optimized conformer: 67.65954093028495 kcal/mol)

>  <smiles>  (12) 
CC(F)(F)c1ccc2cc(C(N)=O)n(C(=O)NCC(=O)O)c2c1

>  <score_type>  (12) 
oracle

>  <origin>  (12) 
adg

>  <m_score__min__energy>  (12) 
-6.4100000000000001

>  <m_primary>  (12) 
energy

$$$$
12:0
     RDKit          3D

 48 49  0  0  0  0  0  0  0  0999 V2000
  146.2330  157.1200  133.7920 C   0  0  0  0  0  0  0  0  0  0  0  0
  144.7170  157.0810  133.9560 C   0  0  1  0  0  0  0  0  0  0  0  0
  144.3780  156.0360  134.8630 O   0  0  0  0  0  0  0  0  0  0  0  0
  143.7540  154.8520  134.4600 C   0  0  0  0  0  0  0  0  0  0  0  0
  144.0100  154.3380  133.3350 O   0  0  0  0  0  0  0  0  0  0  0  0
  142.7940  154.1740  135.3850 C   0  0  0  0  0  0  0  0  0  0  0  0
  141.6830  155.1110  135.7570 C   0  0  0  0  0  0  0  0  0  0  0  0
  140.9470  155.5910  134.8530 O   0  0  0  0  0  0  0  0  0  0  0  0
  141.4800  155.5050  137.1240 N   0  0  0  0  0  0  0  0  0  0  0  0
  141.3550  156.7650  137.6250 C   0  0  0  0  0  0  0  0  0  0  0  0
  141.5780  158.0190  136.8780 C   0  0  0  0  0  0  0  0  0  0  0  0
  142.1140  158.0090  135.5540 N   0  0  0  0  0  0  0  0  0  0  0  0
  141.3420  159.1230  137.4380 O   0  0  0  0  0  0  0  0  0  0  0  0
  141.0240  156.7240  138.9770 C   0  0  0  0  0  0  0  0  0  0  0  0
  140.9680  155.3860  139.2970 C   0  0  0  0  0  0  0  0  0  0  0  0
  140.6560  154.7650  140.5020 C   0  0  0  0  0  0  0  0  0  0  0  0
  140.6300  153.3600  140.5320 C   0  0  0  0  0  0  0  0  0  0  0  0
  140.9250  152.6030  139.3680 C   0  0  0  0  0  0  0  0  0  0  0  0
  140.8300  151.0980  139.4070 C   0  0  0  0  0  0  0  0  0  0  0  0
  139.8550  150.6420  138.5380 F   0  0  0  0  0  0  0  0  0  0  0  0
  140.5120  150.6970  140.6910 F   0  0  0  0  0  0  0  0  0  0  0  0
  142.0370  150.5290  139.0420 F   0  0  0  0  0  0  0  0  0  0  0  0
  141.2130  153.2730  138.1570 C   0  0  0  0  0  0  0  0  0  0  0  0
  141.2480  154.6710  138.1610 C   0  0  0  0  0  0  0  0  0  0  0  0
  144.2470  158.3280  134.4710 O   0  0  0  0  0  0  0  0  0  0  0  0
  144.1680  159.4960  133.7080 C   0  0  0  0  0  0  0  0  0  0  0  0
  144.8180  159.6050  132.6300 O   0  0  0  0  0  0  0  0  0  0  0  0
  143.3580  160.5440  134.1550 O   0  0  0  0  0  0  0  0  0  0  0  0
  142.1200  160.8810  133.5360 C   0  0  0  0  0  0  0  0  0  0  0  0
  141.0730  160.2200  134.2070 O   0  0  0  0  0  0  0  0  0  0  0  0
  140.5220  158.9430  133.2220 P   0  0  0  0  0  0  0  0  0  0  0  0
  140.2350  159.4570  131.8280 O   0  0  0  0  0  0  0  0  0  0  0  0
  139.1170  158.2500  133.8700 O   0  0  0  0  0  0  0  0  0  0  0  0
  141.7280  157.7600  133.1350 O   0  0  0  0  0  0  0  0  0  0  0  0
  146.7089  157.1322  134.7837 H   0  0  0  0  0  0  0  0  0  0  0  0
  146.5648  156.2301  133.2370 H   0  0  0  0  0  0  0  0  0  0  0  0
  146.5186  158.0258  133.2370 H   0  0  0  0  0  0  0  0  0  0  0  0
  144.2476  156.8997  132.9779 H   0  0  0  0  0  0  0  0  0  0  0  0
  142.3715  153.2896  134.8857 H   0  0  0  0  0  0  0  0  0  0  0  0
  143.3283  153.8708  136.2975 H   0  0  0  0  0  0  0  0  0  0  0  0
  142.4900  157.1340  135.1280 H   0  0  0  0  0  0  0  0  0  0  0  0
  142.2440  158.9060  135.0370 H   0  0  0  0  0  0  0  0  0  0  0  0
  140.8454  157.5783  139.6465 H   0  0  0  0  0  0  0  0  0  0  0  0
  140.4364  155.3554  141.4038 H   0  0  0  0  0  0  0  0  0  0  0  0
  140.3781  152.8409  141.4685 H   0  0  0  0  0  0  0  0  0  0  0  0
  141.4051  152.7078  137.2330 H   0  0  0  0  0  0  0  0  0  0  0  0
  141.9644  161.9685  133.5919 H   0  0  0  0  0  0  0  0  0  0  0  0
  142.1373  160.5708  132.4808 H   0  0  0  0  0  0  0  0  0  0  0  0
  1  2  1  0
  2  3  1  0
  3  4  1  0
  4  5  2  0
  4  6  1  0
  6  7  1  0
  7  8  2  0
  7  9  1  0
  9 10  1  0
 10 11  1  0
 11 12  1  0
 11 13  2  0
 10 14  2  0
 14 15  1  0
 15 16  2  0
 16 17  1  0
 17 18  2  0
 18 19  1  0
 19 20  1  0
 19 21  1  0
 19 22  1  0
 18 23  1  0
 23 24  2  0
  2 25  1  0
 25 26  1  0
 26 27  2  0
 26 28  1  0
 28 29  1  0
 29 30  1  0
 30 31  1  0
 31 32  2  0
 31 33  1  0
 31 34  1  0
 24  9  1  0
 24 15  1  0
  1 35  1  0
  1 36  1  0
  1 37  1  0
  2 38  1  6
  6 39  1  0
  6 40  1  0
 12 41  1  0
 12 42  1  0
 14 43  1  0
 16 44  1  0
 17 45  1  0
 23 46  1  0
 29 47  1  0
 29 48  1  0
M  CHG  2  33  -1  34  -1
M  END
>  <UniqueID>  (13) 
13

>  <SMILES>  (13) 
C[C@@H](OC(=O)CC(=O)n1c(C(N)=O)cc2ccc(C(F)(F)F)cc21)OC(=O)OCOP(=O)([O-])[O-]

>  <Energy>  (13) 
78.926719195212

>  <Genealogy>  (13) 
CC(OC(=O)CC(=O)n1c(C(N)=O)cc2ccc(C(F)(F)F)cc21)OC(=O)OCOP(=O)([O-])[O-] (protonated)
C[C@@H](OC(=O)CC(=O)n1c(C(N)=O)cc2ccc(C(F)(F)F)cc21)OC(=O)OCOP(=O)([O-])[O-] (chirality)
C[C@@H](OC(=O)CC(=O)n1c(C(N)=O)cc2ccc(C(F)(F)F)cc21)OC(=O)OCOP(=O)([O-])[O-] (3D coordinates assigned)
C[C@@H](OC(=O)CC(=O)n1c(C(N)=O)cc2ccc(C(F)(F)F)cc21)OC(=O)OCOP(=O)([O-])[O-] (optimized conformer: 78.926719195212 kcal/mol)

>  <smiles>  (13) 
CC(OC(=O)CC(=O)n1c(C(N)=O)cc2ccc(C(F)(F)F)cc21)OC(=O)OCOP(=O)(O)O

>  <score_type>  (13) 
oracle

>  <origin>  (13) 
adg

>  <m_score__min__energy>  (13) 
-5.7999999999999998

>  <m_primary>  (13) 
energy

$$$$
13:0
     RDKit          3D

 46 47  0  0  0  0  0  0  0  0999 V2000
  142.3420  155.6390  135.6240 C   0  0  0  0  0  0  0  0  0  0  0  0
  142.0310  156.6470  134.6040 N   0  0  0  0  0  0  0  0  0  0  0  0
  140.7020  156.6410  133.9800 C   0  0  0  0  0  0  0  0  0  0  0  0
  143.0230  157.6380  134.2200 C   0  0  0  0  0  0  0  0  0  0  0  0
  142.6440  158.9890  133.9770 C   0  0  0  0  0  0  0  0  0  0  0  0
  143.5940  159.9500  133.5940 C   0  0  0  0  0  0  0  0  0  0  0  0
  144.9190  159.5470  133.4670 C   0  0  0  0  0  0  0  0  0  0  0  0
  146.0230  160.2650  133.0740 C   0  0  0  0  0  0  0  0  0  0  0  0
  147.0700  159.3500  133.0630 C   0  0  0  0  0  0  0  0  0  0  0  0
  148.3950  159.6670  132.4960 C   0  0  0  0  0  0  0  0  0  0  0  0
  149.5760  159.0120  132.9630 N   0  0  0  0  0  0  0  0  0  0  0  0
  148.4800  160.4860  131.5420 O   0  0  0  0  0  0  0  0  0  0  0  0
  146.6440  158.1200  133.4790 N   0  0  0  0  0  0  0  0  0  0  0  0
  147.4240  156.9220  133.6730 C   0  0  0  0  0  0  0  0  0  0  0  0
  148.4660  156.9710  134.3820 O   0  0  0  0  0  0  0  0  0  0  0  0
  147.0000  155.5910  133.0910 C   0  0  0  0  0  0  0  0  0  0  0  0
  146.8720  154.4090  134.0970 C   0  0  0  0  0  0  0  0  0  0  0  0
  147.3890  153.1360  133.3820 C   0  0  0  0  0  0  0  0  0  0  0  0
  145.4050  154.1310  134.5030 C   0  0  0  0  0  0  0  0  0  0  0  0
  147.7360  154.6460  135.2740 N   0  0  0  0  0  0  0  0  0  0  0  0
  147.6420  154.0030  136.5570 C   0  0  0  0  0  0  0  0  0  0  0  0
  146.9250  152.9860  136.7300 O   0  0  0  0  0  0  0  0  0  0  0  0
  148.3930  154.4890  137.6200 O   0  0  0  0  0  0  0  0  0  0  0  0
  145.3130  158.2560  133.6930 C   0  0  0  0  0  0  0  0  0  0  0  0
  144.3860  157.2750  134.0660 C   0  0  0  0  0  0  0  0  0  0  0  0
  142.2072  156.0760  136.6244 H   0  0  0  0  0  0  0  0  0  0  0  0
  141.6677  154.7779  135.5061 H   0  0  0  0  0  0  0  0  0  0  0  0
  143.3842  155.3075  135.5061 H   0  0  0  0  0  0  0  0  0  0  0  0
  139.9293  156.6375  134.7629 H   0  0  0  0  0  0  0  0  0  0  0  0
  140.5864  157.5386  133.3548 H   0  0  0  0  0  0  0  0  0  0  0  0
  140.5945  155.7424  133.3548 H   0  0  0  0  0  0  0  0  0  0  0  0
  141.5906  159.2846  134.0911 H   0  0  0  0  0  0  0  0  0  0  0  0
  143.2984  160.9916  133.4000 H   0  0  0  0  0  0  0  0  0  0  0  0
  146.0686  161.3348  132.8220 H   0  0  0  0  0  0  0  0  0  0  0  0
  150.5130  159.3080  132.6050 H   0  0  0  0  0  0  0  0  0  0  0  0
  149.5230  158.2050  133.6210 H   0  0  0  0  0  0  0  0  0  0  0  0
  146.0198  155.7314  132.6119 H   0  0  0  0  0  0  0  0  0  0  0  0
  147.8054  155.3026  132.3996 H   0  0  0  0  0  0  0  0  0  0  0  0
  147.6915  152.3911  134.1327 H   0  0  0  0  0  0  0  0  0  0  0  0
  146.5892  152.7185  132.7528 H   0  0  0  0  0  0  0  0  0  0  0  0
  148.2535  153.3944  132.7528 H   0  0  0  0  0  0  0  0  0  0  0  0
  145.3247  154.1158  135.6000 H   0  0  0  0  0  0  0  0  0  0  0  0
  144.7565  154.9222  134.0988 H   0  0  0  0  0  0  0  0  0  0  0  0
  145.0909  153.1573  134.0988 H   0  0  0  0  0  0  0  0  0  0  0  0
  148.4620  155.3980  135.2090 H   0  0  0  0  0  0  0  0  0  0  0  0
  144.7098  156.2378  134.2372 H   0  0  0  0  0  0  0  0  0  0  0  0
  1  2  1  0
  2  3  1  0
  2  4  1  0
  4  5  2  0
  5  6  1  0
  6  7  2  0
  7  8  1  0
  8  9  2  0
  9 10  1  0
 10 11  1  0
 10 12  2  0
  9 13  1  0
 13 14  1  0
 14 15  2  0
 14 16  1  0
 16 17  1  0
 17 18  1  0
 17 19  1  0
 17 20  1  0
 20 21  1  0
 21 22  2  0
 21 23  1  0
 13 24  1  0
 24 25  2  0
 25  4  1  0
 24  7  1  0
  1 26  1  0
  1 27  1  0
  1 28  1  0
  3 29  1  0
  3 30  1  0
  3 31  1  0
  5 32  1  0
  6 33  1  0
  8 34  1  0
 11 35  1  0
 11 36  1  0
 16 37  1  0
 16 38  1  0
 18 39  1  0
 18 40  1  0
 18 41  1  0
 19 42  1  0
 19 43  1  0
 19 44  1  0
 20 45  1  0
 25 46  1  0
M  CHG  1  23  -1
M  END
>  <UniqueID>  (14) 
14

>  <SMILES>  (14) 
CN(C)c1ccc2cc(C(N)=O)n(C(=O)CC(C)(C)NC(=O)[O-])c2c1

>  <Energy>  (14) 
88.31529477761319

>  <Genealogy>  (14) 
CN(C)c1ccc2cc(C(N)=O)n(C(=O)CC(C)(C)NC(=O)[O-])c2c1 (protonated)
CN(C)c1ccc2cc(C(N)=O)n(C(=O)CC(C)(C)NC(=O)[O-])c2c1 (3D coordinates assigned)
CN(C)c1ccc2cc(C(N)=O)n(C(=O)CC(C)(C)NC(=O)[O-])c2c1 (optimized conformer: 88.31529477761319 kcal/mol)

>  <smiles>  (14) 
CN(C)c1ccc2cc(C(N)=O)n(C(=O)CC(C)(C)NC(=O)O)c2c1

>  <score_type>  (14) 
oracle

>  <origin>  (14) 
adg

>  <m_score__min__energy>  (14) 
-8.0500000000000007

>  <m_primary>  (14) 
energy

$$$$
14:0
     RDKit          3D

 33 35  0  0  0  0  0  0  0  0999 V2000
  148.8700  158.8890  134.5060 N   0  0  0  0  0  0  0  0  0  0  0  0
  148.1010  159.3340  133.3910 C   0  0  0  0  0  0  0  0  0  0  0  0
  148.6820  159.5790  132.3010 O   0  0  0  0  0  0  0  0  0  0  0  0
  146.6330  159.4820  133.4890 C   0  0  0  0  0  0  0  0  0  0  0  0
  145.9860  160.7120  133.6100 C   0  0  0  0  0  0  0  0  0  0  0  0
  144.6410  160.4170  133.6220 C   0  0  0  0  0  0  0  0  0  0  0  0
  143.5410  161.2580  133.7390 C   0  0  0  0  0  0  0  0  0  0  0  0
  142.2620  160.6740  133.7520 C   0  0  0  0  0  0  0  0  0  0  0  0
  142.1030  159.2640  133.6580 C   0  0  0  0  0  0  0  0  0  0  0  0
  140.7470  158.6560  133.6830 C   0  0  0  0  0  0  0  0  0  0  0  0
  139.9200  158.3800  132.6080 C   0  0  0  0  0  0  0  0  0  0  0  0
  138.7780  157.8280  133.0580 N   0  0  0  0  0  0  0  0  0  0  0  0
  138.8410  157.7420  134.3780 N   0  0  0  0  0  0  0  0  0  0  0  0
  140.0250  158.2360  134.7850 C   0  0  0  0  0  0  0  0  0  0  0  0
  143.2530  158.4470  133.5430 C   0  0  0  0  0  0  0  0  0  0  0  0
  144.5100  159.0590  133.5130 C   0  0  0  0  0  0  0  0  0  0  0  0
  145.7220  158.4710  133.4260 N   0  0  0  0  0  0  0  0  0  0  0  0
  145.9810  157.0600  133.3730 C   0  0  0  0  0  0  0  0  0  0  0  0
  145.0520  156.2730  133.0460 O   0  0  0  0  0  0  0  0  0  0  0  0
  147.3160  156.5280  133.7020 C   0  0  0  0  0  0  0  0  0  0  0  0
  147.6650  156.4200  134.9080 O   0  0  0  0  0  0  0  0  0  0  0  0
  148.2490  156.0610  132.6240 C   0  0  0  0  0  0  0  0  0  0  0  0
  149.4000  156.8590  132.6010 O   0  0  0  0  0  0  0  0  0  0  0  0
  149.2260  157.9080  134.5550 H   0  0  0  0  0  0  0  0  0  0  0  0
  146.4513  161.7062  133.6808 H   0  0  0  0  0  0  0  0  0  0  0  0
  143.6670  162.3478  133.8190 H   0  0  0  0  0  0  0  0  0  0  0  0
  141.3728  161.3162  133.8360 H   0  0  0  0  0  0  0  0  0  0  0  0
  140.1584  158.5801  131.5530 H   0  0  0  0  0  0  0  0  0  0  0  0
  140.3647  158.2961  135.8295 H   0  0  0  0  0  0  0  0  0  0  0  0
  143.1599  157.3529  133.4785 H   0  0  0  0  0  0  0  0  0  0  0  0
  148.5348  155.0167  132.8181 H   0  0  0  0  0  0  0  0  0  0  0  0
  147.7404  156.1367  131.6516 H   0  0  0  0  0  0  0  0  0  0  0  0
  149.2780  157.5520  133.3020 H   0  0  0  0  0  0  0  0  0  0  0  0
  1  2  1  0
  2  3  2  0
  2  4  1  0
  4  5  2  0
  5  6  1  0
  6  7  2  0
  7  8  1  0
  8  9  2  0
  9 10  1  0
 10 11  1  0
 11 12  2  0
 12 13  1  0
 13 14  1  0
  9 15  1  0
 15 16  2  0
 16 17  1  0
 17 18  1  0
 18 19  2  0
 18 20  1  0
 20 21  2  0
 20 22  1  0
 22 23  1  0
 17  4  1  0
 16  6  1  0
 14 10  2  0
  1 24  1  0
  5 25  1  0
  7 26  1  0
  8 27  1  0
 11 28  1  0
 14 29  1  0
 15 30  1  0
 22 31  1  0
 22 32  1  0
 23 33  1  0
M  CHG  2   1  -1  13  -1
M  END
>  <UniqueID>  (15) 
15

>  <SMILES>  (15) 
[NH-]C(=O)c1cc2ccc(-c3cn[n-]c3)cc2n1C(=O)C(=O)CO

>  <Energy>  (15) 
105.64733116259501

>  <Genealogy>  (15) 
[NH-]C(=O)c1cc2ccc(-c3cn[n-]c3)cc2n1C(=O)C(=O)CO (protonated)
[NH-]C(=O)c1cc2ccc(-c3cn[n-]c3)cc2n1C(=O)C(=O)CO (3D coordinates assigned)
[NH-]C(=O)c1cc2ccc(-c3cn[n-]c3)cc2n1C(=O)C(=O)CO (optimized conformer: 105.64733116259501 kcal/mol)

>  <smiles>  (15) 
NC(=O)c1cc2ccc(-c3cn[nH]c3)cc2n1C(=O)C(=O)CO

>  <score_type>  (15) 
oracle

>  <origin>  (15) 
adg

>  <m_score__min__energy>  (15) 
-6.4500000000000002

>  <m_primary>  (15) 
energy

$$$$
15:0
     RDKit          3D

 39 40  0  0  0  0  0  0  0  0999 V2000
  137.7610  159.8580  131.1070 C   0  0  0  0  0  0  0  0  0  0  0  0
  138.5610  158.6070  131.4660 C   0  0  0  0  0  0  0  0  0  0  0  0
  138.4500  158.2330  132.9510 C   0  0  0  0  0  0  0  0  0  0  0  0
  140.0360  158.0500  133.7710 S   0  0  0  0  0  0  0  0  0  0  0  0
  140.2140  159.0960  134.8350 O   0  0  0  0  0  0  0  0  0  0  0  0
  141.1070  158.2430  132.7350 O   0  0  0  0  0  0  0  0  0  0  0  0
  140.2350  156.4090  134.4630 C   0  0  0  0  0  0  0  0  0  0  0  0
  140.4450  155.3690  133.3990 C   0  0  0  0  0  0  0  0  0  0  0  0
  139.4920  155.0590  132.6340 O   0  0  0  0  0  0  0  0  0  0  0  0
  141.7010  154.6830  133.2780 N   0  0  0  0  0  0  0  0  0  0  0  0
  142.9550  155.1900  133.4400 C   0  0  0  0  0  0  0  0  0  0  0  0
  143.2970  156.6210  133.5580 C   0  0  0  0  0  0  0  0  0  0  0  0
  142.9130  157.3720  134.7070 N   0  0  0  0  0  0  0  0  0  0  0  0
  143.8920  157.2020  132.6100 O   0  0  0  0  0  0  0  0  0  0  0  0
  143.9050  154.1740  133.3710 C   0  0  0  0  0  0  0  0  0  0  0  0
  143.1890  153.0210  133.1380 C   0  0  0  0  0  0  0  0  0  0  0  0
  143.6230  151.7060  132.9990 C   0  0  0  0  0  0  0  0  0  0  0  0
  142.6520  150.7110  132.7920 C   0  0  0  0  0  0  0  0  0  0  0  0
  141.2750  151.0440  132.7090 C   0  0  0  0  0  0  0  0  0  0  0  0
  140.2400  149.9610  132.5460 C   0  0  0  0  0  0  0  0  0  0  0  0
  140.1020  149.2330  133.7140 F   0  0  0  0  0  0  0  0  0  0  0  0
  140.6290  149.1100  131.5280 F   0  0  0  0  0  0  0  0  0  0  0  0
  139.0080  150.5080  132.2290 F   0  0  0  0  0  0  0  0  0  0  0  0
  140.8750  152.3900  132.8730 C   0  0  0  0  0  0  0  0  0  0  0  0
  141.8630  153.3580  133.0770 C   0  0  0  0  0  0  0  0  0  0  0  0
  137.4377  160.3636  132.0289 H   0  0  0  0  0  0  0  0  0  0  0  0
  138.3913  160.5395  130.5168 H   0  0  0  0  0  0  0  0  0  0  0  0
  136.8780  159.5717  130.5168 H   0  0  0  0  0  0  0  0  0  0  0  0
  138.1871  157.7662  130.8633 H   0  0  0  0  0  0  0  0  0  0  0  0
  139.6197  158.8209  131.2575 H   0  0  0  0  0  0  0  0  0  0  0  0
  137.8820  159.0218  133.4660 H   0  0  0  0  0  0  0  0  0  0  0  0
  137.9492  157.2548  132.9990 H   0  0  0  0  0  0  0  0  0  0  0  0
  141.1062  156.4104  135.1346 H   0  0  0  0  0  0  0  0  0  0  0  0
  139.3127  156.1563  135.0066 H   0  0  0  0  0  0  0  0  0  0  0  0
  142.1230  158.0530  134.6640 H   0  0  0  0  0  0  0  0  0  0  0  0
  144.9953  154.2717  133.4795 H   0  0  0  0  0  0  0  0  0  0  0  0
  144.6924  151.4532  133.0495 H   0  0  0  0  0  0  0  0  0  0  0  0
  142.9635  149.6607  132.6931 H   0  0  0  0  0  0  0  0  0  0  0  0
  139.8115  152.6691  132.8409 H   0  0  0  0  0  0  0  0  0  0  0  0
  1  2  1  0
  2  3  1  0
  3  4  1  0
  4  5  2  0
  4  6  2  0
  4  7  1  0
  7  8  1  0
  8  9  2  0
  8 10  1  0
 10 11  1  0
 11 12  1  0
 12 13  1  0
 12 14  2  0
 11 15  2  0
 15 16  1  0
 16 17  2  0
 17 18  1  0
 18 19  2  0
 19 20  1  0
 20 21  1  0
 20 22  1  0
 20 23  1  0
 19 24  1  0
 24 25  2  0
 25 10  1  0
 25 16  1  0
  1 26  1  0
  1 27  1  0
  1 28  1  0
  2 29  1  0
  2 30  1  0
  3 31  1  0
  3 32  1  0
  7 33  1  0
  7 34  1  0
 13 35  1  0
 15 36  1  0
 17 37  1  0
 18 38  1  0
 24 39  1  0
M  CHG  1  13  -1
M  END
>  <UniqueID>  (16) 
16

>  <SMILES>  (16) 
CCCS(=O)(=O)CC(=O)n1c(C([NH-])=O)cc2ccc(C(F)(F)F)cc21

>  <Energy>  (16) 
68.24830977347754

>  <Genealogy>  (16) 
CCCS(=O)(=O)CC(=O)n1c(C([NH-])=O)cc2ccc(C(F)(F)F)cc21 (protonated)
CCCS(=O)(=O)CC(=O)n1c(C([NH-])=O)cc2ccc(C(F)(F)F)cc21 (3D coordinates assigned)
CCCS(=O)(=O)CC(=O)n1c(C([NH-])=O)cc2ccc(C(F)(F)F)cc21 (optimized conformer: 68.24830977347754 kcal/mol)

>  <smiles>  (16) 
CCCS(=O)(=O)CC(=O)n1c(C(N)=O)cc2ccc(C(F)(F)F)cc21

>  <score_type>  (16) 
oracle

>  <origin>  (16) 
adg

>  <m_score__min__energy>  (16) 
-6.6100000000000003

>  <m_primary>  (16) 
energy

$$$$
16:0
     RDKit          3D

 35 37  0  0  0  0  0  0  0  0999 V2000
  138.6400  156.9870  133.4030 N   0  0  0  0  0  0  0  0  0  0  0  0
  139.3200  157.8010  134.3600 C   0  0  0  0  0  0  0  0  0  0  0  0
  138.6880  158.2390  135.3570 O   0  0  0  0  0  0  0  0  0  0  0  0
  140.7290  158.1950  134.1640 C   0  0  0  0  0  0  0  0  0  0  0  0
  141.1860  159.5020  134.3080 C   0  0  0  0  0  0  0  0  0  0  0  0
  142.5230  159.4570  133.9860 C   0  0  0  0  0  0  0  0  0  0  0  0
  143.4780  160.4700  133.9950 C   0  0  0  0  0  0  0  0  0  0  0  0
  144.8020  160.1290  133.6760 C   0  0  0  0  0  0  0  0  0  0  0  0
  145.1450  158.7930  133.3530 C   0  0  0  0  0  0  0  0  0  0  0  0
  146.5830  158.4260  133.0920 C   0  0  0  0  0  0  0  0  0  0  0  0
  147.5110  159.6420  133.2130 C   0  0  0  0  0  0  0  0  0  0  0  0
  148.2560  159.9030  131.9350 C   0  0  0  0  0  0  0  0  0  0  0  0
  148.4890  161.1930  131.4300 C   0  0  0  0  0  0  0  0  0  0  0  0
  149.2630  161.2050  130.2780 C   0  0  0  0  0  0  0  0  0  0  0  0
  149.6610  159.6180  129.9000 S   0  0  0  0  0  0  0  0  0  0  0  0
  148.8550  158.8960  131.1860 C   0  0  0  0  0  0  0  0  0  0  0  0
  144.1490  157.7900  133.3570 C   0  0  0  0  0  0  0  0  0  0  0  0
  142.8350  158.1590  133.6680 C   0  0  0  0  0  0  0  0  0  0  0  0
  141.7430  157.3680  133.7790 N   0  0  0  0  0  0  0  0  0  0  0  0
  141.7020  155.9360  133.6650 C   0  0  0  0  0  0  0  0  0  0  0  0
  142.6200  155.2290  134.1560 O   0  0  0  0  0  0  0  0  0  0  0  0
  140.6420  155.3150  133.0160 O   0  0  0  0  0  0  0  0  0  0  0  0
  139.0840  156.7410  132.4920 H   0  0  0  0  0  0  0  0  0  0  0  0
  137.6460  156.7100  133.5630 H   0  0  0  0  0  0  0  0  0  0  0  0
  140.6026  160.3829  134.6140 H   0  0  0  0  0  0  0  0  0  0  0  0
  143.2036  161.5056  134.2444 H   0  0  0  0  0  0  0  0  0  0  0  0
  145.5802  160.9064  133.6769 H   0  0  0  0  0  0  0  0  0  0  0  0
  146.8950  157.6655  133.8230 H   0  0  0  0  0  0  0  0  0  0  0  0
  146.6568  158.0397  132.0647 H   0  0  0  0  0  0  0  0  0  0  0  0
  146.9074  160.5276  133.4608 H   0  0  0  0  0  0  0  0  0  0  0  0
  148.2480  159.4331  134.0025 H   0  0  0  0  0  0  0  0  0  0  0  0
  148.0959  162.1055  131.9020 H   0  0  0  0  0  0  0  0  0  0  0  0
  149.5634  162.0986  129.7112 H   0  0  0  0  0  0  0  0  0  0  0  0
  148.8094  157.8175  131.3978 H   0  0  0  0  0  0  0  0  0  0  0  0
  144.4003  156.7453  133.1215 H   0  0  0  0  0  0  0  0  0  0  0  0
  1  2  1  0
  2  3  2  0
  2  4  1  0
  4  5  2  0
  5  6  1  0
  6  7  2  0
  7  8  1  0
  8  9  2  0
  9 10  1  0
 10 11  1  0
 11 12  1  0
 12 13  1  0
 13 14  2  0
 14 15  1  0
 15 16  1  0
  9 17  1  0
 17 18  2  0
 18 19  1  0
 19 20  1  0
 20 21  2  0
 20 22  1  0
 19  4  1  0
 18  6  1  0
 16 12  2  0
  1 23  1  0
  1 24  1  0
  5 25  1  0
  7 26  1  0
  8 27  1  0
 10 28  1  0
 10 29  1  0
 11 30  1  0
 11 31  1  0
 13 32  1  0
 14 33  1  0
 16 34  1  0
 17 35  1  0
M  CHG  1  22  -1
M  END
>  <UniqueID>  (17) 
17

>  <SMILES>  (17) 
NC(=O)c1cc2ccc(CCc3ccsc3)cc2n1C(=O)[O-]

>  <Energy>  (17) 
98.04590262487169

>  <Genealogy>  (17) 
NC(=O)c1cc2ccc(CCc3ccsc3)cc2n1C(=O)[O-] (protonated)
NC(=O)c1cc2ccc(CCc3ccsc3)cc2n1C(=O)[O-] (3D coordinates assigned)
NC(=O)c1cc2ccc(CCc3ccsc3)cc2n1C(=O)[O-] (optimized conformer: 98.04590262487169 kcal/mol)

>  <smiles>  (17) 
NC(=O)c1cc2ccc(CCc3ccsc3)cc2n1C(=O)O

>  <score_type>  (17) 
oracle

>  <origin>  (17) 
adg

>  <m_score__min__energy>  (17) 
-7.71

>  <m_primary>  (17) 
energy

$$$$
17:0
     RDKit          3D

 34 36  0  0  0  0  0  0  0  0999 V2000
  147.9250  160.8770  132.4930 N   0  0  0  0  0  0  0  0  0  0  0  0
  147.6010  159.7860  133.3510 C   0  0  0  0  0  0  0  0  0  0  0  0
  148.5180  159.2250  134.0070 O   0  0  0  0  0  0  0  0  0  0  0  0
  146.1940  159.3560  133.4930 C   0  0  0  0  0  0  0  0  0  0  0  0
  145.7800  158.0330  133.3530 C   0  0  0  0  0  0  0  0  0  0  0  0
  144.4100  158.0650  133.4680 C   0  0  0  0  0  0  0  0  0  0  0  0
  143.4840  157.0270  133.4240 C   0  0  0  0  0  0  0  0  0  0  0  0
  142.1280  157.3450  133.6070 C   0  0  0  0  0  0  0  0  0  0  0  0
  141.7250  158.6850  133.8300 C   0  0  0  0  0  0  0  0  0  0  0  0
  140.2750  159.0040  134.0780 C   0  0  0  0  0  0  0  0  0  0  0  0
  139.5670  159.2610  132.7720 C   0  0  0  0  0  0  0  0  0  0  0  0
  139.4990  160.5680  132.2590 C   0  0  0  0  0  0  0  0  0  0  0  0
  138.8760  160.8120  131.0320 C   0  0  0  0  0  0  0  0  0  0  0  0
  138.3230  159.7560  130.3030 C   0  0  0  0  0  0  0  0  0  0  0  0
  138.3960  158.4520  130.8000 C   0  0  0  0  0  0  0  0  0  0  0  0
  139.0180  158.2000  132.0280 C   0  0  0  0  0  0  0  0  0  0  0  0
  139.0820  156.9250  132.4870 F   0  0  0  0  0  0  0  0  0  0  0  0
  142.6950  159.7120  133.8770 C   0  0  0  0  0  0  0  0  0  0  0  0
  144.0360  159.3690  133.6740 C   0  0  0  0  0  0  0  0  0  0  0  0
  145.1210  160.1740  133.6950 N   0  0  0  0  0  0  0  0  0  0  0  0
  145.1250  161.5890  133.9480 C   0  0  0  0  0  0  0  0  0  0  0  0
  146.1640  162.1570  134.3740 O   0  0  0  0  0  0  0  0  0  0  0  0
  143.9720  162.3390  133.7510 O   0  0  0  0  0  0  0  0  0  0  0  0
  147.4980  161.8190  132.6370 H   0  0  0  0  0  0  0  0  0  0  0  0
  146.4145  157.1501  133.1859 H   0  0  0  0  0  0  0  0  0  0  0  0
  143.8042  155.9889  133.2511 H   0  0  0  0  0  0  0  0  0  0  0  0
  141.3721  156.5464  133.5769 H   0  0  0  0  0  0  0  0  0  0  0  0
  139.7983  158.1542  134.5885 H   0  0  0  0  0  0  0  0  0  0  0  0
  140.2082  159.9050  134.7055 H   0  0  0  0  0  0  0  0  0  0  0  0
  139.9380  161.4023  132.8258 H   0  0  0  0  0  0  0  0  0  0  0  0
  138.8209  161.8380  130.6391 H   0  0  0  0  0  0  0  0  0  0  0  0
  137.8307  159.9509  129.3388 H   0  0  0  0  0  0  0  0  0  0  0  0
  137.9631  157.6208  130.2240 H   0  0  0  0  0  0  0  0  0  0  0  0
  142.4027  160.7550  134.0684 H   0  0  0  0  0  0  0  0  0  0  0  0
  1  2  1  0
  2  3  2  0
  2  4  1  0
  4  5  2  0
  5  6  1  0
  6  7  2  0
  7  8  1  0
  8  9  2  0
  9 10  1  0
 10 11  1  0
 11 12  2  0
 12 13  1  0
 13 14  2  0
 14 15  1  0
 15 16  2  0
 16 17  1  0
  9 18  1  0
 18 19  2  0
 19 20  1  0
 20 21  1  0
 21 22  2  0
 21 23  1  0
 20  4  1  0
 19  6  1  0
 16 11  1  0
  1 24  1  0
  5 25  1  0
  7 26  1  0
  8 27  1  0
 10 28  1  0
 10 29  1  0
 12 30  1  0
 13 31  1  0
 14 32  1  0
 15 33  1  0
 18 34  1  0
M  CHG  2   1  -1  23  -1
M  END
>  <UniqueID>  (18) 
18

>  <SMILES>  (18) 
[NH-]C(=O)c1cc2ccc(Cc3ccccc3F)cc2n1C(=O)[O-]

>  <Energy>  (18) 
75.15825944152029

>  <Genealogy>  (18) 
[NH-]C(=O)c1cc2ccc(Cc3ccccc3F)cc2n1C(=O)[O-] (protonated)
[NH-]C(=O)c1cc2ccc(Cc3ccccc3F)cc2n1C(=O)[O-] (3D coordinates assigned)
[NH-]C(=O)c1cc2ccc(Cc3ccccc3F)cc2n1C(=O)[O-] (optimized conformer: 75.15825944152029 kcal/mol)

>  <smiles>  (18) 
NC(=O)c1cc2ccc(Cc3ccccc3F)cc2n1C(=O)O

>  <score_type>  (18) 
oracle

>  <origin>  (18) 
adg

>  <m_score__min__energy>  (18) 
-7.6799999999999997

>  <m_primary>  (18) 
energy

$$$$
18:0
     RDKit          3D

 40 41  0  0  0  0  0  0  0  0999 V2000
  150.3510  160.0840  129.2460 C   0  0  0  0  0  0  0  0  0  0  0  0
  149.1550  160.7760  129.7560 N   0  0  0  0  0  0  0  0  0  0  0  0
  149.5460  162.0880  130.3000 C   0  0  0  0  0  0  0  0  0  0  0  0
  148.4860  159.9490  130.7850 C   0  0  0  0  0  0  0  0  0  0  0  0
  149.2620  158.6490  131.0240 C   0  0  0  0  0  0  0  0  0  0  0  0
  149.5630  158.4940  132.4110 O   0  0  0  0  0  0  0  0  0  0  0  0
  148.6050  158.6010  133.4250 C   0  0  0  0  0  0  0  0  0  0  0  0
  148.8330  159.3070  134.4450 O   0  0  0  0  0  0  0  0  0  0  0  0
  147.3580  157.8970  133.3060 N   0  0  0  0  0  0  0  0  0  0  0  0
  146.1020  158.4160  133.4040 C   0  0  0  0  0  0  0  0  0  0  0  0
  145.7630  159.8510  133.4970 C   0  0  0  0  0  0  0  0  0  0  0  0
  146.7700  160.8580  133.3800 N   0  0  0  0  0  0  0  0  0  0  0  0
  144.5590  160.1950  133.6280 O   0  0  0  0  0  0  0  0  0  0  0  0
  145.1470  157.4050  133.3540 C   0  0  0  0  0  0  0  0  0  0  0  0
  145.8610  156.2390  133.2050 C   0  0  0  0  0  0  0  0  0  0  0  0
  145.4160  154.9230  133.1250 C   0  0  0  0  0  0  0  0  0  0  0  0
  146.3800  153.9070  133.0200 C   0  0  0  0  0  0  0  0  0  0  0  0
  147.7640  154.2190  132.9890 C   0  0  0  0  0  0  0  0  0  0  0  0
  148.7890  153.1150  132.9420 C   0  0  0  0  0  0  0  0  0  0  0  0
  149.9950  153.6320  132.5090 F   0  0  0  0  0  0  0  0  0  0  0  0
  148.9630  152.5540  134.1950 F   0  0  0  0  0  0  0  0  0  0  0  0
  148.3890  152.1150  132.0720 F   0  0  0  0  0  0  0  0  0  0  0  0
  148.1760  155.5670  133.0990 C   0  0  0  0  0  0  0  0  0  0  0  0
  147.1930  156.5620  133.1800 C   0  0  0  0  0  0  0  0  0  0  0  0
  150.9596  159.7319  130.0920 H   0  0  0  0  0  0  0  0  0  0  0  0
  150.0435  159.2243  128.6326 H   0  0  0  0  0  0  0  0  0  0  0  0
  150.9431  160.7790  128.6326 H   0  0  0  0  0  0  0  0  0  0  0  0
  149.5339  162.0475  131.3992 H   0  0  0  0  0  0  0  0  0  0  0  0
  150.5588  162.3415  129.9535 H   0  0  0  0  0  0  0  0  0  0  0  0
  148.8373  162.8546  129.9535 H   0  0  0  0  0  0  0  0  0  0  0  0
  148.4333  160.5163  131.7260 H   0  0  0  0  0  0  0  0  0  0  0  0
  147.4744  159.6975  130.4338 H   0  0  0  0  0  0  0  0  0  0  0  0
  148.6527  157.7968  130.6884 H   0  0  0  0  0  0  0  0  0  0  0  0
  150.2042  158.6879  130.4577 H   0  0  0  0  0  0  0  0  0  0  0  0
  146.5190  161.8650  133.4920 H   0  0  0  0  0  0  0  0  0  0  0  0
  147.7450  160.6170  133.0980 H   0  0  0  0  0  0  0  0  0  0  0  0
  144.0545  157.5150  133.4196 H   0  0  0  0  0  0  0  0  0  0  0  0
  144.3421  154.6857  133.1434 H   0  0  0  0  0  0  0  0  0  0  0  0
  146.0583  152.8567  132.9611 H   0  0  0  0  0  0  0  0  0  0  0  0
  149.2442  155.8287  133.1205 H   0  0  0  0  0  0  0  0  0  0  0  0
  1  2  1  0
  2  3  1  0
  2  4  1  0
  4  5  1  0
  5  6  1  0
  6  7  1  0
  7  8  2  0
  7  9  1  0
  9 10  1  0
 10 11  1  0
 11 12  1  0
 11 13  2  0
 10 14  2  0
 14 15  1  0
 15 16  2  0
 16 17  1  0
 17 18  2  0
 18 19  1  0
 19 20  1  0
 19 21  1  0
 19 22  1  0
 18 23  1  0
 23 24  2  0
 24  9  1  0
 24 15  1  0
  1 25  1  0
  1 26  1  0
  1 27  1  0
  3 28  1  0
  3 29  1  0
  3 30  1  0
  4 31  1  0
  4 32  1  0
  5 33  1  0
  5 34  1  0
 12 35  1  0
 12 36  1  0
 14 37  1  0
 16 38  1  0
 17 39  1  0
 23 40  1  0
M  END
>  <UniqueID>  (19) 
19

>  <SMILES>  (19) 
CN(C)CCOC(=O)n1c(C(N)=O)cc2ccc(C(F)(F)F)cc21

>  <Energy>  (19) 
77.44768338511969

>  <Genealogy>  (19) 
CN(C)CCOC(=O)n1c(C(N)=O)cc2ccc(C(F)(F)F)cc21 (3D coordinates assigned)
CN(C)CCOC(=O)n1c(C(N)=O)cc2ccc(C(F)(F)F)cc21 (optimized conformer: 77.44768338511969 kcal/mol)

>  <smiles>  (19) 
CN(C)CCOC(=O)n1c(C(N)=O)cc2ccc(C(F)(F)F)cc21

>  <score_type>  (19) 
oracle

>  <origin>  (19) 
adg

>  <m_score__min__energy>  (19) 
-6.3700000000000001

>  <m_primary>  (19) 
energy

$$$$
19:0
     RDKit          3D

 36 37  0  0  0  0  0  0  0  0999 V2000
  141.0220  153.4510  133.0480 C   0  0  0  0  0  0  0  0  0  0  0  0
  141.3420  154.8580  133.2990 N   0  0  0  0  0  0  0  0  0  0  0  0
  142.7370  155.3010  133.3850 C   0  0  0  0  0  0  0  0  0  0  0  0
  140.2740  155.8220  133.3730 C   0  0  0  0  0  0  0  0  0  0  0  0
  139.1190  155.5190  132.9680 O   0  0  0  0  0  0  0  0  0  0  0  0
  140.5090  157.1400  133.8900 N   0  0  0  0  0  0  0  0  0  0  0  0
  140.2170  158.3270  133.2930 C   0  0  0  0  0  0  0  0  0  0  0  0
  139.7220  158.5020  131.9110 C   0  0  0  0  0  0  0  0  0  0  0  0
  138.7210  157.6440  131.3610 N   0  0  0  0  0  0  0  0  0  0  0  0
  140.2200  159.4060  131.1880 O   0  0  0  0  0  0  0  0  0  0  0  0
  140.4280  159.3830  134.1780 C   0  0  0  0  0  0  0  0  0  0  0  0
  140.8580  158.7970  135.3480 C   0  0  0  0  0  0  0  0  0  0  0  0
  141.1790  159.3700  136.5740 C   0  0  0  0  0  0  0  0  0  0  0  0
  141.5350  158.5130  137.6300 C   0  0  0  0  0  0  0  0  0  0  0  0
  141.5530  157.1020  137.4470 C   0  0  0  0  0  0  0  0  0  0  0  0
  141.9010  156.2030  138.5190 N   0  0  0  0  0  0  0  0  0  0  0  0
  140.9430  155.6280  139.4610 C   0  0  0  0  0  0  0  0  0  0  0  0
  140.5430  154.2860  139.0250 C   0  0  0  0  0  0  0  0  0  0  0  0
  140.2280  153.2270  138.6810 N   0  0  0  0  0  0  0  0  0  0  0  0
  141.2110  156.5640  136.1870 C   0  0  0  0  0  0  0  0  0  0  0  0
  140.8880  157.4430  135.1490 C   0  0  0  0  0  0  0  0  0  0  0  0
  140.9025  152.9255  134.0069 H   0  0  0  0  0  0  0  0  0  0  0  0
  140.0858  153.3846  132.4743 H   0  0  0  0  0  0  0  0  0  0  0  0
  141.8374  152.9862  132.4743 H   0  0  0  0  0  0  0  0  0  0  0  0
  143.0279  155.3934  134.4418 H   0  0  0  0  0  0  0  0  0  0  0  0
  143.3867  154.5650  132.8888 H   0  0  0  0  0  0  0  0  0  0  0  0
  142.8430  156.2770  132.8888 H   0  0  0  0  0  0  0  0  0  0  0  0
  138.4300  156.7680  131.8460 H   0  0  0  0  0  0  0  0  0  0  0  0
  138.3430  157.8280  130.4060 H   0  0  0  0  0  0  0  0  0  0  0  0
  140.2822  160.4558  133.9835 H   0  0  0  0  0  0  0  0  0  0  0  0
  141.1550  160.4609  136.7132 H   0  0  0  0  0  0  0  0  0  0  0  0
  141.8026  158.9379  138.6087 H   0  0  0  0  0  0  0  0  0  0  0  0
  142.9010  155.9110  138.6180 H   0  0  0  0  0  0  0  0  0  0  0  0
  141.4071  155.5629  140.4562 H   0  0  0  0  0  0  0  0  0  0  0  0
  140.0516  156.2713  139.5022 H   0  0  0  0  0  0  0  0  0  0  0  0
  141.1990  155.4760  136.0256 H   0  0  0  0  0  0  0  0  0  0  0  0
  1  2  1  0
  2  3  1  0
  2  4  1  0
  4  5  2  0
  4  6  1  0
  6  7  1  0
  7  8  1  0
  8  9  1  0
  8 10  2  0
  7 11  2  0
 11 12  1  0
 12 13  2  0
 13 14  1  0
 14 15  2  0
 15 16  1  0
 16 17  1  0
 17 18  1  0
 18 19  3  0
 15 20  1  0
 20 21  2  0
 21  6  1  0
 21 12  1  0
  1 22  1  0
  1 23  1  0
  1 24  1  0
  3 25  1  0
  3 26  1  0
  3 27  1  0
  9 28  1  0
  9 29  1  0
 11 30  1  0
 13 31  1  0
 14 32  1  0
 16 33  1  0
 17 34  1  0
 17 35  1  0
 20 36  1  0
M  END
>  <UniqueID>  (20) 
20

>  <SMILES>  (20) 
CN(C)C(=O)n1c(C(N)=O)cc2ccc(NCC#N)cc21

>  <Energy>  (20) 
72.15526489787605

>  <Genealogy>  (20) 
CN(C)C(=O)n1c(C(N)=O)cc2ccc(NCC#N)cc21 (3D coordinates assigned)
CN(C)C(=O)n1c(C(N)=O)cc2ccc(NCC#N)cc21 (optimized conformer: 72.15526489787605 kcal/mol)

>  <smiles>  (20) 
CN(C)C(=O)n1c(C(N)=O)cc2ccc(NCC#N)cc21

>  <score_type>  (20) 
oracle

>  <origin>  (20) 
adg

>  <m_score__min__energy>  (20) 
-6.5800000000000001

>  <m_primary>  (20) 
energy

$$$$
20:0
     RDKit          3D

 36 37  0  0  0  0  0  0  0  0999 V2000
  149.1800  157.5550  132.2000 N   0  0  0  0  0  0  0  0  0  0  0  0
  148.4430  158.7790  132.5060 C   0  0  0  0  0  0  0  0  0  0  0  0
  146.9400  158.4980  132.6390 C   0  0  0  0  0  0  0  0  0  0  0  0
  146.6310  157.2750  133.5050 C   0  0  0  0  0  0  0  0  0  0  0  0
  146.5980  156.1010  132.6980 O   0  0  0  0  0  0  0  0  0  0  0  0
  147.4540  155.0160  132.9040 C   0  0  0  0  0  0  0  0  0  0  0  0
  148.6500  155.2090  133.2560 O   0  0  0  0  0  0  0  0  0  0  0  0
  146.9680  153.6760  132.7180 N   0  0  0  0  0  0  0  0  0  0  0  0
  145.6790  153.2810  132.5170 C   0  0  0  0  0  0  0  0  0  0  0  0
  144.4850  154.1460  132.6100 C   0  0  0  0  0  0  0  0  0  0  0  0
  144.3340  155.2920  131.7730 N   0  0  0  0  0  0  0  0  0  0  0  0
  143.6110  153.9000  133.4840 O   0  0  0  0  0  0  0  0  0  0  0  0
  145.6160  151.9150  132.2600 C   0  0  0  0  0  0  0  0  0  0  0  0
  146.9170  151.4730  132.3250 C   0  0  0  0  0  0  0  0  0  0  0  0
  147.4380  150.1960  132.1390 C   0  0  0  0  0  0  0  0  0  0  0  0
  148.8300  150.0320  132.2320 C   0  0  0  0  0  0  0  0  0  0  0  0
  149.6690  151.1410  132.4970 C   0  0  0  0  0  0  0  0  0  0  0  0
  151.0850  150.9630  132.5740 N   0  0  0  0  0  0  0  0  0  0  0  0
  149.1080  152.4230  132.6770 C   0  0  0  0  0  0  0  0  0  0  0  0
  147.7150  152.5550  132.6020 C   0  0  0  0  0  0  0  0  0  0  0  0
  149.5790  157.1800  133.0910 H   0  0  0  0  0  0  0  0  0  0  0  0
  148.4900  156.8420  131.8710 H   0  0  0  0  0  0  0  0  0  0  0  0
  148.8160  159.1962  133.4530 H   0  0  0  0  0  0  0  0  0  0  0  0
  148.5942  159.4937  131.6836 H   0  0  0  0  0  0  0  0  0  0  0  0
  146.4583  159.3775  133.0912 H   0  0  0  0  0  0  0  0  0  0  0  0
  146.5552  158.2901  131.6297 H   0  0  0  0  0  0  0  0  0  0  0  0
  147.4105  157.1667  134.2735 H   0  0  0  0  0  0  0  0  0  0  0  0
  145.6502  157.4109  133.9842 H   0  0  0  0  0  0  0  0  0  0  0  0
  143.4650  155.8700  131.8260 H   0  0  0  0  0  0  0  0  0  0  0  0
  145.1140  155.6180  131.1600 H   0  0  0  0  0  0  0  0  0  0  0  0
  144.7175  151.3163  132.0497 H   0  0  0  0  0  0  0  0  0  0  0  0
  146.7797  149.3410  131.9256 H   0  0  0  0  0  0  0  0  0  0  0  0
  149.2718  149.0336  132.0978 H   0  0  0  0  0  0  0  0  0  0  0  0
  151.7180  151.4000  131.8680 H   0  0  0  0  0  0  0  0  0  0  0  0
  151.5100  150.3910  133.3380 H   0  0  0  0  0  0  0  0  0  0  0  0
  149.7477  153.2965  132.8712 H   0  0  0  0  0  0  0  0  0  0  0  0
  1  2  1  0
  2  3  1  0
  3  4  1  0
  4  5  1  0
  5  6  1  0
  6  7  2  0
  6  8  1  0
  8  9  1  0
  9 10  1  0
 10 11  1  0
 10 12  2  0
  9 13  2  0
 13 14  1  0
 14 15  2  0
 15 16  1  0
 16 17  2  0
 17 18  1  0
 17 19  1  0
 19 20  2  0
 20  8  1  0
 20 14  1  0
  1 21  1  0
  1 22  1  0
  2 23  1  0
  2 24  1  0
  3 25  1  0
  3 26  1  0
  4 27  1  0
  4 28  1  0
 11 29  1  0
 11 30  1  0
 13 31  1  0
 15 32  1  0
 16 33  1  0
 18 34  1  0
 18 35  1  0
 19 36  1  0
M  END
>  <UniqueID>  (21) 
21

>  <SMILES>  (21) 
NCCCOC(=O)n1c(C(N)=O)cc2ccc(N)cc21

>  <Energy>  (21) 
67.54285274396427

>  <Genealogy>  (21) 
NCCCOC(=O)n1c(C(N)=O)cc2ccc(N)cc21 (3D coordinates assigned)
NCCCOC(=O)n1c(C(N)=O)cc2ccc(N)cc21 (optimized conformer: 67.54285274396427 kcal/mol)

>  <smiles>  (21) 
NCCCOC(=O)n1c(C(N)=O)cc2ccc(N)cc21

>  <score_type>  (21) 
oracle

>  <origin>  (21) 
adg

>  <m_score__min__energy>  (21) 
-6.1900000000000004

>  <m_primary>  (21) 
energy

$$$$
21:0
     RDKit          3D

 47 49  0  0  0  0  0  0  0  0999 V2000
  145.6884  154.8508  134.3190 H   0  0  0  0  0  0  0  0  0  0  0  0
  145.4110  154.7540  133.2590 C   0  0  0  0  0  0  0  0  0  0  0  0
  144.0460  154.2850  132.9300 C   0  0  0  0  0  0  0  0  0  0  0  0
  143.9380  153.2400  132.2200 O   0  0  0  0  0  0  0  0  0  0  0  0
  142.8500  154.9520  133.3840 N   0  0  0  0  0  0  0  0  0  0  0  0
  141.5900  154.4330  133.3190 C   0  0  0  0  0  0  0  0  0  0  0  0
  141.2970  152.9880  133.1660 C   0  0  0  0  0  0  0  0  0  0  0  0
  141.0270  152.2660  134.1780 O   0  0  0  0  0  0  0  0  0  0  0  0
  141.3760  152.3850  131.8760 N   0  0  0  0  0  0  0  0  0  0  0  0
  142.3210  152.1250  131.4970 H   0  0  0  0  0  0  0  0  0  0  0  0
  140.5510  151.8640  131.5010 H   0  0  0  0  0  0  0  0  0  0  0  0
  140.6220  155.4500  133.3710 C   0  0  0  0  0  0  0  0  0  0  0  0
  139.5287  155.3347  133.3321 H   0  0  0  0  0  0  0  0  0  0  0  0
  141.3350  156.6200  133.4810 C   0  0  0  0  0  0  0  0  0  0  0  0
  140.8870  157.9370  133.4720 C   0  0  0  0  0  0  0  0  0  0  0  0
  139.8129  158.1708  133.4317 H   0  0  0  0  0  0  0  0  0  0  0  0
  141.8500  158.9590  133.5160 C   0  0  0  0  0  0  0  0  0  0  0  0
  141.5278  160.0107  133.5119 H   0  0  0  0  0  0  0  0  0  0  0  0
  143.2430  158.6470  133.5660 C   0  0  0  0  0  0  0  0  0  0  0  0
  144.2490  159.7380  133.6640 C   0  0  0  0  0  0  0  0  0  0  0  0
  145.6030  159.6700  133.3600 C   0  0  0  0  0  0  0  0  0  0  0  0
  146.1115  158.7954  132.9282 H   0  0  0  0  0  0  0  0  0  0  0  0
  146.1980  160.8340  133.6730 N   0  0  0  0  0  0  0  0  0  0  0  0
  145.2660  161.6360  134.1650 N   0  0  0  0  0  0  0  0  0  0  0  0
  145.5060  163.0270  134.5130 C   0  0  0  0  0  0  0  0  0  0  0  0
  145.5243  163.1332  135.6077 H   0  0  0  0  0  0  0  0  0  0  0  0
  146.4727  163.3474  134.0973 H   0  0  0  0  0  0  0  0  0  0  0  0
  144.7026  163.6528  134.0973 H   0  0  0  0  0  0  0  0  0  0  0  0
  144.0710  161.0140  134.1650 C   0  0  0  0  0  0  0  0  0  0  0  0
  143.1185  161.4467  134.5048 H   0  0  0  0  0  0  0  0  0  0  0  0
  143.6590  157.2890  133.5430 C   0  0  0  0  0  0  0  0  0  0  0  0
  144.7275  157.0278  133.5418 H   0  0  0  0  0  0  0  0  0  0  0  0
  142.6800  156.2930  133.5220 C   0  0  0  0  0  0  0  0  0  0  0  0
  146.3300  155.0680  132.3270 C   0  0  0  0  0  0  0  0  0  0  0  0
  146.0905  154.9058  131.2657 H   0  0  0  0  0  0  0  0  0  0  0  0
  147.6890  155.6400  132.6970 C   0  0  0  0  0  0  0  0  0  0  0  0
  148.3670  155.5024  131.8418 H   0  0  0  0  0  0  0  0  0  0  0  0
  148.0272  155.1028  133.5954 H   0  0  0  0  0  0  0  0  0  0  0  0
  147.6610  157.0850  133.0440 N   0  0  0  0  0  0  0  0  0  0  0  0
  148.5700  157.8900  132.1990 C   0  0  0  0  0  0  0  0  0  0  0  0
  149.2388  158.4823  132.8408 H   0  0  0  0  0  0  0  0  0  0  0  0
  149.1690  157.2208  131.5639 H   0  0  0  0  0  0  0  0  0  0  0  0
  147.9781  158.5655  131.5639 H   0  0  0  0  0  0  0  0  0  0  0  0
  147.8700  157.3190  134.4810 C   0  0  0  0  0  0  0  0  0  0  0  0
  147.2471  156.6217  135.0604 H   0  0  0  0  0  0  0  0  0  0  0  0
  148.9294  157.1569  134.7286 H   0  0  0  0  0  0  0  0  0  0  0  0
  147.5897  158.3535  134.7286 H   0  0  0  0  0  0  0  0  0  0  0  0
  1  2  1  0
  2  3  1  0
  3  4  2  0
  3  5  1  0
  5  6  1  0
  6  7  1  0
  7  8  2  0
  7  9  1  0
  9 10  1  0
  9 11  1  0
  6 12  2  0
 12 13  1  0
 12 14  1  0
 14 15  2  0
 15 16  1  0
 15 17  1  0
 17 18  1  0
 17 19  2  0
 19 20  1  0
 20 21  1  0
 21 22  1  0
 21 23  2  0
 23 24  1  0
 24 25  1  0
 25 26  1  0
 25 27  1  0
 25 28  1  0
 24 29  1  0
 29 30  1  0
 19 31  1  0
 31 32  1  0
 31 33  2  0
  2 34  2  0
 34 35  1  0
 34 36  1  0
 36 37  1  0
 36 38  1  0
 36 39  1  0
 39 40  1  0
 40 41  1  0
 40 42  1  0
 40 43  1  0
 39 44  1  0
 44 45  1  0
 44 46  1  0
 44 47  1  0
 33  5  1  0
 33 14  1  0
 29 20  2  0
M  END
>  <UniqueID>  (22) 
22

>  <SMILES>  (22) 
CN(C)C/C=C/C(=O)n1c(C(N)=O)cc2ccc(-c3cnn(C)c3)cc21

>  <Energy>  (22) 
131.49729312762807

>  <Genealogy>  (22) 
CN(C)C/C=C/C(=O)n1c(C(N)=O)cc2ccc(-c3cnn(C)c3)cc21 (cis-trans isomerization)
CN(C)C/C=C/C(=O)n1c(C(N)=O)cc2ccc(-c3cnn(C)c3)cc21 (3D coordinates assigned)
CN(C)C/C=C/C(=O)n1c(C(N)=O)cc2ccc(-c3cnn(C)c3)cc21 (optimized conformer: 131.49729312762807 kcal/mol)

>  <smiles>  (22) 
CN(C)C/C=C/C(=O)n1c(C(N)=O)cc2ccc(-c3cnn(C)c3)cc21

>  <score_type>  (22) 
oracle

>  <origin>  (22) 
adg

>  <m_score__min__energy>  (22) 
-8.7899999999999991

>  <m_primary>  (22) 
energy

$$$$
22:0
     RDKit          3D

 42 43  0  0  0  0  0  0  0  0999 V2000
  147.0880  151.4510  132.2240 C   0  0  0  0  0  0  0  0  0  0  0  0
  148.2400  151.9030  133.0270 N   0  0  2  0  0  0  0  0  0  0  0  0
  148.2850  153.3770  133.1990 C   0  0  0  0  0  0  0  0  0  0  0  0
  147.0100  154.1460  132.7770 C   0  0  0  0  0  0  0  0  0  0  0  0
  147.1090  155.6370  132.9690 C   0  0  0  0  0  0  0  0  0  0  0  0
  148.3740  156.2770  132.9450 C   0  0  0  0  0  0  0  0  0  0  0  0
  148.4780  157.6640  133.1440 C   0  0  0  0  0  0  0  0  0  0  0  0
  147.3050  158.3830  133.3480 C   0  0  0  0  0  0  0  0  0  0  0  0
  147.1210  159.7260  133.5910 C   0  0  0  0  0  0  0  0  0  0  0  0
  145.7450  159.8920  133.7260 C   0  0  0  0  0  0  0  0  0  0  0  0
  145.0990  161.2080  133.9150 C   0  0  0  0  0  0  0  0  0  0  0  0
  143.6890  161.3360  133.7400 N   0  0  0  0  0  0  0  0  0  0  0  0
  145.7700  162.2140  134.2640 O   0  0  0  0  0  0  0  0  0  0  0  0
  145.1020  158.6980  133.5790 N   0  0  0  0  0  0  0  0  0  0  0  0
  143.6980  158.4300  133.7070 C   0  0  0  0  0  0  0  0  0  0  0  0
  143.0500  157.9830  132.7210 O   0  0  0  0  0  0  0  0  0  0  0  0
  143.0480  158.6980  134.9180 O   0  0  0  0  0  0  0  0  0  0  0  0
  141.7230  159.2160  135.0080 C   0  0  0  0  0  0  0  0  0  0  0  0
  141.0000  158.6560  136.2320 C   0  0  0  0  0  0  0  0  0  0  0  0
  139.6390  158.5820  135.9970 F   0  0  0  0  0  0  0  0  0  0  0  0
  141.2230  159.4830  137.3170 F   0  0  0  0  0  0  0  0  0  0  0  0
  141.4800  157.3910  136.5220 F   0  0  0  0  0  0  0  0  0  0  0  0
  146.0720  157.7860  133.3450 C   0  0  0  0  0  0  0  0  0  0  0  0
  145.9390  156.4050  133.1640 C   0  0  0  0  0  0  0  0  0  0  0  0
  149.5000  151.3720  132.5550 C   0  0  0  0  0  0  0  0  0  0  0  0
  150.3470  150.8820  133.3510 O   0  0  0  0  0  0  0  0  0  0  0  0
  149.7910  151.3980  131.1950 O   0  0  0  0  0  0  0  0  0  0  0  0
  146.2761  151.1325  132.8944 H   0  0  0  0  0  0  0  0  0  0  0  0
  146.7364  152.2778  131.5894 H   0  0  0  0  0  0  0  0  0  0  0  0
  147.3925  150.6057  131.5894 H   0  0  0  0  0  0  0  0  0  0  0  0
  148.1020  151.4980  133.9840 H   0  0  0  0  0  0  0  0  0  0  0  0
  148.4683  153.5867  134.2632 H   0  0  0  0  0  0  0  0  0  0  0  0
  149.0817  153.7308  132.5282 H   0  0  0  0  0  0  0  0  0  0  0  0
  146.8200  153.9451  131.7123 H   0  0  0  0  0  0  0  0  0  0  0  0
  146.1934  153.7927  133.4238 H   0  0  0  0  0  0  0  0  0  0  0  0
  149.2824  155.6821  132.7690 H   0  0  0  0  0  0  0  0  0  0  0  0
  149.4569  158.1657  133.1386 H   0  0  0  0  0  0  0  0  0  0  0  0
  147.8965  160.5028  133.6632 H   0  0  0  0  0  0  0  0  0  0  0  0
  143.0770  160.4910  133.6800 H   0  0  0  0  0  0  0  0  0  0  0  0
  141.7696  160.3121  135.0876 H   0  0  0  0  0  0  0  0  0  0  0  0
  141.1679  158.9192  134.1059 H   0  0  0  0  0  0  0  0  0  0  0  0
  144.9475  155.9286  133.1733 H   0  0  0  0  0  0  0  0  0  0  0  0
  1  2  1  0
  2  3  1  0
  3  4  1  0
  4  5  1  0
  5  6  2  0
  6  7  1  0
  7  8  2  0
  8  9  1  0
  9 10  2  0
 10 11  1  0
 11 12  1  0
 11 13  2  0
 10 14  1  0
 14 15  1  0
 15 16  2  0
 15 17  1  0
 17 18  1  0
 18 19  1  0
 19 20  1  0
 19 21  1  0
 19 22  1  0
 14 23  1  0
 23 24  2  0
  2 25  1  0
 25 26  2  0
 25 27  1  0
 24  5  1  0
 23  8  1  0
  1 28  1  0
  1 29  1  0
  1 30  1  0
  2 31  1  1
  3 32  1  0
  3 33  1  0
  4 34  1  0
  4 35  1  0
  6 36  1  0
  7 37  1  0
  9 38  1  0
 12 39  1  0
 18 40  1  0
 18 41  1  0
 24 42  1  0
M  CHG  3   2   1  12  -1  27  -1
M  END
>  <UniqueID>  (23) 
23

>  <SMILES>  (23) 
C[N@H+](CCc1ccc2cc(C([NH-])=O)n(C(=O)OCC(F)(F)F)c2c1)C(=O)[O-]

>  <Energy>  (23) 
82.25469232879409

>  <Genealogy>  (23) 
C[NH+](CCc1ccc2cc(C([NH-])=O)n(C(=O)OCC(F)(F)F)c2c1)C(=O)[O-] (protonated)
C[N@H+](CCc1ccc2cc(C([NH-])=O)n(C(=O)OCC(F)(F)F)c2c1)C(=O)[O-] (chirality)
C[N@H+](CCc1ccc2cc(C([NH-])=O)n(C(=O)OCC(F)(F)F)c2c1)C(=O)[O-] (3D coordinates assigned)
C[N@H+](CCc1ccc2cc(C([NH-])=O)n(C(=O)OCC(F)(F)F)c2c1)C(=O)[O-] (optimized conformer: 82.25469232879409 kcal/mol)

>  <smiles>  (23) 
CN(CCc1ccc2cc(C(N)=O)n(C(=O)OCC(F)(F)F)c2c1)C(=O)O

>  <score_type>  (23) 
oracle

>  <origin>  (23) 
adg

>  <m_score__min__energy>  (23) 
-6.2400000000000002

>  <m_primary>  (23) 
energy

$$$$
23:0
     RDKit          3D

 39 42  0  0  0  0  0  0  0  0999 V2000
  145.7100  161.7500  134.1070 N   0  0  0  0  0  0  0  0  0  0  0  0
  144.3300  161.6930  133.7570 C   0  0  0  0  0  0  0  0  0  0  0  0
  143.7450  162.7450  133.3840 O   0  0  0  0  0  0  0  0  0  0  0  0
  143.5900  160.4140  133.7820 C   0  0  0  0  0  0  0  0  0  0  0  0
  142.2290  160.3180  134.0670 C   0  0  0  0  0  0  0  0  0  0  0  0
  141.9190  158.9830  133.9210 C   0  0  0  0  0  0  0  0  0  0  0  0
  140.7080  158.3210  134.0920 C   0  0  0  0  0  0  0  0  0  0  0  0
  140.6850  156.9300  133.9020 C   0  0  0  0  0  0  0  0  0  0  0  0
  141.8680  156.2200  133.5620 C   0  0  0  0  0  0  0  0  0  0  0  0
  141.8580  154.7480  133.3620 C   0  0  0  0  0  0  0  0  0  0  0  0
  143.0470  153.9960  133.3410 C   0  0  0  0  0  0  0  0  0  0  0  0
  142.9840  152.6140  133.1430 C   0  0  0  0  0  0  0  0  0  0  0  0
  141.7480  151.9930  132.9640 C   0  0  0  0  0  0  0  0  0  0  0  0
  140.5870  152.7660  132.9800 C   0  0  0  0  0  0  0  0  0  0  0  0
  140.6680  154.1090  133.1740 N   0  0  0  0  0  0  0  0  0  0  0  0
  143.0770  156.9360  133.3900 C   0  0  0  0  0  0  0  0  0  0  0  0
  143.0640  158.3250  133.5640 C   0  0  0  0  0  0  0  0  0  0  0  0
  144.0990  159.1870  133.4730 N   0  0  0  0  0  0  0  0  0  0  0  0
  145.4630  158.8440  133.1890 C   0  0  0  0  0  0  0  0  0  0  0  0
  145.9320  157.7470  133.5990 O   0  0  0  0  0  0  0  0  0  0  0  0
  146.2810  159.7340  132.4230 N   0  0  0  0  0  0  0  0  0  0  0  0
  147.6270  159.3640  131.9980 C   0  0  0  0  0  0  0  0  0  0  0  0
  148.5260  160.5630  131.7470 C   0  0  0  0  0  0  0  0  0  0  0  0
  148.7080  159.7240  133.0020 C   0  0  0  0  0  0  0  0  0  0  0  0
  146.4520  161.7510  133.3710 H   0  0  0  0  0  0  0  0  0  0  0  0
  141.5473  161.1341  134.3486 H   0  0  0  0  0  0  0  0  0  0  0  0
  139.7958  158.8704  134.3677 H   0  0  0  0  0  0  0  0  0  0  0  0
  139.7381  156.3823  134.0179 H   0  0  0  0  0  0  0  0  0  0  0  0
  144.0189  154.4922  133.4794 H   0  0  0  0  0  0  0  0  0  0  0  0
  143.9077  152.0169  133.1284 H   0  0  0  0  0  0  0  0  0  0  0  0
  141.6894  150.9052  132.8118 H   0  0  0  0  0  0  0  0  0  0  0  0
  139.6064  152.2890  132.8357 H   0  0  0  0  0  0  0  0  0  0  0  0
  144.0072  156.4119  133.1252 H   0  0  0  0  0  0  0  0  0  0  0  0
  145.9350  160.7000  132.2270 H   0  0  0  0  0  0  0  0  0  0  0  0
  147.3566  158.4558  131.4393 H   0  0  0  0  0  0  0  0  0  0  0  0
  149.2803  160.5272  130.9471 H   0  0  0  0  0  0  0  0  0  0  0  0
  148.3598  161.6309  131.5422 H   0  0  0  0  0  0  0  0  0  0  0  0
  149.5941  159.0813  133.1103 H   0  0  0  0  0  0  0  0  0  0  0  0
  148.7282  159.9336  134.0816 H   0  0  0  0  0  0  0  0  0  0  0  0
  1  2  1  0
  2  3  2  0
  2  4  1  0
  4  5  2  0
  5  6  1  0
  6  7  2  0
  7  8  1  0
  8  9  2  0
  9 10  1  0
 10 11  2  0
 11 12  1  0
 12 13  2  0
 13 14  1  0
 14 15  2  0
  9 16  1  0
 16 17  2  0
 17 18  1  0
 18 19  1  0
 19 20  2  0
 19 21  1  0
 21 22  1  0
 22 23  1  0
 23 24  1  0
 18  4  1  0
 24 22  1  0
 17  6  1  0
 15 10  1  0
  1 25  1  0
  5 26  1  0
  7 27  1  0
  8 28  1  0
 11 29  1  0
 12 30  1  0
 13 31  1  0
 14 32  1  0
 16 33  1  0
 21 34  1  0
 22 35  1  0
 23 36  1  0
 23 37  1  0
 24 38  1  0
 24 39  1  0
M  CHG  1   1  -1
M  END
>  <UniqueID>  (24) 
24

>  <SMILES>  (24) 
[NH-]C(=O)c1cc2ccc(-c3ccccn3)cc2n1C(=O)NC1CC1

>  <Energy>  (24) 
348.7438072620952

>  <Genealogy>  (24) 
[NH-]C(=O)c1cc2ccc(-c3ccccn3)cc2n1C(=O)NC1CC1 (protonated)
[NH-]C(=O)c1cc2ccc(-c3ccccn3)cc2n1C(=O)NC1CC1 (3D coordinates assigned)
[NH-]C(=O)c1cc2ccc(-c3ccccn3)cc2n1C(=O)NC1CC1 (nonaromatic ring conformer: 348.7438072620952 kcal/mol)

>  <smiles>  (24) 
NC(=O)c1cc2ccc(-c3ccccn3)cc2n1C(=O)NC1CC1

>  <score_type>  (24) 
oracle

>  <origin>  (24) 
adg

>  <m_score__min__energy>  (24) 
-8.4199999999999999

>  <m_primary>  (24) 
energy

$$$$
24:0
     RDKit          3D

 31 32  0  0  0  0  0  0  0  0999 V2000
  148.2420  157.3190  134.4070 N   0  0  0  0  0  0  0  0  0  0  0  0
  147.7400  158.4600  133.7100 C   0  0  0  0  0  0  0  0  0  0  0  0
  148.5490  159.2410  133.1420 O   0  0  0  0  0  0  0  0  0  0  0  0
  146.2970  158.7740  133.6970 C   0  0  0  0  0  0  0  0  0  0  0  0
  145.7950  160.0730  133.6680 C   0  0  0  0  0  0  0  0  0  0  0  0
  144.4280  159.9350  133.7310 C   0  0  0  0  0  0  0  0  0  0  0  0
  143.4310  160.9060  133.7220 C   0  0  0  0  0  0  0  0  0  0  0  0
  142.0940  160.4780  133.7590 C   0  0  0  0  0  0  0  0  0  0  0  0
  141.7790  159.0970  133.7960 C   0  0  0  0  0  0  0  0  0  0  0  0
  140.3420  158.6610  133.8140 C   0  0  0  0  0  0  0  0  0  0  0  0
  139.8730  158.6510  135.1150 F   0  0  0  0  0  0  0  0  0  0  0  0
  139.5810  159.5350  133.0610 F   0  0  0  0  0  0  0  0  0  0  0  0
  142.8170  158.1390  133.8000 C   0  0  0  0  0  0  0  0  0  0  0  0
  144.1420  158.5950  133.7850 C   0  0  0  0  0  0  0  0  0  0  0  0
  145.2820  157.8670  133.7600 N   0  0  0  0  0  0  0  0  0  0  0  0
  145.3830  156.4350  133.6980 C   0  0  0  0  0  0  0  0  0  0  0  0
  145.1480  155.8370  132.6120 O   0  0  0  0  0  0  0  0  0  0  0  0
  145.7420  155.7120  134.8400 O   0  0  0  0  0  0  0  0  0  0  0  0
  146.3650  154.4310  134.7910 C   0  0  0  0  0  0  0  0  0  0  0  0
  147.2190  154.2220  136.0010 C   0  0  0  0  0  0  0  0  0  0  0  0
  148.1010  155.0680  136.3050 O   0  0  0  0  0  0  0  0  0  0  0  0
  147.0630  153.0800  136.7770 O   0  0  0  0  0  0  0  0  0  0  0  0
  149.2600  157.0890  134.3700 H   0  0  0  0  0  0  0  0  0  0  0  0
  147.6260  156.7510  135.0300 H   0  0  0  0  0  0  0  0  0  0  0  0
  146.3692  161.0093  133.6076 H   0  0  0  0  0  0  0  0  0  0  0  0
  143.6826  161.9763  133.6870 H   0  0  0  0  0  0  0  0  0  0  0  0
  141.2836  161.2218  133.7593 H   0  0  0  0  0  0  0  0  0  0  0  0
  140.2678  157.6489  133.3896 H   0  0  0  0  0  0  0  0  0  0  0  0
  142.5911  157.0626  133.8145 H   0  0  0  0  0  0  0  0  0  0  0  0
  145.5896  153.6516  134.7552 H   0  0  0  0  0  0  0  0  0  0  0  0
  146.9976  154.3751  133.8928 H   0  0  0  0  0  0  0  0  0  0  0  0
  1  2  1  0
  2  3  2  0
  2  4  1  0
  4  5  2  0
  5  6  1  0
  6  7  2  0
  7  8  1  0
  8  9  2  0
  9 10  1  0
 10 11  1  0
 10 12  1  0
  9 13  1  0
 13 14  2  0
 14 15  1  0
 15 16  1  0
 16 17  2  0
 16 18  1  0
 18 19  1  0
 19 20  1  0
 20 21  2  0
 20 22  1  0
 15  4  1  0
 14  6  1  0
  1 23  1  0
  1 24  1  0
  5 25  1  0
  7 26  1  0
  8 27  1  0
 10 28  1  0
 13 29  1  0
 19 30  1  0
 19 31  1  0
M  CHG  1  22  -1
M  END
>  <UniqueID>  (25) 
25

>  <SMILES>  (25) 
NC(=O)c1cc2ccc(C(F)F)cc2n1C(=O)OCC(=O)[O-]

>  <Energy>  (25) 
68.07229924021159

>  <Genealogy>  (25) 
NC(=O)c1cc2ccc(C(F)F)cc2n1C(=O)OCC(=O)[O-] (protonated)
NC(=O)c1cc2ccc(C(F)F)cc2n1C(=O)OCC(=O)[O-] (3D coordinates assigned)
NC(=O)c1cc2ccc(C(F)F)cc2n1C(=O)OCC(=O)[O-] (optimized conformer: 68.07229924021159 kcal/mol)

>  <smiles>  (25) 
NC(=O)c1cc2ccc(C(F)F)cc2n1C(=O)OCC(=O)O

>  <score_type>  (25) 
oracle

>  <origin>  (25) 
adg

>  <m_score__min__energy>  (25) 
-5.8399999999999999

>  <m_primary>  (25) 
energy

$$$$
25:0
     RDKit          3D

 34 36  0  0  0  0  0  0  0  0999 V2000
  141.4630  158.0560  132.9650 C   0  0  0  0  0  0  0  0  0  0  0  0
  142.8480  157.8730  132.6940 O   0  0  0  0  0  0  0  0  0  0  0  0
  143.8140  157.8230  133.7040 C   0  0  0  0  0  0  0  0  0  0  0  0
  143.5690  157.2270  134.7890 O   0  0  0  0  0  0  0  0  0  0  0  0
  145.0970  158.4320  133.4940 N   0  0  0  0  0  0  0  0  0  0  0  0
  145.4180  159.7560  133.5610 C   0  0  0  0  0  0  0  0  0  0  0  0
  144.4640  160.8750  133.7090 C   0  0  0  0  0  0  0  0  0  0  0  0
  143.0930  160.7240  133.3560 N   0  0  0  0  0  0  0  0  0  0  0  0
  144.8770  161.9970  134.1080 O   0  0  0  0  0  0  0  0  0  0  0  0
  146.7880  159.9360  133.3860 C   0  0  0  0  0  0  0  0  0  0  0  0
  147.3010  158.6720  133.1980 C   0  0  0  0  0  0  0  0  0  0  0  0
  148.6120  158.2610  132.9880 C   0  0  0  0  0  0  0  0  0  0  0  0
  148.8600  156.8850  132.8570 C   0  0  0  0  0  0  0  0  0  0  0  0
  147.7990  155.9440  132.9460 C   0  0  0  0  0  0  0  0  0  0  0  0
  148.0480  154.4890  132.8200 C   0  0  0  0  0  0  0  0  0  0  0  0
  147.1090  153.4700  132.8930 C   0  0  0  0  0  0  0  0  0  0  0  0
  147.8090  152.2960  132.7190 C   0  0  0  0  0  0  0  0  0  0  0  0
  149.1280  152.6680  132.5530 C   0  0  0  0  0  0  0  0  0  0  0  0
  150.2610  151.7640  132.3340 C   0  0  0  0  0  0  0  0  0  0  0  0
  150.4450  150.7700  133.0840 O   0  0  0  0  0  0  0  0  0  0  0  0
  149.2400  153.9730  132.6170 O   0  0  0  0  0  0  0  0  0  0  0  0
  146.4790  156.4050  133.1610 C   0  0  0  0  0  0  0  0  0  0  0  0
  146.2610  157.7830  133.2690 C   0  0  0  0  0  0  0  0  0  0  0  0
  141.3019  158.0773  134.0529 H   0  0  0  0  0  0  0  0  0  0  0  0
  141.1259  159.0065  132.5258 H   0  0  0  0  0  0  0  0  0  0  0  0
  140.8906  157.2257  132.5258 H   0  0  0  0  0  0  0  0  0  0  0  0
  142.8010  160.0550  132.6090 H   0  0  0  0  0  0  0  0  0  0  0  0
  147.3424  160.8860  133.3959 H   0  0  0  0  0  0  0  0  0  0  0  0
  149.4314  158.9922  132.9262 H   0  0  0  0  0  0  0  0  0  0  0  0
  149.8872  156.5316  132.6835 H   0  0  0  0  0  0  0  0  0  0  0  0
  146.0265  153.5775  133.0565 H   0  0  0  0  0  0  0  0  0  0  0  0
  147.4014  151.2743  132.7135 H   0  0  0  0  0  0  0  0  0  0  0  0
  150.9581  151.9564  131.5051 H   0  0  0  0  0  0  0  0  0  0  0  0
  145.6421  155.6956  133.2415 H   0  0  0  0  0  0  0  0  0  0  0  0
  1  2  1  0
  2  3  1  0
  3  4  2  0
  3  5  1  0
  5  6  1  0
  6  7  1  0
  7  8  1  0
  7  9  2  0
  6 10  2  0
 10 11  1  0
 11 12  2  0
 12 13  1  0
 13 14  2  0
 14 15  1  0
 15 16  2  0
 16 17  1  0
 17 18  2  0
 18 19  1  0
 19 20  2  0
 18 21  1  0
 14 22  1  0
 22 23  2  0
 23  5  1  0
 23 11  1  0
 21 15  1  0
  1 24  1  0
  1 25  1  0
  1 26  1  0
  8 27  1  0
 10 28  1  0
 12 29  1  0
 13 30  1  0
 16 31  1  0
 17 32  1  0
 19 33  1  0
 22 34  1  0
M  CHG  1   8  -1
M  END
>  <UniqueID>  (26) 
26

>  <SMILES>  (26) 
COC(=O)n1c(C([NH-])=O)cc2ccc(-c3ccc(C=O)o3)cc21

>  <Energy>  (26) 
99.95284172513708

>  <Genealogy>  (26) 
COC(=O)n1c(C([NH-])=O)cc2ccc(-c3ccc(C=O)o3)cc21 (protonated)
COC(=O)n1c(C([NH-])=O)cc2ccc(-c3ccc(C=O)o3)cc21 (3D coordinates assigned)
COC(=O)n1c(C([NH-])=O)cc2ccc(-c3ccc(C=O)o3)cc21 (optimized conformer: 99.95284172513708 kcal/mol)

>  <smiles>  (26) 
COC(=O)n1c(C(N)=O)cc2ccc(-c3ccc(C=O)o3)cc21

>  <score_type>  (26) 
oracle

>  <origin>  (26) 
adg

>  <m_score__min__energy>  (26) 
-6.4299999999999997

>  <m_primary>  (26) 
energy

$$$$
26:0
     RDKit          3D

 33 34  0  0  0  0  0  0  0  0999 V2000
  142.9550  160.6060  133.3610 N   0  0  0  0  0  0  0  0  0  0  0  0
  144.3150  160.8040  133.7430 C   0  0  0  0  0  0  0  0  0  0  0  0
  144.6550  161.9010  134.2630 O   0  0  0  0  0  0  0  0  0  0  0  0
  145.3110  159.7380  133.5070 C   0  0  0  0  0  0  0  0  0  0  0  0
  146.6740  159.9750  133.3330 C   0  0  0  0  0  0  0  0  0  0  0  0
  147.2440  158.7310  133.1860 C   0  0  0  0  0  0  0  0  0  0  0  0
  148.5720  158.3720  132.9640 C   0  0  0  0  0  0  0  0  0  0  0  0
  148.8680  157.0060  132.8180 C   0  0  0  0  0  0  0  0  0  0  0  0
  147.8400  156.0370  132.8890 C   0  0  0  0  0  0  0  0  0  0  0  0
  148.1560  154.6440  132.7260 C   0  0  0  0  0  0  0  0  0  0  0  0
  148.4230  153.4760  132.5880 C   0  0  0  0  0  0  0  0  0  0  0  0
  148.7510  152.0540  132.4250 C   0  0  2  0  0  0  0  0  0  0  0  0
  147.5580  151.3190  132.4050 O   0  0  0  0  0  0  0  0  0  0  0  0
  149.6450  151.5740  133.5750 C   0  0  0  0  0  0  0  0  0  0  0  0
  149.2420  150.3080  134.0240 O   0  0  0  0  0  0  0  0  0  0  0  0
  146.5060  156.4340  133.1130 C   0  0  0  0  0  0  0  0  0  0  0  0
  146.2430  157.7980  133.2730 C   0  0  0  0  0  0  0  0  0  0  0  0
  145.0520  158.4010  133.4760 N   0  0  0  0  0  0  0  0  0  0  0  0
  143.7720  157.7560  133.5610 C   0  0  0  0  0  0  0  0  0  0  0  0
  142.9540  157.8620  132.6080 O   0  0  0  0  0  0  0  0  0  0  0  0
  143.3980  156.9780  134.7510 C   0  0  0  0  0  0  0  0  0  0  0  0
  144.0840  155.9830  135.1040 O   0  0  0  0  0  0  0  0  0  0  0  0
  142.2910  157.3480  135.5050 O   0  0  0  0  0  0  0  0  0  0  0  0
  142.7090  159.9990  132.5490 H   0  0  0  0  0  0  0  0  0  0  0  0
  147.1849  160.9490  133.3167 H   0  0  0  0  0  0  0  0  0  0  0  0
  149.3635  159.1336  132.9049 H   0  0  0  0  0  0  0  0  0  0  0  0
  149.9070  156.6879  132.6472 H   0  0  0  0  0  0  0  0  0  0  0  0
  149.2987  151.9082  131.4822 H   0  0  0  0  0  0  0  0  0  0  0  0
  147.3370  151.1060  133.3500 H   0  0  0  0  0  0  0  0  0  0  0  0
  150.6857  151.5175  133.2233 H   0  0  0  0  0  0  0  0  0  0  0  0
  149.5607  152.2870  134.4084 H   0  0  0  0  0  0  0  0  0  0  0  0
  148.2590  150.3500  134.1600 H   0  0  0  0  0  0  0  0  0  0  0  0
  145.6953  155.6921  133.1606 H   0  0  0  0  0  0  0  0  0  0  0  0
  1  2  1  0
  2  3  2  0
  2  4  1  0
  4  5  2  0
  5  6  1  0
  6  7  2  0
  7  8  1  0
  8  9  2  0
  9 10  1  0
 10 11  3  0
 11 12  1  0
 12 13  1  0
 12 14  1  0
 14 15  1  0
  9 16  1  0
 16 17  2  0
 17 18  1  0
 18 19  1  0
 19 20  2  0
 19 21  1  0
 21 22  2  0
 21 23  1  0
 18  4  1  0
 17  6  1  0
  1 24  1  0
  5 25  1  0
  7 26  1  0
  8 27  1  0
 12 28  1  6
 13 29  1  0
 14 30  1  0
 14 31  1  0
 15 32  1  0
 16 33  1  0
M  CHG  2   1  -1  23  -1
M  END
>  <UniqueID>  (27) 
27

>  <SMILES>  (27) 
[NH-]C(=O)c1cc2ccc(C#C[C@H](O)CO)cc2n1C(=O)C(=O)[O-]

>  <Energy>  (27) 
66.11671926477776

>  <Genealogy>  (27) 
[NH-]C(=O)c1cc2ccc(C#C[C@H](O)CO)cc2n1C(=O)C(=O)[O-] (protonated)
[NH-]C(=O)c1cc2ccc(C#C[C@H](O)CO)cc2n1C(=O)C(=O)[O-] (3D coordinates assigned)
[NH-]C(=O)c1cc2ccc(C#C[C@H](O)CO)cc2n1C(=O)C(=O)[O-] (optimized conformer: 66.11671926477776 kcal/mol)

>  <smiles>  (27) 
NC(=O)c1cc2ccc(C#C[C@H](O)CO)cc2n1C(=O)C(=O)O

>  <score_type>  (27) 
oracle

>  <origin>  (27) 
adg

>  <m_score__min__energy>  (27) 
-6.9699999999999998

>  <m_primary>  (27) 
energy

$$$$
27:0
     RDKit          3D

 42 44  0  0  0  0  0  0  0  0999 V2000
  142.9320  161.1140  133.6540 N   0  0  0  0  0  0  0  0  0  0  0  0
  144.3310  161.3650  133.7440 C   0  0  0  0  0  0  0  0  0  0  0  0
  144.7360  162.5440  133.9270 O   0  0  0  0  0  0  0  0  0  0  0  0
  145.3120  160.2740  133.5680 C   0  0  0  0  0  0  0  0  0  0  0  0
  146.6810  160.4930  133.4170 C   0  0  0  0  0  0  0  0  0  0  0  0
  147.2260  159.2500  133.1890 C   0  0  0  0  0  0  0  0  0  0  0  0
  148.5510  158.8790  132.9800 C   0  0  0  0  0  0  0  0  0  0  0  0
  148.8320  157.5150  132.7980 C   0  0  0  0  0  0  0  0  0  0  0  0
  147.7930  156.5520  132.8340 C   0  0  0  0  0  0  0  0  0  0  0  0
  148.1170  155.0960  132.6540 C   0  0  0  0  0  0  0  0  0  0  0  0
  149.4820  154.9390  132.4940 F   0  0  0  0  0  0  0  0  0  0  0  0
  147.7030  154.3870  133.7670 F   0  0  0  0  0  0  0  0  0  0  0  0
  146.4590  156.9660  133.0510 C   0  0  0  0  0  0  0  0  0  0  0  0
  146.2060  158.3340  133.2110 C   0  0  0  0  0  0  0  0  0  0  0  0
  145.0250  158.9460  133.4460 N   0  0  0  0  0  0  0  0  0  0  0  0
  143.7540  158.3000  133.6150 C   0  0  0  0  0  0  0  0  0  0  0  0
  143.1190  157.8850  132.6070 O   0  0  0  0  0  0  0  0  0  0  0  0
  143.2130  158.1570  134.8960 O   0  0  0  0  0  0  0  0  0  0  0  0
  142.0520  158.8580  135.3240 C   0  0  0  0  0  0  0  0  0  0  0  0
  140.8820  158.5150  134.4000 C   0  0  0  0  0  0  0  0  0  0  0  0
  140.4550  159.6450  133.6640 O   0  0  0  0  0  0  0  0  0  0  0  0
  140.2130  159.3090  132.3090 C   0  0  0  0  0  0  0  0  0  0  0  0
  139.1890  158.1860  132.1780 C   0  0  0  0  0  0  0  0  0  0  0  0
  138.2010  159.1560  131.5500 C   0  0  0  0  0  0  0  0  0  0  0  0
  139.2190  160.2790  131.6790 C   0  0  0  0  0  0  0  0  0  0  0  0
  142.5660  160.1410  133.5510 H   0  0  0  0  0  0  0  0  0  0  0  0
  147.2123  161.4548  133.4691 H   0  0  0  0  0  0  0  0  0  0  0  0
  149.3535  159.6310  132.9580 H   0  0  0  0  0  0  0  0  0  0  0  0
  149.8690  157.1910  132.6258 H   0  0  0  0  0  0  0  0  0  0  0  0
  147.5966  154.7177  131.7618 H   0  0  0  0  0  0  0  0  0  0  0  0
  145.6405  156.2323  133.0931 H   0  0  0  0  0  0  0  0  0  0  0  0
  141.8044  158.5634  136.3545 H   0  0  0  0  0  0  0  0  0  0  0  0
  142.2427  159.9408  135.2890 H   0  0  0  0  0  0  0  0  0  0  0  0
  141.1992  157.7299  133.6978 H   0  0  0  0  0  0  0  0  0  0  0  0
  140.0419  158.1691  135.0202 H   0  0  0  0  0  0  0  0  0  0  0  0
  141.2292  159.1882  131.9056 H   0  0  0  0  0  0  0  0  0  0  0  0
  139.5017  157.3693  131.5107 H   0  0  0  0  0  0  0  0  0  0  0  0
  138.9011  157.5911  133.0573 H   0  0  0  0  0  0  0  0  0  0  0  0
  137.9308  158.9122  130.5120 H   0  0  0  0  0  0  0  0  0  0  0  0
  137.1906  159.2703  131.9696 H   0  0  0  0  0  0  0  0  0  0  0  0
  139.5492  160.6980  130.7170 H   0  0  0  0  0  0  0  0  0  0  0  0
  138.9528  161.2142  132.1933 H   0  0  0  0  0  0  0  0  0  0  0  0
  1  2  1  0
  2  3  2  0
  2  4  1  0
  4  5  2  0
  5  6  1  0
  6  7  2  0
  7  8  1  0
  8  9  2  0
  9 10  1  0
 10 11  1  0
 10 12  1  0
  9 13  1  0
 13 14  2  0
 14 15  1  0
 15 16  1  0
 16 17  2  0
 16 18  1  0
 18 19  1  0
 19 20  1  0
 20 21  1  0
 21 22  1  0
 22 23  1  0
 23 24  1  0
 24 25  1  0
 15  4  1  0
 25 22  1  0
 14  6  1  0
  1 26  1  0
  5 27  1  0
  7 28  1  0
  8 29  1  0
 10 30  1  0
 13 31  1  0
 19 32  1  0
 19 33  1  0
 20 34  1  0
 20 35  1  0
 22 36  1  0
 23 37  1  0
 23 38  1  0
 24 39  1  0
 24 40  1  0
 25 41  1  0
 25 42  1  0
M  CHG  1   1  -1
M  END
>  <UniqueID>  (28) 
28

>  <SMILES>  (28) 
[NH-]C(=O)c1cc2ccc(C(F)F)cc2n1C(=O)OCCOC1CCC1

>  <Energy>  (28) 
139.63226813045017

>  <Genealogy>  (28) 
[NH-]C(=O)c1cc2ccc(C(F)F)cc2n1C(=O)OCCOC1CCC1 (protonated)
[NH-]C(=O)c1cc2ccc(C(F)F)cc2n1C(=O)OCCOC1CCC1 (3D coordinates assigned)
[NH-]C(=O)c1cc2ccc(C(F)F)cc2n1C(=O)OCCOC1CCC1 (nonaromatic ring conformer: 139.63226813045017 kcal/mol)

>  <smiles>  (28) 
NC(=O)c1cc2ccc(C(F)F)cc2n1C(=O)OCCOC1CCC1

>  <score_type>  (28) 
oracle

>  <origin>  (28) 
adg

>  <m_score__min__energy>  (28) 
-6.8600000000000003

>  <m_primary>  (28) 
energy

$$$$
28:0
     RDKit          3D

 43 45  0  0  0  0  0  0  0  0999 V2000
  149.5070  158.2150  132.2050 N   0  0  0  0  0  0  0  0  0  0  0  0
  148.5600  158.3750  133.2640 C   0  0  0  0  0  0  0  0  0  0  0  0
  148.8630  159.0830  134.2610 O   0  0  0  0  0  0  0  0  0  0  0  0
  147.2620  157.6740  133.2410 C   0  0  0  0  0  0  0  0  0  0  0  0
  146.0400  158.3200  133.4070 C   0  0  0  0  0  0  0  0  0  0  0  0
  145.0950  157.3190  133.3880 C   0  0  0  0  0  0  0  0  0  0  0  0
  143.7110  157.3960  133.5000 C   0  0  0  0  0  0  0  0  0  0  0  0
  142.9750  156.2030  133.4110 C   0  0  0  0  0  0  0  0  0  0  0  0
  143.6280  154.9600  133.2010 C   0  0  0  0  0  0  0  0  0  0  0  0
  142.8390  153.7050  133.1000 C   0  0  0  0  0  0  0  0  0  0  0  0
  141.4330  153.7420  133.1020 C   0  0  0  0  0  0  0  0  0  0  0  0
  140.6920  152.5600  133.0130 C   0  0  0  0  0  0  0  0  0  0  0  0
  141.3430  151.3240  132.9170 C   0  0  0  0  0  0  0  0  0  0  0  0
  140.4080  149.8360  132.8210 S   0  0  0  0  0  0  0  0  0  0  0  0
  141.1430  148.8240  131.9870 O   0  0  0  0  0  0  0  0  0  0  0  0
  139.0760  150.1110  132.1820 O   0  0  0  0  0  0  0  0  0  0  0  0
  140.1720  149.2230  134.3660 O   0  0  0  0  0  0  0  0  0  0  0  0
  142.7420  151.2780  132.9210 C   0  0  0  0  0  0  0  0  0  0  0  0
  143.4870  152.4580  133.0090 C   0  0  0  0  0  0  0  0  0  0  0  0
  145.0380  154.9270  133.0870 C   0  0  0  0  0  0  0  0  0  0  0  0
  145.7480  156.1280  133.2040 C   0  0  0  0  0  0  0  0  0  0  0  0
  147.0820  156.3290  133.1090 N   0  0  0  0  0  0  0  0  0  0  0  0
  148.0790  155.3370  132.8100 C   0  0  0  0  0  0  0  0  0  0  0  0
  149.2750  155.6860  132.6130 O   0  0  0  0  0  0  0  0  0  0  0  0
  147.7180  153.9890  132.7340 O   0  0  0  0  0  0  0  0  0  0  0  0
  148.3890  152.9690  133.4660 C   0  0  0  0  0  0  0  0  0  0  0  0
  149.5150  152.3800  132.6230 C   0  0  0  0  0  0  0  0  0  0  0  0
  149.6210  153.0610  131.4020 O   0  0  0  0  0  0  0  0  0  0  0  0
  149.3600  157.5070  131.4530 H   0  0  0  0  0  0  0  0  0  0  0  0
  150.4030  158.7500  132.2200 H   0  0  0  0  0  0  0  0  0  0  0  0
  145.8666  159.3995  133.5276 H   0  0  0  0  0  0  0  0  0  0  0  0
  143.2078  158.3620  133.6537 H   0  0  0  0  0  0  0  0  0  0  0  0
  141.8794  156.2321  133.5051 H   0  0  0  0  0  0  0  0  0  0  0  0
  140.9125  154.7084  133.1742 H   0  0  0  0  0  0  0  0  0  0  0  0
  139.5928  152.6010  133.0184 H   0  0  0  0  0  0  0  0  0  0  0  0
  143.2579  150.3087  132.8546 H   0  0  0  0  0  0  0  0  0  0  0  0
  144.5860  152.4120  133.0071 H   0  0  0  0  0  0  0  0  0  0  0  0
  145.5651  153.9779  132.9102 H   0  0  0  0  0  0  0  0  0  0  0  0
  148.8094  153.3980  134.3875 H   0  0  0  0  0  0  0  0  0  0  0  0
  147.6723  152.1739  133.7191 H   0  0  0  0  0  0  0  0  0  0  0  0
  150.4639  152.4708  133.1719 H   0  0  0  0  0  0  0  0  0  0  0  0
  149.2933  151.3214  132.4223 H   0  0  0  0  0  0  0  0  0  0  0  0
  148.9730  153.8120  131.4360 H   0  0  0  0  0  0  0  0  0  0  0  0
  1  2  1  0
  2  3  2  0
  2  4  1  0
  4  5  2  0
  5  6  1  0
  6  7  2  0
  7  8  1  0
  8  9  2  0
  9 10  1  0
 10 11  2  0
 11 12  1  0
 12 13  2  0
 13 14  1  0
 14 15  2  0
 14 16  2  0
 14 17  1  0
 13 18  1  0
 18 19  2  0
  9 20  1  0
 20 21  2  0
 21 22  1  0
 22 23  1  0
 23 24  2  0
 23 25  1  0
 25 26  1  0
 26 27  1  0
 27 28  1  0
 22  4  1  0
 21  6  1  0
 19 10  1  0
  1 29  1  0
  1 30  1  0
  5 31  1  0
  7 32  1  0
  8 33  1  0
 11 34  1  0
 12 35  1  0
 18 36  1  0
 19 37  1  0
 20 38  1  0
 26 39  1  0
 26 40  1  0
 27 41  1  0
 27 42  1  0
 28 43  1  0
M  CHG  1  17  -1
M  END
>  <UniqueID>  (29) 
29

>  <SMILES>  (29) 
NC(=O)c1cc2ccc(-c3ccc(S(=O)(=O)[O-])cc3)cc2n1C(=O)OCCO

>  <Energy>  (29) 
86.08372068095365

>  <Genealogy>  (29) 
NC(=O)c1cc2ccc(-c3ccc(S(=O)(=O)[O-])cc3)cc2n1C(=O)OCCO (protonated)
NC(=O)c1cc2ccc(-c3ccc(S(=O)(=O)[O-])cc3)cc2n1C(=O)OCCO (3D coordinates assigned)
NC(=O)c1cc2ccc(-c3ccc(S(=O)(=O)[O-])cc3)cc2n1C(=O)OCCO (optimized conformer: 86.08372068095365 kcal/mol)

>  <smiles>  (29) 
NC(=O)c1cc2ccc(-c3ccc(S(=O)(=O)O)cc3)cc2n1C(=O)OCCO

>  <score_type>  (29) 
oracle

>  <origin>  (29) 
adg

>  <m_score__min__energy>  (29) 
-8.1500000000000004

>  <m_primary>  (29) 
energy

$$$$
29:0
     RDKit          3D

 49 51  0  0  0  0  0  0  0  0999 V2000
  141.1640  157.1610  136.6260 C   0  0  0  0  0  0  0  0  0  0  0  0
  140.3980  158.4590  136.4020 C   0  0  0  0  0  0  0  0  0  0  0  0
  139.3510  158.2620  135.4550 O   0  0  0  0  0  0  0  0  0  0  0  0
  139.5700  158.1620  134.0760 C   0  0  0  0  0  0  0  0  0  0  0  0
  139.9960  159.1490  133.4160 O   0  0  0  0  0  0  0  0  0  0  0  0
  139.2390  156.8870  133.3700 C   0  0  0  0  0  0  0  0  0  0  0  0
  139.8890  155.7910  134.0090 O   0  0  0  0  0  0  0  0  0  0  0  0
  140.1760  154.5860  133.3560 C   0  0  0  0  0  0  0  0  0  0  0  0
  139.2640  153.9530  132.7550 O   0  0  0  0  0  0  0  0  0  0  0  0
  141.5180  154.0770  133.3580 N   0  0  0  0  0  0  0  0  0  0  0  0
  141.9110  152.7760  133.4370 C   0  0  0  0  0  0  0  0  0  0  0  0
  141.0210  151.5990  133.3690 C   0  0  0  0  0  0  0  0  0  0  0  0
  139.9710  151.5170  132.4030 N   0  0  0  0  0  0  0  0  0  0  0  0
  141.2220  150.6270  134.1450 O   0  0  0  0  0  0  0  0  0  0  0  0
  143.2940  152.6880  133.5650 C   0  0  0  0  0  0  0  0  0  0  0  0
  143.7440  153.9890  133.5550 C   0  0  0  0  0  0  0  0  0  0  0  0
  145.0350  154.4910  133.6830 C   0  0  0  0  0  0  0  0  0  0  0  0
  145.2020  155.8860  133.6990 C   0  0  0  0  0  0  0  0  0  0  0  0
  144.0810  156.7540  133.6020 C   0  0  0  0  0  0  0  0  0  0  0  0
  144.2630  158.2250  133.6520 C   0  0  0  0  0  0  0  0  0  0  0  0
  143.2040  159.0650  134.0340 C   0  0  0  0  0  0  0  0  0  0  0  0
  143.3800  160.4510  134.0860 C   0  0  0  0  0  0  0  0  0  0  0  0
  144.6130  161.0240  133.7560 C   0  0  0  0  0  0  0  0  0  0  0  0
  144.7390  162.4200  133.8250 O   0  0  0  0  0  0  0  0  0  0  0  0
  145.6330  163.1040  134.6970 C   0  0  0  0  0  0  0  0  0  0  0  0
  145.6770  160.1880  133.3700 C   0  0  0  0  0  0  0  0  0  0  0  0
  145.5010  158.8020  133.3170 C   0  0  0  0  0  0  0  0  0  0  0  0
  142.7860  156.2010  133.4700 C   0  0  0  0  0  0  0  0  0  0  0  0
  142.6520  154.8090  133.4340 C   0  0  0  0  0  0  0  0  0  0  0  0
  141.2708  156.9800  137.7057 H   0  0  0  0  0  0  0  0  0  0  0  0
  140.6136  156.3265  136.1670 H   0  0  0  0  0  0  0  0  0  0  0  0
  142.1606  157.2395  136.1670 H   0  0  0  0  0  0  0  0  0  0  0  0
  139.9651  158.7935  137.3563 H   0  0  0  0  0  0  0  0  0  0  0  0
  141.0914  159.2196  136.0137 H   0  0  0  0  0  0  0  0  0  0  0  0
  138.1506  156.7293  133.3947 H   0  0  0  0  0  0  0  0  0  0  0  0
  139.5838  156.9524  132.3275 H   0  0  0  0  0  0  0  0  0  0  0  0
  139.3240  150.6970  132.4030 H   0  0  0  0  0  0  0  0  0  0  0  0
  139.8880  152.2180  131.6350 H   0  0  0  0  0  0  0  0  0  0  0  0
  143.8988  151.7736  133.6550 H   0  0  0  0  0  0  0  0  0  0  0  0
  145.8993  153.8160  133.7691 H   0  0  0  0  0  0  0  0  0  0  0  0
  146.2125  156.3113  133.7877 H   0  0  0  0  0  0  0  0  0  0  0  0
  142.2283  158.6288  134.2943 H   0  0  0  0  0  0  0  0  0  0  0  0
  142.5422  161.0963  134.3888 H   0  0  0  0  0  0  0  0  0  0  0  0
  145.3588  162.8942  135.7414 H   0  0  0  0  0  0  0  0  0  0  0  0
  146.6612  162.7598  134.5116 H   0  0  0  0  0  0  0  0  0  0  0  0
  145.5697  164.1864  134.5116 H   0  0  0  0  0  0  0  0  0  0  0  0
  146.6513  160.6268  133.1088 H   0  0  0  0  0  0  0  0  0  0  0  0
  146.3380  158.1574  133.0107 H   0  0  0  0  0  0  0  0  0  0  0  0
  141.9024  156.8521  133.3971 H   0  0  0  0  0  0  0  0  0  0  0  0
  1  2  1  0
  2  3  1  0
  3  4  1  0
  4  5  2  0
  4  6  1  0
  6  7  1  0
  7  8  1  0
  8  9  2  0
  8 10  1  0
 10 11  1  0
 11 12  1  0
 12 13  1  0
 12 14  2  0
 11 15  2  0
 15 16  1  0
 16 17  2  0
 17 18  1  0
 18 19  2  0
 19 20  1  0
 20 21  2  0
 21 22  1  0
 22 23  2  0
 23 24  1  0
 24 25  1  0
 23 26  1  0
 26 27  2  0
 19 28  1  0
 28 29  2  0
 29 10  1  0
 29 16  1  0
 27 20  1  0
  1 30  1  0
  1 31  1  0
  1 32  1  0
  2 33  1  0
  2 34  1  0
  6 35  1  0
  6 36  1  0
 13 37  1  0
 13 38  1  0
 15 39  1  0
 17 40  1  0
 18 41  1  0
 21 42  1  0
 22 43  1  0
 25 44  1  0
 25 45  1  0
 25 46  1  0
 26 47  1  0
 27 48  1  0
 28 49  1  0
M  END
>  <UniqueID>  (30) 
30

>  <SMILES>  (30) 
CCOC(=O)COC(=O)n1c(C(N)=O)cc2ccc(-c3ccc(OC)cc3)cc21

>  <Energy>  (30) 
86.9073687321481

>  <Genealogy>  (30) 
CCOC(=O)COC(=O)n1c(C(N)=O)cc2ccc(-c3ccc(OC)cc3)cc21 (3D coordinates assigned)
CCOC(=O)COC(=O)n1c(C(N)=O)cc2ccc(-c3ccc(OC)cc3)cc21 (optimized conformer: 86.9073687321481 kcal/mol)

>  <smiles>  (30) 
CCOC(=O)COC(=O)n1c(C(N)=O)cc2ccc(-c3ccc(OC)cc3)cc21

>  <score_type>  (30) 
oracle

>  <origin>  (30) 
adg

>  <m_score__min__energy>  (30) 
-7.9100000000000001

>  <m_primary>  (30) 
energy

$$$$
30:0
     RDKit          3D

 37 39  0  0  0  0  0  0  0  0999 V2000
  142.8070  161.0300  133.6360 N   0  0  0  0  0  0  0  0  0  0  0  0
  144.1960  161.3360  133.7330 C   0  0  0  0  0  0  0  0  0  0  0  0
  144.5520  162.5220  133.9590 O   0  0  0  0  0  0  0  0  0  0  0  0
  145.1980  160.2590  133.6020 C   0  0  0  0  0  0  0  0  0  0  0  0
  146.5490  160.4870  133.3500 C   0  0  0  0  0  0  0  0  0  0  0  0
  147.1110  159.2370  133.2180 C   0  0  0  0  0  0  0  0  0  0  0  0
  148.4320  158.8670  132.9790 C   0  0  0  0  0  0  0  0  0  0  0  0
  148.7310  157.4960  132.9200 C   0  0  0  0  0  0  0  0  0  0  0  0
  147.7110  156.5210  133.0840 C   0  0  0  0  0  0  0  0  0  0  0  0
  148.0560  155.0540  133.0750 C   0  0  0  0  0  0  0  0  0  0  0  0
  149.2940  154.8470  132.4890 F   0  0  0  0  0  0  0  0  0  0  0  0
  148.1000  154.5550  134.3650 F   0  0  0  0  0  0  0  0  0  0  0  0
  147.0970  154.3650  132.3570 F   0  0  0  0  0  0  0  0  0  0  0  0
  146.3860  156.9400  133.3480 C   0  0  0  0  0  0  0  0  0  0  0  0
  146.1170  158.3110  133.3910 C   0  0  0  0  0  0  0  0  0  0  0  0
  144.9370  158.9220  133.6330 N   0  0  0  0  0  0  0  0  0  0  0  0
  143.6960  158.2640  133.9260 C   0  0  0  0  0  0  0  0  0  0  0  0
  143.0390  158.6050  134.9480 O   0  0  0  0  0  0  0  0  0  0  0  0
  143.1000  157.2930  132.9440 C   0  0  0  0  0  0  0  0  0  0  0  0
  141.6590  156.9220  133.3090 C   0  0  0  0  0  0  0  0  0  0  0  0
  140.7130  157.9980  132.8610 C   0  0  0  0  0  0  0  0  0  0  0  0
  139.4660  157.7290  132.3040 C   0  0  0  0  0  0  0  0  0  0  0  0
  138.7130  159.2060  132.0120 S   0  0  0  0  0  0  0  0  0  0  0  0
  139.9880  160.1230  132.6090 C   0  0  0  0  0  0  0  0  0  0  0  0
  140.9870  159.3210  133.0340 N   0  0  0  0  0  0  0  0  0  0  0  0
  142.3320  160.4550  134.3670 H   0  0  0  0  0  0  0  0  0  0  0  0
  147.0584  161.4589  133.2729 H   0  0  0  0  0  0  0  0  0  0  0  0
  149.2170  159.6250  132.8407 H   0  0  0  0  0  0  0  0  0  0  0  0
  149.7678  157.1732  132.7446 H   0  0  0  0  0  0  0  0  0  0  0  0
  145.5859  156.2040  133.5156 H   0  0  0  0  0  0  0  0  0  0  0  0
  143.1068  157.7500  131.9435 H   0  0  0  0  0  0  0  0  0  0  0  0
  143.7040  156.3739  132.9647 H   0  0  0  0  0  0  0  0  0  0  0  0
  141.3920  155.9759  132.8154 H   0  0  0  0  0  0  0  0  0  0  0  0
  141.5840  156.8125  134.4010 H   0  0  0  0  0  0  0  0  0  0  0  0
  139.0488  156.7332  132.0932 H   0  0  0  0  0  0  0  0  0  0  0  0
  140.0061  161.2222  132.6480 H   0  0  0  0  0  0  0  0  0  0  0  0
  141.8710  159.6820  133.4550 H   0  0  0  0  0  0  0  0  0  0  0  0
  1  2  1  0
  2  3  2  0
  2  4  1  0
  4  5  2  0
  5  6  1  0
  6  7  2  0
  7  8  1  0
  8  9  2  0
  9 10  1  0
 10 11  1  0
 10 12  1  0
 10 13  1  0
  9 14  1  0
 14 15  2  0
 15 16  1  0
 16 17  1  0
 17 18  2  0
 17 19  1  0
 19 20  1  0
 20 21  1  0
 21 22  2  0
 22 23  1  0
 23 24  1  0
 24 25  2  0
 16  4  1  0
 25 21  1  0
 15  6  1  0
  1 26  1  0
  5 27  1  0
  7 28  1  0
  8 29  1  0
 14 30  1  0
 19 31  1  0
 19 32  1  0
 20 33  1  0
 20 34  1  0
 22 35  1  0
 24 36  1  0
 25 37  1  0
M  CHG  2   1  -1  25   1
M  END
>  <UniqueID>  (31) 
31

>  <SMILES>  (31) 
[NH-]C(=O)c1cc2ccc(C(F)(F)F)cc2n1C(=O)CCc1csc[nH+]1

>  <Energy>  (31) 
105.11122675982523

>  <Genealogy>  (31) 
[NH-]C(=O)c1cc2ccc(C(F)(F)F)cc2n1C(=O)CCc1csc[nH+]1 (protonated)
[NH-]C(=O)c1cc2ccc(C(F)(F)F)cc2n1C(=O)CCc1csc[nH+]1 (3D coordinates assigned)
[NH-]C(=O)c1cc2ccc(C(F)(F)F)cc2n1C(=O)CCc1csc[nH+]1 (optimized conformer: 105.11122675982523 kcal/mol)

>  <smiles>  (31) 
NC(=O)c1cc2ccc(C(F)(F)F)cc2n1C(=O)CCc1cscn1

>  <score_type>  (31) 
oracle

>  <origin>  (31) 
adg

>  <m_score__min__energy>  (31) 
-6.3399999999999999

>  <m_primary>  (31) 
energy

$$$$
31:0
     RDKit          3D

 40 42  0  0  0  0  0  0  0  0999 V2000
  150.2070  158.2660  131.8530 C   0  0  0  0  0  0  0  0  0  0  0  0
  148.7960  158.5370  132.2560 C   0  0  0  0  0  0  0  0  0  0  0  0
  148.2930  159.7950  132.1670 N   0  0  0  0  0  0  0  0  0  0  0  0
  147.0040  160.0610  132.5030 C   0  0  0  0  0  0  0  0  0  0  0  0
  146.1610  159.0270  132.9400 C   0  0  0  0  0  0  0  0  0  0  0  0
  144.7530  159.2940  133.3280 C   0  0  0  0  0  0  0  0  0  0  0  0
  144.3290  160.6150  133.6350 C   0  0  0  0  0  0  0  0  0  0  0  0
  142.9930  160.8800  133.9830 C   0  0  0  0  0  0  0  0  0  0  0  0
  142.1040  159.8100  134.0230 C   0  0  0  0  0  0  0  0  0  0  0  0
  140.7520  159.7880  134.2810 C   0  0  0  0  0  0  0  0  0  0  0  0
  140.3750  158.4530  134.1510 C   0  0  0  0  0  0  0  0  0  0  0  0
  139.0060  157.9620  134.3950 C   0  0  0  0  0  0  0  0  0  0  0  0
  138.3280  157.1530  133.4330 N   0  0  0  0  0  0  0  0  0  0  0  0
  138.4430  158.2190  135.4920 O   0  0  0  0  0  0  0  0  0  0  0  0
  141.4480  157.6840  133.8160 N   0  0  0  0  0  0  0  0  0  0  0  0
  141.4610  156.3010  133.4310 C   0  0  0  0  0  0  0  0  0  0  0  0
  140.5880  155.8760  132.6260 O   0  0  0  0  0  0  0  0  0  0  0  0
  142.4900  155.3480  134.0010 C   0  0  1  0  0  0  0  0  0  0  0  0
  142.0020  154.7210  135.3130 C   0  0  0  0  0  0  0  0  0  0  0  0
  142.8160  154.3400  133.0720 O   0  0  0  0  0  0  0  0  0  0  0  0
  142.4990  158.5290  133.7460 C   0  0  0  0  0  0  0  0  0  0  0  0
  143.8160  158.2350  133.3830 C   0  0  0  0  0  0  0  0  0  0  0  0
  146.7000  157.7330  133.0060 C   0  0  0  0  0  0  0  0  0  0  0  0
  147.9970  157.5160  132.6640 N   0  0  0  0  0  0  0  0  0  0  0  0
  150.8288  158.1466  132.7525 H   0  0  0  0  0  0  0  0  0  0  0  0
  150.2468  157.3438  131.2547 H   0  0  0  0  0  0  0  0  0  0  0  0
  150.5856  159.1079  131.2547 H   0  0  0  0  0  0  0  0  0  0  0  0
  146.6197  161.0893  132.4325 H   0  0  0  0  0  0  0  0  0  0  0  0
  145.0552  161.4405  133.5999 H   0  0  0  0  0  0  0  0  0  0  0  0
  142.6603  161.9021  134.2166 H   0  0  0  0  0  0  0  0  0  0  0  0
  140.1070  160.6420  134.5355 H   0  0  0  0  0  0  0  0  0  0  0  0
  138.8140  156.8070  132.5770 H   0  0  0  0  0  0  0  0  0  0  0  0
  137.3470  156.8410  133.6080 H   0  0  0  0  0  0  0  0  0  0  0  0
  143.3967  155.9332  134.2145 H   0  0  0  0  0  0  0  0  0  0  0  0
  142.4302  155.2712  136.1639 H   0  0  0  0  0  0  0  0  0  0  0  0
  140.9041  154.7727  135.3580 H   0  0  0  0  0  0  0  0  0  0  0  0
  142.3217  153.6694  135.3580 H   0  0  0  0  0  0  0  0  0  0  0  0
  142.3070  154.5240  132.2380 H   0  0  0  0  0  0  0  0  0  0  0  0
  144.1174  157.2041  133.1455 H   0  0  0  0  0  0  0  0  0  0  0  0
  146.0712  156.8926  133.3353 H   0  0  0  0  0  0  0  0  0  0  0  0
  1  2  1  0
  2  3  2  0
  3  4  1  0
  4  5  2  0
  5  6  1  0
  6  7  2  0
  7  8  1  0
  8  9  2  0
  9 10  1  0
 10 11  2  0
 11 12  1  0
 12 13  1  0
 12 14  2  0
 11 15  1  0
 15 16  1  0
 16 17  2  0
 16 18  1  0
 18 19  1  0
 18 20  1  0
 15 21  1  0
 21 22  2  0
  5 23  1  0
 23 24  2  0
 24  2  1  0
 22  6  1  0
 21  9  1  0
  1 25  1  0
  1 26  1  0
  1 27  1  0
  4 28  1  0
  7 29  1  0
  8 30  1  0
 10 31  1  0
 13 32  1  0
 13 33  1  0
 18 34  1  1
 19 35  1  0
 19 36  1  0
 19 37  1  0
 20 38  1  0
 22 39  1  0
 23 40  1  0
M  END
>  <UniqueID>  (32) 
32

>  <SMILES>  (32) 
Cc1ncc(-c2ccc3cc(C(N)=O)n(C(=O)[C@@H](C)O)c3c2)cn1

>  <Energy>  (32) 
86.44194879242615

>  <Genealogy>  (32) 
Cc1ncc(-c2ccc3cc(C(N)=O)n(C(=O)[C@@H](C)O)c3c2)cn1 (3D coordinates assigned)
Cc1ncc(-c2ccc3cc(C(N)=O)n(C(=O)[C@@H](C)O)c3c2)cn1 (optimized conformer: 86.44194879242615 kcal/mol)

>  <smiles>  (32) 
Cc1ncc(-c2ccc3cc(C(N)=O)n(C(=O)[C@@H](C)O)c3c2)cn1

>  <score_type>  (32) 
oracle

>  <origin>  (32) 
adg

>  <m_score__min__energy>  (32) 
-7.6900000000000004

>  <m_primary>  (32) 
energy

$$$$
32:0
     RDKit          3D

 44 45  0  0  0  0  0  0  0  0999 V2000
  147.2234  155.8451  131.9419 H   0  0  0  0  0  0  0  0  0  0  0  0
  147.7160  155.8150  132.9250 C   0  0  0  0  0  0  0  0  0  0  0  0
  147.4350  156.8840  133.8980 C   0  0  0  0  0  0  0  0  0  0  0  0
  147.9570  156.8240  135.0440 O   0  0  0  0  0  0  0  0  0  0  0  0
  146.5610  157.9760  133.5730 N   0  0  0  0  0  0  0  0  0  0  0  0
  146.9060  159.2120  133.1140 C   0  0  0  0  0  0  0  0  0  0  0  0
  148.2830  159.6380  132.7710 C   0  0  0  0  0  0  0  0  0  0  0  0
  148.4660  160.5850  131.9600 O   0  0  0  0  0  0  0  0  0  0  0  0
  149.4200  159.0020  133.3570 N   0  0  0  0  0  0  0  0  0  0  0  0
  149.3210  158.1830  133.9970 H   0  0  0  0  0  0  0  0  0  0  0  0
  150.3820  159.3240  133.1130 H   0  0  0  0  0  0  0  0  0  0  0  0
  145.7670  160.0050  132.9600 C   0  0  0  0  0  0  0  0  0  0  0  0
  145.7217  161.0428  132.5982 H   0  0  0  0  0  0  0  0  0  0  0  0
  144.7120  159.2130  133.3570 C   0  0  0  0  0  0  0  0  0  0  0  0
  143.3510  159.4950  133.4230 C   0  0  0  0  0  0  0  0  0  0  0  0
  142.9588  160.4727  133.1063 H   0  0  0  0  0  0  0  0  0  0  0  0
  142.4920  158.4920  133.9070 C   0  0  0  0  0  0  0  0  0  0  0  0
  141.4096  158.6803  133.9607 H   0  0  0  0  0  0  0  0  0  0  0  0
  143.0090  157.2410  134.3260 C   0  0  0  0  0  0  0  0  0  0  0  0
  142.0830  156.1700  134.8220 C   0  0  0  0  0  0  0  0  0  0  0  0
  142.0809  156.1676  135.9220 H   0  0  0  0  0  0  0  0  0  0  0  0
  141.0651  156.3660  134.4539 H   0  0  0  0  0  0  0  0  0  0  0  0
  142.4239  155.1911  134.4539 H   0  0  0  0  0  0  0  0  0  0  0  0
  144.3930  156.9830  134.2210 C   0  0  0  0  0  0  0  0  0  0  0  0
  144.8101  156.0104  134.5211 H   0  0  0  0  0  0  0  0  0  0  0  0
  145.2190  157.9950  133.7260 C   0  0  0  0  0  0  0  0  0  0  0  0
  148.5520  154.8090  133.2010 C   0  0  0  0  0  0  0  0  0  0  0  0
  149.0375  154.7623  134.1870 H   0  0  0  0  0  0  0  0  0  0  0  0
  148.8370  153.7440  132.1860 C   0  0  0  0  0  0  0  0  0  0  0  0
  149.9248  153.6588  132.0465 H   0  0  0  0  0  0  0  0  0  0  0  0
  148.3532  154.0185  131.2370 H   0  0  0  0  0  0  0  0  0  0  0  0
  148.3030  152.4470  132.6350 N   0  0  0  0  0  0  0  0  0  0  0  0
  147.9750  151.9310  131.7830 H   0  0  0  0  0  0  0  0  0  0  0  0
  149.3180  151.6000  133.2820 C   0  0  0  0  0  0  0  0  0  0  0  0
  148.8119  150.8552  133.9138 H   0  0  0  0  0  0  0  0  0  0  0  0
  149.9725  152.2460  133.8856 H   0  0  0  0  0  0  0  0  0  0  0  0
  150.1830  150.8710  132.2490 C   0  0  0  0  0  0  0  0  0  0  0  0
  150.3732  149.8420  132.5882 H   0  0  0  0  0  0  0  0  0  0  0  0
  151.1421  151.3967  132.1315 H   0  0  0  0  0  0  0  0  0  0  0  0
  149.5020  150.8430  131.0140 O   0  0  0  0  0  0  0  0  0  0  0  0
  150.3720  150.3730  130.0090 C   0  0  0  0  0  0  0  0  0  0  0  0
  151.2487  149.8994  130.4750 H   0  0  0  0  0  0  0  0  0  0  0  0
  149.8461  149.6363  129.3840 H   0  0  0  0  0  0  0  0  0  0  0  0
  150.6999  151.2167  129.3840 H   0  0  0  0  0  0  0  0  0  0  0  0
  1  2  1  0
  2  3  1  0
  3  4  2  0
  3  5  1  0
  5  6  1  0
  6  7  1  0
  7  8  2  0
  7  9  1  0
  9 10  1  0
  9 11  1  0
  6 12  2  0
 12 13  1  0
 12 14  1  0
 14 15  2  0
 15 16  1  0
 15 17  1  0
 17 18  1  0
 17 19  2  0
 19 20  1  0
 20 21  1  0
 20 22  1  0
 20 23  1  0
 19 24  1  0
 24 25  1  0
 24 26  2  0
  2 27  2  0
 27 28  1  0
 27 29  1  0
 29 30  1  0
 29 31  1  0
 29 32  1  0
 32 33  1  0
 32 34  1  0
 34 35  1  0
 34 36  1  0
 34 37  1  0
 37 38  1  0
 37 39  1  0
 37 40  1  0
 40 41  1  0
 41 42  1  0
 41 43  1  0
 41 44  1  0
 26  5  1  0
 26 14  1  0
M  END
>  <UniqueID>  (33) 
33

>  <SMILES>  (33) 
COCCNC/C=C/C(=O)n1c(C(N)=O)cc2ccc(C)cc21

>  <Energy>  (33) 
76.52506160340396

>  <Genealogy>  (33) 
COCCNC/C=C/C(=O)n1c(C(N)=O)cc2ccc(C)cc21 (cis-trans isomerization)
COCCNC/C=C/C(=O)n1c(C(N)=O)cc2ccc(C)cc21 (3D coordinates assigned)
COCCNC/C=C/C(=O)n1c(C(N)=O)cc2ccc(C)cc21 (optimized conformer: 76.52506160340396 kcal/mol)

>  <smiles>  (33) 
COCCNC/C=C/C(=O)n1c(C(N)=O)cc2ccc(C)cc21

>  <score_type>  (33) 
oracle

>  <origin>  (33) 
adg

>  <m_score__min__energy>  (33) 
-7.4400000000000004

>  <m_primary>  (33) 
energy

$$$$
33:0
     RDKit          3D

 44 46  0  0  0  0  0  0  0  0999 V2000
  148.3200  157.2170  134.4900 C   0  0  0  0  0  0  0  0  0  0  0  0
  148.5190  157.9570  133.1640 C   0  0  0  0  0  0  0  0  0  0  0  0
  149.4360  157.1360  132.2470 C   0  0  0  0  0  0  0  0  0  0  0  0
  149.1170  159.2060  133.4260 O   0  0  0  0  0  0  0  0  0  0  0  0
  148.4700  160.1110  132.5900 C   0  0  0  0  0  0  0  0  0  0  0  0
  147.1500  159.4760  132.2240 C   0  0  2  0  0  0  0  0  0  0  0  0
  145.9510  160.0850  132.9680 C   0  0  0  0  0  0  0  0  0  0  0  0
  144.7340  159.4340  132.6010 O   0  0  0  0  0  0  0  0  0  0  0  0
  143.5600  159.4780  133.3610 C   0  0  0  0  0  0  0  0  0  0  0  0
  143.2970  160.4840  134.0730 O   0  0  0  0  0  0  0  0  0  0  0  0
  142.6410  158.3750  133.3100 N   0  0  0  0  0  0  0  0  0  0  0  0
  142.8470  157.1000  133.7470 C   0  0  0  0  0  0  0  0  0  0  0  0
  144.1270  156.5610  134.2600 C   0  0  0  0  0  0  0  0  0  0  0  0
  145.3560  156.8320  133.5840 N   0  0  0  0  0  0  0  0  0  0  0  0
  144.1490  155.8820  135.3200 O   0  0  0  0  0  0  0  0  0  0  0  0
  141.7080  156.3240  133.5410 C   0  0  0  0  0  0  0  0  0  0  0  0
  140.7930  157.1680  132.9550 C   0  0  0  0  0  0  0  0  0  0  0  0
  139.4950  156.9160  132.5230 C   0  0  0  0  0  0  0  0  0  0  0  0
  138.7730  157.9780  131.9530 C   0  0  0  0  0  0  0  0  0  0  0  0
  139.3460  159.2720  131.8480 C   0  0  0  0  0  0  0  0  0  0  0  0
  138.5760  160.3940  131.2000 C   0  0  0  0  0  0  0  0  0  0  0  0
  139.1070  161.6210  131.5570 F   0  0  0  0  0  0  0  0  0  0  0  0
  138.6440  160.2570  129.8260 F   0  0  0  0  0  0  0  0  0  0  0  0
  137.2480  160.3680  131.5910 F   0  0  0  0  0  0  0  0  0  0  0  0
  140.6770  159.4800  132.2780 C   0  0  0  0  0  0  0  0  0  0  0  0
  141.3790  158.4000  132.8260 C   0  0  0  0  0  0  0  0  0  0  0  0
  147.2630  158.1180  132.5370 O   0  0  0  0  0  0  0  0  0  0  0  0
  148.5055  157.9070  135.3264 H   0  0  0  0  0  0  0  0  0  0  0  0
  147.2884  156.8395  134.5480 H   0  0  0  0  0  0  0  0  0  0  0  0
  149.0231  156.3730  134.5480 H   0  0  0  0  0  0  0  0  0  0  0  0
  150.1167  156.5266  132.8596 H   0  0  0  0  0  0  0  0  0  0  0  0
  148.8252  156.4774  131.6121 H   0  0  0  0  0  0  0  0  0  0  0  0
  150.0233  157.8157  131.6121 H   0  0  0  0  0  0  0  0  0  0  0  0
  148.3027  161.0630  133.1151 H   0  0  0  0  0  0  0  0  0  0  0  0
  149.0710  160.3309  131.6953 H   0  0  0  0  0  0  0  0  0  0  0  0
  146.9533  159.6496  131.1557 H   0  0  0  0  0  0  0  0  0  0  0  0
  146.1058  159.9732  134.0513 H   0  0  0  0  0  0  0  0  0  0  0  0
  145.8744  161.1482  132.6963 H   0  0  0  0  0  0  0  0  0  0  0  0
  146.2580  156.4820  133.9750 H   0  0  0  0  0  0  0  0  0  0  0  0
  145.3730  157.3450  132.6740 H   0  0  0  0  0  0  0  0  0  0  0  0
  141.5698  155.2623  133.7933 H   0  0  0  0  0  0  0  0  0  0  0  0
  139.0477  155.9162  132.6245 H   0  0  0  0  0  0  0  0  0  0  0  0
  137.7515  157.8044  131.5838 H   0  0  0  0  0  0  0  0  0  0  0  0
  141.1502  160.4685  132.1839 H   0  0  0  0  0  0  0  0  0  0  0  0
  1  2  1  0
  2  3  1  0
  2  4  1  0
  4  5  1  0
  5  6  1  0
  6  7  1  0
  7  8  1  0
  8  9  1  0
  9 10  2  0
  9 11  1  0
 11 12  1  0
 12 13  1  0
 13 14  1  0
 13 15  2  0
 12 16  2  0
 16 17  1  0
 17 18  2  0
 18 19  1  0
 19 20  2  0
 20 21  1  0
 21 22  1  0
 21 23  1  0
 21 24  1  0
 20 25  1  0
 25 26  2  0
  6 27  1  0
 27  2  1  0
 26 11  1  0
 26 17  1  0
  1 28  1  0
  1 29  1  0
  1 30  1  0
  3 31  1  0
  3 32  1  0
  3 33  1  0
  5 34  1  0
  5 35  1  0
  6 36  1  6
  7 37  1  0
  7 38  1  0
 14 39  1  0
 14 40  1  0
 16 41  1  0
 18 42  1  0
 19 43  1  0
 25 44  1  0
M  END
>  <UniqueID>  (34) 
34

>  <SMILES>  (34) 
CC1(C)OC[C@H](COC(=O)n2c(C(N)=O)cc3ccc(C(F)(F)F)cc32)O1

>  <Energy>  (34) 
73.96068533936311

>  <Genealogy>  (34) 
CC1(C)OC[C@H](COC(=O)n2c(C(N)=O)cc3ccc(C(F)(F)F)cc32)O1 (3D coordinates assigned)
CC1(C)OC[C@H](COC(=O)n2c(C(N)=O)cc3ccc(C(F)(F)F)cc32)O1 (nonaromatic ring conformer: 73.96068533936311 kcal/mol)

>  <smiles>  (34) 
CC1(C)OC[C@H](COC(=O)n2c(C(N)=O)cc3ccc(C(F)(F)F)cc32)O1

>  <score_type>  (34) 
oracle

>  <origin>  (34) 
adg

>  <m_score__min__energy>  (34) 
-7.1399999999999997

>  <m_primary>  (34) 
energy

$$$$
34:0
     RDKit          3D

 45 47  0  0  0  0  0  0  0  0999 V2000
  141.6960  158.3390  135.8980 C   0  0  0  0  0  0  0  0  0  0  0  0
  141.7810  157.7160  134.5610 N   0  0  0  0  0  0  0  0  0  0  0  0
  140.7720  156.6400  134.4030 C   0  0  0  0  0  0  0  0  0  0  0  0
  139.4720  157.1380  133.7340 C   0  0  0  0  0  0  0  0  0  0  0  0
  139.2640  158.5070  134.0030 O   0  0  0  0  0  0  0  0  0  0  0  0
  140.2490  159.2980  133.3550 C   0  0  0  0  0  0  0  0  0  0  0  0
  141.6760  158.6870  133.4460 C   0  0  1  0  0  0  0  0  0  0  0  0
  142.7760  159.7690  133.4800 C   0  0  0  0  0  0  0  0  0  0  0  0
  144.0090  159.2560  132.9800 O   0  0  0  0  0  0  0  0  0  0  0  0
  145.2630  159.6870  133.4270 C   0  0  0  0  0  0  0  0  0  0  0  0
  145.3870  160.8060  133.9960 O   0  0  0  0  0  0  0  0  0  0  0  0
  146.4150  158.8540  133.2320 N   0  0  0  0  0  0  0  0  0  0  0  0
  146.5700  157.5530  133.6070 C   0  0  0  0  0  0  0  0  0  0  0  0
  145.6310  156.7770  134.4400 C   0  0  0  0  0  0  0  0  0  0  0  0
  144.2200  156.9900  134.3580 N   0  0  0  0  0  0  0  0  0  0  0  0
  146.0820  155.9520  135.2770 O   0  0  0  0  0  0  0  0  0  0  0  0
  147.7830  157.0500  133.1440 C   0  0  0  0  0  0  0  0  0  0  0  0
  148.3820  158.0970  132.4810 C   0  0  0  0  0  0  0  0  0  0  0  0
  149.6030  158.1520  131.8150 C   0  0  0  0  0  0  0  0  0  0  0  0
  149.9560  159.3590  131.1890 C   0  0  0  0  0  0  0  0  0  0  0  0
  149.0880  160.4780  131.2330 C   0  0  0  0  0  0  0  0  0  0  0  0
  149.4790  161.7520  130.5410 C   0  0  0  0  0  0  0  0  0  0  0  0
  148.4970  162.7060  130.7340 F   0  0  0  0  0  0  0  0  0  0  0  0
  149.6300  161.5210  129.1860 F   0  0  0  0  0  0  0  0  0  0  0  0
  147.8540  160.3830  131.9150 C   0  0  0  0  0  0  0  0  0  0  0  0
  147.5360  159.1750  132.5470 C   0  0  0  0  0  0  0  0  0  0  0  0
  141.8018  157.5637  136.6712 H   0  0  0  0  0  0  0  0  0  0  0  0
  142.5014  159.0800  136.0091 H   0  0  0  0  0  0  0  0  0  0  0  0
  140.7216  158.8371  136.0091 H   0  0  0  0  0  0  0  0  0  0  0  0
  141.2036  155.8407  133.7826 H   0  0  0  0  0  0  0  0  0  0  0  0
  140.5115  156.2775  135.4083 H   0  0  0  0  0  0  0  0  0  0  0  0
  139.5468  156.9913  132.6464 H   0  0  0  0  0  0  0  0  0  0  0  0
  138.6246  156.5658  134.1396 H   0  0  0  0  0  0  0  0  0  0  0  0
  139.9769  159.3964  132.2937 H   0  0  0  0  0  0  0  0  0  0  0  0
  140.2755  160.2726  133.8644 H   0  0  0  0  0  0  0  0  0  0  0  0
  141.8495  158.1191  132.5200 H   0  0  0  0  0  0  0  0  0  0  0  0
  142.4623  160.6213  132.8594 H   0  0  0  0  0  0  0  0  0  0  0  0
  142.9243  160.0872  134.5225 H   0  0  0  0  0  0  0  0  0  0  0  0
  143.5680  156.4020  134.9230 H   0  0  0  0  0  0  0  0  0  0  0  0
  143.8250  157.7850  133.8090 H   0  0  0  0  0  0  0  0  0  0  0  0
  148.1784  156.0325  133.2793 H   0  0  0  0  0  0  0  0  0  0  0  0
  150.2702  157.2782  131.7800 H   0  0  0  0  0  0  0  0  0  0  0  0
  150.9167  159.4362  130.6589 H   0  0  0  0  0  0  0  0  0  0  0  0
  150.4304  162.1115  130.9601 H   0  0  0  0  0  0  0  0  0  0  0  0
  147.1609  161.2365  131.9484 H   0  0  0  0  0  0  0  0  0  0  0  0
  1  2  1  0
  2  3  1  0
  3  4  1  0
  4  5  1  0
  5  6  1  0
  6  7  1  0
  7  8  1  0
  8  9  1  0
  9 10  1  0
 10 11  2  0
 10 12  1  0
 12 13  1  0
 13 14  1  0
 14 15  1  0
 14 16  2  0
 13 17  2  0
 17 18  1  0
 18 19  2  0
 19 20  1  0
 20 21  2  0
 21 22  1  0
 22 23  1  0
 22 24  1  0
 21 25  1  0
 25 26  2  0
  7  2  1  0
 26 12  1  0
 26 18  1  0
  1 27  1  0
  1 28  1  0
  1 29  1  0
  3 30  1  0
  3 31  1  0
  4 32  1  0
  4 33  1  0
  6 34  1  0
  6 35  1  0
  7 36  1  6
  8 37  1  0
  8 38  1  0
 15 39  1  0
 15 40  1  0
 17 41  1  0
 19 42  1  0
 20 43  1  0
 22 44  1  0
 25 45  1  0
M  END
>  <UniqueID>  (35) 
35

>  <SMILES>  (35) 
CN1CCOC[C@H]1COC(=O)n1c(C(N)=O)cc2ccc(C(F)F)cc21

>  <Energy>  (35) 
96.41477842874507

>  <Genealogy>  (35) 
CN1CCOC[C@H]1COC(=O)n1c(C(N)=O)cc2ccc(C(F)F)cc21 (chirality)
CN1CCOC[C@H]1COC(=O)n1c(C(N)=O)cc2ccc(C(F)F)cc21 (3D coordinates assigned)
CN1CCOC[C@H]1COC(=O)n1c(C(N)=O)cc2ccc(C(F)F)cc21 (nonaromatic ring conformer: 96.41477842874507 kcal/mol)

>  <smiles>  (35) 
CN1CCOCC1COC(=O)n1c(C(N)=O)cc2ccc(C(F)F)cc21

>  <score_type>  (35) 
oracle

>  <origin>  (35) 
adg

>  <m_score__min__energy>  (35) 
-6.79

>  <m_primary>  (35) 
energy

$$$$
35:0
     RDKit          3D

 34 35  0  0  0  0  0  0  0  0999 V2000
  149.1667  159.9545  128.5215 H   0  0  0  0  0  0  0  0  0  0  0  0
  149.7910  159.8920  129.4250 C   0  0  0  0  0  0  0  0  0  0  0  0
  151.0390  159.7590  129.3030 O   0  0  0  0  0  0  0  0  0  0  0  0
  149.1460  159.9660  130.7560 C   0  0  0  0  0  0  0  0  0  0  0  0
  149.1620  158.8910  131.5750 C   0  0  0  0  0  0  0  0  0  0  0  0
  149.6526  157.9824  131.1957 H   0  0  0  0  0  0  0  0  0  0  0  0
  148.5800  158.8220  132.9370 C   0  0  0  0  0  0  0  0  0  0  0  0
  149.1510  159.3630  133.9210 O   0  0  0  0  0  0  0  0  0  0  0  0
  147.3640  158.0880  133.1520 N   0  0  0  0  0  0  0  0  0  0  0  0
  146.1060  158.5920  133.2940 C   0  0  0  0  0  0  0  0  0  0  0  0
  145.7660  160.0320  133.3790 C   0  0  0  0  0  0  0  0  0  0  0  0
  144.5970  160.4210  133.1190 O   0  0  0  0  0  0  0  0  0  0  0  0
  146.7580  160.9990  133.7300 N   0  0  0  0  0  0  0  0  0  0  0  0
  146.5130  162.0140  133.7500 H   0  0  0  0  0  0  0  0  0  0  0  0
  147.7210  160.7140  134.0150 H   0  0  0  0  0  0  0  0  0  0  0  0
  145.1790  157.5580  133.4210 C   0  0  0  0  0  0  0  0  0  0  0  0
  144.0908  157.6508  133.5525 H   0  0  0  0  0  0  0  0  0  0  0  0
  145.9140  156.3970  133.3470 C   0  0  0  0  0  0  0  0  0  0  0  0
  145.4990  155.0700  133.3900 C   0  0  0  0  0  0  0  0  0  0  0  0
  144.4387  154.8122  133.5286 H   0  0  0  0  0  0  0  0  0  0  0  0
  146.4750  154.0690  133.2510 C   0  0  0  0  0  0  0  0  0  0  0  0
  146.1753  153.0108  133.2734 H   0  0  0  0  0  0  0  0  0  0  0  0
  147.8430  154.4070  133.0820 C   0  0  0  0  0  0  0  0  0  0  0  0
  148.8710  153.3260  132.8700 C   0  0  0  0  0  0  0  0  0  0  0  0
  150.0600  153.8650  132.4100 F   0  0  0  0  0  0  0  0  0  0  0  0
  149.1300  152.6590  134.0560 F   0  0  0  0  0  0  0  0  0  0  0  0
  148.3950  152.4220  131.9400 F   0  0  0  0  0  0  0  0  0  0  0  0
  148.2200  155.7680  133.0200 C   0  0  0  0  0  0  0  0  0  0  0  0
  149.2681  156.0540  132.8476 H   0  0  0  0  0  0  0  0  0  0  0  0
  147.2290  156.7440  133.1830 C   0  0  0  0  0  0  0  0  0  0  0  0
  148.4840  161.2640  131.1390 C   0  0  0  0  0  0  0  0  0  0  0  0
  148.4427  161.3450  132.2352 H   0  0  0  0  0  0  0  0  0  0  0  0
  149.0631  162.1054  130.7307 H   0  0  0  0  0  0  0  0  0  0  0  0
  147.4629  161.2893  130.7307 H   0  0  0  0  0  0  0  0  0  0  0  0
  1  2  1  0
  2  3  2  0
  2  4  1  0
  4  5  2  0
  5  6  1  0
  5  7  1  0
  7  8  2  0
  7  9  1  0
  9 10  1  0
 10 11  1  0
 11 12  2  0
 11 13  1  0
 13 14  1  0
 13 15  1  0
 10 16  2  0
 16 17  1  0
 16 18  1  0
 18 19  2  0
 19 20  1  0
 19 21  1  0
 21 22  1  0
 21 23  2  0
 23 24  1  0
 24 25  1  0
 24 26  1  0
 24 27  1  0
 23 28  1  0
 28 29  1  0
 28 30  2  0
  4 31  1  0
 31 32  1  0
 31 33  1  0
 31 34  1  0
 30  9  1  0
 30 18  1  0
M  END
>  <UniqueID>  (36) 
36

>  <SMILES>  (36) 
C/C(C=O)=C\C(=O)n1c(C(N)=O)cc2ccc(C(F)(F)F)cc21

>  <Energy>  (36) 
76.09650314685145

>  <Genealogy>  (36) 
C/C(C=O)=C\C(=O)n1c(C(N)=O)cc2ccc(C(F)(F)F)cc21 (cis-trans isomerization)
C/C(C=O)=C\C(=O)n1c(C(N)=O)cc2ccc(C(F)(F)F)cc21 (3D coordinates assigned)
C/C(C=O)=C\C(=O)n1c(C(N)=O)cc2ccc(C(F)(F)F)cc21 (optimized conformer: 76.09650314685145 kcal/mol)

>  <smiles>  (36) 
CC(C=O)=CC(=O)n1c(C(N)=O)cc2ccc(C(F)(F)F)cc21

>  <score_type>  (36) 
oracle

>  <origin>  (36) 
adg

>  <m_score__min__energy>  (36) 
-7.71

>  <m_primary>  (36) 
energy

$$$$
36:0
     RDKit          3D

 48 50  0  0  0  0  0  0  0  0999 V2000
  142.0800  150.6600  132.6160 C   0  0  0  0  0  0  0  0  0  0  0  0
  141.0210  151.3460  133.3420 N   0  0  0  0  0  0  0  0  0  0  0  0
  141.0720  152.7500  133.6190 C   0  0  0  0  0  0  0  0  0  0  0  0
  141.8750  153.2090  134.6140 N   0  0  0  0  0  0  0  0  0  0  0  0
  141.9480  154.5340  134.9030 C   0  0  0  0  0  0  0  0  0  0  0  0
  141.1880  155.4540  134.1680 C   0  0  0  0  0  0  0  0  0  0  0  0
  141.2090  156.8580  134.4660 N   0  0  0  0  0  0  0  0  0  0  0  0
  140.0580  157.7080  134.3850 C   0  0  0  0  0  0  0  0  0  0  0  0
  138.9220  157.2300  134.1210 O   0  0  0  0  0  0  0  0  0  0  0  0
  140.2040  159.1060  134.6520 N   0  0  0  0  0  0  0  0  0  0  0  0
  140.8160  160.0600  133.7290 C   0  0  0  0  0  0  0  0  0  0  0  0
  142.1110  159.4960  133.1290 C   0  0  0  0  0  0  0  0  0  0  0  0
  143.1810  159.3240  134.1710 C   0  0  0  0  0  0  0  0  0  0  0  0
  142.8600  159.2200  135.3880 O   0  0  0  0  0  0  0  0  0  0  0  0
  144.5670  159.3580  133.7980 N   0  0  0  0  0  0  0  0  0  0  0  0
  145.4150  160.4260  133.8400 C   0  0  0  0  0  0  0  0  0  0  0  0
  145.0280  161.8270  134.0990 C   0  0  0  0  0  0  0  0  0  0  0  0
  145.9390  162.7060  134.7570 N   0  0  0  0  0  0  0  0  0  0  0  0
  143.9080  162.2660  133.7230 O   0  0  0  0  0  0  0  0  0  0  0  0
  146.7180  160.0230  133.5510 C   0  0  0  0  0  0  0  0  0  0  0  0
  146.6400  158.6650  133.3310 C   0  0  0  0  0  0  0  0  0  0  0  0
  147.6410  157.7430  133.0440 C   0  0  0  0  0  0  0  0  0  0  0  0
  147.2730  156.3960  132.9000 C   0  0  0  0  0  0  0  0  0  0  0  0
  145.9250  155.9860  133.0720 C   0  0  0  0  0  0  0  0  0  0  0  0
  145.5360  154.5440  132.8650 C   0  0  0  0  0  0  0  0  0  0  0  0
  144.8960  154.0420  133.9860 F   0  0  0  0  0  0  0  0  0  0  0  0
  146.6760  153.7980  132.6250 F   0  0  0  0  0  0  0  0  0  0  0  0
  144.6810  154.4150  131.7830 F   0  0  0  0  0  0  0  0  0  0  0  0
  144.9350  156.9570  133.3510 C   0  0  0  0  0  0  0  0  0  0  0  0
  145.3310  158.2890  133.4810 C   0  0  0  0  0  0  0  0  0  0  0  0
  140.3550  154.9600  133.1580 C   0  0  0  0  0  0  0  0  0  0  0  0
  140.3200  153.6280  132.8990 N   0  0  0  0  0  0  0  0  0  0  0  0
  142.7808  150.2060  133.3321 H   0  0  0  0  0  0  0  0  0  0  0  0
  141.6414  149.8740  131.9837 H   0  0  0  0  0  0  0  0  0  0  0  0
  142.6180  151.3816  131.9837 H   0  0  0  0  0  0  0  0  0  0  0  0
  140.1990  150.7950  133.6750 H   0  0  0  0  0  0  0  0  0  0  0  0
  142.6034  154.8850  135.7137 H   0  0  0  0  0  0  0  0  0  0  0  0
  142.0750  157.2580  134.8910 H   0  0  0  0  0  0  0  0  0  0  0  0
  140.1081  160.2774  132.9156 H   0  0  0  0  0  0  0  0  0  0  0  0
  141.0594  160.9771  134.2854 H   0  0  0  0  0  0  0  0  0  0  0  0
  141.8962  158.5176  132.6745 H   0  0  0  0  0  0  0  0  0  0  0  0
  142.4782  160.2096  132.3767 H   0  0  0  0  0  0  0  0  0  0  0  0
  146.9690  162.5530  134.7010 H   0  0  0  0  0  0  0  0  0  0  0  0
  147.6173  160.6549  133.5078 H   0  0  0  0  0  0  0  0  0  0  0  0
  148.6887  158.0595  132.9333 H   0  0  0  0  0  0  0  0  0  0  0  0
  148.0398  155.6479  132.6504 H   0  0  0  0  0  0  0  0  0  0  0  0
  143.8791  156.6694  133.4627 H   0  0  0  0  0  0  0  0  0  0  0  0
  139.7288  155.6507  132.5742 H   0  0  0  0  0  0  0  0  0  0  0  0
  1  2  1  0
  2  3  1  0
  3  4  2  0
  4  5  1  0
  5  6  2  0
  6  7  1  0
  7  8  1  0
  8  9  2  0
  8 10  1  0
 10 11  1  0
 11 12  1  0
 12 13  1  0
 13 14  2  0
 13 15  1  0
 15 16  1  0
 16 17  1  0
 17 18  1  0
 17 19  2  0
 16 20  2  0
 20 21  1  0
 21 22  2  0
 22 23  1  0
 23 24  2  0
 24 25  1  0
 25 26  1  0
 25 27  1  0
 25 28  1  0
 24 29  1  0
 29 30  2  0
  6 31  1  0
 31 32  2  0
 32  3  1  0
 30 15  1  0
 30 21  1  0
  1 33  1  0
  1 34  1  0
  1 35  1  0
  2 36  1  0
  5 37  1  0
  7 38  1  0
 11 39  1  0
 11 40  1  0
 12 41  1  0
 12 42  1  0
 18 43  1  0
 20 44  1  0
 22 45  1  0
 23 46  1  0
 29 47  1  0
 31 48  1  0
M  CHG  2  10  -1  18  -1
M  END
>  <UniqueID>  (37) 
37

>  <SMILES>  (37) 
CNc1ncc(NC(=O)[N-]CCC(=O)n2c(C([NH-])=O)cc3ccc(C(F)(F)F)cc32)cn1

>  <Energy>  (37) 
83.64416777005985

>  <Genealogy>  (37) 
CNc1ncc(NC(=O)[N-]CCC(=O)n2c(C([NH-])=O)cc3ccc(C(F)(F)F)cc32)cn1 (protonated)
CNc1ncc(NC(=O)[N-]CCC(=O)n2c(C([NH-])=O)cc3ccc(C(F)(F)F)cc32)cn1 (3D coordinates assigned)
CNc1ncc(NC(=O)[N-]CCC(=O)n2c(C([NH-])=O)cc3ccc(C(F)(F)F)cc32)cn1 (optimized conformer: 83.64416777005985 kcal/mol)

>  <smiles>  (37) 
CNc1ncc(NC(=O)NCCC(=O)n2c(C(N)=O)cc3ccc(C(F)(F)F)cc32)cn1

>  <score_type>  (37) 
oracle

>  <origin>  (37) 
adg

>  <m_score__min__energy>  (37) 
-8.8300000000000001

>  <m_primary>  (37) 
energy

$$$$
37:0
     RDKit          3D

 28 29  0  0  0  0  0  0  0  0999 V2000
  149.5960  162.7370  129.9810 C   0  0  0  0  0  0  0  0  0  0  0  0
  149.3610  161.6870  130.5260 C   0  0  0  0  0  0  0  0  0  0  0  0
  149.0790  160.4350  131.1750 C   0  0  0  0  0  0  0  0  0  0  0  0
  150.0730  159.4280  131.2260 C   0  0  0  0  0  0  0  0  0  0  0  0
  149.8130  158.2020  131.8650 C   0  0  0  0  0  0  0  0  0  0  0  0
  148.5550  158.0180  132.4350 C   0  0  0  0  0  0  0  0  0  0  0  0
  148.0400  156.9440  133.1260 C   0  0  0  0  0  0  0  0  0  0  0  0
  146.7400  157.3150  133.4710 C   0  0  0  0  0  0  0  0  0  0  0  0
  145.7880  156.4300  134.1720 C   0  0  0  0  0  0  0  0  0  0  0  0
  144.4420  156.3300  133.7130 N   0  0  0  0  0  0  0  0  0  0  0  0
  146.1450  155.7770  135.1880 O   0  0  0  0  0  0  0  0  0  0  0  0
  146.4690  158.5690  133.0140 N   0  0  0  0  0  0  0  0  0  0  0  0
  145.2740  159.3390  133.2040 C   0  0  0  0  0  0  0  0  0  0  0  0
  144.2090  158.9890  132.6290 O   0  0  0  0  0  0  0  0  0  0  0  0
  145.3100  160.6180  133.9830 C   0  0  0  0  0  0  0  0  0  0  0  0
  144.0080  161.3360  133.8320 C   0  0  0  0  0  0  0  0  0  0  0  0
  142.9250  160.7420  134.0690 O   0  0  0  0  0  0  0  0  0  0  0  0
  143.9890  162.6500  133.3790 O   0  0  0  0  0  0  0  0  0  0  0  0
  147.5850  158.9850  132.3810 C   0  0  0  0  0  0  0  0  0  0  0  0
  147.8170  160.2170  131.7620 C   0  0  0  0  0  0  0  0  0  0  0  0
  149.8103  163.6946  129.4840 H   0  0  0  0  0  0  0  0  0  0  0  0
  151.0549  159.6054  130.7630 H   0  0  0  0  0  0  0  0  0  0  0  0
  150.5786  157.4136  131.9131 H   0  0  0  0  0  0  0  0  0  0  0  0
  148.5461  155.9950  133.3570 H   0  0  0  0  0  0  0  0  0  0  0  0
  144.1270  156.8420  132.8590 H   0  0  0  0  0  0  0  0  0  0  0  0
  145.4830  160.3941  135.0460 H   0  0  0  0  0  0  0  0  0  0  0  0
  146.1231  161.2537  133.6026 H   0  0  0  0  0  0  0  0  0  0  0  0
  147.0376  160.9927  131.7342 H   0  0  0  0  0  0  0  0  0  0  0  0
  1  2  3  0
  2  3  1  0
  3  4  2  0
  4  5  1  0
  5  6  2  0
  6  7  1  0
  7  8  2  0
  8  9  1  0
  9 10  1  0
  9 11  2  0
  8 12  1  0
 12 13  1  0
 13 14  2  0
 13 15  1  0
 15 16  1  0
 16 17  2  0
 16 18  1  0
 12 19  1  0
 19 20  2  0
 20  3  1  0
 19  6  1  0
  1 21  1  0
  4 22  1  0
  5 23  1  0
  7 24  1  0
 10 25  1  0
 15 26  1  0
 15 27  1  0
 20 28  1  0
M  CHG  2  10  -1  18  -1
M  END
>  <UniqueID>  (38) 
38

>  <SMILES>  (38) 
C#Cc1ccc2cc(C([NH-])=O)n(C(=O)CC(=O)[O-])c2c1

>  <Energy>  (38) 
64.24308583645127

>  <Genealogy>  (38) 
C#Cc1ccc2cc(C([NH-])=O)n(C(=O)CC(=O)[O-])c2c1 (protonated)
C#Cc1ccc2cc(C([NH-])=O)n(C(=O)CC(=O)[O-])c2c1 (3D coordinates assigned)
C#Cc1ccc2cc(C([NH-])=O)n(C(=O)CC(=O)[O-])c2c1 (optimized conformer: 64.24308583645127 kcal/mol)

>  <smiles>  (38) 
C#Cc1ccc2cc(C(N)=O)n(C(=O)CC(=O)O)c2c1

>  <score_type>  (38) 
oracle

>  <origin>  (38) 
adg

>  <m_score__min__energy>  (38) 
-6.5800000000000001

>  <m_primary>  (38) 
energy

$$$$
38:0
     RDKit          3D

 40 42  0  0  0  0  0  0  0  0999 V2000
  148.4800  157.7260  134.0810 N   0  0  0  0  0  0  0  0  0  0  0  0
  147.7730  158.9150  133.7280 C   0  0  0  0  0  0  0  0  0  0  0  0
  148.4250  159.9530  133.4390 O   0  0  0  0  0  0  0  0  0  0  0  0
  146.2930  158.9320  133.6740 C   0  0  0  0  0  0  0  0  0  0  0  0
  145.5170  160.0920  133.6590 C   0  0  0  0  0  0  0  0  0  0  0  0
  144.2100  159.6570  133.7090 C   0  0  0  0  0  0  0  0  0  0  0  0
  143.0230  160.3830  133.7400 C   0  0  0  0  0  0  0  0  0  0  0  0
  141.8150  159.6660  133.8080 C   0  0  0  0  0  0  0  0  0  0  0  0
  141.8170  158.2490  133.8270 C   0  0  0  0  0  0  0  0  0  0  0  0
  140.5220  157.4920  133.9740 C   0  0  0  0  0  0  0  0  0  0  0  0
  139.6800  158.0320  135.1380 C   0  0  0  0  0  0  0  0  0  0  0  0
  140.4150  157.9410  136.4420 C   0  0  0  0  0  0  0  0  0  0  0  0
  141.0020  159.0030  137.1190 C   0  0  0  0  0  0  0  0  0  0  0  0
  141.7220  158.6030  138.2500 C   0  0  0  0  0  0  0  0  0  0  0  0
  141.7140  157.2310  138.4600 C   0  0  0  0  0  0  0  0  0  0  0  0
  140.8160  156.5130  137.2330 S   0  0  0  0  0  0  0  0  0  0  0  0
  143.0430  157.5480  133.7910 C   0  0  0  0  0  0  0  0  0  0  0  0
  144.2260  158.2890  133.7480 C   0  0  0  0  0  0  0  0  0  0  0  0
  145.4930  157.8290  133.7270 N   0  0  0  0  0  0  0  0  0  0  0  0
  145.8900  156.4510  133.7200 C   0  0  0  0  0  0  0  0  0  0  0  0
  146.6900  156.0360  132.8390 O   0  0  0  0  0  0  0  0  0  0  0  0
  145.4550  155.5280  134.8160 C   0  0  0  0  0  0  0  0  0  0  0  0
  146.6520  154.9910  135.5290 C   0  0  0  0  0  0  0  0  0  0  0  0
  147.7180  155.6610  135.5680 O   0  0  0  0  0  0  0  0  0  0  0  0
  146.6100  153.7300  136.1100 O   0  0  0  0  0  0  0  0  0  0  0  0
  149.5240  157.7170  134.0770 H   0  0  0  0  0  0  0  0  0  0  0  0
  147.9770  156.8640  134.3890 H   0  0  0  0  0  0  0  0  0  0  0  0
  145.8727  161.1320  133.6163 H   0  0  0  0  0  0  0  0  0  0  0  0
  143.0294  161.4826  133.7122 H   0  0  0  0  0  0  0  0  0  0  0  0
  140.8598  160.2101  133.8468 H   0  0  0  0  0  0  0  0  0  0  0  0
  139.9453  157.5872  133.0422 H   0  0  0  0  0  0  0  0  0  0  0  0
  140.7613  156.4388  134.1825 H   0  0  0  0  0  0  0  0  0  0  0  0
  139.4328  159.0855  134.9407 H   0  0  0  0  0  0  0  0  0  0  0  0
  138.7683  157.4213  135.2145 H   0  0  0  0  0  0  0  0  0  0  0  0
  140.9100  160.0512  136.7985 H   0  0  0  0  0  0  0  0  0  0  0  0
  142.2454  159.3096  138.9109 H   0  0  0  0  0  0  0  0  0  0  0  0
  142.2104  156.7034  139.2878 H   0  0  0  0  0  0  0  0  0  0  0  0
  143.0652  156.4482  133.7967 H   0  0  0  0  0  0  0  0  0  0  0  0
  144.8224  156.0786  135.5277 H   0  0  0  0  0  0  0  0  0  0  0  0
  144.8849  154.6929  134.3830 H   0  0  0  0  0  0  0  0  0  0  0  0
  1  2  1  0
  2  3  2  0
  2  4  1  0
  4  5  2  0
  5  6  1  0
  6  7  2  0
  7  8  1  0
  8  9  2  0
  9 10  1  0
 10 11  1  0
 11 12  1  0
 12 13  2  0
 13 14  1  0
 14 15  2  0
 15 16  1  0
  9 17  1  0
 17 18  2  0
 18 19  1  0
 19 20  1  0
 20 21  2  0
 20 22  1  0
 22 23  1  0
 23 24  2  0
 23 25  1  0
 19  4  1  0
 18  6  1  0
 16 12  1  0
  1 26  1  0
  1 27  1  0
  5 28  1  0
  7 29  1  0
  8 30  1  0
 10 31  1  0
 10 32  1  0
 11 33  1  0
 11 34  1  0
 13 35  1  0
 14 36  1  0
 15 37  1  0
 17 38  1  0
 22 39  1  0
 22 40  1  0
M  CHG  1  25  -1
M  END
>  <UniqueID>  (39) 
39

>  <SMILES>  (39) 
NC(=O)c1cc2ccc(CCc3cccs3)cc2n1C(=O)CC(=O)[O-]

>  <Energy>  (39) 
100.16754793122546

>  <Genealogy>  (39) 
NC(=O)c1cc2ccc(CCc3cccs3)cc2n1C(=O)CC(=O)[O-] (protonated)
NC(=O)c1cc2ccc(CCc3cccs3)cc2n1C(=O)CC(=O)[O-] (3D coordinates assigned)
NC(=O)c1cc2ccc(CCc3cccs3)cc2n1C(=O)CC(=O)[O-] (optimized conformer: 100.16754793122546 kcal/mol)

>  <smiles>  (39) 
NC(=O)c1cc2ccc(CCc3cccs3)cc2n1C(=O)CC(=O)O

>  <score_type>  (39) 
oracle

>  <origin>  (39) 
adg

>  <m_score__min__energy>  (39) 
-8.2899999999999991

>  <m_primary>  (39) 
energy

$$$$
39:0
     RDKit          3D

 36 38  0  0  0  0  0  0  0  0999 V2000
  148.9900  153.8220  132.5650 C   0  0  0  0  0  0  0  0  0  0  0  0
  148.6330  154.9700  132.6640 C   0  0  0  0  0  0  0  0  0  0  0  0
  148.2070  156.3390  132.7830 C   0  0  0  0  0  0  0  0  0  0  0  0
  149.1370  157.3870  132.5860 C   0  0  0  0  0  0  0  0  0  0  0  0
  148.7360  158.7280  132.7120 C   0  0  0  0  0  0  0  0  0  0  0  0
  147.4030  158.9840  133.0260 C   0  0  0  0  0  0  0  0  0  0  0  0
  146.7550  160.1790  133.2360 C   0  0  0  0  0  0  0  0  0  0  0  0
  145.4370  159.8390  133.5340 C   0  0  0  0  0  0  0  0  0  0  0  0
  144.3690  160.8350  133.7610 C   0  0  0  0  0  0  0  0  0  0  0  0
  143.0260  160.5760  133.3610 N   0  0  0  0  0  0  0  0  0  0  0  0
  144.6540  161.9480  134.2790 O   0  0  0  0  0  0  0  0  0  0  0  0
  145.2780  158.4850  133.5150 N   0  0  0  0  0  0  0  0  0  0  0  0
  144.1030  157.7290  133.8440 C   0  0  0  0  0  0  0  0  0  0  0  0
  144.1280  156.9290  134.8190 O   0  0  0  0  0  0  0  0  0  0  0  0
  142.9000  157.9060  133.0810 N   0  0  0  0  0  0  0  0  0  0  0  0
  141.7780  157.0090  133.1220 C   0  0  0  0  0  0  0  0  0  0  0  0
  140.4930  157.4970  132.8600 C   0  0  0  0  0  0  0  0  0  0  0  0
  139.4250  156.6580  132.8710 N   0  0  0  0  0  0  0  0  0  0  0  0
  139.5590  155.3290  133.1200 C   0  0  0  0  0  0  0  0  0  0  0  0
  140.8260  154.7780  133.3660 C   0  0  0  0  0  0  0  0  0  0  0  0
  140.9780  153.3680  133.6110 N   0  0  0  0  0  0  0  0  0  0  0  0
  140.4570  152.5280  132.8490 O   0  0  0  0  0  0  0  0  0  0  0  0
  141.7040  152.9210  134.6920 O   0  0  0  0  0  0  0  0  0  0  0  0
  141.9410  155.6350  133.3570 C   0  0  0  0  0  0  0  0  0  0  0  0
  146.4900  157.9760  133.2020 C   0  0  0  0  0  0  0  0  0  0  0  0
  146.8660  156.6310  133.1010 C   0  0  0  0  0  0  0  0  0  0  0  0
  149.3156  152.7752  132.4747 H   0  0  0  0  0  0  0  0  0  0  0  0
  150.1809  157.1505  132.3325 H   0  0  0  0  0  0  0  0  0  0  0  0
  149.4524  159.5501  132.5672 H   0  0  0  0  0  0  0  0  0  0  0  0
  147.1862  161.1895  133.1804 H   0  0  0  0  0  0  0  0  0  0  0  0
  142.8170  160.1140  132.4480 H   0  0  0  0  0  0  0  0  0  0  0  0
  142.8120  158.7840  132.5210 H   0  0  0  0  0  0  0  0  0  0  0  0
  140.3471  158.5657  132.6440 H   0  0  0  0  0  0  0  0  0  0  0  0
  138.6697  154.6816  133.1288 H   0  0  0  0  0  0  0  0  0  0  0  0
  142.9465  155.2261  133.5351 H   0  0  0  0  0  0  0  0  0  0  0  0
  146.1352  155.8254  133.2652 H   0  0  0  0  0  0  0  0  0  0  0  0
  1  2  3  0
  2  3  1  0
  3  4  2  0
  4  5  1  0
  5  6  2  0
  6  7  1  0
  7  8  2  0
  8  9  1  0
  9 10  1  0
  9 11  2  0
  8 12  1  0
 12 13  1  0
 13 14  2  0
 13 15  1  0
 15 16  1  0
 16 17  2  0
 17 18  1  0
 18 19  2  0
 19 20  1  0
 20 21  1  0
 21 22  2  0
 21 23  1  0
 20 24  2  0
 12 25  1  0
 25 26  2  0
 26  3  1  0
 25  6  1  0
 24 16  1  0
  1 27  1  0
  4 28  1  0
  5 29  1  0
  7 30  1  0
 10 31  1  0
 15 32  1  0
 17 33  1  0
 19 34  1  0
 24 35  1  0
 26 36  1  0
M  CHG  3  10  -1  21   1  23  -1
M  END
>  <UniqueID>  (40) 
40

>  <SMILES>  (40) 
C#Cc1ccc2cc(C([NH-])=O)n(C(=O)Nc3cncc([N+](=O)[O-])c3)c2c1

>  <Energy>  (40) 
81.68422775418829

>  <Genealogy>  (40) 
C#Cc1ccc2cc(C([NH-])=O)n(C(=O)Nc3cncc([N+](=O)[O-])c3)c2c1 (protonated)
C#Cc1ccc2cc(C([NH-])=O)n(C(=O)Nc3cncc([N+](=O)[O-])c3)c2c1 (3D coordinates assigned)
C#Cc1ccc2cc(C([NH-])=O)n(C(=O)Nc3cncc([N+](=O)[O-])c3)c2c1 (optimized conformer: 81.68422775418829 kcal/mol)

>  <smiles>  (40) 
C#Cc1ccc2cc(C(N)=O)n(C(=O)Nc3cncc([N+](=O)[O-])c3)c2c1

>  <score_type>  (40) 
oracle

>  <origin>  (40) 
adg

>  <m_score__min__energy>  (40) 
-8.9900000000000002

>  <m_primary>  (40) 
energy

$$$$
40:0
     RDKit          3D

 43 45  0  0  0  0  0  0  0  0999 V2000
  140.2460  157.5330  136.2300 C   0  0  0  0  0  0  0  0  0  0  0  0
  141.3470  158.5100  136.2840 N   0  0  0  0  0  0  0  0  0  0  0  0
  141.6640  158.8220  137.6920 C   0  0  0  0  0  0  0  0  0  0  0  0
  140.9770  159.7290  135.5310 C   0  0  0  0  0  0  0  0  0  0  0  0
  141.9880  160.0550  134.4700 C   0  0  0  0  0  0  0  0  0  0  0  0
  141.5990  160.4690  133.3450 O   0  0  0  0  0  0  0  0  0  0  0  0
  143.3480  159.8580  134.7420 O   0  0  0  0  0  0  0  0  0  0  0  0
  144.3600  159.7830  133.7750 C   0  0  0  0  0  0  0  0  0  0  0  0
  144.6000  160.7590  133.0140 O   0  0  0  0  0  0  0  0  0  0  0  0
  145.1190  158.5710  133.6410 N   0  0  0  0  0  0  0  0  0  0  0  0
  144.6910  157.2950  133.8560 C   0  0  0  0  0  0  0  0  0  0  0  0
  143.3950  156.9010  134.4460 C   0  0  0  0  0  0  0  0  0  0  0  0
  142.1640  157.2890  133.8400 N   0  0  0  0  0  0  0  0  0  0  0  0
  143.3730  156.2530  135.5260 O   0  0  0  0  0  0  0  0  0  0  0  0
  145.6850  156.3820  133.5120 C   0  0  0  0  0  0  0  0  0  0  0  0
  146.7470  157.1440  133.0840 C   0  0  0  0  0  0  0  0  0  0  0  0
  147.9940  156.7520  132.6110 C   0  0  0  0  0  0  0  0  0  0  0  0
  148.8890  157.7540  132.2030 C   0  0  0  0  0  0  0  0  0  0  0  0
  148.5300  159.1250  132.2610 C   0  0  0  0  0  0  0  0  0  0  0  0
  149.5570  160.1380  131.7860 C   0  0  0  0  0  0  0  0  0  0  0  0
  149.0870  161.2050  130.8060 C   0  0  0  0  0  0  0  0  0  0  0  0
  149.9800  160.0670  130.3250 C   0  0  0  0  0  0  0  0  0  0  0  0
  147.2440  159.4810  132.7500 C   0  0  0  0  0  0  0  0  0  0  0  0
  146.3810  158.4610  133.1690 C   0  0  0  0  0  0  0  0  0  0  0  0
  139.9435  157.2646  137.2529 H   0  0  0  0  0  0  0  0  0  0  0  0
  139.3900  157.9742  135.6984 H   0  0  0  0  0  0  0  0  0  0  0  0
  140.5823  156.6306  135.6984 H   0  0  0  0  0  0  0  0  0  0  0  0
  142.1890  158.0690  135.8410 H   0  0  0  0  0  0  0  0  0  0  0  0
  141.0379  158.2058  138.3540 H   0  0  0  0  0  0  0  0  0  0  0  0
  142.7251  158.6062  137.8854 H   0  0  0  0  0  0  0  0  0  0  0  0
  141.4651  159.8864  137.8854 H   0  0  0  0  0  0  0  0  0  0  0  0
  139.9985  159.5702  135.0542 H   0  0  0  0  0  0  0  0  0  0  0  0
  140.9390  160.5705  136.2384 H   0  0  0  0  0  0  0  0  0  0  0  0
  142.0010  158.2750  133.5390 H   0  0  0  0  0  0  0  0  0  0  0  0
  145.6319  155.2848  133.5702 H   0  0  0  0  0  0  0  0  0  0  0  0
  148.2712  155.6888  132.5579 H   0  0  0  0  0  0  0  0  0  0  0  0
  149.8852  157.4710  131.8322 H   0  0  0  0  0  0  0  0  0  0  0  0
  150.0856  160.1478  132.7506 H   0  0  0  0  0  0  0  0  0  0  0  0
  148.0314  161.2434  130.4990 H   0  0  0  0  0  0  0  0  0  0  0  0
  149.1378  162.3032  130.7680 H   0  0  0  0  0  0  0  0  0  0  0  0
  149.5689  159.2841  129.6707 H   0  0  0  0  0  0  0  0  0  0  0  0
  150.9423  160.0037  129.7959 H   0  0  0  0  0  0  0  0  0  0  0  0
  146.9333  160.5351  132.7983 H   0  0  0  0  0  0  0  0  0  0  0  0
  1  2  1  0
  2  3  1  0
  2  4  1  0
  4  5  1  0
  5  6  2  0
  5  7  1  0
  7  8  1  0
  8  9  2  0
  8 10  1  0
 10 11  1  0
 11 12  1  0
 12 13  1  0
 12 14  2  0
 11 15  2  0
 15 16  1  0
 16 17  2  0
 17 18  1  0
 18 19  2  0
 19 20  1  0
 20 21  1  0
 21 22  1  0
 19 23  1  0
 23 24  2  0
 24 10  1  0
 24 16  1  0
 22 20  1  0
  1 25  1  0
  1 26  1  0
  1 27  1  0
  2 28  1  0
  3 29  1  0
  3 30  1  0
  3 31  1  0
  4 32  1  0
  4 33  1  0
 13 34  1  0
 15 35  1  0
 17 36  1  0
 18 37  1  0
 20 38  1  0
 21 39  1  0
 21 40  1  0
 22 41  1  0
 22 42  1  0
 23 43  1  0
M  CHG  2   2   1  13  -1
M  END
>  <UniqueID>  (41) 
41

>  <SMILES>  (41) 
C[NH+](C)CC(=O)OC(=O)n1c(C([NH-])=O)cc2ccc(C3CC3)cc21

>  <Energy>  (41) 
351.00089400101814

>  <Genealogy>  (41) 
C[NH+](C)CC(=O)OC(=O)n1c(C([NH-])=O)cc2ccc(C3CC3)cc21 (protonated)
C[NH+](C)CC(=O)OC(=O)n1c(C([NH-])=O)cc2ccc(C3CC3)cc21 (3D coordinates assigned)
C[NH+](C)CC(=O)OC(=O)n1c(C([NH-])=O)cc2ccc(C3CC3)cc21 (nonaromatic ring conformer: 351.00089400101814 kcal/mol)

>  <smiles>  (41) 
CN(C)CC(=O)OC(=O)n1c(C(N)=O)cc2ccc(C3CC3)cc21

>  <score_type>  (41) 
oracle

>  <origin>  (41) 
adg

>  <m_score__min__energy>  (41) 
-5.9800000000000004

>  <m_primary>  (41) 
energy

$$$$
41:0
     RDKit          3D

 43 44  0  0  0  0  0  0  0  0999 V2000
  137.6600  159.8180  131.0790 C   0  0  0  0  0  0  0  0  0  0  0  0
  138.8450  160.3240  131.6490 O   0  0  0  0  0  0  0  0  0  0  0  0
  139.8620  159.3500  131.5540 C   0  0  0  0  0  0  0  0  0  0  0  0
  139.5880  158.2410  132.5700 C   0  0  0  0  0  0  0  0  0  0  0  0
  140.3350  158.4770  133.8170 N   0  0  0  0  0  0  0  0  0  0  0  0
  139.6790  158.2450  135.1090 C   0  0  0  0  0  0  0  0  0  0  0  0
  141.6940  158.9710  133.7890 C   0  0  0  0  0  0  0  0  0  0  0  0
  141.9560  160.3670  133.7600 C   0  0  0  0  0  0  0  0  0  0  0  0
  143.2730  160.8530  133.7260 C   0  0  0  0  0  0  0  0  0  0  0  0
  144.3110  159.9270  133.7280 C   0  0  0  0  0  0  0  0  0  0  0  0
  145.6720  160.1250  133.6790 C   0  0  0  0  0  0  0  0  0  0  0  0
  146.2320  158.8490  133.7000 C   0  0  0  0  0  0  0  0  0  0  0  0
  147.6870  158.5870  133.7550 C   0  0  0  0  0  0  0  0  0  0  0  0
  148.1940  157.4160  134.3990 N   0  0  0  0  0  0  0  0  0  0  0  0
  148.4950  159.3810  133.2050 O   0  0  0  0  0  0  0  0  0  0  0  0
  145.2530  157.9010  133.7570 N   0  0  0  0  0  0  0  0  0  0  0  0
  145.4130  156.4740  133.7410 C   0  0  0  0  0  0  0  0  0  0  0  0
  145.3380  155.8430  132.6510 O   0  0  0  0  0  0  0  0  0  0  0  0
  145.6370  155.7860  134.9400 O   0  0  0  0  0  0  0  0  0  0  0  0
  145.9510  154.3970  134.9990 C   0  0  0  0  0  0  0  0  0  0  0  0
  147.0740  154.1580  135.9570 C   0  0  0  0  0  0  0  0  0  0  0  0
  148.0130  154.9910  136.0560 O   0  0  0  0  0  0  0  0  0  0  0  0
  147.0710  153.0270  136.7620 O   0  0  0  0  0  0  0  0  0  0  0  0
  144.0840  158.5770  133.7720 C   0  0  0  0  0  0  0  0  0  0  0  0
  142.7820  158.0640  133.7870 C   0  0  0  0  0  0  0  0  0  0  0  0
  136.9658  159.5215  131.8791 H   0  0  0  0  0  0  0  0  0  0  0  0
  137.1918  160.5947  130.4564 H   0  0  0  0  0  0  0  0  0  0  0  0
  137.8973  158.9427  130.4564 H   0  0  0  0  0  0  0  0  0  0  0  0
  139.8722  158.9257  130.5392 H   0  0  0  0  0  0  0  0  0  0  0  0
  140.8383  159.8116  131.7631 H   0  0  0  0  0  0  0  0  0  0  0  0
  138.5114  158.2153  132.7941 H   0  0  0  0  0  0  0  0  0  0  0  0
  139.9131  157.2818  132.1408 H   0  0  0  0  0  0  0  0  0  0  0  0
  140.3759  158.4915  135.9236 H   0  0  0  0  0  0  0  0  0  0  0  0
  138.7852  158.8815  135.1859 H   0  0  0  0  0  0  0  0  0  0  0  0
  139.3841  157.1880  135.1859 H   0  0  0  0  0  0  0  0  0  0  0  0
  141.1157  161.0769  133.7642 H   0  0  0  0  0  0  0  0  0  0  0  0
  143.4777  161.9334  133.6986 H   0  0  0  0  0  0  0  0  0  0  0  0
  146.2047  161.0863  133.6330 H   0  0  0  0  0  0  0  0  0  0  0  0
  149.2200  157.2220  134.3980 H   0  0  0  0  0  0  0  0  0  0  0  0
  147.5640  156.7630  134.9130 H   0  0  0  0  0  0  0  0  0  0  0  0
  145.0642  153.8385  135.3331 H   0  0  0  0  0  0  0  0  0  0  0  0
  146.2563  154.0568  133.9985 H   0  0  0  0  0  0  0  0  0  0  0  0
  142.6070  156.9780  133.7970 H   0  0  0  0  0  0  0  0  0  0  0  0
  1  2  1  0
  2  3  1  0
  3  4  1  0
  4  5  1  0
  5  6  1  0
  5  7  1  0
  7  8  2  0
  8  9  1  0
  9 10  2  0
 10 11  1  0
 11 12  2  0
 12 13  1  0
 13 14  1  0
 13 15  2  0
 12 16  1  0
 16 17  1  0
 17 18  2  0
 17 19  1  0
 19 20  1  0
 20 21  1  0
 21 22  2  0
 21 23  1  0
 16 24  1  0
 24 25  2  0
 25  7  1  0
 24 10  1  0
  1 26  1  0
  1 27  1  0
  1 28  1  0
  3 29  1  0
  3 30  1  0
  4 31  1  0
  4 32  1  0
  6 33  1  0
  6 34  1  0
  6 35  1  0
  8 36  1  0
  9 37  1  0
 11 38  1  0
 14 39  1  0
 14 40  1  0
 20 41  1  0
 20 42  1  0
 25 43  1  0
M  CHG  1  23  -1
M  END
>  <UniqueID>  (42) 
42

>  <SMILES>  (42) 
COCCN(C)c1ccc2cc(C(N)=O)n(C(=O)OCC(=O)[O-])c2c1

>  <Energy>  (42) 
79.84512613443322

>  <Genealogy>  (42) 
COCCN(C)c1ccc2cc(C(N)=O)n(C(=O)OCC(=O)[O-])c2c1 (protonated)
COCCN(C)c1ccc2cc(C(N)=O)n(C(=O)OCC(=O)[O-])c2c1 (3D coordinates assigned)
COCCN(C)c1ccc2cc(C(N)=O)n(C(=O)OCC(=O)[O-])c2c1 (optimized conformer: 79.84512613443322 kcal/mol)

>  <smiles>  (42) 
COCCN(C)c1ccc2cc(C(N)=O)n(C(=O)OCC(=O)O)c2c1

>  <score_type>  (42) 
oracle

>  <origin>  (42) 
adg

>  <m_score__min__energy>  (42) 
-6.7199999999999998

>  <m_primary>  (42) 
energy

$$$$
42:0
     RDKit          3D

 43 45  0  0  0  0  0  0  0  0999 V2000
  149.2640  159.6050  130.7810 C   0  0  0  0  0  0  0  0  0  0  0  0
  149.0720  158.4850  131.4830 C   0  0  0  0  0  0  0  0  0  0  0  0
  148.5620  158.4800  132.8730 C   0  0  0  0  0  0  0  0  0  0  0  0
  149.2220  159.0590  133.7780 O   0  0  0  0  0  0  0  0  0  0  0  0
  147.2800  157.8890  133.1800 N   0  0  0  0  0  0  0  0  0  0  0  0
  146.0880  158.5400  133.3370 C   0  0  0  0  0  0  0  0  0  0  0  0
  145.8960  159.9980  133.3550 C   0  0  0  0  0  0  0  0  0  0  0  0
  147.0100  160.8850  133.4380 N   0  0  0  0  0  0  0  0  0  0  0  0
  144.7260  160.4720  133.3960 O   0  0  0  0  0  0  0  0  0  0  0  0
  145.0280  157.6400  133.3570 C   0  0  0  0  0  0  0  0  0  0  0  0
  145.6050  156.3990  133.2320 C   0  0  0  0  0  0  0  0  0  0  0  0
  145.0130  155.1500  133.1520 C   0  0  0  0  0  0  0  0  0  0  0  0
  145.8460  154.0330  132.9700 C   0  0  0  0  0  0  0  0  0  0  0  0
  147.2670  154.1660  132.8950 C   0  0  0  0  0  0  0  0  0  0  0  0
  148.1160  152.9980  132.6770 N   0  0  0  0  0  0  0  0  0  0  0  0
  149.5550  153.1850  132.4170 C   0  0  0  0  0  0  0  0  0  0  0  0
  150.3580  151.9100  132.7210 C   0  0  0  0  0  0  0  0  0  0  0  0
  149.7890  150.7180  132.0710 N   0  0  0  0  0  0  0  0  0  0  0  0
  149.9600  150.7290  130.6060 C   0  0  0  0  0  0  0  0  0  0  0  0
  148.3900  150.5120  132.4840 C   0  0  0  0  0  0  0  0  0  0  0  0
  147.5000  151.7380  132.2170 C   0  0  0  0  0  0  0  0  0  0  0  0
  147.8250  155.4690  133.0200 C   0  0  0  0  0  0  0  0  0  0  0  0
  146.9640  156.5700  133.1390 C   0  0  0  0  0  0  0  0  0  0  0  0
  149.6455  159.5498  129.7507 H   0  0  0  0  0  0  0  0  0  0  0  0
  149.0407  160.5826  131.2331 H   0  0  0  0  0  0  0  0  0  0  0  0
  149.3036  157.5212  131.0061 H   0  0  0  0  0  0  0  0  0  0  0  0
  146.8620  161.9180  133.3610 H   0  0  0  0  0  0  0  0  0  0  0  0
  147.9630  160.5290  133.6790 H   0  0  0  0  0  0  0  0  0  0  0  0
  143.9570  157.8718  133.4524 H   0  0  0  0  0  0  0  0  0  0  0  0
  143.9217  155.0353  133.2287 H   0  0  0  0  0  0  0  0  0  0  0  0
  145.3942  153.0338  132.8833 H   0  0  0  0  0  0  0  0  0  0  0  0
  149.6945  153.4503  131.3586 H   0  0  0  0  0  0  0  0  0  0  0  0
  149.9212  153.9862  133.0758 H   0  0  0  0  0  0  0  0  0  0  0  0
  151.3890  152.0486  132.3635 H   0  0  0  0  0  0  0  0  0  0  0  0
  150.3260  151.7457  133.8082 H   0  0  0  0  0  0  0  0  0  0  0  0
  151.0305  150.7979  130.3623 H   0  0  0  0  0  0  0  0  0  0  0  0
  149.5462  149.8024  130.1816 H   0  0  0  0  0  0  0  0  0  0  0  0
  149.4309  151.5950  130.1816 H   0  0  0  0  0  0  0  0  0  0  0  0
  147.9825  149.6548  131.9280 H   0  0  0  0  0  0  0  0  0  0  0  0
  148.3892  150.3338  133.5695 H   0  0  0  0  0  0  0  0  0  0  0  0
  147.3157  151.8105  131.1350 H   0  0  0  0  0  0  0  0  0  0  0  0
  146.5650  151.5996  132.7796 H   0  0  0  0  0  0  0  0  0  0  0  0
  148.9158  155.6108  133.0233 H   0  0  0  0  0  0  0  0  0  0  0  0
  1  2  2  0
  2  3  1  0
  3  4  2  0
  3  5  1  0
  5  6  1  0
  6  7  1  0
  7  8  1  0
  7  9  2  0
  6 10  2  0
 10 11  1  0
 11 12  2  0
 12 13  1  0
 13 14  2  0
 14 15  1  0
 15 16  1  0
 16 17  1  0
 17 18  1  0
 18 19  1  0
 18 20  1  0
 20 21  1  0
 14 22  1  0
 22 23  2  0
 23  5  1  0
 23 11  1  0
 21 15  1  0
  1 24  1  0
  1 25  1  0
  2 26  1  0
  8 27  1  0
  8 28  1  0
 10 29  1  0
 12 30  1  0
 13 31  1  0
 16 32  1  0
 16 33  1  0
 17 34  1  0
 17 35  1  0
 19 36  1  0
 19 37  1  0
 19 38  1  0
 20 39  1  0
 20 40  1  0
 21 41  1  0
 21 42  1  0
 22 43  1  0
M  END
>  <UniqueID>  (43) 
43

>  <SMILES>  (43) 
C=CC(=O)n1c(C(N)=O)cc2ccc(N3CCN(C)CC3)cc21

>  <Energy>  (43) 
96.30127854843121

>  <Genealogy>  (43) 
C=CC(=O)n1c(C(N)=O)cc2ccc(N3CCN(C)CC3)cc21 (3D coordinates assigned)
C=CC(=O)n1c(C(N)=O)cc2ccc(N3CCN(C)CC3)cc21 (nonaromatic ring conformer: 96.30127854843121 kcal/mol)

>  <smiles>  (43) 
C=CC(=O)n1c(C(N)=O)cc2ccc(N3CCN(C)CC3)cc21

>  <score_type>  (43) 
oracle

>  <origin>  (43) 
adg

>  <m_score__min__energy>  (43) 
-7.8300000000000001

>  <m_primary>  (43) 
energy

$$$$
43:0
     RDKit          3D

 27 28  0  0  0  0  0  0  0  0999 V2000
  148.8820  159.9980  131.3880 C   0  0  0  0  0  0  0  0  0  0  0  0
  148.8400  158.9340  132.4820 C   0  0  0  0  0  0  0  0  0  0  0  0
  149.5960  159.3640  133.5600 F   0  0  0  0  0  0  0  0  0  0  0  0
  149.4110  157.7670  132.0020 F   0  0  0  0  0  0  0  0  0  0  0  0
  147.4120  158.6820  132.9120 C   0  0  0  0  0  0  0  0  0  0  0  0
  146.9100  157.3550  132.9790 C   0  0  0  0  0  0  0  0  0  0  0  0
  145.5760  157.1100  133.3460 C   0  0  0  0  0  0  0  0  0  0  0  0
  144.7620  158.2050  133.6160 C   0  0  0  0  0  0  0  0  0  0  0  0
  143.4440  158.2510  134.0080 C   0  0  0  0  0  0  0  0  0  0  0  0
  143.1420  159.6060  134.1310 C   0  0  0  0  0  0  0  0  0  0  0  0
  141.7910  160.1100  134.4510 C   0  0  0  0  0  0  0  0  0  0  0  0
  141.1570  159.7770  135.6830 N   0  0  0  0  0  0  0  0  0  0  0  0
  141.2090  160.8880  133.6490 O   0  0  0  0  0  0  0  0  0  0  0  0
  144.2330  160.3680  133.8350 N   0  0  0  0  0  0  0  0  0  0  0  0
  144.3590  161.7950  133.9330 C   0  0  0  0  0  0  0  0  0  0  0  0
  143.5200  162.5500  133.3730 O   0  0  0  0  0  0  0  0  0  0  0  0
  145.4240  162.3590  134.6270 O   0  0  0  0  0  0  0  0  0  0  0  0
  145.2160  159.4950  133.5190 C   0  0  0  0  0  0  0  0  0  0  0  0
  146.5440  159.7680  133.1740 C   0  0  0  0  0  0  0  0  0  0  0  0
  148.9214  160.9961  131.8486 H   0  0  0  0  0  0  0  0  0  0  0  0
  149.7749  159.8468  130.7636 H   0  0  0  0  0  0  0  0  0  0  0  0
  147.9800  159.9177  130.7636 H   0  0  0  0  0  0  0  0  0  0  0  0
  147.5728  156.5099  132.7410 H   0  0  0  0  0  0  0  0  0  0  0  0
  145.1873  156.0835  133.4176 H   0  0  0  0  0  0  0  0  0  0  0  0
  142.7714  157.3991  134.1865 H   0  0  0  0  0  0  0  0  0  0  0  0
  140.1730  160.0690  135.8760 H   0  0  0  0  0  0  0  0  0  0  0  0
  146.9055  160.8048  133.1079 H   0  0  0  0  0  0  0  0  0  0  0  0
  1  2  1  0
  2  3  1  0
  2  4  1  0
  2  5  1  0
  5  6  2  0
  6  7  1  0
  7  8  2  0
  8  9  1  0
  9 10  2  0
 10 11  1  0
 11 12  1  0
 11 13  2  0
 10 14  1  0
 14 15  1  0
 15 16  2  0
 15 17  1  0
 14 18  1  0
 18 19  2  0
 19  5  1  0
 18  8  1  0
  1 20  1  0
  1 21  1  0
  1 22  1  0
  6 23  1  0
  7 24  1  0
  9 25  1  0
 12 26  1  0
 19 27  1  0
M  CHG  2  12  -1  17  -1
M  END
>  <UniqueID>  (44) 
44

>  <SMILES>  (44) 
CC(F)(F)c1ccc2cc(C([NH-])=O)n(C(=O)[O-])c2c1

>  <Energy>  (44) 
65.62141715236925

>  <Genealogy>  (44) 
CC(F)(F)c1ccc2cc(C([NH-])=O)n(C(=O)[O-])c2c1 (protonated)
CC(F)(F)c1ccc2cc(C([NH-])=O)n(C(=O)[O-])c2c1 (3D coordinates assigned)
CC(F)(F)c1ccc2cc(C([NH-])=O)n(C(=O)[O-])c2c1 (optimized conformer: 65.62141715236925 kcal/mol)

>  <smiles>  (44) 
CC(F)(F)c1ccc2cc(C(N)=O)n(C(=O)O)c2c1

>  <score_type>  (44) 
oracle

>  <origin>  (44) 
adg

>  <m_score__min__energy>  (44) 
-5.7599999999999998

>  <m_primary>  (44) 
energy

$$$$
44:0
     RDKit          3D

 39 40  0  0  0  0  0  0  0  0999 V2000
  140.0010  160.1490  132.5930 C   0  0  0  0  0  0  0  0  0  0  0  0
  140.7200  158.9670  133.0990 N   0  0  0  0  0  0  0  0  0  0  0  0
  140.0500  157.7460  132.6260 C   0  0  0  0  0  0  0  0  0  0  0  0
  140.7890  158.9790  134.5770 C   0  0  0  0  0  0  0  0  0  0  0  0
  141.7680  157.9200  135.0960 C   0  0  0  0  0  0  0  0  0  0  0  0
  143.1170  158.3310  134.8800 O   0  0  0  0  0  0  0  0  0  0  0  0
  143.7710  158.2350  133.6460 C   0  0  0  0  0  0  0  0  0  0  0  0
  143.2480  157.5930  132.6940 O   0  0  0  0  0  0  0  0  0  0  0  0
  145.0300  158.8980  133.4550 N   0  0  0  0  0  0  0  0  0  0  0  0
  145.3000  160.2300  133.5640 C   0  0  0  0  0  0  0  0  0  0  0  0
  144.3060  161.3060  133.7550 C   0  0  0  0  0  0  0  0  0  0  0  0
  142.9080  161.0340  133.6990 N   0  0  0  0  0  0  0  0  0  0  0  0
  144.6960  162.4930  133.9230 O   0  0  0  0  0  0  0  0  0  0  0  0
  146.6610  160.4680  133.3860 C   0  0  0  0  0  0  0  0  0  0  0  0
  147.2210  159.2330  133.1520 C   0  0  0  0  0  0  0  0  0  0  0  0
  148.5470  158.8810  132.9190 C   0  0  0  0  0  0  0  0  0  0  0  0
  148.8440  157.5200  132.7370 C   0  0  0  0  0  0  0  0  0  0  0  0
  147.8200  156.5410  132.7980 C   0  0  0  0  0  0  0  0  0  0  0  0
  148.1630  155.0910  132.6170 C   0  0  0  0  0  0  0  0  0  0  0  0
  149.5330  154.9460  132.4960 F   0  0  0  0  0  0  0  0  0  0  0  0
  147.7220  154.3690  133.7110 F   0  0  0  0  0  0  0  0  0  0  0  0
  146.4850  156.9370  133.0390 C   0  0  0  0  0  0  0  0  0  0  0  0
  146.2150  158.3020  133.1980 C   0  0  0  0  0  0  0  0  0  0  0  0
  139.6369  160.7475  133.4411 H   0  0  0  0  0  0  0  0  0  0  0  0
  140.6819  160.7578  131.9801 H   0  0  0  0  0  0  0  0  0  0  0  0
  139.1473  159.8243  131.9801 H   0  0  0  0  0  0  0  0  0  0  0  0
  139.7225  157.1493  133.4901 H   0  0  0  0  0  0  0  0  0  0  0  0
  139.1758  158.0199  132.0171 H   0  0  0  0  0  0  0  0  0  0  0  0
  140.7506  157.1557  132.0171 H   0  0  0  0  0  0  0  0  0  0  0  0
  141.1237  159.9717  134.9123 H   0  0  0  0  0  0  0  0  0  0  0  0
  139.7885  158.7519  134.9737 H   0  0  0  0  0  0  0  0  0  0  0  0
  141.6034  157.7734  136.1737 H   0  0  0  0  0  0  0  0  0  0  0  0
  141.5933  156.9801  134.5518 H   0  0  0  0  0  0  0  0  0  0  0  0
  142.5520  160.0550  133.6310 H   0  0  0  0  0  0  0  0  0  0  0  0
  147.1785  161.4379  133.4244 H   0  0  0  0  0  0  0  0  0  0  0  0
  149.3379  159.6445  132.8786 H   0  0  0  0  0  0  0  0  0  0  0  0
  149.8820  157.2105  132.5451 H   0  0  0  0  0  0  0  0  0  0  0  0
  147.6731  154.7162  131.7062 H   0  0  0  0  0  0  0  0  0  0  0  0
  145.6782  156.1918  133.1002 H   0  0  0  0  0  0  0  0  0  0  0  0
  1  2  1  0
  2  3  1  0
  2  4  1  0
  4  5  1  0
  5  6  1  0
  6  7  1  0
  7  8  2  0
  7  9  1  0
  9 10  1  0
 10 11  1  0
 11 12  1  0
 11 13  2  0
 10 14  2  0
 14 15  1  0
 15 16  2  0
 16 17  1  0
 17 18  2  0
 18 19  1  0
 19 20  1  0
 19 21  1  0
 18 22  1  0
 22 23  2  0
 23  9  1  0
 23 15  1  0
  1 24  1  0
  1 25  1  0
  1 26  1  0
  3 27  1  0
  3 28  1  0
  3 29  1  0
  4 30  1  0
  4 31  1  0
  5 32  1  0
  5 33  1  0
 12 34  1  0
 14 35  1  0
 16 36  1  0
 17 37  1  0
 19 38  1  0
 22 39  1  0
M  CHG  1  12  -1
M  END
>  <UniqueID>  (45) 
45

>  <SMILES>  (45) 
CN(C)CCOC(=O)n1c(C([NH-])=O)cc2ccc(C(F)F)cc21

>  <Energy>  (45) 
75.01062438761902

>  <Genealogy>  (45) 
CN(C)CCOC(=O)n1c(C([NH-])=O)cc2ccc(C(F)F)cc21 (protonated)
CN(C)CCOC(=O)n1c(C([NH-])=O)cc2ccc(C(F)F)cc21 (3D coordinates assigned)
CN(C)CCOC(=O)n1c(C([NH-])=O)cc2ccc(C(F)F)cc21 (optimized conformer: 75.01062438761902 kcal/mol)

>  <smiles>  (45) 
CN(C)CCOC(=O)n1c(C(N)=O)cc2ccc(C(F)F)cc21

>  <score_type>  (45) 
oracle

>  <origin>  (45) 
adg

>  <m_score__min__energy>  (45) 
-5.71

>  <m_primary>  (45) 
energy

$$$$
45:0
     RDKit          3D

 46 48  0  0  0  0  0  0  0  0999 V2000
  143.5940  161.0470  133.7680 C   0  0  0  0  0  0  0  0  0  0  0  0
  142.3340  160.6680  133.9830 C   0  0  0  0  0  0  0  0  0  0  0  0
  141.3350  161.3300  133.3480 F   0  0  0  0  0  0  0  0  0  0  0  0
  141.9970  159.5460  134.8810 C   0  0  0  0  0  0  0  0  0  0  0  0
  141.6450  159.7630  136.0730 O   0  0  0  0  0  0  0  0  0  0  0  0
  142.0740  158.1930  134.4050 N   0  0  0  0  0  0  0  0  0  0  0  0
  141.0520  157.3050  134.2580 C   0  0  0  0  0  0  0  0  0  0  0  0
  139.6470  157.5310  134.6580 C   0  0  0  0  0  0  0  0  0  0  0  0
  139.3520  158.0480  135.9540 N   0  0  0  0  0  0  0  0  0  0  0  0
  138.7030  157.2910  133.8600 O   0  0  0  0  0  0  0  0  0  0  0  0
  141.5200  156.1120  133.7130 C   0  0  0  0  0  0  0  0  0  0  0  0
  142.8720  156.3010  133.5270 C   0  0  0  0  0  0  0  0  0  0  0  0
  143.8290  155.4500  132.9970 C   0  0  0  0  0  0  0  0  0  0  0  0
  145.1480  155.9180  132.8940 C   0  0  0  0  0  0  0  0  0  0  0  0
  145.5070  157.2370  133.3140 C   0  0  0  0  0  0  0  0  0  0  0  0
  146.8830  157.7220  133.1950 N   0  0  0  0  0  0  0  0  0  0  0  0
  147.8410  156.9490  132.3740 C   0  0  0  0  0  0  0  0  0  0  0  0
  149.2750  157.4970  132.3600 C   0  0  0  0  0  0  0  0  0  0  0  0
  149.3440  158.9600  132.4390 N   0  0  0  0  0  0  0  0  0  0  0  0
  148.7260  159.7660  131.0110 S   0  0  0  0  0  0  0  0  0  0  0  0
  149.6130  161.2850  130.7320 C   0  0  0  0  0  0  0  0  0  0  0  0
  148.8530  158.9020  129.7890 O   0  0  0  0  0  0  0  0  0  0  0  0
  147.2750  160.1010  131.2190 O   0  0  0  0  0  0  0  0  0  0  0  0
  148.7080  159.4250  133.6770 C   0  0  0  0  0  0  0  0  0  0  0  0
  147.2280  159.0350  133.7830 C   0  0  0  0  0  0  0  0  0  0  0  0
  144.4790  158.0700  133.8420 C   0  0  0  0  0  0  0  0  0  0  0  0
  143.1800  157.5630  133.9500 C   0  0  0  0  0  0  0  0  0  0  0  0
  144.4195  160.5238  134.2728 H   0  0  0  0  0  0  0  0  0  0  0  0
  143.8081  161.8829  133.0858 H   0  0  0  0  0  0  0  0  0  0  0  0
  139.5820  159.0360  136.2030 H   0  0  0  0  0  0  0  0  0  0  0  0
  140.9346  155.2102  133.4804 H   0  0  0  0  0  0  0  0  0  0  0  0
  143.5619  154.4355  132.6661 H   0  0  0  0  0  0  0  0  0  0  0  0
  145.9230  155.2555  132.4810 H   0  0  0  0  0  0  0  0  0  0  0  0
  147.8726  155.9210  132.7641 H   0  0  0  0  0  0  0  0  0  0  0  0
  147.4780  157.0125  131.3375 H   0  0  0  0  0  0  0  0  0  0  0  0
  149.8168  157.0761  133.2198 H   0  0  0  0  0  0  0  0  0  0  0  0
  149.7236  157.2037  131.3994 H   0  0  0  0  0  0  0  0  0  0  0  0
  150.3580  159.2170  132.4990 H   0  0  0  0  0  0  0  0  0  0  0  0
  149.8775  161.7380  131.6988 H   0  0  0  0  0  0  0  0  0  0  0  0
  150.5303  161.0747  130.1624 H   0  0  0  0  0  0  0  0  0  0  0  0
  148.9791  161.9805  130.1624 H   0  0  0  0  0  0  0  0  0  0  0  0
  149.2461  158.9883  134.5312 H   0  0  0  0  0  0  0  0  0  0  0  0
  148.7558  160.5240  133.6747 H   0  0  0  0  0  0  0  0  0  0  0  0
  146.9564  159.0134  134.8487 H   0  0  0  0  0  0  0  0  0  0  0  0
  146.6702  159.7865  133.2049 H   0  0  0  0  0  0  0  0  0  0  0  0
  144.7040  159.0985  134.1606 H   0  0  0  0  0  0  0  0  0  0  0  0
  1  2  2  0
  2  3  1  0
  2  4  1  0
  4  5  2  0
  4  6  1  0
  6  7  1  0
  7  8  1  0
  8  9  1  0
  8 10  2  0
  7 11  2  0
 11 12  1  0
 12 13  2  0
 13 14  1  0
 14 15  2  0
 15 16  1  0
 16 17  1  0
 17 18  1  0
 18 19  1  0
 19 20  1  0
 20 21  1  0
 20 22  2  0
 20 23  2  0
 19 24  1  0
 24 25  1  0
 15 26  1  0
 26 27  2  0
 27  6  1  0
 27 12  1  0
 25 16  1  0
  1 28  1  0
  1 29  1  0
  9 30  1  0
 11 31  1  0
 13 32  1  0
 14 33  1  0
 17 34  1  0
 17 35  1  0
 18 36  1  0
 18 37  1  0
 19 38  1  0
 21 39  1  0
 21 40  1  0
 21 41  1  0
 24 42  1  0
 24 43  1  0
 25 44  1  0
 25 45  1  0
 26 46  1  0
M  CHG  2   9  -1  19   1
M  END
>  <UniqueID>  (46) 
46

>  <SMILES>  (46) 
C=C(F)C(=O)n1c(C([NH-])=O)cc2ccc(N3CC[NH+](S(C)(=O)=O)CC3)cc21

>  <Energy>  (46) 
91.2754442450525

>  <Genealogy>  (46) 
C=C(F)C(=O)n1c(C([NH-])=O)cc2ccc(N3CC[NH+](S(C)(=O)=O)CC3)cc21 (protonated)
C=C(F)C(=O)n1c(C([NH-])=O)cc2ccc(N3CC[NH+](S(C)(=O)=O)CC3)cc21 (3D coordinates assigned)
C=C(F)C(=O)n1c(C([NH-])=O)cc2ccc(N3CC[NH+](S(C)(=O)=O)CC3)cc21 (nonaromatic ring conformer: 91.2754442450525 kcal/mol)

>  <smiles>  (46) 
C=C(F)C(=O)n1c(C(N)=O)cc2ccc(N3CCN(S(C)(=O)=O)CC3)cc21

>  <score_type>  (46) 
oracle

>  <origin>  (46) 
adg

>  <m_score__min__energy>  (46) 
-7.46

>  <m_primary>  (46) 
energy

$$$$
46:0
     RDKit          3D

 36 37  0  0  0  0  0  0  0  0999 V2000
  145.7020  155.6090  134.7450 C   0  0  0  0  0  0  0  0  0  0  0  0
  146.9230  155.7720  133.9490 N   0  0  0  0  0  0  0  0  0  0  0  0
  148.0900  154.9260  134.2410 C   0  0  0  0  0  0  0  0  0  0  0  0
  148.4340  154.0450  133.0400 C   0  0  0  0  0  0  0  0  0  0  0  0
  149.4230  154.6600  132.2630 O   0  0  0  0  0  0  0  0  0  0  0  0
  146.9020  156.6530  132.8070 C   0  0  0  0  0  0  0  0  0  0  0  0
  146.9950  156.1760  131.6430 O   0  0  0  0  0  0  0  0  0  0  0  0
  146.7920  158.0750  132.9690 N   0  0  0  0  0  0  0  0  0  0  0  0
  147.7550  159.0180  132.7720 C   0  0  0  0  0  0  0  0  0  0  0  0
  149.1550  158.7480  132.3840 C   0  0  0  0  0  0  0  0  0  0  0  0
  149.6010  157.4050  132.2160 N   0  0  0  0  0  0  0  0  0  0  0  0
  149.9620  159.6960  132.1880 O   0  0  0  0  0  0  0  0  0  0  0  0
  147.2450  160.2910  133.0180 C   0  0  0  0  0  0  0  0  0  0  0  0
  145.9340  160.0930  133.3880 C   0  0  0  0  0  0  0  0  0  0  0  0
  144.9490  161.0140  133.7300 C   0  0  0  0  0  0  0  0  0  0  0  0
  143.6700  160.5250  134.0490 C   0  0  0  0  0  0  0  0  0  0  0  0
  143.4060  159.1300  134.0440 C   0  0  0  0  0  0  0  0  0  0  0  0
  142.0190  158.6130  134.3320 C   0  0  0  0  0  0  0  0  0  0  0  0
  141.3990  158.2880  133.1400 F   0  0  0  0  0  0  0  0  0  0  0  0
  142.0800  157.4840  135.1310 F   0  0  0  0  0  0  0  0  0  0  0  0
  141.2620  159.5680  134.9880 F   0  0  0  0  0  0  0  0  0  0  0  0
  144.4310  158.2280  133.6740 C   0  0  0  0  0  0  0  0  0  0  0  0
  145.6890  158.7460  133.3600 C   0  0  0  0  0  0  0  0  0  0  0  0
  145.9547  155.6427  135.8151 H   0  0  0  0  0  0  0  0  0  0  0  0
  144.9989  156.4212  134.5085 H   0  0  0  0  0  0  0  0  0  0  0  0
  145.2366  154.6408  134.5085 H   0  0  0  0  0  0  0  0  0  0  0  0
  148.9516  155.5682  134.4761 H   0  0  0  0  0  0  0  0  0  0  0  0
  147.8513  154.2782  135.0974 H   0  0  0  0  0  0  0  0  0  0  0  0
  148.8031  153.0718  133.3959 H   0  0  0  0  0  0  0  0  0  0  0  0
  147.5316  153.9005  132.4278 H   0  0  0  0  0  0  0  0  0  0  0  0
  149.0020  155.4670  131.8680 H   0  0  0  0  0  0  0  0  0  0  0  0
  149.0310  156.7150  131.6780 H   0  0  0  0  0  0  0  0  0  0  0  0
  147.7768  161.2502  132.9344 H   0  0  0  0  0  0  0  0  0  0  0  0
  145.1644  162.0925  133.7502 H   0  0  0  0  0  0  0  0  0  0  0  0
  142.8657  161.2304  134.3050 H   0  0  0  0  0  0  0  0  0  0  0  0
  144.2416  157.1451  133.6346 H   0  0  0  0  0  0  0  0  0  0  0  0
  1  2  1  0
  2  3  1  0
  3  4  1  0
  4  5  1  0
  2  6  1  0
  6  7  2  0
  6  8  1  0
  8  9  1  0
  9 10  1  0
 10 11  1  0
 10 12  2  0
  9 13  2  0
 13 14  1  0
 14 15  2  0
 15 16  1  0
 16 17  2  0
 17 18  1  0
 18 19  1  0
 18 20  1  0
 18 21  1  0
 17 22  1  0
 22 23  2  0
 23  8  1  0
 23 14  1  0
  1 24  1  0
  1 25  1  0
  1 26  1  0
  3 27  1  0
  3 28  1  0
  4 29  1  0
  4 30  1  0
  5 31  1  0
 11 32  1  0
 13 33  1  0
 15 34  1  0
 16 35  1  0
 22 36  1  0
M  CHG  1  11  -1
M  END
>  <UniqueID>  (47) 
47

>  <SMILES>  (47) 
CN(CCO)C(=O)n1c(C([NH-])=O)cc2ccc(C(F)(F)F)cc21

>  <Energy>  (47) 
71.18565606192507

>  <Genealogy>  (47) 
CN(CCO)C(=O)n1c(C([NH-])=O)cc2ccc(C(F)(F)F)cc21 (protonated)
CN(CCO)C(=O)n1c(C([NH-])=O)cc2ccc(C(F)(F)F)cc21 (3D coordinates assigned)
CN(CCO)C(=O)n1c(C([NH-])=O)cc2ccc(C(F)(F)F)cc21 (optimized conformer: 71.18565606192507 kcal/mol)

>  <smiles>  (47) 
CN(CCO)C(=O)n1c(C(N)=O)cc2ccc(C(F)(F)F)cc21

>  <score_type>  (47) 
oracle

>  <origin>  (47) 
adg

>  <m_score__min__energy>  (47) 
-4.96

>  <m_primary>  (47) 
energy

$$$$
47:0
     RDKit          3D

 35 37  0  0  0  0  0  0  0  0999 V2000
  144.6680  155.8940  132.8560 C   0  0  0  0  0  0  0  0  0  0  0  0
  145.5100  156.7250  133.7710 C   0  0  0  0  0  0  0  0  0  0  0  0
  146.3060  156.1510  134.5620 O   0  0  0  0  0  0  0  0  0  0  0  0
  145.4110  158.1590  133.7720 N   0  0  0  0  0  0  0  0  0  0  0  0
  146.4190  159.0520  133.5610 C   0  0  0  0  0  0  0  0  0  0  0  0
  147.8520  158.7200  133.4240 C   0  0  0  0  0  0  0  0  0  0  0  0
  148.4800  157.7660  134.2820 N   0  0  0  0  0  0  0  0  0  0  0  0
  148.5470  159.3250  132.5640 O   0  0  0  0  0  0  0  0  0  0  0  0
  145.9220  160.3510  133.5090 C   0  0  0  0  0  0  0  0  0  0  0  0
  144.5660  160.2300  133.7040 C   0  0  0  0  0  0  0  0  0  0  0  0
  143.5760  161.2080  133.7340 C   0  0  0  0  0  0  0  0  0  0  0  0
  142.2450  160.7920  133.9110 C   0  0  0  0  0  0  0  0  0  0  0  0
  141.9300  159.4160  134.0280 C   0  0  0  0  0  0  0  0  0  0  0  0
  140.5060  158.9840  134.2450 C   0  0  0  0  0  0  0  0  0  0  0  0
  139.7410  159.0730  132.9590 C   0  0  0  0  0  0  0  0  0  0  0  0
  139.2140  157.9510  132.2990 C   0  0  0  0  0  0  0  0  0  0  0  0
  138.5930  158.2570  131.0960 C   0  0  0  0  0  0  0  0  0  0  0  0
  138.7180  159.9150  130.8510 S   0  0  0  0  0  0  0  0  0  0  0  0
  139.5550  160.2650  132.2650 C   0  0  0  0  0  0  0  0  0  0  0  0
  142.9610  158.4530  133.9990 C   0  0  0  0  0  0  0  0  0  0  0  0
  144.2800  158.8960  133.8520 C   0  0  0  0  0  0  0  0  0  0  0  0
  144.0100  155.2446  133.4520 H   0  0  0  0  0  0  0  0  0  0  0  0
  144.0565  156.5523  132.2215 H   0  0  0  0  0  0  0  0  0  0  0  0
  145.3183  155.2739  132.2215 H   0  0  0  0  0  0  0  0  0  0  0  0
  147.9890  157.3880  135.1220 H   0  0  0  0  0  0  0  0  0  0  0  0
  149.4800  157.5080  134.1340 H   0  0  0  0  0  0  0  0  0  0  0  0
  146.4924  161.2774  133.3465 H   0  0  0  0  0  0  0  0  0  0  0  0
  143.8273  162.2731  133.6227 H   0  0  0  0  0  0  0  0  0  0  0  0
  141.4412  161.5414  133.9590 H   0  0  0  0  0  0  0  0  0  0  0  0
  140.4916  157.9451  134.6061 H   0  0  0  0  0  0  0  0  0  0  0  0
  140.0380  159.6446  134.9897 H   0  0  0  0  0  0  0  0  0  0  0  0
  139.2864  156.9281  132.6971 H   0  0  0  0  0  0  0  0  0  0  0  0
  138.1042  157.5394  130.4206 H   0  0  0  0  0  0  0  0  0  0  0  0
  139.8958  161.2605  132.5857 H   0  0  0  0  0  0  0  0  0  0  0  0
  142.7334  157.3806  134.0897 H   0  0  0  0  0  0  0  0  0  0  0  0
  1  2  1  0
  2  3  2  0
  2  4  1  0
  4  5  1  0
  5  6  1  0
  6  7  1  0
  6  8  2  0
  5  9  2  0
  9 10  1  0
 10 11  2  0
 11 12  1  0
 12 13  2  0
 13 14  1  0
 14 15  1  0
 15 16  1  0
 16 17  2  0
 17 18  1  0
 18 19  1  0
 13 20  1  0
 20 21  2  0
 21  4  1  0
 21 10  1  0
 19 15  2  0
  1 22  1  0
  1 23  1  0
  1 24  1  0
  7 25  1  0
  7 26  1  0
  9 27  1  0
 11 28  1  0
 12 29  1  0
 14 30  1  0
 14 31  1  0
 16 32  1  0
 17 33  1  0
 19 34  1  0
 20 35  1  0
M  END
>  <UniqueID>  (48) 
48

>  <SMILES>  (48) 
CC(=O)n1c(C(N)=O)cc2ccc(Cc3ccsc3)cc21

>  <Energy>  (48) 
99.82242171713074

>  <Genealogy>  (48) 
CC(=O)n1c(C(N)=O)cc2ccc(Cc3ccsc3)cc21 (3D coordinates assigned)
CC(=O)n1c(C(N)=O)cc2ccc(Cc3ccsc3)cc21 (optimized conformer: 99.82242171713074 kcal/mol)

>  <smiles>  (48) 
CC(=O)n1c(C(N)=O)cc2ccc(Cc3ccsc3)cc21

>  <score_type>  (48) 
oracle

>  <origin>  (48) 
adg

>  <m_score__min__energy>  (48) 
-7.6799999999999997

>  <m_primary>  (48) 
energy

$$$$
48:0
     RDKit          3D

 25 26  0  0  0  0  0  0  0  0999 V2000
  138.4890  157.8830  131.1330 N   0  0  0  0  0  0  0  0  0  0  0  0
  139.5910  158.6040  131.6840 C   0  0  0  0  0  0  0  0  0  0  0  0
  140.2820  159.3420  130.9330 O   0  0  0  0  0  0  0  0  0  0  0  0
  139.9760  158.4470  133.1000 C   0  0  0  0  0  0  0  0  0  0  0  0
  140.2290  159.5220  133.9470 C   0  0  0  0  0  0  0  0  0  0  0  0
  140.6160  158.9600  135.1420 C   0  0  0  0  0  0  0  0  0  0  0  0
  140.9620  159.5680  136.3440 C   0  0  0  0  0  0  0  0  0  0  0  0
  141.2750  158.7420  137.4350 C   0  0  0  0  0  0  0  0  0  0  0  0
  141.2470  157.3290  137.3070 C   0  0  0  0  0  0  0  0  0  0  0  0
  141.5250  156.4540  138.5030 C   0  0  0  0  0  0  0  0  0  0  0  0
  140.3500  155.8440  138.9020 F   0  0  0  0  0  0  0  0  0  0  0  0
  142.0230  157.2040  139.5530 F   0  0  0  0  0  0  0  0  0  0  0  0
  142.4540  155.4780  138.1890 F   0  0  0  0  0  0  0  0  0  0  0  0
  140.8660  156.7490  136.0740 C   0  0  0  0  0  0  0  0  0  0  0  0
  140.5790  157.5960  134.9970 C   0  0  0  0  0  0  0  0  0  0  0  0
  140.1820  157.2650  133.7460 N   0  0  0  0  0  0  0  0  0  0  0  0
  139.9100  155.9430  133.2490 C   0  0  0  0  0  0  0  0  0  0  0  0
  138.7310  155.5900  132.9840 O   0  0  0  0  0  0  0  0  0  0  0  0
  140.9480  155.0410  133.0520 O   0  0  0  0  0  0  0  0  0  0  0  0
  138.2090  158.0330  130.1380 H   0  0  0  0  0  0  0  0  0  0  0  0
  138.0010  157.1410  131.6830 H   0  0  0  0  0  0  0  0  0  0  0  0
  140.1388  160.5927  133.7114 H   0  0  0  0  0  0  0  0  0  0  0  0
  140.9896  160.6637  136.4370 H   0  0  0  0  0  0  0  0  0  0  0  0
  141.5451  159.1952  138.4002 H   0  0  0  0  0  0  0  0  0  0  0  0
  140.7968  155.6567  135.9641 H   0  0  0  0  0  0  0  0  0  0  0  0
  1  2  1  0
  2  3  2  0
  2  4  1  0
  4  5  2  0
  5  6  1  0
  6  7  2  0
  7  8  1  0
  8  9  2  0
  9 10  1  0
 10 11  1  0
 10 12  1  0
 10 13  1  0
  9 14  1  0
 14 15  2  0
 15 16  1  0
 16 17  1  0
 17 18  2  0
 17 19  1  0
 16  4  1  0
 15  6  1  0
  1 20  1  0
  1 21  1  0
  5 22  1  0
  7 23  1  0
  8 24  1  0
 14 25  1  0
M  CHG  1  19  -1
M  END
>  <UniqueID>  (49) 
49

>  <SMILES>  (49) 
NC(=O)c1cc2ccc(C(F)(F)F)cc2n1C(=O)[O-]

>  <Energy>  (49) 
66.26942015047459

>  <Genealogy>  (49) 
NC(=O)c1cc2ccc(C(F)(F)F)cc2n1C(=O)[O-] (protonated)
NC(=O)c1cc2ccc(C(F)(F)F)cc2n1C(=O)[O-] (3D coordinates assigned)
NC(=O)c1cc2ccc(C(F)(F)F)cc2n1C(=O)[O-] (optimized conformer: 66.26942015047459 kcal/mol)

>  <smiles>  (49) 
NC(=O)c1cc2ccc(C(F)(F)F)cc2n1C(=O)O

>  <score_type>  (49) 
oracle

>  <origin>  (49) 
adg

>  <m_score__min__energy>  (49) 
-5.3600000000000003

>  <m_primary>  (49) 
energy

$$$$
49:0
     RDKit          3D

 49 51  0  0  0  0  0  0  0  0999 V2000
  149.0440  150.4120  131.8130 C   0  0  0  0  0  0  0  0  0  0  0  0
  148.5780  151.4550  132.7400 N   0  0  0  0  0  0  0  0  0  0  0  0
  149.6140  152.5020  132.9450 C   0  0  0  0  0  0  0  0  0  0  0  0
  149.2610  153.8500  132.3020 C   0  0  0  0  0  0  0  0  0  0  0  0
  147.9360  154.2940  132.7540 N   0  0  0  0  0  0  0  0  0  0  0  0
  147.6240  155.7010  132.8760 C   0  0  0  0  0  0  0  0  0  0  0  0
  148.6390  156.6850  132.7240 C   0  0  0  0  0  0  0  0  0  0  0  0
  148.3430  158.0540  132.8400 C   0  0  0  0  0  0  0  0  0  0  0  0
  147.0270  158.4170  133.1010 C   0  0  0  0  0  0  0  0  0  0  0  0
  146.4630  159.6620  133.2810 C   0  0  0  0  0  0  0  0  0  0  0  0
  145.1100  159.4220  133.5290 C   0  0  0  0  0  0  0  0  0  0  0  0
  144.1080  160.4920  133.7300 C   0  0  0  0  0  0  0  0  0  0  0  0
  142.7510  160.3150  133.3300 N   0  0  0  0  0  0  0  0  0  0  0  0
  144.4580  161.5860  134.2460 O   0  0  0  0  0  0  0  0  0  0  0  0
  144.8550  158.0860  133.5040 N   0  0  0  0  0  0  0  0  0  0  0  0
  143.6150  157.4150  133.7590 C   0  0  0  0  0  0  0  0  0  0  0  0
  143.4060  156.8970  134.8900 O   0  0  0  0  0  0  0  0  0  0  0  0
  142.5160  157.4530  132.7460 C   0  0  0  0  0  0  0  0  0  0  0  0
  141.3960  158.0870  133.3260 O   0  0  0  0  0  0  0  0  0  0  0  0
  140.2020  157.6840  132.6820 C   0  0  0  0  0  0  0  0  0  0  0  0
  139.5820  158.8520  131.9130 C   0  0  0  0  0  0  0  0  0  0  0  0
  140.5900  159.7270  131.4880 O   0  0  0  0  0  0  0  0  0  0  0  0
  146.0330  157.4850  133.2380 C   0  0  0  0  0  0  0  0  0  0  0  0
  146.2970  156.1170  133.1410 C   0  0  0  0  0  0  0  0  0  0  0  0
  146.9000  153.2810  133.0050 C   0  0  0  0  0  0  0  0  0  0  0  0
  147.2560  151.9630  132.3130 C   0  0  0  0  0  0  0  0  0  0  0  0
  149.4267  149.5554  132.3873 H   0  0  0  0  0  0  0  0  0  0  0  0
  148.2068  150.0840  131.1793 H   0  0  0  0  0  0  0  0  0  0  0  0
  149.8469  150.8167  131.1793 H   0  0  0  0  0  0  0  0  0  0  0  0
  149.7436  152.6559  134.0264 H   0  0  0  0  0  0  0  0  0  0  0  0
  150.5343  152.1445  132.4600 H   0  0  0  0  0  0  0  0  0  0  0  0
  150.0135  154.5987  132.5905 H   0  0  0  0  0  0  0  0  0  0  0  0
  149.2478  153.7343  131.2082 H   0  0  0  0  0  0  0  0  0  0  0  0
  149.6715  156.3700  132.5124 H   0  0  0  0  0  0  0  0  0  0  0  0
  149.1291  158.8152  132.7276 H   0  0  0  0  0  0  0  0  0  0  0  0
  146.9707  160.6369  133.2383 H   0  0  0  0  0  0  0  0  0  0  0  0
  142.5090  159.7520  132.4860 H   0  0  0  0  0  0  0  0  0  0  0  0
  142.8457  158.0177  131.8615 H   0  0  0  0  0  0  0  0  0  0  0  0
  142.2528  156.4310  132.4360 H   0  0  0  0  0  0  0  0  0  0  0  0
  140.4282  156.8685  131.9793 H   0  0  0  0  0  0  0  0  0  0  0  0
  139.4864  157.3430  133.4447 H   0  0  0  0  0  0  0  0  0  0  0  0
  139.0398  158.4661  131.0371 H   0  0  0  0  0  0  0  0  0  0  0  0
  138.8852  159.3919  132.5711 H   0  0  0  0  0  0  0  0  0  0  0  0
  141.4380  159.3750  131.8690 H   0  0  0  0  0  0  0  0  0  0  0  0
  145.4914  155.3788  133.2678 H   0  0  0  0  0  0  0  0  0  0  0  0
  146.8171  153.1095  134.0884 H   0  0  0  0  0  0  0  0  0  0  0  0
  145.9431  153.6453  132.6029 H   0  0  0  0  0  0  0  0  0  0  0  0
  146.4901  151.2132  132.5605 H   0  0  0  0  0  0  0  0  0  0  0  0
  147.2954  152.1469  131.2292 H   0  0  0  0  0  0  0  0  0  0  0  0
  1  2  1  0
  2  3  1  0
  3  4  1  0
  4  5  1  0
  5  6  1  0
  6  7  2  0
  7  8  1  0
  8  9  2  0
  9 10  1  0
 10 11  2  0
 11 12  1  0
 12 13  1  0
 12 14  2  0
 11 15  1  0
 15 16  1  0
 16 17  2  0
 16 18  1  0
 18 19  1  0
 19 20  1  0
 20 21  1  0
 21 22  1  0
 15 23  1  0
 23 24  2  0
  5 25  1  0
 25 26  1  0
 26  2  1  0
 24  6  1  0
 23  9  1  0
  1 27  1  0
  1 28  1  0
  1 29  1  0
  3 30  1  0
  3 31  1  0
  4 32  1  0
  4 33  1  0
  7 34  1  0
  8 35  1  0
 10 36  1  0
 13 37  1  0
 18 38  1  0
 18 39  1  0
 20 40  1  0
 20 41  1  0
 21 42  1  0
 21 43  1  0
 22 44  1  0
 24 45  1  0
 25 46  1  0
 25 47  1  0
 26 48  1  0
 26 49  1  0
M  CHG  1  13  -1
M  END
>  <UniqueID>  (50) 
50

>  <SMILES>  (50) 
CN1CCN(c2ccc3cc(C([NH-])=O)n(C(=O)COCCO)c3c2)CC1

>  <Energy>  (50) 
98.06589567988509

>  <Genealogy>  (50) 
CN1CCN(c2ccc3cc(C([NH-])=O)n(C(=O)COCCO)c3c2)CC1 (protonated)
CN1CCN(c2ccc3cc(C([NH-])=O)n(C(=O)COCCO)c3c2)CC1 (3D coordinates assigned)
CN1CCN(c2ccc3cc(C([NH-])=O)n(C(=O)COCCO)c3c2)CC1 (nonaromatic ring conformer: 98.06589567988509 kcal/mol)

>  <smiles>  (50) 
CN1CCN(c2ccc3cc(C(N)=O)n(C(=O)COCCO)c3c2)CC1

>  <score_type>  (50) 
oracle

>  <origin>  (50) 
adg

>  <m_score__min__energy>  (50) 
-6.8499999999999996

>  <m_primary>  (50) 
energy

$$$$
50:0
     RDKit          3D

 34 36  0  0  0  0  0  0  0  0999 V2000
  143.9790  151.3860  132.5910 C   0  0  0  0  0  0  0  0  0  0  0  0
  144.4170  152.8110  132.5980 C   0  0  0  0  0  0  0  0  0  0  0  0
  144.0840  153.7060  131.6470 N   0  0  0  0  0  0  0  0  0  0  0  0
  144.6540  154.8570  132.0430 C   0  0  0  0  0  0  0  0  0  0  0  0
  145.3110  154.6140  133.2310 C   0  0  0  0  0  0  0  0  0  0  0  0
  146.0730  155.5830  134.0320 C   0  0  0  0  0  0  0  0  0  0  0  0
  145.8670  155.6710  135.2730 O   0  0  0  0  0  0  0  0  0  0  0  0
  147.0490  156.4310  133.4110 N   0  0  0  0  0  0  0  0  0  0  0  0
  148.1860  156.0550  132.7600 C   0  0  0  0  0  0  0  0  0  0  0  0
  148.7130  154.6770  132.6580 C   0  0  0  0  0  0  0  0  0  0  0  0
  147.8480  153.5490  132.7630 N   0  0  0  0  0  0  0  0  0  0  0  0
  149.9500  154.4920  132.5080 O   0  0  0  0  0  0  0  0  0  0  0  0
  148.8380  157.1710  132.2370 C   0  0  0  0  0  0  0  0  0  0  0  0
  148.0590  158.2490  132.5900 C   0  0  0  0  0  0  0  0  0  0  0  0
  148.2330  159.6050  132.3310 C   0  0  0  0  0  0  0  0  0  0  0  0
  147.2550  160.4970  132.8020 C   0  0  0  0  0  0  0  0  0  0  0  0
  146.1120  160.0210  133.4970 C   0  0  0  0  0  0  0  0  0  0  0  0
  145.0910  160.9900  134.0350 C   0  0  0  0  0  0  0  0  0  0  0  0
  144.1920  160.3410  134.8630 F   0  0  0  0  0  0  0  0  0  0  0  0
  144.3800  161.5760  133.0010 F   0  0  0  0  0  0  0  0  0  0  0  0
  145.7360  161.9770  134.7560 F   0  0  0  0  0  0  0  0  0  0  0  0
  145.9840  158.6360  133.7580 C   0  0  0  0  0  0  0  0  0  0  0  0
  146.9840  157.7750  133.2930 C   0  0  0  0  0  0  0  0  0  0  0  0
  145.1480  153.3500  133.5480 O   0  0  0  0  0  0  0  0  0  0  0  0
  143.8698  151.0309  133.6264 H   0  0  0  0  0  0  0  0  0  0  0  0
  143.0135  151.3017  132.0707 H   0  0  0  0  0  0  0  0  0  0  0  0
  144.7305  150.7740  132.0707 H   0  0  0  0  0  0  0  0  0  0  0  0
  143.5070  153.5450  130.7910 H   0  0  0  0  0  0  0  0  0  0  0  0
  144.6052  155.8203  131.5142 H   0  0  0  0  0  0  0  0  0  0  0  0
  146.9500  153.5110  132.2330 H   0  0  0  0  0  0  0  0  0  0  0  0
  149.7766  157.1864  131.6635 H   0  0  0  0  0  0  0  0  0  0  0  0
  149.1097  159.9676  131.7743 H   0  0  0  0  0  0  0  0  0  0  0  0
  147.3762  161.5767  132.6303 H   0  0  0  0  0  0  0  0  0  0  0  0
  145.1185  158.2455  134.3135 H   0  0  0  0  0  0  0  0  0  0  0  0
  1  2  1  0
  2  3  2  0
  3  4  1  0
  4  5  2  0
  5  6  1  0
  6  7  2  0
  6  8  1  0
  8  9  1  0
  9 10  1  0
 10 11  1  0
 10 12  2  0
  9 13  2  0
 13 14  1  0
 14 15  2  0
 15 16  1  0
 16 17  2  0
 17 18  1  0
 18 19  1  0
 18 20  1  0
 18 21  1  0
 17 22  1  0
 22 23  2  0
  5 24  1  0
 24  2  1  0
 23  8  1  0
 23 14  1  0
  1 25  1  0
  1 26  1  0
  1 27  1  0
  3 28  1  0
  4 29  1  0
 11 30  1  0
 13 31  1  0
 15 32  1  0
 16 33  1  0
 22 34  1  0
M  CHG  2   3   1  11  -1
M  END
>  <UniqueID>  (51) 
51

>  <SMILES>  (51) 
Cc1[nH+]cc(C(=O)n2c(C([NH-])=O)cc3ccc(C(F)(F)F)cc32)o1

>  <Energy>  (51) 
105.0873117673614

>  <Genealogy>  (51) 
Cc1[nH+]cc(C(=O)n2c(C([NH-])=O)cc3ccc(C(F)(F)F)cc32)o1 (protonated)
Cc1[nH+]cc(C(=O)n2c(C([NH-])=O)cc3ccc(C(F)(F)F)cc32)o1 (3D coordinates assigned)
Cc1[nH+]cc(C(=O)n2c(C([NH-])=O)cc3ccc(C(F)(F)F)cc32)o1 (optimized conformer: 105.0873117673614 kcal/mol)

>  <smiles>  (51) 
Cc1ncc(C(=O)n2c(C(N)=O)cc3ccc(C(F)(F)F)cc32)o1

>  <score_type>  (51) 
oracle

>  <origin>  (51) 
adg

>  <m_score__min__energy>  (51) 
-5.8700000000000001

>  <m_primary>  (51) 
energy

$$$$
51:0
     RDKit          3D

 43 44  0  0  0  0  0  0  0  0999 V2000
  143.7800  155.0330  132.9360 C   0  0  0  0  0  0  0  0  0  0  0  0
  143.2990  156.2740  132.9290 C   0  0  0  0  0  0  0  0  0  0  0  0
  143.5560  157.2290  134.0210 C   0  0  0  0  0  0  0  0  0  0  0  0
  143.1060  157.0210  135.1820 O   0  0  0  0  0  0  0  0  0  0  0  0
  144.3250  158.4110  133.7620 N   0  0  0  0  0  0  0  0  0  0  0  0
  143.9060  159.7080  133.8050 C   0  0  0  0  0  0  0  0  0  0  0  0
  142.5350  160.1720  134.1180 C   0  0  0  0  0  0  0  0  0  0  0  0
  141.8230  159.6660  135.2440 N   0  0  0  0  0  0  0  0  0  0  0  0
  141.9880  161.0390  133.3850 O   0  0  0  0  0  0  0  0  0  0  0  0
  144.9750  160.5700  133.5650 C   0  0  0  0  0  0  0  0  0  0  0  0
  146.0700  159.7540  133.3820 C   0  0  0  0  0  0  0  0  0  0  0  0
  147.3970  160.0770  133.1140 C   0  0  0  0  0  0  0  0  0  0  0  0
  148.3150  159.0220  132.9680 C   0  0  0  0  0  0  0  0  0  0  0  0
  147.8930  157.6750  133.0930 C   0  0  0  0  0  0  0  0  0  0  0  0
  148.8740  156.5540  132.8770 C   0  0  0  0  0  0  0  0  0  0  0  0
  148.1370  155.2250  132.6720 C   0  0  0  0  0  0  0  0  0  0  0  0
  149.0370  154.2120  132.2280 O   0  0  0  0  0  0  0  0  0  0  0  0
  148.8070  152.8430  132.4120 C   0  0  0  0  0  0  0  0  0  0  0  0
  147.6360  152.4150  132.6330 O   0  0  0  0  0  0  0  0  0  0  0  0
  149.9140  151.9200  132.3280 N   0  0  0  0  0  0  0  0  0  0  0  0
  149.7650  151.0550  131.1470 C   0  0  0  0  0  0  0  0  0  0  0  0
  150.0060  151.1140  133.5560 C   0  0  0  0  0  0  0  0  0  0  0  0
  146.5340  157.3860  133.3510 C   0  0  0  0  0  0  0  0  0  0  0  0
  145.6500  158.4580  133.5100 C   0  0  0  0  0  0  0  0  0  0  0  0
  143.5623  154.3540  132.0984 H   0  0  0  0  0  0  0  0  0  0  0  0
  144.3952  154.6864  133.7794 H   0  0  0  0  0  0  0  0  0  0  0  0
  142.6862  156.5990  132.0753 H   0  0  0  0  0  0  0  0  0  0  0  0
  142.2080  158.8770  135.8110 H   0  0  0  0  0  0  0  0  0  0  0  0
  144.9497  161.6691  133.5293 H   0  0  0  0  0  0  0  0  0  0  0  0
  147.7176  161.1250  133.0193 H   0  0  0  0  0  0  0  0  0  0  0  0
  149.3710  159.2444  132.7547 H   0  0  0  0  0  0  0  0  0  0  0  0
  149.4816  156.7717  131.9863 H   0  0  0  0  0  0  0  0  0  0  0  0
  149.5178  156.4696  133.7649 H   0  0  0  0  0  0  0  0  0  0  0  0
  147.6838  154.9129  133.6245 H   0  0  0  0  0  0  0  0  0  0  0  0
  147.3593  155.3666  131.9071 H   0  0  0  0  0  0  0  0  0  0  0  0
  150.8010  152.4670  132.2240 H   0  0  0  0  0  0  0  0  0  0  0  0
  149.5866  150.0192  131.4714 H   0  0  0  0  0  0  0  0  0  0  0  0
  148.9134  151.4021  130.5434 H   0  0  0  0  0  0  0  0  0  0  0  0
  150.6836  151.0971  130.5434 H   0  0  0  0  0  0  0  0  0  0  0  0
  149.9308  151.7729  134.4336 H   0  0  0  0  0  0  0  0  0  0  0  0
  149.1856  150.3815  133.5761 H   0  0  0  0  0  0  0  0  0  0  0  0
  150.9703  150.5852  133.5761 H   0  0  0  0  0  0  0  0  0  0  0  0
  146.1812  156.3467  133.4247 H   0  0  0  0  0  0  0  0  0  0  0  0
  1  2  2  0
  2  3  1  0
  3  4  2  0
  3  5  1  0
  5  6  1  0
  6  7  1  0
  7  8  1  0
  7  9  2  0
  6 10  2  0
 10 11  1  0
 11 12  2  0
 12 13  1  0
 13 14  2  0
 14 15  1  0
 15 16  1  0
 16 17  1  0
 17 18  1  0
 18 19  2  0
 18 20  1  0
 20 21  1  0
 20 22  1  0
 14 23  1  0
 23 24  2  0
 24  5  1  0
 24 11  1  0
  1 25  1  0
  1 26  1  0
  2 27  1  0
  8 28  1  0
 10 29  1  0
 12 30  1  0
 13 31  1  0
 15 32  1  0
 15 33  1  0
 16 34  1  0
 16 35  1  0
 20 36  1  0
 21 37  1  0
 21 38  1  0
 21 39  1  0
 22 40  1  0
 22 41  1  0
 22 42  1  0
 23 43  1  0
M  CHG  2   8  -1  20   1
M  END
>  <UniqueID>  (52) 
52

>  <SMILES>  (52) 
C=CC(=O)n1c(C([NH-])=O)cc2ccc(CCOC(=O)[NH+](C)C)cc21

>  <Energy>  (52) 
78.00828532800263

>  <Genealogy>  (52) 
C=CC(=O)n1c(C([NH-])=O)cc2ccc(CCOC(=O)[NH+](C)C)cc21 (protonated)
C=CC(=O)n1c(C([NH-])=O)cc2ccc(CCOC(=O)[NH+](C)C)cc21 (3D coordinates assigned)
C=CC(=O)n1c(C([NH-])=O)cc2ccc(CCOC(=O)[NH+](C)C)cc21 (optimized conformer: 78.00828532800263 kcal/mol)

>  <smiles>  (52) 
C=CC(=O)n1c(C(N)=O)cc2ccc(CCOC(=O)N(C)C)cc21

>  <score_type>  (52) 
oracle

>  <origin>  (52) 
adg

>  <m_score__min__energy>  (52) 
-6.6399999999999997

>  <m_primary>  (52) 
energy

$$$$
52:0
     RDKit          3D

 49 52  0  0  0  0  0  0  0  0999 V2000
  146.9220  153.9980  134.2140 N   0  0  0  0  0  0  0  0  0  0  0  0
  145.8150  154.6370  133.5760 C   0  0  0  0  0  0  0  0  0  0  0  0
  145.9600  155.7930  133.0970 O   0  0  0  0  0  0  0  0  0  0  0  0
  144.5240  153.9400  133.4120 C   0  0  0  0  0  0  0  0  0  0  0  0
  143.2960  154.5150  133.7300 C   0  0  0  0  0  0  0  0  0  0  0  0
  142.3540  153.5840  133.3590 C   0  0  0  0  0  0  0  0  0  0  0  0
  140.9660  153.6290  133.4560 C   0  0  0  0  0  0  0  0  0  0  0  0
  140.2380  152.5090  133.0200 C   0  0  0  0  0  0  0  0  0  0  0  0
  140.9070  151.3720  132.5110 C   0  0  0  0  0  0  0  0  0  0  0  0
  140.1570  150.2360  132.0810 N   0  0  0  0  0  0  0  0  0  0  0  0
  140.3670  148.7820  131.9410 C   0  0  0  0  0  0  0  0  0  0  0  0
  138.9980  148.4750  131.4150 C   0  0  0  0  0  0  0  0  0  0  0  0
  138.9730  147.9840  129.9920 C   0  0  0  0  0  0  0  0  0  0  0  0
  139.1660  146.7670  129.7190 O   0  0  0  0  0  0  0  0  0  0  0  0
  138.7330  148.8830  128.9620 O   0  0  0  0  0  0  0  0  0  0  0  0
  138.8040  149.9540  131.5650 C   0  0  0  0  0  0  0  0  0  0  0  0
  142.3140  151.3570  132.4290 C   0  0  0  0  0  0  0  0  0  0  0  0
  143.0150  152.4960  132.8490 C   0  0  0  0  0  0  0  0  0  0  0  0
  144.3520  152.6970  132.8800 N   0  0  0  0  0  0  0  0  0  0  0  0
  145.3720  151.7530  132.5200 C   0  0  0  0  0  0  0  0  0  0  0  0
  145.0570  150.5660  132.2370 O   0  0  0  0  0  0  0  0  0  0  0  0
  146.7090  152.1620  132.4690 O   0  0  0  0  0  0  0  0  0  0  0  0
  147.7820  151.3400  132.0120 C   0  0  0  0  0  0  0  0  0  0  0  0
  149.1360  151.8040  132.5980 C   0  0  0  0  0  0  0  0  0  0  0  0
  149.5770  153.2200  132.1670 C   0  0  0  0  0  0  0  0  0  0  0  0
  148.5210  154.1330  132.3200 O   0  0  0  0  0  0  0  0  0  0  0  0
  149.3430  151.5090  134.0740 C   0  0  0  0  0  0  0  0  0  0  0  0
  150.3580  150.5680  133.8180 O   0  0  0  0  0  0  0  0  0  0  0  0
  150.2330  150.7640  132.4290 C   0  0  0  0  0  0  0  0  0  0  0  0
  147.8140  154.5200  134.3620 H   0  0  0  0  0  0  0  0  0  0  0  0
  146.8890  152.9850  134.4600 H   0  0  0  0  0  0  0  0  0  0  0  0
  143.1177  155.5022  134.1812 H   0  0  0  0  0  0  0  0  0  0  0  0
  140.4547  154.5144  133.8616 H   0  0  0  0  0  0  0  0  0  0  0  0
  139.1394  152.5168  133.0751 H   0  0  0  0  0  0  0  0  0  0  0  0
  141.1631  148.5349  131.2233 H   0  0  0  0  0  0  0  0  0  0  0  0
  140.6945  148.2341  132.8368 H   0  0  0  0  0  0  0  0  0  0  0  0
  138.3267  147.7183  131.8471 H   0  0  0  0  0  0  0  0  0  0  0  0
  138.6016  150.4553  130.6070 H   0  0  0  0  0  0  0  0  0  0  0  0
  137.9538  150.2888  132.1773 H   0  0  0  0  0  0  0  0  0  0  0  0
  142.8478  150.4749  132.0456 H   0  0  0  0  0  0  0  0  0  0  0  0
  147.5946  150.3014  132.3222 H   0  0  0  0  0  0  0  0  0  0  0  0
  147.8344  151.4160  130.9159 H   0  0  0  0  0  0  0  0  0  0  0  0
  150.4251  153.5401  132.7900 H   0  0  0  0  0  0  0  0  0  0  0  0
  149.8727  153.1930  131.1078 H   0  0  0  0  0  0  0  0  0  0  0  0
  147.7690  153.8110  131.7570 H   0  0  0  0  0  0  0  0  0  0  0  0
  149.6892  152.3800  134.6498 H   0  0  0  0  0  0  0  0  0  0  0  0
  148.4774  151.2035  134.6801 H   0  0  0  0  0  0  0  0  0  0  0  0
  151.1447  151.1617  131.9592 H   0  0  0  0  0  0  0  0  0  0  0  0
  150.0442  149.8928  131.7845 H   0  0  0  0  0  0  0  0  0  0  0  0
  1  2  1  0
  2  3  2  0
  2  4  1  0
  4  5  2  0
  5  6  1  0
  6  7  2  0
  7  8  1  0
  8  9  2  0
  9 10  1  0
 10 11  1  0
 11 12  1  0
 12 13  1  0
 13 14  2  0
 13 15  1  0
 12 16  1  0
  9 17  1  0
 17 18  2  0
 18 19  1  0
 19 20  1  0
 20 21  2  0
 20 22  1  0
 22 23  1  0
 23 24  1  0
 24 25  1  0
 25 26  1  0
 24 27  1  0
 27 28  1  0
 28 29  1  0
 19  4  1  0
 29 24  1  0
 18  6  1  0
 16 10  1  0
  1 30  1  0
  1 31  1  0
  5 32  1  0
  7 33  1  0
  8 34  1  0
 11 35  1  0
 11 36  1  0
 12 37  1  0
 16 38  1  0
 16 39  1  0
 17 40  1  0
 23 41  1  0
 23 42  1  0
 25 43  1  0
 25 44  1  0
 26 45  1  0
 27 46  1  0
 27 47  1  0
 29 48  1  0
 29 49  1  0
M  CHG  1  15  -1
M  END
>  <UniqueID>  (53) 
53

>  <SMILES>  (53) 
NC(=O)c1cc2ccc(N3CC(C(=O)[O-])C3)cc2n1C(=O)OCC1(CO)COC1

>  <Energy>  (53) 
197.76065024126433

>  <Genealogy>  (53) 
NC(=O)c1cc2ccc(N3CC(C(=O)[O-])C3)cc2n1C(=O)OCC1(CO)COC1 (protonated)
NC(=O)c1cc2ccc(N3CC(C(=O)[O-])C3)cc2n1C(=O)OCC1(CO)COC1 (3D coordinates assigned)
NC(=O)c1cc2ccc(N3CC(C(=O)[O-])C3)cc2n1C(=O)OCC1(CO)COC1 (nonaromatic ring conformer: 197.76065024126433 kcal/mol)

>  <smiles>  (53) 
NC(=O)c1cc2ccc(N3CC(C(=O)O)C3)cc2n1C(=O)OCC1(CO)COC1

>  <score_type>  (53) 
oracle

>  <origin>  (53) 
adg

>  <m_score__min__energy>  (53) 
-7.6799999999999997

>  <m_primary>  (53) 
energy

$$$$
53:0
     RDKit          3D

 43 45  0  0  0  0  0  0  0  0999 V2000
  141.3830  156.1590  133.1030 N   0  0  0  0  0  0  0  0  0  0  0  0
  142.3180  155.8490  134.1300 C   0  0  0  0  0  0  0  0  0  0  0  0
  141.9480  155.1590  135.1140 O   0  0  0  0  0  0  0  0  0  0  0  0
  143.7240  156.2910  134.0060 C   0  0  0  0  0  0  0  0  0  0  0  0
  144.8160  155.4270  134.0620 C   0  0  0  0  0  0  0  0  0  0  0  0
  145.9250  156.2370  133.9670 C   0  0  0  0  0  0  0  0  0  0  0  0
  147.2760  155.9070  133.9490 C   0  0  0  0  0  0  0  0  0  0  0  0
  148.2050  156.9500  133.8060 C   0  0  0  0  0  0  0  0  0  0  0  0
  147.7700  158.2960  133.6790 C   0  0  0  0  0  0  0  0  0  0  0  0
  148.7300  159.3630  133.5640 N   0  0  0  0  0  0  0  0  0  0  0  0
  148.9550  159.6670  132.1760 C   0  0  0  0  0  0  0  0  0  0  0  0
  149.0030  158.6470  131.2120 C   0  0  0  0  0  0  0  0  0  0  0  0
  149.2220  158.9790  129.8720 C   0  0  0  0  0  0  0  0  0  0  0  0
  149.3940  160.3150  129.5040 C   0  0  0  0  0  0  0  0  0  0  0  0
  149.3460  161.3080  130.4880 C   0  0  0  0  0  0  0  0  0  0  0  0
  149.4860  162.6860  130.1350 N   0  0  0  0  0  0  0  0  0  0  0  0
  149.1360  160.9620  131.7870 N   0  0  0  0  0  0  0  0  0  0  0  0
  146.3880  158.5900  133.7130 C   0  0  0  0  0  0  0  0  0  0  0  0
  145.4890  157.5310  133.8640 C   0  0  0  0  0  0  0  0  0  0  0  0
  144.1420  157.5810  133.8810 N   0  0  0  0  0  0  0  0  0  0  0  0
  143.3410  158.7540  133.6750 C   0  0  0  0  0  0  0  0  0  0  0  0
  142.3310  158.6930  132.9240 O   0  0  0  0  0  0  0  0  0  0  0  0
  143.6220  160.0160  134.4420 C   0  0  0  0  0  0  0  0  0  0  0  0
  144.2710  161.0780  133.5500 C   0  0  0  0  0  0  0  0  0  0  0  0
  145.4840  161.6900  134.1850 C   0  0  0  0  0  0  0  0  0  0  0  0
  145.3580  162.5370  135.1090 O   0  0  0  0  0  0  0  0  0  0  0  0
  146.7560  161.3360  133.7510 O   0  0  0  0  0  0  0  0  0  0  0  0
  141.6620  156.7170  132.2610 H   0  0  0  0  0  0  0  0  0  0  0  0
  144.7960  154.3316  134.1610 H   0  0  0  0  0  0  0  0  0  0  0  0
  147.6062  154.8620  134.0438 H   0  0  0  0  0  0  0  0  0  0  0  0
  149.2811  156.7222  133.7922 H   0  0  0  0  0  0  0  0  0  0  0  0
  149.6190  159.0730  134.0370 H   0  0  0  0  0  0  0  0  0  0  0  0
  148.3860  160.2280  134.0440 H   0  0  0  0  0  0  0  0  0  0  0  0
  148.8695  157.5962  131.5087 H   0  0  0  0  0  0  0  0  0  0  0  0
  149.2588  158.1885  129.1080 H   0  0  0  0  0  0  0  0  0  0  0  0
  149.5655  160.5838  128.4512 H   0  0  0  0  0  0  0  0  0  0  0  0
  148.7000  163.2070  129.6870 H   0  0  0  0  0  0  0  0  0  0  0  0
  150.3660  163.2000  130.3620 H   0  0  0  0  0  0  0  0  0  0  0  0
  146.0293  159.6260  133.6229 H   0  0  0  0  0  0  0  0  0  0  0  0
  142.6757  160.4118  134.8393 H   0  0  0  0  0  0  0  0  0  0  0  0
  144.3184  159.7771  135.2593 H   0  0  0  0  0  0  0  0  0  0  0  0
  144.5673  160.6092  132.6001 H   0  0  0  0  0  0  0  0  0  0  0  0
  143.5344  161.8791  133.3898 H   0  0  0  0  0  0  0  0  0  0  0  0
  1  2  1  0
  2  3  2  0
  2  4  1  0
  4  5  2  0
  5  6  1  0
  6  7  2  0
  7  8  1  0
  8  9  2  0
  9 10  1  0
 10 11  1  0
 11 12  2  0
 12 13  1  0
 13 14  2  0
 14 15  1  0
 15 16  1  0
 15 17  2  0
  9 18  1  0
 18 19  2  0
 19 20  1  0
 20 21  1  0
 21 22  2  0
 21 23  1  0
 23 24  1  0
 24 25  1  0
 25 26  2  0
 25 27  1  0
 20  4  1  0
 19  6  1  0
 17 11  1  0
  1 28  1  0
  5 29  1  0
  7 30  1  0
  8 31  1  0
 10 32  1  0
 10 33  1  0
 12 34  1  0
 13 35  1  0
 14 36  1  0
 16 37  1  0
 16 38  1  0
 18 39  1  0
 23 40  1  0
 23 41  1  0
 24 42  1  0
 24 43  1  0
M  CHG  3   1  -1  10   1  27  -1
M  END
>  <UniqueID>  (54) 
54

>  <SMILES>  (54) 
[NH-]C(=O)c1cc2ccc([NH2+]c3cccc(N)n3)cc2n1C(=O)CCC(=O)[O-]

>  <Energy>  (54) 
82.66085684460477

>  <Genealogy>  (54) 
[NH-]C(=O)c1cc2ccc([NH2+]c3cccc(N)n3)cc2n1C(=O)CCC(=O)[O-] (protonated)
[NH-]C(=O)c1cc2ccc([NH2+]c3cccc(N)n3)cc2n1C(=O)CCC(=O)[O-] (3D coordinates assigned)
[NH-]C(=O)c1cc2ccc([NH2+]c3cccc(N)n3)cc2n1C(=O)CCC(=O)[O-] (optimized conformer: 82.66085684460477 kcal/mol)

>  <smiles>  (54) 
NC(=O)c1cc2ccc(Nc3cccc(N)n3)cc2n1C(=O)CCC(=O)O

>  <score_type>  (54) 
oracle

>  <origin>  (54) 
adg

>  <m_score__min__energy>  (54) 
-6.9100000000000001

>  <m_primary>  (54) 
energy

$$$$
54:0
     RDKit          3D

 42 43  0  0  0  0  0  0  0  0999 V2000
  149.1510  160.2380  130.7030 C   0  0  0  0  0  0  0  0  0  0  0  0
  148.9170  159.0580  131.2750 C   0  0  0  0  0  0  0  0  0  0  0  0
  148.4800  158.9310  132.6770 C   0  0  0  0  0  0  0  0  0  0  0  0
  149.1700  159.4220  133.6110 O   0  0  0  0  0  0  0  0  0  0  0  0
  147.2610  158.2390  132.9880 N   0  0  0  0  0  0  0  0  0  0  0  0
  146.0710  158.7770  133.3800 C   0  0  0  0  0  0  0  0  0  0  0  0
  145.7770  160.2310  133.4690 C   0  0  0  0  0  0  0  0  0  0  0  0
  146.8120  161.1860  133.7160 N   0  0  0  0  0  0  0  0  0  0  0  0
  144.5940  160.6430  133.3470 O   0  0  0  0  0  0  0  0  0  0  0  0
  145.1470  157.7610  133.6380 C   0  0  0  0  0  0  0  0  0  0  0  0
  145.8170  156.5850  133.3930 C   0  0  0  0  0  0  0  0  0  0  0  0
  145.3870  155.2670  133.5140 C   0  0  0  0  0  0  0  0  0  0  0  0
  146.3040  154.2430  133.2260 C   0  0  0  0  0  0  0  0  0  0  0  0
  147.6360  154.5500  132.8310 C   0  0  0  0  0  0  0  0  0  0  0  0
  148.5990  153.5190  132.5350 N   0  0  0  0  0  0  0  0  0  0  0  0
  149.1680  152.6090  133.5290 C   0  0  0  0  0  0  0  0  0  0  0  0
  149.9710  151.4980  132.8430 C   0  0  0  0  0  0  0  0  0  0  0  0
  149.4830  151.2940  131.4620 N   0  0  0  0  0  0  0  0  0  0  0  0
  150.3710  150.3790  130.7290 C   0  0  0  0  0  0  0  0  0  0  0  0
  148.1140  150.7500  131.4660 C   0  0  0  0  0  0  0  0  0  0  0  0
  148.0290  155.9030  132.7180 C   0  0  0  0  0  0  0  0  0  0  0  0
  147.0890  156.9000  132.9990 C   0  0  0  0  0  0  0  0  0  0  0  0
  149.4759  160.2855  129.6532 H   0  0  0  0  0  0  0  0  0  0  0  0
  149.0193  161.1649  131.2805 H   0  0  0  0  0  0  0  0  0  0  0  0
  149.0551  158.1440  130.6787 H   0  0  0  0  0  0  0  0  0  0  0  0
  147.8030  160.9020  133.8810 H   0  0  0  0  0  0  0  0  0  0  0  0
  146.5820  162.2050  133.7490 H   0  0  0  0  0  0  0  0  0  0  0  0
  144.1040  157.8772  133.9675 H   0  0  0  0  0  0  0  0  0  0  0  0
  144.3583  155.0339  133.8263 H   0  0  0  0  0  0  0  0  0  0  0  0
  145.9890  153.1921  133.3067 H   0  0  0  0  0  0  0  0  0  0  0  0
  148.9170  153.4040  131.5460 H   0  0  0  0  0  0  0  0  0  0  0  0
  149.8321  153.1745  134.1992 H   0  0  0  0  0  0  0  0  0  0  0  0
  148.3485  152.1525  134.1035 H   0  0  0  0  0  0  0  0  0  0  0  0
  151.0334  151.7818  132.8149 H   0  0  0  0  0  0  0  0  0  0  0  0
  149.8471  150.5632  133.4094 H   0  0  0  0  0  0  0  0  0  0  0  0
  150.9524  149.7800  131.4454 H   0  0  0  0  0  0  0  0  0  0  0  0
  149.7679  149.7108  130.0967 H   0  0  0  0  0  0  0  0  0  0  0  0
  151.0569  150.9618  130.0967 H   0  0  0  0  0  0  0  0  0  0  0  0
  147.7759  150.6156  132.5041 H   0  0  0  0  0  0  0  0  0  0  0  0
  147.4403  151.4487  130.9485 H   0  0  0  0  0  0  0  0  0  0  0  0
  148.1036  149.7794  130.9485 H   0  0  0  0  0  0  0  0  0  0  0  0
  149.0532  156.1665  132.4153 H   0  0  0  0  0  0  0  0  0  0  0  0
  1  2  2  0
  2  3  1  0
  3  4  2  0
  3  5  1  0
  5  6  1  0
  6  7  1  0
  7  8  1  0
  7  9  2  0
  6 10  2  0
 10 11  1  0
 11 12  2  0
 12 13  1  0
 13 14  2  0
 14 15  1  0
 15 16  1  0
 16 17  1  0
 17 18  1  0
 18 19  1  0
 18 20  1  0
 14 21  1  0
 21 22  2  0
 22  5  1  0
 22 11  1  0
  1 23  1  0
  1 24  1  0
  2 25  1  0
  8 26  1  0
  8 27  1  0
 10 28  1  0
 12 29  1  0
 13 30  1  0
 15 31  1  0
 16 32  1  0
 16 33  1  0
 17 34  1  0
 17 35  1  0
 19 36  1  0
 19 37  1  0
 19 38  1  0
 20 39  1  0
 20 40  1  0
 20 41  1  0
 21 42  1  0
M  END
>  <UniqueID>  (55) 
55

>  <SMILES>  (55) 
C=CC(=O)n1c(C(N)=O)cc2ccc(NCCN(C)C)cc21

>  <Energy>  (55) 
78.71769668946564

>  <Genealogy>  (55) 
C=CC(=O)n1c(C(N)=O)cc2ccc(NCCN(C)C)cc21 (3D coordinates assigned)
C=CC(=O)n1c(C(N)=O)cc2ccc(NCCN(C)C)cc21 (optimized conformer: 78.71769668946564 kcal/mol)

>  <smiles>  (55) 
C=CC(=O)n1c(C(N)=O)cc2ccc(NCCN(C)C)cc21

>  <score_type>  (55) 
oracle

>  <origin>  (55) 
adg

>  <m_score__min__energy>  (55) 
-7.3300000000000001

>  <m_primary>  (55) 
energy

$$$$
55:0
     RDKit          3D

 33 34  0  0  0  0  0  0  0  0999 V2000
  146.0920  160.4590  132.9690 N   0  0  0  0  0  0  0  0  0  0  0  0
  145.3740  159.3710  133.5540 C   0  0  0  0  0  0  0  0  0  0  0  0
  144.2750  159.5970  134.1240 O   0  0  0  0  0  0  0  0  0  0  0  0
  145.9280  157.9980  133.5260 C   0  0  0  0  0  0  0  0  0  0  0  0
  145.2070  156.8620  133.8890 C   0  0  0  0  0  0  0  0  0  0  0  0
  146.0450  155.8010  133.6310 C   0  0  0  0  0  0  0  0  0  0  0  0
  145.8390  154.4360  133.8050 C   0  0  0  0  0  0  0  0  0  0  0  0
  146.8880  153.5630  133.4730 C   0  0  0  0  0  0  0  0  0  0  0  0
  148.1270  154.0660  132.9980 C   0  0  0  0  0  0  0  0  0  0  0  0
  149.2320  153.1170  132.6090 C   0  0  0  0  0  0  0  0  0  0  0  0
  148.8360  152.3080  131.5590 F   0  0  0  0  0  0  0  0  0  0  0  0
  150.3600  153.8160  132.2140 F   0  0  0  0  0  0  0  0  0  0  0  0
  149.5530  152.3240  133.6950 F   0  0  0  0  0  0  0  0  0  0  0  0
  148.2880  155.4590  132.8100 C   0  0  0  0  0  0  0  0  0  0  0  0
  147.2180  156.3040  133.1340 C   0  0  0  0  0  0  0  0  0  0  0  0
  147.1610  157.6530  133.0610 N   0  0  0  0  0  0  0  0  0  0  0  0
  148.2210  158.5360  132.6580 C   0  0  0  0  0  0  0  0  0  0  0  0
  149.0140  159.0020  133.5200 O   0  0  0  0  0  0  0  0  0  0  0  0
  148.3600  158.8830  131.3090 O   0  0  0  0  0  0  0  0  0  0  0  0
  149.5220  159.5140  130.7750 C   0  0  0  0  0  0  0  0  0  0  0  0
  149.3220  161.0270  130.6750 C   0  0  0  0  0  0  0  0  0  0  0  0
  148.4770  161.4800  131.6980 O   0  0  0  0  0  0  0  0  0  0  0  0
  145.7110  161.4290  133.0280 H   0  0  0  0  0  0  0  0  0  0  0  0
  146.9790  160.3020  132.4420 H   0  0  0  0  0  0  0  0  0  0  0  0
  144.1856  156.8218  134.2953 H   0  0  0  0  0  0  0  0  0  0  0  0
  144.8832  154.0521  134.1910 H   0  0  0  0  0  0  0  0  0  0  0  0
  146.7476  152.4775  133.5824 H   0  0  0  0  0  0  0  0  0  0  0  0
  149.2307  155.8691  132.4188 H   0  0  0  0  0  0  0  0  0  0  0  0
  150.3792  159.3064  131.4323 H   0  0  0  0  0  0  0  0  0  0  0  0
  149.7070  159.1158  129.7664 H   0  0  0  0  0  0  0  0  0  0  0  0
  150.2975  161.5276  130.7632 H   0  0  0  0  0  0  0  0  0  0  0  0
  148.8616  161.2612  129.7038 H   0  0  0  0  0  0  0  0  0  0  0  0
  148.4500  160.7630  132.3840 H   0  0  0  0  0  0  0  0  0  0  0  0
  1  2  1  0
  2  3  2  0
  2  4  1  0
  4  5  2  0
  5  6  1  0
  6  7  2  0
  7  8  1  0
  8  9  2  0
  9 10  1  0
 10 11  1  0
 10 12  1  0
 10 13  1  0
  9 14  1  0
 14 15  2  0
 15 16  1  0
 16 17  1  0
 17 18  2  0
 17 19  1  0
 19 20  1  0
 20 21  1  0
 21 22  1  0
 16  4  1  0
 15  6  1  0
  1 23  1  0
  1 24  1  0
  5 25  1  0
  7 26  1  0
  8 27  1  0
 14 28  1  0
 20 29  1  0
 20 30  1  0
 21 31  1  0
 21 32  1  0
 22 33  1  0
M  END
>  <UniqueID>  (56) 
56

>  <SMILES>  (56) 
NC(=O)c1cc2ccc(C(F)(F)F)cc2n1C(=O)OCCO

>  <Energy>  (56) 
68.87741971270867

>  <Genealogy>  (56) 
NC(=O)c1cc2ccc(C(F)(F)F)cc2n1C(=O)OCCO (3D coordinates assigned)
NC(=O)c1cc2ccc(C(F)(F)F)cc2n1C(=O)OCCO (optimized conformer: 68.87741971270867 kcal/mol)

>  <smiles>  (56) 
NC(=O)c1cc2ccc(C(F)(F)F)cc2n1C(=O)OCCO

>  <score_type>  (56) 
oracle

>  <origin>  (56) 
adg

>  <m_score__min__energy>  (56) 
-5.5499999999999998

>  <m_primary>  (56) 
energy

$$$$
56:0
     RDKit          3D

 31 32  0  0  0  0  0  0  0  0999 V2000
  149.9620  151.5910  132.6200 C   0  0  0  0  0  0  0  0  0  0  0  0
  149.0540  152.2680  133.4620 O   0  0  0  0  0  0  0  0  0  0  0  0
  148.2620  153.1650  132.7060 C   0  0  0  0  0  0  0  0  0  0  0  0
  148.7600  154.5700  132.8790 C   0  0  0  0  0  0  0  0  0  0  0  0
  149.9590  154.8410  132.6070 O   0  0  0  0  0  0  0  0  0  0  0  0
  147.9080  155.5850  133.4320 N   0  0  0  0  0  0  0  0  0  0  0  0
  146.9750  155.4540  134.4170 C   0  0  0  0  0  0  0  0  0  0  0  0
  146.5500  154.1820  135.0360 C   0  0  0  0  0  0  0  0  0  0  0  0
  147.4790  153.4220  135.8060 N   0  0  0  0  0  0  0  0  0  0  0  0
  145.3660  153.7710  134.9170 O   0  0  0  0  0  0  0  0  0  0  0  0
  146.4070  156.6910  134.7150 C   0  0  0  0  0  0  0  0  0  0  0  0
  147.0220  157.5880  133.8700 C   0  0  0  0  0  0  0  0  0  0  0  0
  146.8390  158.9600  133.7310 C   0  0  0  0  0  0  0  0  0  0  0  0
  147.6250  159.6360  132.7810 C   0  0  0  0  0  0  0  0  0  0  0  0
  148.5880  158.9390  132.0060 C   0  0  0  0  0  0  0  0  0  0  0  0
  149.3960  159.6680  130.9640 C   0  0  0  0  0  0  0  0  0  0  0  0
  149.2180  161.0300  131.1210 F   0  0  0  0  0  0  0  0  0  0  0  0
  148.9930  159.3050  129.6900 F   0  0  0  0  0  0  0  0  0  0  0  0
  150.7420  159.3720  131.0930 F   0  0  0  0  0  0  0  0  0  0  0  0
  148.7240  157.5390  132.1600 C   0  0  0  0  0  0  0  0  0  0  0  0
  147.9210  156.8930  133.1060 C   0  0  0  0  0  0  0  0  0  0  0  0
  150.6940  151.0453  133.2335 H   0  0  0  0  0  0  0  0  0  0  0  0
  149.4130  150.8800  131.9851 H   0  0  0  0  0  0  0  0  0  0  0  0
  150.4867  152.3201  131.9851 H   0  0  0  0  0  0  0  0  0  0  0  0
  148.3156  152.8891  131.6425 H   0  0  0  0  0  0  0  0  0  0  0  0
  147.2212  153.1078  133.0574 H   0  0  0  0  0  0  0  0  0  0  0  0
  148.1010  152.7160  135.3530 H   0  0  0  0  0  0  0  0  0  0  0  0
  145.6321  156.9055  135.4656 H   0  0  0  0  0  0  0  0  0  0  0  0
  146.1026  159.4991  134.3450 H   0  0  0  0  0  0  0  0  0  0  0  0
  147.4918  160.7183  132.6368 H   0  0  0  0  0  0  0  0  0  0  0  0
  149.4436  156.9724  131.5507 H   0  0  0  0  0  0  0  0  0  0  0  0
  1  2  1  0
  2  3  1  0
  3  4  1  0
  4  5  2  0
  4  6  1  0
  6  7  1  0
  7  8  1  0
  8  9  1  0
  8 10  2  0
  7 11  2  0
 11 12  1  0
 12 13  2  0
 13 14  1  0
 14 15  2  0
 15 16  1  0
 16 17  1  0
 16 18  1  0
 16 19  1  0
 15 20  1  0
 20 21  2  0
 21  6  1  0
 21 12  1  0
  1 22  1  0
  1 23  1  0
  1 24  1  0
  3 25  1  0
  3 26  1  0
  9 27  1  0
 11 28  1  0
 13 29  1  0
 14 30  1  0
 20 31  1  0
M  CHG  1   9  -1
M  END
>  <UniqueID>  (57) 
57

>  <SMILES>  (57) 
COCC(=O)n1c(C([NH-])=O)cc2ccc(C(F)(F)F)cc21

>  <Energy>  (57) 
72.08626569727275

>  <Genealogy>  (57) 
COCC(=O)n1c(C([NH-])=O)cc2ccc(C(F)(F)F)cc21 (protonated)
COCC(=O)n1c(C([NH-])=O)cc2ccc(C(F)(F)F)cc21 (3D coordinates assigned)
COCC(=O)n1c(C([NH-])=O)cc2ccc(C(F)(F)F)cc21 (optimized conformer: 72.08626569727275 kcal/mol)

>  <smiles>  (57) 
COCC(=O)n1c(C(N)=O)cc2ccc(C(F)(F)F)cc21

>  <score_type>  (57) 
oracle

>  <origin>  (57) 
adg

>  <m_score__min__energy>  (57) 
-5.7000000000000002

>  <m_primary>  (57) 
energy

$$$$
57:0
     RDKit          3D

 51 54  0  0  0  0  0  0  0  0999 V2000
  145.4130  159.9230  132.8370 N   0  0  0  0  0  0  0  0  0  0  0  0
  144.0850  159.8360  133.3570 C   0  0  0  0  0  0  0  0  0  0  0  0
  143.5290  160.8780  133.7920 O   0  0  0  0  0  0  0  0  0  0  0  0
  143.3840  158.5350  133.4260 C   0  0  0  0  0  0  0  0  0  0  0  0
  141.9990  158.4070  133.4970 C   0  0  0  0  0  0  0  0  0  0  0  0
  141.7540  157.0560  133.4460 C   0  0  0  0  0  0  0  0  0  0  0  0
  140.5460  156.3640  133.4900 C   0  0  0  0  0  0  0  0  0  0  0  0
  140.5890  154.9600  133.4470 C   0  0  0  0  0  0  0  0  0  0  0  0
  141.8280  154.2850  133.3680 C   0  0  0  0  0  0  0  0  0  0  0  0
  141.8600  152.8470  133.3390 C   0  0  0  0  0  0  0  0  0  0  0  0
  141.8860  151.6420  133.3180 C   0  0  0  0  0  0  0  0  0  0  0  0
  141.9100  150.1680  133.2890 C   0  0  0  0  0  0  0  0  0  0  0  0
  142.2860  149.6550  131.8830 C   0  0  0  0  0  0  0  0  0  0  0  0
  141.0460  149.4600  130.9890 C   0  0  0  0  0  0  0  0  0  0  0  0
  139.9850  150.2960  131.4050 O   0  0  0  0  0  0  0  0  0  0  0  0
  139.4600  149.8400  132.6420 C   0  0  0  0  0  0  0  0  0  0  0  0
  140.5480  149.6040  133.7200 C   0  0  0  0  0  0  0  0  0  0  0  0
  143.0340  155.0130  133.3250 C   0  0  0  0  0  0  0  0  0  0  0  0
  142.9620  156.4120  133.3510 C   0  0  0  0  0  0  0  0  0  0  0  0
  143.9750  157.3080  133.3380 N   0  0  0  0  0  0  0  0  0  0  0  0
  145.3820  157.0090  133.3180 C   0  0  0  0  0  0  0  0  0  0  0  0
  145.8090  156.0390  132.6360 O   0  0  0  0  0  0  0  0  0  0  0  0
  146.2910  157.7870  134.1030 N   0  0  0  0  0  0  0  0  0  0  0  0
  147.7450  157.6800  134.0250 C   0  0  0  0  0  0  0  0  0  0  0  0
  148.3970  159.0590  133.8740 C   0  0  0  0  0  0  0  0  0  0  0  0
  148.5770  159.4410  132.4390 C   0  0  0  0  0  0  0  0  0  0  0  0
  147.7000  160.2080  131.7550 N   0  0  0  0  0  0  0  0  0  0  0  0
  148.1070  160.4260  130.4760 C   0  0  0  0  0  0  0  0  0  0  0  0
  149.3160  159.8330  130.1320 C   0  0  0  0  0  0  0  0  0  0  0  0
  149.8890  159.0080  131.4810 S   0  0  0  0  0  0  0  0  0  0  0  0
  145.9150  160.8380  132.8300 H   0  0  0  0  0  0  0  0  0  0  0  0
  145.8870  159.0900  132.4220 H   0  0  0  0  0  0  0  0  0  0  0  0
  141.2581  159.2161  133.5770 H   0  0  0  0  0  0  0  0  0  0  0  0
  139.5877  156.9000  133.5564 H   0  0  0  0  0  0  0  0  0  0  0  0
  139.6528  154.3831  133.4750 H   0  0  0  0  0  0  0  0  0  0  0  0
  142.6755  149.8197  133.9981 H   0  0  0  0  0  0  0  0  0  0  0  0
  142.9564  150.3851  131.4061 H   0  0  0  0  0  0  0  0  0  0  0  0
  142.7788  148.6783  131.9982 H   0  0  0  0  0  0  0  0  0  0  0  0
  141.3100  149.7043  129.9495 H   0  0  0  0  0  0  0  0  0  0  0  0
  140.7185  148.4128  131.0676 H   0  0  0  0  0  0  0  0  0  0  0  0
  138.7520  150.5925  133.0194 H   0  0  0  0  0  0  0  0  0  0  0  0
  138.9738  148.8717  132.4524 H   0  0  0  0  0  0  0  0  0  0  0  0
  140.2376  150.0971  134.6530 H   0  0  0  0  0  0  0  0  0  0  0  0
  140.6573  148.5189  133.8636 H   0  0  0  0  0  0  0  0  0  0  0  0
  144.0043  154.4975  133.2725 H   0  0  0  0  0  0  0  0  0  0  0  0
  148.1193  157.2052  134.9440 H   0  0  0  0  0  0  0  0  0  0  0  0
  148.0021  157.0756  133.1426 H   0  0  0  0  0  0  0  0  0  0  0  0
  147.7584  159.8090  134.3635 H   0  0  0  0  0  0  0  0  0  0  0  0
  149.3920  159.0168  134.3412 H   0  0  0  0  0  0  0  0  0  0  0  0
  147.5218  161.0280  129.7652 H   0  0  0  0  0  0  0  0  0  0  0  0
  149.8105  159.8927  129.1512 H   0  0  0  0  0  0  0  0  0  0  0  0
  1  2  1  0
  2  3  2  0
  2  4  1  0
  4  5  2  0
  5  6  1  0
  6  7  2  0
  7  8  1  0
  8  9  2  0
  9 10  1  0
 10 11  3  0
 11 12  1  0
 12 13  1  0
 13 14  1  0
 14 15  1  0
 15 16  1  0
 16 17  1  0
  9 18  1  0
 18 19  2  0
 19 20  1  0
 20 21  1  0
 21 22  2  0
 21 23  1  0
 23 24  1  0
 24 25  1  0
 25 26  1  0
 26 27  2  0
 27 28  1  0
 28 29  2  0
 29 30  1  0
 20  4  1  0
 30 26  1  0
 19  6  1  0
 17 12  1  0
  1 31  1  0
  1 32  1  0
  5 33  1  0
  7 34  1  0
  8 35  1  0
 12 36  1  0
 13 37  1  0
 13 38  1  0
 14 39  1  0
 14 40  1  0
 16 41  1  0
 16 42  1  0
 17 43  1  0
 17 44  1  0
 18 45  1  0
 24 46  1  0
 24 47  1  0
 25 48  1  0
 25 49  1  0
 28 50  1  0
 29 51  1  0
M  CHG  1  23  -1
M  END
>  <UniqueID>  (58) 
58

>  <SMILES>  (58) 
NC(=O)c1cc2ccc(C#CC3CCOCC3)cc2n1C(=O)[N-]CCc1nccs1

>  <Energy>  (58) 
120.14858498815168

>  <Genealogy>  (58) 
NC(=O)c1cc2ccc(C#CC3CCOCC3)cc2n1C(=O)[N-]CCc1nccs1 (protonated)
NC(=O)c1cc2ccc(C#CC3CCOCC3)cc2n1C(=O)[N-]CCc1nccs1 (3D coordinates assigned)
NC(=O)c1cc2ccc(C#CC3CCOCC3)cc2n1C(=O)[N-]CCc1nccs1 (nonaromatic ring conformer: 120.14858498815168 kcal/mol)

>  <smiles>  (58) 
NC(=O)c1cc2ccc(C#CC3CCOCC3)cc2n1C(=O)NCCc1nccs1

>  <score_type>  (58) 
oracle

>  <origin>  (58) 
adg

>  <m_score__min__energy>  (58) 
-9.5299999999999994

>  <m_primary>  (58) 
energy

$$$$
58:0
     RDKit          3D

 40 42  0  0  0  0  0  0  0  0999 V2000
  140.9960  159.3630  136.2820 C   0  0  0  0  0  0  0  0  0  0  0  0
  141.6060  158.8430  135.1210 O   0  0  0  0  0  0  0  0  0  0  0  0
  141.7990  157.4460  135.2430 C   0  0  0  0  0  0  0  0  0  0  0  0
  143.2320  157.0540  134.8590 C   0  0  0  0  0  0  0  0  0  0  0  0
  143.7020  157.7370  133.6000 C   0  0  0  0  0  0  0  0  0  0  0  0
  143.0020  157.6540  132.5540 O   0  0  0  0  0  0  0  0  0  0  0  0
  144.9540  158.4490  133.5590 N   0  0  0  0  0  0  0  0  0  0  0  0
  145.1270  159.8030  133.5630 C   0  0  0  0  0  0  0  0  0  0  0  0
  144.0620  160.8140  133.7220 C   0  0  0  0  0  0  0  0  0  0  0  0
  142.7020  160.5100  133.4170 N   0  0  0  0  0  0  0  0  0  0  0  0
  144.3520  161.9490  134.1830 O   0  0  0  0  0  0  0  0  0  0  0  0
  146.4660  160.1320  133.3770 C   0  0  0  0  0  0  0  0  0  0  0  0
  147.1210  158.9300  133.2540 C   0  0  0  0  0  0  0  0  0  0  0  0
  148.4670  158.6730  133.0120 C   0  0  0  0  0  0  0  0  0  0  0  0
  148.8650  157.3350  132.8550 C   0  0  0  0  0  0  0  0  0  0  0  0
  147.9120  156.2870  132.9220 C   0  0  0  0  0  0  0  0  0  0  0  0
  148.3310  154.8850  132.7310 C   0  0  0  0  0  0  0  0  0  0  0  0
  149.6090  154.4830  132.5750 N   0  0  0  0  0  0  0  0  0  0  0  0
  149.5730  153.1670  132.4320 N   0  0  0  0  0  0  0  0  0  0  0  0
  148.2760  152.8160  132.5110 C   0  0  0  0  0  0  0  0  0  0  0  0
  147.7770  151.4190  132.3730 C   0  0  0  0  0  0  0  0  0  0  0  0
  147.5080  153.8640  132.6880 O   0  0  0  0  0  0  0  0  0  0  0  0
  146.5540  156.5890  133.1620 C   0  0  0  0  0  0  0  0  0  0  0  0
  146.1880  157.9280  133.3550 C   0  0  0  0  0  0  0  0  0  0  0  0
  141.4869  158.9445  137.1730 H   0  0  0  0  0  0  0  0  0  0  0  0
  141.0954  160.4585  136.2891 H   0  0  0  0  0  0  0  0  0  0  0  0
  139.9301  159.0915  136.2891 H   0  0  0  0  0  0  0  0  0  0  0  0
  141.6108  157.1463  136.2845 H   0  0  0  0  0  0  0  0  0  0  0  0
  141.1014  156.9348  134.5632 H   0  0  0  0  0  0  0  0  0  0  0  0
  143.9059  157.3314  135.6829 H   0  0  0  0  0  0  0  0  0  0  0  0
  143.2426  155.9698  134.6738 H   0  0  0  0  0  0  0  0  0  0  0  0
  142.4020  159.5300  133.2280 H   0  0  0  0  0  0  0  0  0  0  0  0
  141.9710  161.2540  133.4830 H   0  0  0  0  0  0  0  0  0  0  0  0
  146.9064  161.1392  133.3369 H   0  0  0  0  0  0  0  0  0  0  0  0
  149.1973  159.4929  132.9456 H   0  0  0  0  0  0  0  0  0  0  0  0
  149.9246  157.0982  132.6786 H   0  0  0  0  0  0  0  0  0  0  0  0
  147.6219  150.9847  133.3717 H   0  0  0  0  0  0  0  0  0  0  0  0
  146.8245  151.4225  131.8227 H   0  0  0  0  0  0  0  0  0  0  0  0
  148.5161  150.8183  131.8227 H   0  0  0  0  0  0  0  0  0  0  0  0
  145.7988  155.7900  133.1968 H   0  0  0  0  0  0  0  0  0  0  0  0
  1  2  1  0
  2  3  1  0
  3  4  1  0
  4  5  1  0
  5  6  2  0
  5  7  1  0
  7  8  1  0
  8  9  1  0
  9 10  1  0
  9 11  2  0
  8 12  2  0
 12 13  1  0
 13 14  2  0
 14 15  1  0
 15 16  2  0
 16 17  1  0
 17 18  2  0
 18 19  1  0
 19 20  2  0
 20 21  1  0
 20 22  1  0
 16 23  1  0
 23 24  2  0
 24  7  1  0
 24 13  1  0
 22 17  1  0
  1 25  1  0
  1 26  1  0
  1 27  1  0
  3 28  1  0
  3 29  1  0
  4 30  1  0
  4 31  1  0
 10 32  1  0
 10 33  1  0
 12 34  1  0
 14 35  1  0
 15 36  1  0
 21 37  1  0
 21 38  1  0
 21 39  1  0
 23 40  1  0
M  END
>  <UniqueID>  (59) 
59

>  <SMILES>  (59) 
COCCC(=O)n1c(C(N)=O)cc2ccc(-c3nnc(C)o3)cc21

>  <Energy>  (59) 
115.62615594053003

>  <Genealogy>  (59) 
COCCC(=O)n1c(C(N)=O)cc2ccc(-c3nnc(C)o3)cc21 (3D coordinates assigned)
COCCC(=O)n1c(C(N)=O)cc2ccc(-c3nnc(C)o3)cc21 (optimized conformer: 115.62615594053003 kcal/mol)

>  <smiles>  (59) 
COCCC(=O)n1c(C(N)=O)cc2ccc(-c3nnc(C)o3)cc21

>  <score_type>  (59) 
oracle

>  <origin>  (59) 
adg

>  <m_score__min__energy>  (59) 
-7.3700000000000001

>  <m_primary>  (59) 
energy

$$$$
59:0
     RDKit          3D

 43 44  0  0  0  0  0  0  0  0999 V2000
  147.3640  155.5190  135.0740 C   0  0  0  0  0  0  0  0  0  0  0  0
  146.4180  155.8320  134.1900 C   0  0  0  0  0  0  0  0  0  0  0  0
  146.6810  156.6870  133.0170 C   0  0  0  0  0  0  0  0  0  0  0  0
  146.9540  156.1690  131.9000 O   0  0  0  0  0  0  0  0  0  0  0  0
  146.6420  158.1180  133.1440 N   0  0  0  0  0  0  0  0  0  0  0  0
  147.6370  159.0010  132.8450 C   0  0  0  0  0  0  0  0  0  0  0  0
  149.0160  158.6330  132.4520 C   0  0  0  0  0  0  0  0  0  0  0  0
  149.2940  157.3630  131.8580 N   0  0  0  0  0  0  0  0  0  0  0  0
  149.9600  159.4490  132.6200 O   0  0  0  0  0  0  0  0  0  0  0  0
  147.1940  160.3100  133.0260 C   0  0  0  0  0  0  0  0  0  0  0  0
  145.8860  160.2010  133.4390 C   0  0  0  0  0  0  0  0  0  0  0  0
  144.9570  161.1910  133.7430 C   0  0  0  0  0  0  0  0  0  0  0  0
  143.6600  160.7900  134.1020 C   0  0  0  0  0  0  0  0  0  0  0  0
  143.3090  159.4160  134.1260 C   0  0  0  0  0  0  0  0  0  0  0  0
  141.9120  158.9960  134.5000 C   0  0  0  0  0  0  0  0  0  0  0  0
  140.9040  159.4030  133.4580 C   0  0  0  0  0  0  0  0  0  0  0  0
  140.6840  160.6290  133.2720 O   0  0  0  0  0  0  0  0  0  0  0  0
  140.1670  158.4480  132.6840 N   0  0  0  0  0  0  0  0  0  0  0  0
  138.7470  158.1340  132.8190 C   0  0  0  0  0  0  0  0  0  0  0  0
  137.9360  158.9050  131.7740 C   0  0  0  0  0  0  0  0  0  0  0  0
  138.6290  160.1420  131.3910 N   0  0  0  0  0  0  0  0  0  0  0  0
  138.4140  160.4630  129.9780 C   0  0  0  0  0  0  0  0  0  0  0  0
  144.2850  158.4400  133.8280 C   0  0  0  0  0  0  0  0  0  0  0  0
  145.5750  158.8680  133.4980 C   0  0  0  0  0  0  0  0  0  0  0  0
  147.1222  154.8777  135.9344 H   0  0  0  0  0  0  0  0  0  0  0  0
  148.3870  155.9018  134.9436 H   0  0  0  0  0  0  0  0  0  0  0  0
  145.4021  155.4380  134.3404 H   0  0  0  0  0  0  0  0  0  0  0  0
  148.5560  156.6320  131.7610 H   0  0  0  0  0  0  0  0  0  0  0  0
  150.2650  157.1320  131.5520 H   0  0  0  0  0  0  0  0  0  0  0  0
  147.7687  161.2351  132.8713 H   0  0  0  0  0  0  0  0  0  0  0  0
  145.2302  162.2558  133.7033 H   0  0  0  0  0  0  0  0  0  0  0  0
  142.9090  161.5488  134.3672 H   0  0  0  0  0  0  0  0  0  0  0  0
  141.8873  157.9018  134.6100 H   0  0  0  0  0  0  0  0  0  0  0  0
  141.6473  159.4962  135.4433 H   0  0  0  0  0  0  0  0  0  0  0  0
  138.5975  157.0542  132.6714 H   0  0  0  0  0  0  0  0  0  0  0  0
  138.4079  158.4249  133.8242 H   0  0  0  0  0  0  0  0  0  0  0  0
  137.8028  158.2744  130.8826 H   0  0  0  0  0  0  0  0  0  0  0  0
  136.9583  159.1655  132.2056 H   0  0  0  0  0  0  0  0  0  0  0  0
  139.6570  159.9880  131.5160 H   0  0  0  0  0  0  0  0  0  0  0  0
  137.8035  161.3745  129.8978 H   0  0  0  0  0  0  0  0  0  0  0  0
  139.3848  160.6276  129.4875 H   0  0  0  0  0  0  0  0  0  0  0  0
  137.8923  159.6280  129.4875 H   0  0  0  0  0  0  0  0  0  0  0  0
  144.0367  157.3687  133.8548 H   0  0  0  0  0  0  0  0  0  0  0  0
  1  2  2  0
  2  3  1  0
  3  4  2  0
  3  5  1  0
  5  6  1  0
  6  7  1  0
  7  8  1  0
  7  9  2  0
  6 10  2  0
 10 11  1  0
 11 12  2  0
 12 13  1  0
 13 14  2  0
 14 15  1  0
 15 16  1  0
 16 17  2  0
 16 18  1  0
 18 19  1  0
 19 20  1  0
 20 21  1  0
 21 22  1  0
 14 23  1  0
 23 24  2  0
 24  5  1  0
 24 11  1  0
  1 25  1  0
  1 26  1  0
  2 27  1  0
  8 28  1  0
  8 29  1  0
 10 30  1  0
 12 31  1  0
 13 32  1  0
 15 33  1  0
 15 34  1  0
 19 35  1  0
 19 36  1  0
 20 37  1  0
 20 38  1  0
 21 39  1  0
 22 40  1  0
 22 41  1  0
 22 42  1  0
 23 43  1  0
M  CHG  1  18  -1
M  END
>  <UniqueID>  (60) 
60

>  <SMILES>  (60) 
C=CC(=O)n1c(C(N)=O)cc2ccc(CC(=O)[N-]CCNC)cc21

>  <Energy>  (60) 
73.10380838858107

>  <Genealogy>  (60) 
C=CC(=O)n1c(C(N)=O)cc2ccc(CC(=O)[N-]CCNC)cc21 (protonated)
C=CC(=O)n1c(C(N)=O)cc2ccc(CC(=O)[N-]CCNC)cc21 (3D coordinates assigned)
C=CC(=O)n1c(C(N)=O)cc2ccc(CC(=O)[N-]CCNC)cc21 (optimized conformer: 73.10380838858107 kcal/mol)

>  <smiles>  (60) 
C=CC(=O)n1c(C(N)=O)cc2ccc(CC(=O)NCCNC)cc21

>  <score_type>  (60) 
oracle

>  <origin>  (60) 
adg

>  <m_score__min__energy>  (60) 
-6.8399999999999999

>  <m_primary>  (60) 
energy

$$$$
60:0
     RDKit          3D

 57 59  0  0  0  0  0  0  0  0999 V2000
  143.9690  161.2310  133.7360 C   0  0  0  0  0  0  0  0  0  0  0  0
  143.0680  159.9930  133.7770 C   0  0  1  0  0  0  0  0  0  0  0  0
  143.7280  158.9920  134.5110 O   0  0  0  0  0  0  0  0  0  0  0  0
  141.6960  160.2960  134.4240 C   0  0  0  0  0  0  0  0  0  0  0  0
  141.2930  159.2630  135.4550 C   0  0  0  0  0  0  0  0  0  0  0  0
  142.1160  158.9170  136.2900 O   0  0  0  0  0  0  0  0  0  0  0  0
  139.9530  158.6890  135.4500 N   0  0  1  0  0  0  0  0  0  0  0  0
  139.3640  158.5740  134.0830 C   0  0  0  0  0  0  0  0  0  0  0  0
  139.3210  157.1320  133.5300 C   0  0  0  0  0  0  0  0  0  0  0  0
  140.5660  156.3340  133.9460 C   0  0  2  0  0  0  0  0  0  0  0  0
  140.5780  154.9500  133.3220 C   0  0  0  0  0  0  0  0  0  0  0  0
  139.5060  154.4340  132.9030 O   0  0  0  0  0  0  0  0  0  0  0  0
  141.7890  154.1790  133.2540 N   0  0  0  0  0  0  0  0  0  0  0  0
  143.0610  154.6370  133.4110 C   0  0  0  0  0  0  0  0  0  0  0  0
  143.4390  156.0240  133.7490 C   0  0  0  0  0  0  0  0  0  0  0  0
  143.6750  156.3830  135.1090 N   0  0  0  0  0  0  0  0  0  0  0  0
  143.5440  156.9000  132.8490 O   0  0  0  0  0  0  0  0  0  0  0  0
  143.9750  153.6000  133.2360 C   0  0  0  0  0  0  0  0  0  0  0  0
  143.2150  152.4860  132.9580 C   0  0  0  0  0  0  0  0  0  0  0  0
  143.6040  151.1820  132.6810 C   0  0  0  0  0  0  0  0  0  0  0  0
  142.6030  150.2410  132.3920 C   0  0  0  0  0  0  0  0  0  0  0  0
  141.2320  150.6140  132.3720 C   0  0  0  0  0  0  0  0  0  0  0  0
  140.2080  149.6400  132.0590 N   0  0  0  0  0  0  0  0  0  0  0  0
  140.5690  148.2380  131.8240 C   0  0  0  0  0  0  0  0  0  0  0  0
  138.8150  150.0590  131.8650 C   0  0  0  0  0  0  0  0  0  0  0  0
  140.8820  151.9570  132.6610 C   0  0  0  0  0  0  0  0  0  0  0  0
  141.8990  152.8650  132.9670 C   0  0  0  0  0  0  0  0  0  0  0  0
  140.6790  156.2780  135.4930 C   0  0  0  0  0  0  0  0  0  0  0  0
  139.9230  157.4200  136.2050 C   0  0  0  0  0  0  0  0  0  0  0  0
  144.2010  161.5498  134.7629 H   0  0  0  0  0  0  0  0  0  0  0  0
  144.9027  160.9876  133.2078 H   0  0  0  0  0  0  0  0  0  0  0  0
  143.4503  162.0446  133.2078 H   0  0  0  0  0  0  0  0  0  0  0  0
  142.8752  159.6632  132.7455 H   0  0  0  0  0  0  0  0  0  0  0  0
  143.1330  158.1980  134.5190 H   0  0  0  0  0  0  0  0  0  0  0  0
  141.7478  161.2797  134.9136 H   0  0  0  0  0  0  0  0  0  0  0  0
  140.9412  160.2778  133.6241 H   0  0  0  0  0  0  0  0  0  0  0  0
  139.3380  159.3540  135.9770 H   0  0  0  0  0  0  0  0  0  0  0  0
  139.9641  159.1889  133.3962 H   0  0  0  0  0  0  0  0  0  0  0  0
  138.3207  158.9140  134.1592 H   0  0  0  0  0  0  0  0  0  0  0  0
  139.2717  157.1713  132.4318 H   0  0  0  0  0  0  0  0  0  0  0  0
  138.4340  156.6294  133.9432 H   0  0  0  0  0  0  0  0  0  0  0  0
  141.4551  156.8558  133.5623 H   0  0  0  0  0  0  0  0  0  0  0  0
  143.1960  157.2060  135.5350 H   0  0  0  0  0  0  0  0  0  0  0  0
  145.0712  153.6588  133.3052 H   0  0  0  0  0  0  0  0  0  0  0  0
  144.6658  150.8947  132.6878 H   0  0  0  0  0  0  0  0  0  0  0  0
  142.8842  149.1993  132.1778 H   0  0  0  0  0  0  0  0  0  0  0  0
  140.7007  147.7266  132.7889 H   0  0  0  0  0  0  0  0  0  0  0  0
  139.7688  147.7440  131.2534 H   0  0  0  0  0  0  0  0  0  0  0  0
  141.5083  148.1919  131.2534 H   0  0  0  0  0  0  0  0  0  0  0  0
  138.3357  150.2032  132.8445 H   0  0  0  0  0  0  0  0  0  0  0  0
  138.7913  151.0040  131.3025 H   0  0  0  0  0  0  0  0  0  0  0  0
  138.2739  149.2839  131.3025 H   0  0  0  0  0  0  0  0  0  0  0  0
  139.8300  152.2781  132.6447 H   0  0  0  0  0  0  0  0  0  0  0  0
  141.7425  156.3398  135.7673 H   0  0  0  0  0  0  0  0  0  0  0  0
  140.2198  155.3327  135.8180 H   0  0  0  0  0  0  0  0  0  0  0  0
  140.3852  157.5864  137.1892 H   0  0  0  0  0  0  0  0  0  0  0  0
  138.8702  157.1137  136.2930 H   0  0  0  0  0  0  0  0  0  0  0  0
  1  2  1  0
  2  3  1  0
  2  4  1  0
  4  5  1  0
  5  6  2  0
  5  7  1  0
  7  8  1  0
  8  9  1  0
  9 10  1  0
 10 11  1  0
 11 12  2  0
 11 13  1  0
 13 14  1  0
 14 15  1  0
 15 16  1  0
 15 17  2  0
 14 18  2  0
 18 19  1  0
 19 20  2  0
 20 21  1  0
 21 22  2  0
 22 23  1  0
 23 24  1  0
 23 25  1  0
 22 26  1  0
 26 27  2  0
 10 28  1  0
 28 29  1  0
 29  7  1  0
 27 13  1  0
 27 19  1  0
  1 30  1  0
  1 31  1  0
  1 32  1  0
  2 33  1  6
  3 34  1  0
  4 35  1  0
  4 36  1  0
  7 37  1  1
  8 38  1  0
  8 39  1  0
  9 40  1  0
  9 41  1  0
 10 42  1  6
 16 43  1  0
 18 44  1  0
 20 45  1  0
 21 46  1  0
 24 47  1  0
 24 48  1  0
 24 49  1  0
 25 50  1  0
 25 51  1  0
 25 52  1  0
 26 53  1  0
 28 54  1  0
 28 55  1  0
 29 56  1  0
 29 57  1  0
M  CHG  2   7   1  16  -1
M  END
>  <UniqueID>  (61) 
61

>  <SMILES>  (61) 
C[C@@H](O)CC(=O)[NH+]1CCC(C(=O)n2c(C([NH-])=O)cc3ccc(N(C)C)cc32)CC1

>  <Energy>  (61) 
106.97027049354512

>  <Genealogy>  (61) 
C[C@@H](O)CC(=O)[NH+]1CCC(C(=O)n2c(C([NH-])=O)cc3ccc(N(C)C)cc32)CC1 (protonated)
C[C@@H](O)CC(=O)[NH+]1CCC(C(=O)n2c(C([NH-])=O)cc3ccc(N(C)C)cc32)CC1 (3D coordinates assigned)
C[C@@H](O)CC(=O)[NH+]1CCC(C(=O)n2c(C([NH-])=O)cc3ccc(N(C)C)cc32)CC1 (nonaromatic ring conformer: 106.97027049354512 kcal/mol)

>  <smiles>  (61) 
C[C@@H](O)CC(=O)N1CCC(C(=O)n2c(C(N)=O)cc3ccc(N(C)C)cc32)CC1

>  <score_type>  (61) 
oracle

>  <origin>  (61) 
adg

>  <m_score__min__energy>  (61) 
-8

>  <m_primary>  (61) 
energy

$$$$
61:0
     RDKit          3D

 46 47  0  0  0  0  0  0  0  0999 V2000
  147.3640  154.0490  133.6120 C   0  0  0  0  0  0  0  0  0  0  0  0
  147.1230  155.5250  133.5310 C   0  0  0  0  0  0  0  0  0  0  0  0
  148.1860  156.3940  133.1780 C   0  0  0  0  0  0  0  0  0  0  0  0
  147.9770  157.7800  133.0850 C   0  0  0  0  0  0  0  0  0  0  0  0
  146.6930  158.2640  133.3240 C   0  0  0  0  0  0  0  0  0  0  0  0
  146.2160  159.5560  133.3310 C   0  0  0  0  0  0  0  0  0  0  0  0
  144.8620  159.4500  133.6560 C   0  0  0  0  0  0  0  0  0  0  0  0
  143.9220  160.5910  133.7300 C   0  0  0  0  0  0  0  0  0  0  0  0
  142.5150  160.3780  133.8680 N   0  0  0  0  0  0  0  0  0  0  0  0
  144.3590  161.7700  133.6800 O   0  0  0  0  0  0  0  0  0  0  0  0
  144.5210  158.1420  133.8280 N   0  0  0  0  0  0  0  0  0  0  0  0
  143.2570  157.6140  134.2560 C   0  0  0  0  0  0  0  0  0  0  0  0
  142.8650  157.8080  135.4390 O   0  0  0  0  0  0  0  0  0  0  0  0
  142.3380  156.9790  133.2640 C   0  0  0  0  0  0  0  0  0  0  0  0
  141.9700  157.9860  132.2760 N   0  0  0  0  0  0  0  0  0  0  0  0
  140.4880  158.7680  132.7250 S   0  0  0  0  0  0  0  0  0  0  0  0
  140.2690  158.6450  134.2100 O   0  0  0  0  0  0  0  0  0  0  0  0
  140.5440  160.2220  132.3460 O   0  0  0  0  0  0  0  0  0  0  0  0
  139.1330  157.9810  131.8610 C   0  0  0  0  0  0  0  0  0  0  0  0
  137.8270  158.7770  132.0060 C   0  0  0  0  0  0  0  0  0  0  0  0
  137.8140  159.9540  131.1090 N   0  0  0  0  0  0  0  0  0  0  0  0
  138.8210  159.8070  130.0430 C   0  0  0  0  0  0  0  0  0  0  0  0
  136.4790  160.1540  130.5100 C   0  0  0  0  0  0  0  0  0  0  0  0
  145.6490  157.4310  133.6330 C   0  0  0  0  0  0  0  0  0  0  0  0
  145.8290  156.0510  133.7580 C   0  0  0  0  0  0  0  0  0  0  0  0
  147.4140  153.7430  134.6674 H   0  0  0  0  0  0  0  0  0  0  0  0
  146.5411  153.5152  133.1140 H   0  0  0  0  0  0  0  0  0  0  0  0
  148.3139  153.8047  133.1140 H   0  0  0  0  0  0  0  0  0  0  0  0
  149.1842  155.9789  132.9749 H   0  0  0  0  0  0  0  0  0  0  0  0
  148.8019  158.4620  132.8313 H   0  0  0  0  0  0  0  0  0  0  0  0
  146.7817  160.4765  133.1243 H   0  0  0  0  0  0  0  0  0  0  0  0
  141.8650  161.1950  133.9160 H   0  0  0  0  0  0  0  0  0  0  0  0
  142.1050  159.4180  133.8920 H   0  0  0  0  0  0  0  0  0  0  0  0
  142.8474  156.1395  132.7684 H   0  0  0  0  0  0  0  0  0  0  0  0
  141.4393  156.5954  133.7692 H   0  0  0  0  0  0  0  0  0  0  0  0
  139.3873  157.9049  130.7935 H   0  0  0  0  0  0  0  0  0  0  0  0
  138.9780  156.9851  132.3016 H   0  0  0  0  0  0  0  0  0  0  0  0
  136.9789  158.1238  131.7528 H   0  0  0  0  0  0  0  0  0  0  0  0
  137.7485  159.1304  133.0447 H   0  0  0  0  0  0  0  0  0  0  0  0
  139.8138  159.6621  130.4939 H   0  0  0  0  0  0  0  0  0  0  0  0
  138.5707  158.9359  129.4197 H   0  0  0  0  0  0  0  0  0  0  0  0
  138.8301  160.7133  129.4197 H   0  0  0  0  0  0  0  0  0  0  0  0
  135.7316  160.2660  131.3092 H   0  0  0  0  0  0  0  0  0  0  0  0
  136.4886  161.0607  129.8873 H   0  0  0  0  0  0  0  0  0  0  0  0
  136.2225  159.2843  129.8873 H   0  0  0  0  0  0  0  0  0  0  0  0
  144.9892  155.3926  134.0251 H   0  0  0  0  0  0  0  0  0  0  0  0
  1  2  1  0
  2  3  2  0
  3  4  1  0
  4  5  2  0
  5  6  1  0
  6  7  2  0
  7  8  1  0
  8  9  1  0
  8 10  2  0
  7 11  1  0
 11 12  1  0
 12 13  2  0
 12 14  1  0
 14 15  1  0
 15 16  1  0
 16 17  2  0
 16 18  2  0
 16 19  1  0
 19 20  1  0
 20 21  1  0
 21 22  1  0
 21 23  1  0
 11 24  1  0
 24 25  2  0
 25  2  1  0
 24  5  1  0
  1 26  1  0
  1 27  1  0
  1 28  1  0
  3 29  1  0
  4 30  1  0
  6 31  1  0
  9 32  1  0
  9 33  1  0
 14 34  1  0
 14 35  1  0
 19 36  1  0
 19 37  1  0
 20 38  1  0
 20 39  1  0
 22 40  1  0
 22 41  1  0
 22 42  1  0
 23 43  1  0
 23 44  1  0
 23 45  1  0
 25 46  1  0
M  CHG  1  15  -1
M  END
>  <UniqueID>  (62) 
62

>  <SMILES>  (62) 
Cc1ccc2cc(C(N)=O)n(C(=O)C[N-]S(=O)(=O)CCN(C)C)c2c1

>  <Energy>  (62) 
73.14219863813322

>  <Genealogy>  (62) 
Cc1ccc2cc(C(N)=O)n(C(=O)C[N-]S(=O)(=O)CCN(C)C)c2c1 (protonated)
Cc1ccc2cc(C(N)=O)n(C(=O)C[N-]S(=O)(=O)CCN(C)C)c2c1 (3D coordinates assigned)
Cc1ccc2cc(C(N)=O)n(C(=O)C[N-]S(=O)(=O)CCN(C)C)c2c1 (optimized conformer: 73.14219863813322 kcal/mol)

>  <smiles>  (62) 
Cc1ccc2cc(C(N)=O)n(C(=O)CNS(=O)(=O)CCN(C)C)c2c1

>  <score_type>  (62) 
oracle

>  <origin>  (62) 
adg

>  <m_score__min__energy>  (62) 
-7.7400000000000002

>  <m_primary>  (62) 
energy

$$$$
62:0
     RDKit          3D

 36 38  0  0  0  0  0  0  0  0999 V2000
  148.6940  157.9770  131.7700 N   0  0  0  0  0  0  0  0  0  0  0  0
  148.3270  158.6820  132.9540 C   0  0  0  0  0  0  0  0  0  0  0  0
  149.2240  159.0350  133.7630 O   0  0  0  0  0  0  0  0  0  0  0  0
  146.9040  158.9700  133.2280 C   0  0  0  0  0  0  0  0  0  0  0  0
  146.3810  160.2570  133.3440 C   0  0  0  0  0  0  0  0  0  0  0  0
  145.0310  160.0850  133.5540 C   0  0  0  0  0  0  0  0  0  0  0  0
  144.0270  161.0280  133.7590 C   0  0  0  0  0  0  0  0  0  0  0  0
  142.7210  160.5600  133.9870 C   0  0  0  0  0  0  0  0  0  0  0  0
  142.4460  159.1690  134.0160 C   0  0  0  0  0  0  0  0  0  0  0  0
  141.0500  158.6750  134.2920 C   0  0  0  0  0  0  0  0  0  0  0  0
  140.1530  158.9040  133.0990 C   0  0  0  0  0  0  0  0  0  0  0  0
  140.0030  160.2100  132.5950 C   0  0  0  0  0  0  0  0  0  0  0  0
  139.2070  160.4510  131.4720 C   0  0  0  0  0  0  0  0  0  0  0  0
  138.5570  159.3950  130.8360 C   0  0  0  0  0  0  0  0  0  0  0  0
  138.7000  158.0930  131.3200 C   0  0  0  0  0  0  0  0  0  0  0  0
  139.4960  157.8370  132.4430 C   0  0  0  0  0  0  0  0  0  0  0  0
  139.6370  156.1730  132.9990 Cl  0  0  0  0  0  0  0  0  0  0  0  0
  143.4910  158.2440  133.8020 C   0  0  0  0  0  0  0  0  0  0  0  0
  144.7770  158.7380  133.5600 C   0  0  0  0  0  0  0  0  0  0  0  0
  145.9150  158.0420  133.3570 N   0  0  0  0  0  0  0  0  0  0  0  0
  146.0510  156.6120  133.3570 C   0  0  0  0  0  0  0  0  0  0  0  0
  146.4990  156.0290  132.3340 O   0  0  0  0  0  0  0  0  0  0  0  0
  145.6670  155.8170  134.5330 C   0  0  0  0  0  0  0  0  0  0  0  0
  146.5400  155.4360  135.3570 O   0  0  0  0  0  0  0  0  0  0  0  0
  144.3340  155.4950  134.7490 O   0  0  0  0  0  0  0  0  0  0  0  0
  148.1870  157.1110  131.4810 H   0  0  0  0  0  0  0  0  0  0  0  0
  146.9301  161.2080  133.2811 H   0  0  0  0  0  0  0  0  0  0  0  0
  144.2488  162.1053  133.7430 H   0  0  0  0  0  0  0  0  0  0  0  0
  141.9043  161.2799  134.1445 H   0  0  0  0  0  0  0  0  0  0  0  0
  141.0861  157.5983  134.5143 H   0  0  0  0  0  0  0  0  0  0  0  0
  140.6433  159.2304  135.1500 H   0  0  0  0  0  0  0  0  0  0  0  0
  140.5167  161.0477  133.0893 H   0  0  0  0  0  0  0  0  0  0  0  0
  139.0933  161.4760  131.0894 H   0  0  0  0  0  0  0  0  0  0  0  0
  137.9309  159.5872  129.9522 H   0  0  0  0  0  0  0  0  0  0  0  0
  138.1838  157.2629  130.8156 H   0  0  0  0  0  0  0  0  0  0  0  0
  143.2985  157.1612  133.8250 H   0  0  0  0  0  0  0  0  0  0  0  0
  1  2  1  0
  2  3  2  0
  2  4  1  0
  4  5  2  0
  5  6  1  0
  6  7  2  0
  7  8  1  0
  8  9  2  0
  9 10  1  0
 10 11  1  0
 11 12  2  0
 12 13  1  0
 13 14  2  0
 14 15  1  0
 15 16  2  0
 16 17  1  0
  9 18  1  0
 18 19  2  0
 19 20  1  0
 20 21  1  0
 21 22  2  0
 21 23  1  0
 23 24  2  0
 23 25  1  0
 20  4  1  0
 19  6  1  0
 16 11  1  0
  1 26  1  0
  5 27  1  0
  7 28  1  0
  8 29  1  0
 10 30  1  0
 10 31  1  0
 12 32  1  0
 13 33  1  0
 14 34  1  0
 15 35  1  0
 18 36  1  0
M  CHG  2   1  -1  25  -1
M  END
>  <UniqueID>  (63) 
63

>  <SMILES>  (63) 
[NH-]C(=O)c1cc2ccc(Cc3ccccc3Cl)cc2n1C(=O)C(=O)[O-]

>  <Energy>  (63) 
77.74840413163476

>  <Genealogy>  (63) 
[NH-]C(=O)c1cc2ccc(Cc3ccccc3Cl)cc2n1C(=O)C(=O)[O-] (protonated)
[NH-]C(=O)c1cc2ccc(Cc3ccccc3Cl)cc2n1C(=O)C(=O)[O-] (3D coordinates assigned)
[NH-]C(=O)c1cc2ccc(Cc3ccccc3Cl)cc2n1C(=O)C(=O)[O-] (optimized conformer: 77.74840413163476 kcal/mol)

>  <smiles>  (63) 
NC(=O)c1cc2ccc(Cc3ccccc3Cl)cc2n1C(=O)C(=O)O

>  <score_type>  (63) 
oracle

>  <origin>  (63) 
adg

>  <m_score__min__energy>  (63) 
-8.0999999999999996

>  <m_primary>  (63) 
energy

$$$$
63:0
     RDKit          3D

 50 51  0  0  0  0  0  0  0  0999 V2000
  148.5630  153.8770  132.6220 C   0  0  0  0  0  0  0  0  0  0  0  0
  148.9110  155.2270  132.8260 O   0  0  0  0  0  0  0  0  0  0  0  0
  147.7420  155.9840  133.0610 C   0  0  0  0  0  0  0  0  0  0  0  0
  148.1220  157.3900  133.5360 C   0  0  0  0  0  0  0  0  0  0  0  0
  148.2220  158.3950  132.3780 C   0  0  0  0  0  0  0  0  0  0  0  0
  147.0210  159.1510  132.2380 O   0  0  0  0  0  0  0  0  0  0  0  0
  146.5730  160.0710  133.1910 C   0  0  0  0  0  0  0  0  0  0  0  0
  147.3780  160.8840  133.7240 O   0  0  0  0  0  0  0  0  0  0  0  0
  145.1860  160.0960  133.5560 N   0  0  0  0  0  0  0  0  0  0  0  0
  144.4240  161.1800  133.8780 C   0  0  0  0  0  0  0  0  0  0  0  0
  144.9150  162.5600  134.0720 C   0  0  0  0  0  0  0  0  0  0  0  0
  145.9850  162.8400  134.9720 N   0  0  0  0  0  0  0  0  0  0  0  0
  144.3510  163.5130  133.4710 O   0  0  0  0  0  0  0  0  0  0  0  0
  143.1030  160.7990  134.1030 C   0  0  0  0  0  0  0  0  0  0  0  0
  143.0810  159.4350  133.9230 C   0  0  0  0  0  0  0  0  0  0  0  0
  142.0240  158.5350  134.0230 C   0  0  0  0  0  0  0  0  0  0  0  0
  142.2870  157.1780  133.7670 C   0  0  0  0  0  0  0  0  0  0  0  0
  143.5900  156.7570  133.4130 C   0  0  0  0  0  0  0  0  0  0  0  0
  143.8430  155.3660  133.1430 C   0  0  0  0  0  0  0  0  0  0  0  0
  144.0530  154.2020  132.9140 C   0  0  0  0  0  0  0  0  0  0  0  0
  144.3010  152.7830  132.6340 C   0  0  0  0  0  0  0  0  0  0  0  0
  143.0390  152.0500  132.6010 N   0  0  0  0  0  0  0  0  0  0  0  0
  142.1780  151.9430  133.7400 C   0  0  0  0  0  0  0  0  0  0  0  0
  142.4840  152.5130  134.8250 O   0  0  0  0  0  0  0  0  0  0  0  0
  140.9960  151.2020  133.6370 O   0  0  0  0  0  0  0  0  0  0  0  0
  140.5960  150.5250  132.4480 C   0  0  0  0  0  0  0  0  0  0  0  0
  141.4480  149.3150  132.2270 C   0  0  0  0  0  0  0  0  0  0  0  0
  140.9890  148.1640  132.4470 O   0  0  0  0  0  0  0  0  0  0  0  0
  142.7640  149.4640  131.8090 O   0  0  0  0  0  0  0  0  0  0  0  0
  144.6390  157.6920  133.3170 C   0  0  0  0  0  0  0  0  0  0  0  0
  144.3520  159.0350  133.5960 C   0  0  0  0  0  0  0  0  0  0  0  0
  148.4350  153.3803  133.5951 H   0  0  0  0  0  0  0  0  0  0  0  0
  147.6215  153.8226  132.0558 H   0  0  0  0  0  0  0  0  0  0  0  0
  149.3609  153.3742  132.0558 H   0  0  0  0  0  0  0  0  0  0  0  0
  147.1610  156.0575  132.1298 H   0  0  0  0  0  0  0  0  0  0  0  0
  147.1382  155.4893  133.8360 H   0  0  0  0  0  0  0  0  0  0  0  0
  147.3570  157.7421  134.2437 H   0  0  0  0  0  0  0  0  0  0  0  0
  149.1126  157.3264  134.0100 H   0  0  0  0  0  0  0  0  0  0  0  0
  149.0573  159.0836  132.5733 H   0  0  0  0  0  0  0  0  0  0  0  0
  148.3874  157.8336  131.4466 H   0  0  0  0  0  0  0  0  0  0  0  0
  146.9790  162.7820  134.6610 H   0  0  0  0  0  0  0  0  0  0  0  0
  142.2571  161.4503  134.3682 H   0  0  0  0  0  0  0  0  0  0  0  0
  141.0137  158.8752  134.2941 H   0  0  0  0  0  0  0  0  0  0  0  0
  141.4751  156.4397  133.8424 H   0  0  0  0  0  0  0  0  0  0  0  0
  144.8032  152.6867  131.6601 H   0  0  0  0  0  0  0  0  0  0  0  0
  144.9390  152.3658  133.4270 H   0  0  0  0  0  0  0  0  0  0  0  0
  142.7330  151.6150  131.7010 H   0  0  0  0  0  0  0  0  0  0  0  0
  139.5446  150.2159  132.5428 H   0  0  0  0  0  0  0  0  0  0  0  0
  140.7132  151.2060  131.5921 H   0  0  0  0  0  0  0  0  0  0  0  0
  145.6536  157.3773  133.0315 H   0  0  0  0  0  0  0  0  0  0  0  0
  1  2  1  0
  2  3  1  0
  3  4  1  0
  4  5  1  0
  5  6  1  0
  6  7  1  0
  7  8  2  0
  7  9  1  0
  9 10  1  0
 10 11  1  0
 11 12  1  0
 11 13  2  0
 10 14  2  0
 14 15  1  0
 15 16  2  0
 16 17  1  0
 17 18  2  0
 18 19  1  0
 19 20  3  0
 20 21  1  0
 21 22  1  0
 22 23  1  0
 23 24  2  0
 23 25  1  0
 25 26  1  0
 26 27  1  0
 27 28  2  0
 27 29  1  0
 18 30  1  0
 30 31  2  0
 31  9  1  0
 31 15  1  0
  1 32  1  0
  1 33  1  0
  1 34  1  0
  3 35  1  0
  3 36  1  0
  4 37  1  0
  4 38  1  0
  5 39  1  0
  5 40  1  0
 12 41  1  0
 14 42  1  0
 16 43  1  0
 17 44  1  0
 21 45  1  0
 21 46  1  0
 22 47  1  0
 26 48  1  0
 26 49  1  0
 30 50  1  0
M  CHG  2  12  -1  29  -1
M  END
>  <UniqueID>  (64) 
64

>  <SMILES>  (64) 
COCCCOC(=O)n1c(C([NH-])=O)cc2ccc(C#CCNC(=O)OCC(=O)[O-])cc21

>  <Energy>  (64) 
74.20567941158684

>  <Genealogy>  (64) 
COCCCOC(=O)n1c(C([NH-])=O)cc2ccc(C#CCNC(=O)OCC(=O)[O-])cc21 (protonated)
COCCCOC(=O)n1c(C([NH-])=O)cc2ccc(C#CCNC(=O)OCC(=O)[O-])cc21 (3D coordinates assigned)
COCCCOC(=O)n1c(C([NH-])=O)cc2ccc(C#CCNC(=O)OCC(=O)[O-])cc21 (optimized conformer: 74.20567941158684 kcal/mol)

>  <smiles>  (64) 
COCCCOC(=O)n1c(C(N)=O)cc2ccc(C#CCNC(=O)OCC(=O)O)cc21

>  <score_type>  (64) 
oracle

>  <origin>  (64) 
adg

>  <m_score__min__energy>  (64) 
-7.8499999999999996

>  <m_primary>  (64) 
energy

$$$$
64:0
     RDKit          3D

 39 41  0  0  0  0  0  0  0  0999 V2000
  143.5180  155.3740  132.9460 N   0  0  0  0  0  0  0  0  0  0  0  0
  143.3780  154.2120  133.7610 C   0  0  0  0  0  0  0  0  0  0  0  0
  143.8830  154.2040  134.9150 O   0  0  0  0  0  0  0  0  0  0  0  0
  142.6800  153.0230  133.2300 C   0  0  0  0  0  0  0  0  0  0  0  0
  143.3040  151.7930  133.0280 C   0  0  0  0  0  0  0  0  0  0  0  0
  142.3060  150.9400  132.6200 C   0  0  0  0  0  0  0  0  0  0  0  0
  142.3660  149.5950  132.2730 C   0  0  0  0  0  0  0  0  0  0  0  0
  141.1790  148.9660  131.8640 C   0  0  0  0  0  0  0  0  0  0  0  0
  139.9570  149.6830  131.7970 C   0  0  0  0  0  0  0  0  0  0  0  0
  138.7250  148.9240  131.3320 C   0  0  0  0  0  0  0  0  0  0  0  0
  138.3700  149.0080  129.8530 C   0  0  0  0  0  0  0  0  0  0  0  0
  138.9510  147.7200  130.4260 C   0  0  0  0  0  0  0  0  0  0  0  0
  139.9410  151.0570  132.1570 C   0  0  0  0  0  0  0  0  0  0  0  0
  141.1350  151.6500  132.5810 C   0  0  0  0  0  0  0  0  0  0  0  0
  141.3490  152.9330  132.9500 N   0  0  0  0  0  0  0  0  0  0  0  0
  140.3690  153.9820  132.9810 C   0  0  0  0  0  0  0  0  0  0  0  0
  139.1410  153.6990  132.9160 O   0  0  0  0  0  0  0  0  0  0  0  0
  140.7820  155.3130  133.1150 O   0  0  0  0  0  0  0  0  0  0  0  0
  139.8970  156.4260  133.0070 C   0  0  0  0  0  0  0  0  0  0  0  0
  140.3500  157.5630  133.9290 C   0  0  0  0  0  0  0  0  0  0  0  0
  141.7370  158.0890  133.5450 C   0  0  0  0  0  0  0  0  0  0  0  0
  142.0710  157.7110  132.2360 O   0  0  0  0  0  0  0  0  0  0  0  0
  142.7790  155.6400  132.2590 H   0  0  0  0  0  0  0  0  0  0  0  0
  144.3691  151.5553  133.1658 H   0  0  0  0  0  0  0  0  0  0  0  0
  143.3148  149.0402  132.3175 H   0  0  0  0  0  0  0  0  0  0  0  0
  141.1971  147.9005  131.5913 H   0  0  0  0  0  0  0  0  0  0  0  0
  138.1829  149.1000  132.2728 H   0  0  0  0  0  0  0  0  0  0  0  0
  137.3156  149.0450  129.5417 H   0  0  0  0  0  0  0  0  0  0  0  0
  138.6379  149.6817  129.0257 H   0  0  0  0  0  0  0  0  0  0  0  0
  138.3159  146.8277  130.5282 H   0  0  0  0  0  0  0  0  0  0  0  0
  139.8117  147.0794  130.1836 H   0  0  0  0  0  0  0  0  0  0  0  0
  139.0107  151.6416  132.1036 H   0  0  0  0  0  0  0  0  0  0  0  0
  139.8908  156.7840  131.9669 H   0  0  0  0  0  0  0  0  0  0  0  0
  138.8870  156.1077  133.3044 H   0  0  0  0  0  0  0  0  0  0  0  0
  139.6250  158.3874  133.8602 H   0  0  0  0  0  0  0  0  0  0  0  0
  140.4055  157.1697  134.9548 H   0  0  0  0  0  0  0  0  0  0  0  0
  141.7377  159.1868  133.6141 H   0  0  0  0  0  0  0  0  0  0  0  0
  142.4788  157.6602  134.2347 H   0  0  0  0  0  0  0  0  0  0  0  0
  142.0850  156.7190  132.2210 H   0  0  0  0  0  0  0  0  0  0  0  0
  1  2  1  0
  2  3  2  0
  2  4  1  0
  4  5  2  0
  5  6  1  0
  6  7  2  0
  7  8  1  0
  8  9  2  0
  9 10  1  0
 10 11  1  0
 11 12  1  0
  9 13  1  0
 13 14  2  0
 14 15  1  0
 15 16  1  0
 16 17  2  0
 16 18  1  0
 18 19  1  0
 19 20  1  0
 20 21  1  0
 21 22  1  0
 15  4  1  0
 14  6  1  0
 12 10  1  0
  1 23  1  0
  5 24  1  0
  7 25  1  0
  8 26  1  0
 10 27  1  0
 11 28  1  0
 11 29  1  0
 12 30  1  0
 12 31  1  0
 13 32  1  0
 19 33  1  0
 19 34  1  0
 20 35  1  0
 20 36  1  0
 21 37  1  0
 21 38  1  0
 22 39  1  0
M  CHG  1   1  -1
M  END
>  <UniqueID>  (65) 
65

>  <SMILES>  (65) 
[NH-]C(=O)c1cc2ccc(C3CC3)cc2n1C(=O)OCCCO

>  <Energy>  (65) 
340.8983280748726

>  <Genealogy>  (65) 
[NH-]C(=O)c1cc2ccc(C3CC3)cc2n1C(=O)OCCCO (protonated)
[NH-]C(=O)c1cc2ccc(C3CC3)cc2n1C(=O)OCCCO (3D coordinates assigned)
[NH-]C(=O)c1cc2ccc(C3CC3)cc2n1C(=O)OCCCO (nonaromatic ring conformer: 340.8983280748726 kcal/mol)

>  <smiles>  (65) 
NC(=O)c1cc2ccc(C3CC3)cc2n1C(=O)OCCCO

>  <score_type>  (65) 
oracle

>  <origin>  (65) 
adg

>  <m_score__min__energy>  (65) 
-6.3700000000000001

>  <m_primary>  (65) 
energy

$$$$
65:0
     RDKit          3D

 40 42  0  0  0  0  0  0  0  0999 V2000
  149.5720  155.3980  132.3220 N   0  0  0  0  0  0  0  0  0  0  0  0
  148.4910  155.0030  133.1650 C   0  0  0  0  0  0  0  0  0  0  0  0
  148.5690  153.9170  133.7980 O   0  0  0  0  0  0  0  0  0  0  0  0
  147.2850  155.8520  133.2590 C   0  0  0  0  0  0  0  0  0  0  0  0
  145.9900  155.3410  133.2130 C   0  0  0  0  0  0  0  0  0  0  0  0
  145.1630  156.4290  133.3710 C   0  0  0  0  0  0  0  0  0  0  0  0
  143.7730  156.5020  133.3530 C   0  0  0  0  0  0  0  0  0  0  0  0
  143.1810  157.7680  133.4830 C   0  0  0  0  0  0  0  0  0  0  0  0
  143.9810  158.9310  133.6270 C   0  0  0  0  0  0  0  0  0  0  0  0
  143.3310  160.2840  133.7350 C   0  0  0  0  0  0  0  0  0  0  0  0
  141.8420  160.1380  133.8030 C   0  0  0  0  0  0  0  0  0  0  0  0
  141.2330  160.4690  134.8540 O   0  0  0  0  0  0  0  0  0  0  0  0
  141.1130  159.6570  132.6630 N   0  0  0  0  0  0  0  0  0  0  0  0
  139.6730  159.3740  132.7140 C   0  0  2  0  0  0  0  0  0  0  0  0
  139.4540  158.0610  133.4190 C   0  0  0  0  0  0  0  0  0  0  0  0
  139.1200  158.0370  134.6350 O   0  0  0  0  0  0  0  0  0  0  0  0
  139.6590  156.8680  132.7310 O   0  0  0  0  0  0  0  0  0  0  0  0
  139.0930  159.3670  131.2720 C   0  0  0  0  0  0  0  0  0  0  0  0
  138.7320  160.7530  130.7340 C   0  0  0  0  0  0  0  0  0  0  0  0
  137.6320  159.7570  131.0500 C   0  0  0  0  0  0  0  0  0  0  0  0
  145.3890  158.8200  133.6250 C   0  0  0  0  0  0  0  0  0  0  0  0
  145.9540  157.5430  133.5080 C   0  0  0  0  0  0  0  0  0  0  0  0
  147.2640  157.2040  133.4370 N   0  0  0  0  0  0  0  0  0  0  0  0
  148.3840  158.1060  133.4200 C   0  0  0  0  0  0  0  0  0  0  0  0
  148.7590  158.6690  134.4800 O   0  0  0  0  0  0  0  0  0  0  0  0
  149.0410  158.3900  132.2300 O   0  0  0  0  0  0  0  0  0  0  0  0
  149.5770  156.3310  131.8560 H   0  0  0  0  0  0  0  0  0  0  0  0
  145.6919  154.2907  133.0788 H   0  0  0  0  0  0  0  0  0  0  0  0
  143.1584  155.5967  133.2405 H   0  0  0  0  0  0  0  0  0  0  0  0
  142.0849  157.8596  133.4731 H   0  0  0  0  0  0  0  0  0  0  0  0
  143.6887  160.7875  134.6452 H   0  0  0  0  0  0  0  0  0  0  0  0
  143.5933  160.8802  132.8486 H   0  0  0  0  0  0  0  0  0  0  0  0
  141.6550  159.4000  131.8080 H   0  0  0  0  0  0  0  0  0  0  0  0
  139.1445  160.1556  133.2795 H   0  0  0  0  0  0  0  0  0  0  0  0
  139.6982  158.5054  130.9535 H   0  0  0  0  0  0  0  0  0  0  0  0
  138.8679  161.6412  131.3685 H   0  0  0  0  0  0  0  0  0  0  0  0
  139.0166  161.3408  129.8489 H   0  0  0  0  0  0  0  0  0  0  0  0
  136.9711  159.9244  131.9132 H   0  0  0  0  0  0  0  0  0  0  0  0
  136.7906  159.3259  130.4878 H   0  0  0  0  0  0  0  0  0  0  0  0
  146.0256  159.7128  133.7130 H   0  0  0  0  0  0  0  0  0  0  0  0
  1  2  1  0
  2  3  2  0
  2  4  1  0
  4  5  2  0
  5  6  1  0
  6  7  2  0
  7  8  1  0
  8  9  2  0
  9 10  1  0
 10 11  1  0
 11 12  2  0
 11 13  1  0
 13 14  1  0
 14 15  1  0
 15 16  2  0
 15 17  1  0
 14 18  1  0
 18 19  1  0
 19 20  1  0
  9 21  1  0
 21 22  2  0
 22 23  1  0
 23 24  1  0
 24 25  2  0
 24 26  1  0
 23  4  1  0
 22  6  1  0
 20 18  1  0
  1 27  1  0
  5 28  1  0
  7 29  1  0
  8 30  1  0
 10 31  1  0
 10 32  1  0
 13 33  1  0
 14 34  1  1
 18 35  1  0
 19 36  1  0
 19 37  1  0
 20 38  1  0
 20 39  1  0
 21 40  1  0
M  CHG  3   1  -1  17  -1  26  -1
M  END
>  <UniqueID>  (66) 
66

>  <SMILES>  (66) 
[NH-]C(=O)c1cc2ccc(CC(=O)N[C@H](C(=O)[O-])C3CC3)cc2n1C(=O)[O-]

>  <Energy>  (66) 
344.0046188340966

>  <Genealogy>  (66) 
[NH-]C(=O)c1cc2ccc(CC(=O)NC(C(=O)[O-])C3CC3)cc2n1C(=O)[O-] (protonated)
[NH-]C(=O)c1cc2ccc(CC(=O)N[C@H](C(=O)[O-])C3CC3)cc2n1C(=O)[O-] (chirality)
[NH-]C(=O)c1cc2ccc(CC(=O)N[C@H](C(=O)[O-])C3CC3)cc2n1C(=O)[O-] (3D coordinates assigned)
[NH-]C(=O)c1cc2ccc(CC(=O)N[C@H](C(=O)[O-])C3CC3)cc2n1C(=O)[O-] (nonaromatic ring conformer: 344.0046188340966 kcal/mol)

>  <smiles>  (66) 
NC(=O)c1cc2ccc(CC(=O)NC(C(=O)O)C3CC3)cc2n1C(=O)O

>  <score_type>  (66) 
oracle

>  <origin>  (66) 
adg

>  <m_score__min__energy>  (66) 
-8.1899999999999995

>  <m_primary>  (66) 
energy

$$$$
66:0
     RDKit          3D

 34 35  0  0  0  0  0  0  0  0999 V2000
  140.6230  159.1250  133.4580 C   0  0  0  0  0  0  0  0  0  0  0  0
  141.5200  159.0740  134.6920 C   0  0  0  0  0  0  0  0  0  0  0  0
  141.4700  157.8010  135.2370 F   0  0  0  0  0  0  0  0  0  0  0  0
  141.0360  159.9600  135.6410 F   0  0  0  0  0  0  0  0  0  0  0  0
  142.9430  159.4270  134.3200 C   0  0  0  0  0  0  0  0  0  0  0  0
  143.3120  160.7800  134.1010 C   0  0  0  0  0  0  0  0  0  0  0  0
  144.6240  161.1160  133.7270 C   0  0  0  0  0  0  0  0  0  0  0  0
  145.5370  160.0810  133.5510 C   0  0  0  0  0  0  0  0  0  0  0  0
  146.8710  160.1290  133.2160 C   0  0  0  0  0  0  0  0  0  0  0  0
  147.2880  158.8010  133.1810 C   0  0  0  0  0  0  0  0  0  0  0  0
  148.6520  158.3890  132.7960 C   0  0  0  0  0  0  0  0  0  0  0  0
  148.8950  157.1260  132.1750 N   0  0  0  0  0  0  0  0  0  0  0  0
  149.6110  159.1880  132.9660 O   0  0  0  0  0  0  0  0  0  0  0  0
  146.2580  157.9640  133.4950 N   0  0  0  0  0  0  0  0  0  0  0  0
  146.3120  156.5390  133.6690 C   0  0  0  0  0  0  0  0  0  0  0  0
  145.9410  156.0240  134.7600 O   0  0  0  0  0  0  0  0  0  0  0  0
  146.7720  155.7270  132.6290 O   0  0  0  0  0  0  0  0  0  0  0  0
  147.0230  154.3360  132.7910 C   0  0  0  0  0  0  0  0  0  0  0  0
  148.4900  154.1080  132.9670 C   0  0  0  0  0  0  0  0  0  0  0  0
  149.2900  154.7140  132.2750 O   0  0  0  0  0  0  0  0  0  0  0  0
  145.1920  158.7650  133.7170 C   0  0  0  0  0  0  0  0  0  0  0  0
  143.8970  158.4030  134.1140 C   0  0  0  0  0  0  0  0  0  0  0  0
  139.5705  159.1848  133.7720 H   0  0  0  0  0  0  0  0  0  0  0  0
  140.8770  160.0102  132.8564 H   0  0  0  0  0  0  0  0  0  0  0  0
  140.7751  158.2168  132.8564 H   0  0  0  0  0  0  0  0  0  0  0  0
  142.5619  161.5749  134.2255 H   0  0  0  0  0  0  0  0  0  0  0  0
  144.9201  162.1648  133.5780 H   0  0  0  0  0  0  0  0  0  0  0  0
  147.4779  161.0248  133.0182 H   0  0  0  0  0  0  0  0  0  0  0  0
  148.1070  156.5160  131.8650 H   0  0  0  0  0  0  0  0  0  0  0  0
  149.8710  156.8340  131.9450 H   0  0  0  0  0  0  0  0  0  0  0  0
  146.4864  153.9681  133.6780 H   0  0  0  0  0  0  0  0  0  0  0  0
  146.6739  153.7956  131.8988 H   0  0  0  0  0  0  0  0  0  0  0  0
  148.8480  153.3925  133.7219 H   0  0  0  0  0  0  0  0  0  0  0  0
  143.6288  157.3465  134.2620 H   0  0  0  0  0  0  0  0  0  0  0  0
  1  2  1  0
  2  3  1  0
  2  4  1  0
  2  5  1  0
  5  6  2  0
  6  7  1  0
  7  8  2  0
  8  9  1  0
  9 10  2  0
 10 11  1  0
 11 12  1  0
 11 13  2  0
 10 14  1  0
 14 15  1  0
 15 16  2  0
 15 17  1  0
 17 18  1  0
 18 19  1  0
 19 20  2  0
 14 21  1  0
 21 22  2  0
 22  5  1  0
 21  8  1  0
  1 23  1  0
  1 24  1  0
  1 25  1  0
  6 26  1  0
  7 27  1  0
  9 28  1  0
 12 29  1  0
 12 30  1  0
 18 31  1  0
 18 32  1  0
 19 33  1  0
 22 34  1  0
M  END
>  <UniqueID>  (67) 
67

>  <SMILES>  (67) 
CC(F)(F)c1ccc2cc(C(N)=O)n(C(=O)OCC=O)c2c1

>  <Energy>  (67) 
68.04720983717077

>  <Genealogy>  (67) 
CC(F)(F)c1ccc2cc(C(N)=O)n(C(=O)OCC=O)c2c1 (3D coordinates assigned)
CC(F)(F)c1ccc2cc(C(N)=O)n(C(=O)OCC=O)c2c1 (optimized conformer: 68.04720983717077 kcal/mol)

>  <smiles>  (67) 
CC(F)(F)c1ccc2cc(C(N)=O)n(C(=O)OCC=O)c2c1

>  <score_type>  (67) 
oracle

>  <origin>  (67) 
adg

>  <m_score__min__energy>  (67) 
-6.0099999999999998

>  <m_primary>  (67) 
energy

$$$$
67:0
     RDKit          3D

 39 41  0  0  0  0  0  0  0  0999 V2000
  138.8180  156.2640  133.3850 N   0  0  0  0  0  0  0  0  0  0  0  0
  139.6420  157.1450  134.1450 C   0  0  0  0  0  0  0  0  0  0  0  0
  139.1050  157.9370  134.9650 O   0  0  0  0  0  0  0  0  0  0  0  0
  141.1060  157.1770  133.9470 C   0  0  0  0  0  0  0  0  0  0  0  0
  141.9300  156.0680  134.1280 C   0  0  0  0  0  0  0  0  0  0  0  0
  143.2120  156.5300  133.9350 C   0  0  0  0  0  0  0  0  0  0  0  0
  144.4240  155.8510  133.9830 C   0  0  0  0  0  0  0  0  0  0  0  0
  145.5970  156.5750  133.7130 C   0  0  0  0  0  0  0  0  0  0  0  0
  145.5440  157.9590  133.3910 C   0  0  0  0  0  0  0  0  0  0  0  0
  146.7560  158.6910  133.1040 N   0  0  0  0  0  0  0  0  0  0  0  0
  146.8020  160.0680  132.6190 C   0  0  0  0  0  0  0  0  0  0  0  0
  148.2580  160.3480  132.4910 C   0  0  0  0  0  0  0  0  0  0  0  0
  148.9800  159.2940  132.8480 C   0  0  0  0  0  0  0  0  0  0  0  0
  148.1080  158.1620  133.2640 C   0  0  0  0  0  0  0  0  0  0  0  0
  144.2870  158.6090  133.3520 C   0  0  0  0  0  0  0  0  0  0  0  0
  143.1370  157.8660  133.6450 C   0  0  0  0  0  0  0  0  0  0  0  0
  141.8510  158.2790  133.6450 N   0  0  0  0  0  0  0  0  0  0  0  0
  141.3790  159.5940  133.3150 C   0  0  0  0  0  0  0  0  0  0  0  0
  142.1910  160.5570  133.2610 O   0  0  0  0  0  0  0  0  0  0  0  0
  139.9880  159.8110  133.0620 N   0  0  0  0  0  0  0  0  0  0  0  0
  139.4760  160.4130  131.8370 C   0  0  0  0  0  0  0  0  0  0  0  0
  138.2120  159.7300  131.4140 C   0  0  0  0  0  0  0  0  0  0  0  0
  137.7040  158.6280  132.1670 N   0  0  0  0  0  0  0  0  0  0  0  0
  137.6040  160.1150  130.3810 O   0  0  0  0  0  0  0  0  0  0  0  0
  137.7840  156.4020  133.3390 H   0  0  0  0  0  0  0  0  0  0  0  0
  141.6213  155.0410  134.3732 H   0  0  0  0  0  0  0  0  0  0  0  0
  144.4633  154.7787  134.2252 H   0  0  0  0  0  0  0  0  0  0  0  0
  146.5704  156.0641  133.7512 H   0  0  0  0  0  0  0  0  0  0  0  0
  146.2981  160.1581  131.6454 H   0  0  0  0  0  0  0  0  0  0  0  0
  146.2894  160.7736  133.2893 H   0  0  0  0  0  0  0  0  0  0  0  0
  148.6800  161.3034  132.1457 H   0  0  0  0  0  0  0  0  0  0  0  0
  150.0795  159.2610  132.8379 H   0  0  0  0  0  0  0  0  0  0  0  0
  148.2660  157.2866  132.6170 H   0  0  0  0  0  0  0  0  0  0  0  0
  148.3136  157.8192  134.2888 H   0  0  0  0  0  0  0  0  0  0  0  0
  144.2152  159.6765  133.0966 H   0  0  0  0  0  0  0  0  0  0  0  0
  139.2711  161.4791  132.0142 H   0  0  0  0  0  0  0  0  0  0  0  0
  140.2274  160.3021  131.0414 H   0  0  0  0  0  0  0  0  0  0  0  0
  138.2030  158.2910  133.0200 H   0  0  0  0  0  0  0  0  0  0  0  0
  136.8280  158.1450  131.8670 H   0  0  0  0  0  0  0  0  0  0  0  0
  1  2  1  0
  2  3  2  0
  2  4  1  0
  4  5  2  0
  5  6  1  0
  6  7  2  0
  7  8  1  0
  8  9  2  0
  9 10  1  0
 10 11  1  0
 11 12  1  0
 12 13  2  0
 13 14  1  0
  9 15  1  0
 15 16  2  0
 16 17  1  0
 17 18  1  0
 18 19  2  0
 18 20  1  0
 20 21  1  0
 21 22  1  0
 22 23  1  0
 22 24  2  0
 17  4  1  0
 16  6  1  0
 14 10  1  0
  1 25  1  0
  5 26  1  0
  7 27  1  0
  8 28  1  0
 11 29  1  0
 11 30  1  0
 12 31  1  0
 13 32  1  0
 14 33  1  0
 14 34  1  0
 15 35  1  0
 21 36  1  0
 21 37  1  0
 23 38  1  0
 23 39  1  0
M  CHG  2   1  -1  20  -1
M  END
>  <UniqueID>  (68) 
68

>  <SMILES>  (68) 
[NH-]C(=O)c1cc2ccc(N3CC=CC3)cc2n1C(=O)[N-]CC(N)=O

>  <Energy>  (68) 
82.73796987151097

>  <Genealogy>  (68) 
[NH-]C(=O)c1cc2ccc(N3CC=CC3)cc2n1C(=O)[N-]CC(N)=O (protonated)
[NH-]C(=O)c1cc2ccc(N3CC=CC3)cc2n1C(=O)[N-]CC(N)=O (3D coordinates assigned)
[NH-]C(=O)c1cc2ccc(N3CC=CC3)cc2n1C(=O)[N-]CC(N)=O (nonaromatic ring conformer: 82.73796987151097 kcal/mol)

>  <smiles>  (68) 
NC(=O)CNC(=O)n1c(C(N)=O)cc2ccc(N3CC=CC3)cc21

>  <score_type>  (68) 
oracle

>  <origin>  (68) 
adg

>  <m_score__min__energy>  (68) 
-7.7199999999999998

>  <m_primary>  (68) 
energy

$$$$
68:0
     RDKit          3D

 37 38  0  0  0  0  0  0  0  0999 V2000
  149.9990  153.7410  138.9760 C   0  0  0  0  0  0  0  0  0  0  0  0
  148.8330  152.9250  138.4320 C   0  0  0  0  0  0  0  0  0  0  0  0
  148.0970  153.6970  137.3830 C   0  0  0  0  0  0  0  0  0  0  0  0
  148.4980  154.8450  137.0500 O   0  0  0  0  0  0  0  0  0  0  0  0
  146.9640  153.1080  136.7340 N   0  0  0  0  0  0  0  0  0  0  0  0
  145.6610  153.7550  136.6410 C   0  0  0  0  0  0  0  0  0  0  0  0
  145.2800  153.9810  135.1760 C   0  0  0  0  0  0  0  0  0  0  0  0
  146.3220  154.8150  134.4810 C   0  0  0  0  0  0  0  0  0  0  0  0
  147.5280  154.2170  134.0370 C   0  0  0  0  0  0  0  0  0  0  0  0
  148.4880  154.9730  133.3440 C   0  0  0  0  0  0  0  0  0  0  0  0
  148.2160  156.3180  133.1110 C   0  0  0  0  0  0  0  0  0  0  0  0
  148.9510  157.2630  132.4340 C   0  0  0  0  0  0  0  0  0  0  0  0
  148.1920  158.4270  132.4890 C   0  0  0  0  0  0  0  0  0  0  0  0
  148.6450  159.7170  131.9330 C   0  0  0  0  0  0  0  0  0  0  0  0
  147.7840  160.8560  131.9090 N   0  0  0  0  0  0  0  0  0  0  0  0
  149.8320  159.8330  131.5260 O   0  0  0  0  0  0  0  0  0  0  0  0
  147.0250  158.2130  133.1600 N   0  0  0  0  0  0  0  0  0  0  0  0
  145.9310  159.1320  133.3180 C   0  0  0  0  0  0  0  0  0  0  0  0
  144.8200  158.9020  132.7720 O   0  0  0  0  0  0  0  0  0  0  0  0
  146.0890  160.2900  134.0700 O   0  0  0  0  0  0  0  0  0  0  0  0
  147.0560  156.9150  133.5390 C   0  0  0  0  0  0  0  0  0  0  0  0
  146.0740  156.1790  134.2130 C   0  0  0  0  0  0  0  0  0  0  0  0
  149.9762  153.7251  140.0756 H   0  0  0  0  0  0  0  0  0  0  0  0
  150.9463  153.3077  138.6225 H   0  0  0  0  0  0  0  0  0  0  0  0
  149.9163  154.7794  138.6225 H   0  0  0  0  0  0  0  0  0  0  0  0
  149.2175  151.9929  137.9924 H   0  0  0  0  0  0  0  0  0  0  0  0
  148.1419  152.6984  139.2573 H   0  0  0  0  0  0  0  0  0  0  0  0
  144.9039  153.1151  137.1177 H   0  0  0  0  0  0  0  0  0  0  0  0
  145.7091  154.7284  137.1511 H   0  0  0  0  0  0  0  0  0  0  0  0
  145.1985  153.0081  134.6693 H   0  0  0  0  0  0  0  0  0  0  0  0
  144.3172  154.5115  135.1375 H   0  0  0  0  0  0  0  0  0  0  0  0
  147.7138  153.1514  134.2369 H   0  0  0  0  0  0  0  0  0  0  0  0
  149.4261  154.5160  132.9961 H   0  0  0  0  0  0  0  0  0  0  0  0
  149.9303  157.1271  131.9519 H   0  0  0  0  0  0  0  0  0  0  0  0
  146.8550  160.8390  132.3860 H   0  0  0  0  0  0  0  0  0  0  0  0
  148.1090  161.7510  131.4810 H   0  0  0  0  0  0  0  0  0  0  0  0
  145.1317  156.6521  134.5263 H   0  0  0  0  0  0  0  0  0  0  0  0
  1  2  1  0
  2  3  1  0
  3  4  2  0
  3  5  1  0
  5  6  1  0
  6  7  1  0
  7  8  1  0
  8  9  2  0
  9 10  1  0
 10 11  2  0
 11 12  1  0
 12 13  2  0
 13 14  1  0
 14 15  1  0
 14 16  2  0
 13 17  1  0
 17 18  1  0
 18 19  2  0
 18 20  1  0
 17 21  1  0
 21 22  2  0
 22  8  1  0
 21 11  1  0
  1 23  1  0
  1 24  1  0
  1 25  1  0
  2 26  1  0
  2 27  1  0
  6 28  1  0
  6 29  1  0
  7 30  1  0
  7 31  1  0
  9 32  1  0
 10 33  1  0
 12 34  1  0
 15 35  1  0
 15 36  1  0
 22 37  1  0
M  CHG  2   5  -1  20  -1
M  END
>  <UniqueID>  (69) 
69

>  <SMILES>  (69) 
CCC(=O)[N-]CCc1ccc2cc(C(N)=O)n(C(=O)[O-])c2c1

>  <Energy>  (69) 
68.25379843774896

>  <Genealogy>  (69) 
CCC(=O)[N-]CCc1ccc2cc(C(N)=O)n(C(=O)[O-])c2c1 (protonated)
CCC(=O)[N-]CCc1ccc2cc(C(N)=O)n(C(=O)[O-])c2c1 (3D coordinates assigned)
CCC(=O)[N-]CCc1ccc2cc(C(N)=O)n(C(=O)[O-])c2c1 (optimized conformer: 68.25379843774896 kcal/mol)

>  <smiles>  (69) 
CCC(=O)NCCc1ccc2cc(C(N)=O)n(C(=O)O)c2c1

>  <score_type>  (69) 
oracle

>  <origin>  (69) 
adg

>  <m_score__min__energy>  (69) 
-6.9699999999999998

>  <m_primary>  (69) 
energy

$$$$
69:0
     RDKit          3D

 43 45  0  0  0  0  0  0  0  0999 V2000
  139.1230  146.6560  129.7050 C   0  0  0  0  0  0  0  0  0  0  0  0
  139.2980  147.8060  130.5820 N   0  0  0  0  0  0  0  0  0  0  0  0
  140.4600  148.4320  130.8440 C   0  0  0  0  0  0  0  0  0  0  0  0
  140.1930  149.5270  131.6560 C   0  0  0  0  0  0  0  0  0  0  0  0
  141.1630  150.5120  132.1990 C   0  0  0  0  0  0  0  0  0  0  0  0
  142.5260  150.1530  132.3860 C   0  0  0  0  0  0  0  0  0  0  0  0
  143.4540  151.0790  132.8900 C   0  0  0  0  0  0  0  0  0  0  0  0
  142.9970  152.3520  133.2090 C   0  0  0  0  0  0  0  0  0  0  0  0
  143.6820  153.4430  133.6950 C   0  0  0  0  0  0  0  0  0  0  0  0
  142.7300  154.4510  133.8230 C   0  0  0  0  0  0  0  0  0  0  0  0
  143.0220  155.7800  134.4000 C   0  0  0  0  0  0  0  0  0  0  0  0
  142.3000  156.2290  135.5450 N   0  0  0  0  0  0  0  0  0  0  0  0
  143.8760  156.5400  133.8720 O   0  0  0  0  0  0  0  0  0  0  0  0
  141.5050  154.0030  133.4240 N   0  0  0  0  0  0  0  0  0  0  0  0
  140.2770  154.7430  133.3530 C   0  0  0  0  0  0  0  0  0  0  0  0
  139.2180  154.1700  132.9760 O   0  0  0  0  0  0  0  0  0  0  0  0
  140.2570  156.0910  133.7270 O   0  0  0  0  0  0  0  0  0  0  0  0
  139.2550  157.0130  133.2980 C   0  0  0  0  0  0  0  0  0  0  0  0
  139.0910  158.1600  134.3000 C   0  0  0  0  0  0  0  0  0  0  0  0
  140.4440  158.7000  134.7750 C   0  0  0  0  0  0  0  0  0  0  0  0
  141.4530  158.3370  133.8730 O   0  0  0  0  0  0  0  0  0  0  0  0
  141.6860  152.7160  133.0550 C   0  0  0  0  0  0  0  0  0  0  0  0
  140.7430  151.8210  132.5370 C   0  0  0  0  0  0  0  0  0  0  0  0
  138.8150  149.5070  131.8360 C   0  0  0  0  0  0  0  0  0  0  0  0
  138.3060  148.4570  131.1650 N   0  0  0  0  0  0  0  0  0  0  0  0
  138.9850  145.7493  130.3124 H   0  0  0  0  0  0  0  0  0  0  0  0
  138.2380  146.8103  129.0702 H   0  0  0  0  0  0  0  0  0  0  0  0
  140.0138  146.5401  129.0702 H   0  0  0  0  0  0  0  0  0  0  0  0
  141.4518  148.1285  130.4777 H   0  0  0  0  0  0  0  0  0  0  0  0
  142.8584  149.1356  132.1323 H   0  0  0  0  0  0  0  0  0  0  0  0
  144.5103  150.8049  133.0280 H   0  0  0  0  0  0  0  0  0  0  0  0
  144.7544  153.5051  133.9320 H   0  0  0  0  0  0  0  0  0  0  0  0
  141.4230  156.7870  135.4420 H   0  0  0  0  0  0  0  0  0  0  0  0
  139.5444  157.4285  132.3215 H   0  0  0  0  0  0  0  0  0  0  0  0
  138.2976  156.4766  133.2234 H   0  0  0  0  0  0  0  0  0  0  0  0
  138.5314  158.9756  133.8187 H   0  0  0  0  0  0  0  0  0  0  0  0
  138.5511  157.7729  135.1767 H   0  0  0  0  0  0  0  0  0  0  0  0
  140.3942  159.7968  134.8425 H   0  0  0  0  0  0  0  0  0  0  0  0
  140.6744  158.2733  135.7624 H   0  0  0  0  0  0  0  0  0  0  0  0
  141.8440  157.4890  134.2110 H   0  0  0  0  0  0  0  0  0  0  0  0
  139.6964  152.1285  132.3953 H   0  0  0  0  0  0  0  0  0  0  0  0
  138.2358  150.2301  132.4291 H   0  0  0  0  0  0  0  0  0  0  0  0
  137.2970  148.1980  131.0990 H   0  0  0  0  0  0  0  0  0  0  0  0
  1  2  1  0
  2  3  1  0
  3  4  2  0
  4  5  1  0
  5  6  2  0
  6  7  1  0
  7  8  2  0
  8  9  1  0
  9 10  2  0
 10 11  1  0
 11 12  1  0
 11 13  2  0
 10 14  1  0
 14 15  1  0
 15 16  2  0
 15 17  1  0
 17 18  1  0
 18 19  1  0
 19 20  1  0
 20 21  1  0
 14 22  1  0
 22 23  2  0
  4 24  1  0
 24 25  2  0
 25  2  1  0
 23  5  1  0
 22  8  1  0
  1 26  1  0
  1 27  1  0
  1 28  1  0
  3 29  1  0
  6 30  1  0
  7 31  1  0
  9 32  1  0
 12 33  1  0
 18 34  1  0
 18 35  1  0
 19 36  1  0
 19 37  1  0
 20 38  1  0
 20 39  1  0
 21 40  1  0
 23 41  1  0
 24 42  1  0
 25 43  1  0
M  CHG  2  12  -1  25   1
M  END
>  <UniqueID>  (70) 
70

>  <SMILES>  (70) 
Cn1cc(-c2ccc3cc(C([NH-])=O)n(C(=O)OCCCO)c3c2)c[nH+]1

>  <Energy>  (70) 
109.5547570585849

>  <Genealogy>  (70) 
Cn1cc(-c2ccc3cc(C([NH-])=O)n(C(=O)OCCCO)c3c2)c[nH+]1 (protonated)
Cn1cc(-c2ccc3cc(C([NH-])=O)n(C(=O)OCCCO)c3c2)c[nH+]1 (3D coordinates assigned)
Cn1cc(-c2ccc3cc(C([NH-])=O)n(C(=O)OCCCO)c3c2)c[nH+]1 (optimized conformer: 109.5547570585849 kcal/mol)

>  <smiles>  (70) 
Cn1cc(-c2ccc3cc(C(N)=O)n(C(=O)OCCCO)c3c2)cn1

>  <score_type>  (70) 
oracle

>  <origin>  (70) 
adg

>  <m_score__min__energy>  (70) 
-6.96

>  <m_primary>  (70) 
energy

$$$$
70:0
     RDKit          3D

 53 54  0  0  0  0  0  0  0  0999 V2000
  140.3190  159.4700  132.9360 C   0  0  0  0  0  0  0  0  0  0  0  0
  140.9970  159.1930  134.2110 N   0  0  0  0  0  0  0  0  0  0  0  0
  140.2890  158.4620  135.2650 C   0  0  0  0  0  0  0  0  0  0  0  0
  142.3430  159.6560  134.4660 C   0  0  0  0  0  0  0  0  0  0  0  0
  142.8510  159.4880  135.6090 O   0  0  0  0  0  0  0  0  0  0  0  0
  143.1600  160.3850  133.4220 C   0  0  0  0  0  0  0  0  0  0  0  0
  144.5460  160.7900  133.9470 C   0  0  0  0  0  0  0  0  0  0  0  0
  145.5960  159.7610  133.6050 C   0  0  0  0  0  0  0  0  0  0  0  0
  146.8330  160.1620  133.0430 C   0  0  0  0  0  0  0  0  0  0  0  0
  147.8080  159.2090  132.7050 C   0  0  0  0  0  0  0  0  0  0  0  0
  147.5240  157.8690  132.9520 C   0  0  0  0  0  0  0  0  0  0  0  0
  148.2610  156.7380  132.6750 C   0  0  0  0  0  0  0  0  0  0  0  0
  147.4740  155.6720  133.1040 C   0  0  0  0  0  0  0  0  0  0  0  0
  147.8980  154.2590  133.0220 C   0  0  0  0  0  0  0  0  0  0  0  0
  147.4480  153.2870  133.9660 N   0  0  0  0  0  0  0  0  0  0  0  0
  148.7020  153.9080  132.1160 O   0  0  0  0  0  0  0  0  0  0  0  0
  146.2910  156.1250  133.6060 N   0  0  0  0  0  0  0  0  0  0  0  0
  145.1790  155.3590  134.0930 C   0  0  0  0  0  0  0  0  0  0  0  0
  145.2530  154.8320  135.2380 O   0  0  0  0  0  0  0  0  0  0  0  0
  143.9780  155.2030  133.3100 N   0  0  0  0  0  0  0  0  0  0  0  0
  143.1050  156.3690  133.1220 C   0  0  0  0  0  0  0  0  0  0  0  0
  143.6590  153.9280  132.6450 C   0  0  0  0  0  0  0  0  0  0  0  0
  144.8570  153.3840  131.8530 C   0  0  0  0  0  0  0  0  0  0  0  0
  145.2480  151.9690  132.2910 C   0  0  0  0  0  0  0  0  0  0  0  0
  146.6160  151.7600  132.0620 O   0  0  0  0  0  0  0  0  0  0  0  0
  146.3430  157.4700  133.5160 C   0  0  0  0  0  0  0  0  0  0  0  0
  145.3470  158.3930  133.8500 C   0  0  0  0  0  0  0  0  0  0  0  0
  139.3175  159.8792  133.1346 H   0  0  0  0  0  0  0  0  0  0  0  0
  140.9059  160.2004  132.3598 H   0  0  0  0  0  0  0  0  0  0  0  0
  140.2265  158.5376  132.3598 H   0  0  0  0  0  0  0  0  0  0  0  0
  140.6309  158.8150  136.2491 H   0  0  0  0  0  0  0  0  0  0  0  0
  139.2071  158.6360  135.1686 H   0  0  0  0  0  0  0  0  0  0  0  0
  140.4974  157.3862  135.1686 H   0  0  0  0  0  0  0  0  0  0  0  0
  143.2900  159.7263  132.5507 H   0  0  0  0  0  0  0  0  0  0  0  0
  142.6196  161.3044  133.1523 H   0  0  0  0  0  0  0  0  0  0  0  0
  144.8303  161.7525  133.4967 H   0  0  0  0  0  0  0  0  0  0  0  0
  144.4877  160.8688  135.0426 H   0  0  0  0  0  0  0  0  0  0  0  0
  147.0319  161.2299  132.8696 H   0  0  0  0  0  0  0  0  0  0  0  0
  148.7666  159.5124  132.2588 H   0  0  0  0  0  0  0  0  0  0  0  0
  149.2582  156.6878  132.2135 H   0  0  0  0  0  0  0  0  0  0  0  0
  147.7320  152.2880  133.8620 H   0  0  0  0  0  0  0  0  0  0  0  0
  146.9430  153.5660  134.8340 H   0  0  0  0  0  0  0  0  0  0  0  0
  142.8075  156.7664  134.1036 H   0  0  0  0  0  0  0  0  0  0  0  0
  143.6458  157.1453  132.5608 H   0  0  0  0  0  0  0  0  0  0  0  0
  142.2079  156.0687  132.5608 H   0  0  0  0  0  0  0  0  0  0  0  0
  143.3719  153.1900  133.4085 H   0  0  0  0  0  0  0  0  0  0  0  0
  142.8345  154.1068  131.9391 H   0  0  0  0  0  0  0  0  0  0  0  0
  144.5955  153.3643  130.7847 H   0  0  0  0  0  0  0  0  0  0  0  0
  145.7153  154.0450  132.0438 H   0  0  0  0  0  0  0  0  0  0  0  0
  145.0347  151.8469  133.3632 H   0  0  0  0  0  0  0  0  0  0  0  0
  144.6674  151.2366  131.7110 H   0  0  0  0  0  0  0  0  0  0  0  0
  146.9880  152.6220  131.7400 H   0  0  0  0  0  0  0  0  0  0  0  0
  144.3954  158.0622  134.2916 H   0  0  0  0  0  0  0  0  0  0  0  0
  1  2  1  0
  2  3  1  0
  2  4  1  0
  4  5  2  0
  4  6  1  0
  6  7  1  0
  7  8  1  0
  8  9  2  0
  9 10  1  0
 10 11  2  0
 11 12  1  0
 12 13  2  0
 13 14  1  0
 14 15  1  0
 14 16  2  0
 13 17  1  0
 17 18  1  0
 18 19  2  0
 18 20  1  0
 20 21  1  0
 20 22  1  0
 22 23  1  0
 23 24  1  0
 24 25  1  0
 17 26  1  0
 26 27  2  0
 27  8  1  0
 26 11  1  0
  1 28  1  0
  1 29  1  0
  1 30  1  0
  3 31  1  0
  3 32  1  0
  3 33  1  0
  6 34  1  0
  6 35  1  0
  7 36  1  0
  7 37  1  0
  9 38  1  0
 10 39  1  0
 12 40  1  0
 15 41  1  0
 15 42  1  0
 21 43  1  0
 21 44  1  0
 21 45  1  0
 22 46  1  0
 22 47  1  0
 23 48  1  0
 23 49  1  0
 24 50  1  0
 24 51  1  0
 25 52  1  0
 27 53  1  0
M  END
>  <UniqueID>  (71) 
71

>  <SMILES>  (71) 
CN(C)C(=O)CCc1ccc2cc(C(N)=O)n(C(=O)N(C)CCCO)c2c1

>  <Energy>  (71) 
80.93978714605836

>  <Genealogy>  (71) 
CN(C)C(=O)CCc1ccc2cc(C(N)=O)n(C(=O)N(C)CCCO)c2c1 (3D coordinates assigned)
CN(C)C(=O)CCc1ccc2cc(C(N)=O)n(C(=O)N(C)CCCO)c2c1 (optimized conformer: 80.93978714605836 kcal/mol)

>  <smiles>  (71) 
CN(C)C(=O)CCc1ccc2cc(C(N)=O)n(C(=O)N(C)CCCO)c2c1

>  <score_type>  (71) 
oracle

>  <origin>  (71) 
adg

>  <m_score__min__energy>  (71) 
-7.71

>  <m_primary>  (71) 
energy

$$$$
71:0
     RDKit          3D

 38 40  0  0  0  0  0  0  0  0999 V2000
  147.8670  152.9200  133.8310 N   0  0  0  0  0  0  0  0  0  0  0  0
  148.4610  154.0360  133.1650 C   0  0  0  0  0  0  0  0  0  0  0  0
  149.5480  153.8730  132.5510 O   0  0  0  0  0  0  0  0  0  0  0  0
  147.8040  155.3630  133.1730 C   0  0  0  0  0  0  0  0  0  0  0  0
  148.4410  156.5570  132.8380 C   0  0  0  0  0  0  0  0  0  0  0  0
  147.5040  157.5420  133.0430 C   0  0  0  0  0  0  0  0  0  0  0  0
  147.5990  158.9190  132.8650 C   0  0  0  0  0  0  0  0  0  0  0  0
  146.4610  159.6990  133.1330 C   0  0  0  0  0  0  0  0  0  0  0  0
  145.2470  159.0920  133.5470 C   0  0  0  0  0  0  0  0  0  0  0  0
  144.0450  159.9420  133.8690 C   0  0  0  0  0  0  0  0  0  0  0  0
  144.3940  161.2780  133.7790 F   0  0  0  0  0  0  0  0  0  0  0  0
  143.0130  159.6850  132.9830 F   0  0  0  0  0  0  0  0  0  0  0  0
  143.5900  159.6810  135.1500 F   0  0  0  0  0  0  0  0  0  0  0  0
  145.2000  157.6920  133.7390 C   0  0  0  0  0  0  0  0  0  0  0  0
  146.3530  156.9420  133.4850 C   0  0  0  0  0  0  0  0  0  0  0  0
  146.5240  155.6040  133.5760 N   0  0  0  0  0  0  0  0  0  0  0  0
  145.5370  154.6290  133.9520 C   0  0  0  0  0  0  0  0  0  0  0  0
  145.3310  153.6320  133.2070 O   0  0  0  0  0  0  0  0  0  0  0  0
  144.7970  154.7410  135.2560 C   0  0  0  0  0  0  0  0  0  0  0  0
  145.3070  153.7910  136.3130 C   0  0  0  0  0  0  0  0  0  0  0  0
  144.5370  153.3570  137.2120 O   0  0  0  0  0  0  0  0  0  0  0  0
  146.6740  153.3680  136.3170 N   0  0  0  0  0  0  0  0  0  0  0  0
  147.4720  153.2530  137.5310 C   0  0  0  0  0  0  0  0  0  0  0  0
  148.7230  154.1110  137.5220 C   0  0  0  0  0  0  0  0  0  0  0  0
  148.8240  152.6100  137.2900 C   0  0  0  0  0  0  0  0  0  0  0  0
  148.3230  151.9820  133.7860 H   0  0  0  0  0  0  0  0  0  0  0  0
  147.0000  153.0230  134.4030 H   0  0  0  0  0  0  0  0  0  0  0  0
  149.4748  156.6841  132.4844 H   0  0  0  0  0  0  0  0  0  0  0  0
  148.5366  159.3829  132.5248 H   0  0  0  0  0  0  0  0  0  0  0  0
  146.5119  160.7921  133.0206 H   0  0  0  0  0  0  0  0  0  0  0  0
  144.2760  157.2029  134.0810 H   0  0  0  0  0  0  0  0  0  0  0  0
  144.9024  155.7699  135.6305 H   0  0  0  0  0  0  0  0  0  0  0  0
  143.7471  154.4782  135.0596 H   0  0  0  0  0  0  0  0  0  0  0  0
  146.6439  153.0968  138.2381 H   0  0  0  0  0  0  0  0  0  0  0  0
  148.9053  154.8097  136.6922 H   0  0  0  0  0  0  0  0  0  0  0  0
  149.1836  154.8234  138.2222 H   0  0  0  0  0  0  0  0  0  0  0  0
  149.0795  152.2233  136.2924 H   0  0  0  0  0  0  0  0  0  0  0  0
  149.3882  151.7870  137.7530 H   0  0  0  0  0  0  0  0  0  0  0  0
  1  2  1  0
  2  3  2  0
  2  4  1  0
  4  5  2  0
  5  6  1  0
  6  7  2  0
  7  8  1  0
  8  9  2  0
  9 10  1  0
 10 11  1  0
 10 12  1  0
 10 13  1  0
  9 14  1  0
 14 15  2  0
 15 16  1  0
 16 17  1  0
 17 18  2  0
 17 19  1  0
 19 20  1  0
 20 21  2  0
 20 22  1  0
 22 23  1  0
 23 24  1  0
 24 25  1  0
 16  4  1  0
 25 23  1  0
 15  6  1  0
  1 26  1  0
  1 27  1  0
  5 28  1  0
  7 29  1  0
  8 30  1  0
 14 31  1  0
 19 32  1  0
 19 33  1  0
 23 34  1  0
 24 35  1  0
 24 36  1  0
 25 37  1  0
 25 38  1  0
M  CHG  1  22  -1
M  END
>  <UniqueID>  (72) 
72

>  <SMILES>  (72) 
NC(=O)c1cc2ccc(C(F)(F)F)cc2n1C(=O)CC(=O)[N-]C1CC1

>  <Energy>  (72) 
341.7397038842736

>  <Genealogy>  (72) 
NC(=O)c1cc2ccc(C(F)(F)F)cc2n1C(=O)CC(=O)[N-]C1CC1 (protonated)
NC(=O)c1cc2ccc(C(F)(F)F)cc2n1C(=O)CC(=O)[N-]C1CC1 (3D coordinates assigned)
NC(=O)c1cc2ccc(C(F)(F)F)cc2n1C(=O)CC(=O)[N-]C1CC1 (nonaromatic ring conformer: 341.7397038842736 kcal/mol)

>  <smiles>  (72) 
NC(=O)c1cc2ccc(C(F)(F)F)cc2n1C(=O)CC(=O)NC1CC1

>  <score_type>  (72) 
oracle

>  <origin>  (72) 
adg

>  <m_score__min__energy>  (72) 
-7

>  <m_primary>  (72) 
energy

$$$$
72:0
     RDKit          3D

 42 44  0  0  0  0  0  0  0  0999 V2000
  149.5830  157.7470  131.9100 N   0  0  0  0  0  0  0  0  0  0  0  0
  149.0760  159.0480  132.1960 C   0  0  0  0  0  0  0  0  0  0  0  0
  149.8170  160.0510  132.0210 O   0  0  0  0  0  0  0  0  0  0  0  0
  147.7050  159.2050  132.7250 C   0  0  0  0  0  0  0  0  0  0  0  0
  147.1030  160.4390  132.9640 C   0  0  0  0  0  0  0  0  0  0  0  0
  145.8170  160.1470  133.3570 C   0  0  0  0  0  0  0  0  0  0  0  0
  144.7790  160.9930  133.7360 C   0  0  0  0  0  0  0  0  0  0  0  0
  143.5620  160.4090  134.1250 C   0  0  0  0  0  0  0  0  0  0  0  0
  143.4000  158.9990  134.1280 C   0  0  0  0  0  0  0  0  0  0  0  0
  142.1570  158.4090  134.5560 N   0  0  0  0  0  0  0  0  0  0  0  0
  140.9370  158.5990  133.7590 C   0  0  0  0  0  0  0  0  0  0  0  0
  139.6930  158.2680  134.5890 C   0  0  0  0  0  0  0  0  0  0  0  0
  139.8710  158.7780  135.9520 N   0  0  0  0  0  0  0  0  0  0  0  0
  140.9320  158.0530  136.6800 C   0  0  0  0  0  0  0  0  0  0  0  0
  142.0870  157.5870  135.7700 C   0  0  0  0  0  0  0  0  0  0  0  0
  144.4810  158.1740  133.7410 C   0  0  0  0  0  0  0  0  0  0  0  0
  145.6750  158.7850  133.3480 C   0  0  0  0  0  0  0  0  0  0  0  0
  146.8280  158.1920  132.9720 N   0  0  0  0  0  0  0  0  0  0  0  0
  147.0640  156.7770  132.9060 C   0  0  0  0  0  0  0  0  0  0  0  0
  146.9810  156.1820  131.7980 O   0  0  0  0  0  0  0  0  0  0  0  0
  147.3310  155.9840  134.1490 C   0  0  0  0  0  0  0  0  0  0  0  0
  146.8490  154.2380  133.8930 S   0  0  0  0  0  0  0  0  0  0  0  0
  148.3240  153.7340  132.9420 C   0  0  0  0  0  0  0  0  0  0  0  0
  149.2210  154.7820  132.8630 F   0  0  0  0  0  0  0  0  0  0  0  0
  148.9310  152.6400  133.5280 F   0  0  0  0  0  0  0  0  0  0  0  0
  148.9710  157.0120  131.4900 H   0  0  0  0  0  0  0  0  0  0  0  0
  147.5589  161.4347  132.8605 H   0  0  0  0  0  0  0  0  0  0  0  0
  144.9076  162.0854  133.7311 H   0  0  0  0  0  0  0  0  0  0  0  0
  142.7241  161.0526  134.4311 H   0  0  0  0  0  0  0  0  0  0  0  0
  140.8817  159.6462  133.4269 H   0  0  0  0  0  0  0  0  0  0  0  0
  140.9728  157.9253  132.8902 H   0  0  0  0  0  0  0  0  0  0  0  0
  138.8103  158.7396  134.1324 H   0  0  0  0  0  0  0  0  0  0  0  0
  139.5490  157.1779  134.6190 H   0  0  0  0  0  0  0  0  0  0  0  0
  138.9710  158.6480  136.4700 H   0  0  0  0  0  0  0  0  0  0  0  0
  141.3432  158.7193  137.4526 H   0  0  0  0  0  0  0  0  0  0  0  0
  140.4732  157.1513  137.1118 H   0  0  0  0  0  0  0  0  0  0  0  0
  143.0362  157.6730  136.3192 H   0  0  0  0  0  0  0  0  0  0  0  0
  141.9071  156.5417  135.4786 H   0  0  0  0  0  0  0  0  0  0  0  0
  144.3847  157.0782  133.7490 H   0  0  0  0  0  0  0  0  0  0  0  0
  148.4031  156.0343  134.3899 H   0  0  0  0  0  0  0  0  0  0  0  0
  146.7421  156.4032  134.9782 H   0  0  0  0  0  0  0  0  0  0  0  0
  148.0031  153.4566  131.9271 H   0  0  0  0  0  0  0  0  0  0  0  0
  1  2  1  0
  2  3  2  0
  2  4  1  0
  4  5  2  0
  5  6  1  0
  6  7  2  0
  7  8  1  0
  8  9  2  0
  9 10  1  0
 10 11  1  0
 11 12  1  0
 12 13  1  0
 13 14  1  0
 14 15  1  0
  9 16  1  0
 16 17  2  0
 17 18  1  0
 18 19  1  0
 19 20  2  0
 19 21  1  0
 21 22  1  0
 22 23  1  0
 23 24  1  0
 23 25  1  0
 18  4  1  0
 17  6  1  0
 15 10  1  0
  1 26  1  0
  5 27  1  0
  7 28  1  0
  8 29  1  0
 11 30  1  0
 11 31  1  0
 12 32  1  0
 12 33  1  0
 13 34  1  0
 14 35  1  0
 14 36  1  0
 15 37  1  0
 15 38  1  0
 16 39  1  0
 21 40  1  0
 21 41  1  0
 23 42  1  0
M  CHG  1   1  -1
M  END
>  <UniqueID>  (73) 
73

>  <SMILES>  (73) 
[NH-]C(=O)c1cc2ccc(N3CCNCC3)cc2n1C(=O)CSC(F)F

>  <Energy>  (73) 
86.47051253308173

>  <Genealogy>  (73) 
[NH-]C(=O)c1cc2ccc(N3CCNCC3)cc2n1C(=O)CSC(F)F (protonated)
[NH-]C(=O)c1cc2ccc(N3CCNCC3)cc2n1C(=O)CSC(F)F (3D coordinates assigned)
[NH-]C(=O)c1cc2ccc(N3CCNCC3)cc2n1C(=O)CSC(F)F (nonaromatic ring conformer: 86.47051253308173 kcal/mol)

>  <smiles>  (73) 
NC(=O)c1cc2ccc(N3CCNCC3)cc2n1C(=O)CSC(F)F

>  <score_type>  (73) 
oracle

>  <origin>  (73) 
adg

>  <m_score__min__energy>  (73) 
-7.3399999999999999

>  <m_primary>  (73) 
energy

$$$$
73:0
     RDKit          3D

 41 42  0  0  0  0  0  0  0  0999 V2000
  138.7650  148.8870  129.1860 C   0  0  0  0  0  0  0  0  0  0  0  0
  139.6370  148.5610  130.3290 N   0  0  0  0  0  0  0  0  0  0  0  0
  139.8410  147.1050  130.3890 C   0  0  0  0  0  0  0  0  0  0  0  0
  139.0490  149.0420  131.5990 C   0  0  0  0  0  0  0  0  0  0  0  0
  140.0940  149.7740  132.4680 C   0  0  0  0  0  0  0  0  0  0  0  0
  140.0720  151.2970  132.2660 C   0  0  0  0  0  0  0  0  0  0  0  0
  141.4180  151.8690  132.3550 N   0  0  0  0  0  0  0  0  0  0  0  0
  141.7680  152.9250  133.2690 C   0  0  0  0  0  0  0  0  0  0  0  0
  142.8930  152.8220  134.1310 C   0  0  0  0  0  0  0  0  0  0  0  0
  143.2110  153.8580  135.0240 C   0  0  0  0  0  0  0  0  0  0  0  0
  142.3970  154.9840  135.0360 C   0  0  0  0  0  0  0  0  0  0  0  0
  142.4640  156.1160  135.8150 C   0  0  0  0  0  0  0  0  0  0  0  0
  141.3920  156.9090  135.4080 C   0  0  0  0  0  0  0  0  0  0  0  0
  141.1330  158.2710  135.9250 C   0  0  0  0  0  0  0  0  0  0  0  0
  139.8730  158.6010  136.5140 N   0  0  0  0  0  0  0  0  0  0  0  0
  142.0350  159.1490  135.8790 O   0  0  0  0  0  0  0  0  0  0  0  0
  140.6890  156.2900  134.4170 N   0  0  0  0  0  0  0  0  0  0  0  0
  139.4880  156.7490  133.7740 C   0  0  0  0  0  0  0  0  0  0  0  0
  139.1900  156.3470  132.6190 O   0  0  0  0  0  0  0  0  0  0  0  0
  138.6480  157.6510  134.4160 O   0  0  0  0  0  0  0  0  0  0  0  0
  141.3170  155.1120  134.2010 C   0  0  0  0  0  0  0  0  0  0  0  0
  140.9660  154.0880  133.3130 C   0  0  0  0  0  0  0  0  0  0  0  0
  137.7949  149.2497  129.5566 H   0  0  0  0  0  0  0  0  0  0  0  0
  139.2392  149.6686  128.5742 H   0  0  0  0  0  0  0  0  0  0  0  0
  138.6102  147.9860  128.5742 H   0  0  0  0  0  0  0  0  0  0  0  0
  139.8860  146.7841  131.4402 H   0  0  0  0  0  0  0  0  0  0  0  0
  139.0053  146.5966  129.8858 H   0  0  0  0  0  0  0  0  0  0  0  0
  140.7842  146.8459  129.8858 H   0  0  0  0  0  0  0  0  0  0  0  0
  138.2257  149.7350  131.3713 H   0  0  0  0  0  0  0  0  0  0  0  0
  138.6843  148.1698  132.1613 H   0  0  0  0  0  0  0  0  0  0  0  0
  139.8862  149.5564  133.5261 H   0  0  0  0  0  0  0  0  0  0  0  0
  141.0883  149.4134  132.1658 H   0  0  0  0  0  0  0  0  0  0  0  0
  139.6535  151.5201  131.2735 H   0  0  0  0  0  0  0  0  0  0  0  0
  139.4542  151.7420  133.0600 H   0  0  0  0  0  0  0  0  0  0  0  0
  142.1690  151.4930  131.7310 H   0  0  0  0  0  0  0  0  0  0  0  0
  143.5221  151.9202  134.0984 H   0  0  0  0  0  0  0  0  0  0  0  0
  144.0794  153.7804  135.6947 H   0  0  0  0  0  0  0  0  0  0  0  0
  143.2059  156.3465  136.5937 H   0  0  0  0  0  0  0  0  0  0  0  0
  139.0830  157.9200  136.5220 H   0  0  0  0  0  0  0  0  0  0  0  0
  139.7150  159.5540  136.9120 H   0  0  0  0  0  0  0  0  0  0  0  0
  140.0841  154.1866  132.6629 H   0  0  0  0  0  0  0  0  0  0  0  0
  1  2  1  0
  2  3  1  0
  2  4  1  0
  4  5  1  0
  5  6  1  0
  6  7  1  0
  7  8  1  0
  8  9  2  0
  9 10  1  0
 10 11  2  0
 11 12  1  0
 12 13  2  0
 13 14  1  0
 14 15  1  0
 14 16  2  0
 13 17  1  0
 17 18  1  0
 18 19  2  0
 18 20  1  0
 17 21  1  0
 21 22  2  0
 22  8  1  0
 21 11  1  0
  1 23  1  0
  1 24  1  0
  1 25  1  0
  3 26  1  0
  3 27  1  0
  3 28  1  0
  4 29  1  0
  4 30  1  0
  5 31  1  0
  5 32  1  0
  6 33  1  0
  6 34  1  0
  7 35  1  0
  9 36  1  0
 10 37  1  0
 12 38  1  0
 15 39  1  0
 15 40  1  0
 22 41  1  0
M  CHG  1  20  -1
M  END
>  <UniqueID>  (74) 
74

>  <SMILES>  (74) 
CN(C)CCCNc1ccc2cc(C(N)=O)n(C(=O)[O-])c2c1

>  <Energy>  (74) 
79.3930293196251

>  <Genealogy>  (74) 
CN(C)CCCNc1ccc2cc(C(N)=O)n(C(=O)[O-])c2c1 (protonated)
CN(C)CCCNc1ccc2cc(C(N)=O)n(C(=O)[O-])c2c1 (3D coordinates assigned)
CN(C)CCCNc1ccc2cc(C(N)=O)n(C(=O)[O-])c2c1 (optimized conformer: 79.3930293196251 kcal/mol)

>  <smiles>  (74) 
CN(C)CCCNc1ccc2cc(C(N)=O)n(C(=O)O)c2c1

>  <score_type>  (74) 
oracle

>  <origin>  (74) 
adg

>  <m_score__min__energy>  (74) 
-6.8600000000000003

>  <m_primary>  (74) 
energy

$$$$
74:0
     RDKit          3D

 38 39  0  0  0  0  0  0  0  0999 V2000
  139.6590  158.9740  131.4880 C   0  0  0  0  0  0  0  0  0  0  0  0
  140.6670  158.4190  132.3040 O   0  0  0  0  0  0  0  0  0  0  0  0
  140.2320  158.3410  133.6500 C   0  0  0  0  0  0  0  0  0  0  0  0
  139.7760  156.9230  133.9720 C   0  0  0  0  0  0  0  0  0  0  0  0
  140.1800  156.0410  132.9310 O   0  0  0  0  0  0  0  0  0  0  0  0
  140.0330  154.6550  133.0080 C   0  0  0  0  0  0  0  0  0  0  0  0
  138.8850  154.1340  132.9810 O   0  0  0  0  0  0  0  0  0  0  0  0
  141.1970  153.8230  133.1480 N   0  0  0  0  0  0  0  0  0  0  0  0
  142.4740  154.2070  133.4300 C   0  0  0  0  0  0  0  0  0  0  0  0
  142.9100  155.5660  133.8120 C   0  0  0  0  0  0  0  0  0  0  0  0
  142.8890  156.6350  132.8700 N   0  0  0  0  0  0  0  0  0  0  0  0
  143.2580  155.7980  135.0010 O   0  0  0  0  0  0  0  0  0  0  0  0
  143.3330  153.1090  133.3990 C   0  0  0  0  0  0  0  0  0  0  0  0
  142.5340  152.0300  133.0990 C   0  0  0  0  0  0  0  0  0  0  0  0
  142.8670  150.6880  132.9420 C   0  0  0  0  0  0  0  0  0  0  0  0
  141.8390  149.7890  132.6100 C   0  0  0  0  0  0  0  0  0  0  0  0
  140.5110  150.2460  132.4270 C   0  0  0  0  0  0  0  0  0  0  0  0
  139.4160  149.2710  132.0820 C   0  0  0  0  0  0  0  0  0  0  0  0
  139.4480  148.8920  130.6000 C   0  0  0  0  0  0  0  0  0  0  0  0
  138.3640  148.0900  130.2860 F   0  0  0  0  0  0  0  0  0  0  0  0
  139.4140  150.0300  129.8130 F   0  0  0  0  0  0  0  0  0  0  0  0
  140.6110  148.1970  130.3290 F   0  0  0  0  0  0  0  0  0  0  0  0
  140.2100  151.6160  132.6010 C   0  0  0  0  0  0  0  0  0  0  0  0
  141.2500  152.4870  132.9520 C   0  0  0  0  0  0  0  0  0  0  0  0
  138.8715  159.4076  132.1219 H   0  0  0  0  0  0  0  0  0  0  0  0
  140.0929  159.7604  130.8529 H   0  0  0  0  0  0  0  0  0  0  0  0
  139.2266  158.1868  130.8529 H   0  0  0  0  0  0  0  0  0  0  0  0
  141.0621  158.6165  134.3171 H   0  0  0  0  0  0  0  0  0  0  0  0
  139.3888  159.0321  133.7963 H   0  0  0  0  0  0  0  0  0  0  0  0
  140.2287  156.6000  134.9211 H   0  0  0  0  0  0  0  0  0  0  0  0
  138.6797  156.9042  134.0603 H   0  0  0  0  0  0  0  0  0  0  0  0
  142.0820  156.7630  132.2210 H   0  0  0  0  0  0  0  0  0  0  0  0
  144.4186  153.1062  133.5766 H   0  0  0  0  0  0  0  0  0  0  0  0
  143.9027  150.3416  133.0737 H   0  0  0  0  0  0  0  0  0  0  0  0
  142.0681  148.7197  132.4911 H   0  0  0  0  0  0  0  0  0  0  0  0
  139.5445  148.3609  132.6864 H   0  0  0  0  0  0  0  0  0  0  0  0
  138.4486  149.7495  132.2947 H   0  0  0  0  0  0  0  0  0  0  0  0
  139.1844  151.9893  132.4642 H   0  0  0  0  0  0  0  0  0  0  0  0
  1  2  1  0
  2  3  1  0
  3  4  1  0
  4  5  1  0
  5  6  1  0
  6  7  2  0
  6  8  1  0
  8  9  1  0
  9 10  1  0
 10 11  1  0
 10 12  2  0
  9 13  2  0
 13 14  1  0
 14 15  2  0
 15 16  1  0
 16 17  2  0
 17 18  1  0
 18 19  1  0
 19 20  1  0
 19 21  1  0
 19 22  1  0
 17 23  1  0
 23 24  2  0
 24  8  1  0
 24 14  1  0
  1 25  1  0
  1 26  1  0
  1 27  1  0
  3 28  1  0
  3 29  1  0
  4 30  1  0
  4 31  1  0
 11 32  1  0
 13 33  1  0
 15 34  1  0
 16 35  1  0
 18 36  1  0
 18 37  1  0
 23 38  1  0
M  CHG  1  11  -1
M  END
>  <UniqueID>  (75) 
75

>  <SMILES>  (75) 
COCCOC(=O)n1c(C([NH-])=O)cc2ccc(CC(F)(F)F)cc21

>  <Energy>  (75) 
71.71651955630844

>  <Genealogy>  (75) 
COCCOC(=O)n1c(C([NH-])=O)cc2ccc(CC(F)(F)F)cc21 (protonated)
COCCOC(=O)n1c(C([NH-])=O)cc2ccc(CC(F)(F)F)cc21 (3D coordinates assigned)
COCCOC(=O)n1c(C([NH-])=O)cc2ccc(CC(F)(F)F)cc21 (optimized conformer: 71.71651955630844 kcal/mol)

>  <smiles>  (75) 
COCCOC(=O)n1c(C(N)=O)cc2ccc(CC(F)(F)F)cc21

>  <score_type>  (75) 
oracle

>  <origin>  (75) 
adg

>  <m_score__min__energy>  (75) 
-5.96

>  <m_primary>  (75) 
energy

$$$$
75:0
     RDKit          3D

 48 50  0  0  0  0  0  0  0  0999 V2000
  140.4860  158.3030  135.8740 C   0  0  0  0  0  0  0  0  0  0  0  0
  139.8280  158.4310  134.5390 C   0  0  0  0  0  0  0  0  0  0  0  0
  138.6750  157.8150  134.2100 N   0  0  0  0  0  0  0  0  0  0  0  0
  138.3520  158.2240  133.0160 O   0  0  0  0  0  0  0  0  0  0  0  0
  139.2340  159.0790  132.5510 C   0  0  0  0  0  0  0  0  0  0  0  0
  139.1120  159.7770  131.2370 C   0  0  0  0  0  0  0  0  0  0  0  0
  140.2280  159.2460  133.4960 C   0  0  0  0  0  0  0  0  0  0  0  0
  141.3610  160.2310  133.4840 C   0  0  0  0  0  0  0  0  0  0  0  0
  142.5740  159.5740  133.0050 N   0  0  0  0  0  0  0  0  0  0  0  0
  143.8110  159.6090  133.7280 C   0  0  0  0  0  0  0  0  0  0  0  0
  144.0370  160.5260  134.5640 O   0  0  0  0  0  0  0  0  0  0  0  0
  144.7920  158.5840  133.5100 N   0  0  0  0  0  0  0  0  0  0  0  0
  146.1310  158.7280  133.3040 C   0  0  0  0  0  0  0  0  0  0  0  0
  146.8570  160.0080  133.1620 C   0  0  0  0  0  0  0  0  0  0  0  0
  146.3460  161.2110  133.7310 N   0  0  0  0  0  0  0  0  0  0  0  0
  147.9300  160.0470  132.5020 O   0  0  0  0  0  0  0  0  0  0  0  0
  146.7370  157.4790  133.1680 C   0  0  0  0  0  0  0  0  0  0  0  0
  145.7180  156.5610  133.2980 C   0  0  0  0  0  0  0  0  0  0  0  0
  145.7470  155.1700  133.2490 C   0  0  0  0  0  0  0  0  0  0  0  0
  144.5380  154.4780  133.4370 C   0  0  0  0  0  0  0  0  0  0  0  0
  143.3330  155.1830  133.6850 C   0  0  0  0  0  0  0  0  0  0  0  0
  142.0380  154.4400  133.8900 C   0  0  0  0  0  0  0  0  0  0  0  0
  140.8240  155.3800  133.8830 C   0  0  0  0  0  0  0  0  0  0  0  0
  139.6790  154.8500  133.0130 C   0  0  0  0  0  0  0  0  0  0  0  0
  139.1300  155.8900  132.2490 O   0  0  0  0  0  0  0  0  0  0  0  0
  143.3450  156.5950  133.7250 C   0  0  0  0  0  0  0  0  0  0  0  0
  144.5560  157.2560  133.5090 C   0  0  0  0  0  0  0  0  0  0  0  0
  139.7377  158.4486  136.6670 H   0  0  0  0  0  0  0  0  0  0  0  0
  140.9309  157.3015  135.9690 H   0  0  0  0  0  0  0  0  0  0  0  0
  141.2739  159.0647  135.9690 H   0  0  0  0  0  0  0  0  0  0  0  0
  138.9249  160.8476  131.4065 H   0  0  0  0  0  0  0  0  0  0  0  0
  140.0453  159.6535  130.6681 H   0  0  0  0  0  0  0  0  0  0  0  0
  138.2759  159.3442  130.6681 H   0  0  0  0  0  0  0  0  0  0  0  0
  141.1106  161.0693  132.8172 H   0  0  0  0  0  0  0  0  0  0  0  0
  141.5278  160.6095  134.5033 H   0  0  0  0  0  0  0  0  0  0  0  0
  142.4850  158.9050  132.2080 H   0  0  0  0  0  0  0  0  0  0  0  0
  145.4670  161.6450  133.3700 H   0  0  0  0  0  0  0  0  0  0  0  0
  147.8030  157.2710  132.9938 H   0  0  0  0  0  0  0  0  0  0  0  0
  146.6875  154.6288  133.0686 H   0  0  0  0  0  0  0  0  0  0  0  0
  144.5266  153.3790  133.3913 H   0  0  0  0  0  0  0  0  0  0  0  0
  141.9204  153.7031  133.0818 H   0  0  0  0  0  0  0  0  0  0  0  0
  142.0811  153.9505  134.8742 H   0  0  0  0  0  0  0  0  0  0  0  0
  140.4599  155.4943  134.9147 H   0  0  0  0  0  0  0  0  0  0  0  0
  141.1479  156.3426  133.4606 H   0  0  0  0  0  0  0  0  0  0  0  0
  140.0648  154.0697  132.3405 H   0  0  0  0  0  0  0  0  0  0  0  0
  138.8973  154.4317  133.6642 H   0  0  0  0  0  0  0  0  0  0  0  0
  138.3550  156.2400  132.7620 H   0  0  0  0  0  0  0  0  0  0  0  0
  142.4222  157.1605  133.9217 H   0  0  0  0  0  0  0  0  0  0  0  0
  1  2  1  0
  2  3  2  0
  3  4  1  0
  4  5  1  0
  5  6  1  0
  5  7  2  0
  7  8  1  0
  8  9  1  0
  9 10  1  0
 10 11  2  0
 10 12  1  0
 12 13  1  0
 13 14  1  0
 14 15  1  0
 14 16  2  0
 13 17  2  0
 17 18  1  0
 18 19  2  0
 19 20  1  0
 20 21  2  0
 21 22  1  0
 22 23  1  0
 23 24  1  0
 24 25  1  0
 21 26  1  0
 26 27  2  0
  7  2  1  0
 27 12  1  0
 27 18  1  0
  1 28  1  0
  1 29  1  0
  1 30  1  0
  6 31  1  0
  6 32  1  0
  6 33  1  0
  8 34  1  0
  8 35  1  0
  9 36  1  0
 15 37  1  0
 17 38  1  0
 19 39  1  0
 20 40  1  0
 22 41  1  0
 22 42  1  0
 23 43  1  0
 23 44  1  0
 24 45  1  0
 24 46  1  0
 25 47  1  0
 26 48  1  0
M  CHG  1  15  -1
M  END
>  <UniqueID>  (76) 
76

>  <SMILES>  (76) 
Cc1noc(C)c1CNC(=O)n1c(C([NH-])=O)cc2ccc(CCCO)cc21

>  <Energy>  (76) 
107.32425711321041

>  <Genealogy>  (76) 
Cc1noc(C)c1CNC(=O)n1c(C([NH-])=O)cc2ccc(CCCO)cc21 (protonated)
Cc1noc(C)c1CNC(=O)n1c(C([NH-])=O)cc2ccc(CCCO)cc21 (3D coordinates assigned)
Cc1noc(C)c1CNC(=O)n1c(C([NH-])=O)cc2ccc(CCCO)cc21 (optimized conformer: 107.32425711321041 kcal/mol)

>  <smiles>  (76) 
Cc1noc(C)c1CNC(=O)n1c(C(N)=O)cc2ccc(CCCO)cc21

>  <score_type>  (76) 
oracle

>  <origin>  (76) 
adg

>  <m_score__min__energy>  (76) 
-8.6999999999999993

>  <m_primary>  (76) 
energy

$$$$
76:0
     RDKit          3D

 49 51  0  0  0  0  0  0  0  0999 V2000
  149.2420  149.9890  134.3010 C   0  0  0  0  0  0  0  0  0  0  0  0
  149.4060  150.2680  132.8630 N   0  0  0  0  0  0  0  0  0  0  0  0
  148.1010  150.4390  132.1890 C   0  0  0  0  0  0  0  0  0  0  0  0
  147.4440  151.7810  132.5430 C   0  0  0  0  0  0  0  0  0  0  0  0
  148.4150  152.8770  132.4650 N   0  0  0  0  0  0  0  0  0  0  0  0
  148.0190  154.1960  132.8810 C   0  0  0  0  0  0  0  0  0  0  0  0
  148.8330  155.1590  132.8080 O   0  0  0  0  0  0  0  0  0  0  0  0
  146.7320  154.4060  133.3850 O   0  0  0  0  0  0  0  0  0  0  0  0
  145.6090  154.6640  132.5470 C   0  0  0  0  0  0  0  0  0  0  0  0
  145.1670  156.0060  132.7300 O   0  0  0  0  0  0  0  0  0  0  0  0
  145.3860  156.7190  133.9150 C   0  0  0  0  0  0  0  0  0  0  0  0
  145.6480  156.1090  134.9870 O   0  0  0  0  0  0  0  0  0  0  0  0
  145.2920  158.1510  133.9110 N   0  0  0  0  0  0  0  0  0  0  0  0
  146.3070  159.0420  133.7360 C   0  0  0  0  0  0  0  0  0  0  0  0
  147.7450  158.7150  133.7240 C   0  0  0  0  0  0  0  0  0  0  0  0
  148.1930  157.3600  133.7230 N   0  0  0  0  0  0  0  0  0  0  0  0
  148.5940  159.6470  133.7760 O   0  0  0  0  0  0  0  0  0  0  0  0
  145.8110  160.3400  133.6380 C   0  0  0  0  0  0  0  0  0  0  0  0
  144.4470  160.2170  133.7720 C   0  0  0  0  0  0  0  0  0  0  0  0
  143.4520  161.1880  133.7240 C   0  0  0  0  0  0  0  0  0  0  0  0
  142.1170  160.7710  133.8460 C   0  0  0  0  0  0  0  0  0  0  0  0
  141.7980  159.3990  134.0220 C   0  0  0  0  0  0  0  0  0  0  0  0
  140.3570  158.9610  134.0900 C   0  0  0  0  0  0  0  0  0  0  0  0
  139.5620  159.7600  133.2860 F   0  0  0  0  0  0  0  0  0  0  0  0
  139.9130  159.0540  135.3960 F   0  0  0  0  0  0  0  0  0  0  0  0
  140.2260  157.6510  133.6610 F   0  0  0  0  0  0  0  0  0  0  0  0
  142.8360  158.4390  134.0390 C   0  0  0  0  0  0  0  0  0  0  0  0
  144.1590  158.8860  133.9350 C   0  0  0  0  0  0  0  0  0  0  0  0
  149.7540  152.6090  131.9300 C   0  0  0  0  0  0  0  0  0  0  0  0
  150.3670  151.3800  132.6240 C   0  0  0  0  0  0  0  0  0  0  0  0
  149.7139  150.7918  134.8864 H   0  0  0  0  0  0  0  0  0  0  0  0
  148.1706  149.9386  134.5449 H   0  0  0  0  0  0  0  0  0  0  0  0
  149.7191  149.0283  134.5449 H   0  0  0  0  0  0  0  0  0  0  0  0
  148.2545  150.3946  131.1007 H   0  0  0  0  0  0  0  0  0  0  0  0
  147.4340  149.6332  132.5291 H   0  0  0  0  0  0  0  0  0  0  0  0
  146.6228  151.9768  131.8378 H   0  0  0  0  0  0  0  0  0  0  0  0
  147.0615  151.7237  133.5728 H   0  0  0  0  0  0  0  0  0  0  0  0
  145.8961  154.5145  131.4957 H   0  0  0  0  0  0  0  0  0  0  0  0
  144.7936  153.9744  132.8108 H   0  0  0  0  0  0  0  0  0  0  0  0
  149.2150  157.1460  133.6860 H   0  0  0  0  0  0  0  0  0  0  0  0
  147.5200  156.5690  133.8360 H   0  0  0  0  0  0  0  0  0  0  0  0
  146.3864  161.2651  133.4861 H   0  0  0  0  0  0  0  0  0  0  0  0
  143.7037  162.2509  133.5943 H   0  0  0  0  0  0  0  0  0  0  0  0
  141.3088  161.5161  133.8047 H   0  0  0  0  0  0  0  0  0  0  0  0
  142.6096  157.3665  134.1317 H   0  0  0  0  0  0  0  0  0  0  0  0
  149.6819  152.4177  130.8492 H   0  0  0  0  0  0  0  0  0  0  0  0
  150.3959  153.4830  132.1145 H   0  0  0  0  0  0  0  0  0  0  0  0
  151.1837  150.9997  131.9929 H   0  0  0  0  0  0  0  0  0  0  0  0
  150.7118  151.7162  133.6130 H   0  0  0  0  0  0  0  0  0  0  0  0
  1  2  1  0
  2  3  1  0
  3  4  1  0
  4  5  1  0
  5  6  1  0
  6  7  2  0
  6  8  1  0
  8  9  1  0
  9 10  1  0
 10 11  1  0
 11 12  2  0
 11 13  1  0
 13 14  1  0
 14 15  1  0
 15 16  1  0
 15 17  2  0
 14 18  2  0
 18 19  1  0
 19 20  2  0
 20 21  1  0
 21 22  2  0
 22 23  1  0
 23 24  1  0
 23 25  1  0
 23 26  1  0
 22 27  1  0
 27 28  2  0
  5 29  1  0
 29 30  1  0
 30  2  1  0
 28 13  1  0
 28 19  1  0
  1 31  1  0
  1 32  1  0
  1 33  1  0
  3 34  1  0
  3 35  1  0
  4 36  1  0
  4 37  1  0
  9 38  1  0
  9 39  1  0
 16 40  1  0
 16 41  1  0
 18 42  1  0
 20 43  1  0
 21 44  1  0
 27 45  1  0
 29 46  1  0
 29 47  1  0
 30 48  1  0
 30 49  1  0
M  END
>  <UniqueID>  (77) 
77

>  <SMILES>  (77) 
CN1CCN(C(=O)OCOC(=O)n2c(C(N)=O)cc3ccc(C(F)(F)F)cc32)CC1

>  <Energy>  (77) 
92.38763051278268

>  <Genealogy>  (77) 
CN1CCN(C(=O)OCOC(=O)n2c(C(N)=O)cc3ccc(C(F)(F)F)cc32)CC1 (3D coordinates assigned)
CN1CCN(C(=O)OCOC(=O)n2c(C(N)=O)cc3ccc(C(F)(F)F)cc32)CC1 (nonaromatic ring conformer: 92.38763051278268 kcal/mol)

>  <smiles>  (77) 
CN1CCN(C(=O)OCOC(=O)n2c(C(N)=O)cc3ccc(C(F)(F)F)cc32)CC1

>  <score_type>  (77) 
oracle

>  <origin>  (77) 
adg

>  <m_score__min__energy>  (77) 
-6.9199999999999999

>  <m_primary>  (77) 
energy

$$$$
77:0
     RDKit          3D

 32 34  0  0  0  0  0  0  0  0999 V2000
  147.5040  157.2430  134.3260 C   0  0  0  0  0  0  0  0  0  0  0  0
  147.7320  158.2330  133.2780 N   0  0  0  0  0  0  0  0  0  0  0  0
  148.8490  158.3440  132.5390 C   0  0  0  0  0  0  0  0  0  0  0  0
  148.6520  159.3600  131.6350 C   0  0  0  0  0  0  0  0  0  0  0  0
  149.5960  159.7950  130.6440 C   0  0  0  0  0  0  0  0  0  0  0  0
  150.3570  160.1450  129.8460 N   0  0  0  0  0  0  0  0  0  0  0  0
  147.4280  159.8990  131.7940 N   0  0  0  0  0  0  0  0  0  0  0  0
  146.8940  159.1960  132.8190 C   0  0  0  0  0  0  0  0  0  0  0  0
  145.5320  159.4630  133.3300 C   0  0  0  0  0  0  0  0  0  0  0  0
  145.1460  160.7970  133.6150 C   0  0  0  0  0  0  0  0  0  0  0  0
  143.8620  161.0820  134.1060 C   0  0  0  0  0  0  0  0  0  0  0  0
  142.9930  160.0160  134.3210 C   0  0  0  0  0  0  0  0  0  0  0  0
  141.6940  160.0110  134.7700 C   0  0  0  0  0  0  0  0  0  0  0  0
  141.3170  158.6690  134.7960 C   0  0  0  0  0  0  0  0  0  0  0  0
  140.0110  158.2030  135.3060 C   0  0  0  0  0  0  0  0  0  0  0  0
  139.7520  158.1330  136.7050 N   0  0  0  0  0  0  0  0  0  0  0  0
  139.0930  157.9090  134.4930 O   0  0  0  0  0  0  0  0  0  0  0  0
  142.3420  157.8760  134.3720 N   0  0  0  0  0  0  0  0  0  0  0  0
  142.3220  156.4550  134.1620 C   0  0  0  0  0  0  0  0  0  0  0  0
  141.3890  155.9210  133.5050 O   0  0  0  0  0  0  0  0  0  0  0  0
  143.3170  155.6530  134.7060 O   0  0  0  0  0  0  0  0  0  0  0  0
  143.3620  158.7160  134.0860 C   0  0  0  0  0  0  0  0  0  0  0  0
  144.6300  158.4050  133.5810 C   0  0  0  0  0  0  0  0  0  0  0  0
  147.6138  157.7199  135.3111 H   0  0  0  0  0  0  0  0  0  0  0  0
  146.4879  156.8330  134.2284 H   0  0  0  0  0  0  0  0  0  0  0  0
  148.2384  156.4299  134.2284 H   0  0  0  0  0  0  0  0  0  0  0  0
  149.7573  157.7318  132.6397 H   0  0  0  0  0  0  0  0  0  0  0  0
  145.8600  161.6173  133.4497 H   0  0  0  0  0  0  0  0  0  0  0  0
  143.5520  162.1166  134.3146 H   0  0  0  0  0  0  0  0  0  0  0  0
  141.0818  160.8811  135.0495 H   0  0  0  0  0  0  0  0  0  0  0  0
  139.4800  158.9840  137.2440 H   0  0  0  0  0  0  0  0  0  0  0  0
  144.9173  157.3616  133.3842 H   0  0  0  0  0  0  0  0  0  0  0  0
  1  2  1  0
  2  3  1  0
  3  4  2  0
  4  5  1  0
  5  6  3  0
  4  7  1  0
  7  8  2  0
  8  9  1  0
  9 10  2  0
 10 11  1  0
 11 12  2  0
 12 13  1  0
 13 14  2  0
 14 15  1  0
 15 16  1  0
 15 17  2  0
 14 18  1  0
 18 19  1  0
 19 20  2  0
 19 21  1  0
 18 22  1  0
 22 23  2  0
  8  2  1  0
 23  9  1  0
 22 12  1  0
  1 24  1  0
  1 25  1  0
  1 26  1  0
  3 27  1  0
 10 28  1  0
 11 29  1  0
 13 30  1  0
 16 31  1  0
 23 32  1  0
M  CHG  2  16  -1  21  -1
M  END
>  <UniqueID>  (78) 
78

>  <SMILES>  (78) 
Cn1cc(C#N)nc1-c1ccc2cc(C([NH-])=O)n(C(=O)[O-])c2c1

>  <Energy>  (78) 
107.40150365192166

>  <Genealogy>  (78) 
Cn1cc(C#N)nc1-c1ccc2cc(C([NH-])=O)n(C(=O)[O-])c2c1 (protonated)
Cn1cc(C#N)nc1-c1ccc2cc(C([NH-])=O)n(C(=O)[O-])c2c1 (3D coordinates assigned)
Cn1cc(C#N)nc1-c1ccc2cc(C([NH-])=O)n(C(=O)[O-])c2c1 (optimized conformer: 107.40150365192166 kcal/mol)

>  <smiles>  (78) 
Cn1cc(C#N)nc1-c1ccc2cc(C(N)=O)n(C(=O)O)c2c1

>  <score_type>  (78) 
oracle

>  <origin>  (78) 
adg

>  <m_score__min__energy>  (78) 
-7.4100000000000001

>  <m_primary>  (78) 
energy

$$$$
78:0
     RDKit          3D

 34 36  0  0  0  0  0  0  0  0999 V2000
  143.7420  162.7480  133.4020 N   0  0  0  0  0  0  0  0  0  0  0  0
  144.7000  161.9540  134.0970 C   0  0  0  0  0  0  0  0  0  0  0  0
  145.5890  162.5210  134.7860 O   0  0  0  0  0  0  0  0  0  0  0  0
  144.6990  160.4820  133.9730 C   0  0  0  0  0  0  0  0  0  0  0  0
  145.8410  159.7350  133.6870 C   0  0  0  0  0  0  0  0  0  0  0  0
  145.4050  158.4360  133.5650 C   0  0  0  0  0  0  0  0  0  0  0  0
  146.1190  157.2750  133.2890 C   0  0  0  0  0  0  0  0  0  0  0  0
  145.4140  156.0620  133.2450 C   0  0  0  0  0  0  0  0  0  0  0  0
  144.0140  156.0220  133.4870 C   0  0  0  0  0  0  0  0  0  0  0  0
  143.2890  154.7270  133.4470 C   0  0  0  0  0  0  0  0  0  0  0  0
  142.9880  154.0470  132.3130 N   0  0  0  0  0  0  0  0  0  0  0  0
  142.3180  152.8880  132.5510 C   0  0  0  0  0  0  0  0  0  0  0  0
  142.0730  152.6290  133.8950 C   0  0  0  0  0  0  0  0  0  0  0  0
  141.3720  151.4630  134.4430 C   0  0  0  0  0  0  0  0  0  0  0  0
  141.1020  150.4780  133.7070 O   0  0  0  0  0  0  0  0  0  0  0  0
  141.0010  151.4390  135.7820 O   0  0  0  0  0  0  0  0  0  0  0  0
  142.7160  153.8940  134.7980 S   0  0  0  0  0  0  0  0  0  0  0  0
  143.3250  157.2280  133.7600 C   0  0  0  0  0  0  0  0  0  0  0  0
  144.0520  158.4240  133.7790 C   0  0  0  0  0  0  0  0  0  0  0  0
  143.6020  159.6740  134.0340 N   0  0  0  0  0  0  0  0  0  0  0  0
  142.2610  160.0360  134.3950 C   0  0  0  0  0  0  0  0  0  0  0  0
  141.8170  159.7400  135.5390 O   0  0  0  0  0  0  0  0  0  0  0  0
  141.4450  160.7580  133.4660 N   0  0  0  0  0  0  0  0  0  0  0  0
  140.4520  160.2260  132.8740 C   0  0  0  0  0  0  0  0  0  0  0  0
  139.4530  159.6910  132.2770 C   0  0  0  0  0  0  0  0  0  0  0  0
  138.4530  159.1540  131.6800 C   0  0  0  0  0  0  0  0  0  0  0  0
  137.4880  158.6370  131.1050 O   0  0  0  0  0  0  0  0  0  0  0  0
  142.8530  162.3280  133.0490 H   0  0  0  0  0  0  0  0  0  0  0  0
  146.8713  160.1055  133.5814 H   0  0  0  0  0  0  0  0  0  0  0  0
  147.2040  157.3063  133.1105 H   0  0  0  0  0  0  0  0  0  0  0  0
  145.9524  155.1295  133.0201 H   0  0  0  0  0  0  0  0  0  0  0  0
  143.2130  154.3690  131.3460 H   0  0  0  0  0  0  0  0  0  0  0  0
  141.9961  152.2107  131.7462 H   0  0  0  0  0  0  0  0  0  0  0  0
  142.2421  157.2254  133.9530 H   0  0  0  0  0  0  0  0  0  0  0  0
  1  2  1  0
  2  3  2  0
  2  4  1  0
  4  5  2  0
  5  6  1  0
  6  7  2  0
  7  8  1  0
  8  9  2  0
  9 10  1  0
 10 11  2  0
 11 12  1  0
 12 13  2  0
 13 14  1  0
 14 15  2  0
 14 16  1  0
 13 17  1  0
  9 18  1  0
 18 19  2  0
 19 20  1  0
 20 21  1  0
 21 22  2  0
 21 23  1  0
 23 24  2  0
 24 25  2  0
 25 26  2  0
 26 27  2  0
 20  4  1  0
 19  6  1  0
 17 10  1  0
  1 28  1  0
  5 29  1  0
  7 30  1  0
  8 31  1  0
 11 32  1  0
 12 33  1  0
 18 34  1  0
M  CHG  3   1  -1  11   1  16  -1
M  END
>  <UniqueID>  (79) 
79

>  <SMILES>  (79) 
[NH-]C(=O)c1cc2ccc(-c3[nH+]cc(C(=O)[O-])s3)cc2n1C(=O)N=C=C=C=O

>  <Energy>  (79) 
105.14669467722412

>  <Genealogy>  (79) 
[NH-]C(=O)c1cc2ccc(-c3[nH+]cc(C(=O)[O-])s3)cc2n1C(=O)N=C=C=C=O (protonated)
[NH-]C(=O)c1cc2ccc(-c3[nH+]cc(C(=O)[O-])s3)cc2n1C(=O)N=C=C=C=O (3D coordinates assigned)
[NH-]C(=O)c1cc2ccc(-c3[nH+]cc(C(=O)[O-])s3)cc2n1C(=O)N=C=C=C=O (optimized conformer: 105.14669467722412 kcal/mol)

>  <smiles>  (79) 
NC(=O)c1cc2ccc(-c3ncc(C(=O)O)s3)cc2n1C(=O)N=C=C=C=O

>  <score_type>  (79) 
oracle

>  <origin>  (79) 
adg

>  <m_score__min__energy>  (79) 
-8.5899999999999999

>  <m_primary>  (79) 
energy

$$$$
79:0
     RDKit          3D

 33 34  0  0  0  0  0  0  0  0999 V2000
  149.9500  154.1130  132.5330 N   0  0  0  0  0  0  0  0  0  0  0  0
  148.8450  154.4460  132.6100 C   0  0  0  0  0  0  0  0  0  0  0  0
  147.4450  154.8690  132.7070 C   0  0  0  0  0  0  0  0  0  0  0  0
  147.3710  156.3520  132.9320 C   0  0  0  0  0  0  0  0  0  0  0  0
  148.5470  157.1410  132.8670 C   0  0  0  0  0  0  0  0  0  0  0  0
  148.4880  158.5310  133.0600 C   0  0  0  0  0  0  0  0  0  0  0  0
  147.2420  159.1050  133.2970 C   0  0  0  0  0  0  0  0  0  0  0  0
  146.9040  160.4160  133.5410 C   0  0  0  0  0  0  0  0  0  0  0  0
  145.5220  160.4150  133.7150 C   0  0  0  0  0  0  0  0  0  0  0  0
  144.7270  161.6440  133.9200 C   0  0  0  0  0  0  0  0  0  0  0  0
  143.3130  161.6390  133.7440 N   0  0  0  0  0  0  0  0  0  0  0  0
  145.3100  162.7230  134.2070 O   0  0  0  0  0  0  0  0  0  0  0  0
  145.0250  159.1510  133.5910 N   0  0  0  0  0  0  0  0  0  0  0  0
  143.6730  158.7160  133.7990 C   0  0  0  0  0  0  0  0  0  0  0  0
  143.1200  158.8980  134.9180 O   0  0  0  0  0  0  0  0  0  0  0  0
  142.9710  158.1100  132.7510 O   0  0  0  0  0  0  0  0  0  0  0  0
  141.6050  157.7080  132.8480 C   0  0  0  0  0  0  0  0  0  0  0  0
  140.6680  158.8540  132.4670 C   0  0  0  0  0  0  0  0  0  0  0  0
  141.0300  160.0290  133.1430 O   0  0  0  0  0  0  0  0  0  0  0  0
  146.0920  158.3620  133.3340 C   0  0  0  0  0  0  0  0  0  0  0  0
  146.1220  156.9720  133.1650 C   0  0  0  0  0  0  0  0  0  0  0  0
  146.9224  154.6158  131.7728 H   0  0  0  0  0  0  0  0  0  0  0  0
  146.9691  154.3512  133.5528 H   0  0  0  0  0  0  0  0  0  0  0  0
  149.5151  156.6600  132.6635 H   0  0  0  0  0  0  0  0  0  0  0  0
  149.3985  159.1472  133.0250 H   0  0  0  0  0  0  0  0  0  0  0  0
  147.5814  161.2814  133.5886 H   0  0  0  0  0  0  0  0  0  0  0  0
  142.7420  160.8060  134.0080 H   0  0  0  0  0  0  0  0  0  0  0  0
  141.4306  156.8600  132.1694 H   0  0  0  0  0  0  0  0  0  0  0  0
  141.3983  157.4177  133.8887 H   0  0  0  0  0  0  0  0  0  0  0  0
  140.7294  159.0266  131.3824 H   0  0  0  0  0  0  0  0  0  0  0  0
  139.6402  158.5827  132.7498 H   0  0  0  0  0  0  0  0  0  0  0  0
  141.9940  159.9460  133.3630 H   0  0  0  0  0  0  0  0  0  0  0  0
  145.1974  156.3779  133.2123 H   0  0  0  0  0  0  0  0  0  0  0  0
  1  2  3  0
  2  3  1  0
  3  4  1  0
  4  5  2  0
  5  6  1  0
  6  7  2  0
  7  8  1  0
  8  9  2  0
  9 10  1  0
 10 11  1  0
 10 12  2  0
  9 13  1  0
 13 14  1  0
 14 15  2  0
 14 16  1  0
 16 17  1  0
 17 18  1  0
 18 19  1  0
 13 20  1  0
 20 21  2  0
 21  4  1  0
 20  7  1  0
  3 22  1  0
  3 23  1  0
  5 24  1  0
  6 25  1  0
  8 26  1  0
 11 27  1  0
 17 28  1  0
 17 29  1  0
 18 30  1  0
 18 31  1  0
 19 32  1  0
 21 33  1  0
M  CHG  1  11  -1
M  END
>  <UniqueID>  (80) 
80

>  <SMILES>  (80) 
N#CCc1ccc2cc(C([NH-])=O)n(C(=O)OCCO)c2c1

>  <Energy>  (80) 
66.92366771943061

>  <Genealogy>  (80) 
N#CCc1ccc2cc(C([NH-])=O)n(C(=O)OCCO)c2c1 (protonated)
N#CCc1ccc2cc(C([NH-])=O)n(C(=O)OCCO)c2c1 (3D coordinates assigned)
N#CCc1ccc2cc(C([NH-])=O)n(C(=O)OCCO)c2c1 (optimized conformer: 66.92366771943061 kcal/mol)

>  <smiles>  (80) 
N#CCc1ccc2cc(C(N)=O)n(C(=O)OCCO)c2c1

>  <score_type>  (80) 
oracle

>  <origin>  (80) 
adg

>  <m_score__min__energy>  (80) 
-6.2800000000000002

>  <m_primary>  (80) 
energy

$$$$
80:0
     RDKit          3D

 47 48  0  0  0  0  0  0  0  0999 V2000
  139.1440  155.6950  132.9280 C   0  0  0  0  0  0  0  0  0  0  0  0
  140.3320  156.3570  133.6180 C   0  0  2  0  0  0  0  0  0  0  0  0
  140.1040  156.3680  135.0230 O   0  0  0  0  0  0  0  0  0  0  0  0
  141.0700  156.7880  135.9430 C   0  0  0  0  0  0  0  0  0  0  0  0
  141.0260  156.4050  137.1440 O   0  0  0  0  0  0  0  0  0  0  0  0
  142.1780  157.6800  135.4850 C   0  0  0  0  0  0  0  0  0  0  0  0
  142.9820  157.0050  134.5200 O   0  0  0  0  0  0  0  0  0  0  0  0
  143.4210  157.6050  133.3330 C   0  0  0  0  0  0  0  0  0  0  0  0
  142.7860  157.4310  132.2580 O   0  0  0  0  0  0  0  0  0  0  0  0
  144.5850  158.4470  133.3480 N   0  0  0  0  0  0  0  0  0  0  0  0
  144.6280  159.8090  133.3460 C   0  0  0  0  0  0  0  0  0  0  0  0
  143.4670  160.7140  133.4800 C   0  0  0  0  0  0  0  0  0  0  0  0
  142.1480  160.2070  133.2980 N   0  0  0  0  0  0  0  0  0  0  0  0
  143.6290  161.9390  133.7190 O   0  0  0  0  0  0  0  0  0  0  0  0
  145.9470  160.2550  133.2790 C   0  0  0  0  0  0  0  0  0  0  0  0
  146.7160  159.1140  133.2460 C   0  0  0  0  0  0  0  0  0  0  0  0
  148.0970  158.9690  133.1550 C   0  0  0  0  0  0  0  0  0  0  0  0
  148.6210  157.6660  133.1040 C   0  0  0  0  0  0  0  0  0  0  0  0
  147.7640  156.5370  133.1530 C   0  0  0  0  0  0  0  0  0  0  0  0
  148.3400  155.1490  133.0380 C   0  0  0  0  0  0  0  0  0  0  0  0
  148.4360  154.5510  134.2820 F   0  0  0  0  0  0  0  0  0  0  0  0
  147.5200  154.3830  132.2300 F   0  0  0  0  0  0  0  0  0  0  0  0
  149.6070  155.1940  132.4820 F   0  0  0  0  0  0  0  0  0  0  0  0
  146.3630  156.7270  133.2190 C   0  0  0  0  0  0  0  0  0  0  0  0
  145.8710  158.0360  133.2880 C   0  0  0  0  0  0  0  0  0  0  0  0
  140.4770  157.7020  133.1580 O   0  0  0  0  0  0  0  0  0  0  0  0
  139.3980  158.5580  132.9260 C   0  0  0  0  0  0  0  0  0  0  0  0
  138.3590  158.4990  133.6400 O   0  0  0  0  0  0  0  0  0  0  0  0
  139.4930  159.5750  131.8250 C   0  0  2  0  0  0  0  0  0  0  0  0
  138.2610  159.4970  130.9280 C   0  0  0  0  0  0  0  0  0  0  0  0
  140.6440  159.3480  131.0550 O   0  0  0  0  0  0  0  0  0  0  0  0
  138.4485  155.3074  133.6870 H   0  0  0  0  0  0  0  0  0  0  0  0
  138.6261  156.4346  132.2997 H   0  0  0  0  0  0  0  0  0  0  0  0
  139.5005  154.8655  132.2997 H   0  0  0  0  0  0  0  0  0  0  0  0
  141.2479  155.7940  133.3855 H   0  0  0  0  0  0  0  0  0  0  0  0
  141.7514  158.5875  135.0327 H   0  0  0  0  0  0  0  0  0  0  0  0
  142.8029  157.9511  136.3487 H   0  0  0  0  0  0  0  0  0  0  0  0
  141.9780  159.3320  132.7530 H   0  0  0  0  0  0  0  0  0  0  0  0
  146.2985  161.2971  133.2572 H   0  0  0  0  0  0  0  0  0  0  0  0
  148.7583  159.8475  133.1239 H   0  0  0  0  0  0  0  0  0  0  0  0
  149.7084  157.5201  133.0252 H   0  0  0  0  0  0  0  0  0  0  0  0
  145.6772  155.8670  133.2161 H   0  0  0  0  0  0  0  0  0  0  0  0
  139.5497  160.5755  132.2785 H   0  0  0  0  0  0  0  0  0  0  0  0
  137.3566  159.4397  131.5514 H   0  0  0  0  0  0  0  0  0  0  0  0
  138.2124  160.3939  130.2930 H   0  0  0  0  0  0  0  0  0  0  0  0
  138.3259  158.6012  130.2930 H   0  0  0  0  0  0  0  0  0  0  0  0
  141.3440  159.0190  131.6780 H   0  0  0  0  0  0  0  0  0  0  0  0
  1  2  1  0
  2  3  1  0
  3  4  1  0
  4  5  2  0
  4  6  1  0
  6  7  1  0
  7  8  1  0
  8  9  2  0
  8 10  1  0
 10 11  1  0
 11 12  1  0
 12 13  1  0
 12 14  2  0
 11 15  2  0
 15 16  1  0
 16 17  2  0
 17 18  1  0
 18 19  2  0
 19 20  1  0
 20 21  1  0
 20 22  1  0
 20 23  1  0
 19 24  1  0
 24 25  2  0
  2 26  1  0
 26 27  1  0
 27 28  2  0
 27 29  1  0
 29 30  1  0
 29 31  1  0
 25 10  1  0
 25 16  1  0
  1 32  1  0
  1 33  1  0
  1 34  1  0
  2 35  1  1
  6 36  1  0
  6 37  1  0
 13 38  1  0
 15 39  1  0
 17 40  1  0
 18 41  1  0
 24 42  1  0
 29 43  1  1
 30 44  1  0
 30 45  1  0
 30 46  1  0
 31 47  1  0
M  CHG  1  13  -1
M  END
>  <UniqueID>  (81) 
81

>  <SMILES>  (81) 
C[C@H](OC(=O)COC(=O)n1c(C([NH-])=O)cc2ccc(C(F)(F)F)cc21)OC(=O)[C@H](C)O

>  <Energy>  (81) 
72.90151613100369

>  <Genealogy>  (81) 
CC(OC(=O)COC(=O)n1c(C([NH-])=O)cc2ccc(C(F)(F)F)cc21)OC(=O)C(C)O (protonated)
C[C@H](OC(=O)COC(=O)n1c(C([NH-])=O)cc2ccc(C(F)(F)F)cc21)OC(=O)[C@H](C)O (chirality)
C[C@H](OC(=O)COC(=O)n1c(C([NH-])=O)cc2ccc(C(F)(F)F)cc21)OC(=O)[C@H](C)O (3D coordinates assigned)
C[C@H](OC(=O)COC(=O)n1c(C([NH-])=O)cc2ccc(C(F)(F)F)cc21)OC(=O)[C@H](C)O (optimized conformer: 72.90151613100369 kcal/mol)

>  <smiles>  (81) 
CC(OC(=O)COC(=O)n1c(C(N)=O)cc2ccc(C(F)(F)F)cc21)OC(=O)C(C)O

>  <score_type>  (81) 
oracle

>  <origin>  (81) 
adg

>  <m_score__min__energy>  (81) 
-5.5999999999999996

>  <m_primary>  (81) 
energy

$$$$
81:0
     RDKit          3D

 51 52  0  0  0  0  0  0  0  0999 V2000
  137.6180  160.1130  130.9640 C   0  0  0  0  0  0  0  0  0  0  0  0
  139.0970  160.0920  130.6190 C   0  0  0  0  0  0  0  0  0  0  0  0
  139.8590  159.8660  131.8010 O   0  0  0  0  0  0  0  0  0  0  0  0
  139.8440  158.6490  132.4880 C   0  0  0  0  0  0  0  0  0  0  0  0
  139.3150  157.6250  131.9750 O   0  0  0  0  0  0  0  0  0  0  0  0
  140.5150  158.5520  133.8200 C   0  0  0  0  0  0  0  0  0  0  0  0
  141.9100  159.1040  133.7330 C   0  0  0  0  0  0  0  0  0  0  0  0
  142.1280  160.5030  133.7800 C   0  0  0  0  0  0  0  0  0  0  0  0
  143.4300  161.0260  133.7350 C   0  0  0  0  0  0  0  0  0  0  0  0
  144.4910  160.1280  133.6500 C   0  0  0  0  0  0  0  0  0  0  0  0
  145.8460  160.3630  133.5970 C   0  0  0  0  0  0  0  0  0  0  0  0
  146.4350  159.1020  133.5400 C   0  0  0  0  0  0  0  0  0  0  0  0
  147.8950  158.8910  133.5930 C   0  0  0  0  0  0  0  0  0  0  0  0
  148.4490  157.5950  133.8290 N   0  0  0  0  0  0  0  0  0  0  0  0
  148.6680  159.8800  133.4820 O   0  0  0  0  0  0  0  0  0  0  0  0
  145.4820  158.1260  133.5290 N   0  0  0  0  0  0  0  0  0  0  0  0
  145.6680  156.7070  133.3620 C   0  0  0  0  0  0  0  0  0  0  0  0
  146.4780  156.2840  132.4950 O   0  0  0  0  0  0  0  0  0  0  0  0
  144.9110  155.7180  134.2120 C   0  0  0  0  0  0  0  0  0  0  0  0
  145.7410  154.5030  134.6800 C   0  0  2  0  0  0  0  0  0  0  0  0
  145.1090  153.7830  135.8910 C   0  0  0  0  0  0  0  0  0  0  0  0
  147.1800  154.8700  134.8420 N   0  0  0  0  0  0  0  0  0  0  0  0
  148.0320  154.1520  133.8780 C   0  0  0  0  0  0  0  0  0  0  0  0
  147.7260  154.7110  136.2020 C   0  0  0  0  0  0  0  0  0  0  0  0
  144.2990  158.7710  133.6190 C   0  0  0  0  0  0  0  0  0  0  0  0
  143.0120  158.2240  133.6590 C   0  0  0  0  0  0  0  0  0  0  0  0
  137.4965  160.1147  132.0573 H   0  0  0  0  0  0  0  0  0  0  0  0
  137.1559  161.0178  130.5423 H   0  0  0  0  0  0  0  0  0  0  0  0
  137.1304  159.2217  130.5423 H   0  0  0  0  0  0  0  0  0  0  0  0
  139.2933  159.2858  129.8969 H   0  0  0  0  0  0  0  0  0  0  0  0
  139.3836  161.0582  130.1781 H   0  0  0  0  0  0  0  0  0  0  0  0
  139.9406  159.1282  134.5603 H   0  0  0  0  0  0  0  0  0  0  0  0
  140.5624  157.4962  134.1249 H   0  0  0  0  0  0  0  0  0  0  0  0
  141.2688  161.1860  133.8524 H   0  0  0  0  0  0  0  0  0  0  0  0
  143.6066  162.1113  133.7659 H   0  0  0  0  0  0  0  0  0  0  0  0
  146.3550  161.3381  133.5992 H   0  0  0  0  0  0  0  0  0  0  0  0
  149.4850  157.4590  133.8120 H   0  0  0  0  0  0  0  0  0  0  0  0
  147.8450  156.7880  134.0970 H   0  0  0  0  0  0  0  0  0  0  0  0
  144.5414  156.2449  135.1041 H   0  0  0  0  0  0  0  0  0  0  0  0
  144.1037  155.3187  133.5805 H   0  0  0  0  0  0  0  0  0  0  0  0
  145.7189  153.7412  133.8868 H   0  0  0  0  0  0  0  0  0  0  0  0
  145.4955  154.2233  136.8220 H   0  0  0  0  0  0  0  0  0  0  0  0
  144.0156  153.8989  135.8568 H   0  0  0  0  0  0  0  0  0  0  0  0
  145.3656  152.7139  135.8568 H   0  0  0  0  0  0  0  0  0  0  0  0
  148.7629  153.5360  134.4224 H   0  0  0  0  0  0  0  0  0  0  0  0
  147.4058  153.5051  133.2460 H   0  0  0  0  0  0  0  0  0  0  0  0
  148.5634  154.8787  133.2460 H   0  0  0  0  0  0  0  0  0  0  0  0
  146.9432  154.9390  136.9404 H   0  0  0  0  0  0  0  0  0  0  0  0
  148.0700  153.6754  136.3402 H   0  0  0  0  0  0  0  0  0  0  0  0
  148.5722  155.4000  136.3402 H   0  0  0  0  0  0  0  0  0  0  0  0
  142.8620  157.1346  133.6334 H   0  0  0  0  0  0  0  0  0  0  0  0
  1  2  1  0
  2  3  1  0
  3  4  1  0
  4  5  2  0
  4  6  1  0
  6  7  1  0
  7  8  2  0
  8  9  1  0
  9 10  2  0
 10 11  1  0
 11 12  2  0
 12 13  1  0
 13 14  1  0
 13 15  2  0
 12 16  1  0
 16 17  1  0
 17 18  2  0
 17 19  1  0
 19 20  1  0
 20 21  1  0
 20 22  1  0
 22 23  1  0
 22 24  1  0
 16 25  1  0
 25 26  2  0
 26  7  1  0
 25 10  1  0
  1 27  1  0
  1 28  1  0
  1 29  1  0
  2 30  1  0
  2 31  1  0
  6 32  1  0
  6 33  1  0
  8 34  1  0
  9 35  1  0
 11 36  1  0
 14 37  1  0
 14 38  1  0
 19 39  1  0
 19 40  1  0
 20 41  1  6
 21 42  1  0
 21 43  1  0
 21 44  1  0
 23 45  1  0
 23 46  1  0
 23 47  1  0
 24 48  1  0
 24 49  1  0
 24 50  1  0
 26 51  1  0
M  END
>  <UniqueID>  (82) 
82

>  <SMILES>  (82) 
CCOC(=O)Cc1ccc2cc(C(N)=O)n(C(=O)C[C@H](C)N(C)C)c2c1

>  <Energy>  (82) 
87.32010173145298

>  <Genealogy>  (82) 
CCOC(=O)Cc1ccc2cc(C(N)=O)n(C(=O)C[C@H](C)N(C)C)c2c1 (chirality)
CCOC(=O)Cc1ccc2cc(C(N)=O)n(C(=O)C[C@H](C)N(C)C)c2c1 (3D coordinates assigned)
CCOC(=O)Cc1ccc2cc(C(N)=O)n(C(=O)C[C@H](C)N(C)C)c2c1 (optimized conformer: 87.32010173145298 kcal/mol)

>  <smiles>  (82) 
CCOC(=O)Cc1ccc2cc(C(N)=O)n(C(=O)CC(C)N(C)C)c2c1

>  <score_type>  (82) 
oracle

>  <origin>  (82) 
adg

>  <m_score__min__energy>  (82) 
-7.5800000000000001

>  <m_primary>  (82) 
energy

$$$$
82:0
     RDKit          3D

 46 47  0  0  0  0  0  0  0  0999 V2000
  137.5970  159.0040  131.3750 C   0  0  0  0  0  0  0  0  0  0  0  0
  138.9950  159.0690  131.9970 C   0  0  0  0  0  0  0  0  0  0  0  0
  139.5030  160.5100  132.1130 C   0  0  0  0  0  0  0  0  0  0  0  0
  139.0280  158.3950  133.2960 N   0  0  0  0  0  0  0  0  0  0  0  0
  140.0010  157.4290  133.7260 C   0  0  0  0  0  0  0  0  0  0  0  0
  140.0580  156.2980  133.1690 O   0  0  0  0  0  0  0  0  0  0  0  0
  140.9140  157.7230  134.9080 C   0  0  0  0  0  0  0  0  0  0  0  0
  140.1180  158.5990  135.9050 C   0  0  0  0  0  0  0  0  0  0  0  0
  141.3140  156.4220  135.6360 C   0  0  0  0  0  0  0  0  0  0  0  0
  142.1920  158.4030  134.3910 C   0  0  0  0  0  0  0  0  0  0  0  0
  142.2840  159.8130  134.1880 C   0  0  0  0  0  0  0  0  0  0  0  0
  143.4730  160.4040  133.7280 C   0  0  0  0  0  0  0  0  0  0  0  0
  144.5680  159.5790  133.4950 C   0  0  0  0  0  0  0  0  0  0  0  0
  145.8290  159.8850  133.0350 C   0  0  0  0  0  0  0  0  0  0  0  0
  146.5120  158.6690  132.9980 C   0  0  0  0  0  0  0  0  0  0  0  0
  147.9420  158.5280  132.6430 C   0  0  0  0  0  0  0  0  0  0  0  0
  148.3820  157.4780  131.7810 N   0  0  0  0  0  0  0  0  0  0  0  0
  148.7860  159.3500  133.0870 O   0  0  0  0  0  0  0  0  0  0  0  0
  145.7020  157.6570  133.4180 N   0  0  0  0  0  0  0  0  0  0  0  0
  145.9920  156.2510  133.4710 C   0  0  0  0  0  0  0  0  0  0  0  0
  146.2150  155.6210  132.4020 O   0  0  0  0  0  0  0  0  0  0  0  0
  146.1630  155.5550  134.7870 C   0  0  0  0  0  0  0  0  0  0  0  0
  144.6430  154.4100  135.1630 Br  0  0  0  0  0  0  0  0  0  0  0  0
  144.5190  158.2320  133.7180 C   0  0  0  0  0  0  0  0  0  0  0  0
  143.3500  157.6120  134.1650 C   0  0  0  0  0  0  0  0  0  0  0  0
  136.8416  158.9689  132.1738 H   0  0  0  0  0  0  0  0  0  0  0  0
  137.4310  159.8954  130.7522 H   0  0  0  0  0  0  0  0  0  0  0  0
  137.5144  158.1010  130.7522 H   0  0  0  0  0  0  0  0  0  0  0  0
  139.6763  158.5355  131.3179 H   0  0  0  0  0  0  0  0  0  0  0  0
  139.5985  160.7808  133.1749 H   0  0  0  0  0  0  0  0  0  0  0  0
  140.4847  160.5932  131.6237 H   0  0  0  0  0  0  0  0  0  0  0  0
  138.7906  161.1905  131.6237 H   0  0  0  0  0  0  0  0  0  0  0  0
  140.3787  158.3121  136.9344 H   0  0  0  0  0  0  0  0  0  0  0  0
  140.3694  159.6578  135.7446 H   0  0  0  0  0  0  0  0  0  0  0  0
  139.0400  158.4498  135.7446 H   0  0  0  0  0  0  0  0  0  0  0  0
  141.2653  156.5805  136.7234 H   0  0  0  0  0  0  0  0  0  0  0  0
  140.6224  155.6152  135.3517 H   0  0  0  0  0  0  0  0  0  0  0  0
  142.3394  156.1431  135.3517 H   0  0  0  0  0  0  0  0  0  0  0  0
  141.4096  160.4474  134.3951 H   0  0  0  0  0  0  0  0  0  0  0  0
  143.5359  161.4888  133.5570 H   0  0  0  0  0  0  0  0  0  0  0  0
  146.2155  160.8764  132.7562 H   0  0  0  0  0  0  0  0  0  0  0  0
  149.3900  157.4060  131.5160 H   0  0  0  0  0  0  0  0  0  0  0  0
  147.7240  156.7450  131.4360 H   0  0  0  0  0  0  0  0  0  0  0  0
  147.0765  154.9430  134.7553 H   0  0  0  0  0  0  0  0  0  0  0  0
  146.2378  156.3136  135.5801 H   0  0  0  0  0  0  0  0  0  0  0  0
  143.3264  156.5262  134.3396 H   0  0  0  0  0  0  0  0  0  0  0  0
  1  2  1  0
  2  3  1  0
  2  4  1  0
  4  5  1  0
  5  6  2  0
  5  7  1  0
  7  8  1  0
  7  9  1  0
  7 10  1  0
 10 11  2  0
 11 12  1  0
 12 13  2  0
 13 14  1  0
 14 15  2  0
 15 16  1  0
 16 17  1  0
 16 18  2  0
 15 19  1  0
 19 20  1  0
 20 21  2  0
 20 22  1  0
 22 23  1  0
 19 24  1  0
 24 25  2  0
 25 10  1  0
 24 13  1  0
  1 26  1  0
  1 27  1  0
  1 28  1  0
  2 29  1  0
  3 30  1  0
  3 31  1  0
  3 32  1  0
  8 33  1  0
  8 34  1  0
  8 35  1  0
  9 36  1  0
  9 37  1  0
  9 38  1  0
 11 39  1  0
 12 40  1  0
 14 41  1  0
 17 42  1  0
 17 43  1  0
 22 44  1  0
 22 45  1  0
 25 46  1  0
M  CHG  1   4  -1
M  END
>  <UniqueID>  (83) 
83

>  <SMILES>  (83) 
CC(C)[N-]C(=O)C(C)(C)c1ccc2cc(C(N)=O)n(C(=O)CBr)c2c1

>  <Energy>  (83) 
81.82729213730758

>  <Genealogy>  (83) 
CC(C)[N-]C(=O)C(C)(C)c1ccc2cc(C(N)=O)n(C(=O)CBr)c2c1 (protonated)
CC(C)[N-]C(=O)C(C)(C)c1ccc2cc(C(N)=O)n(C(=O)CBr)c2c1 (3D coordinates assigned)
CC(C)[N-]C(=O)C(C)(C)c1ccc2cc(C(N)=O)n(C(=O)CBr)c2c1 (optimized conformer: 81.82729213730758 kcal/mol)

>  <smiles>  (83) 
CC(C)NC(=O)C(C)(C)c1ccc2cc(C(N)=O)n(C(=O)CBr)c2c1

>  <score_type>  (83) 
oracle

>  <origin>  (83) 
adg

>  <m_score__min__energy>  (83) 
-8.2799999999999994

>  <m_primary>  (83) 
energy

$$$$
83:0
     RDKit          3D

 38 39  0  0  0  0  0  0  0  0999 V2000
  138.7450  149.9940  131.8220 C   0  0  0  0  0  0  0  0  0  0  0  0
  139.9450  150.0560  130.9740 N   0  0  0  0  0  0  0  0  0  0  0  0
  139.7470  149.2120  129.7810 C   0  0  0  0  0  0  0  0  0  0  0  0
  141.1330  149.6230  131.7420 C   0  0  0  0  0  0  0  0  0  0  0  0
  141.7110  150.7650  132.6020 C   0  0  0  0  0  0  0  0  0  0  0  0
  141.3160  152.1050  132.1310 N   0  0  0  0  0  0  0  0  0  0  0  0
  141.4860  153.1060  133.1580 C   0  0  0  0  0  0  0  0  0  0  0  0
  142.3720  152.8760  134.2420 C   0  0  0  0  0  0  0  0  0  0  0  0
  142.5520  153.8470  135.2400 C   0  0  0  0  0  0  0  0  0  0  0  0
  141.8420  155.0390  135.1260 C   0  0  0  0  0  0  0  0  0  0  0  0
  141.8120  156.1320  135.9610 C   0  0  0  0  0  0  0  0  0  0  0  0
  140.9270  157.0280  135.3640 C   0  0  0  0  0  0  0  0  0  0  0  0
  140.6640  158.3820  135.8930 C   0  0  0  0  0  0  0  0  0  0  0  0
  140.3010  158.5800  137.2560 N   0  0  0  0  0  0  0  0  0  0  0  0
  140.7150  159.3750  135.1180 O   0  0  0  0  0  0  0  0  0  0  0  0
  140.4220  156.5050  134.2100 N   0  0  0  0  0  0  0  0  0  0  0  0
  139.4230  157.0710  133.3470 C   0  0  0  0  0  0  0  0  0  0  0  0
  138.2220  157.1320  133.7190 O   0  0  0  0  0  0  0  0  0  0  0  0
  139.7670  157.5340  132.0840 O   0  0  0  0  0  0  0  0  0  0  0  0
  140.9960  155.2880  134.0780 C   0  0  0  0  0  0  0  0  0  0  0  0
  140.7820  154.3300  133.0790 C   0  0  0  0  0  0  0  0  0  0  0  0
  139.0430  150.0094  132.8808 H   0  0  0  0  0  0  0  0  0  0  0  0
  138.1009  150.8601  131.6098 H   0  0  0  0  0  0  0  0  0  0  0  0
  138.1936  149.0662  131.6098 H   0  0  0  0  0  0  0  0  0  0  0  0
  139.5061  148.1854  130.0940 H   0  0  0  0  0  0  0  0  0  0  0  0
  138.9192  149.6157  129.1796 H   0  0  0  0  0  0  0  0  0  0  0  0
  140.6680  149.2054  129.1796 H   0  0  0  0  0  0  0  0  0  0  0  0
  140.8456  148.7914  132.4022 H   0  0  0  0  0  0  0  0  0  0  0  0
  141.9069  149.3117  131.0249 H   0  0  0  0  0  0  0  0  0  0  0  0
  141.3552  150.6388  133.6352 H   0  0  0  0  0  0  0  0  0  0  0  0
  142.8071  150.7041  132.5316 H   0  0  0  0  0  0  0  0  0  0  0  0
  140.3270  152.0890  131.7860 H   0  0  0  0  0  0  0  0  0  0  0  0
  141.9160  152.3580  131.3130 H   0  0  0  0  0  0  0  0  0  0  0  0
  142.9240  151.9264  134.3012 H   0  0  0  0  0  0  0  0  0  0  0  0
  143.2330  153.6713  136.0858 H   0  0  0  0  0  0  0  0  0  0  0  0
  142.3682  156.2695  136.9000 H   0  0  0  0  0  0  0  0  0  0  0  0
  139.8260  159.4580  137.5640 H   0  0  0  0  0  0  0  0  0  0  0  0
  140.0829  154.5250  132.2524 H   0  0  0  0  0  0  0  0  0  0  0  0
  1  2  1  0
  2  3  1  0
  2  4  1  0
  4  5  1  0
  5  6  1  0
  6  7  1  0
  7  8  2  0
  8  9  1  0
  9 10  2  0
 10 11  1  0
 11 12  2  0
 12 13  1  0
 13 14  1  0
 13 15  2  0
 12 16  1  0
 16 17  1  0
 17 18  2  0
 17 19  1  0
 16 20  1  0
 20 21  2  0
 21  7  1  0
 20 10  1  0
  1 22  1  0
  1 23  1  0
  1 24  1  0
  3 25  1  0
  3 26  1  0
  3 27  1  0
  4 28  1  0
  4 29  1  0
  5 30  1  0
  5 31  1  0
  6 32  1  0
  6 33  1  0
  8 34  1  0
  9 35  1  0
 11 36  1  0
 14 37  1  0
 21 38  1  0
M  CHG  3   6   1  14  -1  19  -1
M  END
>  <UniqueID>  (84) 
84

>  <SMILES>  (84) 
CN(C)CC[NH2+]c1ccc2cc(C([NH-])=O)n(C(=O)[O-])c2c1

>  <Energy>  (84) 
77.96092768355332

>  <Genealogy>  (84) 
CN(C)CC[NH2+]c1ccc2cc(C([NH-])=O)n(C(=O)[O-])c2c1 (protonated)
CN(C)CC[NH2+]c1ccc2cc(C([NH-])=O)n(C(=O)[O-])c2c1 (3D coordinates assigned)
CN(C)CC[NH2+]c1ccc2cc(C([NH-])=O)n(C(=O)[O-])c2c1 (optimized conformer: 77.96092768355332 kcal/mol)

>  <smiles>  (84) 
CN(C)CCNc1ccc2cc(C(N)=O)n(C(=O)O)c2c1

>  <score_type>  (84) 
oracle

>  <origin>  (84) 
adg

>  <m_score__min__energy>  (84) 
-6.1299999999999999

>  <m_primary>  (84) 
energy

$$$$
84:0
     RDKit          3D

 34 35  0  0  0  0  0  0  0  0999 V2000
  146.7290  161.1470  133.5980 N   0  0  0  0  0  0  0  0  0  0  0  0
  145.7660  160.1250  133.3510 C   0  0  0  0  0  0  0  0  0  0  0  0
  144.5630  160.4460  133.1660 O   0  0  0  0  0  0  0  0  0  0  0  0
  146.1920  158.7090  133.2990 C   0  0  0  0  0  0  0  0  0  0  0  0
  145.3950  157.6470  133.7200 C   0  0  0  0  0  0  0  0  0  0  0  0
  146.1580  156.5180  133.5290 C   0  0  0  0  0  0  0  0  0  0  0  0
  145.8480  155.1790  133.7500 C   0  0  0  0  0  0  0  0  0  0  0  0
  146.8140  154.2160  133.4150 C   0  0  0  0  0  0  0  0  0  0  0  0
  148.0580  154.6030  132.8590 C   0  0  0  0  0  0  0  0  0  0  0  0
  149.0670  153.5550  132.4830 C   0  0  0  0  0  0  0  0  0  0  0  0
  149.2050  152.6510  133.5200 F   0  0  0  0  0  0  0  0  0  0  0  0
  150.2880  154.1510  132.2300 F   0  0  0  0  0  0  0  0  0  0  0  0
  148.3340  155.9720  132.6420 C   0  0  0  0  0  0  0  0  0  0  0  0
  147.3650  156.9100  133.0110 C   0  0  0  0  0  0  0  0  0  0  0  0
  147.4060  158.2540  132.8750 N   0  0  0  0  0  0  0  0  0  0  0  0
  148.4950  159.0260  132.3450 C   0  0  0  0  0  0  0  0  0  0  0  0
  149.0070  159.9440  133.0400 O   0  0  0  0  0  0  0  0  0  0  0  0
  149.0620  158.7290  130.9840 C   0  0  0  0  0  0  0  0  0  0  0  0
  148.8190  159.8840  130.0010 C   0  0  0  0  0  0  0  0  0  0  0  0
  149.4420  161.2070  130.4700 C   0  0  0  0  0  0  0  0  0  0  0  0
  148.4850  162.0190  131.0940 O   0  0  0  0  0  0  0  0  0  0  0  0
  147.4020  161.4410  132.8560 H   0  0  0  0  0  0  0  0  0  0  0  0
  144.3719  157.6998  134.1205 H   0  0  0  0  0  0  0  0  0  0  0  0
  144.8767  154.8843  134.1738 H   0  0  0  0  0  0  0  0  0  0  0  0
  146.6023  153.1502  133.5862 H   0  0  0  0  0  0  0  0  0  0  0  0
  148.7224  153.0301  131.5798 H   0  0  0  0  0  0  0  0  0  0  0  0
  149.2867  156.2914  132.1943 H   0  0  0  0  0  0  0  0  0  0  0  0
  150.1454  158.5632  131.0779 H   0  0  0  0  0  0  0  0  0  0  0  0
  148.5579  157.8337  130.5913 H   0  0  0  0  0  0  0  0  0  0  0  0
  149.2564  159.6152  129.0281 H   0  0  0  0  0  0  0  0  0  0  0  0
  147.7318  160.0365  129.9321 H   0  0  0  0  0  0  0  0  0  0  0  0
  150.2508  160.9909  131.1835 H   0  0  0  0  0  0  0  0  0  0  0  0
  149.8353  161.7401  129.5919 H   0  0  0  0  0  0  0  0  0  0  0  0
  148.0580  161.4670  131.8000 H   0  0  0  0  0  0  0  0  0  0  0  0
  1  2  1  0
  2  3  2  0
  2  4  1  0
  4  5  2  0
  5  6  1  0
  6  7  2  0
  7  8  1  0
  8  9  2  0
  9 10  1  0
 10 11  1  0
 10 12  1  0
  9 13  1  0
 13 14  2  0
 14 15  1  0
 15 16  1  0
 16 17  2  0
 16 18  1  0
 18 19  1  0
 19 20  1  0
 20 21  1  0
 15  4  1  0
 14  6  1  0
  1 22  1  0
  5 23  1  0
  7 24  1  0
  8 25  1  0
 10 26  1  0
 13 27  1  0
 18 28  1  0
 18 29  1  0
 19 30  1  0
 19 31  1  0
 20 32  1  0
 20 33  1  0
 21 34  1  0
M  CHG  1   1  -1
M  END
>  <UniqueID>  (85) 
85

>  <SMILES>  (85) 
[NH-]C(=O)c1cc2ccc(C(F)F)cc2n1C(=O)CCCO

>  <Energy>  (85) 
68.35509378805006

>  <Genealogy>  (85) 
[NH-]C(=O)c1cc2ccc(C(F)F)cc2n1C(=O)CCCO (protonated)
[NH-]C(=O)c1cc2ccc(C(F)F)cc2n1C(=O)CCCO (3D coordinates assigned)
[NH-]C(=O)c1cc2ccc(C(F)F)cc2n1C(=O)CCCO (optimized conformer: 68.35509378805006 kcal/mol)

>  <smiles>  (85) 
NC(=O)c1cc2ccc(C(F)F)cc2n1C(=O)CCCO

>  <score_type>  (85) 
oracle

>  <origin>  (85) 
adg

>  <m_score__min__energy>  (85) 
-5.6200000000000001

>  <m_primary>  (85) 
energy

$$$$
85:0
     RDKit          3D

 49 51  0  0  0  0  0  0  0  0999 V2000
  140.0520  159.5610  132.1730 C   0  0  0  0  0  0  0  0  0  0  0  0
  141.3160  159.3580  132.8980 N   0  0  0  0  0  0  0  0  0  0  0  0
  141.1650  159.7560  134.3160 C   0  0  0  0  0  0  0  0  0  0  0  0
  142.3110  159.2260  135.2080 C   0  0  0  0  0  0  0  0  0  0  0  0
  143.5680  158.8490  134.3940 C   0  0  0  0  0  0  0  0  0  0  0  0
  144.2640  160.0840  133.7640 C   0  0  0  0  0  0  0  0  0  0  0  0
  145.2240  159.7120  132.6280 C   0  0  0  0  0  0  0  0  0  0  0  0
  146.6390  159.9660  133.0560 C   0  0  0  0  0  0  0  0  0  0  0  0
  146.9110  160.9910  133.7360 O   0  0  0  0  0  0  0  0  0  0  0  0
  147.6570  158.9860  132.8060 N   0  0  0  0  0  0  0  0  0  0  0  0
  148.7480  159.0980  131.9990 C   0  0  0  0  0  0  0  0  0  0  0  0
  149.2120  160.3350  131.3370 C   0  0  0  0  0  0  0  0  0  0  0  0
  148.4880  161.5590  131.4540 N   0  0  0  0  0  0  0  0  0  0  0  0
  150.2890  160.3170  130.6830 O   0  0  0  0  0  0  0  0  0  0  0  0
  149.3930  157.8680  131.8790 C   0  0  0  0  0  0  0  0  0  0  0  0
  148.6560  156.9950  132.6480 C   0  0  0  0  0  0  0  0  0  0  0  0
  148.8290  155.6340  132.8740 C   0  0  0  0  0  0  0  0  0  0  0  0
  147.8860  154.9750  133.6820 C   0  0  0  0  0  0  0  0  0  0  0  0
  146.7770  155.6770  134.2230 C   0  0  0  0  0  0  0  0  0  0  0  0
  145.7880  154.9730  135.1180 C   0  0  0  0  0  0  0  0  0  0  0  0
  145.3510  153.7930  134.5420 F   0  0  0  0  0  0  0  0  0  0  0  0
  146.3920  154.6860  136.3270 F   0  0  0  0  0  0  0  0  0  0  0  0
  144.6840  155.7770  135.3440 F   0  0  0  0  0  0  0  0  0  0  0  0
  146.6490  157.0650  133.9850 C   0  0  0  0  0  0  0  0  0  0  0  0
  147.6140  157.6950  133.1930 C   0  0  0  0  0  0  0  0  0  0  0  0
  143.1940  157.7960  133.3190 C   0  0  0  0  0  0  0  0  0  0  0  0
  141.7580  157.9570  132.7820 C   0  0  0  0  0  0  0  0  0  0  0  0
  139.2324  159.6926  132.8947 H   0  0  0  0  0  0  0  0  0  0  0  0
  140.1317  160.4579  131.5411 H   0  0  0  0  0  0  0  0  0  0  0  0
  139.8469  158.6843  131.5411 H   0  0  0  0  0  0  0  0  0  0  0  0
  141.1526  160.8544  134.3741 H   0  0  0  0  0  0  0  0  0  0  0  0
  140.2257  159.3193  134.6862 H   0  0  0  0  0  0  0  0  0  0  0  0
  142.5821  160.0061  135.9346 H   0  0  0  0  0  0  0  0  0  0  0  0
  141.9511  158.3149  135.7083 H   0  0  0  0  0  0  0  0  0  0  0  0
  144.3022  158.4118  135.0867 H   0  0  0  0  0  0  0  0  0  0  0  0
  143.4910  160.7568  133.3643 H   0  0  0  0  0  0  0  0  0  0  0  0
  144.8581  160.5671  134.5538 H   0  0  0  0  0  0  0  0  0  0  0  0
  145.1026  158.6470  132.3811 H   0  0  0  0  0  0  0  0  0  0  0  0
  144.9960  160.3254  131.7438 H   0  0  0  0  0  0  0  0  0  0  0  0
  148.7850  162.3960  130.9050 H   0  0  0  0  0  0  0  0  0  0  0  0
  147.7090  161.6650  132.1410 H   0  0  0  0  0  0  0  0  0  0  0  0
  150.2975  157.6428  131.2948 H   0  0  0  0  0  0  0  0  0  0  0  0
  149.6776  155.0897  132.4341 H   0  0  0  0  0  0  0  0  0  0  0  0
  148.0089  153.9033  133.8975 H   0  0  0  0  0  0  0  0  0  0  0  0
  145.8110  157.6351  134.4124 H   0  0  0  0  0  0  0  0  0  0  0  0
  143.8948  157.8928  132.4766 H   0  0  0  0  0  0  0  0  0  0  0  0
  143.2545  156.8069  133.7966 H   0  0  0  0  0  0  0  0  0  0  0  0
  141.7314  157.6557  131.7244 H   0  0  0  0  0  0  0  0  0  0  0  0
  141.0838  157.3217  133.3751 H   0  0  0  0  0  0  0  0  0  0  0  0
  1  2  1  0
  2  3  1  0
  3  4  1  0
  4  5  1  0
  5  6  1  0
  6  7  1  0
  7  8  1  0
  8  9  2  0
  8 10  1  0
 10 11  1  0
 11 12  1  0
 12 13  1  0
 12 14  2  0
 11 15  2  0
 15 16  1  0
 16 17  2  0
 17 18  1  0
 18 19  2  0
 19 20  1  0
 20 21  1  0
 20 22  1  0
 20 23  1  0
 19 24  1  0
 24 25  2  0
  5 26  1  0
 26 27  1  0
 27  2  1  0
 25 10  1  0
 25 16  1  0
  1 28  1  0
  1 29  1  0
  1 30  1  0
  3 31  1  0
  3 32  1  0
  4 33  1  0
  4 34  1  0
  5 35  1  0
  6 36  1  0
  6 37  1  0
  7 38  1  0
  7 39  1  0
 13 40  1  0
 13 41  1  0
 15 42  1  0
 17 43  1  0
 18 44  1  0
 24 45  1  0
 26 46  1  0
 26 47  1  0
 27 48  1  0
 27 49  1  0
M  END
>  <UniqueID>  (86) 
86

>  <SMILES>  (86) 
CN1CCC(CCC(=O)n2c(C(N)=O)cc3ccc(C(F)(F)F)cc32)CC1

>  <Energy>  (86) 
93.03281502304394

>  <Genealogy>  (86) 
CN1CCC(CCC(=O)n2c(C(N)=O)cc3ccc(C(F)(F)F)cc32)CC1 (3D coordinates assigned)
CN1CCC(CCC(=O)n2c(C(N)=O)cc3ccc(C(F)(F)F)cc32)CC1 (nonaromatic ring conformer: 93.03281502304394 kcal/mol)

>  <smiles>  (86) 
CN1CCC(CCC(=O)n2c(C(N)=O)cc3ccc(C(F)(F)F)cc32)CC1

>  <score_type>  (86) 
oracle

>  <origin>  (86) 
adg

>  <m_score__min__energy>  (86) 
-8.3000000000000007

>  <m_primary>  (86) 
energy

$$$$
86:0
     RDKit          3D

 38 39  0  0  0  0  0  0  0  0999 V2000
  140.5140  158.4200  134.9290 C   0  0  0  0  0  0  0  0  0  0  0  0
  140.9670  157.4500  133.8360 C   0  0  1  0  0  0  0  0  0  0  0  0
  139.9720  157.4130  132.6570 C   0  0  0  0  0  0  0  0  0  0  0  0
  139.5810  158.8130  132.1670 C   0  0  0  0  0  0  0  0  0  0  0  0
  140.5930  159.3400  131.3530 O   0  0  0  0  0  0  0  0  0  0  0  0
  142.2510  157.8710  133.3710 O   0  0  0  0  0  0  0  0  0  0  0  0
  143.4330  157.7060  134.1030 C   0  0  0  0  0  0  0  0  0  0  0  0
  143.4540  156.9690  135.1270 O   0  0  0  0  0  0  0  0  0  0  0  0
  144.6220  158.4060  133.7010 N   0  0  0  0  0  0  0  0  0  0  0  0
  144.8000  159.7530  133.6010 C   0  0  0  0  0  0  0  0  0  0  0  0
  143.7420  160.7790  133.7120 C   0  0  0  0  0  0  0  0  0  0  0  0
  142.4010  160.4930  133.3240 N   0  0  0  0  0  0  0  0  0  0  0  0
  144.0360  161.9380  134.1090 O   0  0  0  0  0  0  0  0  0  0  0  0
  146.1250  160.0500  133.2930 C   0  0  0  0  0  0  0  0  0  0  0  0
  146.7590  158.8330  133.1970 C   0  0  0  0  0  0  0  0  0  0  0  0
  148.0930  158.5390  132.9350 C   0  0  0  0  0  0  0  0  0  0  0  0
  148.4820  157.1890  132.9360 C   0  0  0  0  0  0  0  0  0  0  0  0
  147.5360  156.1610  133.1880 C   0  0  0  0  0  0  0  0  0  0  0  0
  147.9800  154.7210  133.2500 C   0  0  0  0  0  0  0  0  0  0  0  0
  147.0520  153.8980  132.6340 F   0  0  0  0  0  0  0  0  0  0  0  0
  148.1110  154.3420  134.5720 F   0  0  0  0  0  0  0  0  0  0  0  0
  149.1960  154.5570  132.6090 F   0  0  0  0  0  0  0  0  0  0  0  0
  146.1940  156.5040  133.4750 C   0  0  0  0  0  0  0  0  0  0  0  0
  145.8310  157.8570  133.4470 C   0  0  0  0  0  0  0  0  0  0  0  0
  140.7189  157.9812  135.9166 H   0  0  0  0  0  0  0  0  0  0  0  0
  141.0625  159.3682  134.8281 H   0  0  0  0  0  0  0  0  0  0  0  0
  139.4349  158.6081  134.8281 H   0  0  0  0  0  0  0  0  0  0  0  0
  141.0145  156.4348  134.2568 H   0  0  0  0  0  0  0  0  0  0  0  0
  140.4350  156.8650  131.8231 H   0  0  0  0  0  0  0  0  0  0  0  0
  139.0560  156.9175  133.0112 H   0  0  0  0  0  0  0  0  0  0  0  0
  138.6468  158.7484  131.5898 H   0  0  0  0  0  0  0  0  0  0  0  0
  139.4397  159.4717  133.0366 H   0  0  0  0  0  0  0  0  0  0  0  0
  141.4510  159.1850  131.8280 H   0  0  0  0  0  0  0  0  0  0  0  0
  142.1990  159.8680  132.5120 H   0  0  0  0  0  0  0  0  0  0  0  0
  146.5703  161.0464  133.1556 H   0  0  0  0  0  0  0  0  0  0  0  0
  148.8209  159.3387  132.7333 H   0  0  0  0  0  0  0  0  0  0  0  0
  149.5317  156.9255  132.7393 H   0  0  0  0  0  0  0  0  0  0  0  0
  145.4531  155.7270  133.7145 H   0  0  0  0  0  0  0  0  0  0  0  0
  1  2  1  0
  2  3  1  0
  3  4  1  0
  4  5  1  0
  2  6  1  0
  6  7  1  0
  7  8  2  0
  7  9  1  0
  9 10  1  0
 10 11  1  0
 11 12  1  0
 11 13  2  0
 10 14  2  0
 14 15  1  0
 15 16  2  0
 16 17  1  0
 17 18  2  0
 18 19  1  0
 19 20  1  0
 19 21  1  0
 19 22  1  0
 18 23  1  0
 23 24  2  0
 24  9  1  0
 24 15  1  0
  1 25  1  0
  1 26  1  0
  1 27  1  0
  2 28  1  1
  3 29  1  0
  3 30  1  0
  4 31  1  0
  4 32  1  0
  5 33  1  0
 12 34  1  0
 14 35  1  0
 16 36  1  0
 17 37  1  0
 23 38  1  0
M  CHG  1  12  -1
M  END
>  <UniqueID>  (87) 
87

>  <SMILES>  (87) 
C[C@@H](CCO)OC(=O)n1c(C([NH-])=O)cc2ccc(C(F)(F)F)cc21

>  <Energy>  (87) 
71.02988707484755

>  <Genealogy>  (87) 
CC(CCO)OC(=O)n1c(C([NH-])=O)cc2ccc(C(F)(F)F)cc21 (protonated)
C[C@@H](CCO)OC(=O)n1c(C([NH-])=O)cc2ccc(C(F)(F)F)cc21 (chirality)
C[C@@H](CCO)OC(=O)n1c(C([NH-])=O)cc2ccc(C(F)(F)F)cc21 (3D coordinates assigned)
C[C@@H](CCO)OC(=O)n1c(C([NH-])=O)cc2ccc(C(F)(F)F)cc21 (optimized conformer: 71.02988707484755 kcal/mol)

>  <smiles>  (87) 
CC(CCO)OC(=O)n1c(C(N)=O)cc2ccc(C(F)(F)F)cc21

>  <score_type>  (87) 
oracle

>  <origin>  (87) 
adg

>  <m_score__min__energy>  (87) 
-5.6200000000000001

>  <m_primary>  (87) 
energy

$$$$
87:0
     RDKit          3D

 36 38  0  0  0  0  0  0  0  0999 V2000
  141.3580  150.8570  133.0110 C   0  0  0  0  0  0  0  0  0  0  0  0
  142.5010  151.8230  133.0040 C   0  0  0  0  0  0  0  0  0  0  0  0
  143.7750  151.3950  132.7840 N   0  0  0  0  0  0  0  0  0  0  0  0
  144.6570  152.4150  132.8180 C   0  0  0  0  0  0  0  0  0  0  0  0
  146.0580  152.2430  132.6190 N   0  0  0  0  0  0  0  0  0  0  0  0
  143.9140  153.8890  133.1160 S   0  0  0  0  0  0  0  0  0  0  0  0
  142.3750  153.2040  133.2160 C   0  0  0  0  0  0  0  0  0  0  0  0
  141.1350  153.9720  133.4560 C   0  0  0  0  0  0  0  0  0  0  0  0
  140.0600  153.6370  132.8910 O   0  0  0  0  0  0  0  0  0  0  0  0
  141.1470  155.1200  134.3170 N   0  0  0  0  0  0  0  0  0  0  0  0
  141.7160  155.2230  135.5500 C   0  0  0  0  0  0  0  0  0  0  0  0
  142.3450  154.1080  136.2940 C   0  0  0  0  0  0  0  0  0  0  0  0
  143.5080  154.3210  137.0970 N   0  0  0  0  0  0  0  0  0  0  0  0
  141.8470  152.9520  136.2370 O   0  0  0  0  0  0  0  0  0  0  0  0
  141.5680  156.5210  136.0430 C   0  0  0  0  0  0  0  0  0  0  0  0
  140.8960  157.2120  135.0600 C   0  0  0  0  0  0  0  0  0  0  0  0
  140.4870  158.5400  135.0160 C   0  0  0  0  0  0  0  0  0  0  0  0
  139.8250  158.9890  133.8600 C   0  0  0  0  0  0  0  0  0  0  0  0
  139.6080  158.1150  132.7620 C   0  0  0  0  0  0  0  0  0  0  0  0
  138.8600  158.5950  131.5440 C   0  0  0  0  0  0  0  0  0  0  0  0
  137.6980  159.2500  131.9120 F   0  0  0  0  0  0  0  0  0  0  0  0
  139.6380  159.4720  130.8080 F   0  0  0  0  0  0  0  0  0  0  0  0
  138.5340  157.5090  130.7550 F   0  0  0  0  0  0  0  0  0  0  0  0
  140.0220  156.7660  132.8550 C   0  0  0  0  0  0  0  0  0  0  0  0
  140.6600  156.3450  134.0270 C   0  0  0  0  0  0  0  0  0  0  0  0
  141.0817  150.6235  134.0498 H   0  0  0  0  0  0  0  0  0  0  0  0
  140.4964  151.3047  132.4942 H   0  0  0  0  0  0  0  0  0  0  0  0
  141.6558  149.9328  132.4942 H   0  0  0  0  0  0  0  0  0  0  0  0
  146.5190  152.6260  131.7640 H   0  0  0  0  0  0  0  0  0  0  0  0
  146.6310  151.7330  133.3270 H   0  0  0  0  0  0  0  0  0  0  0  0
  143.9180  153.5310  137.6440 H   0  0  0  0  0  0  0  0  0  0  0  0
  143.9930  155.2440  137.1220 H   0  0  0  0  0  0  0  0  0  0  0  0
  141.9150  156.9093  137.0119 H   0  0  0  0  0  0  0  0  0  0  0  0
  140.6758  159.2191  135.8605 H   0  0  0  0  0  0  0  0  0  0  0  0
  139.4711  160.0291  133.8054 H   0  0  0  0  0  0  0  0  0  0  0  0
  139.8467  156.0646  132.0260 H   0  0  0  0  0  0  0  0  0  0  0  0
  1  2  1  0
  2  3  1  0
  3  4  2  0
  4  5  1  0
  4  6  1  0
  6  7  1  0
  7  8  1  0
  8  9  2  0
  8 10  1  0
 10 11  1  0
 11 12  1  0
 12 13  1  0
 12 14  2  0
 11 15  2  0
 15 16  1  0
 16 17  2  0
 17 18  1  0
 18 19  2  0
 19 20  1  0
 20 21  1  0
 20 22  1  0
 20 23  1  0
 19 24  1  0
 24 25  2  0
  7  2  2  0
 25 10  1  0
 25 16  1  0
  1 26  1  0
  1 27  1  0
  1 28  1  0
  5 29  1  0
  5 30  1  0
 13 31  1  0
 13 32  1  0
 15 33  1  0
 17 34  1  0
 18 35  1  0
 24 36  1  0
M  END
>  <UniqueID>  (88) 
88

>  <SMILES>  (88) 
Cc1nc(N)sc1C(=O)n1c(C(N)=O)cc2ccc(C(F)(F)F)cc21

>  <Energy>  (88) 
106.43044814445805

>  <Genealogy>  (88) 
Cc1nc(N)sc1C(=O)n1c(C(N)=O)cc2ccc(C(F)(F)F)cc21 (3D coordinates assigned)
Cc1nc(N)sc1C(=O)n1c(C(N)=O)cc2ccc(C(F)(F)F)cc21 (optimized conformer: 106.43044814445805 kcal/mol)

>  <smiles>  (88) 
Cc1nc(N)sc1C(=O)n1c(C(N)=O)cc2ccc(C(F)(F)F)cc21

>  <score_type>  (88) 
oracle

>  <origin>  (88) 
adg

>  <m_score__min__energy>  (88) 
-7.5199999999999996

>  <m_primary>  (88) 
energy

$$$$
88:0
     RDKit          3D

 34 35  0  0  0  0  0  0  0  0999 V2000
  137.9160  160.4830  131.0380 C   0  0  0  0  0  0  0  0  0  0  0  0
  139.4420  159.5410  132.0690 I   0  0  0  0  0  0  0  0  0  0  0  0
  141.1070  158.5200  133.1800 C   0  0  0  0  0  0  0  0  0  0  0  0
  140.8400  157.6010  132.1470 F   0  0  0  0  0  0  0  0  0  0  0  0
  141.8040  159.7390  132.6740 F   0  0  0  0  0  0  0  0  0  0  0  0
  140.2220  158.8570  134.2590 C   0  0  0  0  0  0  0  0  0  0  0  0
  140.8420  159.6190  135.2750 C   0  0  0  0  0  0  0  0  0  0  0  0
  141.1780  158.9090  136.4850 C   0  0  0  0  0  0  0  0  0  0  0  0
  140.8630  157.5460  136.5610 C   0  0  0  0  0  0  0  0  0  0  0  0
  141.8640  156.6620  136.9310 C   0  0  0  0  0  0  0  0  0  0  0  0
  141.9650  155.7380  135.8820 C   0  0  0  0  0  0  0  0  0  0  0  0
  143.2840  155.1650  135.5560 C   0  0  0  0  0  0  0  0  0  0  0  0
  143.5060  153.7590  135.6070 N   0  0  0  0  0  0  0  0  0  0  0  0
  144.2290  155.9720  135.2520 O   0  0  0  0  0  0  0  0  0  0  0  0
  141.0870  156.1540  134.9200 N   0  0  0  0  0  0  0  0  0  0  0  0
  140.6820  155.2240  133.8340 C   0  0  0  0  0  0  0  0  0  0  0  0
  139.5290  155.3300  133.3520 O   0  0  0  0  0  0  0  0  0  0  0  0
  141.2560  153.9430  133.9680 O   0  0  0  0  0  0  0  0  0  0  0  0
  141.0770  152.8580  133.0470 C   0  0  0  0  0  0  0  0  0  0  0  0
  141.3460  151.5720  133.7320 C   0  0  0  0  0  0  0  0  0  0  0  0
  141.3240  151.5060  134.9620 O   0  0  0  0  0  0  0  0  0  0  0  0
  140.1710  156.8890  135.5330 C   0  0  0  0  0  0  0  0  0  0  0  0
  139.3930  157.8670  134.7500 C   0  0  0  0  0  0  0  0  0  0  0  0
  137.1062  160.9829  131.5897 H   0  0  0  0  0  0  0  0  0  0  0  0
  137.9143  160.4841  129.9380 H   0  0  0  0  0  0  0  0  0  0  0  0
  141.0559  160.6908  135.1504 H   0  0  0  0  0  0  0  0  0  0  0  0
  141.6680  159.4236  137.3247 H   0  0  0  0  0  0  0  0  0  0  0  0
  142.4571  156.6815  137.8572 H   0  0  0  0  0  0  0  0  0  0  0  0
  142.7290  153.1040  135.3190 H   0  0  0  0  0  0  0  0  0  0  0  0
  144.4790  153.3860  135.5990 H   0  0  0  0  0  0  0  0  0  0  0  0
  140.0428  152.8633  132.6722 H   0  0  0  0  0  0  0  0  0  0  0  0
  141.7755  152.9756  132.2054 H   0  0  0  0  0  0  0  0  0  0  0  0
  141.5664  150.6719  133.1394 H   0  0  0  0  0  0  0  0  0  0  0  0
  138.3073  157.8155  134.5810 H   0  0  0  0  0  0  0  0  0  0  0  0
  1  2  2  3
  2  3  1  0
  3  4  1  0
  3  5  1  0
  3  6  1  0
  6  7  2  0
  7  8  1  0
  8  9  2  0
  9 10  1  0
 10 11  2  0
 11 12  1  0
 12 13  1  0
 12 14  2  0
 11 15  1  0
 15 16  1  0
 16 17  2  0
 16 18  1  0
 18 19  1  0
 19 20  1  0
 20 21  2  0
 15 22  1  0
 22 23  2  0
 23  6  1  0
 22  9  1  0
  1 24  1  0
  1 25  1  0
  7 26  1  0
  8 27  1  0
 10 28  1  0
 13 29  1  0
 13 30  1  0
 19 31  1  0
 19 32  1  0
 20 33  1  0
 23 34  1  0
M  END
>  <UniqueID>  (89) 
89

>  <SMILES>  (89) 
C=IC(F)(F)c1ccc2cc(C(N)=O)n(C(=O)OCC=O)c2c1

>  <Energy>  (89) 
341.5383245421722

>  <Genealogy>  (89) 
C=IC(F)(F)c1ccc2cc(C(N)=O)n(C(=O)OCC=O)c2c1 (3D coordinates assigned)
C=IC(F)(F)c1ccc2cc(C(N)=O)n(C(=O)OCC=O)c2c1 (optimized conformer: 341.5383245421722 kcal/mol)

>  <smiles>  (89) 
C=IC(F)(F)c1ccc2cc(C(N)=O)n(C(=O)OCC=O)c2c1

>  <score_type>  (89) 
oracle

>  <origin>  (89) 
adg

>  <m_score__min__energy>  (89) 
-6.1900000000000004

>  <m_primary>  (89) 
energy

$$$$
89:0
     RDKit          3D

 43 44  0  0  0  0  0  0  0  0999 V2000
  147.1600  152.0230  132.5080 C   0  0  0  0  0  0  0  0  0  0  0  0
  148.6220  152.0240  132.3760 N   0  0  0  0  0  0  0  0  0  0  0  0
  149.3320  153.3130  132.3180 C   0  0  0  0  0  0  0  0  0  0  0  0
  148.3900  154.5170  132.4900 C   0  0  0  0  0  0  0  0  0  0  0  0
  149.1160  155.8710  132.6090 C   0  0  0  0  0  0  0  0  0  0  0  0
  148.1710  157.0330  132.7970 C   0  0  0  0  0  0  0  0  0  0  0  0
  148.6210  158.3610  132.5730 C   0  0  0  0  0  0  0  0  0  0  0  0
  147.7510  159.4500  132.7330 C   0  0  0  0  0  0  0  0  0  0  0  0
  146.4480  159.1880  133.1430 C   0  0  0  0  0  0  0  0  0  0  0  0
  145.4000  160.0520  133.3560 C   0  0  0  0  0  0  0  0  0  0  0  0
  144.3350  159.2500  133.7610 C   0  0  0  0  0  0  0  0  0  0  0  0
  143.0280  159.7900  134.1860 C   0  0  0  0  0  0  0  0  0  0  0  0
  142.1770  160.4210  133.2310 N   0  0  0  0  0  0  0  0  0  0  0  0
  142.6700  159.7390  135.3910 O   0  0  0  0  0  0  0  0  0  0  0  0
  144.7080  157.9380  133.7880 N   0  0  0  0  0  0  0  0  0  0  0  0
  143.8820  156.7970  134.0760 C   0  0  0  0  0  0  0  0  0  0  0  0
  142.8060  156.6130  133.4480 O   0  0  0  0  0  0  0  0  0  0  0  0
  144.2490  155.8970  135.0690 O   0  0  0  0  0  0  0  0  0  0  0  0
  146.0060  157.9180  133.4090 C   0  0  0  0  0  0  0  0  0  0  0  0
  146.8470  156.8110  133.2370 C   0  0  0  0  0  0  0  0  0  0  0  0
  149.3490  150.7790  132.2410 C   0  0  0  0  0  0  0  0  0  0  0  0
  148.8130  149.6990  132.6160 O   0  0  0  0  0  0  0  0  0  0  0  0
  150.7070  150.7220  131.5770 C   0  0  0  0  0  0  0  0  0  0  0  0
  150.6180  150.1830  130.1820 C   0  0  0  0  0  0  0  0  0  0  0  0
  151.3200  148.9950  129.8290 N   0  0  0  0  0  0  0  0  0  0  0  0
  149.9570  150.8050  129.3070 O   0  0  0  0  0  0  0  0  0  0  0  0
  146.8881  152.0228  133.5739 H   0  0  0  0  0  0  0  0  0  0  0  0
  146.7476  152.9209  132.0245 H   0  0  0  0  0  0  0  0  0  0  0  0
  146.7488  151.1246  132.0245 H   0  0  0  0  0  0  0  0  0  0  0  0
  150.0842  153.3370  133.1203 H   0  0  0  0  0  0  0  0  0  0  0  0
  149.7957  153.3929  131.3237 H   0  0  0  0  0  0  0  0  0  0  0  0
  147.7205  154.5593  131.6182 H   0  0  0  0  0  0  0  0  0  0  0  0
  147.8477  154.3634  133.4346 H   0  0  0  0  0  0  0  0  0  0  0  0
  149.7962  155.8292  133.4725 H   0  0  0  0  0  0  0  0  0  0  0  0
  149.6582  156.0373  131.6665 H   0  0  0  0  0  0  0  0  0  0  0  0
  149.6637  158.5380  132.2705 H   0  0  0  0  0  0  0  0  0  0  0  0
  148.0889  160.4789  132.5402 H   0  0  0  0  0  0  0  0  0  0  0  0
  145.4019  161.1451  133.2328 H   0  0  0  0  0  0  0  0  0  0  0  0
  142.1410  160.0890  132.2420 H   0  0  0  0  0  0  0  0  0  0  0  0
  146.4848  155.7923  133.4399 H   0  0  0  0  0  0  0  0  0  0  0  0
  151.1294  151.7370  131.5410 H   0  0  0  0  0  0  0  0  0  0  0  0
  151.3488  150.0493  132.1649 H   0  0  0  0  0  0  0  0  0  0  0  0
  151.0850  148.0810  130.2740 H   0  0  0  0  0  0  0  0  0  0  0  0
  1  2  1  0
  2  3  1  0
  3  4  1  0
  4  5  1  0
  5  6  1  0
  6  7  2  0
  7  8  1  0
  8  9  2  0
  9 10  1  0
 10 11  2  0
 11 12  1  0
 12 13  1  0
 12 14  2  0
 11 15  1  0
 15 16  1  0
 16 17  2  0
 16 18  1  0
 15 19  1  0
 19 20  2  0
  2 21  1  0
 21 22  2  0
 21 23  1  0
 23 24  1  0
 24 25  1  0
 24 26  2  0
 20  6  1  0
 19  9  1  0
  1 27  1  0
  1 28  1  0
  1 29  1  0
  3 30  1  0
  3 31  1  0
  4 32  1  0
  4 33  1  0
  5 34  1  0
  5 35  1  0
  7 36  1  0
  8 37  1  0
 10 38  1  0
 13 39  1  0
 20 40  1  0
 23 41  1  0
 23 42  1  0
 25 43  1  0
M  CHG  3  13  -1  18  -1  25  -1
M  END
>  <UniqueID>  (90) 
90

>  <SMILES>  (90) 
CN(CCCc1ccc2cc(C([NH-])=O)n(C(=O)[O-])c2c1)C(=O)CC([NH-])=O

>  <Energy>  (90) 
74.19355390988191

>  <Genealogy>  (90) 
CN(CCCc1ccc2cc(C([NH-])=O)n(C(=O)[O-])c2c1)C(=O)CC([NH-])=O (protonated)
CN(CCCc1ccc2cc(C([NH-])=O)n(C(=O)[O-])c2c1)C(=O)CC([NH-])=O (3D coordinates assigned)
CN(CCCc1ccc2cc(C([NH-])=O)n(C(=O)[O-])c2c1)C(=O)CC([NH-])=O (optimized conformer: 74.19355390988191 kcal/mol)

>  <smiles>  (90) 
CN(CCCc1ccc2cc(C(N)=O)n(C(=O)O)c2c1)C(=O)CC(N)=O

>  <score_type>  (90) 
oracle

>  <origin>  (90) 
adg

>  <m_score__min__energy>  (90) 
-7.4299999999999997

>  <m_primary>  (90) 
energy

$$$$
90:0
     RDKit          3D

 40 42  0  0  0  0  0  0  0  0999 V2000
  138.5650  157.8680  132.4320 N   0  0  0  0  0  0  0  0  0  0  0  0
  139.7090  158.5080  132.9950 C   0  0  0  0  0  0  0  0  0  0  0  0
  140.3390  159.3570  132.3110 O   0  0  0  0  0  0  0  0  0  0  0  0
  140.1940  158.1500  134.3440 C   0  0  0  0  0  0  0  0  0  0  0  0
  140.2630  159.0570  135.4000 C   0  0  0  0  0  0  0  0  0  0  0  0
  140.8490  158.3670  136.4370 C   0  0  0  0  0  0  0  0  0  0  0  0
  141.1540  158.7830  137.7280 C   0  0  0  0  0  0  0  0  0  0  0  0
  141.7380  157.8490  138.6010 C   0  0  0  0  0  0  0  0  0  0  0  0
  141.9960  156.5210  138.1740 C   0  0  0  0  0  0  0  0  0  0  0  0
  142.6040  155.5690  139.0730 N   0  0  0  0  0  0  0  0  0  0  0  0
  141.5730  154.9060  139.8910 C   0  0  0  0  0  0  0  0  0  0  0  0
  140.1900  154.8760  139.2360 C   0  0  0  0  0  0  0  0  0  0  0  0
  140.2650  153.3570  139.1530 C   0  0  0  0  0  0  0  0  0  0  0  0
  141.6430  153.3820  139.7990 C   0  0  0  0  0  0  0  0  0  0  0  0
  141.6710  156.1370  136.8510 C   0  0  0  0  0  0  0  0  0  0  0  0
  141.1090  157.0940  135.9990 C   0  0  0  0  0  0  0  0  0  0  0  0
  140.7100  156.9430  134.7170 N   0  0  0  0  0  0  0  0  0  0  0  0
  140.7550  155.7290  133.9520 C   0  0  0  0  0  0  0  0  0  0  0  0
  139.7440  155.3600  133.2970 O   0  0  0  0  0  0  0  0  0  0  0  0
  141.9180  154.9490  133.9590 O   0  0  0  0  0  0  0  0  0  0  0  0
  142.0030  153.6770  134.5960 C   0  0  0  0  0  0  0  0  0  0  0  0
  143.0770  153.6890  135.6360 C   0  0  0  0  0  0  0  0  0  0  0  0
  144.2690  153.9360  135.3140 O   0  0  0  0  0  0  0  0  0  0  0  0
  142.7570  153.4570  136.9670 O   0  0  0  0  0  0  0  0  0  0  0  0
  138.3590  156.8650  132.6340 H   0  0  0  0  0  0  0  0  0  0  0  0
  139.9215  160.1027  135.4039 H   0  0  0  0  0  0  0  0  0  0  0  0
  140.9447  159.8118  138.0563 H   0  0  0  0  0  0  0  0  0  0  0  0
  141.9978  158.1510  139.6263 H   0  0  0  0  0  0  0  0  0  0  0  0
  143.1680  154.8670  138.5370 H   0  0  0  0  0  0  0  0  0  0  0  0
  143.2620  156.0800  139.7070 H   0  0  0  0  0  0  0  0  0  0  0  0
  141.7182  155.4266  140.8491 H   0  0  0  0  0  0  0  0  0  0  0  0
  139.3801  155.2516  139.8786 H   0  0  0  0  0  0  0  0  0  0  0  0
  139.9864  155.4742  138.3356 H   0  0  0  0  0  0  0  0  0  0  0  0
  139.5002  152.8375  139.7490 H   0  0  0  0  0  0  0  0  0  0  0  0
  140.1133  152.8464  138.1905 H   0  0  0  0  0  0  0  0  0  0  0  0
  141.6910  152.8751  140.7740 H   0  0  0  0  0  0  0  0  0  0  0  0
  142.4969  152.8928  139.3076 H   0  0  0  0  0  0  0  0  0  0  0  0
  141.8559  155.1107  136.5010 H   0  0  0  0  0  0  0  0  0  0  0  0
  141.0391  153.4444  135.0722 H   0  0  0  0  0  0  0  0  0  0  0  0
  142.2439  152.9139  133.8412 H   0  0  0  0  0  0  0  0  0  0  0  0
  1  2  1  0
  2  3  2  0
  2  4  1  0
  4  5  2  0
  5  6  1  0
  6  7  2  0
  7  8  1  0
  8  9  2  0
  9 10  1  0
 10 11  1  0
 11 12  1  0
 12 13  1  0
 13 14  1  0
  9 15  1  0
 15 16  2  0
 16 17  1  0
 17 18  1  0
 18 19  2  0
 18 20  1  0
 20 21  1  0
 21 22  1  0
 22 23  2  0
 22 24  1  0
 17  4  1  0
 16  6  1  0
 14 11  1  0
  1 25  1  0
  5 26  1  0
  7 27  1  0
  8 28  1  0
 10 29  1  0
 10 30  1  0
 11 31  1  0
 12 32  1  0
 12 33  1  0
 13 34  1  0
 13 35  1  0
 14 36  1  0
 14 37  1  0
 15 38  1  0
 21 39  1  0
 21 40  1  0
M  CHG  3   1  -1  10   1  24  -1
M  END
>  <UniqueID>  (91) 
91

>  <SMILES>  (91) 
[NH-]C(=O)c1cc2ccc([NH2+]C3CCC3)cc2n1C(=O)OCC(=O)[O-]

>  <Energy>  (91) 
138.79426398643648

>  <Genealogy>  (91) 
[NH-]C(=O)c1cc2ccc([NH2+]C3CCC3)cc2n1C(=O)OCC(=O)[O-] (protonated)
[NH-]C(=O)c1cc2ccc([NH2+]C3CCC3)cc2n1C(=O)OCC(=O)[O-] (3D coordinates assigned)
[NH-]C(=O)c1cc2ccc([NH2+]C3CCC3)cc2n1C(=O)OCC(=O)[O-] (nonaromatic ring conformer: 138.79426398643648 kcal/mol)

>  <smiles>  (91) 
NC(=O)c1cc2ccc(NC3CCC3)cc2n1C(=O)OCC(=O)O

>  <score_type>  (91) 
oracle

>  <origin>  (91) 
adg

>  <m_score__min__energy>  (91) 
-6.1399999999999997

>  <m_primary>  (91) 
energy

$$$$
91:0
     RDKit          3D

 41 43  0  0  0  0  0  0  0  0999 V2000
  139.5540  149.7860  131.3420 C   0  0  0  0  0  0  0  0  0  0  0  0
  140.8030  149.6930  132.6050 S   0  0  0  0  0  0  0  0  0  0  0  0
  141.9560  148.8650  132.1120 O   0  0  0  0  0  0  0  0  0  0  0  0
  140.2290  149.0390  133.8310 O   0  0  0  0  0  0  0  0  0  0  0  0
  141.3580  151.3160  132.9980 C   0  0  0  0  0  0  0  0  0  0  0  0
  140.4690  152.3960  132.9490 C   0  0  0  0  0  0  0  0  0  0  0  0
  140.9130  153.6870  133.2500 C   0  0  0  0  0  0  0  0  0  0  0  0
  142.2540  153.9180  133.6070 C   0  0  0  0  0  0  0  0  0  0  0  0
  142.7010  155.2920  133.9380 C   0  0  0  0  0  0  0  0  0  0  0  0
  143.6410  155.8160  133.2820 O   0  0  0  0  0  0  0  0  0  0  0  0
  142.0680  156.0510  134.9830 N   0  0  0  0  0  0  0  0  0  0  0  0
  141.6250  157.3370  134.9190 C   0  0  0  0  0  0  0  0  0  0  0  0
  141.8390  158.2560  133.7770 C   0  0  0  0  0  0  0  0  0  0  0  0
  141.9570  157.7560  132.4440 N   0  0  0  0  0  0  0  0  0  0  0  0
  141.9030  159.4990  133.9720 O   0  0  0  0  0  0  0  0  0  0  0  0
  140.9980  157.6940  136.1130 C   0  0  0  0  0  0  0  0  0  0  0  0
  141.0640  156.5730  136.9090 C   0  0  0  0  0  0  0  0  0  0  0  0
  140.5860  156.3610  138.2000 C   0  0  0  0  0  0  0  0  0  0  0  0
  140.7760  155.0900  138.7710 C   0  0  0  0  0  0  0  0  0  0  0  0
  141.4270  154.0620  138.0460 C   0  0  0  0  0  0  0  0  0  0  0  0
  141.6120  152.7080  138.6710 C   0  0  0  0  0  0  0  0  0  0  0  0
  141.4110  151.7250  137.7180 F   0  0  0  0  0  0  0  0  0  0  0  0
  140.7010  152.5410  139.6980 F   0  0  0  0  0  0  0  0  0  0  0  0
  141.8960  154.3140  136.7370 C   0  0  0  0  0  0  0  0  0  0  0  0
  141.7090  155.5940  136.2020 C   0  0  0  0  0  0  0  0  0  0  0  0
  143.1490  152.8290  133.6310 C   0  0  0  0  0  0  0  0  0  0  0  0
  144.4650  153.0100  133.9120 F   0  0  0  0  0  0  0  0  0  0  0  0
  142.7000  151.5400  133.3300 C   0  0  0  0  0  0  0  0  0  0  0  0
  138.5622  149.8598  131.8119 H   0  0  0  0  0  0  0  0  0  0  0  0
  139.7304  150.6735  130.7165 H   0  0  0  0  0  0  0  0  0  0  0  0
  139.5970  148.8822  130.7165 H   0  0  0  0  0  0  0  0  0  0  0  0
  139.4175  152.2284  132.6728 H   0  0  0  0  0  0  0  0  0  0  0  0
  140.2074  154.5298  133.2073 H   0  0  0  0  0  0  0  0  0  0  0  0
  141.9760  156.7320  132.2440 H   0  0  0  0  0  0  0  0  0  0  0  0
  142.0720  158.4200  131.6450 H   0  0  0  0  0  0  0  0  0  0  0  0
  140.5467  158.6651  136.3648 H   0  0  0  0  0  0  0  0  0  0  0  0
  140.0762  157.1622  138.7552 H   0  0  0  0  0  0  0  0  0  0  0  0
  140.4153  154.8921  139.7912 H   0  0  0  0  0  0  0  0  0  0  0  0
  142.6341  152.6309  139.0701 H   0  0  0  0  0  0  0  0  0  0  0  0
  142.3946  153.5255  136.1541 H   0  0  0  0  0  0  0  0  0  0  0  0
  143.4052  150.6961  133.3540 H   0  0  0  0  0  0  0  0  0  0  0  0
  1  2  1  0
  2  3  2  0
  2  4  2  0
  2  5  1  0
  5  6  2  0
  6  7  1  0
  7  8  2  0
  8  9  1  0
  9 10  2  0
  9 11  1  0
 11 12  1  0
 12 13  1  0
 13 14  1  0
 13 15  2  0
 12 16  2  0
 16 17  1  0
 17 18  2  0
 18 19  1  0
 19 20  2  0
 20 21  1  0
 21 22  1  0
 21 23  1  0
 20 24  1  0
 24 25  2  0
  8 26  1  0
 26 27  1  0
 26 28  2  0
 28  5  1  0
 25 11  1  0
 25 17  1  0
  1 29  1  0
  1 30  1  0
  1 31  1  0
  6 32  1  0
  7 33  1  0
 14 34  1  0
 14 35  1  0
 16 36  1  0
 18 37  1  0
 19 38  1  0
 21 39  1  0
 24 40  1  0
 28 41  1  0
M  END
>  <UniqueID>  (92) 
92

>  <SMILES>  (92) 
CS(=O)(=O)c1ccc(C(=O)n2c(C(N)=O)cc3ccc(C(F)F)cc32)c(F)c1

>  <Energy>  (92) 
82.00167067417162

>  <Genealogy>  (92) 
CS(=O)(=O)c1ccc(C(=O)n2c(C(N)=O)cc3ccc(C(F)F)cc32)c(F)c1 (3D coordinates assigned)
CS(=O)(=O)c1ccc(C(=O)n2c(C(N)=O)cc3ccc(C(F)F)cc32)c(F)c1 (optimized conformer: 82.00167067417162 kcal/mol)

>  <smiles>  (92) 
CS(=O)(=O)c1ccc(C(=O)n2c(C(N)=O)cc3ccc(C(F)F)cc32)c(F)c1

>  <score_type>  (92) 
oracle

>  <origin>  (92) 
adg

>  <m_score__min__energy>  (92) 
-8.6600000000000001

>  <m_primary>  (92) 
energy

$$$$
92:0
     RDKit          3D

 38 40  0  0  0  0  0  0  0  0999 V2000
  139.6210  158.1490  136.8670 N   0  0  0  0  0  0  0  0  0  0  0  0
  139.7780  158.2480  135.4530 C   0  0  0  0  0  0  0  0  0  0  0  0
  138.7730  158.0940  134.7090 O   0  0  0  0  0  0  0  0  0  0  0  0
  141.1180  158.4830  134.8760 C   0  0  0  0  0  0  0  0  0  0  0  0
  141.6720  159.7520  134.7180 C   0  0  0  0  0  0  0  0  0  0  0  0
  142.9450  159.5360  134.2420 C   0  0  0  0  0  0  0  0  0  0  0  0
  143.9340  160.4490  133.8950 C   0  0  0  0  0  0  0  0  0  0  0  0
  145.1490  159.9480  133.4000 C   0  0  0  0  0  0  0  0  0  0  0  0
  145.3630  158.5500  133.2590 C   0  0  0  0  0  0  0  0  0  0  0  0
  146.6180  158.0650  132.6980 N   0  0  1  0  0  0  0  0  0  0  0  0
  147.4990  159.1670  132.2580 C   0  0  0  0  0  0  0  0  0  0  0  0
  148.6760  159.2660  133.2250 C   0  0  0  0  0  0  0  0  0  0  0  0
  148.4860  158.1590  134.2440 C   0  0  0  0  0  0  0  0  0  0  0  0
  147.3780  157.2650  133.6880 C   0  0  2  0  0  0  0  0  0  0  0  0
  147.9500  155.9700  133.0620 C   0  0  0  0  0  0  0  0  0  0  0  0
  147.2580  155.6160  131.8930 O   0  0  0  0  0  0  0  0  0  0  0  0
  144.3180  157.6570  133.6150 C   0  0  0  0  0  0  0  0  0  0  0  0
  143.1250  158.1850  134.1220 C   0  0  0  0  0  0  0  0  0  0  0  0
  142.0100  157.5220  134.5050 N   0  0  0  0  0  0  0  0  0  0  0  0
  141.7990  156.1010  134.4510 C   0  0  0  0  0  0  0  0  0  0  0  0
  142.4770  155.3290  135.1780 O   0  0  0  0  0  0  0  0  0  0  0  0
  140.8640  155.5630  133.5750 O   0  0  0  0  0  0  0  0  0  0  0  0
  139.4700  159.0010  137.4510 H   0  0  0  0  0  0  0  0  0  0  0  0
  141.1937  160.7199  134.9288 H   0  0  0  0  0  0  0  0  0  0  0  0
  143.7700  161.5311  134.0048 H   0  0  0  0  0  0  0  0  0  0  0  0
  145.9480  160.6489  133.1168 H   0  0  0  0  0  0  0  0  0  0  0  0
  146.3970  157.4840  131.8540 H   0  0  0  0  0  0  0  0  0  0  0  0
  147.8698  158.9621  131.2428 H   0  0  0  0  0  0  0  0  0  0  0  0
  146.9397  160.1142  132.2489 H   0  0  0  0  0  0  0  0  0  0  0  0
  149.6246  159.1279  132.6854 H   0  0  0  0  0  0  0  0  0  0  0  0
  148.7124  160.2528  133.7097 H   0  0  0  0  0  0  0  0  0  0  0  0
  149.4168  157.5852  134.3640 H   0  0  0  0  0  0  0  0  0  0  0  0
  148.2227  158.5611  135.2335 H   0  0  0  0  0  0  0  0  0  0  0  0
  146.7120  156.9353  134.4990 H   0  0  0  0  0  0  0  0  0  0  0  0
  149.0101  156.1298  132.8156 H   0  0  0  0  0  0  0  0  0  0  0  0
  147.8368  155.1543  133.7912 H   0  0  0  0  0  0  0  0  0  0  0  0
  147.7600  154.8690  131.4740 H   0  0  0  0  0  0  0  0  0  0  0  0
  144.4436  156.5708  133.4946 H   0  0  0  0  0  0  0  0  0  0  0  0
  1  2  1  0
  2  3  2  0
  2  4  1  0
  4  5  2  0
  5  6  1  0
  6  7  2  0
  7  8  1  0
  8  9  2  0
  9 10  1  0
 10 11  1  0
 11 12  1  0
 12 13  1  0
 13 14  1  0
 14 15  1  0
 15 16  1  0
  9 17  1  0
 17 18  2  0
 18 19  1  0
 19 20  1  0
 20 21  2  0
 20 22  1  0
 19  4  1  0
 18  6  1  0
 14 10  1  0
  1 23  1  0
  5 24  1  0
  7 25  1  0
  8 26  1  0
 10 27  1  6
 11 28  1  0
 11 29  1  0
 12 30  1  0
 12 31  1  0
 13 32  1  0
 13 33  1  0
 14 34  1  1
 15 35  1  0
 15 36  1  0
 16 37  1  0
 17 38  1  0
M  CHG  3   1  -1  10   1  22  -1
M  END
>  <UniqueID>  (93) 
93

>  <SMILES>  (93) 
[NH-]C(=O)c1cc2ccc([N@H+]3CCC[C@@H]3CO)cc2n1C(=O)[O-]

>  <Energy>  (93) 
86.78749986433347

>  <Genealogy>  (93) 
[NH-]C(=O)c1cc2ccc([NH+]3CCCC3CO)cc2n1C(=O)[O-] (protonated)
[NH-]C(=O)c1cc2ccc([N@H+]3CCC[C@@H]3CO)cc2n1C(=O)[O-] (chirality)
[NH-]C(=O)c1cc2ccc([N@H+]3CCC[C@@H]3CO)cc2n1C(=O)[O-] (3D coordinates assigned)
[NH-]C(=O)c1cc2ccc([N@H+]3CCC[C@@H]3CO)cc2n1C(=O)[O-] (nonaromatic ring conformer: 86.78749986433347 kcal/mol)

>  <smiles>  (93) 
NC(=O)c1cc2ccc(N3CCCC3CO)cc2n1C(=O)O

>  <score_type>  (93) 
oracle

>  <origin>  (93) 
adg

>  <m_score__min__energy>  (93) 
-6.5899999999999999

>  <m_primary>  (93) 
energy

$$$$
93:0
     RDKit          3D

 29 30  0  0  0  0  0  0  0  0999 V2000
  149.2220  154.7670  132.6160 C   0  0  0  0  0  0  0  0  0  0  0  0
  148.8870  156.1660  132.8490 N   0  0  0  0  0  0  0  0  0  0  0  0
  147.6300  156.7210  132.4410 C   0  0  0  0  0  0  0  0  0  0  0  0
  146.7540  155.9830  131.9150 O   0  0  0  0  0  0  0  0  0  0  0  0
  147.3670  158.1200  132.6250 N   0  0  0  0  0  0  0  0  0  0  0  0
  148.2150  159.1650  132.4130 C   0  0  0  0  0  0  0  0  0  0  0  0
  149.5640  159.0810  131.8120 C   0  0  0  0  0  0  0  0  0  0  0  0
  150.0030  160.0420  130.8550 N   0  0  0  0  0  0  0  0  0  0  0  0
  150.3530  158.1690  132.1760 O   0  0  0  0  0  0  0  0  0  0  0  0
  147.6110  160.3650  132.7840 C   0  0  0  0  0  0  0  0  0  0  0  0
  146.3560  160.0190  133.2310 C   0  0  0  0  0  0  0  0  0  0  0  0
  145.3300  160.8170  133.7250 C   0  0  0  0  0  0  0  0  0  0  0  0
  144.1450  160.1850  134.1420 C   0  0  0  0  0  0  0  0  0  0  0  0
  144.0180  158.7720  134.0840 C   0  0  0  0  0  0  0  0  0  0  0  0
  142.7280  158.1100  134.4990 C   0  0  0  0  0  0  0  0  0  0  0  0
  141.9220  157.8790  133.3980 F   0  0  0  0  0  0  0  0  0  0  0  0
  142.0590  158.9320  135.3840 F   0  0  0  0  0  0  0  0  0  0  0  0
  142.9790  156.8940  135.1140 F   0  0  0  0  0  0  0  0  0  0  0  0
  145.0770  157.9990  133.5540 C   0  0  0  0  0  0  0  0  0  0  0  0
  146.2350  158.6580  133.1280 C   0  0  0  0  0  0  0  0  0  0  0  0
  149.3449  154.2537  133.5811 H   0  0  0  0  0  0  0  0  0  0  0  0
  148.4135  154.2865  132.0455 H   0  0  0  0  0  0  0  0  0  0  0  0
  150.1604  154.7048  132.0455 H   0  0  0  0  0  0  0  0  0  0  0  0
  149.5770  156.7750  133.3440 H   0  0  0  0  0  0  0  0  0  0  0  0
  150.7440  160.7380  131.0950 H   0  0  0  0  0  0  0  0  0  0  0  0
  148.0451  161.3743  132.7309 H   0  0  0  0  0  0  0  0  0  0  0  0
  145.4419  161.9095  133.7877 H   0  0  0  0  0  0  0  0  0  0  0  0
  143.3076  160.7917  134.5171 H   0  0  0  0  0  0  0  0  0  0  0  0
  144.9921  156.9049  133.4785 H   0  0  0  0  0  0  0  0  0  0  0  0
  1  2  1  0
  2  3  1  0
  3  4  2  0
  3  5  1  0
  5  6  1  0
  6  7  1  0
  7  8  1  0
  7  9  2  0
  6 10  2  0
 10 11  1  0
 11 12  2  0
 12 13  1  0
 13 14  2  0
 14 15  1  0
 15 16  1  0
 15 17  1  0
 15 18  1  0
 14 19  1  0
 19 20  2  0
 20  5  1  0
 20 11  1  0
  1 21  1  0
  1 22  1  0
  1 23  1  0
  2 24  1  0
  8 25  1  0
 10 26  1  0
 12 27  1  0
 13 28  1  0
 19 29  1  0
M  CHG  1   8  -1
M  END
>  <UniqueID>  (94) 
94

>  <SMILES>  (94) 
CNC(=O)n1c(C([NH-])=O)cc2ccc(C(F)(F)F)cc21

>  <Energy>  (94) 
66.50471325857431

>  <Genealogy>  (94) 
CNC(=O)n1c(C([NH-])=O)cc2ccc(C(F)(F)F)cc21 (protonated)
CNC(=O)n1c(C([NH-])=O)cc2ccc(C(F)(F)F)cc21 (3D coordinates assigned)
CNC(=O)n1c(C([NH-])=O)cc2ccc(C(F)(F)F)cc21 (optimized conformer: 66.50471325857431 kcal/mol)

>  <smiles>  (94) 
CNC(=O)n1c(C(N)=O)cc2ccc(C(F)(F)F)cc21

>  <score_type>  (94) 
oracle

>  <origin>  (94) 
adg

>  <m_score__min__energy>  (94) 
-5.8399999999999999

>  <m_primary>  (94) 
energy

$$$$
94:0
     RDKit          3D

 42 43  0  0  0  0  0  0  0  0999 V2000
  149.9720  150.7320  130.8850 C   0  0  0  0  0  0  0  0  0  0  0  0
  148.9940  151.3230  131.8120 N   0  0  0  0  0  0  0  0  0  0  0  0
  147.9400  150.3580  132.1590 C   0  0  0  0  0  0  0  0  0  0  0  0
  149.6270  151.9410  132.9990 C   0  0  0  0  0  0  0  0  0  0  0  0
  148.8490  153.1380  133.5840 C   0  0  0  0  0  0  0  0  0  0  0  0
  147.7950  153.5590  132.6610 N   0  0  0  0  0  0  0  0  0  0  0  0
  146.9060  154.6720  132.8850 C   0  0  0  0  0  0  0  0  0  0  0  0
  145.5040  154.4920  133.0460 C   0  0  0  0  0  0  0  0  0  0  0  0
  144.6570  155.5950  133.2500 C   0  0  0  0  0  0  0  0  0  0  0  0
  145.2310  156.8600  133.2930 C   0  0  0  0  0  0  0  0  0  0  0  0
  144.6440  158.0960  133.4480 C   0  0  0  0  0  0  0  0  0  0  0  0
  145.6940  159.0100  133.4020 C   0  0  0  0  0  0  0  0  0  0  0  0
  145.5170  160.4630  133.5930 C   0  0  0  0  0  0  0  0  0  0  0  0
  146.6400  161.3350  133.7310 N   0  0  0  0  0  0  0  0  0  0  0  0
  144.3540  160.9390  133.6830 O   0  0  0  0  0  0  0  0  0  0  0  0
  146.8800  158.3680  133.2090 N   0  0  0  0  0  0  0  0  0  0  0  0
  148.1770  158.9470  132.9910 C   0  0  0  0  0  0  0  0  0  0  0  0
  148.8520  159.3590  133.9730 O   0  0  0  0  0  0  0  0  0  0  0  0
  148.7660  159.0240  131.6130 C   0  0  0  0  0  0  0  0  0  0  0  0
  150.0230  159.6410  131.6610 O   0  0  0  0  0  0  0  0  0  0  0  0
  146.5800  157.0520  133.1510 C   0  0  0  0  0  0  0  0  0  0  0  0
  147.4450  155.9770  132.9300 C   0  0  0  0  0  0  0  0  0  0  0  0
  150.7749  150.2468  131.4594 H   0  0  0  0  0  0  0  0  0  0  0  0
  149.4716  149.9850  130.2513 H   0  0  0  0  0  0  0  0  0  0  0  0
  150.4006  151.5224  130.2513 H   0  0  0  0  0  0  0  0  0  0  0  0
  147.8577  150.2826  133.2533 H   0  0  0  0  0  0  0  0  0  0  0  0
  146.9805  150.6972  131.7416 H   0  0  0  0  0  0  0  0  0  0  0  0
  148.1934  149.3723  131.7416 H   0  0  0  0  0  0  0  0  0  0  0  0
  149.7156  151.1726  133.7811 H   0  0  0  0  0  0  0  0  0  0  0  0
  150.6014  152.3303  132.6689 H   0  0  0  0  0  0  0  0  0  0  0  0
  148.3958  152.8429  134.5419 H   0  0  0  0  0  0  0  0  0  0  0  0
  149.5449  153.9758  133.7383 H   0  0  0  0  0  0  0  0  0  0  0  0
  147.6730  152.9940  131.7900 H   0  0  0  0  0  0  0  0  0  0  0  0
  145.0781  153.4784  133.0105 H   0  0  0  0  0  0  0  0  0  0  0  0
  143.5720  155.4610  133.3720 H   0  0  0  0  0  0  0  0  0  0  0  0
  143.5741  158.3148  133.5800 H   0  0  0  0  0  0  0  0  0  0  0  0
  146.4950  162.3660  133.8150 H   0  0  0  0  0  0  0  0  0  0  0  0
  147.6070  160.9590  133.8420 H   0  0  0  0  0  0  0  0  0  0  0  0
  148.8748  158.0077  131.2064 H   0  0  0  0  0  0  0  0  0  0  0  0
  148.0988  159.6153  130.9686 H   0  0  0  0  0  0  0  0  0  0  0  0
  150.4390  159.3690  132.5210 H   0  0  0  0  0  0  0  0  0  0  0  0
  148.5238  156.1436  132.7938 H   0  0  0  0  0  0  0  0  0  0  0  0
  1  2  1  0
  2  3  1  0
  2  4  1  0
  4  5  1  0
  5  6  1  0
  6  7  1  0
  7  8  2  0
  8  9  1  0
  9 10  2  0
 10 11  1  0
 11 12  2  0
 12 13  1  0
 13 14  1  0
 13 15  2  0
 12 16  1  0
 16 17  1  0
 17 18  2  0
 17 19  1  0
 19 20  1  0
 16 21  1  0
 21 22  2  0
 22  7  1  0
 21 10  1  0
  1 23  1  0
  1 24  1  0
  1 25  1  0
  3 26  1  0
  3 27  1  0
  3 28  1  0
  4 29  1  0
  4 30  1  0
  5 31  1  0
  5 32  1  0
  6 33  1  0
  8 34  1  0
  9 35  1  0
 11 36  1  0
 14 37  1  0
 14 38  1  0
 19 39  1  0
 19 40  1  0
 20 41  1  0
 22 42  1  0
M  END
>  <UniqueID>  (95) 
95

>  <SMILES>  (95) 
CN(C)CCNc1ccc2cc(C(N)=O)n(C(=O)CO)c2c1

>  <Energy>  (95) 
82.21106910037498

>  <Genealogy>  (95) 
CN(C)CCNc1ccc2cc(C(N)=O)n(C(=O)CO)c2c1 (3D coordinates assigned)
CN(C)CCNc1ccc2cc(C(N)=O)n(C(=O)CO)c2c1 (optimized conformer: 82.21106910037498 kcal/mol)

>  <smiles>  (95) 
CN(C)CCNc1ccc2cc(C(N)=O)n(C(=O)CO)c2c1

>  <score_type>  (95) 
oracle

>  <origin>  (95) 
adg

>  <m_score__min__energy>  (95) 
-6.3099999999999996

>  <m_primary>  (95) 
energy

$$$$
95:0
     RDKit          3D

 30 31  0  0  0  0  0  0  0  0999 V2000
  147.8310  161.8380  131.8620 H   0  0  0  0  0  0  0  0  0  0  0  0
  148.2470  161.2370  131.1170 N   0  0  0  0  0  0  0  0  0  0  0  0
  149.1440  160.1790  131.4440 C   0  0  0  0  0  0  0  0  0  0  0  0
  150.3540  160.2690  131.1060 O   0  0  0  0  0  0  0  0  0  0  0  0
  148.6650  158.9610  132.1300 C   0  0  0  0  0  0  0  0  0  0  0  0
  149.2930  157.7210  132.0250 C   0  0  0  0  0  0  0  0  0  0  0  0
  150.2286  157.4904  131.4945 H   0  0  0  0  0  0  0  0  0  0  0  0
  148.4940  156.8460  132.7260 C   0  0  0  0  0  0  0  0  0  0  0  0
  148.6510  155.4850  132.9670 C   0  0  0  0  0  0  0  0  0  0  0  0
  149.5077  154.9314  132.5552 H   0  0  0  0  0  0  0  0  0  0  0  0
  147.6810  154.8390  133.7530 C   0  0  0  0  0  0  0  0  0  0  0  0
  147.7832  153.7652  133.9685 H   0  0  0  0  0  0  0  0  0  0  0  0
  146.5710  155.5560  134.2720 C   0  0  0  0  0  0  0  0  0  0  0  0
  145.5710  154.8650  135.1620 C   0  0  0  0  0  0  0  0  0  0  0  0
  145.0660  153.7340  134.5440 F   0  0  0  0  0  0  0  0  0  0  0  0
  144.5120  155.7070  135.4550 F   0  0  0  0  0  0  0  0  0  0  0  0
  146.1910  154.4940  136.3410 F   0  0  0  0  0  0  0  0  0  0  0  0
  146.4620  156.9440  134.0250 C   0  0  0  0  0  0  0  0  0  0  0  0
  145.6320  157.5280  134.4493 H   0  0  0  0  0  0  0  0  0  0  0  0
  147.4350  157.5570  133.2280 C   0  0  0  0  0  0  0  0  0  0  0  0
  147.5290  158.8570  132.8760 N   0  0  0  0  0  0  0  0  0  0  0  0
  146.6410  159.9070  133.2890 C   0  0  0  0  0  0  0  0  0  0  0  0
  147.1200  160.9920  133.7180 O   0  0  0  0  0  0  0  0  0  0  0  0
  145.1810  159.7320  133.1640 C   0  0  0  0  0  0  0  0  0  0  0  0
  144.7948  159.0014  132.4380 H   0  0  0  0  0  0  0  0  0  0  0  0
  144.3100  160.4300  133.9020 C   0  0  0  0  0  0  0  0  0  0  0  0
  144.6921  161.1636  134.6271 H   0  0  0  0  0  0  0  0  0  0  0  0
  142.8560  160.2450  133.7720 C   0  0  0  0  0  0  0  0  0  0  0  0
  142.1060  161.2530  133.6970 O   0  0  0  0  0  0  0  0  0  0  0  0
  142.2960  158.9740  133.7310 O   0  0  0  0  0  0  0  0  0  0  0  0
  1  2  1  0
  2  3  1  0
  3  4  2  0
  3  5  1  0
  5  6  2  0
  6  7  1  0
  6  8  1  0
  8  9  2  0
  9 10  1  0
  9 11  1  0
 11 12  1  0
 11 13  2  0
 13 14  1  0
 14 15  1  0
 14 16  1  0
 14 17  1  0
 13 18  1  0
 18 19  1  0
 18 20  2  0
 20 21  1  0
 21 22  1  0
 22 23  2  0
 22 24  1  0
 24 25  1  0
 24 26  2  0
 26 27  1  0
 26 28  1  0
 28 29  2  0
 28 30  1  0
 21  5  1  0
 20  8  1  0
M  CHG  2   2  -1  30  -1
M  END
>  <UniqueID>  (96) 
96

>  <SMILES>  (96) 
[NH-]C(=O)c1cc2ccc(C(F)(F)F)cc2n1C(=O)/C=C/C(=O)[O-]

>  <Energy>  (96) 
69.19804724616078

>  <Genealogy>  (96) 
[NH-]C(=O)c1cc2ccc(C(F)(F)F)cc2n1C(=O)C=CC(=O)[O-] (protonated)
[NH-]C(=O)c1cc2ccc(C(F)(F)F)cc2n1C(=O)/C=C/C(=O)[O-] (cis-trans isomerization)
[NH-]C(=O)c1cc2ccc(C(F)(F)F)cc2n1C(=O)/C=C/C(=O)[O-] (3D coordinates assigned)
[NH-]C(=O)c1cc2ccc(C(F)(F)F)cc2n1C(=O)/C=C/C(=O)[O-] (optimized conformer: 69.19804724616078 kcal/mol)

>  <smiles>  (96) 
NC(=O)c1cc2ccc(C(F)(F)F)cc2n1C(=O)C=CC(=O)O

>  <score_type>  (96) 
oracle

>  <origin>  (96) 
adg

>  <m_score__min__energy>  (96) 
-6.6299999999999999

>  <m_primary>  (96) 
energy

$$$$
96:0
     RDKit          3D

 41 42  0  0  0  0  0  0  0  0999 V2000
  139.0650  159.4090  131.0940 C   0  0  0  0  0  0  0  0  0  0  0  0
  138.6990  158.2440  132.0160 C   0  0  0  0  0  0  0  0  0  0  0  0
  139.7710  157.8610  133.0760 C   0  0  0  0  0  0  0  0  0  0  0  0
  139.1420  157.5830  134.4620 C   0  0  0  0  0  0  0  0  0  0  0  0
  140.7210  159.0620  133.2350 C   0  0  0  0  0  0  0  0  0  0  0  0
  140.5870  156.7670  132.6210 O   0  0  0  0  0  0  0  0  0  0  0  0
  140.5030  155.4150  132.9890 C   0  0  0  0  0  0  0  0  0  0  0  0
  139.3930  154.8720  133.2300 O   0  0  0  0  0  0  0  0  0  0  0  0
  141.7060  154.6370  133.0780 N   0  0  0  0  0  0  0  0  0  0  0  0
  142.9870  155.0980  133.1500 C   0  0  0  0  0  0  0  0  0  0  0  0
  143.3780  156.5160  133.3140 C   0  0  0  0  0  0  0  0  0  0  0  0
  143.0290  157.4890  132.3280 N   0  0  0  0  0  0  0  0  0  0  0  0
  144.0530  156.8740  134.3150 O   0  0  0  0  0  0  0  0  0  0  0  0
  143.8890  154.0360  133.1350 C   0  0  0  0  0  0  0  0  0  0  0  0
  143.1160  152.9020  133.0520 C   0  0  0  0  0  0  0  0  0  0  0  0
  143.4940  151.5650  132.9750 C   0  0  0  0  0  0  0  0  0  0  0  0
  142.4820  150.5980  132.8550 C   0  0  0  0  0  0  0  0  0  0  0  0
  141.1150  150.9800  132.8210 C   0  0  0  0  0  0  0  0  0  0  0  0
  140.0420  149.9390  132.6260 C   0  0  0  0  0  0  0  0  0  0  0  0
  139.8610  149.2440  133.8070 F   0  0  0  0  0  0  0  0  0  0  0  0
  140.4020  149.0480  131.6300 F   0  0  0  0  0  0  0  0  0  0  0  0
  138.8450  150.5320  132.2640 F   0  0  0  0  0  0  0  0  0  0  0  0
  140.7730  152.3510  132.8770 C   0  0  0  0  0  0  0  0  0  0  0  0
  141.8020  153.2900  133.0170 C   0  0  0  0  0  0  0  0  0  0  0  0
  139.3400  160.2844  131.7007 H   0  0  0  0  0  0  0  0  0  0  0  0
  139.9159  159.1209  130.4592 H   0  0  0  0  0  0  0  0  0  0  0  0
  138.2022  159.6593  130.4592 H   0  0  0  0  0  0  0  0  0  0  0  0
  137.7760  158.5130  132.5505 H   0  0  0  0  0  0  0  0  0  0  0  0
  138.5957  157.3652  131.3626 H   0  0  0  0  0  0  0  0  0  0  0  0
  139.8427  157.8927  135.2514 H   0  0  0  0  0  0  0  0  0  0  0  0
  138.2050  158.1508  134.5600 H   0  0  0  0  0  0  0  0  0  0  0  0
  138.9311  156.5078  134.5600 H   0  0  0  0  0  0  0  0  0  0  0  0
  140.8808  159.2640  134.3044 H   0  0  0  0  0  0  0  0  0  0  0  0
  141.6849  158.8328  132.7571 H   0  0  0  0  0  0  0  0  0  0  0  0
  140.2761  159.9472  132.7571 H   0  0  0  0  0  0  0  0  0  0  0  0
  143.3420  158.4790  132.4350 H   0  0  0  0  0  0  0  0  0  0  0  0
  142.4250  157.2420  131.5120 H   0  0  0  0  0  0  0  0  0  0  0  0
  144.9866  154.0928  133.1800 H   0  0  0  0  0  0  0  0  0  0  0  0
  144.5543  151.2738  133.0072 H   0  0  0  0  0  0  0  0  0  0  0  0
  142.7515  149.5337  132.7867 H   0  0  0  0  0  0  0  0  0  0  0  0
  139.7229  152.6722  132.8121 H   0  0  0  0  0  0  0  0  0  0  0  0
  1  2  1  0
  2  3  1  0
  3  4  1  0
  3  5  1  0
  3  6  1  0
  6  7  1  0
  7  8  2  0
  7  9  1  0
  9 10  1  0
 10 11  1  0
 11 12  1  0
 11 13  2  0
 10 14  2  0
 14 15  1  0
 15 16  2  0
 16 17  1  0
 17 18  2  0
 18 19  1  0
 19 20  1  0
 19 21  1  0
 19 22  1  0
 18 23  1  0
 23 24  2  0
 24  9  1  0
 24 15  1  0
  1 25  1  0
  1 26  1  0
  1 27  1  0
  2 28  1  0
  2 29  1  0
  4 30  1  0
  4 31  1  0
  4 32  1  0
  5 33  1  0
  5 34  1  0
  5 35  1  0
 12 36  1  0
 12 37  1  0
 14 38  1  0
 16 39  1  0
 17 40  1  0
 23 41  1  0
M  END
>  <UniqueID>  (97) 
97

>  <SMILES>  (97) 
CCC(C)(C)OC(=O)n1c(C(N)=O)cc2ccc(C(F)(F)F)cc21

>  <Energy>  (97) 
78.20142564426841

>  <Genealogy>  (97) 
CCC(C)(C)OC(=O)n1c(C(N)=O)cc2ccc(C(F)(F)F)cc21 (3D coordinates assigned)
CCC(C)(C)OC(=O)n1c(C(N)=O)cc2ccc(C(F)(F)F)cc21 (optimized conformer: 78.20142564426841 kcal/mol)

>  <smiles>  (97) 
CCC(C)(C)OC(=O)n1c(C(N)=O)cc2ccc(C(F)(F)F)cc21

>  <score_type>  (97) 
oracle

>  <origin>  (97) 
adg

>  <m_score__min__energy>  (97) 
-6.96

>  <m_primary>  (97) 
energy

$$$$
97:0
     RDKit          3D

 56 58  0  0  0  0  0  0  0  0999 V2000
  139.5180  156.8280  133.0220 C   0  0  0  0  0  0  0  0  0  0  0  0
  139.6170  158.2590  132.7110 N   0  0  0  0  0  0  0  0  0  0  0  0
  138.9410  158.8040  131.5290 C   0  0  0  0  0  0  0  0  0  0  0  0
  140.3700  159.1500  133.5630 C   0  0  0  0  0  0  0  0  0  0  0  0
  140.4230  160.3810  133.2860 O   0  0  0  0  0  0  0  0  0  0  0  0
  141.0740  158.6400  134.7940 C   0  0  0  0  0  0  0  0  0  0  0  0
  142.4760  159.0400  134.7930 N   0  0  0  0  0  0  0  0  0  0  0  0
  143.3730  158.7170  133.7280 C   0  0  0  0  0  0  0  0  0  0  0  0
  143.0310  157.8830  132.8460 O   0  0  0  0  0  0  0  0  0  0  0  0
  144.6760  159.3190  133.6780 N   0  0  0  0  0  0  0  0  0  0  0  0
  144.9800  160.6470  133.7340 C   0  0  0  0  0  0  0  0  0  0  0  0
  143.9990  161.7530  133.6980 C   0  0  0  0  0  0  0  0  0  0  0  0
  142.6120  161.4920  133.4710 N   0  0  0  0  0  0  0  0  0  0  0  0
  144.3740  162.9370  133.9040 O   0  0  0  0  0  0  0  0  0  0  0  0
  146.3620  160.8320  133.7360 C   0  0  0  0  0  0  0  0  0  0  0  0
  146.8990  159.5670  133.6780 C   0  0  0  0  0  0  0  0  0  0  0  0
  148.2300  159.1600  133.6700 C   0  0  0  0  0  0  0  0  0  0  0  0
  148.4970  157.7810  133.6400 C   0  0  0  0  0  0  0  0  0  0  0  0
  147.4360  156.8410  133.6130 C   0  0  0  0  0  0  0  0  0  0  0  0
  147.7360  155.3660  133.6330 C   0  0  0  0  0  0  0  0  0  0  0  0
  146.8700  154.6260  132.6080 C   0  0  0  0  0  0  0  0  0  0  0  0
  145.8870  153.7630  133.3030 N   0  0  0  0  0  0  0  0  0  0  0  0
  145.1620  154.4760  134.3860 C   0  0  0  0  0  0  0  0  0  0  0  0
  143.7990  155.0390  133.9350 C   0  0  0  0  0  0  0  0  0  0  0  0
  143.8250  155.3490  132.5040 N   0  0  0  0  0  0  0  0  0  0  0  0
  143.9940  154.1270  131.7000 C   0  0  0  0  0  0  0  0  0  0  0  0
  144.9530  153.1120  132.3630 C   0  0  0  0  0  0  0  0  0  0  0  0
  146.0980  157.2910  133.6310 C   0  0  0  0  0  0  0  0  0  0  0  0
  145.8620  158.6710  133.6440 C   0  0  0  0  0  0  0  0  0  0  0  0
  139.5084  156.6897  134.1132 H   0  0  0  0  0  0  0  0  0  0  0  0
  138.5897  156.4229  132.5929 H   0  0  0  0  0  0  0  0  0  0  0  0
  140.3817  156.2989  132.5929 H   0  0  0  0  0  0  0  0  0  0  0  0
  138.1213  159.4648  131.8475 H   0  0  0  0  0  0  0  0  0  0  0  0
  139.6610  159.3772  130.9265 H   0  0  0  0  0  0  0  0  0  0  0  0
  138.5336  157.9788  130.9265 H   0  0  0  0  0  0  0  0  0  0  0  0
  140.5822  159.0524  135.6874 H   0  0  0  0  0  0  0  0  0  0  0  0
  141.0213  157.5413  134.8000 H   0  0  0  0  0  0  0  0  0  0  0  0
  142.2710  160.5320  133.2470 H   0  0  0  0  0  0  0  0  0  0  0  0
  141.9230  162.2770  133.4780 H   0  0  0  0  0  0  0  0  0  0  0  0
  146.9070  161.7867  133.7755 H   0  0  0  0  0  0  0  0  0  0  0  0
  149.0478  159.8955  133.6867 H   0  0  0  0  0  0  0  0  0  0  0  0
  149.5386  157.4274  133.6374 H   0  0  0  0  0  0  0  0  0  0  0  0
  148.7973  155.2095  133.3898 H   0  0  0  0  0  0  0  0  0  0  0  0
  147.5135  154.9722  134.6357 H   0  0  0  0  0  0  0  0  0  0  0  0
  146.3354  155.3591  131.9861 H   0  0  0  0  0  0  0  0  0  0  0  0
  147.5159  153.9997  131.9751 H   0  0  0  0  0  0  0  0  0  0  0  0
  144.9931  153.7733  135.2153 H   0  0  0  0  0  0  0  0  0  0  0  0
  145.7848  155.3304  134.6893 H   0  0  0  0  0  0  0  0  0  0  0  0
  143.0154  154.2921  134.1302 H   0  0  0  0  0  0  0  0  0  0  0  0
  143.5893  155.9611  134.4969 H   0  0  0  0  0  0  0  0  0  0  0  0
  142.9100  155.7870  132.2470 H   0  0  0  0  0  0  0  0  0  0  0  0
  143.0109  153.6510  131.5702 H   0  0  0  0  0  0  0  0  0  0  0  0
  144.4315  154.4195  130.7341 H   0  0  0  0  0  0  0  0  0  0  0  0
  144.3575  152.3682  132.9127 H   0  0  0  0  0  0  0  0  0  0  0  0
  145.5477  152.6385  131.5679 H   0  0  0  0  0  0  0  0  0  0  0  0
  145.2623  156.5757  133.6347 H   0  0  0  0  0  0  0  0  0  0  0  0
  1  2  1  0
  2  3  1  0
  2  4  1  0
  4  5  2  0
  4  6  1  0
  6  7  1  0
  7  8  1  0
  8  9  2  0
  8 10  1  0
 10 11  1  0
 11 12  1  0
 12 13  1  0
 12 14  2  0
 11 15  2  0
 15 16  1  0
 16 17  2  0
 17 18  1  0
 18 19  2  0
 19 20  1  0
 20 21  1  0
 21 22  1  0
 22 23  1  0
 23 24  1  0
 24 25  1  0
 25 26  1  0
 26 27  1  0
 19 28  1  0
 28 29  2  0
 29 10  1  0
 29 16  1  0
 27 22  1  0
  1 30  1  0
  1 31  1  0
  1 32  1  0
  3 33  1  0
  3 34  1  0
  3 35  1  0
  6 36  1  0
  6 37  1  0
 13 38  1  0
 13 39  1  0
 15 40  1  0
 17 41  1  0
 18 42  1  0
 20 43  1  0
 20 44  1  0
 21 45  1  0
 21 46  1  0
 23 47  1  0
 23 48  1  0
 24 49  1  0
 24 50  1  0
 25 51  1  0
 26 52  1  0
 26 53  1  0
 27 54  1  0
 27 55  1  0
 28 56  1  0
M  CHG  1   7  -1
M  END
>  <UniqueID>  (98) 
98

>  <SMILES>  (98) 
CN(C)C(=O)C[N-]C(=O)n1c(C(N)=O)cc2ccc(CCN3CCNCC3)cc21

>  <Energy>  (98) 
97.8953091356824

>  <Genealogy>  (98) 
CN(C)C(=O)C[N-]C(=O)n1c(C(N)=O)cc2ccc(CCN3CCNCC3)cc21 (protonated)
CN(C)C(=O)C[N-]C(=O)n1c(C(N)=O)cc2ccc(CCN3CCNCC3)cc21 (3D coordinates assigned)
CN(C)C(=O)C[N-]C(=O)n1c(C(N)=O)cc2ccc(CCN3CCNCC3)cc21 (nonaromatic ring conformer: 97.8953091356824 kcal/mol)

>  <smiles>  (98) 
CN(C)C(=O)CNC(=O)n1c(C(N)=O)cc2ccc(CCN3CCNCC3)cc21

>  <score_type>  (98) 
oracle

>  <origin>  (98) 
adg

>  <m_score__min__energy>  (98) 
-9.0199999999999996

>  <m_primary>  (98) 
energy

$$$$
98:0
     RDKit          3D

 47 49  0  0  0  0  0  0  0  0999 V2000
  142.8720  160.2980  132.9970 N   0  0  0  0  0  0  0  0  0  0  0  0
  144.1700  160.4400  133.5770 C   0  0  0  0  0  0  0  0  0  0  0  0
  144.4360  161.4810  134.2350 O   0  0  0  0  0  0  0  0  0  0  0  0
  145.1910  159.3750  133.4690 C   0  0  0  0  0  0  0  0  0  0  0  0
  146.5530  159.6350  133.3620 C   0  0  0  0  0  0  0  0  0  0  0  0
  147.1560  158.4020  133.2860 C   0  0  0  0  0  0  0  0  0  0  0  0
  148.5020  158.0740  133.1570 C   0  0  0  0  0  0  0  0  0  0  0  0
  148.8420  156.7150  133.0600 C   0  0  0  0  0  0  0  0  0  0  0  0
  147.8370  155.7140  133.0560 C   0  0  0  0  0  0  0  0  0  0  0  0
  148.2110  154.2560  132.9870 C   0  0  0  0  0  0  0  0  0  0  0  0
  148.5020  153.8000  134.2600 F   0  0  0  0  0  0  0  0  0  0  0  0
  149.3180  154.0680  132.1770 F   0  0  0  0  0  0  0  0  0  0  0  0
  147.1660  153.5100  132.4680 F   0  0  0  0  0  0  0  0  0  0  0  0
  146.4810  156.0890  133.2030 C   0  0  0  0  0  0  0  0  0  0  0  0
  146.1720  157.4490  133.3340 C   0  0  0  0  0  0  0  0  0  0  0  0
  144.9550  158.0310  133.4590 N   0  0  0  0  0  0  0  0  0  0  0  0
  143.6700  157.3810  133.4620 C   0  0  0  0  0  0  0  0  0  0  0  0
  142.9190  157.4920  132.4550 O   0  0  0  0  0  0  0  0  0  0  0  0
  143.1940  156.5490  134.6260 C   0  0  0  0  0  0  0  0  0  0  0  0
  141.7850  156.8390  134.9770 N   0  0  0  0  0  0  0  0  0  0  0  0
  140.8400  155.9850  134.2090 C   0  0  0  0  0  0  0  0  0  0  0  0
  140.2760  156.7020  132.9760 C   0  0  0  0  0  0  0  0  0  0  0  0
  139.4660  157.9560  133.3860 C   0  0  0  0  0  0  0  0  0  0  0  0
  139.4510  158.9960  132.2520 C   0  0  0  0  0  0  0  0  0  0  0  0
  140.7040  159.6170  132.1540 O   0  0  0  0  0  0  0  0  0  0  0  0
  139.9930  158.5730  134.7060 C   0  0  0  0  0  0  0  0  0  0  0  0
  141.4900  158.2940  134.8920 C   0  0  0  0  0  0  0  0  0  0  0  0
  142.1900  161.0880  133.0460 H   0  0  0  0  0  0  0  0  0  0  0  0
  142.5460  159.3890  132.6050 H   0  0  0  0  0  0  0  0  0  0  0  0
  147.0439  160.6192  133.3423 H   0  0  0  0  0  0  0  0  0  0  0  0
  149.2760  158.8552  133.1318 H   0  0  0  0  0  0  0  0  0  0  0  0
  149.9000  156.4233  132.9863 H   0  0  0  0  0  0  0  0  0  0  0  0
  145.6861  155.3288  133.2142 H   0  0  0  0  0  0  0  0  0  0  0  0
  143.2821  155.4850  134.3613 H   0  0  0  0  0  0  0  0  0  0  0  0
  143.8184  156.7958  135.4973 H   0  0  0  0  0  0  0  0  0  0  0  0
  141.3700  155.0791  133.8796 H   0  0  0  0  0  0  0  0  0  0  0  0
  139.9959  155.7393  134.8702 H   0  0  0  0  0  0  0  0  0  0  0  0
  141.1086  157.0083  132.3257 H   0  0  0  0  0  0  0  0  0  0  0  0
  139.6061  156.0104  132.4441 H   0  0  0  0  0  0  0  0  0  0  0  0
  138.4296  157.6354  133.5680 H   0  0  0  0  0  0  0  0  0  0  0  0
  139.2176  158.4947  131.3011 H   0  0  0  0  0  0  0  0  0  0  0  0
  138.6871  159.7569  132.4701 H   0  0  0  0  0  0  0  0  0  0  0  0
  141.3350  158.9170  131.8460 H   0  0  0  0  0  0  0  0  0  0  0  0
  139.8312  159.6608  134.6829 H   0  0  0  0  0  0  0  0  0  0  0  0
  139.4475  158.1166  135.5451 H   0  0  0  0  0  0  0  0  0  0  0  0
  142.0379  158.7170  134.0370 H   0  0  0  0  0  0  0  0  0  0  0  0
  141.8044  158.7577  135.8387 H   0  0  0  0  0  0  0  0  0  0  0  0
  1  2  1  0
  2  3  2  0
  2  4  1  0
  4  5  2  0
  5  6  1  0
  6  7  2  0
  7  8  1  0
  8  9  2  0
  9 10  1  0
 10 11  1  0
 10 12  1  0
 10 13  1  0
  9 14  1  0
 14 15  2  0
 15 16  1  0
 16 17  1  0
 17 18  2  0
 17 19  1  0
 19 20  1  0
 20 21  1  0
 21 22  1  0
 22 23  1  0
 23 24  1  0
 24 25  1  0
 23 26  1  0
 26 27  1  0
 16  4  1  0
 27 20  1  0
 15  6  1  0
  1 28  1  0
  1 29  1  0
  5 30  1  0
  7 31  1  0
  8 32  1  0
 14 33  1  0
 19 34  1  0
 19 35  1  0
 21 36  1  0
 21 37  1  0
 22 38  1  0
 22 39  1  0
 23 40  1  0
 24 41  1  0
 24 42  1  0
 25 43  1  0
 26 44  1  0
 26 45  1  0
 27 46  1  0
 27 47  1  0
M  END
>  <UniqueID>  (99) 
99

>  <SMILES>  (99) 
NC(=O)c1cc2ccc(C(F)(F)F)cc2n1C(=O)CN1CCC(CO)CC1

>  <Energy>  (99) 
94.76123287498488

>  <Genealogy>  (99) 
NC(=O)c1cc2ccc(C(F)(F)F)cc2n1C(=O)CN1CCC(CO)CC1 (3D coordinates assigned)
NC(=O)c1cc2ccc(C(F)(F)F)cc2n1C(=O)CN1CCC(CO)CC1 (nonaromatic ring conformer: 94.76123287498488 kcal/mol)

>  <smiles>  (99) 
NC(=O)c1cc2ccc(C(F)(F)F)cc2n1C(=O)CN1CCC(CO)CC1

>  <score_type>  (99) 
oracle

>  <origin>  (99) 
adg

>  <m_score__min__energy>  (99) 
-7.9199999999999999

>  <m_primary>  (99) 
energy

$$$$
99:0
     RDKit          3D

 35 37  0  0  0  0  0  0  0  0999 V2000
  149.0020  151.4690  132.4140 C   0  0  0  0  0  0  0  0  0  0  0  0
  148.2720  152.6010  133.0550 C   0  0  0  0  0  0  0  0  0  0  0  0
  148.4810  153.0800  134.3380 C   0  0  0  0  0  0  0  0  0  0  0  0
  147.5030  154.0420  134.5000 C   0  0  0  0  0  0  0  0  0  0  0  0
  147.2790  154.7660  135.6250 F   0  0  0  0  0  0  0  0  0  0  0  0
  146.7630  154.1200  133.3780 N   0  0  0  0  0  0  0  0  0  0  0  0
  145.5690  154.9370  133.1770 C   0  0  0  0  0  0  0  0  0  0  0  0
  145.9380  156.3940  133.2110 C   0  0  0  0  0  0  0  0  0  0  0  0
  147.2730  156.7960  132.9650 C   0  0  0  0  0  0  0  0  0  0  0  0
  147.6350  158.1520  133.0250 C   0  0  0  0  0  0  0  0  0  0  0  0
  146.6470  159.0760  133.3500 C   0  0  0  0  0  0  0  0  0  0  0  0
  146.7180  160.4460  133.4570 C   0  0  0  0  0  0  0  0  0  0  0  0
  145.4340  160.8560  133.8060 C   0  0  0  0  0  0  0  0  0  0  0  0
  145.0850  162.2610  134.1090 C   0  0  0  0  0  0  0  0  0  0  0  0
  145.9600  163.0860  134.8740 N   0  0  0  0  0  0  0  0  0  0  0  0
  144.0250  162.7540  133.6420 O   0  0  0  0  0  0  0  0  0  0  0  0
  144.5970  159.7840  133.9010 N   0  0  0  0  0  0  0  0  0  0  0  0
  143.1830  159.7860  134.1560 C   0  0  0  0  0  0  0  0  0  0  0  0
  142.3750  160.1510  133.2620 O   0  0  0  0  0  0  0  0  0  0  0  0
  142.6910  159.3630  135.3850 O   0  0  0  0  0  0  0  0  0  0  0  0
  145.3560  158.7000  133.6220 C   0  0  0  0  0  0  0  0  0  0  0  0
  144.9640  157.3590  133.5480 C   0  0  0  0  0  0  0  0  0  0  0  0
  147.2170  153.2350  132.5060 N   0  0  0  0  0  0  0  0  0  0  0  0
  149.4229  150.8162  133.1929 H   0  0  0  0  0  0  0  0  0  0  0  0
  148.3059  150.8912  131.7882 H   0  0  0  0  0  0  0  0  0  0  0  0
  149.8155  151.8648  131.7882 H   0  0  0  0  0  0  0  0  0  0  0  0
  149.2486  152.7666  135.0609 H   0  0  0  0  0  0  0  0  0  0  0  0
  145.1216  154.6962  132.2014 H   0  0  0  0  0  0  0  0  0  0  0  0
  144.8454  154.7265  133.9784 H   0  0  0  0  0  0  0  0  0  0  0  0
  148.0342  156.0392  132.7245 H   0  0  0  0  0  0  0  0  0  0  0  0
  148.6672  158.4731  132.8214 H   0  0  0  0  0  0  0  0  0  0  0  0
  147.6016  161.0822  133.3001 H   0  0  0  0  0  0  0  0  0  0  0  0
  146.9960  162.9990  134.7820 H   0  0  0  0  0  0  0  0  0  0  0  0
  143.9232  157.0639  133.7474 H   0  0  0  0  0  0  0  0  0  0  0  0
  146.8000  153.0490  131.5660 H   0  0  0  0  0  0  0  0  0  0  0  0
  1  2  1  0
  2  3  1  0
  3  4  2  0
  4  5  1  0
  4  6  1  0
  6  7  1  0
  7  8  1  0
  8  9  2  0
  9 10  1  0
 10 11  2  0
 11 12  1  0
 12 13  2  0
 13 14  1  0
 14 15  1  0
 14 16  2  0
 13 17  1  0
 17 18  1  0
 18 19  2  0
 18 20  1  0
 17 21  1  0
 21 22  2  0
  6 23  1  0
 23  2  2  0
 22  8  1  0
 21 11  1  0
  1 24  1  0
  1 25  1  0
  1 26  1  0
  3 27  1  0
  7 28  1  0
  7 29  1  0
  9 30  1  0
 10 31  1  0
 12 32  1  0
 15 33  1  0
 22 34  1  0
 23 35  1  0
M  CHG  3  15  -1  20  -1  23   1
M  END
>  <UniqueID>  (100) 
100

>  <SMILES>  (100) 
Cc1cc(F)n(Cc2ccc3cc(C([NH-])=O)n(C(=O)[O-])c3c2)[nH+]1

>  <Energy>  (100) 
105.1013812940756

>  <Genealogy>  (100) 
Cc1cc(F)n(Cc2ccc3cc(C([NH-])=O)n(C(=O)[O-])c3c2)[nH+]1 (protonated)
Cc1cc(F)n(Cc2ccc3cc(C([NH-])=O)n(C(=O)[O-])c3c2)[nH+]1 (3D coordinates assigned)
Cc1cc(F)n(Cc2ccc3cc(C([NH-])=O)n(C(=O)[O-])c3c2)[nH+]1 (optimized conformer: 105.1013812940756 kcal/mol)

>  <smiles>  (100) 
Cc1cc(F)n(Cc2ccc3cc(C(N)=O)n(C(=O)O)c3c2)n1

>  <score_type>  (100) 
oracle

>  <origin>  (100) 
adg

>  <m_score__min__energy>  (100) 
-7.0300000000000002

>  <m_primary>  (100) 
energy

$$$$
