0:0
     RDKit          3D

 44 45  0  0  0  0  0  0  0  0999 V2000
  149.6110  151.1180  133.8210 C   0  0  0  0  0  0  0  0  0  0  0  0
  148.9950  151.6810  132.5300 C   0  0  0  0  0  0  0  0  0  0  0  0
  147.6600  150.9630  132.2390 C   0  0  0  0  0  0  0  0  0  0  0  0
  149.9560  151.4330  131.3500 C   0  0  0  0  0  0  0  0  0  0  0  0
  148.7710  153.1700  132.7050 C   0  0  0  0  0  0  0  0  0  0  0  0
  149.5850  153.9990  132.2110 O   0  0  0  0  0  0  0  0  0  0  0  0
  147.6150  153.6260  133.3490 O   0  0  0  0  0  0  0  0  0  0  0  0
  146.3910  153.8720  132.6630 C   0  0  0  0  0  0  0  0  0  0  0  0
  146.1520  155.2750  132.5740 O   0  0  0  0  0  0  0  0  0  0  0  0
  146.2830  156.1360  133.6700 C   0  0  0  0  0  0  0  0  0  0  0  0
  146.3510  155.6700  134.8410 O   0  0  0  0  0  0  0  0  0  0  0  0
  146.3130  157.5570  133.4620 N   0  0  0  0  0  0  0  0  0  0  0  0
  147.3370  158.2960  132.9480 C   0  0  0  0  0  0  0  0  0  0  0  0
  148.6970  157.7930  132.6650 C   0  0  0  0  0  0  0  0  0  0  0  0
  148.9600  156.3890  132.6110 N   0  0  0  0  0  0  0  0  0  0  0  0
  149.6340  158.6020  132.4320 O   0  0  0  0  0  0  0  0  0  0  0  0
  146.9590  159.6320  132.8220 C   0  0  0  0  0  0  0  0  0  0  0  0
  145.6630  159.6890  133.2790 C   0  0  0  0  0  0  0  0  0  0  0  0
  144.7930  160.7720  133.3680 C   0  0  0  0  0  0  0  0  0  0  0  0
  143.4970  160.5370  133.8570 C   0  0  0  0  0  0  0  0  0  0  0  0
  143.0940  159.2320  134.2370 C   0  0  0  0  0  0  0  0  0  0  0  0
  141.7020  158.9820  134.7430 C   0  0  0  0  0  0  0  0  0  0  0  0
  140.7980  159.7380  134.0180 F   0  0  0  0  0  0  0  0  0  0  0  0
  141.6230  159.3310  136.0780 F   0  0  0  0  0  0  0  0  0  0  0  0
  144.0050  158.1580  134.1310 C   0  0  0  0  0  0  0  0  0  0  0  0
  145.2950  158.4240  133.6590 C   0  0  0  0  0  0  0  0  0  0  0  0
  149.1150  151.5713  134.6919 H   0  0  0  0  0  0  0  0  0  0  0  0
  149.4734  150.0269  133.8474 H   0  0  0  0  0  0  0  0  0  0  0  0
  150.6853  151.3529  133.8474 H   0  0  0  0  0  0  0  0  0  0  0  0
  147.1707  150.6998  133.1884 H   0  0  0  0  0  0  0  0  0  0  0  0
  147.0035  151.6297  131.6606 H   0  0  0  0  0  0  0  0  0  0  0  0
  147.8544  150.0477  131.6606 H   0  0  0  0  0  0  0  0  0  0  0  0
  150.9530  151.1757  131.7370 H   0  0  0  0  0  0  0  0  0  0  0  0
  149.5758  150.6035  130.7356 H   0  0  0  0  0  0  0  0  0  0  0  0
  150.0247  152.3428  130.7356 H   0  0  0  0  0  0  0  0  0  0  0  0
  146.4504  153.4482  131.6497 H   0  0  0  0  0  0  0  0  0  0  0  0
  145.5664  153.4010  133.2182 H   0  0  0  0  0  0  0  0  0  0  0  0
  149.9170  156.0450  132.3720 H   0  0  0  0  0  0  0  0  0  0  0  0
  148.2230  155.6900  132.8460 H   0  0  0  0  0  0  0  0  0  0  0  0
  147.5680  160.4639  132.4385 H   0  0  0  0  0  0  0  0  0  0  0  0
  145.1104  161.7806  133.0648 H   0  0  0  0  0  0  0  0  0  0  0  0
  142.7883  161.3735  133.9458 H   0  0  0  0  0  0  0  0  0  0  0  0
  141.4629  157.9146  134.6268 H   0  0  0  0  0  0  0  0  0  0  0  0
  143.7076  157.1371  134.4127 H   0  0  0  0  0  0  0  0  0  0  0  0
  1  2  1  0
  2  3  1  0
  2  4  1  0
  2  5  1  0
  5  6  2  0
  5  7  1  0
  7  8  1  0
  8  9  1  0
  9 10  1  0
 10 11  2  0
 10 12  1  0
 12 13  1  0
 13 14  1  0
 14 15  1  0
 14 16  2  0
 13 17  2  0
 17 18  1  0
 18 19  2  0
 19 20  1  0
 20 21  2  0
 21 22  1  0
 22 23  1  0
 22 24  1  0
 21 25  1  0
 25 26  2  0
 26 12  1  0
 26 18  1  0
  1 27  1  0
  1 28  1  0
  1 29  1  0
  3 30  1  0
  3 31  1  0
  3 32  1  0
  4 33  1  0
  4 34  1  0
  4 35  1  0
  8 36  1  0
  8 37  1  0
 15 38  1  0
 15 39  1  0
 17 40  1  0
 19 41  1  0
 20 42  1  0
 22 43  1  0
 25 44  1  0
M  END
>  <UniqueID>  (1) 
1

>  <SMILES>  (1) 
CC(C)(C)C(=O)OCOC(=O)n1c(C(N)=O)cc2ccc(C(F)F)cc21

>  <Energy>  (1) 
73.79259574077955

>  <Genealogy>  (1) 
CC(C)(C)C(=O)OCOC(=O)n1c(C(N)=O)cc2ccc(C(F)F)cc21 (3D coordinates assigned)
CC(C)(C)C(=O)OCOC(=O)n1c(C(N)=O)cc2ccc(C(F)F)cc21 (optimized conformer: 73.79259574077955 kcal/mol)

>  <smiles>  (1) 
CC(C)(C)C(=O)OCOC(=O)n1c(C(N)=O)cc2ccc(C(F)F)cc21

>  <score_type>  (1) 
oracle

>  <origin>  (1) 
adg

>  <m_score__min__energy>  (1) 
-6.6200000000000001

>  <m_primary>  (1) 
energy

$$$$
1:0
     RDKit          3D

 49 50  0  0  0  0  0  0  0  0999 V2000
  148.8640  151.9050  137.1380 C   0  0  0  0  0  0  0  0  0  0  0  0
  147.6890  152.4460  137.9550 C   0  0  0  0  0  0  0  0  0  0  0  0
  147.0590  151.3300  138.7870 C   0  0  0  0  0  0  0  0  0  0  0  0
  146.6970  152.9970  137.0890 O   0  0  0  0  0  0  0  0  0  0  0  0
  146.9060  154.1350  136.3030 C   0  0  0  0  0  0  0  0  0  0  0  0
  148.0730  154.5780  136.1120 O   0  0  0  0  0  0  0  0  0  0  0  0
  145.8010  154.7840  135.7410 O   0  0  0  0  0  0  0  0  0  0  0  0
  145.3040  154.4770  134.4410 C   0  0  0  0  0  0  0  0  0  0  0  0
  143.9890  155.0030  134.2950 O   0  0  0  0  0  0  0  0  0  0  0  0
  142.8540  154.3430  134.7770 C   0  0  0  0  0  0  0  0  0  0  0  0
  142.4100  153.3250  134.1830 O   0  0  0  0  0  0  0  0  0  0  0  0
  142.1540  154.8810  135.9070 N   0  0  0  0  0  0  0  0  0  0  0  0
  142.1940  154.4570  137.2010 C   0  0  0  0  0  0  0  0  0  0  0  0
  142.9690  153.3100  137.7070 C   0  0  0  0  0  0  0  0  0  0  0  0
  144.3800  153.3960  137.9000 N   0  0  0  0  0  0  0  0  0  0  0  0
  142.3790  152.2230  137.9390 O   0  0  0  0  0  0  0  0  0  0  0  0
  141.5150  155.3470  138.0290 C   0  0  0  0  0  0  0  0  0  0  0  0
  141.0370  156.3300  137.1910 C   0  0  0  0  0  0  0  0  0  0  0  0
  140.2790  157.4620  137.4720 C   0  0  0  0  0  0  0  0  0  0  0  0
  139.9270  158.3050  136.4040 C   0  0  0  0  0  0  0  0  0  0  0  0
  140.3440  158.0120  135.0760 C   0  0  0  0  0  0  0  0  0  0  0  0
  139.9830  158.8400  133.9480 N   0  0  0  0  0  0  0  0  0  0  0  0
  138.9170  158.5820  132.9700 C   0  0  2  0  0  0  0  0  0  0  0  0
  139.1350  157.2380  132.2600 C   0  0  0  0  0  0  0  0  0  0  0  0
  138.7500  159.7390  132.0200 C   0  0  0  0  0  0  0  0  0  0  0  0
  137.9180  159.6630  131.0770 O   0  0  0  0  0  0  0  0  0  0  0  0
  139.5460  160.8730  132.1330 O   0  0  0  0  0  0  0  0  0  0  0  0
  141.1150  156.8510  134.8380 C   0  0  0  0  0  0  0  0  0  0  0  0
  141.4460  156.0310  135.9210 C   0  0  0  0  0  0  0  0  0  0  0  0
  149.6486  151.5437  137.8190 H   0  0  0  0  0  0  0  0  0  0  0  0
  148.5184  151.0753  136.5038 H   0  0  0  0  0  0  0  0  0  0  0  0
  149.2697  152.7070  136.5038 H   0  0  0  0  0  0  0  0  0  0  0  0
  148.0703  153.2306  138.6251 H   0  0  0  0  0  0  0  0  0  0  0  0
  147.1854  151.5540  139.8565 H   0  0  0  0  0  0  0  0  0  0  0  0
  145.9869  151.2578  138.5517 H   0  0  0  0  0  0  0  0  0  0  0  0
  147.5511  150.3748  138.5517 H   0  0  0  0  0  0  0  0  0  0  0  0
  145.9632  154.9239  133.6823 H   0  0  0  0  0  0  0  0  0  0  0  0
  145.2771  153.3853  134.3090 H   0  0  0  0  0  0  0  0  0  0  0  0
  144.9280  154.1750  137.4770 H   0  0  0  0  0  0  0  0  0  0  0  0
  144.8930  152.6130  138.3620 H   0  0  0  0  0  0  0  0  0  0  0  0
  141.3876  155.2795  139.1195 H   0  0  0  0  0  0  0  0  0  0  0  0
  139.9641  157.6909  138.5008 H   0  0  0  0  0  0  0  0  0  0  0  0
  139.3214  159.2027  136.5975 H   0  0  0  0  0  0  0  0  0  0  0  0
  140.5000  159.7430  133.8330 H   0  0  0  0  0  0  0  0  0  0  0  0
  137.9623  158.4957  133.5095 H   0  0  0  0  0  0  0  0  0  0  0  0
  139.2638  156.4437  133.0100 H   0  0  0  0  0  0  0  0  0  0  0  0
  138.2621  157.0100  131.6307 H   0  0  0  0  0  0  0  0  0  0  0  0
  140.0352  157.2975  131.6307 H   0  0  0  0  0  0  0  0  0  0  0  0
  141.4480  156.5978  133.8206 H   0  0  0  0  0  0  0  0  0  0  0  0
  1  2  1  0
  2  3  1  0
  2  4  1  0
  4  5  1  0
  5  6  2  0
  5  7  1  0
  7  8  1  0
  8  9  1  0
  9 10  1  0
 10 11  2  0
 10 12  1  0
 12 13  1  0
 13 14  1  0
 14 15  1  0
 14 16  2  0
 13 17  2  0
 17 18  1  0
 18 19  2  0
 19 20  1  0
 20 21  2  0
 21 22  1  0
 22 23  1  0
 23 24  1  0
 23 25  1  0
 25 26  2  0
 25 27  1  0
 21 28  1  0
 28 29  2  0
 29 12  1  0
 29 18  1  0
  1 30  1  0
  1 31  1  0
  1 32  1  0
  2 33  1  0
  3 34  1  0
  3 35  1  0
  3 36  1  0
  8 37  1  0
  8 38  1  0
 15 39  1  0
 15 40  1  0
 17 41  1  0
 19 42  1  0
 20 43  1  0
 22 44  1  0
 23 45  1  1
 24 46  1  0
 24 47  1  0
 24 48  1  0
 28 49  1  0
M  CHG  1  27  -1
M  END
>  <UniqueID>  (2) 
2

>  <SMILES>  (2) 
CC(C)OC(=O)OCOC(=O)n1c(C(N)=O)cc2ccc(N[C@H](C)C(=O)[O-])cc21

>  <Energy>  (2) 
83.64328319043713

>  <Genealogy>  (2) 
CC(C)OC(=O)OCOC(=O)n1c(C(N)=O)cc2ccc(NC(C)C(=O)[O-])cc21 (protonated)
CC(C)OC(=O)OCOC(=O)n1c(C(N)=O)cc2ccc(N[C@H](C)C(=O)[O-])cc21 (chirality)
CC(C)OC(=O)OCOC(=O)n1c(C(N)=O)cc2ccc(N[C@H](C)C(=O)[O-])cc21 (3D coordinates assigned)
CC(C)OC(=O)OCOC(=O)n1c(C(N)=O)cc2ccc(N[C@H](C)C(=O)[O-])cc21 (optimized conformer: 83.64328319043713 kcal/mol)

>  <smiles>  (2) 
CC(C)OC(=O)OCOC(=O)n1c(C(N)=O)cc2ccc(NC(C)C(=O)O)cc21

>  <score_type>  (2) 
oracle

>  <origin>  (2) 
adg

>  <m_score__min__energy>  (2) 
-7.0099999999999998

>  <m_primary>  (2) 
energy

$$$$
2:0
     RDKit          3D

 44 45  0  0  0  0  0  0  0  0999 V2000
  139.0790  150.4590  131.9040 C   0  0  0  0  0  0  0  0  0  0  0  0
  140.3680  150.2030  132.5590 N   0  0  0  0  0  0  0  0  0  0  0  0
  140.6750  148.8410  133.0130 C   0  0  0  0  0  0  0  0  0  0  0  0
  141.3240  151.2800  132.7560 C   0  0  0  0  0  0  0  0  0  0  0  0
  142.7250  151.0240  132.7260 C   0  0  0  0  0  0  0  0  0  0  0  0
  143.6560  152.0610  132.9020 C   0  0  0  0  0  0  0  0  0  0  0  0
  143.1720  153.3450  133.1150 C   0  0  0  0  0  0  0  0  0  0  0  0
  143.8510  154.5300  133.2820 C   0  0  0  0  0  0  0  0  0  0  0  0
  142.8640  155.5020  133.4380 C   0  0  0  0  0  0  0  0  0  0  0  0
  143.1560  156.9220  133.7220 C   0  0  0  0  0  0  0  0  0  0  0  0
  143.2660  157.8730  132.6660 N   0  0  0  0  0  0  0  0  0  0  0  0
  143.2650  157.3090  134.9160 O   0  0  0  0  0  0  0  0  0  0  0  0
  141.6250  154.9380  133.3650 N   0  0  0  0  0  0  0  0  0  0  0  0
  140.3550  155.6060  133.3740 C   0  0  0  0  0  0  0  0  0  0  0  0
  139.4490  155.2410  132.5770 O   0  0  0  0  0  0  0  0  0  0  0  0
  140.1380  156.6700  134.2570 O   0  0  0  0  0  0  0  0  0  0  0  0
  139.4840  157.8810  133.8820 C   0  0  0  0  0  0  0  0  0  0  0  0
  140.4770  158.8590  133.2950 C   0  0  0  0  0  0  0  0  0  0  0  0
  140.3980  159.1200  132.1030 O   0  0  0  0  0  0  0  0  0  0  0  0
  141.5320  159.4640  134.0870 N   0  0  0  0  0  0  0  0  0  0  0  0
  141.2440  159.3500  135.5260 C   0  0  0  0  0  0  0  0  0  0  0  0
  141.7550  160.8640  133.6980 C   0  0  0  0  0  0  0  0  0  0  0  0
  141.8320  153.6180  133.1660 C   0  0  0  0  0  0  0  0  0  0  0  0
  140.8790  152.6100  132.9760 C   0  0  0  0  0  0  0  0  0  0  0  0
  138.3034  150.6130  132.6686 H   0  0  0  0  0  0  0  0  0  0  0  0
  139.1589  151.3588  131.2763 H   0  0  0  0  0  0  0  0  0  0  0  0
  138.8090  149.5969  131.2763 H   0  0  0  0  0  0  0  0  0  0  0  0
  140.6812  148.8137  134.1126 H   0  0  0  0  0  0  0  0  0  0  0  0
  139.9108  148.1469  132.6333 H   0  0  0  0  0  0  0  0  0  0  0  0
  141.6631  148.5419  132.6333 H   0  0  0  0  0  0  0  0  0  0  0  0
  143.0838  149.9971  132.5623 H   0  0  0  0  0  0  0  0  0  0  0  0
  144.7374  151.8617  132.8719 H   0  0  0  0  0  0  0  0  0  0  0  0
  144.9409  154.6787  133.2906 H   0  0  0  0  0  0  0  0  0  0  0  0
  142.4140  158.2850  132.2240 H   0  0  0  0  0  0  0  0  0  0  0  0
  138.7099  157.6575  133.1331 H   0  0  0  0  0  0  0  0  0  0  0  0
  139.0277  158.3307  134.7762 H   0  0  0  0  0  0  0  0  0  0  0  0
  142.4250  158.9440  133.9060 H   0  0  0  0  0  0  0  0  0  0  0  0
  142.1150  159.6948  136.1027 H   0  0  0  0  0  0  0  0  0  0  0  0
  140.3703  159.9701  135.7753 H   0  0  0  0  0  0  0  0  0  0  0  0
  141.0315  158.2999  135.7753 H   0  0  0  0  0  0  0  0  0  0  0  0
  141.8538  161.4842  134.6011 H   0  0  0  0  0  0  0  0  0  0  0  0
  142.6760  160.9364  133.1009 H   0  0  0  0  0  0  0  0  0  0  0  0
  140.9021  161.2190  133.1009 H   0  0  0  0  0  0  0  0  0  0  0  0
  139.8045  152.8445  132.9968 H   0  0  0  0  0  0  0  0  0  0  0  0
  1  2  1  0
  2  3  1  0
  2  4  1  0
  4  5  2  0
  5  6  1  0
  6  7  2  0
  7  8  1  0
  8  9  2  0
  9 10  1  0
 10 11  1  0
 10 12  2  0
  9 13  1  0
 13 14  1  0
 14 15  2  0
 14 16  1  0
 16 17  1  0
 17 18  1  0
 18 19  2  0
 18 20  1  0
 20 21  1  0
 20 22  1  0
 13 23  1  0
 23 24  2  0
 24  4  1  0
 23  7  1  0
  1 25  1  0
  1 26  1  0
  1 27  1  0
  3 28  1  0
  3 29  1  0
  3 30  1  0
  5 31  1  0
  6 32  1  0
  8 33  1  0
 11 34  1  0
 17 35  1  0
 17 36  1  0
 20 37  1  0
 21 38  1  0
 21 39  1  0
 21 40  1  0
 22 41  1  0
 22 42  1  0
 22 43  1  0
 24 44  1  0
M  CHG  2  11  -1  20   1
M  END
>  <UniqueID>  (3) 
3

>  <SMILES>  (3) 
CN(C)c1ccc2cc(C([NH-])=O)n(C(=O)OCC(=O)[NH+](C)C)c2c1

>  <Energy>  (3) 
83.10334341943128

>  <Genealogy>  (3) 
CN(C)c1ccc2cc(C([NH-])=O)n(C(=O)OCC(=O)[NH+](C)C)c2c1 (protonated)
CN(C)c1ccc2cc(C([NH-])=O)n(C(=O)OCC(=O)[NH+](C)C)c2c1 (3D coordinates assigned)
CN(C)c1ccc2cc(C([NH-])=O)n(C(=O)OCC(=O)[NH+](C)C)c2c1 (optimized conformer: 83.10334341943128 kcal/mol)

>  <smiles>  (3) 
CN(C)C(=O)COC(=O)n1c(C(N)=O)cc2ccc(N(C)C)cc21

>  <score_type>  (3) 
oracle

>  <origin>  (3) 
adg

>  <m_score__min__energy>  (3) 
-4.8899999999999997

>  <m_primary>  (3) 
energy

$$$$
3:0
     RDKit          3D

 30 31  0  0  0  0  0  0  0  0999 V2000
  144.6512  154.7516  136.6087 H   0  0  0  0  0  0  0  0  0  0  0  0
  145.3860  154.7140  135.7910 C   0  0  0  0  0  0  0  0  0  0  0  0
  146.7350  154.2270  136.1260 C   0  0  0  0  0  0  0  0  0  0  0  0
  147.7390  154.9040  135.7810 O   0  0  0  0  0  0  0  0  0  0  0  0
  146.9300  152.9870  136.7220 O   0  0  0  0  0  0  0  0  0  0  0  0
  144.9710  155.1160  134.5800 C   0  0  0  0  0  0  0  0  0  0  0  0
  143.9912  155.6133  134.5286 H   0  0  0  0  0  0  0  0  0  0  0  0
  145.7080  154.9530  133.3070 C   0  0  0  0  0  0  0  0  0  0  0  0
  145.2410  154.2480  132.3710 O   0  0  0  0  0  0  0  0  0  0  0  0
  146.9420  155.6550  133.1010 N   0  0  0  0  0  0  0  0  0  0  0  0
  148.1600  155.1150  132.8200 C   0  0  0  0  0  0  0  0  0  0  0  0
  148.4580  153.6640  132.7680 C   0  0  0  0  0  0  0  0  0  0  0  0
  149.1740  153.2000  131.8430 O   0  0  0  0  0  0  0  0  0  0  0  0
  147.9320  152.7690  133.7520 N   0  0  0  0  0  0  0  0  0  0  0  0
  147.3910  153.1150  134.5740 H   0  0  0  0  0  0  0  0  0  0  0  0
  148.1230  151.7450  133.6810 H   0  0  0  0  0  0  0  0  0  0  0  0
  149.1070  156.1240  132.6360 C   0  0  0  0  0  0  0  0  0  0  0  0
  150.1755  156.0016  132.4051 H   0  0  0  0  0  0  0  0  0  0  0  0
  148.4190  157.3060  132.8050 C   0  0  0  0  0  0  0  0  0  0  0  0
  148.8620  158.6220  132.7120 C   0  0  0  0  0  0  0  0  0  0  0  0
  149.9163  158.8522  132.4990 H   0  0  0  0  0  0  0  0  0  0  0  0
  147.9190  159.6480  132.8990 C   0  0  0  0  0  0  0  0  0  0  0  0
  148.2385  160.6990  132.8411 H   0  0  0  0  0  0  0  0  0  0  0  0
  146.5630  159.3410  133.1610 C   0  0  0  0  0  0  0  0  0  0  0  0
  145.6110  160.3930  133.3340 N   0  0  0  0  0  0  0  0  0  0  0  0
  145.4860  161.1260  132.6000 H   0  0  0  0  0  0  0  0  0  0  0  0
  145.0240  160.4470  134.1960 H   0  0  0  0  0  0  0  0  0  0  0  0
  146.1490  157.9940  133.2480 C   0  0  0  0  0  0  0  0  0  0  0  0
  145.0971  157.7377  133.4426 H   0  0  0  0  0  0  0  0  0  0  0  0
  147.1130  156.9940  133.0800 C   0  0  0  0  0  0  0  0  0  0  0  0
  1  2  1  0
  2  3  1  0
  3  4  2  0
  3  5  1  0
  2  6  2  0
  6  7  1  0
  6  8  1  0
  8  9  2  0
  8 10  1  0
 10 11  1  0
 11 12  1  0
 12 13  2  0
 12 14  1  0
 14 15  1  0
 14 16  1  0
 11 17  2  0
 17 18  1  0
 17 19  1  0
 19 20  2  0
 20 21  1  0
 20 22  1  0
 22 23  1  0
 22 24  2  0
 24 25  1  0
 25 26  1  0
 25 27  1  0
 24 28  1  0
 28 29  1  0
 28 30  2  0
 30 10  1  0
 30 19  1  0
M  CHG  1   5  -1
M  END
>  <UniqueID>  (4) 
4

>  <SMILES>  (4) 
NC(=O)c1cc2ccc(N)cc2n1C(=O)/C=C\C(=O)[O-]

>  <Energy>  (4) 
75.1299403467982

>  <Genealogy>  (4) 
NC(=O)c1cc2ccc(N)cc2n1C(=O)/C=C\C(=O)[O-] (protonated)
NC(=O)c1cc2ccc(N)cc2n1C(=O)/C=C\C(=O)[O-] (cis-trans isomerization)
NC(=O)c1cc2ccc(N)cc2n1C(=O)/C=C\C(=O)[O-] (3D coordinates assigned)
NC(=O)c1cc2ccc(N)cc2n1C(=O)/C=C\C(=O)[O-] (optimized conformer: 75.1299403467982 kcal/mol)

>  <smiles>  (4) 
NC(=O)c1cc2ccc(N)cc2n1C(=O)/C=C\C(=O)O

>  <score_type>  (4) 
oracle

>  <origin>  (4) 
adg

>  <m_score__min__energy>  (4) 
-6.7199999999999998

>  <m_primary>  (4) 
energy

$$$$
4:0
     RDKit          3D

 32 34  0  0  0  0  0  0  0  0999 V2000
  147.0260  160.9170  133.2900 N   0  0  0  0  0  0  0  0  0  0  0  0
  145.9290  160.0080  133.3970 C   0  0  0  0  0  0  0  0  0  0  0  0
  144.7580  160.4630  133.4940 O   0  0  0  0  0  0  0  0  0  0  0  0
  146.1360  158.5480  133.3310 C   0  0  0  0  0  0  0  0  0  0  0  0
  145.1260  157.6200  133.5660 C   0  0  0  0  0  0  0  0  0  0  0  0
  145.7050  156.3910  133.3480 C   0  0  0  0  0  0  0  0  0  0  0  0
  145.1590  155.1170  133.4570 C   0  0  0  0  0  0  0  0  0  0  0  0
  145.9990  154.0170  133.2130 C   0  0  0  0  0  0  0  0  0  0  0  0
  147.3660  154.2030  132.8730 C   0  0  0  0  0  0  0  0  0  0  0  0
  148.2400  153.0270  132.6340 C   0  0  0  0  0  0  0  0  0  0  0  0
  149.6350  152.9950  132.6850 C   0  0  0  0  0  0  0  0  0  0  0  0
  150.1770  151.7330  132.4070 C   0  0  0  0  0  0  0  0  0  0  0  0
  149.2270  150.7610  132.1340 C   0  0  0  0  0  0  0  0  0  0  0  0
  147.7110  151.4750  132.2370 S   0  0  0  0  0  0  0  0  0  0  0  0
  147.8800  155.5200  132.7800 C   0  0  0  0  0  0  0  0  0  0  0  0
  147.0150  156.5970  133.0050 C   0  0  0  0  0  0  0  0  0  0  0  0
  147.2980  157.9190  132.9940 N   0  0  0  0  0  0  0  0  0  0  0  0
  148.5870  158.5190  132.7830 C   0  0  0  0  0  0  0  0  0  0  0  0
  149.2320  158.9750  133.7670 O   0  0  0  0  0  0  0  0  0  0  0  0
  149.1150  158.5900  131.4860 O   0  0  0  0  0  0  0  0  0  0  0  0
  149.3490  159.7740  130.7760 C   0  0  0  0  0  0  0  0  0  0  0  0
  148.9860  160.8930  131.2270 O   0  0  0  0  0  0  0  0  0  0  0  0
  149.9940  159.7110  129.5490 O   0  0  0  0  0  0  0  0  0  0  0  0
  147.9820  160.5820  133.0370 H   0  0  0  0  0  0  0  0  0  0  0  0
  146.8650  161.9450  133.3790 H   0  0  0  0  0  0  0  0  0  0  0  0
  144.0868  157.8251  133.8626 H   0  0  0  0  0  0  0  0  0  0  0  0
  144.1020  154.9744  133.7260 H   0  0  0  0  0  0  0  0  0  0  0  0
  145.5924  152.9975  133.2863 H   0  0  0  0  0  0  0  0  0  0  0  0
  150.2497  153.8762  132.9208 H   0  0  0  0  0  0  0  0  0  0  0  0
  151.2584  151.5318  132.4055 H   0  0  0  0  0  0  0  0  0  0  0  0
  149.4306  149.7074  131.8924 H   0  0  0  0  0  0  0  0  0  0  0  0
  148.9385  155.6927  132.5357 H   0  0  0  0  0  0  0  0  0  0  0  0
  1  2  1  0
  2  3  2  0
  2  4  1  0
  4  5  2  0
  5  6  1  0
  6  7  2  0
  7  8  1  0
  8  9  2  0
  9 10  1  0
 10 11  2  0
 11 12  1  0
 12 13  2  0
 13 14  1  0
  9 15  1  0
 15 16  2  0
 16 17  1  0
 17 18  1  0
 18 19  2  0
 18 20  1  0
 20 21  1  0
 21 22  2  0
 21 23  1  0
 17  4  1  0
 16  6  1  0
 14 10  1  0
  1 24  1  0
  1 25  1  0
  5 26  1  0
  7 27  1  0
  8 28  1  0
 11 29  1  0
 12 30  1  0
 13 31  1  0
 15 32  1  0
M  CHG  1  23  -1
M  END
>  <UniqueID>  (5) 
5

>  <SMILES>  (5) 
NC(=O)c1cc2ccc(-c3cccs3)cc2n1C(=O)OC(=O)[O-]

>  <Energy>  (5) 
103.53567977930892

>  <Genealogy>  (5) 
NC(=O)c1cc2ccc(-c3cccs3)cc2n1C(=O)OC(=O)[O-] (protonated)
NC(=O)c1cc2ccc(-c3cccs3)cc2n1C(=O)OC(=O)[O-] (3D coordinates assigned)
NC(=O)c1cc2ccc(-c3cccs3)cc2n1C(=O)OC(=O)[O-] (optimized conformer: 103.53567977930892 kcal/mol)

>  <smiles>  (5) 
NC(=O)c1cc2ccc(-c3cccs3)cc2n1C(=O)OC(=O)O

>  <score_type>  (5) 
oracle

>  <origin>  (5) 
adg

>  <m_score__min__energy>  (5) 
-7.4199999999999999

>  <m_primary>  (5) 
energy

$$$$
5:0
     RDKit          3D

 35 36  0  0  0  0  0  0  0  0999 V2000
  145.5100  160.4540  133.6330 C   0  0  0  0  0  0  0  0  0  0  0  0
  146.4930  159.3560  133.3560 C   0  0  0  0  0  0  0  0  0  0  0  0
  147.7810  159.6660  132.8580 C   0  0  0  0  0  0  0  0  0  0  0  0
  148.7020  158.6440  132.5740 C   0  0  0  0  0  0  0  0  0  0  0  0
  148.3000  157.3280  132.7760 C   0  0  0  0  0  0  0  0  0  0  0  0
  148.9990  156.1550  132.6100 C   0  0  0  0  0  0  0  0  0  0  0  0
  148.1110  155.1430  132.9650 C   0  0  0  0  0  0  0  0  0  0  0  0
  148.4390  153.7070  132.8730 C   0  0  0  0  0  0  0  0  0  0  0  0
  147.8390  152.7530  133.7500 N   0  0  0  0  0  0  0  0  0  0  0  0
  149.2210  153.3070  131.9700 O   0  0  0  0  0  0  0  0  0  0  0  0
  146.9130  155.6670  133.3480 N   0  0  0  0  0  0  0  0  0  0  0  0
  145.7900  154.9550  133.8970 C   0  0  0  0  0  0  0  0  0  0  0  0
  144.8050  154.6730  133.1620 O   0  0  0  0  0  0  0  0  0  0  0  0
  145.8020  154.5870  135.2500 O   0  0  0  0  0  0  0  0  0  0  0  0
  146.9530  154.3600  136.0130 C   0  0  0  0  0  0  0  0  0  0  0  0
  147.8430  155.2480  136.1270 O   0  0  0  0  0  0  0  0  0  0  0  0
  147.0940  153.1300  136.6640 O   0  0  0  0  0  0  0  0  0  0  0  0
  147.7050  152.9770  137.9440 C   0  0  0  0  0  0  0  0  0  0  0  0
  149.2270  152.9970  137.8240 C   0  0  0  0  0  0  0  0  0  0  0  0
  149.7310  154.2140  138.2400 F   0  0  0  0  0  0  0  0  0  0  0  0
  147.0430  157.0080  133.2250 C   0  0  0  0  0  0  0  0  0  0  0  0
  146.1130  158.0080  133.5360 C   0  0  0  0  0  0  0  0  0  0  0  0
  145.3974  160.5797  134.7200 H   0  0  0  0  0  0  0  0  0  0  0  0
  145.8749  161.3929  133.1911 H   0  0  0  0  0  0  0  0  0  0  0  0
  144.5366  160.1948  133.1911 H   0  0  0  0  0  0  0  0  0  0  0  0
  148.0633  160.7161  132.6919 H   0  0  0  0  0  0  0  0  0  0  0  0
  149.7109  158.8776  132.2030 H   0  0  0  0  0  0  0  0  0  0  0  0
  150.0386  156.0407  132.2692 H   0  0  0  0  0  0  0  0  0  0  0  0
  148.1150  151.7470  133.6980 H   0  0  0  0  0  0  0  0  0  0  0  0
  147.0670  153.0260  134.3970 H   0  0  0  0  0  0  0  0  0  0  0  0
  147.3839  153.8013  138.5978 H   0  0  0  0  0  0  0  0  0  0  0  0
  147.3974  152.0099  138.3683 H   0  0  0  0  0  0  0  0  0  0  0  0
  149.6496  152.1975  138.4502 H   0  0  0  0  0  0  0  0  0  0  0  0
  149.5020  152.8404  136.7705 H   0  0  0  0  0  0  0  0  0  0  0  0
  145.1117  157.7498  133.9111 H   0  0  0  0  0  0  0  0  0  0  0  0
  1  2  1  0
  2  3  2  0
  3  4  1  0
  4  5  2  0
  5  6  1  0
  6  7  2  0
  7  8  1  0
  8  9  1  0
  8 10  2  0
  7 11  1  0
 11 12  1  0
 12 13  2  0
 12 14  1  0
 14 15  1  0
 15 16  2  0
 15 17  1  0
 17 18  1  0
 18 19  1  0
 19 20  1  0
 11 21  1  0
 21 22  2  0
 22  2  1  0
 21  5  1  0
  1 23  1  0
  1 24  1  0
  1 25  1  0
  3 26  1  0
  4 27  1  0
  6 28  1  0
  9 29  1  0
  9 30  1  0
 18 31  1  0
 18 32  1  0
 19 33  1  0
 19 34  1  0
 22 35  1  0
M  END
>  <UniqueID>  (6) 
6

>  <SMILES>  (6) 
Cc1ccc2cc(C(N)=O)n(C(=O)OC(=O)OCCF)c2c1

>  <Energy>  (6) 
71.60185639275551

>  <Genealogy>  (6) 
Cc1ccc2cc(C(N)=O)n(C(=O)OC(=O)OCCF)c2c1 (3D coordinates assigned)
Cc1ccc2cc(C(N)=O)n(C(=O)OC(=O)OCCF)c2c1 (optimized conformer: 71.60185639275551 kcal/mol)

>  <smiles>  (6) 
Cc1ccc2cc(C(N)=O)n(C(=O)OC(=O)OCCF)c2c1

>  <score_type>  (6) 
oracle

>  <origin>  (6) 
adg

>  <m_score__min__energy>  (6) 
-5.7300000000000004

>  <m_primary>  (6) 
energy

$$$$
6:0
     RDKit          3D

 45 46  0  0  0  0  0  0  0  0999 V2000
  149.5800  160.4300  130.0690 C   0  0  0  0  0  0  0  0  0  0  0  0
  149.0480  160.7410  131.4650 C   0  0  0  0  0  0  0  0  0  0  0  0
  148.2870  159.5670  132.0180 C   0  0  0  0  0  0  0  0  0  0  0  0
  148.8590  158.2700  131.9840 C   0  0  0  0  0  0  0  0  0  0  0  0
  148.1400  157.1590  132.4550 C   0  0  0  0  0  0  0  0  0  0  0  0
  146.8560  157.3740  132.9480 C   0  0  0  0  0  0  0  0  0  0  0  0
  145.9320  156.4760  133.4310 C   0  0  0  0  0  0  0  0  0  0  0  0
  144.8150  157.2390  133.7640 C   0  0  0  0  0  0  0  0  0  0  0  0
  143.6130  156.6780  134.4110 C   0  0  0  0  0  0  0  0  0  0  0  0
  142.3310  156.8040  133.8040 N   0  0  0  0  0  0  0  0  0  0  0  0
  143.7100  156.1270  135.5400 O   0  0  0  0  0  0  0  0  0  0  0  0
  145.0340  158.5560  133.4890 N   0  0  0  0  0  0  0  0  0  0  0  0
  144.1000  159.6420  133.5870 C   0  0  0  0  0  0  0  0  0  0  0  0
  144.5200  160.8300  133.6220 O   0  0  0  0  0  0  0  0  0  0  0  0
  142.7250  159.3790  133.6060 O   0  0  0  0  0  0  0  0  0  0  0  0
  141.8810  159.7640  134.6880 C   0  0  0  0  0  0  0  0  0  0  0  0
  140.5150  159.5430  134.3500 O   0  0  0  0  0  0  0  0  0  0  0  0
  139.8610  158.3300  134.5850 C   0  0  0  0  0  0  0  0  0  0  0  0
  140.1810  157.6030  135.5640 O   0  0  0  0  0  0  0  0  0  0  0  0
  138.7360  157.9190  133.6890 C   0  0  0  0  0  0  0  0  0  0  0  0
  139.2170  157.8470  132.2370 C   0  0  0  0  0  0  0  0  0  0  0  0
  139.4690  159.2470  131.6700 C   0  0  0  0  0  0  0  0  0  0  0  0
  138.2340  159.7740  131.0100 C   0  0  0  0  0  0  0  0  0  0  0  0
  137.0990  159.3820  131.3880 O   0  0  0  0  0  0  0  0  0  0  0  0
  138.3350  160.7370  130.0150 O   0  0  0  0  0  0  0  0  0  0  0  0
  146.2900  158.6220  132.9930 C   0  0  0  0  0  0  0  0  0  0  0  0
  146.9770  159.7440  132.5130 C   0  0  0  0  0  0  0  0  0  0  0  0
  150.5269  159.8764  130.1524 H   0  0  0  0  0  0  0  0  0  0  0  0
  148.8450  159.8193  129.5242 H   0  0  0  0  0  0  0  0  0  0  0  0
  149.7516  161.3700  129.5242 H   0  0  0  0  0  0  0  0  0  0  0  0
  149.8932  160.9694  132.1309 H   0  0  0  0  0  0  0  0  0  0  0  0
  148.3688  161.6039  131.4004 H   0  0  0  0  0  0  0  0  0  0  0  0
  149.8749  158.1326  131.5852 H   0  0  0  0  0  0  0  0  0  0  0  0
  148.5780  156.1502  132.4349 H   0  0  0  0  0  0  0  0  0  0  0  0
  146.0502  155.3871  133.5326 H   0  0  0  0  0  0  0  0  0  0  0  0
  141.7070  157.6100  134.0330 H   0  0  0  0  0  0  0  0  0  0  0  0
  142.1360  159.1688  135.5772 H   0  0  0  0  0  0  0  0  0  0  0  0
  142.0303  160.8337  134.8962 H   0  0  0  0  0  0  0  0  0  0  0  0
  138.3668  156.9303  133.9991 H   0  0  0  0  0  0  0  0  0  0  0  0
  137.9277  158.6614  133.7634 H   0  0  0  0  0  0  0  0  0  0  0  0
  140.1522  157.2692  132.1965 H   0  0  0  0  0  0  0  0  0  0  0  0
  138.4360  157.3610  131.6338 H   0  0  0  0  0  0  0  0  0  0  0  0
  139.7587  159.9225  132.4884 H   0  0  0  0  0  0  0  0  0  0  0  0
  140.2748  159.1892  130.9235 H   0  0  0  0  0  0  0  0  0  0  0  0
  146.5074  160.7387  132.5215 H   0  0  0  0  0  0  0  0  0  0  0  0
  1  2  1  0
  2  3  1  0
  3  4  2  0
  4  5  1  0
  5  6  2  0
  6  7  1  0
  7  8  2  0
  8  9  1  0
  9 10  1  0
  9 11  2  0
  8 12  1  0
 12 13  1  0
 13 14  2  0
 13 15  1  0
 15 16  1  0
 16 17  1  0
 17 18  1  0
 18 19  2  0
 18 20  1  0
 20 21  1  0
 21 22  1  0
 22 23  1  0
 23 24  2  0
 23 25  1  0
 12 26  1  0
 26 27  2  0
 27  3  1  0
 26  6  1  0
  1 28  1  0
  1 29  1  0
  1 30  1  0
  2 31  1  0
  2 32  1  0
  4 33  1  0
  5 34  1  0
  7 35  1  0
 10 36  1  0
 16 37  1  0
 16 38  1  0
 20 39  1  0
 20 40  1  0
 21 41  1  0
 21 42  1  0
 22 43  1  0
 22 44  1  0
 27 45  1  0
M  CHG  2  10  -1  25  -1
M  END
>  <UniqueID>  (7) 
7

>  <SMILES>  (7) 
CCc1ccc2cc(C([NH-])=O)n(C(=O)OCOC(=O)CCCC(=O)[O-])c2c1

>  <Energy>  (7) 
69.98149168686231

>  <Genealogy>  (7) 
CCc1ccc2cc(C([NH-])=O)n(C(=O)OCOC(=O)CCCC(=O)[O-])c2c1 (protonated)
CCc1ccc2cc(C([NH-])=O)n(C(=O)OCOC(=O)CCCC(=O)[O-])c2c1 (3D coordinates assigned)
CCc1ccc2cc(C([NH-])=O)n(C(=O)OCOC(=O)CCCC(=O)[O-])c2c1 (optimized conformer: 69.98149168686231 kcal/mol)

>  <smiles>  (7) 
CCc1ccc2cc(C(N)=O)n(C(=O)OCOC(=O)CCCC(=O)O)c2c1

>  <score_type>  (7) 
oracle

>  <origin>  (7) 
adg

>  <m_score__min__energy>  (7) 
-6.9500000000000002

>  <m_primary>  (7) 
energy

$$$$
7:0
     RDKit          3D

 35 36  0  0  0  0  0  0  0  0999 V2000
  140.1040  160.1170  132.3290 C   0  0  0  0  0  0  0  0  0  0  0  0
  140.9620  159.0220  132.7910 N   0  0  0  0  0  0  0  0  0  0  0  0
  140.5420  158.5190  134.1070 C   0  0  0  0  0  0  0  0  0  0  0  0
  141.7040  158.0330  134.9250 C   0  0  0  0  0  0  0  0  0  0  0  0
  141.5190  157.1510  135.8070 O   0  0  0  0  0  0  0  0  0  0  0  0
  142.9740  158.5780  134.6980 O   0  0  0  0  0  0  0  0  0  0  0  0
  143.7290  158.4000  133.5290 C   0  0  0  0  0  0  0  0  0  0  0  0
  143.3060  157.6640  132.5950 O   0  0  0  0  0  0  0  0  0  0  0  0
  145.0050  159.0470  133.4040 N   0  0  0  0  0  0  0  0  0  0  0  0
  145.2870  160.3700  133.5730 C   0  0  0  0  0  0  0  0  0  0  0  0
  144.2980  161.4540  133.7380 C   0  0  0  0  0  0  0  0  0  0  0  0
  142.9060  161.2110  133.5490 N   0  0  0  0  0  0  0  0  0  0  0  0
  144.6910  162.6240  133.9960 O   0  0  0  0  0  0  0  0  0  0  0  0
  146.6600  160.5930  133.4850 C   0  0  0  0  0  0  0  0  0  0  0  0
  147.2150  159.3580  133.2470 C   0  0  0  0  0  0  0  0  0  0  0  0
  148.5480  158.9940  133.0780 C   0  0  0  0  0  0  0  0  0  0  0  0
  148.8380  157.6340  132.8740 C   0  0  0  0  0  0  0  0  0  0  0  0
  147.8020  156.6700  132.8620 C   0  0  0  0  0  0  0  0  0  0  0  0
  148.1230  155.2250  132.6160 C   0  0  0  0  0  0  0  0  0  0  0  0
  146.4590  157.0780  133.0210 C   0  0  0  0  0  0  0  0  0  0  0  0
  146.1970  158.4400  133.2040 C   0  0  0  0  0  0  0  0  0  0  0  0
  139.6878  160.6482  133.1977 H   0  0  0  0  0  0  0  0  0  0  0  0
  140.6971  160.8162  131.7213 H   0  0  0  0  0  0  0  0  0  0  0  0
  139.2832  159.7083  131.7213 H   0  0  0  0  0  0  0  0  0  0  0  0
  141.9470  159.3690  132.8460 H   0  0  0  0  0  0  0  0  0  0  0  0
  140.0393  159.3310  134.6528 H   0  0  0  0  0  0  0  0  0  0  0  0
  139.8646  157.6680  133.9431 H   0  0  0  0  0  0  0  0  0  0  0  0
  142.5170  160.2450  133.6200 H   0  0  0  0  0  0  0  0  0  0  0  0
  147.1874  161.5531  133.5848 H   0  0  0  0  0  0  0  0  0  0  0  0
  149.3493  159.7472  133.1033 H   0  0  0  0  0  0  0  0  0  0  0  0
  149.8800  157.3159  132.7222 H   0  0  0  0  0  0  0  0  0  0  0  0
  148.2383  154.7059  133.5789 H   0  0  0  0  0  0  0  0  0  0  0  0
  147.3062  154.7601  132.0444 H   0  0  0  0  0  0  0  0  0  0  0  0
  149.0598  155.1497  132.0444 H   0  0  0  0  0  0  0  0  0  0  0  0
  145.6402  156.3437  133.0014 H   0  0  0  0  0  0  0  0  0  0  0  0
  1  2  1  0
  2  3  1  0
  3  4  1  0
  4  5  2  0
  4  6  1  0
  6  7  1  0
  7  8  2  0
  7  9  1  0
  9 10  1  0
 10 11  1  0
 11 12  1  0
 11 13  2  0
 10 14  2  0
 14 15  1  0
 15 16  2  0
 16 17  1  0
 17 18  2  0
 18 19  1  0
 18 20  1  0
 20 21  2  0
 21  9  1  0
 21 15  1  0
  1 22  1  0
  1 23  1  0
  1 24  1  0
  2 25  1  0
  3 26  1  0
  3 27  1  0
 12 28  1  0
 14 29  1  0
 16 30  1  0
 17 31  1  0
 19 32  1  0
 19 33  1  0
 19 34  1  0
 20 35  1  0
M  CHG  1  12  -1
M  END
>  <UniqueID>  (8) 
8

>  <SMILES>  (8) 
CNCC(=O)OC(=O)n1c(C([NH-])=O)cc2ccc(C)cc21

>  <Energy>  (8) 
72.76405847302053

>  <Genealogy>  (8) 
CNCC(=O)OC(=O)n1c(C([NH-])=O)cc2ccc(C)cc21 (protonated)
CNCC(=O)OC(=O)n1c(C([NH-])=O)cc2ccc(C)cc21 (3D coordinates assigned)
CNCC(=O)OC(=O)n1c(C([NH-])=O)cc2ccc(C)cc21 (optimized conformer: 72.76405847302053 kcal/mol)

>  <smiles>  (8) 
CNCC(=O)OC(=O)n1c(C(N)=O)cc2ccc(C)cc21

>  <score_type>  (8) 
oracle

>  <origin>  (8) 
adg

>  <m_score__min__energy>  (8) 
-5.9500000000000002

>  <m_primary>  (8) 
energy

$$$$
8:0
     RDKit          3D

 58 60  0  0  0  0  0  0  0  0999 V2000
  139.8810  156.1760  133.0050 C   0  0  0  0  0  0  0  0  0  0  0  0
  139.0810  157.1360  133.7870 N   0  0  0  0  0  0  0  0  0  0  0  0
  138.7830  158.3620  133.0160 C   0  0  0  0  0  0  0  0  0  0  0  0
  140.0520  159.1900  132.7450 C   0  0  0  0  0  0  0  0  0  0  0  0
  140.9550  159.1470  133.9000 N   0  0  0  0  0  0  0  0  0  0  0  0
  142.3510  159.4630  133.7400 C   0  0  0  0  0  0  0  0  0  0  0  0
  142.7890  160.8100  133.8080 C   0  0  0  0  0  0  0  0  0  0  0  0
  144.1510  161.1290  133.6840 C   0  0  0  0  0  0  0  0  0  0  0  0
  145.0510  160.0850  133.4910 C   0  0  0  0  0  0  0  0  0  0  0  0
  146.4210  160.1110  133.3640 C   0  0  0  0  0  0  0  0  0  0  0  0
  146.8010  158.7800  133.2020 C   0  0  0  0  0  0  0  0  0  0  0  0
  148.1870  158.3470  132.9270 C   0  0  0  0  0  0  0  0  0  0  0  0
  148.4710  157.4370  131.8620 N   0  0  0  0  0  0  0  0  0  0  0  0
  149.1310  158.7540  133.6550 O   0  0  0  0  0  0  0  0  0  0  0  0
  145.7100  157.9630  133.2320 N   0  0  0  0  0  0  0  0  0  0  0  0
  145.6910  156.5280  133.1700 C   0  0  0  0  0  0  0  0  0  0  0  0
  146.6670  155.9070  132.6650 O   0  0  0  0  0  0  0  0  0  0  0  0
  144.5830  155.8240  133.6540 O   0  0  0  0  0  0  0  0  0  0  0  0
  143.7430  155.0370  132.8140 C   0  0  0  0  0  0  0  0  0  0  0  0
  142.4650  154.8680  133.4200 O   0  0  0  0  0  0  0  0  0  0  0  0
  142.2450  154.0100  134.5040 C   0  0  0  0  0  0  0  0  0  0  0  0
  141.7390  152.8700  134.3120 O   0  0  0  0  0  0  0  0  0  0  0  0
  142.6800  154.4380  135.8920 C   0  0  0  0  0  0  0  0  0  0  0  0
  141.8370  153.6800  136.9320 C   0  0  0  0  0  0  0  0  0  0  0  0
  144.1700  154.0980  136.0890 C   0  0  0  0  0  0  0  0  0  0  0  0
  142.4880  155.9580  136.0850 C   0  0  0  0  0  0  0  0  0  0  0  0
  144.6450  158.7780  133.4110 C   0  0  0  0  0  0  0  0  0  0  0  0
  143.2970  158.4310  133.5500 C   0  0  0  0  0  0  0  0  0  0  0  0
  140.4050  158.7710  135.2060 C   0  0  0  0  0  0  0  0  0  0  0  0
  139.6900  157.4100  135.1150 C   0  0  0  0  0  0  0  0  0  0  0  0
  140.4322  155.5146  133.6896 H   0  0  0  0  0  0  0  0  0  0  0  0
  139.2139  155.5736  132.3709 H   0  0  0  0  0  0  0  0  0  0  0  0
  140.5939  156.7235  132.3709 H   0  0  0  0  0  0  0  0  0  0  0  0
  138.3319  158.0768  132.0542 H   0  0  0  0  0  0  0  0  0  0  0  0
  138.0924  158.9793  133.6093 H   0  0  0  0  0  0  0  0  0  0  0  0
  140.5703  158.7794  131.8659 H   0  0  0  0  0  0  0  0  0  0  0  0
  139.7605  160.2348  132.5624 H   0  0  0  0  0  0  0  0  0  0  0  0
  142.0537  161.6140  133.9596 H   0  0  0  0  0  0  0  0  0  0  0  0
  144.4960  162.1721  133.7378 H   0  0  0  0  0  0  0  0  0  0  0  0
  147.0765  160.9941  133.3857 H   0  0  0  0  0  0  0  0  0  0  0  0
  149.4490  157.1090  131.7000 H   0  0  0  0  0  0  0  0  0  0  0  0
  147.7220  157.1170  131.2090 H   0  0  0  0  0  0  0  0  0  0  0  0
  143.6220  155.5423  131.8444 H   0  0  0  0  0  0  0  0  0  0  0  0
  144.2049  154.0496  132.6664 H   0  0  0  0  0  0  0  0  0  0  0  0
  142.1574  153.9681  137.9441 H   0  0  0  0  0  0  0  0  0  0  0  0
  140.7749  153.9328  136.7978 H   0  0  0  0  0  0  0  0  0  0  0  0
  141.9760  152.5971  136.7978 H   0  0  0  0  0  0  0  0  0  0  0  0
  144.3953  154.0466  137.1645 H   0  0  0  0  0  0  0  0  0  0  0  0
  144.3894  153.1267  135.6216 H   0  0  0  0  0  0  0  0  0  0  0  0
  144.7890  154.8780  135.6216 H   0  0  0  0  0  0  0  0  0  0  0  0
  142.4587  156.1903  137.1598 H   0  0  0  0  0  0  0  0  0  0  0  0
  143.3254  156.4958  135.6164 H   0  0  0  0  0  0  0  0  0  0  0  0
  141.5432  156.2707  135.6164 H   0  0  0  0  0  0  0  0  0  0  0  0
  142.9806  157.3782  133.5122 H   0  0  0  0  0  0  0  0  0  0  0  0
  141.2233  158.7024  135.9379 H   0  0  0  0  0  0  0  0  0  0  0  0
  139.6793  159.5352  135.5213 H   0  0  0  0  0  0  0  0  0  0  0  0
  140.4234  156.6187  135.3294 H   0  0  0  0  0  0  0  0  0  0  0  0
  138.8671  157.4328  135.8446 H   0  0  0  0  0  0  0  0  0  0  0  0
  1  2  1  0
  2  3  1  0
  3  4  1  0
  4  5  1  0
  5  6  1  0
  6  7  2  0
  7  8  1  0
  8  9  2  0
  9 10  1  0
 10 11  2  0
 11 12  1  0
 12 13  1  0
 12 14  2  0
 11 15  1  0
 15 16  1  0
 16 17  2  0
 16 18  1  0
 18 19  1  0
 19 20  1  0
 20 21  1  0
 21 22  2  0
 21 23  1  0
 23 24  1  0
 23 25  1  0
 23 26  1  0
 15 27  1  0
 27 28  2  0
  5 29  1  0
 29 30  1  0
 30  2  1  0
 28  6  1  0
 27  9  1  0
  1 31  1  0
  1 32  1  0
  1 33  1  0
  3 34  1  0
  3 35  1  0
  4 36  1  0
  4 37  1  0
  7 38  1  0
  8 39  1  0
 10 40  1  0
 13 41  1  0
 13 42  1  0
 19 43  1  0
 19 44  1  0
 24 45  1  0
 24 46  1  0
 24 47  1  0
 25 48  1  0
 25 49  1  0
 25 50  1  0
 26 51  1  0
 26 52  1  0
 26 53  1  0
 28 54  1  0
 29 55  1  0
 29 56  1  0
 30 57  1  0
 30 58  1  0
M  END
>  <UniqueID>  (9) 
9

>  <SMILES>  (9) 
CN1CCN(c2ccc3cc(C(N)=O)n(C(=O)OCOC(=O)C(C)(C)C)c3c2)CC1

>  <Energy>  (9) 
100.19532572821925

>  <Genealogy>  (9) 
CN1CCN(c2ccc3cc(C(N)=O)n(C(=O)OCOC(=O)C(C)(C)C)c3c2)CC1 (3D coordinates assigned)
CN1CCN(c2ccc3cc(C(N)=O)n(C(=O)OCOC(=O)C(C)(C)C)c3c2)CC1 (nonaromatic ring conformer: 100.19532572821925 kcal/mol)

>  <smiles>  (9) 
CN1CCN(c2ccc3cc(C(N)=O)n(C(=O)OCOC(=O)C(C)(C)C)c3c2)CC1

>  <score_type>  (9) 
oracle

>  <origin>  (9) 
adg

>  <m_score__min__energy>  (9) 
-8.7300000000000004

>  <m_primary>  (9) 
energy

$$$$
9:0
     RDKit          3D

 26 27  0  0  0  0  0  0  0  0999 V2000
  148.2250  161.2350  131.1380 N   0  0  0  0  0  0  0  0  0  0  0  0
  149.1090  160.1880  131.5250 C   0  0  0  0  0  0  0  0  0  0  0  0
  150.3490  160.3340  131.3520 O   0  0  0  0  0  0  0  0  0  0  0  0
  148.5990  158.9510  132.1540 C   0  0  0  0  0  0  0  0  0  0  0  0
  149.1960  157.7010  131.9960 C   0  0  0  0  0  0  0  0  0  0  0  0
  148.4510  156.8390  132.7680 C   0  0  0  0  0  0  0  0  0  0  0  0
  148.5770  155.4670  132.9570 C   0  0  0  0  0  0  0  0  0  0  0  0
  147.6350  154.8250  133.7790 C   0  0  0  0  0  0  0  0  0  0  0  0
  146.5940  155.5620  134.4020 C   0  0  0  0  0  0  0  0  0  0  0  0
  145.5540  154.8520  135.2310 C   0  0  0  0  0  0  0  0  0  0  0  0
  144.4820  155.6890  135.4920 F   0  0  0  0  0  0  0  0  0  0  0  0
  146.1190  154.4580  136.4290 F   0  0  0  0  0  0  0  0  0  0  0  0
  145.0780  153.7360  134.5670 F   0  0  0  0  0  0  0  0  0  0  0  0
  146.4850  156.9510  134.1630 C   0  0  0  0  0  0  0  0  0  0  0  0
  147.4490  157.5660  133.3560 C   0  0  0  0  0  0  0  0  0  0  0  0
  147.5290  158.8640  132.9930 N   0  0  0  0  0  0  0  0  0  0  0  0
  146.6070  159.9050  133.3490 C   0  0  0  0  0  0  0  0  0  0  0  0
  147.0460  161.0360  133.6880 O   0  0  0  0  0  0  0  0  0  0  0  0
  145.1570  159.6670  133.3290 C   0  0  0  0  0  0  0  0  0  0  0  0
  144.6720  158.7470  132.6200 O   0  0  0  0  0  0  0  0  0  0  0  0
  144.3130  160.4490  134.1070 O   0  0  0  0  0  0  0  0  0  0  0  0
  147.8260  161.8910  131.8450 H   0  0  0  0  0  0  0  0  0  0  0  0
  150.0763  157.4557  131.3838 H   0  0  0  0  0  0  0  0  0  0  0  0
  149.3895  154.9013  132.4776 H   0  0  0  0  0  0  0  0  0  0  0  0
  147.7052  153.7393  133.9414 H   0  0  0  0  0  0  0  0  0  0  0  0
  145.6619  157.5347  134.6010 H   0  0  0  0  0  0  0  0  0  0  0  0
  1  2  1  0
  2  3  2  0
  2  4  1  0
  4  5  2  0
  5  6  1  0
  6  7  2  0
  7  8  1  0
  8  9  2  0
  9 10  1  0
 10 11  1  0
 10 12  1  0
 10 13  1  0
  9 14  1  0
 14 15  2  0
 15 16  1  0
 16 17  1  0
 17 18  2  0
 17 19  1  0
 19 20  2  0
 19 21  1  0
 16  4  1  0
 15  6  1  0
  1 22  1  0
  5 23  1  0
  7 24  1  0
  8 25  1  0
 14 26  1  0
M  CHG  2   1  -1  21  -1
M  END
>  <UniqueID>  (10) 
10

>  <SMILES>  (10) 
[NH-]C(=O)c1cc2ccc(C(F)(F)F)cc2n1C(=O)C(=O)[O-]

>  <Energy>  (10) 
66.69402905376232

>  <Genealogy>  (10) 
[NH-]C(=O)c1cc2ccc(C(F)(F)F)cc2n1C(=O)C(=O)[O-] (protonated)
[NH-]C(=O)c1cc2ccc(C(F)(F)F)cc2n1C(=O)C(=O)[O-] (3D coordinates assigned)
[NH-]C(=O)c1cc2ccc(C(F)(F)F)cc2n1C(=O)C(=O)[O-] (optimized conformer: 66.69402905376232 kcal/mol)

>  <smiles>  (10) 
NC(=O)c1cc2ccc(C(F)(F)F)cc2n1C(=O)C(=O)O

>  <score_type>  (10) 
oracle

>  <origin>  (10) 
adg

>  <m_score__min__energy>  (10) 
-5.3399999999999999

>  <m_primary>  (10) 
energy

$$$$
10:0
     RDKit          3D

 39 40  0  0  0  0  0  0  0  0999 V2000
  148.8130  160.5790  131.0630 C   0  0  0  0  0  0  0  0  0  0  0  0
  148.0950  160.8440  132.2610 O   0  0  0  0  0  0  0  0  0  0  0  0
  147.9460  159.8930  133.2760 C   0  0  0  0  0  0  0  0  0  0  0  0
  148.8420  159.7530  134.1520 O   0  0  0  0  0  0  0  0  0  0  0  0
  146.7560  159.0900  133.3330 N   0  0  0  0  0  0  0  0  0  0  0  0
  145.5010  159.4820  133.6940 C   0  0  0  0  0  0  0  0  0  0  0  0
  145.0690  160.8710  133.9560 C   0  0  0  0  0  0  0  0  0  0  0  0
  146.0430  161.8850  134.1910 N   0  0  0  0  0  0  0  0  0  0  0  0
  143.8460  161.1670  134.0100 O   0  0  0  0  0  0  0  0  0  0  0  0
  144.6320  158.3940  133.7060 C   0  0  0  0  0  0  0  0  0  0  0  0
  145.3960  157.3130  133.3320 C   0  0  0  0  0  0  0  0  0  0  0  0
  145.0440  155.9740  133.1950 C   0  0  0  0  0  0  0  0  0  0  0  0
  146.0490  155.0630  132.8260 C   0  0  0  0  0  0  0  0  0  0  0  0
  147.3780  155.5030  132.5990 C   0  0  0  0  0  0  0  0  0  0  0  0
  148.4090  154.5520  132.2630 N   0  0  0  0  0  0  0  0  0  0  0  0
  148.2190  153.3130  133.0340 C   0  0  0  0  0  0  0  0  0  0  0  0
  148.9490  152.1110  132.3940 C   0  0  1  0  0  0  0  0  0  0  0  0
  149.6260  152.5260  131.2330 O   0  0  0  0  0  0  0  0  0  0  0  0
  149.9300  151.4290  133.3680 C   0  0  0  0  0  0  0  0  0  0  0  0
  151.1460  151.1530  132.7230 O   0  0  0  0  0  0  0  0  0  0  0  0
  147.6980  156.8710  132.7590 C   0  0  0  0  0  0  0  0  0  0  0  0
  146.6740  157.7590  133.1120 C   0  0  0  0  0  0  0  0  0  0  0  0
  149.8181  160.2080  131.3123 H   0  0  0  0  0  0  0  0  0  0  0  0
  148.2773  159.8194  130.4748 H   0  0  0  0  0  0  0  0  0  0  0  0
  148.8992  161.5045  130.4748 H   0  0  0  0  0  0  0  0  0  0  0  0
  146.8050  162.0690  133.5010 H   0  0  0  0  0  0  0  0  0  0  0  0
  143.5619  158.3981  133.9605 H   0  0  0  0  0  0  0  0  0  0  0  0
  144.0111  155.6385  133.3700 H   0  0  0  0  0  0  0  0  0  0  0  0
  145.8019  153.9972  132.7121 H   0  0  0  0  0  0  0  0  0  0  0  0
  148.3640  154.3480  131.2390 H   0  0  0  0  0  0  0  0  0  0  0  0
  149.3480  154.9640  132.4720 H   0  0  0  0  0  0  0  0  0  0  0  0
  148.6101  153.4648  134.0508 H   0  0  0  0  0  0  0  0  0  0  0  0
  147.1428  153.0859  133.0494 H   0  0  0  0  0  0  0  0  0  0  0  0
  148.1848  151.3642  132.1326 H   0  0  0  0  0  0  0  0  0  0  0  0
  150.5290  152.8350  131.5080 H   0  0  0  0  0  0  0  0  0  0  0  0
  150.1159  152.0967  134.2222 H   0  0  0  0  0  0  0  0  0  0  0  0
  149.4881  150.4840  133.7168 H   0  0  0  0  0  0  0  0  0  0  0  0
  151.0890  151.5630  131.8210 H   0  0  0  0  0  0  0  0  0  0  0  0
  148.7272  157.2295  132.6097 H   0  0  0  0  0  0  0  0  0  0  0  0
  1  2  1  0
  2  3  1  0
  3  4  2  0
  3  5  1  0
  5  6  1  0
  6  7  1  0
  7  8  1  0
  7  9  2  0
  6 10  2  0
 10 11  1  0
 11 12  2  0
 12 13  1  0
 13 14  2  0
 14 15  1  0
 15 16  1  0
 16 17  1  0
 17 18  1  0
 17 19  1  0
 19 20  1  0
 14 21  1  0
 21 22  2  0
 22  5  1  0
 22 11  1  0
  1 23  1  0
  1 24  1  0
  1 25  1  0
  8 26  1  0
 10 27  1  0
 12 28  1  0
 13 29  1  0
 15 30  1  0
 15 31  1  0
 16 32  1  0
 16 33  1  0
 17 34  1  6
 18 35  1  0
 19 36  1  0
 19 37  1  0
 20 38  1  0
 21 39  1  0
M  CHG  2   8  -1  15   1
M  END
>  <UniqueID>  (11) 
11

>  <SMILES>  (11) 
COC(=O)n1c(C([NH-])=O)cc2ccc([NH2+]C[C@@H](O)CO)cc21

>  <Energy>  (11) 
74.32158676218955

>  <Genealogy>  (11) 
COC(=O)n1c(C([NH-])=O)cc2ccc([NH2+]CC(O)CO)cc21 (protonated)
COC(=O)n1c(C([NH-])=O)cc2ccc([NH2+]C[C@@H](O)CO)cc21 (chirality)
COC(=O)n1c(C([NH-])=O)cc2ccc([NH2+]C[C@@H](O)CO)cc21 (3D coordinates assigned)
COC(=O)n1c(C([NH-])=O)cc2ccc([NH2+]C[C@@H](O)CO)cc21 (optimized conformer: 74.32158676218955 kcal/mol)

>  <smiles>  (11) 
COC(=O)n1c(C(N)=O)cc2ccc(NCC(O)CO)cc21

>  <score_type>  (11) 
oracle

>  <origin>  (11) 
adg

>  <m_score__min__energy>  (11) 
-5.9500000000000002

>  <m_primary>  (11) 
energy

$$$$
11:0
     RDKit          3D

 38 40  0  0  0  0  0  0  0  0999 V2000
  147.0940  160.8660  133.2130 N   0  0  0  0  0  0  0  0  0  0  0  0
  145.9540  160.0220  133.3890 C   0  0  0  0  0  0  0  0  0  0  0  0
  144.8310  160.5420  133.6250 O   0  0  0  0  0  0  0  0  0  0  0  0
  146.0810  158.5510  133.3660 C   0  0  0  0  0  0  0  0  0  0  0  0
  145.0050  157.6850  133.5430 C   0  0  0  0  0  0  0  0  0  0  0  0
  145.5480  156.4220  133.5130 C   0  0  0  0  0  0  0  0  0  0  0  0
  144.9280  155.1820  133.6250 C   0  0  0  0  0  0  0  0  0  0  0  0
  145.7280  154.0320  133.5170 C   0  0  0  0  0  0  0  0  0  0  0  0
  147.1270  154.1390  133.2880 C   0  0  0  0  0  0  0  0  0  0  0  0
  147.9660  152.9740  133.1600 N   0  0  0  0  0  0  0  0  0  0  0  0
  149.0970  152.8650  132.2370 C   0  0  0  0  0  0  0  0  0  0  0  0
  149.6310  151.4670  132.2240 C   0  0  0  0  0  0  0  0  0  0  0  0
  149.4040  150.6940  133.1910 O   0  0  0  0  0  0  0  0  0  0  0  0
  150.3620  151.0120  131.1340 O   0  0  0  0  0  0  0  0  0  0  0  0
  147.7150  155.4180  133.1810 C   0  0  0  0  0  0  0  0  0  0  0  0
  146.8980  156.5470  133.3150 C   0  0  0  0  0  0  0  0  0  0  0  0
  147.2430  157.8520  133.2190 N   0  0  0  0  0  0  0  0  0  0  0  0
  148.5450  158.3720  132.9060 C   0  0  0  0  0  0  0  0  0  0  0  0
  149.2020  158.9950  133.7840 O   0  0  0  0  0  0  0  0  0  0  0  0
  149.0740  158.1930  131.6250 O   0  0  0  0  0  0  0  0  0  0  0  0
  149.3340  159.2810  130.7420 C   0  0  0  0  0  0  0  0  0  0  0  0
  148.1340  160.1820  130.5920 C   0  0  0  0  0  0  0  0  0  0  0  0
  148.7640  161.2460  131.2660 O   0  0  0  0  0  0  0  0  0  0  0  0
  149.9270  160.4750  131.4500 C   0  0  0  0  0  0  0  0  0  0  0  0
  146.9780  161.9030  133.1940 H   0  0  0  0  0  0  0  0  0  0  0  0
  148.0600  160.4700  133.1900 H   0  0  0  0  0  0  0  0  0  0  0  0
  143.9469  157.9538  133.6780 H   0  0  0  0  0  0  0  0  0  0  0  0
  143.8437  155.1040  133.7931 H   0  0  0  0  0  0  0  0  0  0  0  0
  145.2667  153.0378  133.6107 H   0  0  0  0  0  0  0  0  0  0  0  0
  147.7650  152.1450  133.7650 H   0  0  0  0  0  0  0  0  0  0  0  0
  148.7645  153.1348  131.2238 H   0  0  0  0  0  0  0  0  0  0  0  0
  149.8938  153.5468  132.5691 H   0  0  0  0  0  0  0  0  0  0  0  0
  148.7940  155.5254  132.9960 H   0  0  0  0  0  0  0  0  0  0  0  0
  149.8261  158.7555  129.9103 H   0  0  0  0  0  0  0  0  0  0  0  0
  147.8866  160.4117  129.5451 H   0  0  0  0  0  0  0  0  0  0  0  0
  147.1558  159.8295  130.9510 H   0  0  0  0  0  0  0  0  0  0  0  0
  150.8120  160.8892  130.9447 H   0  0  0  0  0  0  0  0  0  0  0  0
  150.3253  160.3469  132.4673 H   0  0  0  0  0  0  0  0  0  0  0  0
  1  2  1  0
  2  3  2  0
  2  4  1  0
  4  5  2  0
  5  6  1  0
  6  7  2  0
  7  8  1  0
  8  9  2  0
  9 10  1  0
 10 11  1  0
 11 12  1  0
 12 13  2  0
 12 14  1  0
  9 15  1  0
 15 16  2  0
 16 17  1  0
 17 18  1  0
 18 19  2  0
 18 20  1  0
 20 21  1  0
 21 22  1  0
 22 23  1  0
 23 24  1  0
 17  4  1  0
 24 21  1  0
 16  6  1  0
  1 25  1  0
  1 26  1  0
  5 27  1  0
  7 28  1  0
  8 29  1  0
 10 30  1  0
 11 31  1  0
 11 32  1  0
 15 33  1  0
 21 34  1  0
 22 35  1  0
 22 36  1  0
 24 37  1  0
 24 38  1  0
M  CHG  1  14  -1
M  END
>  <UniqueID>  (12) 
12

>  <SMILES>  (12) 
NC(=O)c1cc2ccc(NCC(=O)[O-])cc2n1C(=O)OC1COC1

>  <Energy>  (12) 
138.77547632849394

>  <Genealogy>  (12) 
NC(=O)c1cc2ccc(NCC(=O)[O-])cc2n1C(=O)OC1COC1 (protonated)
NC(=O)c1cc2ccc(NCC(=O)[O-])cc2n1C(=O)OC1COC1 (3D coordinates assigned)
NC(=O)c1cc2ccc(NCC(=O)[O-])cc2n1C(=O)OC1COC1 (nonaromatic ring conformer: 138.77547632849394 kcal/mol)

>  <smiles>  (12) 
NC(=O)c1cc2ccc(NCC(=O)O)cc2n1C(=O)OC1COC1

>  <score_type>  (12) 
oracle

>  <origin>  (12) 
adg

>  <m_score__min__energy>  (12) 
-6.8899999999999997

>  <m_primary>  (12) 
energy

$$$$
12:0
     RDKit          3D

 34 35  0  0  0  0  0  0  0  0999 V2000
  141.7050  155.1510  133.3540 N   0  0  0  0  0  0  0  0  0  0  0  0
  142.8180  154.9850  134.2300 C   0  0  0  0  0  0  0  0  0  0  0  0
  142.6730  154.3240  135.2910 O   0  0  0  0  0  0  0  0  0  0  0  0
  144.1330  155.5500  133.8630 C   0  0  0  0  0  0  0  0  0  0  0  0
  145.2850  154.7810  133.7170 C   0  0  0  0  0  0  0  0  0  0  0  0
  146.2950  155.6820  133.4680 C   0  0  0  0  0  0  0  0  0  0  0  0
  147.6510  155.4640  133.2380 C   0  0  0  0  0  0  0  0  0  0  0  0
  148.4630  156.5820  132.9850 C   0  0  0  0  0  0  0  0  0  0  0  0
  147.9080  157.8840  132.9500 C   0  0  0  0  0  0  0  0  0  0  0  0
  148.7950  159.0750  132.6970 C   0  0  0  0  0  0  0  0  0  0  0  0
  147.9720  160.3210  132.3690 C   0  0  0  0  0  0  0  0  0  0  0  0
  147.4050  160.8450  133.5380 O   0  0  0  0  0  0  0  0  0  0  0  0
  146.5290  158.0670  133.1970 C   0  0  0  0  0  0  0  0  0  0  0  0
  145.7470  156.9370  133.4650 C   0  0  0  0  0  0  0  0  0  0  0  0
  144.4180  156.8750  133.7050 N   0  0  0  0  0  0  0  0  0  0  0  0
  143.4970  157.9760  133.7080 C   0  0  0  0  0  0  0  0  0  0  0  0
  142.3900  157.8670  133.1130 O   0  0  0  0  0  0  0  0  0  0  0  0
  143.8300  159.1540  134.3910 O   0  0  0  0  0  0  0  0  0  0  0  0
  144.5130  160.2440  133.8360 C   0  0  0  0  0  0  0  0  0  0  0  0
  144.8630  160.2380  132.6250 O   0  0  0  0  0  0  0  0  0  0  0  0
  144.7980  161.3400  134.6610 O   0  0  0  0  0  0  0  0  0  0  0  0
  145.0820  162.6340  134.2080 C   0  0  0  0  0  0  0  0  0  0  0  0
  146.2350  163.1290  134.3140 O   0  0  0  0  0  0  0  0  0  0  0  0
  144.0690  163.3870  133.6300 O   0  0  0  0  0  0  0  0  0  0  0  0
  141.7210  155.8690  132.5950 H   0  0  0  0  0  0  0  0  0  0  0  0
  145.3696  153.6864  133.7860 H   0  0  0  0  0  0  0  0  0  0  0  0
  148.0730  154.4483  133.2539 H   0  0  0  0  0  0  0  0  0  0  0  0
  149.5406  156.4445  132.8124 H   0  0  0  0  0  0  0  0  0  0  0  0
  149.3978  159.2702  133.5962 H   0  0  0  0  0  0  0  0  0  0  0  0
  149.4417  158.8496  131.8362 H   0  0  0  0  0  0  0  0  0  0  0  0
  148.6251  161.0781  131.9104 H   0  0  0  0  0  0  0  0  0  0  0  0
  147.1678  160.0476  131.6701 H   0  0  0  0  0  0  0  0  0  0  0  0
  146.5570  161.2800  133.2600 H   0  0  0  0  0  0  0  0  0  0  0  0
  146.0812  159.0716  133.1792 H   0  0  0  0  0  0  0  0  0  0  0  0
  1  2  1  0
  2  3  2  0
  2  4  1  0
  4  5  2  0
  5  6  1  0
  6  7  2  0
  7  8  1  0
  8  9  2  0
  9 10  1  0
 10 11  1  0
 11 12  1  0
  9 13  1  0
 13 14  2  0
 14 15  1  0
 15 16  1  0
 16 17  2  0
 16 18  1  0
 18 19  1  0
 19 20  2  0
 19 21  1  0
 21 22  1  0
 22 23  2  0
 22 24  1  0
 15  4  1  0
 14  6  1  0
  1 25  1  0
  5 26  1  0
  7 27  1  0
  8 28  1  0
 10 29  1  0
 10 30  1  0
 11 31  1  0
 11 32  1  0
 12 33  1  0
 13 34  1  0
M  CHG  2   1  -1  24  -1
M  END
>  <UniqueID>  (13) 
13

>  <SMILES>  (13) 
[NH-]C(=O)c1cc2ccc(CCO)cc2n1C(=O)OC(=O)OC(=O)[O-]

>  <Energy>  (13) 
72.19172232115433

>  <Genealogy>  (13) 
[NH-]C(=O)c1cc2ccc(CCO)cc2n1C(=O)OC(=O)OC(=O)[O-] (protonated)
[NH-]C(=O)c1cc2ccc(CCO)cc2n1C(=O)OC(=O)OC(=O)[O-] (3D coordinates assigned)
[NH-]C(=O)c1cc2ccc(CCO)cc2n1C(=O)OC(=O)OC(=O)[O-] (optimized conformer: 72.19172232115433 kcal/mol)

>  <smiles>  (13) 
NC(=O)c1cc2ccc(CCO)cc2n1C(=O)OC(=O)OC(=O)O

>  <score_type>  (13) 
oracle

>  <origin>  (13) 
adg

>  <m_score__min__energy>  (13) 
-6.5300000000000002

>  <m_primary>  (13) 
energy

$$$$
13:0
     RDKit          3D

 54 55  0  0  0  0  0  0  0  0999 V2000
  143.9527  153.0611  133.9488 H   0  0  0  0  0  0  0  0  0  0  0  0
  143.9380  154.1610  133.9550 C   0  0  0  0  0  0  0  0  0  0  0  0
  143.9380  154.8070  132.8420 N   0  0  0  0  0  0  0  0  0  0  0  0
  143.9910  154.1310  131.5690 C   0  0  0  0  0  0  0  0  0  0  0  0
  144.0760  153.0466  131.7330 H   0  0  0  0  0  0  0  0  0  0  0  0
  143.0733  154.3452  131.0016 H   0  0  0  0  0  0  0  0  0  0  0  0
  144.8641  154.4856  131.0016 H   0  0  0  0  0  0  0  0  0  0  0  0
  143.9180  154.9010  135.2640 C   0  0  2  0  0  0  0  0  0  0  0  0
  143.4823  154.2522  136.0382 H   0  0  0  0  0  0  0  0  0  0  0  0
  143.0940  156.1040  135.1380 N   0  0  0  0  0  0  0  0  0  0  0  0
  143.6030  156.9000  135.5880 H   0  0  0  0  0  0  0  0  0  0  0  0
  142.9800  156.3430  134.1250 H   0  0  0  0  0  0  0  0  0  0  0  0
  145.2850  155.2490  135.6760 N   0  0  0  0  0  0  0  0  0  0  0  0
  145.5460  155.1200  136.6810 H   0  0  0  0  0  0  0  0  0  0  0  0
  146.2810  155.7980  134.7900 C   0  0  0  0  0  0  0  0  0  0  0  0
  147.3420  154.9680  134.3490 C   0  0  0  0  0  0  0  0  0  0  0  0
  147.3895  153.9226  134.6878 H   0  0  0  0  0  0  0  0  0  0  0  0
  148.3340  155.4620  133.4850 C   0  0  0  0  0  0  0  0  0  0  0  0
  149.1563  154.8185  133.1391 H   0  0  0  0  0  0  0  0  0  0  0  0
  148.2440  156.7890  133.0810 C   0  0  0  0  0  0  0  0  0  0  0  0
  149.0500  157.5110  132.2310 C   0  0  0  0  0  0  0  0  0  0  0  0
  149.9524  157.1595  131.7093 H   0  0  0  0  0  0  0  0  0  0  0  0
  148.4810  158.7820  132.1710 C   0  0  0  0  0  0  0  0  0  0  0  0
  149.0710  159.9200  131.4320 C   0  0  0  0  0  0  0  0  0  0  0  0
  150.3000  159.9270  131.1560 O   0  0  0  0  0  0  0  0  0  0  0  0
  148.2550  161.0080  130.9930 N   0  0  0  0  0  0  0  0  0  0  0  0
  147.2440  161.0670  131.2480 H   0  0  0  0  0  0  0  0  0  0  0  0
  148.6750  161.7870  130.4390 H   0  0  0  0  0  0  0  0  0  0  0  0
  147.3660  158.8410  132.9550 N   0  0  0  0  0  0  0  0  0  0  0  0
  146.4610  159.9460  133.1130 C   0  0  0  0  0  0  0  0  0  0  0  0
  146.9110  161.0930  133.3860 O   0  0  0  0  0  0  0  0  0  0  0  0
  145.0870  159.7480  132.9530 O   0  0  0  0  0  0  0  0  0  0  0  0
  144.1810  159.7540  134.0510 C   0  0  0  0  0  0  0  0  0  0  0  0
  144.7422  159.9009  134.9856 H   0  0  0  0  0  0  0  0  0  0  0  0
  143.4576  160.5719  133.9179 H   0  0  0  0  0  0  0  0  0  0  0  0
  143.4810  158.5160  134.1110 O   0  0  0  0  0  0  0  0  0  0  0  0
  142.3650  158.2320  133.3120 C   0  0  0  0  0  0  0  0  0  0  0  0
  142.4830  157.4680  132.3140 O   0  0  0  0  0  0  0  0  0  0  0  0
  140.9990  158.7600  133.7080 C   0  0  0  0  0  0  0  0  0  0  0  0
  140.9740  158.9640  135.2330 C   0  0  0  0  0  0  0  0  0  0  0  0
  141.0930  157.9924  135.7349 H   0  0  0  0  0  0  0  0  0  0  0  0
  141.7970  159.6319  135.5271 H   0  0  0  0  0  0  0  0  0  0  0  0
  140.0141  159.4135  135.5271 H   0  0  0  0  0  0  0  0  0  0  0  0
  140.7240  160.1050  133.0080 C   0  0  0  0  0  0  0  0  0  0  0  0
  140.5642  160.8866  133.7654 H   0  0  0  0  0  0  0  0  0  0  0  0
  141.5857  160.3742  132.3795 H   0  0  0  0  0  0  0  0  0  0  0  0
  139.8258  160.0143  132.3795 H   0  0  0  0  0  0  0  0  0  0  0  0
  139.8980  157.7550  133.3070 C   0  0  0  0  0  0  0  0  0  0  0  0
  139.4375  157.3347  134.2133 H   0  0  0  0  0  0  0  0  0  0  0  0
  139.1305  158.2704  132.7110 H   0  0  0  0  0  0  0  0  0  0  0  0
  140.3415  156.9438  132.7110 H   0  0  0  0  0  0  0  0  0  0  0  0
  147.2350  157.6140  133.5040 C   0  0  0  0  0  0  0  0  0  0  0  0
  146.2220  157.1440  134.3480 C   0  0  0  0  0  0  0  0  0  0  0  0
  145.3992  157.8036  134.6611 H   0  0  0  0  0  0  0  0  0  0  0  0
  1  2  1  0
  2  3  2  0
  3  4  1  0
  4  5  1  0
  4  6  1  0
  4  7  1  0
  2  8  1  0
  8  9  1  1
  8 10  1  0
 10 11  1  0
 10 12  1  0
  8 13  1  0
 13 14  1  0
 13 15  1  0
 15 16  2  0
 16 17  1  0
 16 18  1  0
 18 19  1  0
 18 20  2  0
 20 21  1  0
 21 22  1  0
 21 23  2  0
 23 24  1  0
 24 25  2  0
 24 26  1  0
 26 27  1  0
 26 28  1  0
 23 29  1  0
 29 30  1  0
 30 31  2  0
 30 32  1  0
 32 33  1  0
 33 34  1  0
 33 35  1  0
 33 36  1  0
 36 37  1  0
 37 38  2  0
 37 39  1  0
 39 40  1  0
 40 41  1  0
 40 42  1  0
 40 43  1  0
 39 44  1  0
 44 45  1  0
 44 46  1  0
 44 47  1  0
 39 48  1  0
 48 49  1  0
 48 50  1  0
 48 51  1  0
 29 52  1  0
 52 53  2  0
 53 54  1  0
 53 15  1  0
 52 20  1  0
M  END
>  <UniqueID>  (14) 
14

>  <SMILES>  (14) 
C/N=C/[C@H](N)Nc1ccc2cc(C(N)=O)n(C(=O)OCOC(=O)C(C)(C)C)c2c1

>  <Energy>  (14) 
77.61104879838507

>  <Genealogy>  (14) 
C/N=C/[C@H](N)Nc1ccc2cc(C(N)=O)n(C(=O)OCOC(=O)C(C)(C)C)c2c1 (chirality)
C/N=C/[C@H](N)Nc1ccc2cc(C(N)=O)n(C(=O)OCOC(=O)C(C)(C)C)c2c1 (cis-trans isomerization)
C/N=C/[C@H](N)Nc1ccc2cc(C(N)=O)n(C(=O)OCOC(=O)C(C)(C)C)c2c1 (3D coordinates assigned)
C/N=C/[C@H](N)Nc1ccc2cc(C(N)=O)n(C(=O)OCOC(=O)C(C)(C)C)c2c1 (optimized conformer: 77.61104879838507 kcal/mol)

>  <smiles>  (14) 
C/N=C/C(N)Nc1ccc2cc(C(N)=O)n(C(=O)OCOC(=O)C(C)(C)C)c2c1

>  <score_type>  (14) 
oracle

>  <origin>  (14) 
adg

>  <m_score__min__energy>  (14) 
-7.8200000000000003

>  <m_primary>  (14) 
energy

$$$$
14:0
     RDKit          3D

 36 37  0  0  0  0  0  0  0  0999 V2000
  141.9240  158.1690  135.9230 C   0  0  0  0  0  0  0  0  0  0  0  0
  141.8990  156.7450  135.3390 C   0  0  0  0  0  0  0  0  0  0  0  0
  141.6140  155.7460  136.4730 C   0  0  0  0  0  0  0  0  0  0  0  0
  140.7930  156.6210  134.2760 C   0  0  0  0  0  0  0  0  0  0  0  0
  143.5390  156.2940  134.6240 S   0  0  0  0  0  0  0  0  0  0  0  0
  143.5480  157.3950  133.1980 C   0  0  0  0  0  0  0  0  0  0  0  0
  142.9110  157.0610  132.1640 O   0  0  0  0  0  0  0  0  0  0  0  0
  144.2620  158.6420  133.2280 N   0  0  0  0  0  0  0  0  0  0  0  0
  143.7640  159.8930  133.4440 C   0  0  0  0  0  0  0  0  0  0  0  0
  142.3370  160.2630  133.4670 C   0  0  0  0  0  0  0  0  0  0  0  0
  141.3780  159.5110  132.7280 N   0  0  0  0  0  0  0  0  0  0  0  0
  141.9660  161.2890  134.0970 O   0  0  0  0  0  0  0  0  0  0  0  0
  144.7970  160.8240  133.5280 C   0  0  0  0  0  0  0  0  0  0  0  0
  145.9530  160.1050  133.3360 C   0  0  0  0  0  0  0  0  0  0  0  0
  147.2800  160.5260  133.3270 C   0  0  0  0  0  0  0  0  0  0  0  0
  148.2770  159.5560  133.1330 C   0  0  0  0  0  0  0  0  0  0  0  0
  147.9330  158.1940  132.9570 C   0  0  0  0  0  0  0  0  0  0  0  0
  148.9580  157.2150  132.7720 N   0  0  0  0  0  0  0  0  0  0  0  0
  146.5770  157.8020  132.9700 C   0  0  0  0  0  0  0  0  0  0  0  0
  145.6040  158.7920  133.1510 C   0  0  0  0  0  0  0  0  0  0  0  0
  141.9230  158.1148  137.0217 H   0  0  0  0  0  0  0  0  0  0  0  0
  142.8314  158.6891  135.5823 H   0  0  0  0  0  0  0  0  0  0  0  0
  141.0354  158.7207  135.5823 H   0  0  0  0  0  0  0  0  0  0  0  0
  141.7558  156.2432  137.4439 H   0  0  0  0  0  0  0  0  0  0  0  0
  140.5775  155.3865  136.3931 H   0  0  0  0  0  0  0  0  0  0  0  0
  142.3048  154.8937  136.3931 H   0  0  0  0  0  0  0  0  0  0  0  0
  139.8176  156.5117  134.7727 H   0  0  0  0  0  0  0  0  0  0  0  0
  140.7854  157.5239  133.6478 H   0  0  0  0  0  0  0  0  0  0  0  0
  140.9855  155.7388  133.6478 H   0  0  0  0  0  0  0  0  0  0  0  0
  141.6760  158.8490  131.9780 H   0  0  0  0  0  0  0  0  0  0  0  0
  144.7068  161.9052  133.7095 H   0  0  0  0  0  0  0  0  0  0  0  0
  147.5396  161.5857  133.4675 H   0  0  0  0  0  0  0  0  0  0  0  0
  149.3348  159.8573  133.1177 H   0  0  0  0  0  0  0  0  0  0  0  0
  149.0850  156.7420  131.8500 H   0  0  0  0  0  0  0  0  0  0  0  0
  149.5960  156.9560  133.5560 H   0  0  0  0  0  0  0  0  0  0  0  0
  146.2926  156.7472  132.8414 H   0  0  0  0  0  0  0  0  0  0  0  0
  1  2  1  0
  2  3  1  0
  2  4  1  0
  2  5  1  0
  5  6  1  0
  6  7  2  0
  6  8  1  0
  8  9  1  0
  9 10  1  0
 10 11  1  0
 10 12  2  0
  9 13  2  0
 13 14  1  0
 14 15  2  0
 15 16  1  0
 16 17  2  0
 17 18  1  0
 17 19  1  0
 19 20  2  0
 20  8  1  0
 20 14  1  0
  1 21  1  0
  1 22  1  0
  1 23  1  0
  3 24  1  0
  3 25  1  0
  3 26  1  0
  4 27  1  0
  4 28  1  0
  4 29  1  0
 11 30  1  0
 13 31  1  0
 15 32  1  0
 16 33  1  0
 18 34  1  0
 18 35  1  0
 19 36  1  0
M  CHG  1  11  -1
M  END
>  <UniqueID>  (15) 
15

>  <SMILES>  (15) 
CC(C)(C)SC(=O)n1c(C([NH-])=O)cc2ccc(N)cc21

>  <Energy>  (15) 
67.92984602406455

>  <Genealogy>  (15) 
CC(C)(C)SC(=O)n1c(C([NH-])=O)cc2ccc(N)cc21 (protonated)
CC(C)(C)SC(=O)n1c(C([NH-])=O)cc2ccc(N)cc21 (3D coordinates assigned)
CC(C)(C)SC(=O)n1c(C([NH-])=O)cc2ccc(N)cc21 (optimized conformer: 67.92984602406455 kcal/mol)

>  <smiles>  (15) 
CC(C)(C)SC(=O)n1c(C(N)=O)cc2ccc(N)cc21

>  <score_type>  (15) 
oracle

>  <origin>  (15) 
adg

>  <m_score__min__energy>  (15) 
-6.9299999999999997

>  <m_primary>  (15) 
energy

$$$$
15:0
     RDKit          3D

 42 44  0  0  0  0  0  0  0  0999 V2000
  138.9810  158.4800  132.7780 C   0  0  0  0  0  0  0  0  0  0  0  0
  139.1270  157.3850  133.7540 N   0  0  0  0  0  0  0  0  0  0  0  0
  140.1500  156.3950  133.3250 C   0  0  0  0  0  0  0  0  0  0  0  0
  141.4810  156.4970  134.0940 C   0  0  0  0  0  0  0  0  0  0  0  0
  141.7350  157.8850  134.4880 N   0  0  0  0  0  0  0  0  0  0  0  0
  142.9570  158.5550  134.1220 C   0  0  0  0  0  0  0  0  0  0  0  0
  143.0160  159.9730  134.0940 C   0  0  0  0  0  0  0  0  0  0  0  0
  144.2060  160.6360  133.7480 C   0  0  0  0  0  0  0  0  0  0  0  0
  145.3200  159.8610  133.4430 C   0  0  0  0  0  0  0  0  0  0  0  0
  146.5890  160.2380  133.0650 C   0  0  0  0  0  0  0  0  0  0  0  0
  147.2910  159.0470  132.8910 C   0  0  0  0  0  0  0  0  0  0  0  0
  148.7290  158.9870  132.5560 C   0  0  0  0  0  0  0  0  0  0  0  0
  149.1670  158.4700  131.3030 N   0  0  0  0  0  0  0  0  0  0  0  0
  149.5840  159.3590  133.4040 O   0  0  0  0  0  0  0  0  0  0  0  0
  146.4850  157.9780  133.1420 N   0  0  0  0  0  0  0  0  0  0  0  0
  146.7880  156.5800  133.0070 C   0  0  0  0  0  0  0  0  0  0  0  0
  146.0060  155.8370  132.3580 O   0  0  0  0  0  0  0  0  0  0  0  0
  148.0390  155.9930  133.5900 C   0  0  0  0  0  0  0  0  0  0  0  0
  149.0460  155.9140  132.6190 O   0  0  0  0  0  0  0  0  0  0  0  0
  145.2860  158.4930  133.4840 C   0  0  0  0  0  0  0  0  0  0  0  0
  144.1150  157.8030  133.8150 C   0  0  0  0  0  0  0  0  0  0  0  0
  140.7100  158.5910  135.2660 C   0  0  0  0  0  0  0  0  0  0  0  0
  139.3450  157.8960  135.1250 C   0  0  0  0  0  0  0  0  0  0  0  0
  138.8539  159.4330  133.3124 H   0  0  0  0  0  0  0  0  0  0  0  0
  139.8803  158.5307  132.1466 H   0  0  0  0  0  0  0  0  0  0  0  0
  138.0998  158.2934  132.1466 H   0  0  0  0  0  0  0  0  0  0  0  0
  139.7395  155.3857  133.4761 H   0  0  0  0  0  0  0  0  0  0  0  0
  140.3751  156.6067  132.2693 H   0  0  0  0  0  0  0  0  0  0  0  0
  141.4289  155.8677  134.9947 H   0  0  0  0  0  0  0  0  0  0  0  0
  142.2982  156.1546  133.4421 H   0  0  0  0  0  0  0  0  0  0  0  0
  142.1202  160.5596  134.3459 H   0  0  0  0  0  0  0  0  0  0  0  0
  144.2549  161.7345  133.7193 H   0  0  0  0  0  0  0  0  0  0  0  0
  146.9681  161.2617  132.9292 H   0  0  0  0  0  0  0  0  0  0  0  0
  149.1190  157.4480  131.0980 H   0  0  0  0  0  0  0  0  0  0  0  0
  148.3847  156.6289  134.4183 H   0  0  0  0  0  0  0  0  0  0  0  0
  147.8182  154.9791  133.9550 H   0  0  0  0  0  0  0  0  0  0  0  0
  148.7210  156.4400  131.8420 H   0  0  0  0  0  0  0  0  0  0  0  0
  144.0953  156.7034  133.8360 H   0  0  0  0  0  0  0  0  0  0  0  0
  141.0032  158.5990  136.3262 H   0  0  0  0  0  0  0  0  0  0  0  0
  140.6238  159.6196  134.8859 H   0  0  0  0  0  0  0  0  0  0  0  0
  139.3002  157.0531  135.8303 H   0  0  0  0  0  0  0  0  0  0  0  0
  138.5608  158.6360  135.3425 H   0  0  0  0  0  0  0  0  0  0  0  0
  1  2  1  0
  2  3  1  0
  3  4  1  0
  4  5  1  0
  5  6  1  0
  6  7  2  0
  7  8  1  0
  8  9  2  0
  9 10  1  0
 10 11  2  0
 11 12  1  0
 12 13  1  0
 12 14  2  0
 11 15  1  0
 15 16  1  0
 16 17  2  0
 16 18  1  0
 18 19  1  0
 15 20  1  0
 20 21  2  0
  5 22  1  0
 22 23  1  0
 23  2  1  0
 21  6  1  0
 20  9  1  0
  1 24  1  0
  1 25  1  0
  1 26  1  0
  3 27  1  0
  3 28  1  0
  4 29  1  0
  4 30  1  0
  7 31  1  0
  8 32  1  0
 10 33  1  0
 13 34  1  0
 18 35  1  0
 18 36  1  0
 19 37  1  0
 21 38  1  0
 22 39  1  0
 22 40  1  0
 23 41  1  0
 23 42  1  0
M  CHG  1  13  -1
M  END
>  <UniqueID>  (16) 
16

>  <SMILES>  (16) 
CN1CCN(c2ccc3cc(C([NH-])=O)n(C(=O)CO)c3c2)CC1

>  <Energy>  (16) 
94.19818127138159

>  <Genealogy>  (16) 
CN1CCN(c2ccc3cc(C([NH-])=O)n(C(=O)CO)c3c2)CC1 (protonated)
CN1CCN(c2ccc3cc(C([NH-])=O)n(C(=O)CO)c3c2)CC1 (3D coordinates assigned)
CN1CCN(c2ccc3cc(C([NH-])=O)n(C(=O)CO)c3c2)CC1 (nonaromatic ring conformer: 94.19818127138159 kcal/mol)

>  <smiles>  (16) 
CN1CCN(c2ccc3cc(C(N)=O)n(C(=O)CO)c3c2)CC1

>  <score_type>  (16) 
oracle

>  <origin>  (16) 
adg

>  <m_score__min__energy>  (16) 
-6.7699999999999996

>  <m_primary>  (16) 
energy

$$$$
16:0
     RDKit          3D

 48 52  0  0  0  0  0  0  0  0999 V2000
  150.0110  157.8770  132.2320 N   0  0  0  0  0  0  0  0  0  0  0  0
  149.3810  159.1590  132.2780 C   0  0  0  0  0  0  0  0  0  0  0  0
  150.0510  160.1880  131.9980 O   0  0  0  0  0  0  0  0  0  0  0  0
  147.9770  159.3040  132.7070 C   0  0  0  0  0  0  0  0  0  0  0  0
  147.3490  160.5370  132.8690 C   0  0  0  0  0  0  0  0  0  0  0  0
  146.0910  160.2450  133.3470 C   0  0  0  0  0  0  0  0  0  0  0  0
  145.0370  161.0930  133.6710 C   0  0  0  0  0  0  0  0  0  0  0  0
  143.8330  160.5120  134.1040 C   0  0  0  0  0  0  0  0  0  0  0  0
  143.7010  159.1020  134.1970 C   0  0  0  0  0  0  0  0  0  0  0  0
  142.4500  158.5140  134.6060 N   0  0  0  0  0  0  0  0  0  0  0  0
  142.4510  157.0610  134.8570 C   0  0  0  0  0  0  0  0  0  0  0  0
  141.1420  156.4640  135.4120 C   0  0  2  0  0  0  0  0  0  0  0  0
  139.9740  156.5330  134.4050 C   0  0  0  0  0  0  0  0  0  0  0  0
  139.2410  157.8850  134.4240 C   0  0  1  0  0  0  0  0  0  0  0  0
  138.7730  158.2100  135.8480 C   0  0  0  0  0  0  0  0  0  0  0  0
  139.9990  158.3380  136.7610 C   0  0  1  0  0  0  0  0  0  0  0  0
  140.7710  157.0070  136.8100 C   0  0  0  0  0  0  0  0  0  0  0  0
  140.8880  159.5020  136.2910 C   0  0  0  0  0  0  0  0  0  0  0  0
  141.2880  159.4000  134.8040 C   0  0  2  0  0  0  0  0  0  0  0  0
  140.1140  159.0240  133.8750 C   0  0  0  0  0  0  0  0  0  0  0  0
  144.7970  158.2760  133.8620 C   0  0  0  0  0  0  0  0  0  0  0  0
  145.9890  158.8830  133.4540 C   0  0  0  0  0  0  0  0  0  0  0  0
  147.1370  158.2900  133.0590 N   0  0  0  0  0  0  0  0  0  0  0  0
  147.3700  156.8760  132.9620 C   0  0  0  0  0  0  0  0  0  0  0  0
  147.5910  156.3480  131.8400 O   0  0  0  0  0  0  0  0  0  0  0  0
  147.3990  155.8390  134.4360 S   0  0  0  0  0  0  0  0  0  0  0  0
  149.5220  157.0240  132.5820 H   0  0  0  0  0  0  0  0  0  0  0  0
  150.9930  157.7890  131.8840 H   0  0  0  0  0  0  0  0  0  0  0  0
  147.7687  161.5320  132.6597 H   0  0  0  0  0  0  0  0  0  0  0  0
  145.1428  162.1850  133.5907 H   0  0  0  0  0  0  0  0  0  0  0  0
  142.9837  161.1570  134.3738 H   0  0  0  0  0  0  0  0  0  0  0  0
  142.6727  156.5564  133.9051 H   0  0  0  0  0  0  0  0  0  0  0  0
  143.2041  156.8989  135.6422 H   0  0  0  0  0  0  0  0  0  0  0  0
  141.3442  155.3928  135.5588 H   0  0  0  0  0  0  0  0  0  0  0  0
  140.3731  156.3652  133.3938 H   0  0  0  0  0  0  0  0  0  0  0  0
  139.2458  155.7607  134.6934 H   0  0  0  0  0  0  0  0  0  0  0  0
  138.3661  157.7973  133.7630 H   0  0  0  0  0  0  0  0  0  0  0  0
  138.2150  159.1579  135.8452 H   0  0  0  0  0  0  0  0  0  0  0  0
  138.1185  157.4062  136.2161 H   0  0  0  0  0  0  0  0  0  0  0  0
  139.6686  158.5636  137.7857 H   0  0  0  0  0  0  0  0  0  0  0  0
  141.6979  157.1618  137.3817 H   0  0  0  0  0  0  0  0  0  0  0  0
  140.1112  156.2649  137.2832 H   0  0  0  0  0  0  0  0  0  0  0  0
  140.3396  160.4436  136.4416 H   0  0  0  0  0  0  0  0  0  0  0  0
  141.8150  159.4644  136.8820 H   0  0  0  0  0  0  0  0  0  0  0  0
  141.5903  160.4152  134.5073 H   0  0  0  0  0  0  0  0  0  0  0  0
  139.4808  159.9127  133.7364 H   0  0  0  0  0  0  0  0  0  0  0  0
  140.5495  158.6715  132.9284 H   0  0  0  0  0  0  0  0  0  0  0  0
  144.7147  157.1807  133.9207 H   0  0  0  0  0  0  0  0  0  0  0  0
  1  2  1  0
  2  3  2  0
  2  4  1  0
  4  5  2  0
  5  6  1  0
  6  7  2  0
  7  8  1  0
  8  9  2  0
  9 10  1  0
 10 11  1  0
 11 12  1  0
 12 13  1  0
 13 14  1  0
 14 15  1  0
 15 16  1  0
 16 17  1  0
 16 18  1  0
 18 19  1  0
 19 20  1  0
  9 21  1  0
 21 22  2  0
 22 23  1  0
 23 24  1  0
 24 25  2  0
 24 26  1  0
 23  4  1  0
 22  6  1  0
 19 10  1  0
 17 12  1  0
 20 14  1  0
  1 27  1  0
  1 28  1  0
  5 29  1  0
  7 30  1  0
  8 31  1  0
 11 32  1  0
 11 33  1  0
 12 34  1  1
 13 35  1  0
 13 36  1  0
 14 37  1  6
 15 38  1  0
 15 39  1  0
 16 40  1  1
 17 41  1  0
 17 42  1  0
 18 43  1  0
 18 44  1  0
 19 45  1  6
 20 46  1  0
 20 47  1  0
 21 48  1  0
M  CHG  1  26  -1
M  END
>  <UniqueID>  (17) 
17

>  <SMILES>  (17) 
NC(=O)c1cc2ccc(N3CC4C[C@@H]5CC3C[C@H](C4)C5)cc2n1C(=O)[S-]

>  <Energy>  (17) 
101.30963125826808

>  <Genealogy>  (17) 
NC(=O)c1cc2ccc(N3CC4CC5CC(C4)CC3C5)cc2n1C(=O)[S-] (protonated)
NC(=O)c1cc2ccc(N3CC4C[C@@H]5CC3C[C@H](C4)C5)cc2n1C(=O)[S-] (chirality)
NC(=O)c1cc2ccc(N3CC4C[C@@H]5CC3C[C@H](C4)C5)cc2n1C(=O)[S-] (3D coordinates assigned)
NC(=O)c1cc2ccc(N3CC4C[C@@H]5CC3C[C@H](C4)C5)cc2n1C(=O)[S-] (nonaromatic ring conformer: 101.30963125826808 kcal/mol)

>  <smiles>  (17) 
NC(=O)c1cc2ccc(N3CC4CC5CC(C4)CC3C5)cc2n1C(=O)S

>  <score_type>  (17) 
oracle

>  <origin>  (17) 
adg

>  <m_score__min__energy>  (17) 
-8.0399999999999991

>  <m_primary>  (17) 
energy

$$$$
17:0
     RDKit          3D

 56 60  0  0  0  0  0  0  0  0999 V2000
  147.8600  158.1670  133.8240 C   0  0  0  0  0  0  0  0  0  0  0  0
  146.4560  158.3610  133.9250 O   0  0  0  0  0  0  0  0  0  0  0  0
  145.7870  159.4030  133.2780 C   0  0  0  0  0  0  0  0  0  0  0  0
  146.3900  160.1120  132.4240 O   0  0  0  0  0  0  0  0  0  0  0  0
  144.4040  159.6470  133.5720 N   0  0  0  0  0  0  0  0  0  0  0  0
  143.7960  160.8430  133.8260 C   0  0  0  0  0  0  0  0  0  0  0  0
  144.4330  162.1730  133.7560 C   0  0  0  0  0  0  0  0  0  0  0  0
  145.8030  162.3500  134.1100 N   0  0  0  0  0  0  0  0  0  0  0  0
  143.7720  163.1580  133.3260 O   0  0  0  0  0  0  0  0  0  0  0  0
  142.4430  160.6580  134.0910 C   0  0  0  0  0  0  0  0  0  0  0  0
  142.2320  159.3040  133.9750 C   0  0  0  0  0  0  0  0  0  0  0  0
  141.0670  158.5670  134.1330 C   0  0  0  0  0  0  0  0  0  0  0  0
  141.1420  157.1750  133.9730 C   0  0  0  0  0  0  0  0  0  0  0  0
  142.3750  156.5330  133.6730 C   0  0  0  0  0  0  0  0  0  0  0  0
  142.4140  155.0490  133.5390 C   0  0  0  0  0  0  0  0  0  0  0  0
  141.6890  154.1930  134.3960 C   0  0  0  0  0  0  0  0  0  0  0  0
  141.7340  152.8110  134.2000 C   0  0  0  0  0  0  0  0  0  0  0  0
  142.4950  152.2790  133.1520 C   0  0  0  0  0  0  0  0  0  0  0  0
  142.6220  150.8210  133.0020 C   0  0  0  0  0  0  0  0  0  0  0  0
  143.6270  150.3720  132.3850 O   0  0  0  0  0  0  0  0  0  0  0  0
  141.6760  149.8860  133.5450 N   0  0  0  0  0  0  0  0  0  0  0  0
  140.5350  149.2280  132.8990 C   0  0  1  0  0  0  0  0  0  0  0  0
  139.4850  150.2530  132.3640 C   0  0  0  0  0  0  0  0  0  0  0  0
  138.7140  149.7760  131.1030 C   0  0  1  0  0  0  0  0  0  0  0  0
  139.5230  150.0440  129.8350 C   0  0  0  0  0  0  0  0  0  0  0  0
  140.4250  148.9020  129.6600 N   0  0  0  0  0  0  0  0  0  0  0  0
  140.0480  147.9340  130.6940 C   0  0  2  0  0  0  0  0  0  0  0  0
  138.6200  148.2690  131.0880 C   0  0  0  0  0  0  0  0  0  0  0  0
  140.9860  148.1100  131.9090 C   0  0  0  0  0  0  0  0  0  0  0  0
  143.2540  153.1500  132.3640 C   0  0  0  0  0  0  0  0  0  0  0  0
  143.1800  154.4920  132.5620 N   0  0  0  0  0  0  0  0  0  0  0  0
  143.5410  157.3270  133.5380 C   0  0  0  0  0  0  0  0  0  0  0  0
  143.4300  158.7150  133.6690 C   0  0  0  0  0  0  0  0  0  0  0  0
  148.2953  158.1069  134.8324 H   0  0  0  0  0  0  0  0  0  0  0  0
  148.0629  157.2323  133.2807 H   0  0  0  0  0  0  0  0  0  0  0  0
  148.3087  159.0117  133.2807 H   0  0  0  0  0  0  0  0  0  0  0  0
  146.5640  161.9940  133.4910 H   0  0  0  0  0  0  0  0  0  0  0  0
  141.7002  161.4301  134.3402 H   0  0  0  0  0  0  0  0  0  0  0  0
  140.1137  159.0590  134.3763 H   0  0  0  0  0  0  0  0  0  0  0  0
  140.2303  156.5692  134.0816 H   0  0  0  0  0  0  0  0  0  0  0  0
  141.0896  154.6138  135.2168 H   0  0  0  0  0  0  0  0  0  0  0  0
  141.1724  152.1414  134.8680 H   0  0  0  0  0  0  0  0  0  0  0  0
  139.9721  148.6743  133.6649 H   0  0  0  0  0  0  0  0  0  0  0  0
  138.7538  150.4463  133.1627 H   0  0  0  0  0  0  0  0  0  0  0  0
  140.0441  151.1537  132.0705 H   0  0  0  0  0  0  0  0  0  0  0  0
  137.7444  150.2946  131.1311 H   0  0  0  0  0  0  0  0  0  0  0  0
  138.8511  150.1324  128.9685 H   0  0  0  0  0  0  0  0  0  0  0  0
  140.0876  150.9844  129.9180 H   0  0  0  0  0  0  0  0  0  0  0  0
  140.2420  148.4750  128.7210 H   0  0  0  0  0  0  0  0  0  0  0  0
  140.1272  146.8959  130.3389 H   0  0  0  0  0  0  0  0  0  0  0  0
  137.8938  147.9103  130.3437 H   0  0  0  0  0  0  0  0  0  0  0  0
  138.2731  147.8117  132.0264 H   0  0  0  0  0  0  0  0  0  0  0  0
  141.0252  147.1571  132.4572 H   0  0  0  0  0  0  0  0  0  0  0  0
  141.9675  148.4105  131.5137 H   0  0  0  0  0  0  0  0  0  0  0  0
  143.9133  152.7471  131.5811 H   0  0  0  0  0  0  0  0  0  0  0  0
  144.5158  156.8600  133.3338 H   0  0  0  0  0  0  0  0  0  0  0  0
  1  2  1  0
  2  3  1  0
  3  4  2  0
  3  5  1  0
  5  6  1  0
  6  7  1  0
  7  8  1  0
  7  9  2  0
  6 10  2  0
 10 11  1  0
 11 12  2  0
 12 13  1  0
 13 14  2  0
 14 15  1  0
 15 16  2  0
 16 17  1  0
 17 18  2  0
 18 19  1  0
 19 20  2  0
 19 21  1  0
 21 22  1  0
 22 23  1  0
 23 24  1  0
 24 25  1  0
 25 26  1  0
 26 27  1  0
 27 28  1  0
 27 29  1  0
 18 30  1  0
 30 31  2  0
 14 32  1  0
 32 33  2  0
 33  5  1  0
 33 11  1  0
 31 15  1  0
 29 22  1  0
 28 24  1  0
  1 34  1  0
  1 35  1  0
  1 36  1  0
  8 37  1  0
 10 38  1  0
 12 39  1  0
 13 40  1  0
 16 41  1  0
 17 42  1  0
 22 43  1  1
 23 44  1  0
 23 45  1  0
 24 46  1  6
 25 47  1  0
 25 48  1  0
 26 49  1  0
 27 50  1  6
 28 51  1  0
 28 52  1  0
 29 53  1  0
 29 54  1  0
 30 55  1  0
 32 56  1  0
M  CHG  2   8  -1  21  -1
M  END
>  <UniqueID>  (18) 
18

>  <SMILES>  (18) 
COC(=O)n1c(C([NH-])=O)cc2ccc(-c3ccc(C(=O)[N-][C@@H]4CC5C[C@H](CN5)C4)cn3)cc21

>  <Energy>  (18) 
125.3173912526881

>  <Genealogy>  (18) 
COC(=O)n1c(C([NH-])=O)cc2ccc(-c3ccc(C(=O)[N-]C4CC5CNC(C5)C4)cn3)cc21 (protonated)
COC(=O)n1c(C([NH-])=O)cc2ccc(-c3ccc(C(=O)[N-][C@@H]4CC5C[C@H](CN5)C4)cn3)cc21 (chirality)
COC(=O)n1c(C([NH-])=O)cc2ccc(-c3ccc(C(=O)[N-][C@@H]4CC5C[C@H](CN5)C4)cn3)cc21 (3D coordinates assigned)
COC(=O)n1c(C([NH-])=O)cc2ccc(-c3ccc(C(=O)[N-][C@@H]4CC5C[C@H](CN5)C4)cn3)cc21 (nonaromatic ring conformer: 125.3173912526881 kcal/mol)

>  <smiles>  (18) 
COC(=O)n1c(C(N)=O)cc2ccc(-c3ccc(C(=O)NC4CC5CNC(C5)C4)cn3)cc21

>  <score_type>  (18) 
oracle

>  <origin>  (18) 
adg

>  <m_score__min__energy>  (18) 
-10.91

>  <m_primary>  (18) 
energy

$$$$
18:0
     RDKit          3D

 33 34  0  0  0  0  0  0  0  0999 V2000
  149.0710  153.7760  132.5200 C   0  0  0  0  0  0  0  0  0  0  0  0
  148.7190  154.9250  132.6160 C   0  0  0  0  0  0  0  0  0  0  0  0
  148.3000  156.2980  132.7300 C   0  0  0  0  0  0  0  0  0  0  0  0
  149.2240  157.3380  132.4890 C   0  0  0  0  0  0  0  0  0  0  0  0
  148.8240  158.6820  132.5850 C   0  0  0  0  0  0  0  0  0  0  0  0
  147.5000  158.9450  132.9310 C   0  0  0  0  0  0  0  0  0  0  0  0
  146.8440  160.1460  133.0660 C   0  0  0  0  0  0  0  0  0  0  0  0
  145.5350  159.8150  133.4120 C   0  0  0  0  0  0  0  0  0  0  0  0
  144.5010  160.8210  133.7350 C   0  0  0  0  0  0  0  0  0  0  0  0
  143.1380  160.6120  133.3760 N   0  0  0  0  0  0  0  0  0  0  0  0
  144.8180  161.8540  134.3830 O   0  0  0  0  0  0  0  0  0  0  0  0
  145.3860  158.4620  133.4800 N   0  0  0  0  0  0  0  0  0  0  0  0
  144.1740  157.7250  133.7060 C   0  0  0  0  0  0  0  0  0  0  0  0
  144.0700  156.9770  134.7160 O   0  0  0  0  0  0  0  0  0  0  0  0
  143.1210  157.8260  132.7940 O   0  0  0  0  0  0  0  0  0  0  0  0
  141.8780  157.1520  132.9710 C   0  0  0  0  0  0  0  0  0  0  0  0
  140.7540  158.1820  133.1300 C   0  0  1  0  0  0  0  0  0  0  0  0
  140.9180  159.2530  132.2330 O   0  0  0  0  0  0  0  0  0  0  0  0
  139.4090  157.5390  132.9380 C   0  0  0  0  0  0  0  0  0  0  0  0
  139.2400  156.3270  133.2380 O   0  0  0  0  0  0  0  0  0  0  0  0
  138.3490  158.2700  132.4140 O   0  0  0  0  0  0  0  0  0  0  0  0
  146.5990  157.9430  133.1850 C   0  0  0  0  0  0  0  0  0  0  0  0
  146.9670  156.5960  133.0780 C   0  0  0  0  0  0  0  0  0  0  0  0
  149.3922  152.7276  132.4324 H   0  0  0  0  0  0  0  0  0  0  0  0
  150.2636  157.0948  132.2244 H   0  0  0  0  0  0  0  0  0  0  0  0
  149.5336  159.5003  132.3931 H   0  0  0  0  0  0  0  0  0  0  0  0
  147.2632  161.1538  132.9298 H   0  0  0  0  0  0  0  0  0  0  0  0
  142.8810  159.9690  132.5940 H   0  0  0  0  0  0  0  0  0  0  0  0
  141.6752  156.5211  132.0930 H   0  0  0  0  0  0  0  0  0  0  0  0
  141.9280  156.5230  133.8721 H   0  0  0  0  0  0  0  0  0  0  0  0
  140.8069  158.5806  134.1539 H   0  0  0  0  0  0  0  0  0  0  0  0
  141.8930  159.3880  132.0950 H   0  0  0  0  0  0  0  0  0  0  0  0
  146.2369  155.7937  133.2603 H   0  0  0  0  0  0  0  0  0  0  0  0
  1  2  3  0
  2  3  1  0
  3  4  2  0
  4  5  1  0
  5  6  2  0
  6  7  1  0
  7  8  2  0
  8  9  1  0
  9 10  1  0
  9 11  2  0
  8 12  1  0
 12 13  1  0
 13 14  2  0
 13 15  1  0
 15 16  1  0
 16 17  1  0
 17 18  1  0
 17 19  1  0
 19 20  2  0
 19 21  1  0
 12 22  1  0
 22 23  2  0
 23  3  1  0
 22  6  1  0
  1 24  1  0
  4 25  1  0
  5 26  1  0
  7 27  1  0
 10 28  1  0
 16 29  1  0
 16 30  1  0
 17 31  1  1
 18 32  1  0
 23 33  1  0
M  CHG  2  10  -1  21  -1
M  END
>  <UniqueID>  (19) 
19

>  <SMILES>  (19) 
C#Cc1ccc2cc(C([NH-])=O)n(C(=O)OC[C@@H](O)C(=O)[O-])c2c1

>  <Energy>  (19) 
67.19616156859956

>  <Genealogy>  (19) 
C#Cc1ccc2cc(C([NH-])=O)n(C(=O)OCC(O)C(=O)[O-])c2c1 (protonated)
C#Cc1ccc2cc(C([NH-])=O)n(C(=O)OC[C@@H](O)C(=O)[O-])c2c1 (chirality)
C#Cc1ccc2cc(C([NH-])=O)n(C(=O)OC[C@@H](O)C(=O)[O-])c2c1 (3D coordinates assigned)
C#Cc1ccc2cc(C([NH-])=O)n(C(=O)OC[C@@H](O)C(=O)[O-])c2c1 (optimized conformer: 67.19616156859956 kcal/mol)

>  <smiles>  (19) 
C#Cc1ccc2cc(C(N)=O)n(C(=O)OCC(O)C(=O)O)c2c1

>  <score_type>  (19) 
oracle

>  <origin>  (19) 
adg

>  <m_score__min__energy>  (19) 
-6.54

>  <m_primary>  (19) 
energy

$$$$
19:0
     RDKit          3D

 40 41  0  0  0  0  0  0  0  0999 V2000
  141.3800  158.8010  136.7710 C   0  0  0  0  0  0  0  0  0  0  0  0
  141.7060  159.3260  135.4040 C   0  0  0  0  0  0  0  0  0  0  0  0
  141.2790  160.4700  135.0900 O   0  0  0  0  0  0  0  0  0  0  0  0
  142.5070  158.5770  134.4600 N   0  0  0  0  0  0  0  0  0  0  0  0
  142.6040  157.1220  134.6200 C   0  0  0  0  0  0  0  0  0  0  0  0
  143.2430  159.2200  133.3570 C   0  0  0  0  0  0  0  0  0  0  0  0
  144.5860  159.7910  133.8340 C   0  0  0  0  0  0  0  0  0  0  0  0
  145.7350  158.8930  133.4650 C   0  0  0  0  0  0  0  0  0  0  0  0
  146.9080  159.4420  132.8870 C   0  0  0  0  0  0  0  0  0  0  0  0
  148.0020  158.6190  132.5700 C   0  0  0  0  0  0  0  0  0  0  0  0
  147.8990  157.2600  132.8530 C   0  0  0  0  0  0  0  0  0  0  0  0
  148.7930  156.2380  132.6270 C   0  0  0  0  0  0  0  0  0  0  0  0
  148.1580  155.0820  133.0860 C   0  0  0  0  0  0  0  0  0  0  0  0
  148.7660  153.7310  133.0800 C   0  0  0  0  0  0  0  0  0  0  0  0
  148.0760  152.6110  133.6380 N   0  0  0  0  0  0  0  0  0  0  0  0
  149.9010  153.5520  132.5640 O   0  0  0  0  0  0  0  0  0  0  0  0
  146.9270  155.3860  133.5850 N   0  0  0  0  0  0  0  0  0  0  0  0
  145.9390  154.4700  134.0830 C   0  0  0  0  0  0  0  0  0  0  0  0
  145.1790  153.8730  133.2730 O   0  0  0  0  0  0  0  0  0  0  0  0
  145.8100  154.2050  135.5230 C   0  0  0  0  0  0  0  0  0  0  0  0
  144.8700  154.7190  136.1830 O   0  0  0  0  0  0  0  0  0  0  0  0
  146.7390  153.3990  136.1680 O   0  0  0  0  0  0  0  0  0  0  0  0
  146.7800  156.7190  133.4290 C   0  0  0  0  0  0  0  0  0  0  0  0
  145.6680  157.5090  133.7360 C   0  0  0  0  0  0  0  0  0  0  0  0
  141.7988  159.4755  137.5323 H   0  0  0  0  0  0  0  0  0  0  0  0
  140.2881  158.7450  136.8915 H   0  0  0  0  0  0  0  0  0  0  0  0
  141.8141  157.7975  136.8915 H   0  0  0  0  0  0  0  0  0  0  0  0
  142.6207  156.8712  135.6909 H   0  0  0  0  0  0  0  0  0  0  0  0
  141.7359  156.6421  134.1445 H   0  0  0  0  0  0  0  0  0  0  0  0
  143.5282  156.7616  134.1445 H   0  0  0  0  0  0  0  0  0  0  0  0
  143.4308  158.4745  132.5702 H   0  0  0  0  0  0  0  0  0  0  0  0
  142.6322  160.0501  132.9723 H   0  0  0  0  0  0  0  0  0  0  0  0
  144.7398  160.7760  133.3691 H   0  0  0  0  0  0  0  0  0  0  0  0
  144.5536  159.8733  134.9304 H   0  0  0  0  0  0  0  0  0  0  0  0
  146.9619  160.5219  132.6850 H   0  0  0  0  0  0  0  0  0  0  0  0
  148.9114  159.0357  132.1125 H   0  0  0  0  0  0  0  0  0  0  0  0
  149.7950  156.3154  132.1798 H   0  0  0  0  0  0  0  0  0  0  0  0
  147.1610  152.7200  134.1300 H   0  0  0  0  0  0  0  0  0  0  0  0
  148.5050  151.6600  133.5960 H   0  0  0  0  0  0  0  0  0  0  0  0
  144.7642  157.0637  134.1773 H   0  0  0  0  0  0  0  0  0  0  0  0
  1  2  1  0
  2  3  2  0
  2  4  1  0
  4  5  1  0
  4  6  1  0
  6  7  1  0
  7  8  1  0
  8  9  2  0
  9 10  1  0
 10 11  2  0
 11 12  1  0
 12 13  2  0
 13 14  1  0
 14 15  1  0
 14 16  2  0
 13 17  1  0
 17 18  1  0
 18 19  2  0
 18 20  1  0
 20 21  2  0
 20 22  1  0
 17 23  1  0
 23 24  2  0
 24  8  1  0
 23 11  1  0
  1 25  1  0
  1 26  1  0
  1 27  1  0
  5 28  1  0
  5 29  1  0
  5 30  1  0
  6 31  1  0
  6 32  1  0
  7 33  1  0
  7 34  1  0
  9 35  1  0
 10 36  1  0
 12 37  1  0
 15 38  1  0
 15 39  1  0
 24 40  1  0
M  CHG  1  22  -1
M  END
>  <UniqueID>  (20) 
20

>  <SMILES>  (20) 
CC(=O)N(C)CCc1ccc2cc(C(N)=O)n(C(=O)C(=O)[O-])c2c1

>  <Energy>  (20) 
72.06657483727567

>  <Genealogy>  (20) 
CC(=O)N(C)CCc1ccc2cc(C(N)=O)n(C(=O)C(=O)[O-])c2c1 (protonated)
CC(=O)N(C)CCc1ccc2cc(C(N)=O)n(C(=O)C(=O)[O-])c2c1 (3D coordinates assigned)
CC(=O)N(C)CCc1ccc2cc(C(N)=O)n(C(=O)C(=O)[O-])c2c1 (optimized conformer: 72.06657483727567 kcal/mol)

>  <smiles>  (20) 
CC(=O)N(C)CCc1ccc2cc(C(N)=O)n(C(=O)C(=O)O)c2c1

>  <score_type>  (20) 
oracle

>  <origin>  (20) 
adg

>  <m_score__min__energy>  (20) 
-7.0999999999999996

>  <m_primary>  (20) 
energy

$$$$
20:0
     RDKit          3D

 43 45  0  0  0  0  0  0  0  0999 V2000
  141.5250  155.0750  133.6080 C   0  0  0  0  0  0  0  0  0  0  0  0
  142.7750  154.9060  134.4840 C   0  0  0  0  0  0  0  0  0  0  0  0
  142.8430  153.4480  134.9770 C   0  0  0  0  0  0  0  0  0  0  0  0
  142.6850  155.8790  135.6740 C   0  0  0  0  0  0  0  0  0  0  0  0
  143.9130  155.2160  133.6650 O   0  0  0  0  0  0  0  0  0  0  0  0
  145.1770  155.6180  134.1210 C   0  0  0  0  0  0  0  0  0  0  0  0
  145.6420  155.1920  135.2130 O   0  0  0  0  0  0  0  0  0  0  0  0
  145.9710  156.5460  133.3020 C   0  0  0  0  0  0  0  0  0  0  0  0
  146.7420  156.0830  132.4200 O   0  0  0  0  0  0  0  0  0  0  0  0
  145.8930  157.9660  133.5040 N   0  0  0  0  0  0  0  0  0  0  0  0
  146.9160  158.8630  133.5820 C   0  0  0  0  0  0  0  0  0  0  0  0
  148.3570  158.5350  133.6070 C   0  0  0  0  0  0  0  0  0  0  0  0
  148.9460  157.6950  132.6140 N   0  0  0  0  0  0  0  0  0  0  0  0
  149.0740  158.9700  134.5480 O   0  0  0  0  0  0  0  0  0  0  0  0
  146.4220  160.1620  133.6780 C   0  0  0  0  0  0  0  0  0  0  0  0
  145.0510  160.0300  133.6760 C   0  0  0  0  0  0  0  0  0  0  0  0
  144.0590  161.0020  133.7450 C   0  0  0  0  0  0  0  0  0  0  0  0
  142.7200  160.5800  133.6960 C   0  0  0  0  0  0  0  0  0  0  0  0
  142.3940  159.2030  133.5730 C   0  0  0  0  0  0  0  0  0  0  0  0
  140.9760  158.7810  133.5130 C   0  0  0  0  0  0  0  0  0  0  0  0
  140.3360  158.1640  134.5330 N   0  0  0  0  0  0  0  0  0  0  0  0
  139.0410  157.8780  134.2320 C   0  0  0  0  0  0  0  0  0  0  0  0
  138.6290  158.2630  132.9630 C   0  0  0  0  0  0  0  0  0  0  0  0
  139.9390  158.9880  132.2000 S   0  0  0  0  0  0  0  0  0  0  0  0
  143.4350  158.2470  133.5050 C   0  0  0  0  0  0  0  0  0  0  0  0
  144.7580  158.6970  133.5720 C   0  0  0  0  0  0  0  0  0  0  0  0
  140.6403  155.1946  134.2507 H   0  0  0  0  0  0  0  0  0  0  0  0
  141.6400  155.9658  132.9729 H   0  0  0  0  0  0  0  0  0  0  0  0
  141.3993  154.1857  132.9729 H   0  0  0  0  0  0  0  0  0  0  0  0
  142.8437  153.4325  136.0769 H   0  0  0  0  0  0  0  0  0  0  0  0
  141.9698  152.8934  134.6031 H   0  0  0  0  0  0  0  0  0  0  0  0
  143.7641  152.9771  134.6031 H   0  0  0  0  0  0  0  0  0  0  0  0
  142.7374  155.3126  136.6155 H   0  0  0  0  0  0  0  0  0  0  0  0
  143.5210  156.5925  135.6283 H   0  0  0  0  0  0  0  0  0  0  0  0
  141.7323  156.4270  135.6283 H   0  0  0  0  0  0  0  0  0  0  0  0
  148.3590  157.1650  131.9330 H   0  0  0  0  0  0  0  0  0  0  0  0
  149.9780  157.5310  132.6130 H   0  0  0  0  0  0  0  0  0  0  0  0
  147.0028  161.0940  133.7418 H   0  0  0  0  0  0  0  0  0  0  0  0
  144.3148  162.0680  133.8351 H   0  0  0  0  0  0  0  0  0  0  0  0
  141.9134  161.3257  133.7536 H   0  0  0  0  0  0  0  0  0  0  0  0
  138.3677  157.3773  134.9433 H   0  0  0  0  0  0  0  0  0  0  0  0
  137.6261  158.1193  132.5345 H   0  0  0  0  0  0  0  0  0  0  0  0
  143.2094  157.1753  133.4019 H   0  0  0  0  0  0  0  0  0  0  0  0
  1  2  1  0
  2  3  1  0
  2  4  1  0
  2  5  1  0
  5  6  1  0
  6  7  2  0
  6  8  1  0
  8  9  2  0
  8 10  1  0
 10 11  1  0
 11 12  1  0
 12 13  1  0
 12 14  2  0
 11 15  2  0
 15 16  1  0
 16 17  2  0
 17 18  1  0
 18 19  2  0
 19 20  1  0
 20 21  2  0
 21 22  1  0
 22 23  2  0
 23 24  1  0
 19 25  1  0
 25 26  2  0
 26 10  1  0
 26 16  1  0
 24 20  1  0
  1 27  1  0
  1 28  1  0
  1 29  1  0
  3 30  1  0
  3 31  1  0
  3 32  1  0
  4 33  1  0
  4 34  1  0
  4 35  1  0
 13 36  1  0
 13 37  1  0
 15 38  1  0
 17 39  1  0
 18 40  1  0
 22 41  1  0
 23 42  1  0
 25 43  1  0
M  END
>  <UniqueID>  (21) 
21

>  <SMILES>  (21) 
CC(C)(C)OC(=O)C(=O)n1c(C(N)=O)cc2ccc(-c3nccs3)cc21

>  <Energy>  (21) 
110.59996063384672

>  <Genealogy>  (21) 
CC(C)(C)OC(=O)C(=O)n1c(C(N)=O)cc2ccc(-c3nccs3)cc21 (3D coordinates assigned)
CC(C)(C)OC(=O)C(=O)n1c(C(N)=O)cc2ccc(-c3nccs3)cc21 (optimized conformer: 110.59996063384672 kcal/mol)

>  <smiles>  (21) 
CC(C)(C)OC(=O)C(=O)n1c(C(N)=O)cc2ccc(-c3nccs3)cc21

>  <score_type>  (21) 
oracle

>  <origin>  (21) 
adg

>  <m_score__min__energy>  (21) 
-7.8899999999999997

>  <m_primary>  (21) 
energy

$$$$
21:0
     RDKit          3D

 38 40  0  0  0  0  0  0  0  0999 V2000
  147.3300  154.0520  134.3251 H   0  0  0  0  0  0  0  0  0  0  0  0
  147.7110  154.6240  135.1840 C   0  0  0  0  0  0  0  0  0  0  0  0
  147.8110  153.9620  136.4920 C   0  0  0  0  0  0  0  0  0  0  0  0
  148.7520  154.2630  137.2700 O   0  0  0  0  0  0  0  0  0  0  0  0
  146.8820  153.0020  136.8830 O   0  0  0  0  0  0  0  0  0  0  0  0
  148.0690  155.9010  135.0050 C   0  0  0  0  0  0  0  0  0  0  0  0
  148.4487  156.4695  135.8668 H   0  0  0  0  0  0  0  0  0  0  0  0
  147.9740  156.5760  133.6960 C   0  0  0  0  0  0  0  0  0  0  0  0
  148.8760  156.3740  132.8410 O   0  0  0  0  0  0  0  0  0  0  0  0
  146.8780  157.4500  133.3730 N   0  0  0  0  0  0  0  0  0  0  0  0
  146.9470  158.7650  133.0280 C   0  0  0  0  0  0  0  0  0  0  0  0
  148.1870  159.5220  132.7620 C   0  0  0  0  0  0  0  0  0  0  0  0
  148.1160  160.6450  132.1920 O   0  0  0  0  0  0  0  0  0  0  0  0
  149.4700  158.9900  133.0940 N   0  0  0  0  0  0  0  0  0  0  0  0
  149.5860  157.9930  133.3810 H   0  0  0  0  0  0  0  0  0  0  0  0
  150.3280  159.5660  132.9500 H   0  0  0  0  0  0  0  0  0  0  0  0
  145.6720  159.3190  132.9510 C   0  0  0  0  0  0  0  0  0  0  0  0
  145.4094  160.3560  132.6948 H   0  0  0  0  0  0  0  0  0  0  0  0
  144.8100  158.2920  133.2640 C   0  0  0  0  0  0  0  0  0  0  0  0
  143.4230  158.2860  133.3630 C   0  0  0  0  0  0  0  0  0  0  0  0
  142.8354  159.1905  133.1473 H   0  0  0  0  0  0  0  0  0  0  0  0
  142.7950  157.0890  133.7470 C   0  0  0  0  0  0  0  0  0  0  0  0
  141.6982  157.0508  133.8223 H   0  0  0  0  0  0  0  0  0  0  0  0
  143.5590  155.9280  134.0390 C   0  0  0  0  0  0  0  0  0  0  0  0
  142.8880  154.6680  134.4480 C   0  0  0  0  0  0  0  0  0  0  0  0
  142.3440  153.7990  133.4830 C   0  0  0  0  0  0  0  0  0  0  0  0
  142.4167  154.0541  132.4155 H   0  0  0  0  0  0  0  0  0  0  0  0
  141.7120  152.6140  133.8720 C   0  0  0  0  0  0  0  0  0  0  0  0
  141.2898  151.9413  133.1109 H   0  0  0  0  0  0  0  0  0  0  0  0
  141.6160  152.2830  135.2260 C   0  0  0  0  0  0  0  0  0  0  0  0
  140.9880  151.1050  135.6100 O   0  0  0  0  0  0  0  0  0  0  0  0
  142.1520  153.1370  136.1930 C   0  0  0  0  0  0  0  0  0  0  0  0
  142.0755  152.8760  137.2588 H   0  0  0  0  0  0  0  0  0  0  0  0
  142.7850  154.3220  135.8090 C   0  0  0  0  0  0  0  0  0  0  0  0
  143.2059  154.9894  136.5755 H   0  0  0  0  0  0  0  0  0  0  0  0
  144.9690  155.9810  133.9360 C   0  0  0  0  0  0  0  0  0  0  0  0
  145.5841  155.1012  134.1760 H   0  0  0  0  0  0  0  0  0  0  0  0
  145.5630  157.1780  133.5220 C   0  0  0  0  0  0  0  0  0  0  0  0
  1  2  1  0
  2  3  1  0
  3  4  2  0
  3  5  1  0
  2  6  2  0
  6  7  1  0
  6  8  1  0
  8  9  2  0
  8 10  1  0
 10 11  1  0
 11 12  1  0
 12 13  2  0
 12 14  1  0
 14 15  1  0
 14 16  1  0
 11 17  2  0
 17 18  1  0
 17 19  1  0
 19 20  2  0
 20 21  1  0
 20 22  1  0
 22 23  1  0
 22 24  2  0
 24 25  1  0
 25 26  2  0
 26 27  1  0
 26 28  1  0
 28 29  1  0
 28 30  2  0
 30 31  1  0
 30 32  1  0
 32 33  1  0
 32 34  2  0
 34 35  1  0
 24 36  1  0
 36 37  1  0
 36 38  2  0
 38 10  1  0
 38 19  1  0
 34 25  1  0
M  CHG  2   5  -1  31  -1
M  END
>  <UniqueID>  (22) 
22

>  <SMILES>  (22) 
NC(=O)c1cc2ccc(-c3ccc([O-])cc3)cc2n1C(=O)/C=C/C(=O)[O-]

>  <Energy>  (22) 
84.39662281760145

>  <Genealogy>  (22) 
NC(=O)c1cc2ccc(-c3ccc([O-])cc3)cc2n1C(=O)/C=C/C(=O)[O-] (protonated)
NC(=O)c1cc2ccc(-c3ccc([O-])cc3)cc2n1C(=O)/C=C/C(=O)[O-] (cis-trans isomerization)
NC(=O)c1cc2ccc(-c3ccc([O-])cc3)cc2n1C(=O)/C=C/C(=O)[O-] (3D coordinates assigned)
NC(=O)c1cc2ccc(-c3ccc([O-])cc3)cc2n1C(=O)/C=C/C(=O)[O-] (optimized conformer: 84.39662281760145 kcal/mol)

>  <smiles>  (22) 
NC(=O)c1cc2ccc(-c3ccc(O)cc3)cc2n1C(=O)/C=C/C(=O)O

>  <score_type>  (22) 
oracle

>  <origin>  (22) 
adg

>  <m_score__min__energy>  (22) 
-8.6400000000000006

>  <m_primary>  (22) 
energy

$$$$
22:0
     RDKit          3D

 30 31  0  0  0  0  0  0  0  0999 V2000
  149.8200  157.5740  131.8750 N   0  0  0  0  0  0  0  0  0  0  0  0
  149.2220  158.8290  132.1900 C   0  0  0  0  0  0  0  0  0  0  0  0
  149.9290  159.8710  132.1700 O   0  0  0  0  0  0  0  0  0  0  0  0
  147.8030  158.9150  132.5930 C   0  0  0  0  0  0  0  0  0  0  0  0
  147.0830  160.1070  132.6150 C   0  0  0  0  0  0  0  0  0  0  0  0
  145.8480  159.7790  133.1260 C   0  0  0  0  0  0  0  0  0  0  0  0
  144.7380  160.5810  133.3660 C   0  0  0  0  0  0  0  0  0  0  0  0
  143.5810  159.9690  133.8790 C   0  0  0  0  0  0  0  0  0  0  0  0
  143.5460  158.5710  134.1180 C   0  0  0  0  0  0  0  0  0  0  0  0
  142.3110  157.9330  134.7040 C   0  0  0  0  0  0  0  0  0  0  0  0
  141.7760  158.7740  135.6620 F   0  0  0  0  0  0  0  0  0  0  0  0
  142.6220  156.7190  135.2930 F   0  0  0  0  0  0  0  0  0  0  0  0
  141.3640  157.7070  133.7200 F   0  0  0  0  0  0  0  0  0  0  0  0
  144.7040  157.7940  133.8830 C   0  0  0  0  0  0  0  0  0  0  0  0
  145.8480  158.4340  133.3890 C   0  0  0  0  0  0  0  0  0  0  0  0
  147.0410  157.8870  133.0670 N   0  0  0  0  0  0  0  0  0  0  0  0
  147.3820  156.4940  133.1150 C   0  0  0  0  0  0  0  0  0  0  0  0
  147.3150  155.7940  132.0680 O   0  0  0  0  0  0  0  0  0  0  0  0
  147.8050  155.9240  134.3220 O   0  0  0  0  0  0  0  0  0  0  0  0
  147.7270  154.5280  134.6000 C   0  0  0  0  0  0  0  0  0  0  0  0
  146.7120  154.2650  135.6660 C   0  0  0  0  0  0  0  0  0  0  0  0
  145.6190  154.8900  135.6640 O   0  0  0  0  0  0  0  0  0  0  0  0
  146.9810  153.3510  136.6770 O   0  0  0  0  0  0  0  0  0  0  0  0
  149.2400  156.7120  131.7780 H   0  0  0  0  0  0  0  0  0  0  0  0
  147.4283  161.1003  132.2923 H   0  0  0  0  0  0  0  0  0  0  0  0
  144.7643  161.6614  133.1608 H   0  0  0  0  0  0  0  0  0  0  0  0
  142.6932  160.5807  134.0974 H   0  0  0  0  0  0  0  0  0  0  0  0
  144.7064  156.7124  134.0834 H   0  0  0  0  0  0  0  0  0  0  0  0
  147.4381  153.9916  133.6841 H   0  0  0  0  0  0  0  0  0  0  0  0
  148.7098  154.1781  134.9488 H   0  0  0  0  0  0  0  0  0  0  0  0
  1  2  1  0
  2  3  2  0
  2  4  1  0
  4  5  2  0
  5  6  1  0
  6  7  2  0
  7  8  1  0
  8  9  2  0
  9 10  1  0
 10 11  1  0
 10 12  1  0
 10 13  1  0
  9 14  1  0
 14 15  2  0
 15 16  1  0
 16 17  1  0
 17 18  2  0
 17 19  1  0
 19 20  1  0
 20 21  1  0
 21 22  2  0
 21 23  1  0
 16  4  1  0
 15  6  1  0
  1 24  1  0
  5 25  1  0
  7 26  1  0
  8 27  1  0
 14 28  1  0
 20 29  1  0
 20 30  1  0
M  CHG  2   1  -1  23  -1
M  END
>  <UniqueID>  (23) 
23

>  <SMILES>  (23) 
[NH-]C(=O)c1cc2ccc(C(F)(F)F)cc2n1C(=O)OCC(=O)[O-]

>  <Energy>  (23) 
68.10729321140478

>  <Genealogy>  (23) 
[NH-]C(=O)c1cc2ccc(C(F)(F)F)cc2n1C(=O)OCC(=O)[O-] (protonated)
[NH-]C(=O)c1cc2ccc(C(F)(F)F)cc2n1C(=O)OCC(=O)[O-] (3D coordinates assigned)
[NH-]C(=O)c1cc2ccc(C(F)(F)F)cc2n1C(=O)OCC(=O)[O-] (optimized conformer: 68.10729321140478 kcal/mol)

>  <smiles>  (23) 
NC(=O)c1cc2ccc(C(F)(F)F)cc2n1C(=O)OCC(=O)O

>  <score_type>  (23) 
oracle

>  <origin>  (23) 
adg

>  <m_score__min__energy>  (23) 
-5.4800000000000004

>  <m_primary>  (23) 
energy

$$$$
23:0
     RDKit          3D

 40 42  0  0  0  0  0  0  0  0999 V2000
  142.9620  161.2580  133.4360 N   0  0  0  0  0  0  0  0  0  0  0  0
  144.3480  161.4350  133.7190 C   0  0  0  0  0  0  0  0  0  0  0  0
  144.7530  162.5480  134.1480 O   0  0  0  0  0  0  0  0  0  0  0  0
  145.3080  160.3250  133.5390 C   0  0  0  0  0  0  0  0  0  0  0  0
  146.6890  160.5010  133.4810 C   0  0  0  0  0  0  0  0  0  0  0  0
  147.2130  159.2340  133.3610 C   0  0  0  0  0  0  0  0  0  0  0  0
  148.5360  158.8180  133.2530 C   0  0  0  0  0  0  0  0  0  0  0  0
  148.7850  157.4420  133.1170 C   0  0  0  0  0  0  0  0  0  0  0  0
  147.7140  156.5120  133.0690 C   0  0  0  0  0  0  0  0  0  0  0  0
  148.0120  155.0380  132.9410 C   0  0  0  0  0  0  0  0  0  0  0  0
  146.9760  154.4200  132.2670 F   0  0  0  0  0  0  0  0  0  0  0  0
  148.1400  154.4690  134.1960 F   0  0  0  0  0  0  0  0  0  0  0  0
  149.1900  154.8250  132.2460 F   0  0  0  0  0  0  0  0  0  0  0  0
  146.3830  156.9740  133.2010 C   0  0  0  0  0  0  0  0  0  0  0  0
  146.1700  158.3470  133.3490 C   0  0  0  0  0  0  0  0  0  0  0  0
  144.9940  159.0020  133.4490 N   0  0  0  0  0  0  0  0  0  0  0  0
  143.6880  158.4030  133.4160 C   0  0  0  0  0  0  0  0  0  0  0  0
  143.3670  157.6690  132.4450 O   0  0  0  0  0  0  0  0  0  0  0  0
  142.7580  158.6130  134.4420 O   0  0  0  0  0  0  0  0  0  0  0  0
  141.4110  158.9390  134.2390 C   0  0  0  0  0  0  0  0  0  0  0  0
  140.6650  159.2140  135.2210 O   0  0  0  0  0  0  0  0  0  0  0  0
  140.9270  159.0820  132.8860 N   0  0  0  0  0  0  0  0  0  0  0  0
  140.0080  158.0150  132.4690 C   0  0  0  0  0  0  0  0  0  0  0  0
  139.1580  158.6000  131.3510 C   0  0  0  0  0  0  0  0  0  0  0  0
  139.2240  160.1110  131.5450 C   0  0  0  0  0  0  0  0  0  0  0  0
  140.1810  160.3330  132.7110 C   0  0  0  0  0  0  0  0  0  0  0  0
  142.5910  160.3390  133.1080 H   0  0  0  0  0  0  0  0  0  0  0  0
  147.2427  161.4506  133.5223 H   0  0  0  0  0  0  0  0  0  0  0  0
  149.3620  159.5442  133.2735 H   0  0  0  0  0  0  0  0  0  0  0  0
  149.8218  157.0814  133.0469 H   0  0  0  0  0  0  0  0  0  0  0  0
  145.5377  156.2703  133.1875 H   0  0  0  0  0  0  0  0  0  0  0  0
  141.7490  159.0840  132.2330 H   0  0  0  0  0  0  0  0  0  0  0  0
  140.5740  157.1458  132.1028 H   0  0  0  0  0  0  0  0  0  0  0  0
  139.3853  157.6715  133.3082 H   0  0  0  0  0  0  0  0  0  0  0  0
  139.5665  158.3193  130.3690 H   0  0  0  0  0  0  0  0  0  0  0  0
  138.1238  158.2268  131.3836 H   0  0  0  0  0  0  0  0  0  0  0  0
  139.6064  160.5985  130.6361 H   0  0  0  0  0  0  0  0  0  0  0  0
  138.2310  160.5394  131.7461 H   0  0  0  0  0  0  0  0  0  0  0  0
  140.8719  161.1580  132.4830 H   0  0  0  0  0  0  0  0  0  0  0  0
  139.6341  160.5998  133.6273 H   0  0  0  0  0  0  0  0  0  0  0  0
  1  2  1  0
  2  3  2  0
  2  4  1  0
  4  5  2  0
  5  6  1  0
  6  7  2  0
  7  8  1  0
  8  9  2  0
  9 10  1  0
 10 11  1  0
 10 12  1  0
 10 13  1  0
  9 14  1  0
 14 15  2  0
 15 16  1  0
 16 17  1  0
 17 18  2  0
 17 19  1  0
 19 20  1  0
 20 21  2  0
 20 22  1  0
 22 23  1  0
 23 24  1  0
 24 25  1  0
 25 26  1  0
 16  4  1  0
 26 22  1  0
 15  6  1  0
  1 27  1  0
  5 28  1  0
  7 29  1  0
  8 30  1  0
 14 31  1  0
 22 32  1  0
 23 33  1  0
 23 34  1  0
 24 35  1  0
 24 36  1  0
 25 37  1  0
 25 38  1  0
 26 39  1  0
 26 40  1  0
M  CHG  2   1  -1  22   1
M  END
>  <UniqueID>  (24) 
24

>  <SMILES>  (24) 
[NH-]C(=O)c1cc2ccc(C(F)(F)F)cc2n1C(=O)OC(=O)[NH+]1CCCC1

>  <Energy>  (24) 
87.56749861046457

>  <Genealogy>  (24) 
[NH-]C(=O)c1cc2ccc(C(F)(F)F)cc2n1C(=O)OC(=O)[NH+]1CCCC1 (protonated)
[NH-]C(=O)c1cc2ccc(C(F)(F)F)cc2n1C(=O)OC(=O)[NH+]1CCCC1 (3D coordinates assigned)
[NH-]C(=O)c1cc2ccc(C(F)(F)F)cc2n1C(=O)OC(=O)[NH+]1CCCC1 (nonaromatic ring conformer: 87.56749861046457 kcal/mol)

>  <smiles>  (24) 
NC(=O)c1cc2ccc(C(F)(F)F)cc2n1C(=O)OC(=O)N1CCCC1

>  <score_type>  (24) 
oracle

>  <origin>  (24) 
adg

>  <m_score__min__energy>  (24) 
-6.54

>  <m_primary>  (24) 
energy

$$$$
24:0
     RDKit          3D

 42 43  0  0  0  0  0  0  0  0999 V2000
  148.2660  154.8070  132.6350 C   0  0  0  0  0  0  0  0  0  0  0  0
  147.8710  156.2320  132.8800 C   0  0  0  0  0  0  0  0  0  0  0  0
  148.8550  157.2510  132.8920 C   0  0  0  0  0  0  0  0  0  0  0  0
  148.4920  158.5970  133.0740 C   0  0  0  0  0  0  0  0  0  0  0  0
  147.1410  158.8910  133.2370 C   0  0  0  0  0  0  0  0  0  0  0  0
  146.5080  160.1030  133.3970 C   0  0  0  0  0  0  0  0  0  0  0  0
  145.1480  159.8030  133.4820 C   0  0  0  0  0  0  0  0  0  0  0  0
  144.0950  160.8180  133.6960 C   0  0  0  0  0  0  0  0  0  0  0  0
  142.7370  160.5520  133.3590 N   0  0  0  0  0  0  0  0  0  0  0  0
  144.3950  161.9300  134.2080 O   0  0  0  0  0  0  0  0  0  0  0  0
  144.9510  158.4590  133.3820 N   0  0  0  0  0  0  0  0  0  0  0  0
  143.7010  157.7550  133.3510 C   0  0  0  0  0  0  0  0  0  0  0  0
  142.9840  157.8130  132.3160 O   0  0  0  0  0  0  0  0  0  0  0  0
  143.2640  156.9510  134.5090 C   0  0  0  0  0  0  0  0  0  0  0  0
  144.1270  156.3450  135.2000 O   0  0  0  0  0  0  0  0  0  0  0  0
  141.8660  156.8350  134.8500 N   0  0  0  0  0  0  0  0  0  0  0  0
  141.1650  155.6000  134.4680 C   0  0  0  0  0  0  0  0  0  0  0  0
  141.1150  158.0080  135.3740 C   0  0  0  0  0  0  0  0  0  0  0  0
  140.3420  158.7270  134.2440 C   0  0  0  0  0  0  0  0  0  0  0  0
  142.1090  159.0070  136.0050 C   0  0  0  0  0  0  0  0  0  0  0  0
  140.0790  157.5520  136.3910 C   0  0  0  0  0  0  0  0  0  0  0  0
  138.8850  157.9510  136.3360 O   0  0  0  0  0  0  0  0  0  0  0  0
  140.4490  156.6670  137.3980 O   0  0  0  0  0  0  0  0  0  0  0  0
  146.1780  157.9150  133.2270 C   0  0  0  0  0  0  0  0  0  0  0  0
  146.5080  156.5700  133.0290 C   0  0  0  0  0  0  0  0  0  0  0  0
  148.4079  154.2951  133.5982 H   0  0  0  0  0  0  0  0  0  0  0  0
  147.4745  154.3002  132.0635 H   0  0  0  0  0  0  0  0  0  0  0  0
  149.2055  154.7800  132.0635 H   0  0  0  0  0  0  0  0  0  0  0  0
  149.9142  156.9864  132.7575 H   0  0  0  0  0  0  0  0  0  0  0  0
  149.2514  159.3927  133.0872 H   0  0  0  0  0  0  0  0  0  0  0  0
  146.9755  161.0975  133.4472 H   0  0  0  0  0  0  0  0  0  0  0  0
  142.4930  159.9050  132.5770 H   0  0  0  0  0  0  0  0  0  0  0  0
  140.8572  155.0578  135.3742 H   0  0  0  0  0  0  0  0  0  0  0  0
  140.2756  155.8526  133.8720 H   0  0  0  0  0  0  0  0  0  0  0  0
  141.8378  154.9659  133.8720 H   0  0  0  0  0  0  0  0  0  0  0  0
  139.6038  159.4136  134.6841 H   0  0  0  0  0  0  0  0  0  0  0  0
  141.0479  159.2971  133.6221 H   0  0  0  0  0  0  0  0  0  0  0  0
  139.8245  157.9818  133.6221 H   0  0  0  0  0  0  0  0  0  0  0  0
  142.0461  158.9438  137.1014 H   0  0  0  0  0  0  0  0  0  0  0  0
  143.1312  158.7610  135.6816 H   0  0  0  0  0  0  0  0  0  0  0  0
  141.8578  160.0279  135.6816 H   0  0  0  0  0  0  0  0  0  0  0  0
  145.7268  155.7966  132.9904 H   0  0  0  0  0  0  0  0  0  0  0  0
  1  2  1  0
  2  3  2  0
  3  4  1  0
  4  5  2  0
  5  6  1  0
  6  7  2  0
  7  8  1  0
  8  9  1  0
  8 10  2  0
  7 11  1  0
 11 12  1  0
 12 13  2  0
 12 14  1  0
 14 15  2  0
 14 16  1  0
 16 17  1  0
 16 18  1  0
 18 19  1  0
 18 20  1  0
 18 21  1  0
 21 22  2  0
 21 23  1  0
 11 24  1  0
 24 25  2  0
 25  2  1  0
 24  5  1  0
  1 26  1  0
  1 27  1  0
  1 28  1  0
  3 29  1  0
  4 30  1  0
  6 31  1  0
  9 32  1  0
 17 33  1  0
 17 34  1  0
 17 35  1  0
 19 36  1  0
 19 37  1  0
 19 38  1  0
 20 39  1  0
 20 40  1  0
 20 41  1  0
 25 42  1  0
M  CHG  2   9  -1  23  -1
M  END
>  <UniqueID>  (25) 
25

>  <SMILES>  (25) 
Cc1ccc2cc(C([NH-])=O)n(C(=O)C(=O)N(C)C(C)(C)C(=O)[O-])c2c1

>  <Energy>  (25) 
85.82193609808412

>  <Genealogy>  (25) 
Cc1ccc2cc(C([NH-])=O)n(C(=O)C(=O)N(C)C(C)(C)C(=O)[O-])c2c1 (protonated)
Cc1ccc2cc(C([NH-])=O)n(C(=O)C(=O)N(C)C(C)(C)C(=O)[O-])c2c1 (3D coordinates assigned)
Cc1ccc2cc(C([NH-])=O)n(C(=O)C(=O)N(C)C(C)(C)C(=O)[O-])c2c1 (optimized conformer: 85.82193609808412 kcal/mol)

>  <smiles>  (25) 
Cc1ccc2cc(C(N)=O)n(C(=O)C(=O)N(C)C(C)(C)C(=O)O)c2c1

>  <score_type>  (25) 
oracle

>  <origin>  (25) 
adg

>  <m_score__min__energy>  (25) 
-6.8799999999999999

>  <m_primary>  (25) 
energy

$$$$
25:0
     RDKit          3D

 47 49  0  0  0  0  0  0  0  0999 V2000
  139.1080  146.2270  129.2780 C   0  0  0  0  0  0  0  0  0  0  0  0
  138.4390  147.3050  129.9250 O   0  0  0  0  0  0  0  0  0  0  0  0
  139.0800  148.2850  130.6970 C   0  0  0  0  0  0  0  0  0  0  0  0
  140.4070  148.0640  131.0860 C   0  0  0  0  0  0  0  0  0  0  0  0
  141.0880  149.0090  131.8560 C   0  0  0  0  0  0  0  0  0  0  0  0
  140.4460  150.1890  132.2590 C   0  0  0  0  0  0  0  0  0  0  0  0
  141.1920  151.2270  133.0570 C   0  0  0  0  0  0  0  0  0  0  0  0
  141.4510  152.4180  132.2360 N   0  0  0  0  0  0  0  0  0  0  0  0
  141.7940  153.5340  133.0810 C   0  0  0  0  0  0  0  0  0  0  0  0
  142.9980  153.5200  133.8330 C   0  0  0  0  0  0  0  0  0  0  0  0
  143.3300  154.5940  134.6750 C   0  0  0  0  0  0  0  0  0  0  0  0
  142.4350  155.6560  134.7630 C   0  0  0  0  0  0  0  0  0  0  0  0
  142.5150  156.8220  135.4870 C   0  0  0  0  0  0  0  0  0  0  0  0
  141.3410  157.5180  135.2000 C   0  0  0  0  0  0  0  0  0  0  0  0
  140.9760  158.7950  135.8460 C   0  0  0  0  0  0  0  0  0  0  0  0
  140.9640  160.0140  135.1090 N   0  0  0  0  0  0  0  0  0  0  0  0
  140.6220  158.8030  137.0560 O   0  0  0  0  0  0  0  0  0  0  0  0
  140.5700  156.8120  134.3230 N   0  0  0  0  0  0  0  0  0  0  0  0
  139.3270  157.2050  133.7230 C   0  0  0  0  0  0  0  0  0  0  0  0
  138.5040  156.3250  133.3520 O   0  0  0  0  0  0  0  0  0  0  0  0
  139.0320  158.5690  133.5820 O   0  0  0  0  0  0  0  0  0  0  0  0
  139.1420  159.2990  132.3910 C   0  0  0  0  0  0  0  0  0  0  0  0
  140.0400  160.1720  132.2400 O   0  0  0  0  0  0  0  0  0  0  0  0
  138.2190  158.9860  131.2580 C   0  0  0  0  0  0  0  0  0  0  0  0
  136.9450  158.7400  131.7390 F   0  0  0  0  0  0  0  0  0  0  0  0
  138.6660  157.8690  130.5790 F   0  0  0  0  0  0  0  0  0  0  0  0
  138.1790  160.0610  130.3900 F   0  0  0  0  0  0  0  0  0  0  0  0
  141.2530  155.6740  134.0680 C   0  0  0  0  0  0  0  0  0  0  0  0
  140.9070  154.6280  133.2050 C   0  0  0  0  0  0  0  0  0  0  0  0
  139.1220  150.4220  131.8590 C   0  0  0  0  0  0  0  0  0  0  0  0
  138.4400  149.4760  131.0880 C   0  0  0  0  0  0  0  0  0  0  0  0
  139.5287  145.5491  130.0353 H   0  0  0  0  0  0  0  0  0  0  0  0
  138.3929  145.6760  128.6495 H   0  0  0  0  0  0  0  0  0  0  0  0
  139.9192  146.6232  128.6495 H   0  0  0  0  0  0  0  0  0  0  0  0
  140.9172  147.1380  130.7824 H   0  0  0  0  0  0  0  0  0  0  0  0
  142.1329  148.8271  132.1479 H   0  0  0  0  0  0  0  0  0  0  0  0
  140.5892  151.5139  133.9312 H   0  0  0  0  0  0  0  0  0  0  0  0
  142.1533  150.8029  133.3825 H   0  0  0  0  0  0  0  0  0  0  0  0
  140.5990  152.6530  131.6730 H   0  0  0  0  0  0  0  0  0  0  0  0
  142.2350  152.2240  131.5690 H   0  0  0  0  0  0  0  0  0  0  0  0
  143.6781  152.6589  133.7554 H   0  0  0  0  0  0  0  0  0  0  0  0
  144.2692  154.5956  135.2477 H   0  0  0  0  0  0  0  0  0  0  0  0
  143.3320  157.1389  136.1519 H   0  0  0  0  0  0  0  0  0  0  0  0
  140.2780  160.1680  134.3360 H   0  0  0  0  0  0  0  0  0  0  0  0
  139.9661  154.6564  132.6359 H   0  0  0  0  0  0  0  0  0  0  0  0
  138.6175  151.3541  132.1535 H   0  0  0  0  0  0  0  0  0  0  0  0
  137.3991  149.6632  130.7857 H   0  0  0  0  0  0  0  0  0  0  0  0
  1  2  1  0
  2  3  1  0
  3  4  2  0
  4  5  1  0
  5  6  2  0
  6  7  1  0
  7  8  1  0
  8  9  1  0
  9 10  2  0
 10 11  1  0
 11 12  2  0
 12 13  1  0
 13 14  2  0
 14 15  1  0
 15 16  1  0
 15 17  2  0
 14 18  1  0
 18 19  1  0
 19 20  2  0
 19 21  1  0
 21 22  1  0
 22 23  2  0
 22 24  1  0
 24 25  1  0
 24 26  1  0
 24 27  1  0
 18 28  1  0
 28 29  2  0
  6 30  1  0
 30 31  2  0
 31  3  1  0
 29  9  1  0
 28 12  1  0
  1 32  1  0
  1 33  1  0
  1 34  1  0
  4 35  1  0
  5 36  1  0
  7 37  1  0
  7 38  1  0
  8 39  1  0
  8 40  1  0
 10 41  1  0
 11 42  1  0
 13 43  1  0
 16 44  1  0
 29 45  1  0
 30 46  1  0
 31 47  1  0
M  CHG  2   8   1  16  -1
M  END
>  <UniqueID>  (26) 
26

>  <SMILES>  (26) 
COc1ccc(C[NH2+]c2ccc3cc(C([NH-])=O)n(C(=O)OC(=O)C(F)(F)F)c3c2)cc1

>  <Energy>  (26) 
87.35846674880825

>  <Genealogy>  (26) 
COc1ccc(C[NH2+]c2ccc3cc(C([NH-])=O)n(C(=O)OC(=O)C(F)(F)F)c3c2)cc1 (protonated)
COc1ccc(C[NH2+]c2ccc3cc(C([NH-])=O)n(C(=O)OC(=O)C(F)(F)F)c3c2)cc1 (3D coordinates assigned)
COc1ccc(C[NH2+]c2ccc3cc(C([NH-])=O)n(C(=O)OC(=O)C(F)(F)F)c3c2)cc1 (optimized conformer: 87.35846674880825 kcal/mol)

>  <smiles>  (26) 
COc1ccc(CNc2ccc3cc(C(N)=O)n(C(=O)OC(=O)C(F)(F)F)c3c2)cc1

>  <score_type>  (26) 
oracle

>  <origin>  (26) 
adg

>  <m_score__min__energy>  (26) 
-8.0899999999999999

>  <m_primary>  (26) 
energy

$$$$
26:0
     RDKit          3D

 46 48  0  0  0  0  0  0  0  0999 V2000
  150.1780  150.4240  130.9390 C   0  0  0  0  0  0  0  0  0  0  0  0
  150.5040  151.1010  132.1860 N   0  0  0  0  0  0  0  0  0  0  0  0
  149.5650  151.8240  132.9920 C   0  0  0  0  0  0  0  0  0  0  0  0
  149.6120  151.6750  134.2440 O   0  0  0  0  0  0  0  0  0  0  0  0
  148.5900  152.8100  132.3830 C   0  0  1  0  0  0  0  0  0  0  0  0
  147.1410  152.6320  132.8530 C   0  0  0  0  0  0  0  0  0  0  0  0
  146.5420  154.0320  132.8260 C   0  0  0  0  0  0  0  0  0  0  0  0
  147.6720  154.9500  132.8530 N   0  0  0  0  0  0  0  0  0  0  0  0
  147.5450  156.3860  132.9740 C   0  0  0  0  0  0  0  0  0  0  0  0
  148.6890  157.2250  132.8570 C   0  0  0  0  0  0  0  0  0  0  0  0
  148.5810  158.6190  132.9970 C   0  0  0  0  0  0  0  0  0  0  0  0
  147.3230  159.1540  133.2460 C   0  0  0  0  0  0  0  0  0  0  0  0
  146.9440  160.4610  133.4520 C   0  0  0  0  0  0  0  0  0  0  0  0
  145.5680  160.4160  133.6700 C   0  0  0  0  0  0  0  0  0  0  0  0
  144.7190  161.6150  133.8550 C   0  0  0  0  0  0  0  0  0  0  0  0
  143.2980  161.5300  133.7300 N   0  0  0  0  0  0  0  0  0  0  0  0
  145.2430  162.7200  134.1540 O   0  0  0  0  0  0  0  0  0  0  0  0
  145.1160  159.1320  133.5980 N   0  0  0  0  0  0  0  0  0  0  0  0
  143.7750  158.6650  133.8170 C   0  0  0  0  0  0  0  0  0  0  0  0
  143.2520  157.8600  132.9990 O   0  0  0  0  0  0  0  0  0  0  0  0
  143.0720  159.0930  134.9520 O   0  0  0  0  0  0  0  0  0  0  0  0
  141.6930  159.3380  134.9970 C   0  0  0  0  0  0  0  0  0  0  0  0
  141.1000  159.9080  134.0430 O   0  0  0  0  0  0  0  0  0  0  0  0
  140.9130  158.9370  136.2070 C   0  0  0  0  0  0  0  0  0  0  0  0
  139.7370  158.3100  135.8320 F   0  0  0  0  0  0  0  0  0  0  0  0
  141.6640  158.0690  136.9750 F   0  0  0  0  0  0  0  0  0  0  0  0
  140.6080  160.0600  136.9530 F   0  0  0  0  0  0  0  0  0  0  0  0
  146.2030  158.3710  133.3410 C   0  0  0  0  0  0  0  0  0  0  0  0
  146.2820  156.9790  133.2230 C   0  0  0  0  0  0  0  0  0  0  0  0
  148.9460  154.2540  132.7250 C   0  0  0  0  0  0  0  0  0  0  0  0
  149.7105  149.4532  131.1602 H   0  0  0  0  0  0  0  0  0  0  0  0
  149.4794  151.0433  130.3573 H   0  0  0  0  0  0  0  0  0  0  0  0
  151.0978  150.2640  130.3573 H   0  0  0  0  0  0  0  0  0  0  0  0
  148.6682  152.6030  131.3055 H   0  0  0  0  0  0  0  0  0  0  0  0
  146.5931  151.9641  132.1720 H   0  0  0  0  0  0  0  0  0  0  0  0
  147.0843  152.1780  133.8533 H   0  0  0  0  0  0  0  0  0  0  0  0
  145.9521  154.1782  131.9092 H   0  0  0  0  0  0  0  0  0  0  0  0
  145.8659  154.1985  133.6775 H   0  0  0  0  0  0  0  0  0  0  0  0
  149.6722  156.7754  132.6540 H   0  0  0  0  0  0  0  0  0  0  0  0
  149.4657  159.2672  132.9120 H   0  0  0  0  0  0  0  0  0  0  0  0
  147.5896  161.3516  133.4459 H   0  0  0  0  0  0  0  0  0  0  0  0
  142.8310  160.6460  133.4310 H   0  0  0  0  0  0  0  0  0  0  0  0
  142.7060  162.3720  133.9030 H   0  0  0  0  0  0  0  0  0  0  0  0
  145.3805  156.3564  133.3217 H   0  0  0  0  0  0  0  0  0  0  0  0
  149.5495  154.7017  131.9216 H   0  0  0  0  0  0  0  0  0  0  0  0
  149.5411  154.3197  133.6478 H   0  0  0  0  0  0  0  0  0  0  0  0
  1  2  1  0
  2  3  1  0
  3  4  2  0
  3  5  1  0
  5  6  1  0
  6  7  1  0
  7  8  1  0
  8  9  1  0
  9 10  2  0
 10 11  1  0
 11 12  2  0
 12 13  1  0
 13 14  2  0
 14 15  1  0
 15 16  1  0
 15 17  2  0
 14 18  1  0
 18 19  1  0
 19 20  2  0
 19 21  1  0
 21 22  1  0
 22 23  2  0
 22 24  1  0
 24 25  1  0
 24 26  1  0
 24 27  1  0
 18 28  1  0
 28 29  2  0
  8 30  1  0
 30  5  1  0
 29  9  1  0
 28 12  1  0
  1 31  1  0
  1 32  1  0
  1 33  1  0
  5 34  1  6
  6 35  1  0
  6 36  1  0
  7 37  1  0
  7 38  1  0
 10 39  1  0
 11 40  1  0
 13 41  1  0
 16 42  1  0
 16 43  1  0
 29 44  1  0
 30 45  1  0
 30 46  1  0
M  CHG  1   2  -1
M  END
>  <UniqueID>  (27) 
27

>  <SMILES>  (27) 
C[N-]C(=O)[C@H]1CCN(c2ccc3cc(C(N)=O)n(C(=O)OC(=O)C(F)(F)F)c3c2)C1

>  <Energy>  (27) 
86.40399248245693

>  <Genealogy>  (27) 
C[N-]C(=O)[C@H]1CCN(c2ccc3cc(C(N)=O)n(C(=O)OC(=O)C(F)(F)F)c3c2)C1 (protonated)
C[N-]C(=O)[C@H]1CCN(c2ccc3cc(C(N)=O)n(C(=O)OC(=O)C(F)(F)F)c3c2)C1 (3D coordinates assigned)
C[N-]C(=O)[C@H]1CCN(c2ccc3cc(C(N)=O)n(C(=O)OC(=O)C(F)(F)F)c3c2)C1 (nonaromatic ring conformer: 86.40399248245693 kcal/mol)

>  <smiles>  (27) 
CNC(=O)[C@H]1CCN(c2ccc3cc(C(N)=O)n(C(=O)OC(=O)C(F)(F)F)c3c2)C1

>  <score_type>  (27) 
oracle

>  <origin>  (27) 
adg

>  <m_score__min__energy>  (27) 
-7.7800000000000002

>  <m_primary>  (27) 
energy

$$$$
27:0
     RDKit          3D

 36 37  0  0  0  0  0  0  0  0999 V2000
  148.0450  155.0670  132.6360 C   0  0  0  0  0  0  0  0  0  0  0  0
  147.7620  156.5210  132.8720 C   0  0  0  0  0  0  0  0  0  0  0  0
  148.8190  157.4620  132.8520 C   0  0  0  0  0  0  0  0  0  0  0  0
  148.5600  158.8320  133.0220 C   0  0  0  0  0  0  0  0  0  0  0  0
  147.2380  159.2280  133.2060 C   0  0  0  0  0  0  0  0  0  0  0  0
  146.7070  160.4880  133.3580 C   0  0  0  0  0  0  0  0  0  0  0  0
  145.3340  160.2950  133.4840 C   0  0  0  0  0  0  0  0  0  0  0  0
  144.3810  161.3940  133.7340 C   0  0  0  0  0  0  0  0  0  0  0  0
  143.0010  161.2690  133.3840 N   0  0  0  0  0  0  0  0  0  0  0  0
  144.7770  162.4380  134.3160 O   0  0  0  0  0  0  0  0  0  0  0  0
  145.0230  158.9710  133.3980 N   0  0  0  0  0  0  0  0  0  0  0  0
  143.7130  158.3790  133.3740 C   0  0  0  0  0  0  0  0  0  0  0  0
  143.4430  157.4810  132.5310 O   0  0  0  0  0  0  0  0  0  0  0  0
  142.7440  158.7980  134.2890 O   0  0  0  0  0  0  0  0  0  0  0  0
  141.6420  157.9830  134.6750 C   0  0  0  0  0  0  0  0  0  0  0  0
  140.3290  158.6820  134.3260 C   0  0  0  0  0  0  0  0  0  0  0  0
  140.1260  158.7890  132.8120 C   0  0  0  0  0  0  0  0  0  0  0  0
  141.1320  159.5810  132.2430 O   0  0  0  0  0  0  0  0  0  0  0  0
  146.2020  158.3290  133.2320 C   0  0  0  0  0  0  0  0  0  0  0  0
  146.4300  156.9600  133.0420 C   0  0  0  0  0  0  0  0  0  0  0  0
  148.1454  154.5514  133.6025 H   0  0  0  0  0  0  0  0  0  0  0  0
  147.2170  154.6201  132.0662 H   0  0  0  0  0  0  0  0  0  0  0  0
  148.9802  154.9632  132.0662 H   0  0  0  0  0  0  0  0  0  0  0  0
  149.8528  157.1173  132.7020 H   0  0  0  0  0  0  0  0  0  0  0  0
  149.3763  159.5692  133.0101 H   0  0  0  0  0  0  0  0  0  0  0  0
  147.2511  161.4439  133.3761 H   0  0  0  0  0  0  0  0  0  0  0  0
  142.6080  160.3590  133.0570 H   0  0  0  0  0  0  0  0  0  0  0  0
  142.3490  162.0710  133.5330 H   0  0  0  0  0  0  0  0  0  0  0  0
  141.6957  157.0217  134.1431 H   0  0  0  0  0  0  0  0  0  0  0  0
  141.6825  157.8108  135.7607 H   0  0  0  0  0  0  0  0  0  0  0  0
  139.4950  158.1089  134.7573 H   0  0  0  0  0  0  0  0  0  0  0  0
  140.3641  159.7010  134.7389 H   0  0  0  0  0  0  0  0  0  0  0  0
  140.1616  157.7829  132.3688 H   0  0  0  0  0  0  0  0  0  0  0  0
  139.1487  159.2531  132.6131 H   0  0  0  0  0  0  0  0  0  0  0  0
  141.9560  159.0280  132.2320 H   0  0  0  0  0  0  0  0  0  0  0  0
  145.5938  156.2455  133.0256 H   0  0  0  0  0  0  0  0  0  0  0  0
  1  2  1  0
  2  3  2  0
  3  4  1  0
  4  5  2  0
  5  6  1  0
  6  7  2  0
  7  8  1  0
  8  9  1  0
  8 10  2  0
  7 11  1  0
 11 12  1  0
 12 13  2  0
 12 14  1  0
 14 15  1  0
 15 16  1  0
 16 17  1  0
 17 18  1  0
 11 19  1  0
 19 20  2  0
 20  2  1  0
 19  5  1  0
  1 21  1  0
  1 22  1  0
  1 23  1  0
  3 24  1  0
  4 25  1  0
  6 26  1  0
  9 27  1  0
  9 28  1  0
 15 29  1  0
 15 30  1  0
 16 31  1  0
 16 32  1  0
 17 33  1  0
 17 34  1  0
 18 35  1  0
 20 36  1  0
M  END
>  <UniqueID>  (28) 
28

>  <SMILES>  (28) 
Cc1ccc2cc(C(N)=O)n(C(=O)OCCCO)c2c1

>  <Energy>  (28) 
67.89893574989077

>  <Genealogy>  (28) 
Cc1ccc2cc(C(N)=O)n(C(=O)OCCCO)c2c1 (3D coordinates assigned)
Cc1ccc2cc(C(N)=O)n(C(=O)OCCCO)c2c1 (optimized conformer: 67.89893574989077 kcal/mol)

>  <smiles>  (28) 
Cc1ccc2cc(C(N)=O)n(C(=O)OCCCO)c2c1

>  <score_type>  (28) 
oracle

>  <origin>  (28) 
adg

>  <m_score__min__energy>  (28) 
-6.1200000000000001

>  <m_primary>  (28) 
energy

$$$$
28:0
     RDKit          3D

 37 38  0  0  0  0  0  0  0  0999 V2000
  141.3680  158.8100  137.5600 C   0  0  0  0  0  0  0  0  0  0  0  0
  140.7600  159.3690  136.4030 O   0  0  0  0  0  0  0  0  0  0  0  0
  140.0810  158.5920  135.4590 C   0  0  0  0  0  0  0  0  0  0  0  0
  139.0910  157.8870  135.7950 O   0  0  0  0  0  0  0  0  0  0  0  0
  140.5550  158.5780  134.0410 C   0  0  0  0  0  0  0  0  0  0  0  0
  141.9600  159.1080  133.9620 C   0  0  0  0  0  0  0  0  0  0  0  0
  142.1880  160.5020  133.8600 C   0  0  0  0  0  0  0  0  0  0  0  0
  143.4940  161.0070  133.7460 C   0  0  0  0  0  0  0  0  0  0  0  0
  144.5470  160.0960  133.7320 C   0  0  0  0  0  0  0  0  0  0  0  0
  145.8990  160.3120  133.6090 C   0  0  0  0  0  0  0  0  0  0  0  0
  146.4810  159.0470  133.6460 C   0  0  0  0  0  0  0  0  0  0  0  0
  147.9410  158.8120  133.6370 C   0  0  0  0  0  0  0  0  0  0  0  0
  148.4730  157.5180  133.9280 N   0  0  0  0  0  0  0  0  0  0  0  0
  148.7310  159.7470  133.3380 O   0  0  0  0  0  0  0  0  0  0  0  0
  145.5250  158.0840  133.7840 N   0  0  0  0  0  0  0  0  0  0  0  0
  145.7160  156.6600  133.7900 C   0  0  0  0  0  0  0  0  0  0  0  0
  146.3150  156.1000  132.8310 O   0  0  0  0  0  0  0  0  0  0  0  0
  145.2540  155.9000  134.8720 O   0  0  0  0  0  0  0  0  0  0  0  0
  145.5960  154.5300  135.0700 C   0  0  0  0  0  0  0  0  0  0  0  0
  146.8370  154.4150  135.8950 C   0  0  0  0  0  0  0  0  0  0  0  0
  147.7470  155.2810  135.7980 O   0  0  0  0  0  0  0  0  0  0  0  0
  146.9970  153.3430  136.7640 O   0  0  0  0  0  0  0  0  0  0  0  0
  144.3450  158.7440  133.8350 C   0  0  0  0  0  0  0  0  0  0  0  0
  143.0530  158.2120  133.9310 C   0  0  0  0  0  0  0  0  0  0  0  0
  140.9034  159.2371  138.4610 H   0  0  0  0  0  0  0  0  0  0  0  0
  141.2276  157.7190  137.5572 H   0  0  0  0  0  0  0  0  0  0  0  0
  142.4434  159.0413  137.5572 H   0  0  0  0  0  0  0  0  0  0  0  0
  140.5331  157.5463  133.6600 H   0  0  0  0  0  0  0  0  0  0  0  0
  139.8947  159.2147  133.4338 H   0  0  0  0  0  0  0  0  0  0  0  0
  141.3345  161.1959  133.8701 H   0  0  0  0  0  0  0  0  0  0  0  0
  143.6790  162.0887  133.6702 H   0  0  0  0  0  0  0  0  0  0  0  0
  146.4125  161.2790  133.5037 H   0  0  0  0  0  0  0  0  0  0  0  0
  149.5030  157.3500  133.8810 H   0  0  0  0  0  0  0  0  0  0  0  0
  147.8540  156.7330  134.2290 H   0  0  0  0  0  0  0  0  0  0  0  0
  144.7690  154.0214  135.5871 H   0  0  0  0  0  0  0  0  0  0  0  0
  145.7750  154.0625  134.0905 H   0  0  0  0  0  0  0  0  0  0  0  0
  142.8928  157.1249  133.9810 H   0  0  0  0  0  0  0  0  0  0  0  0
  1  2  1  0
  2  3  1  0
  3  4  2  0
  3  5  1  0
  5  6  1  0
  6  7  2  0
  7  8  1  0
  8  9  2  0
  9 10  1  0
 10 11  2  0
 11 12  1  0
 12 13  1  0
 12 14  2  0
 11 15  1  0
 15 16  1  0
 16 17  2  0
 16 18  1  0
 18 19  1  0
 19 20  1  0
 20 21  2  0
 20 22  1  0
 15 23  1  0
 23 24  2  0
 24  6  1  0
 23  9  1  0
  1 25  1  0
  1 26  1  0
  1 27  1  0
  5 28  1  0
  5 29  1  0
  7 30  1  0
  8 31  1  0
 10 32  1  0
 13 33  1  0
 13 34  1  0
 19 35  1  0
 19 36  1  0
 24 37  1  0
M  CHG  1  22  -1
M  END
>  <UniqueID>  (29) 
29

>  <SMILES>  (29) 
COC(=O)Cc1ccc2cc(C(N)=O)n(C(=O)OCC(=O)[O-])c2c1

>  <Energy>  (29) 
69.16782306091207

>  <Genealogy>  (29) 
COC(=O)Cc1ccc2cc(C(N)=O)n(C(=O)OCC(=O)[O-])c2c1 (protonated)
COC(=O)Cc1ccc2cc(C(N)=O)n(C(=O)OCC(=O)[O-])c2c1 (3D coordinates assigned)
COC(=O)Cc1ccc2cc(C(N)=O)n(C(=O)OCC(=O)[O-])c2c1 (optimized conformer: 69.16782306091207 kcal/mol)

>  <smiles>  (29) 
COC(=O)Cc1ccc2cc(C(N)=O)n(C(=O)OCC(=O)O)c2c1

>  <score_type>  (29) 
oracle

>  <origin>  (29) 
adg

>  <m_score__min__energy>  (29) 
-6.3399999999999999

>  <m_primary>  (29) 
energy

$$$$
29:0
     RDKit          3D

 88 95  0  0  0  0  0  0  0  0999 V2000
  140.7320  159.1800  131.9340 N   0  0  0  0  0  0  0  0  0  0  0  0
  140.8620  159.9950  133.1040 C   0  0  0  0  0  0  0  0  0  0  0  0
  140.9220  161.2430  132.9600 O   0  0  0  0  0  0  0  0  0  0  0  0
  140.9320  159.4420  134.4810 C   0  0  0  0  0  0  0  0  0  0  0  0
  140.8950  160.2640  135.6080 C   0  0  0  0  0  0  0  0  0  0  0  0
  141.1370  159.4350  136.6790 C   0  0  0  0  0  0  0  0  0  0  0  0
  141.2210  159.7280  138.0430 C   0  0  0  0  0  0  0  0  0  0  0  0
  141.5200  158.6790  138.9230 C   0  0  0  0  0  0  0  0  0  0  0  0
  141.7580  157.3690  138.4350 C   0  0  0  0  0  0  0  0  0  0  0  0
  142.0660  156.2440  139.3930 C   0  0  0  0  0  0  0  0  0  0  0  0
  142.7310  155.2380  138.7200 F   0  0  0  0  0  0  0  0  0  0  0  0
  142.8650  156.6990  140.4290 F   0  0  0  0  0  0  0  0  0  0  0  0
  140.8990  155.7330  139.9360 F   0  0  0  0  0  0  0  0  0  0  0  0
  141.6410  157.1090  137.0420 C   0  0  0  0  0  0  0  0  0  0  0  0
  141.3430  158.1760  136.1890 C   0  0  0  0  0  0  0  0  0  0  0  0
  141.2130  158.1570  134.8490 N   0  0  0  0  0  0  0  0  0  0  0  0
  141.3590  157.0120  134.0040 C   0  0  0  0  0  0  0  0  0  0  0  0
  142.1140  157.0760  132.9890 O   0  0  0  0  0  0  0  0  0  0  0  0
  140.5680  155.8350  134.2490 N   0  0  0  0  0  0  0  0  0  0  0  0
  139.5990  155.3840  133.2490 C   0  0  0  0  0  0  0  0  0  0  0  0
  139.7650  153.8860  132.9480 C   0  0  0  0  0  0  0  0  0  0  0  0
  141.2760  153.5170  132.9660 C   0  0  0  0  0  0  0  0  0  0  0  0
  141.6180  152.1260  132.5300 N   0  0  0  0  0  0  0  0  0  0  0  0
  140.6150  151.5240  131.6070 C   0  0  0  0  0  0  0  0  0  0  0  0
  139.4440  150.8470  132.3590 C   0  0  0  0  0  0  0  0  0  0  0  0
  139.8900  149.8930  133.3960 N   0  0  0  0  0  0  0  0  0  0  0  0
  140.3890  148.6320  132.7990 C   0  0  0  0  0  0  0  0  0  0  0  0
  141.5160  148.0230  133.5720 C   0  0  0  0  0  0  0  0  0  0  0  0
  142.5300  148.1480  132.5100 N   0  0  0  0  0  0  0  0  0  0  0  0
  143.9120  147.9010  132.2900 C   0  0  0  0  0  0  0  0  0  0  0  0
  144.3580  146.5620  132.2370 C   0  0  0  0  0  0  0  0  0  0  0  0
  145.7040  146.2680  132.0060 C   0  0  0  0  0  0  0  0  0  0  0  0
  146.5820  147.3300  131.8500 C   0  0  0  0  0  0  0  0  0  0  0  0
  146.1630  148.6430  131.9250 C   0  0  0  0  0  0  0  0  0  0  0  0
  144.8220  148.9700  132.1430 C   0  0  0  0  0  0  0  0  0  0  0  0
  147.3420  149.4880  131.7530 C   0  0  0  0  0  0  0  0  0  0  0  0
  147.3650  150.7440  131.8520 O   0  0  0  0  0  0  0  0  0  0  0  0
  148.5010  148.6720  131.5330 N   0  0  0  0  0  0  0  0  0  0  0  0
  149.8980  149.0600  131.7000 C   0  0  2  0  0  0  0  0  0  0  0  0
  149.9940  150.4990  132.2320 C   0  0  0  0  0  0  0  0  0  0  0  0
  151.4500  150.9070  132.4560 C   0  0  0  0  0  0  0  0  0  0  0  0
  152.2530  150.7010  131.1980 C   0  0  0  0  0  0  0  0  0  0  0  0
  153.3560  151.2980  131.0570 O   0  0  0  0  0  0  0  0  0  0  0  0
  151.8340  149.7490  130.2140 N   0  0  0  0  0  0  0  0  0  0  0  0
  150.6730  148.9460  130.4160 C   0  0  0  0  0  0  0  0  0  0  0  0
  150.3550  148.0860  129.5540 O   0  0  0  0  0  0  0  0  0  0  0  0
  148.0150  147.3300  131.6270 C   0  0  0  0  0  0  0  0  0  0  0  0
  148.7440  146.3080  131.5560 O   0  0  0  0  0  0  0  0  0  0  0  0
  141.4560  148.8100  131.7620 C   0  0  0  0  0  0  0  0  0  0  0  0
  140.8660  150.5430  134.3020 C   0  0  0  0  0  0  0  0  0  0  0  0
  142.0620  151.1480  133.5500 C   0  0  0  0  0  0  0  0  0  0  0  0
  141.8220  153.7200  134.4130 C   0  0  0  0  0  0  0  0  0  0  0  0
  141.0970  154.8430  135.1920 C   0  0  0  0  0  0  0  0  0  0  0  0
  141.4980  158.5960  131.5590 H   0  0  0  0  0  0  0  0  0  0  0  0
  140.7109  161.3482  135.6346 H   0  0  0  0  0  0  0  0  0  0  0  0
  141.0575  160.7504  138.4144 H   0  0  0  0  0  0  0  0  0  0  0  0
  141.5706  158.8740  140.0044 H   0  0  0  0  0  0  0  0  0  0  0  0
  141.7816  156.0928  136.6450 H   0  0  0  0  0  0  0  0  0  0  0  0
  138.5823  155.5629  133.6288 H   0  0  0  0  0  0  0  0  0  0  0  0
  139.7712  155.9465  132.3195 H   0  0  0  0  0  0  0  0  0  0  0  0
  139.2349  153.2978  133.7116 H   0  0  0  0  0  0  0  0  0  0  0  0
  139.3452  153.6630  131.9560 H   0  0  0  0  0  0  0  0  0  0  0  0
  141.7420  154.1831  132.2249 H   0  0  0  0  0  0  0  0  0  0  0  0
  140.2081  152.3176  130.9631 H   0  0  0  0  0  0  0  0  0  0  0  0
  141.1270  150.7473  131.0200 H   0  0  0  0  0  0  0  0  0  0  0  0
  138.8395  151.6295  132.8410 H   0  0  0  0  0  0  0  0  0  0  0  0
  138.8666  150.2759  131.6171 H   0  0  0  0  0  0  0  0  0  0  0  0
  139.4203  148.1489  132.6037 H   0  0  0  0  0  0  0  0  0  0  0  0
  141.7726  148.6006  134.4723 H   0  0  0  0  0  0  0  0  0  0  0  0
  141.3498  147.0176  133.9861 H   0  0  0  0  0  0  0  0  0  0  0  0
  143.6383  145.7424  132.3791 H   0  0  0  0  0  0  0  0  0  0  0  0
  146.0561  145.2274  131.9496 H   0  0  0  0  0  0  0  0  0  0  0  0
  144.4893  150.0171  132.1978 H   0  0  0  0  0  0  0  0  0  0  0  0
  150.3419  148.3646  132.4276 H   0  0  0  0  0  0  0  0  0  0  0  0
  149.5375  151.1832  131.5016 H   0  0  0  0  0  0  0  0  0  0  0  0
  149.4644  150.5516  133.1947 H   0  0  0  0  0  0  0  0  0  0  0  0
  151.4891  151.9687  132.7411 H   0  0  0  0  0  0  0  0  0  0  0  0
  151.8757  150.2845  133.2568 H   0  0  0  0  0  0  0  0  0  0  0  0
  141.6740  149.8686  131.5575 H   0  0  0  0  0  0  0  0  0  0  0  0
  141.2397  148.4216  130.7558 H   0  0  0  0  0  0  0  0  0  0  0  0
  140.3542  151.3458  134.8529 H   0  0  0  0  0  0  0  0  0  0  0  0
  141.2565  149.7694  134.9796 H   0  0  0  0  0  0  0  0  0  0  0  0
  142.7189  151.6560  134.2714 H   0  0  0  0  0  0  0  0  0  0  0  0
  142.5989  150.3345  133.0402 H   0  0  0  0  0  0  0  0  0  0  0  0
  141.7007  152.7773  134.9668 H   0  0  0  0  0  0  0  0  0  0  0  0
  142.8774  154.0168  134.3229 H   0  0  0  0  0  0  0  0  0  0  0  0
  140.2680  154.4102  135.7711 H   0  0  0  0  0  0  0  0  0  0  0  0
  141.8081  155.3313  135.8746 H   0  0  0  0  0  0  0  0  0  0  0  0
  1  2  1  0
  2  3  2  0
  2  4  1  0
  4  5  2  0
  5  6  1  0
  6  7  2  0
  7  8  1  0
  8  9  2  0
  9 10  1  0
 10 11  1  0
 10 12  1  0
 10 13  1  0
  9 14  1  0
 14 15  2  0
 15 16  1  0
 16 17  1  0
 17 18  2  0
 17 19  1  0
 19 20  1  0
 20 21  1  0
 21 22  1  0
 22 23  1  0
 23 24  1  0
 24 25  1  0
 25 26  1  0
 26 27  1  0
 27 28  1  0
 28 29  1  0
 29 30  1  0
 30 31  2  0
 31 32  1  0
 32 33  2  0
 33 34  1  0
 34 35  2  0
 34 36  1  0
 36 37  2  0
 36 38  1  0
 38 39  1  0
 39 40  1  0
 40 41  1  0
 41 42  1  0
 42 43  2  0
 42 44  1  0
 44 45  1  0
 45 46  2  0
 38 47  1  0
 47 48  2  0
 29 49  1  0
 26 50  1  0
 50 51  1  0
 22 52  1  0
 52 53  1  0
 16  4  1  0
 53 19  1  0
 15  6  1  0
 51 23  1  0
 49 27  1  0
 35 30  1  0
 45 39  1  0
 47 33  1  0
  1 54  1  0
  5 55  1  0
  7 56  1  0
  8 57  1  0
 14 58  1  0
 20 59  1  0
 20 60  1  0
 21 61  1  0
 21 62  1  0
 22 63  1  0
 24 64  1  0
 24 65  1  0
 25 66  1  0
 25 67  1  0
 27 68  1  0
 28 69  1  0
 28 70  1  0
 31 71  1  0
 32 72  1  0
 35 73  1  0
 39 74  1  1
 40 75  1  0
 40 76  1  0
 41 77  1  0
 41 78  1  0
 49 79  1  0
 49 80  1  0
 50 81  1  0
 50 82  1  0
 51 83  1  0
 51 84  1  0
 52 85  1  0
 52 86  1  0
 53 87  1  0
 53 88  1  0
M  CHG  2   1  -1  44  -1
M  END
>  <UniqueID>  (30) 
30

>  <SMILES>  (30) 
[NH-]C(=O)c1cc2ccc(C(F)(F)F)cc2n1C(=O)N1CCC(N2CCN(C3CN(c4ccc5c(c4)C(=O)N([C@@H]4CCC(=O)[N-]C4=O)C5=O)C3)CC2)CC1

>  <Energy>  (30) 
247.50110421897548

>  <Genealogy>  (30) 
[NH-]C(=O)c1cc2ccc(C(F)(F)F)cc2n1C(=O)N1CCC(N2CCN(C3CN(c4ccc5c(c4)C(=O)N(C4CCC(=O)[N-]C4=O)C5=O)C3)CC2)CC1 (protonated)
[NH-]C(=O)c1cc2ccc(C(F)(F)F)cc2n1C(=O)N1CCC(N2CCN(C3CN(c4ccc5c(c4)C(=O)N([C@@H]4CCC(=O)[N-]C4=O)C5=O)C3)CC2)CC1 (chirality)
[NH-]C(=O)c1cc2ccc(C(F)(F)F)cc2n1C(=O)N1CCC(N2CCN(C3CN(c4ccc5c(c4)C(=O)N([C@@H]4CCC(=O)[N-]C4=O)C5=O)C3)CC2)CC1 (3D coordinates assigned)
[NH-]C(=O)c1cc2ccc(C(F)(F)F)cc2n1C(=O)N1CCC(N2CCN(C3CN(c4ccc5c(c4)C(=O)N([C@@H]4CCC(=O)[N-]C4=O)C5=O)C3)CC2)CC1 (nonaromatic ring conformer: 247.50110421897548 kcal/mol)

>  <smiles>  (30) 
NC(=O)c1cc2ccc(C(F)(F)F)cc2n1C(=O)N1CCC(N2CCN(C3CN(c4ccc5c(c4)C(=O)N(C4CCC(=O)NC4=O)C5=O)C3)CC2)CC1

>  <score_type>  (30) 
oracle

>  <origin>  (30) 
adg

>  <m_score__min__energy>  (30) 
15.119999999999999

>  <m_primary>  (30) 
energy

$$$$
30:0
     RDKit          3D

 44 46  0  0  0  0  0  0  0  0999 V2000
  142.4250  158.1660  134.6100 C   0  0  0  0  0  0  0  0  0  0  0  0
  143.6620  158.8380  134.0950 C   0  0  0  0  0  0  0  0  0  0  0  0
  143.7590  160.2510  134.1060 C   0  0  0  0  0  0  0  0  0  0  0  0
  144.9330  160.8900  133.6740 C   0  0  0  0  0  0  0  0  0  0  0  0
  145.9880  160.0930  133.2380 C   0  0  0  0  0  0  0  0  0  0  0  0
  147.2450  160.4470  132.8060 C   0  0  0  0  0  0  0  0  0  0  0  0
  147.8950  159.2450  132.5310 C   0  0  0  0  0  0  0  0  0  0  0  0
  149.2780  159.1660  132.0110 C   0  0  0  0  0  0  0  0  0  0  0  0
  149.9710  157.9200  132.0280 N   0  0  0  0  0  0  0  0  0  0  0  0
  149.8610  160.1860  131.5620 O   0  0  0  0  0  0  0  0  0  0  0  0
  147.0680  158.1880  132.7780 N   0  0  0  0  0  0  0  0  0  0  0  0
  147.3700  156.7890  132.6450 C   0  0  0  0  0  0  0  0  0  0  0  0
  146.7560  156.1100  131.7760 O   0  0  0  0  0  0  0  0  0  0  0  0
  148.3030  156.1510  133.5550 N   0  0  2  0  0  0  0  0  0  0  0  0
  148.8610  154.8980  132.9870 C   0  0  0  0  0  0  0  0  0  0  0  0
  147.8730  153.7110  133.0010 C   0  0  0  0  0  0  0  0  0  0  0  0
  146.9140  153.7280  134.2000 C   0  0  0  0  0  0  0  0  0  0  0  0
  147.4930  154.5380  135.3590 C   0  0  2  0  0  0  0  0  0  0  0  0
  146.5860  154.4800  136.5110 N   0  0  0  0  0  0  0  0  0  0  0  0
  146.6060  153.4010  137.4530 C   0  0  0  0  0  0  0  0  0  0  0  0
  147.4660  152.4860  137.3680 O   0  0  0  0  0  0  0  0  0  0  0  0
  145.6620  153.3600  138.4710 O   0  0  0  0  0  0  0  0  0  0  0  0
  147.7140  156.0020  134.9190 C   0  0  0  0  0  0  0  0  0  0  0  0
  145.9080  158.7240  133.2160 C   0  0  0  0  0  0  0  0  0  0  0  0
  144.7590  158.0610  133.6630 C   0  0  0  0  0  0  0  0  0  0  0  0
  142.4355  158.1717  135.7099 H   0  0  0  0  0  0  0  0  0  0  0  0
  141.5371  158.7058  134.2490 H   0  0  0  0  0  0  0  0  0  0  0  0
  142.3946  157.1274  134.2490 H   0  0  0  0  0  0  0  0  0  0  0  0
  142.9076  160.8532  134.4559 H   0  0  0  0  0  0  0  0  0  0  0  0
  145.0163  161.9868  133.6800 H   0  0  0  0  0  0  0  0  0  0  0  0
  147.6513  161.4637  132.7000 H   0  0  0  0  0  0  0  0  0  0  0  0
  149.6200  157.1030  131.4820 H   0  0  0  0  0  0  0  0  0  0  0  0
  149.1160  156.8010  133.6560 H   0  0  0  0  0  0  0  0  0  0  0  0
  149.1558  155.0911  131.9450 H   0  0  0  0  0  0  0  0  0  0  0  0
  149.7134  154.6118  133.6206 H   0  0  0  0  0  0  0  0  0  0  0  0
  147.2765  153.7433  132.0773 H   0  0  0  0  0  0  0  0  0  0  0  0
  148.4720  152.7917  133.0782 H   0  0  0  0  0  0  0  0  0  0  0  0
  145.9593  154.1777  133.8896 H   0  0  0  0  0  0  0  0  0  0  0  0
  146.7627  152.6928  134.5398 H   0  0  0  0  0  0  0  0  0  0  0  0
  148.4624  154.1087  135.6522 H   0  0  0  0  0  0  0  0  0  0  0  0
  145.7950  155.1590  136.5710 H   0  0  0  0  0  0  0  0  0  0  0  0
  146.7418  156.5164  134.9326 H   0  0  0  0  0  0  0  0  0  0  0  0
  148.4376  156.4372  135.6240 H   0  0  0  0  0  0  0  0  0  0  0  0
  144.7119  156.9621  133.6773 H   0  0  0  0  0  0  0  0  0  0  0  0
  1  2  1  0
  2  3  2  0
  3  4  1  0
  4  5  2  0
  5  6  1  0
  6  7  2  0
  7  8  1  0
  8  9  1  0
  8 10  2  0
  7 11  1  0
 11 12  1  0
 12 13  2  0
 12 14  1  0
 14 15  1  0
 15 16  1  0
 16 17  1  0
 17 18  1  0
 18 19  1  0
 19 20  1  0
 20 21  2  0
 20 22  1  0
 18 23  1  0
 11 24  1  0
 24 25  2  0
 25  2  1  0
 24  5  1  0
 23 14  1  0
  1 26  1  0
  1 27  1  0
  1 28  1  0
  3 29  1  0
  4 30  1  0
  6 31  1  0
  9 32  1  0
 14 33  1  1
 15 34  1  0
 15 35  1  0
 16 36  1  0
 16 37  1  0
 17 38  1  0
 17 39  1  0
 18 40  1  1
 19 41  1  0
 23 42  1  0
 23 43  1  0
 25 44  1  0
M  CHG  3   9  -1  14   1  22  -1
M  END
>  <UniqueID>  (31) 
31

>  <SMILES>  (31) 
Cc1ccc2cc(C([NH-])=O)n(C(=O)[N@@H+]3CCC[C@H](NC(=O)[O-])C3)c2c1

>  <Energy>  (31) 
93.91570542650598

>  <Genealogy>  (31) 
Cc1ccc2cc(C([NH-])=O)n(C(=O)[NH+]3CCCC(NC(=O)[O-])C3)c2c1 (protonated)
Cc1ccc2cc(C([NH-])=O)n(C(=O)[N@@H+]3CCC[C@H](NC(=O)[O-])C3)c2c1 (chirality)
Cc1ccc2cc(C([NH-])=O)n(C(=O)[N@@H+]3CCC[C@H](NC(=O)[O-])C3)c2c1 (3D coordinates assigned)
Cc1ccc2cc(C([NH-])=O)n(C(=O)[N@@H+]3CCC[C@H](NC(=O)[O-])C3)c2c1 (nonaromatic ring conformer: 93.91570542650598 kcal/mol)

>  <smiles>  (31) 
Cc1ccc2cc(C(N)=O)n(C(=O)N3CCCC(NC(=O)O)C3)c2c1

>  <score_type>  (31) 
oracle

>  <origin>  (31) 
adg

>  <m_score__min__energy>  (31) 
-7.9199999999999999

>  <m_primary>  (31) 
energy

$$$$
31:0
     RDKit          3D

 36 38  0  0  0  0  0  0  0  0999 V2000
  149.0460  161.8680  130.4420 C   0  0  0  0  0  0  0  0  0  0  0  0
  148.4300  160.6050  131.0360 C   0  0  2  0  0  0  0  0  0  0  0  0
  148.0440  160.8650  132.3860 O   0  0  0  0  0  0  0  0  0  0  0  0
  147.8830  159.8620  133.3490 C   0  0  0  0  0  0  0  0  0  0  0  0
  148.8520  159.5250  134.0840 O   0  0  0  0  0  0  0  0  0  0  0  0
  146.6190  159.1890  133.4760 N   0  0  0  0  0  0  0  0  0  0  0  0
  145.3830  159.7540  133.5890 C   0  0  0  0  0  0  0  0  0  0  0  0
  145.0980  161.1890  133.7900 C   0  0  0  0  0  0  0  0  0  0  0  0
  146.1410  162.1050  134.1080 N   0  0  0  0  0  0  0  0  0  0  0  0
  143.9100  161.6030  133.7340 O   0  0  0  0  0  0  0  0  0  0  0  0
  144.3930  158.7750  133.5690 C   0  0  0  0  0  0  0  0  0  0  0  0
  145.0640  157.5800  133.4480 C   0  0  0  0  0  0  0  0  0  0  0  0
  144.5710  156.2830  133.3630 C   0  0  0  0  0  0  0  0  0  0  0  0
  145.4920  155.2350  133.2070 C   0  0  0  0  0  0  0  0  0  0  0  0
  146.8860  155.4990  133.1260 C   0  0  0  0  0  0  0  0  0  0  0  0
  147.8650  154.4040  132.9470 C   0  0  0  0  0  0  0  0  0  0  0  0
  149.2010  154.5020  132.6160 C   0  0  0  0  0  0  0  0  0  0  0  0
  149.7270  153.2640  132.5540 N   0  0  0  0  0  0  0  0  0  0  0  0
  148.6850  152.4590  132.8530 C   0  0  0  0  0  0  0  0  0  0  0  0
  147.5810  153.1320  133.0860 O   0  0  0  0  0  0  0  0  0  0  0  0
  147.3450  156.8330  133.2140 C   0  0  0  0  0  0  0  0  0  0  0  0
  146.4060  157.8560  133.3920 C   0  0  0  0  0  0  0  0  0  0  0  0
  149.4170  159.4750  130.9790 C   0  0  0  0  0  0  0  0  0  0  0  0
  149.0290  158.2880  131.1440 O   0  0  0  0  0  0  0  0  0  0  0  0
  150.7590  159.7280  130.7240 O   0  0  0  0  0  0  0  0  0  0  0  0
  149.3711  162.5345  131.2545 H   0  0  0  0  0  0  0  0  0  0  0  0
  149.9128  161.5964  129.8216 H   0  0  0  0  0  0  0  0  0  0  0  0
  148.2983  162.3838  129.8216 H   0  0  0  0  0  0  0  0  0  0  0  0
  147.5422  160.3161  130.4544 H   0  0  0  0  0  0  0  0  0  0  0  0
  146.8710  162.3540  133.4040 H   0  0  0  0  0  0  0  0  0  0  0  0
  143.3054  158.9252  133.6358 H   0  0  0  0  0  0  0  0  0  0  0  0
  143.4905  156.0836  133.4164 H   0  0  0  0  0  0  0  0  0  0  0  0
  145.1305  154.1978  133.1468 H   0  0  0  0  0  0  0  0  0  0  0  0
  149.7474  155.4389  132.4326 H   0  0  0  0  0  0  0  0  0  0  0  0
  148.7529  151.3620  132.8966 H   0  0  0  0  0  0  0  0  0  0  0  0
  148.4185  157.0627  133.1440 H   0  0  0  0  0  0  0  0  0  0  0  0
  1  2  1  0
  2  3  1  0
  3  4  1  0
  4  5  2  0
  4  6  1  0
  6  7  1  0
  7  8  1  0
  8  9  1  0
  8 10  2  0
  7 11  2  0
 11 12  1  0
 12 13  2  0
 13 14  1  0
 14 15  2  0
 15 16  1  0
 16 17  2  0
 17 18  1  0
 18 19  2  0
 19 20  1  0
 15 21  1  0
 21 22  2  0
  2 23  1  0
 23 24  2  0
 23 25  1  0
 22  6  1  0
 22 12  1  0
 20 16  1  0
  1 26  1  0
  1 27  1  0
  1 28  1  0
  2 29  1  6
  9 30  1  0
 11 31  1  0
 13 32  1  0
 14 33  1  0
 17 34  1  0
 19 35  1  0
 21 36  1  0
M  CHG  2   9  -1  25  -1
M  END
>  <UniqueID>  (32) 
32

>  <SMILES>  (32) 
C[C@H](OC(=O)n1c(C([NH-])=O)cc2ccc(-c3cnco3)cc21)C(=O)[O-]

>  <Energy>  (32) 
103.80966623269295

>  <Genealogy>  (32) 
CC(OC(=O)n1c(C([NH-])=O)cc2ccc(-c3cnco3)cc21)C(=O)[O-] (protonated)
C[C@H](OC(=O)n1c(C([NH-])=O)cc2ccc(-c3cnco3)cc21)C(=O)[O-] (chirality)
C[C@H](OC(=O)n1c(C([NH-])=O)cc2ccc(-c3cnco3)cc21)C(=O)[O-] (3D coordinates assigned)
C[C@H](OC(=O)n1c(C([NH-])=O)cc2ccc(-c3cnco3)cc21)C(=O)[O-] (optimized conformer: 103.80966623269295 kcal/mol)

>  <smiles>  (32) 
CC(OC(=O)n1c(C(N)=O)cc2ccc(-c3cnco3)cc21)C(=O)O

>  <score_type>  (32) 
oracle

>  <origin>  (32) 
adg

>  <m_score__min__energy>  (32) 
-6.9699999999999998

>  <m_primary>  (32) 
energy

$$$$
32:0
     RDKit          3D

 49 51  0  0  0  0  0  0  0  0999 V2000
  148.4740  153.3830  137.4720 C   0  0  0  0  0  0  0  0  0  0  0  0
  147.3160  153.3500  136.6670 O   0  0  0  0  0  0  0  0  0  0  0  0
  147.5810  153.9160  135.3970 C   0  0  0  0  0  0  0  0  0  0  0  0
  147.2690  155.4100  135.4000 C   0  0  0  0  0  0  0  0  0  0  0  0
  146.2450  155.6860  134.4510 O   0  0  0  0  0  0  0  0  0  0  0  0
  146.4550  156.4490  133.3000 C   0  0  0  0  0  0  0  0  0  0  0  0
  146.9250  155.9140  132.2590 O   0  0  0  0  0  0  0  0  0  0  0  0
  146.1670  157.8570  133.3190 N   0  0  0  0  0  0  0  0  0  0  0  0
  147.0340  158.8980  133.1620 C   0  0  0  0  0  0  0  0  0  0  0  0
  148.4600  158.7940  132.7890 C   0  0  0  0  0  0  0  0  0  0  0  0
  148.8640  158.0890  131.6180 N   0  0  0  0  0  0  0  0  0  0  0  0
  149.3300  159.3810  133.4870 O   0  0  0  0  0  0  0  0  0  0  0  0
  146.3680  160.1140  133.3050 C   0  0  0  0  0  0  0  0  0  0  0  0
  145.0540  159.7860  133.5440 C   0  0  0  0  0  0  0  0  0  0  0  0
  143.9470  160.6050  133.7440 C   0  0  0  0  0  0  0  0  0  0  0  0
  142.7030  159.9910  133.9690 C   0  0  0  0  0  0  0  0  0  0  0  0
  142.5930  158.5770  134.0120 C   0  0  0  0  0  0  0  0  0  0  0  0
  141.3110  157.9570  134.2240 N   0  0  0  0  0  0  0  0  0  0  0  0
  140.2610  158.6890  134.9450 C   0  0  0  0  0  0  0  0  0  0  0  0
  138.8600  158.1780  134.5660 C   0  0  0  0  0  0  0  0  0  0  0  0
  138.7610  157.8360  133.0640 C   0  0  0  0  0  0  0  0  0  0  0  0
  138.8070  159.0900  132.2260 C   0  0  0  0  0  0  0  0  0  0  0  0
  139.8510  159.7940  132.1730 O   0  0  0  0  0  0  0  0  0  0  0  0
  137.6740  159.5000  131.5360 O   0  0  0  0  0  0  0  0  0  0  0  0
  139.8340  156.8010  132.6200 C   0  0  0  0  0  0  0  0  0  0  0  0
  140.9950  156.6590  133.6180 C   0  0  0  0  0  0  0  0  0  0  0  0
  143.7400  157.7810  133.8050 C   0  0  0  0  0  0  0  0  0  0  0  0
  144.9600  158.4180  133.5520 C   0  0  0  0  0  0  0  0  0  0  0  0
  148.1834  153.3747  138.5329 H   0  0  0  0  0  0  0  0  0  0  0  0
  149.0963  152.5022  137.2554 H   0  0  0  0  0  0  0  0  0  0  0  0
  149.0452  154.2978  137.2554 H   0  0  0  0  0  0  0  0  0  0  0  0
  148.6427  153.7687  135.1498 H   0  0  0  0  0  0  0  0  0  0  0  0
  146.9444  153.4219  134.6483 H   0  0  0  0  0  0  0  0  0  0  0  0
  146.9301  155.7112  136.4022 H   0  0  0  0  0  0  0  0  0  0  0  0
  148.1756  155.9729  135.1331 H   0  0  0  0  0  0  0  0  0  0  0  0
  148.5340  157.1150  131.4370 H   0  0  0  0  0  0  0  0  0  0  0  0
  146.8017  161.1228  133.2403 H   0  0  0  0  0  0  0  0  0  0  0  0
  144.0427  161.7007  133.7265 H   0  0  0  0  0  0  0  0  0  0  0  0
  141.8066  160.6121  134.1130 H   0  0  0  0  0  0  0  0  0  0  0  0
  140.4101  158.5559  136.0267 H   0  0  0  0  0  0  0  0  0  0  0  0
  140.3283  159.7519  134.6699 H   0  0  0  0  0  0  0  0  0  0  0  0
  138.6403  157.2735  135.1523 H   0  0  0  0  0  0  0  0  0  0  0  0
  138.1348  158.9761  134.7833 H   0  0  0  0  0  0  0  0  0  0  0  0
  137.7857  157.3545  132.8996 H   0  0  0  0  0  0  0  0  0  0  0  0
  139.3478  155.8206  132.5089 H   0  0  0  0  0  0  0  0  0  0  0  0
  140.2619  157.1625  131.6733 H   0  0  0  0  0  0  0  0  0  0  0  0
  140.7084  155.9501  134.4088 H   0  0  0  0  0  0  0  0  0  0  0  0
  141.8822  156.2901  133.0826 H   0  0  0  0  0  0  0  0  0  0  0  0
  143.6763  156.6835  133.8417 H   0  0  0  0  0  0  0  0  0  0  0  0
  1  2  1  0
  2  3  1  0
  3  4  1  0
  4  5  1  0
  5  6  1  0
  6  7  2  0
  6  8  1  0
  8  9  1  0
  9 10  1  0
 10 11  1  0
 10 12  2  0
  9 13  2  0
 13 14  1  0
 14 15  2  0
 15 16  1  0
 16 17  2  0
 17 18  1  0
 18 19  1  0
 19 20  1  0
 20 21  1  0
 21 22  1  0
 22 23  2  0
 22 24  1  0
 21 25  1  0
 25 26  1  0
 17 27  1  0
 27 28  2  0
 28  8  1  0
 28 14  1  0
 26 18  1  0
  1 29  1  0
  1 30  1  0
  1 31  1  0
  3 32  1  0
  3 33  1  0
  4 34  1  0
  4 35  1  0
 11 36  1  0
 13 37  1  0
 15 38  1  0
 16 39  1  0
 19 40  1  0
 19 41  1  0
 20 42  1  0
 20 43  1  0
 21 44  1  0
 25 45  1  0
 25 46  1  0
 26 47  1  0
 26 48  1  0
 27 49  1  0
M  CHG  2  11  -1  24  -1
M  END
>  <UniqueID>  (33) 
33

>  <SMILES>  (33) 
COCCOC(=O)n1c(C([NH-])=O)cc2ccc(N3CCC(C(=O)[O-])CC3)cc21

>  <Energy>  (33) 
92.98160480173472

>  <Genealogy>  (33) 
COCCOC(=O)n1c(C([NH-])=O)cc2ccc(N3CCC(C(=O)[O-])CC3)cc21 (protonated)
COCCOC(=O)n1c(C([NH-])=O)cc2ccc(N3CCC(C(=O)[O-])CC3)cc21 (3D coordinates assigned)
COCCOC(=O)n1c(C([NH-])=O)cc2ccc(N3CCC(C(=O)[O-])CC3)cc21 (nonaromatic ring conformer: 92.98160480173472 kcal/mol)

>  <smiles>  (33) 
COCCOC(=O)n1c(C(N)=O)cc2ccc(N3CCC(C(=O)O)CC3)cc21

>  <score_type>  (33) 
oracle

>  <origin>  (33) 
adg

>  <m_score__min__energy>  (33) 
-7.7999999999999998

>  <m_primary>  (33) 
energy

$$$$
33:0
     RDKit          3D

 37 39  0  0  0  0  0  0  0  0999 V2000
  141.7480  158.9270  136.8480 C   0  0  0  0  0  0  0  0  0  0  0  0
  140.7860  159.0550  135.6540 C   0  0  2  0  0  0  0  0  0  0  0  0
  139.5600  158.1510  135.8900 C   0  0  0  0  0  0  0  0  0  0  0  0
  138.7290  158.1120  134.7480 O   0  0  0  0  0  0  0  0  0  0  0  0
  139.4180  157.4770  133.6910 C   0  0  0  0  0  0  0  0  0  0  0  0
  140.6030  158.3300  133.2370 C   0  0  0  0  0  0  0  0  0  0  0  0
  141.4430  158.6920  134.3830 N   0  0  0  0  0  0  0  0  0  0  0  0
  142.7770  159.1450  134.0880 C   0  0  0  0  0  0  0  0  0  0  0  0
  143.0450  160.5320  134.0200 C   0  0  0  0  0  0  0  0  0  0  0  0
  144.3430  160.9980  133.7530 C   0  0  0  0  0  0  0  0  0  0  0  0
  145.3480  160.0540  133.5580 C   0  0  0  0  0  0  0  0  0  0  0  0
  146.6900  160.2280  133.3110 C   0  0  0  0  0  0  0  0  0  0  0  0
  147.2180  158.9420  133.2160 C   0  0  0  0  0  0  0  0  0  0  0  0
  148.6280  158.6680  132.8670 C   0  0  0  0  0  0  0  0  0  0  0  0
  148.9640  157.6810  131.8960 N   0  0  0  0  0  0  0  0  0  0  0  0
  149.5450  159.3500  133.3970 O   0  0  0  0  0  0  0  0  0  0  0  0
  146.2430  158.0080  133.4060 N   0  0  0  0  0  0  0  0  0  0  0  0
  146.3950  156.5820  133.4790 C   0  0  0  0  0  0  0  0  0  0  0  0
  146.6700  155.9180  132.4440 O   0  0  0  0  0  0  0  0  0  0  0  0
  146.2120  155.9170  134.6850 O   0  0  0  0  0  0  0  0  0  0  0  0
  145.1030  158.7050  133.6100 C   0  0  0  0  0  0  0  0  0  0  0  0
  143.8230  158.2150  133.8940 C   0  0  0  0  0  0  0  0  0  0  0  0
  141.1795  159.0026  137.7867 H   0  0  0  0  0  0  0  0  0  0  0  0
  142.2577  157.9531  136.8055 H   0  0  0  0  0  0  0  0  0  0  0  0
  142.4946  159.7337  136.8055 H   0  0  0  0  0  0  0  0  0  0  0  0
  140.4704  160.1059  135.5759 H   0  0  0  0  0  0  0  0  0  0  0  0
  139.9041  157.1316  136.1188 H   0  0  0  0  0  0  0  0  0  0  0  0
  138.9802  158.5612  136.7300 H   0  0  0  0  0  0  0  0  0  0  0  0
  139.7862  156.4990  134.0345 H   0  0  0  0  0  0  0  0  0  0  0  0
  138.7283  157.3458  132.8442 H   0  0  0  0  0  0  0  0  0  0  0  0
  141.2038  157.7594  132.5135 H   0  0  0  0  0  0  0  0  0  0  0  0
  140.2214  159.2501  132.7704 H   0  0  0  0  0  0  0  0  0  0  0  0
  142.2292  161.2528  134.1777 H   0  0  0  0  0  0  0  0  0  0  0  0
  144.5589  162.0753  133.6996 H   0  0  0  0  0  0  0  0  0  0  0  0
  147.2314  161.1802  133.2099 H   0  0  0  0  0  0  0  0  0  0  0  0
  148.2290  157.0750  131.4700 H   0  0  0  0  0  0  0  0  0  0  0  0
  143.6361  157.1333  133.9644 H   0  0  0  0  0  0  0  0  0  0  0  0
  1  2  1  0
  2  3  1  0
  3  4  1  0
  4  5  1  0
  5  6  1  0
  6  7  1  0
  7  8  1  0
  8  9  2  0
  9 10  1  0
 10 11  2  0
 11 12  1  0
 12 13  2  0
 13 14  1  0
 14 15  1  0
 14 16  2  0
 13 17  1  0
 17 18  1  0
 18 19  2  0
 18 20  1  0
 17 21  1  0
 21 22  2  0
  7  2  1  0
 22  8  1  0
 21 11  1  0
  1 23  1  0
  1 24  1  0
  1 25  1  0
  2 26  1  6
  3 27  1  0
  3 28  1  0
  5 29  1  0
  5 30  1  0
  6 31  1  0
  6 32  1  0
  9 33  1  0
 10 34  1  0
 12 35  1  0
 15 36  1  0
 22 37  1  0
M  CHG  2  15  -1  20  -1
M  END
>  <UniqueID>  (34) 
34

>  <SMILES>  (34) 
C[C@@H]1COCCN1c1ccc2cc(C([NH-])=O)n(C(=O)[O-])c2c1

>  <Energy>  (34) 
84.02827415409595

>  <Genealogy>  (34) 
CC1COCCN1c1ccc2cc(C([NH-])=O)n(C(=O)[O-])c2c1 (protonated)
C[C@@H]1COCCN1c1ccc2cc(C([NH-])=O)n(C(=O)[O-])c2c1 (chirality)
C[C@@H]1COCCN1c1ccc2cc(C([NH-])=O)n(C(=O)[O-])c2c1 (3D coordinates assigned)
C[C@@H]1COCCN1c1ccc2cc(C([NH-])=O)n(C(=O)[O-])c2c1 (nonaromatic ring conformer: 84.02827415409595 kcal/mol)

>  <smiles>  (34) 
CC1COCCN1c1ccc2cc(C(N)=O)n(C(=O)O)c2c1

>  <score_type>  (34) 
oracle

>  <origin>  (34) 
adg

>  <m_score__min__energy>  (34) 
-6.8499999999999996

>  <m_primary>  (34) 
energy

$$$$
34:0
     RDKit          3D

 43 44  0  0  0  0  0  0  0  0999 V2000
  137.4730  159.3900  131.1250 C   0  0  0  0  0  0  0  0  0  0  0  0
  138.8190  159.9510  130.6830 C   0  0  0  0  0  0  0  0  0  0  0  0
  139.8310  159.8020  131.7740 C   0  0  0  0  0  0  0  0  0  0  0  0
  140.0220  160.7480  132.5860 O   0  0  0  0  0  0  0  0  0  0  0  0
  140.5880  158.6290  131.8510 O   0  0  0  0  0  0  0  0  0  0  0  0
  141.1130  158.1130  133.0730 C   0  0  2  0  0  0  0  0  0  0  0  0
  142.4710  157.7280  132.8790 O   0  0  0  0  0  0  0  0  0  0  0  0
  143.4250  157.7600  133.9010 C   0  0  0  0  0  0  0  0  0  0  0  0
  143.2080  157.1700  134.9950 O   0  0  0  0  0  0  0  0  0  0  0  0
  144.6650  158.4540  133.6940 N   0  0  0  0  0  0  0  0  0  0  0  0
  144.8510  159.7950  133.5390 C   0  0  0  0  0  0  0  0  0  0  0  0
  143.8230  160.8410  133.7260 C   0  0  0  0  0  0  0  0  0  0  0  0
  142.4390  160.5460  133.5590 N   0  0  0  0  0  0  0  0  0  0  0  0
  144.1690  161.9970  134.0880 O   0  0  0  0  0  0  0  0  0  0  0  0
  146.1850  160.0740  133.2500 C   0  0  0  0  0  0  0  0  0  0  0  0
  146.8190  158.8530  133.2430 C   0  0  0  0  0  0  0  0  0  0  0  0
  148.1500  158.5380  132.9890 C   0  0  0  0  0  0  0  0  0  0  0  0
  148.5230  157.1840  133.0110 C   0  0  0  0  0  0  0  0  0  0  0  0
  147.5690  156.1730  133.2940 C   0  0  0  0  0  0  0  0  0  0  0  0
  147.9680  154.7200  133.2530 C   0  0  0  0  0  0  0  0  0  0  0  0
  149.1650  154.5610  132.5760 F   0  0  0  0  0  0  0  0  0  0  0  0
  148.1140  154.2510  134.5450 F   0  0  0  0  0  0  0  0  0  0  0  0
  147.0030  153.9670  132.6060 F   0  0  0  0  0  0  0  0  0  0  0  0
  146.2200  156.5330  133.5230 C   0  0  0  0  0  0  0  0  0  0  0  0
  145.8810  157.8910  133.5140 C   0  0  0  0  0  0  0  0  0  0  0  0
  140.3270  156.9130  133.5010 C   0  0  0  0  0  0  0  0  0  0  0  0
  140.0900  155.9920  132.6720 O   0  0  0  0  0  0  0  0  0  0  0  0
  139.8630  156.8260  134.8170 O   0  0  0  0  0  0  0  0  0  0  0  0
  139.8570  157.9400  135.7000 C   0  0  0  0  0  0  0  0  0  0  0  0
  137.4268  159.3707  132.2239 H   0  0  0  0  0  0  0  0  0  0  0  0
  136.6647  160.0262  130.7351 H   0  0  0  0  0  0  0  0  0  0  0  0
  137.3558  158.3681  130.7351 H   0  0  0  0  0  0  0  0  0  0  0  0
  139.1638  159.4056  129.7921 H   0  0  0  0  0  0  0  0  0  0  0  0
  138.7006  161.0196  130.4504 H   0  0  0  0  0  0  0  0  0  0  0  0
  141.0472  158.8912  133.8476 H   0  0  0  0  0  0  0  0  0  0  0  0
  142.1080  159.9430  132.7730 H   0  0  0  0  0  0  0  0  0  0  0  0
  146.6355  161.0606  133.0665 H   0  0  0  0  0  0  0  0  0  0  0  0
  148.8881  159.3256  132.7773 H   0  0  0  0  0  0  0  0  0  0  0  0
  149.5670  156.9044  132.8064 H   0  0  0  0  0  0  0  0  0  0  0  0
  145.4552  155.7634  133.7039 H   0  0  0  0  0  0  0  0  0  0  0  0
  139.8589  157.5831  136.7405 H   0  0  0  0  0  0  0  0  0  0  0  0
  140.7518  158.5543  135.5214 H   0  0  0  0  0  0  0  0  0  0  0  0
  138.9556  158.5446  135.5214 H   0  0  0  0  0  0  0  0  0  0  0  0
  1  2  1  0
  2  3  1  0
  3  4  2  0
  3  5  1  0
  5  6  1  0
  6  7  1  0
  7  8  1  0
  8  9  2  0
  8 10  1  0
 10 11  1  0
 11 12  1  0
 12 13  1  0
 12 14  2  0
 11 15  2  0
 15 16  1  0
 16 17  2  0
 17 18  1  0
 18 19  2  0
 19 20  1  0
 20 21  1  0
 20 22  1  0
 20 23  1  0
 19 24  1  0
 24 25  2  0
  6 26  1  0
 26 27  2  0
 26 28  1  0
 28 29  1  0
 25 10  1  0
 25 16  1  0
  1 30  1  0
  1 31  1  0
  1 32  1  0
  2 33  1  0
  2 34  1  0
  6 35  1  1
 13 36  1  0
 15 37  1  0
 17 38  1  0
 18 39  1  0
 24 40  1  0
 29 41  1  0
 29 42  1  0
 29 43  1  0
M  CHG  1  13  -1
M  END
>  <UniqueID>  (35) 
35

>  <SMILES>  (35) 
CCC(=O)O[C@H](OC(=O)n1c(C([NH-])=O)cc2ccc(C(F)(F)F)cc21)C(=O)OC

>  <Energy>  (35) 
72.0526761732696

>  <Genealogy>  (35) 
CCC(=O)OC(OC(=O)n1c(C([NH-])=O)cc2ccc(C(F)(F)F)cc21)C(=O)OC (protonated)
CCC(=O)O[C@H](OC(=O)n1c(C([NH-])=O)cc2ccc(C(F)(F)F)cc21)C(=O)OC (chirality)
CCC(=O)O[C@H](OC(=O)n1c(C([NH-])=O)cc2ccc(C(F)(F)F)cc21)C(=O)OC (3D coordinates assigned)
CCC(=O)O[C@H](OC(=O)n1c(C([NH-])=O)cc2ccc(C(F)(F)F)cc21)C(=O)OC (optimized conformer: 72.0526761732696 kcal/mol)

>  <smiles>  (35) 
CCC(=O)OC(OC(=O)n1c(C(N)=O)cc2ccc(C(F)(F)F)cc21)C(=O)OC

>  <score_type>  (35) 
oracle

>  <origin>  (35) 
adg

>  <m_score__min__energy>  (35) 
-6.3600000000000003

>  <m_primary>  (35) 
energy

$$$$
35:0
     RDKit          3D

 43 44  0  0  0  0  0  0  0  0999 V2000
  148.4660  154.7830  132.6000 C   0  0  0  0  0  0  0  0  0  0  0  0
  148.0560  156.2200  132.7210 C   0  0  0  0  0  0  0  0  0  0  0  0
  149.0270  157.2460  132.6120 C   0  0  0  0  0  0  0  0  0  0  0  0
  148.6600  158.5950  132.7490 C   0  0  0  0  0  0  0  0  0  0  0  0
  147.3250  158.8840  133.0140 C   0  0  0  0  0  0  0  0  0  0  0  0
  146.6960  160.0980  133.1700 C   0  0  0  0  0  0  0  0  0  0  0  0
  145.3580  159.7920  133.4110 C   0  0  0  0  0  0  0  0  0  0  0  0
  144.3360  160.8090  133.7300 C   0  0  0  0  0  0  0  0  0  0  0  0
  142.9710  160.6070  133.3730 N   0  0  0  0  0  0  0  0  0  0  0  0
  144.6610  161.8420  134.3740 O   0  0  0  0  0  0  0  0  0  0  0  0
  145.1650  158.4430  133.3980 N   0  0  0  0  0  0  0  0  0  0  0  0
  143.9200  157.7360  133.4960 C   0  0  0  0  0  0  0  0  0  0  0  0
  143.0410  157.8840  132.6030 O   0  0  0  0  0  0  0  0  0  0  0  0
  143.6730  156.9130  134.5990 O   0  0  0  0  0  0  0  0  0  0  0  0
  142.9920  155.6670  134.4900 C   0  0  0  0  0  0  0  0  0  0  0  0
  141.7050  155.7690  135.0880 O   0  0  0  0  0  0  0  0  0  0  0  0
  140.6430  156.4740  134.5070 C   0  0  0  0  0  0  0  0  0  0  0  0
  140.0040  155.9700  133.5420 O   0  0  0  0  0  0  0  0  0  0  0  0
  140.2850  157.7750  135.0070 N   0  0  0  0  0  0  0  0  0  0  0  0
  139.7160  157.9020  136.3510 C   0  0  0  0  0  0  0  0  0  0  0  0
  140.4910  158.9670  134.1750 C   0  0  0  0  0  0  0  0  0  0  0  0
  140.0130  158.7080  132.7440 C   0  0  0  0  0  0  0  0  0  0  0  0
  140.7610  159.4720  131.8370 O   0  0  0  0  0  0  0  0  0  0  0  0
  146.3790  157.9010  133.1550 C   0  0  0  0  0  0  0  0  0  0  0  0
  146.7130  156.5500  133.0060 C   0  0  0  0  0  0  0  0  0  0  0  0
  148.5892  154.3511  133.6041 H   0  0  0  0  0  0  0  0  0  0  0  0
  147.6911  154.2254  132.0536 H   0  0  0  0  0  0  0  0  0  0  0  0
  149.4185  154.7182  132.0536 H   0  0  0  0  0  0  0  0  0  0  0  0
  150.0776  156.9839  132.4184 H   0  0  0  0  0  0  0  0  0  0  0  0
  149.4051  159.3981  132.6498 H   0  0  0  0  0  0  0  0  0  0  0  0
  147.1523  161.0974  133.1159 H   0  0  0  0  0  0  0  0  0  0  0  0
  142.7150  160.0230  132.5460 H   0  0  0  0  0  0  0  0  0  0  0  0
  142.8816  155.4025  133.4280 H   0  0  0  0  0  0  0  0  0  0  0  0
  143.5726  154.8886  135.0066 H   0  0  0  0  0  0  0  0  0  0  0  0
  140.5022  157.7265  137.1001 H   0  0  0  0  0  0  0  0  0  0  0  0
  139.3049  158.9140  136.4810 H   0  0  0  0  0  0  0  0  0  0  0  0
  138.9136  157.1608  136.4810 H   0  0  0  0  0  0  0  0  0  0  0  0
  139.9236  159.8081  134.6000 H   0  0  0  0  0  0  0  0  0  0  0  0
  141.5643  159.2069  134.1548 H   0  0  0  0  0  0  0  0  0  0  0  0
  140.1358  157.6407  132.5077 H   0  0  0  0  0  0  0  0  0  0  0  0
  138.9533  158.9915  132.6631 H   0  0  0  0  0  0  0  0  0  0  0  0
  141.7130  159.3720  132.0980 H   0  0  0  0  0  0  0  0  0  0  0  0
  145.9488  155.7654  133.1083 H   0  0  0  0  0  0  0  0  0  0  0  0
  1  2  1  0
  2  3  2  0
  3  4  1  0
  4  5  2  0
  5  6  1  0
  6  7  2  0
  7  8  1  0
  8  9  1  0
  8 10  2  0
  7 11  1  0
 11 12  1  0
 12 13  2  0
 12 14  1  0
 14 15  1  0
 15 16  1  0
 16 17  1  0
 17 18  2  0
 17 19  1  0
 19 20  1  0
 19 21  1  0
 21 22  1  0
 22 23  1  0
 11 24  1  0
 24 25  2  0
 25  2  1  0
 24  5  1  0
  1 26  1  0
  1 27  1  0
  1 28  1  0
  3 29  1  0
  4 30  1  0
  6 31  1  0
  9 32  1  0
 15 33  1  0
 15 34  1  0
 20 35  1  0
 20 36  1  0
 20 37  1  0
 21 38  1  0
 21 39  1  0
 22 40  1  0
 22 41  1  0
 23 42  1  0
 25 43  1  0
M  CHG  1   9  -1
M  END
>  <UniqueID>  (36) 
36

>  <SMILES>  (36) 
Cc1ccc2cc(C([NH-])=O)n(C(=O)OCOC(=O)N(C)CCO)c2c1

>  <Energy>  (36) 
72.50208997723763

>  <Genealogy>  (36) 
Cc1ccc2cc(C([NH-])=O)n(C(=O)OCOC(=O)N(C)CCO)c2c1 (protonated)
Cc1ccc2cc(C([NH-])=O)n(C(=O)OCOC(=O)N(C)CCO)c2c1 (3D coordinates assigned)
Cc1ccc2cc(C([NH-])=O)n(C(=O)OCOC(=O)N(C)CCO)c2c1 (optimized conformer: 72.50208997723763 kcal/mol)

>  <smiles>  (36) 
Cc1ccc2cc(C(N)=O)n(C(=O)OCOC(=O)N(C)CCO)c2c1

>  <score_type>  (36) 
oracle

>  <origin>  (36) 
adg

>  <m_score__min__energy>  (36) 
-5.6900000000000004

>  <m_primary>  (36) 
energy

$$$$
36:0
     RDKit          3D

 34 35  0  0  0  0  0  0  0  0999 V2000
  140.0750  154.5800  132.9890 C   0  0  0  0  0  0  0  0  0  0  0  0
  141.5040  154.9620  133.3570 C   0  0  0  0  0  0  0  0  0  0  0  0
  141.6160  156.4460  133.5850 C   0  0  0  0  0  0  0  0  0  0  0  0
  140.4690  157.1980  133.9410 C   0  0  0  0  0  0  0  0  0  0  0  0
  140.5560  158.5860  134.1380 C   0  0  0  0  0  0  0  0  0  0  0  0
  141.7940  159.1940  133.9540 C   0  0  0  0  0  0  0  0  0  0  0  0
  142.1630  160.5110  134.1010 C   0  0  0  0  0  0  0  0  0  0  0  0
  143.5220  160.5510  133.7970 C   0  0  0  0  0  0  0  0  0  0  0  0
  144.3070  161.8020  133.7480 C   0  0  0  0  0  0  0  0  0  0  0  0
  145.6920  161.8110  134.0820 N   0  0  0  0  0  0  0  0  0  0  0  0
  143.7600  162.8670  133.3570 O   0  0  0  0  0  0  0  0  0  0  0  0
  143.9780  159.3060  133.4810 N   0  0  0  0  0  0  0  0  0  0  0  0
  145.3320  158.9130  133.2060 C   0  0  0  0  0  0  0  0  0  0  0  0
  145.8120  157.8900  133.7670 O   0  0  0  0  0  0  0  0  0  0  0  0
  146.1110  159.6860  132.3350 O   0  0  0  0  0  0  0  0  0  0  0  0
  147.5120  159.7490  132.3440 C   0  0  0  0  0  0  0  0  0  0  0  0
  148.1130  160.8370  132.5600 O   0  0  0  0  0  0  0  0  0  0  0  0
  148.2830  158.5220  132.1030 C   0  0  0  0  0  0  0  0  0  0  0  0
  147.6270  157.2770  131.8520 N   0  0  0  0  0  0  0  0  0  0  0  0
  149.5420  158.5670  132.1160 O   0  0  0  0  0  0  0  0  0  0  0  0
  142.9080  158.4860  133.5810 C   0  0  0  0  0  0  0  0  0  0  0  0
  142.8540  157.0990  133.3970 C   0  0  0  0  0  0  0  0  0  0  0  0
  139.4894  154.4234  133.9069 H   0  0  0  0  0  0  0  0  0  0  0  0
  139.6202  155.3881  132.3973 H   0  0  0  0  0  0  0  0  0  0  0  0
  140.0841  153.6528  132.3973 H   0  0  0  0  0  0  0  0  0  0  0  0
  141.7940  154.4325  134.2765 H   0  0  0  0  0  0  0  0  0  0  0  0
  142.1701  154.6802  132.5282 H   0  0  0  0  0  0  0  0  0  0  0  0
  139.5012  156.6899  134.0642 H   0  0  0  0  0  0  0  0  0  0  0  0
  139.6730  159.1740  134.4287 H   0  0  0  0  0  0  0  0  0  0  0  0
  141.5210  161.3541  134.3961 H   0  0  0  0  0  0  0  0  0  0  0  0
  146.4190  161.5840  133.3680 H   0  0  0  0  0  0  0  0  0  0  0  0
  148.1890  156.4130  131.6810 H   0  0  0  0  0  0  0  0  0  0  0  0
  146.5860  157.2080  131.8330 H   0  0  0  0  0  0  0  0  0  0  0  0
  143.7531  156.5323  133.1132 H   0  0  0  0  0  0  0  0  0  0  0  0
  1  2  1  0
  2  3  1  0
  3  4  2  0
  4  5  1  0
  5  6  2  0
  6  7  1  0
  7  8  2  0
  8  9  1  0
  9 10  1  0
  9 11  2  0
  8 12  1  0
 12 13  1  0
 13 14  2  0
 13 15  1  0
 15 16  1  0
 16 17  2  0
 16 18  1  0
 18 19  1  0
 18 20  2  0
 12 21  1  0
 21 22  2  0
 22  3  1  0
 21  6  1  0
  1 23  1  0
  1 24  1  0
  1 25  1  0
  2 26  1  0
  2 27  1  0
  4 28  1  0
  5 29  1  0
  7 30  1  0
 10 31  1  0
 19 32  1  0
 19 33  1  0
 22 34  1  0
M  CHG  1  10  -1
M  END
>  <UniqueID>  (37) 
37

>  <SMILES>  (37) 
CCc1ccc2cc(C([NH-])=O)n(C(=O)OC(=O)C(N)=O)c2c1

>  <Energy>  (37) 
68.68223087267165

>  <Genealogy>  (37) 
CCc1ccc2cc(C([NH-])=O)n(C(=O)OC(=O)C(N)=O)c2c1 (protonated)
CCc1ccc2cc(C([NH-])=O)n(C(=O)OC(=O)C(N)=O)c2c1 (3D coordinates assigned)
CCc1ccc2cc(C([NH-])=O)n(C(=O)OC(=O)C(N)=O)c2c1 (optimized conformer: 68.68223087267165 kcal/mol)

>  <smiles>  (37) 
CCc1ccc2cc(C(N)=O)n(C(=O)OC(=O)C(N)=O)c2c1

>  <score_type>  (37) 
oracle

>  <origin>  (37) 
adg

>  <m_score__min__energy>  (37) 
-7.25

>  <m_primary>  (37) 
energy

$$$$
37:0
     RDKit          3D

 53 55  0  0  0  0  0  0  0  0999 V2000
  143.4970  151.0610  132.9790 C   0  0  0  0  0  0  0  0  0  0  0  0
  142.0420  150.9190  132.6720 C   0  0  0  0  0  0  0  0  0  0  0  0
  141.4710  149.7350  132.3740 N   0  0  0  0  0  0  0  0  0  0  0  0
  140.1940  149.9600  132.1170 N   0  0  0  0  0  0  0  0  0  0  0  0
  139.2310  148.9170  131.7960 C   0  0  0  0  0  0  0  0  0  0  0  0
  139.9140  151.2670  132.2600 C   0  0  0  0  0  0  0  0  0  0  0  0
  141.0770  151.9220  132.6280 C   0  0  0  0  0  0  0  0  0  0  0  0
  141.2170  153.3760  132.8890 C   0  0  0  0  0  0  0  0  0  0  0  0
  140.0760  154.2190  132.9740 C   0  0  0  0  0  0  0  0  0  0  0  0
  140.2140  155.5970  133.2200 C   0  0  0  0  0  0  0  0  0  0  0  0
  141.4990  156.1070  133.3610 C   0  0  0  0  0  0  0  0  0  0  0  0
  141.9210  157.3990  133.5890 C   0  0  0  0  0  0  0  0  0  0  0  0
  143.3140  157.3320  133.6240 C   0  0  0  0  0  0  0  0  0  0  0  0
  144.1990  158.4810  133.9300 C   0  0  0  0  0  0  0  0  0  0  0  0
  145.5900  158.4470  133.5980 N   0  0  0  0  0  0  0  0  0  0  0  0
  143.7250  159.5150  134.4690 O   0  0  0  0  0  0  0  0  0  0  0  0
  143.7310  156.0500  133.4190 N   0  0  0  0  0  0  0  0  0  0  0  0
  145.0820  155.5720  133.3250 C   0  0  0  0  0  0  0  0  0  0  0  0
  145.7040  155.7090  132.2400 O   0  0  0  0  0  0  0  0  0  0  0  0
  145.7310  154.9670  134.4650 N   0  0  0  0  0  0  0  0  0  0  0  0
  145.1490  153.7730  135.0830 C   0  0  0  0  0  0  0  0  0  0  0  0
  146.9850  155.4690  134.9680 C   0  0  0  0  0  0  0  0  0  0  0  0
  147.5800  154.8780  135.9120 O   0  0  0  0  0  0  0  0  0  0  0  0
  147.5370  156.6350  134.4180 O   0  0  0  0  0  0  0  0  0  0  0  0
  148.4750  156.6290  133.3400 C   0  0  1  0  0  0  0  0  0  0  0  0
  148.6900  155.1940  132.8640 C   0  0  0  0  0  0  0  0  0  0  0  0
  147.9550  157.3820  132.2640 O   0  0  0  0  0  0  0  0  0  0  0  0
  148.2560  159.0390  132.5420 P   0  0  0  0  0  0  0  0  0  0  0  0
  148.3620  159.2970  134.0280 O   0  0  0  0  0  0  0  0  0  0  0  0
  147.0160  159.9890  131.8920 O   0  0  0  0  0  0  0  0  0  0  0  0
  149.7180  159.4640  131.8050 O   0  0  0  0  0  0  0  0  0  0  0  0
  142.6110  155.3120  133.2690 C   0  0  0  0  0  0  0  0  0  0  0  0
  142.5060  153.9410  133.0220 C   0  0  0  0  0  0  0  0  0  0  0  0
  143.6420  151.0752  134.0693 H   0  0  0  0  0  0  0  0  0  0  0  0
  144.0474  150.2123  132.5469 H   0  0  0  0  0  0  0  0  0  0  0  0
  143.8730  152.0001  132.5469 H   0  0  0  0  0  0  0  0  0  0  0  0
  138.8332  148.4862  132.7267 H   0  0  0  0  0  0  0  0  0  0  0  0
  138.4061  149.3475  131.2094 H   0  0  0  0  0  0  0  0  0  0  0  0
  139.7259  148.1290  131.2094 H   0  0  0  0  0  0  0  0  0  0  0  0
  138.9301  151.7355  132.1104 H   0  0  0  0  0  0  0  0  0  0  0  0
  139.0720  153.7883  132.8457 H   0  0  0  0  0  0  0  0  0  0  0  0
  139.3326  156.2504  133.2983 H   0  0  0  0  0  0  0  0  0  0  0  0
  141.2929  158.2930  133.7163 H   0  0  0  0  0  0  0  0  0  0  0  0
  146.1930  159.2840  133.7690 H   0  0  0  0  0  0  0  0  0  0  0  0
  146.0320  157.5990  133.1830 H   0  0  0  0  0  0  0  0  0  0  0  0
  145.1950  153.8674  136.1780 H   0  0  0  0  0  0  0  0  0  0  0  0
  144.1002  153.6711  134.7675 H   0  0  0  0  0  0  0  0  0  0  0  0
  145.7148  152.8840  134.7675 H   0  0  0  0  0  0  0  0  0  0  0  0
  149.4261  157.0620  133.6834 H   0  0  0  0  0  0  0  0  0  0  0  0
  148.7895  154.5298  133.7351 H   0  0  0  0  0  0  0  0  0  0  0  0
  147.8294  154.8762  132.2570 H   0  0  0  0  0  0  0  0  0  0  0  0
  149.6059  155.1424  132.2570 H   0  0  0  0  0  0  0  0  0  0  0  0
  143.4062  153.3151  132.9330 H   0  0  0  0  0  0  0  0  0  0  0  0
  1  2  1  0
  2  3  2  0
  3  4  1  0
  4  5  1  0
  4  6  1  0
  6  7  2  0
  7  8  1  0
  8  9  2  0
  9 10  1  0
 10 11  2  0
 11 12  1  0
 12 13  2  0
 13 14  1  0
 14 15  1  0
 14 16  2  0
 13 17  1  0
 17 18  1  0
 18 19  2  0
 18 20  1  0
 20 21  1  0
 20 22  1  0
 22 23  2  0
 22 24  1  0
 24 25  1  0
 25 26  1  0
 25 27  1  0
 27 28  1  0
 28 29  2  0
 28 30  1  0
 28 31  1  0
 17 32  1  0
 32 33  2  0
  7  2  1  0
 33  8  1  0
 32 11  1  0
  1 34  1  0
  1 35  1  0
  1 36  1  0
  5 37  1  0
  5 38  1  0
  5 39  1  0
  6 40  1  0
  9 41  1  0
 10 42  1  0
 12 43  1  0
 15 44  1  0
 15 45  1  0
 21 46  1  0
 21 47  1  0
 21 48  1  0
 25 49  1  1
 26 50  1  0
 26 51  1  0
 26 52  1  0
 33 53  1  0
M  CHG  2  30  -1  31  -1
M  END
>  <UniqueID>  (38) 
38

>  <SMILES>  (38) 
Cc1nn(C)cc1-c1ccc2cc(C(N)=O)n(C(=O)N(C)C(=O)O[C@@H](C)OP(=O)([O-])[O-])c2c1

>  <Energy>  (38) 
123.43305424838161

>  <Genealogy>  (38) 
Cc1nn(C)cc1-c1ccc2cc(C(N)=O)n(C(=O)N(C)C(=O)OC(C)OP(=O)([O-])[O-])c2c1 (protonated)
Cc1nn(C)cc1-c1ccc2cc(C(N)=O)n(C(=O)N(C)C(=O)O[C@@H](C)OP(=O)([O-])[O-])c2c1 (chirality)
Cc1nn(C)cc1-c1ccc2cc(C(N)=O)n(C(=O)N(C)C(=O)O[C@@H](C)OP(=O)([O-])[O-])c2c1 (3D coordinates assigned)
Cc1nn(C)cc1-c1ccc2cc(C(N)=O)n(C(=O)N(C)C(=O)O[C@@H](C)OP(=O)([O-])[O-])c2c1 (optimized conformer: 123.43305424838161 kcal/mol)

>  <smiles>  (38) 
Cc1nn(C)cc1-c1ccc2cc(C(N)=O)n(C(=O)N(C)C(=O)OC(C)OP(=O)(O)O)c2c1

>  <score_type>  (38) 
oracle

>  <origin>  (38) 
adg

>  <m_score__min__energy>  (38) 
-9.3900000000000006

>  <m_primary>  (38) 
energy

$$$$
38:0
     RDKit          3D

 41 43  0  0  0  0  0  0  0  0999 V2000
  149.1540  161.2150  130.7620 C   0  0  0  0  0  0  0  0  0  0  0  0
  148.4220  159.9220  131.0350 C   0  0  0  0  0  0  0  0  0  0  0  0
  147.9160  159.8530  132.3410 O   0  0  0  0  0  0  0  0  0  0  0  0
  148.4390  158.9270  133.2410 C   0  0  0  0  0  0  0  0  0  0  0  0
  148.5800  159.2440  134.4610 O   0  0  0  0  0  0  0  0  0  0  0  0
  148.8530  157.5640  132.8570 C   0  0  0  0  0  0  0  0  0  0  0  0
  148.0930  156.6100  133.5470 O   0  0  0  0  0  0  0  0  0  0  0  0
  147.3000  155.6720  132.9150 C   0  0  0  0  0  0  0  0  0  0  0  0
  147.9460  154.8090  132.2260 O   0  0  0  0  0  0  0  0  0  0  0  0
  145.8940  155.6050  132.9760 N   0  0  0  0  0  0  0  0  0  0  0  0
  145.1240  154.5190  132.8530 C   0  0  0  0  0  0  0  0  0  0  0  0
  145.4570  153.1300  132.6290 C   0  0  0  0  0  0  0  0  0  0  0  0
  146.8430  152.7210  132.6300 N   0  0  0  0  0  0  0  0  0  0  0  0
  144.6420  152.2010  132.4250 O   0  0  0  0  0  0  0  0  0  0  0  0
  143.7960  154.9470  132.9840 C   0  0  0  0  0  0  0  0  0  0  0  0
  143.7810  156.3070  133.1870 C   0  0  0  0  0  0  0  0  0  0  0  0
  142.7340  157.1900  133.3710 C   0  0  0  0  0  0  0  0  0  0  0  0
  142.9990  158.5300  133.5570 C   0  0  0  0  0  0  0  0  0  0  0  0
  144.3080  158.9580  133.5550 C   0  0  0  0  0  0  0  0  0  0  0  0
  144.5870  160.3760  133.7520 C   0  0  0  0  0  0  0  0  0  0  0  0
  143.7290  161.4110  133.7320 N   0  0  0  0  0  0  0  0  0  0  0  0
  144.3900  162.5080  133.9540 O   0  0  0  0  0  0  0  0  0  0  0  0
  145.6760  162.2050  134.1200 C   0  0  0  0  0  0  0  0  0  0  0  0
  146.6000  163.0420  134.3530 O   0  0  0  0  0  0  0  0  0  0  0  0
  145.8210  160.8550  133.9950 N   0  0  0  0  0  0  0  0  0  0  0  0
  145.3480  158.0440  133.3660 C   0  0  0  0  0  0  0  0  0  0  0  0
  145.1040  156.6930  133.1780 C   0  0  0  0  0  0  0  0  0  0  0  0
  149.4240  161.6919  131.7157 H   0  0  0  0  0  0  0  0  0  0  0  0
  150.0671  161.0048  130.1857 H   0  0  0  0  0  0  0  0  0  0  0  0
  148.5039  161.8898  130.1857 H   0  0  0  0  0  0  0  0  0  0  0  0
  147.5840  159.8357  130.3277 H   0  0  0  0  0  0  0  0  0  0  0  0
  149.1425  159.0997  130.9135 H   0  0  0  0  0  0  0  0  0  0  0  0
  148.7052  157.4316  131.7750 H   0  0  0  0  0  0  0  0  0  0  0  0
  149.9141  157.4280  133.1130 H   0  0  0  0  0  0  0  0  0  0  0  0
  147.2340  152.1460  133.4080 H   0  0  0  0  0  0  0  0  0  0  0  0
  147.4960  152.9810  131.8630 H   0  0  0  0  0  0  0  0  0  0  0  0
  142.9084  154.2993  132.9327 H   0  0  0  0  0  0  0  0  0  0  0  0
  141.6960  156.8260  133.3691 H   0  0  0  0  0  0  0  0  0  0  0  0
  142.1775  159.2464  133.7048 H   0  0  0  0  0  0  0  0  0  0  0  0
  146.7270  160.3310  134.0780 H   0  0  0  0  0  0  0  0  0  0  0  0
  146.3867  158.4062  133.3665 H   0  0  0  0  0  0  0  0  0  0  0  0
  1  2  1  0
  2  3  1  0
  3  4  1  0
  4  5  2  0
  4  6  1  0
  6  7  1  0
  7  8  1  0
  8  9  2  0
  8 10  1  0
 10 11  1  0
 11 12  1  0
 12 13  1  0
 12 14  2  0
 11 15  2  0
 15 16  1  0
 16 17  2  0
 17 18  1  0
 18 19  2  0
 19 20  1  0
 20 21  2  0
 21 22  1  0
 22 23  1  0
 23 24  2  0
 23 25  1  0
 19 26  1  0
 26 27  2  0
 27 10  1  0
 27 16  1  0
 25 20  1  0
  1 28  1  0
  1 29  1  0
  1 30  1  0
  2 31  1  0
  2 32  1  0
  6 33  1  0
  6 34  1  0
 13 35  1  0
 13 36  1  0
 15 37  1  0
 17 38  1  0
 18 39  1  0
 25 40  1  0
 26 41  1  0
M  END
>  <smiles>  (39) 
CCOC(=O)COC(=O)n1c(C(N)=O)cc2ccc(-c3noc(=O)[nH]3)cc21

>  <score_type>  (39) 
oracle

>  <origin>  (39) 
adg

>  <m_score__min__energy>  (39) 
-7.5700000000000003

>  <m_primary>  (39) 
energy

$$$$
39:0
     RDKit          3D

 43 44  0  0  0  0  0  0  0  0999 V2000
  149.1920  150.3660  132.4730 C   0  0  0  0  0  0  0  0  0  0  0  0
  148.7370  151.5780  133.1410 N   0  0  0  0  0  0  0  0  0  0  0  0
  148.9770  152.8780  132.5900 C   0  0  0  0  0  0  0  0  0  0  0  0
  149.6140  153.0050  131.5100 O   0  0  0  0  0  0  0  0  0  0  0  0
  148.5100  154.1010  133.3210 C   0  0  0  0  0  0  0  0  0  0  0  0
  147.7830  154.9960  132.4170 N   0  0  0  0  0  0  0  0  0  0  0  0
  147.6070  156.4020  132.6750 C   0  0  0  0  0  0  0  0  0  0  0  0
  148.7250  157.2670  132.5690 C   0  0  0  0  0  0  0  0  0  0  0  0
  148.5930  158.6480  132.7920 C   0  0  0  0  0  0  0  0  0  0  0  0
  147.3350  159.1370  133.1290 C   0  0  0  0  0  0  0  0  0  0  0  0
  146.9170  160.4280  133.3610 C   0  0  0  0  0  0  0  0  0  0  0  0
  145.5530  160.3330  133.6290 C   0  0  0  0  0  0  0  0  0  0  0  0
  144.7080  161.4870  133.9980 C   0  0  0  0  0  0  0  0  0  0  0  0
  143.2950  161.4220  133.8110 N   0  0  0  0  0  0  0  0  0  0  0  0
  145.2220  162.5440  134.4490 O   0  0  0  0  0  0  0  0  0  0  0  0
  145.1450  159.0340  133.5650 N   0  0  0  0  0  0  0  0  0  0  0  0
  143.8120  158.5240  133.7050 C   0  0  0  0  0  0  0  0  0  0  0  0
  143.2360  158.5670  134.8270 O   0  0  0  0  0  0  0  0  0  0  0  0
  143.1710  157.9430  132.6030 O   0  0  0  0  0  0  0  0  0  0  0  0
  141.7940  157.5780  132.6040 C   0  0  0  0  0  0  0  0  0  0  0  0
  140.9440  158.7260  133.0540 C   0  0  0  0  0  0  0  0  0  0  0  0
  141.1660  159.8810  132.6020 O   0  0  0  0  0  0  0  0  0  0  0  0
  139.8890  158.4990  133.9430 O   0  0  0  0  0  0  0  0  0  0  0  0
  140.0910  158.2920  135.3350 C   0  0  0  0  0  0  0  0  0  0  0  0
  146.2460  158.3150  133.2580 C   0  0  0  0  0  0  0  0  0  0  0  0
  146.3430  156.9400  133.0230 C   0  0  0  0  0  0  0  0  0  0  0  0
  149.4737  149.6157  133.2265 H   0  0  0  0  0  0  0  0  0  0  0  0
  148.3821  149.9679  131.8441 H   0  0  0  0  0  0  0  0  0  0  0  0
  150.0638  150.5992  131.8441 H   0  0  0  0  0  0  0  0  0  0  0  0
  148.2260  151.4920  134.0480 H   0  0  0  0  0  0  0  0  0  0  0  0
  147.8444  153.7987  134.1429 H   0  0  0  0  0  0  0  0  0  0  0  0
  149.3870  154.6335  133.7177 H   0  0  0  0  0  0  0  0  0  0  0  0
  147.3640  154.5990  131.5440 H   0  0  0  0  0  0  0  0  0  0  0  0
  149.7096  156.8513  132.3085 H   0  0  0  0  0  0  0  0  0  0  0  0
  149.4579  159.3218  132.7029 H   0  0  0  0  0  0  0  0  0  0  0  0
  147.5300  161.3411  133.3394 H   0  0  0  0  0  0  0  0  0  0  0  0
  142.7840  160.5160  133.8950 H   0  0  0  0  0  0  0  0  0  0  0  0
  141.4969  157.2856  131.5860 H   0  0  0  0  0  0  0  0  0  0  0  0
  141.6508  156.7374  133.2988 H   0  0  0  0  0  0  0  0  0  0  0  0
  139.4339  158.9653  135.9050 H   0  0  0  0  0  0  0  0  0  0  0  0
  139.8549  157.2480  135.5885 H   0  0  0  0  0  0  0  0  0  0  0  0
  141.1405  158.5026  135.5885 H   0  0  0  0  0  0  0  0  0  0  0  0
  145.4587  156.2910  133.1063 H   0  0  0  0  0  0  0  0  0  0  0  0
  1  2  1  0
  2  3  1  0
  3  4  2  0
  3  5  1  0
  5  6  1  0
  6  7  1  0
  7  8  2  0
  8  9  1  0
  9 10  2  0
 10 11  1  0
 11 12  2  0
 12 13  1  0
 13 14  1  0
 13 15  2  0
 12 16  1  0
 16 17  1  0
 17 18  2  0
 17 19  1  0
 19 20  1  0
 20 21  1  0
 21 22  2  0
 21 23  1  0
 23 24  1  0
 16 25  1  0
 25 26  2  0
 26  7  1  0
 25 10  1  0
  1 27  1  0
  1 28  1  0
  1 29  1  0
  2 30  1  0
  5 31  1  0
  5 32  1  0
  6 33  1  0
  8 34  1  0
  9 35  1  0
 11 36  1  0
 14 37  1  0
 20 38  1  0
 20 39  1  0
 24 40  1  0
 24 41  1  0
 24 42  1  0
 26 43  1  0
M  CHG  1  14  -1
M  END
>  <UniqueID>  (40) 
39

>  <SMILES>  (40) 
CNC(=O)CNc1ccc2cc(C([NH-])=O)n(C(=O)OCC(=O)OC)c2c1

>  <Energy>  (40) 
72.11774010152476

>  <Genealogy>  (40) 
CNC(=O)CNc1ccc2cc(C([NH-])=O)n(C(=O)OCC(=O)OC)c2c1 (protonated)
CNC(=O)CNc1ccc2cc(C([NH-])=O)n(C(=O)OCC(=O)OC)c2c1 (3D coordinates assigned)
CNC(=O)CNc1ccc2cc(C([NH-])=O)n(C(=O)OCC(=O)OC)c2c1 (optimized conformer: 72.11774010152476 kcal/mol)

>  <smiles>  (40) 
CNC(=O)CNc1ccc2cc(C(N)=O)n(C(=O)OCC(=O)OC)c2c1

>  <score_type>  (40) 
oracle

>  <origin>  (40) 
adg

>  <m_score__min__energy>  (40) 
-6.9500000000000002

>  <m_primary>  (40) 
energy

$$$$
40:0
     RDKit          3D

 36 37  0  0  0  0  0  0  0  0999 V2000
  143.0230  160.4610  133.3610 N   0  0  0  0  0  0  0  0  0  0  0  0
  144.3790  160.6980  133.7310 C   0  0  0  0  0  0  0  0  0  0  0  0
  144.6670  161.7450  134.3690 O   0  0  0  0  0  0  0  0  0  0  0  0
  145.4480  159.7240  133.4090 C   0  0  0  0  0  0  0  0  0  0  0  0
  146.7590  160.0980  133.1100 C   0  0  0  0  0  0  0  0  0  0  0  0
  147.4510  158.9170  132.9580 C   0  0  0  0  0  0  0  0  0  0  0  0
  148.7900  158.6930  132.6430 C   0  0  0  0  0  0  0  0  0  0  0  0
  149.2260  157.3610  132.5300 C   0  0  0  0  0  0  0  0  0  0  0  0
  148.3220  156.2910  132.7270 C   0  0  0  0  0  0  0  0  0  0  0  0
  148.7780  154.9330  132.6070 C   0  0  0  0  0  0  0  0  0  0  0  0
  149.1560  153.7930  132.5140 C   0  0  0  0  0  0  0  0  0  0  0  0
  149.6300  152.4090  132.3950 C   0  0  0  0  0  0  0  0  0  0  0  0
  148.5920  151.4130  132.9110 C   0  0  0  0  0  0  0  0  0  0  0  0
  147.2910  151.8570  132.6150 O   0  0  0  0  0  0  0  0  0  0  0  0
  146.9730  156.5510  133.0430 C   0  0  0  0  0  0  0  0  0  0  0  0
  146.5690  157.8870  133.1620 C   0  0  0  0  0  0  0  0  0  0  0  0
  145.3360  158.3640  133.4360 N   0  0  0  0  0  0  0  0  0  0  0  0
  144.1630  157.5700  133.6590 C   0  0  0  0  0  0  0  0  0  0  0  0
  143.1880  157.6630  132.8670 O   0  0  0  0  0  0  0  0  0  0  0  0
  144.1000  156.7150  134.7670 O   0  0  0  0  0  0  0  0  0  0  0  0
  143.9960  155.2960  134.6520 C   0  0  0  0  0  0  0  0  0  0  0  0
  145.3100  154.6530  134.9710 C   0  0  0  0  0  0  0  0  0  0  0  0
  146.1490  155.2490  135.7000 O   0  0  0  0  0  0  0  0  0  0  0  0
  145.5880  153.3730  134.5040 O   0  0  0  0  0  0  0  0  0  0  0  0
  142.7840  159.7750  132.6110 H   0  0  0  0  0  0  0  0  0  0  0  0
  147.1556  161.1197  133.0157 H   0  0  0  0  0  0  0  0  0  0  0  0
  149.4841  159.5321  132.4876 H   0  0  0  0  0  0  0  0  0  0  0  0
  150.2777  157.1495  132.2866 H   0  0  0  0  0  0  0  0  0  0  0  0
  149.8375  152.1924  131.3367 H   0  0  0  0  0  0  0  0  0  0  0  0
  150.5405  152.3034  133.0032 H   0  0  0  0  0  0  0  0  0  0  0  0
  148.7585  150.4366  132.4325 H   0  0  0  0  0  0  0  0  0  0  0  0
  148.6970  151.3243  134.0024 H   0  0  0  0  0  0  0  0  0  0  0  0
  146.8040  151.9120  133.4820 H   0  0  0  0  0  0  0  0  0  0  0  0
  146.2581  155.7283  133.1919 H   0  0  0  0  0  0  0  0  0  0  0  0
  143.2324  154.9297  135.3540 H   0  0  0  0  0  0  0  0  0  0  0  0
  143.7123  155.0396  133.6206 H   0  0  0  0  0  0  0  0  0  0  0  0
  1  2  1  0
  2  3  2  0
  2  4  1  0
  4  5  2  0
  5  6  1  0
  6  7  2  0
  7  8  1  0
  8  9  2  0
  9 10  1  0
 10 11  3  0
 11 12  1  0
 12 13  1  0
 13 14  1  0
  9 15  1  0
 15 16  2  0
 16 17  1  0
 17 18  1  0
 18 19  2  0
 18 20  1  0
 20 21  1  0
 21 22  1  0
 22 23  2  0
 22 24  1  0
 17  4  1  0
 16  6  1  0
  1 25  1  0
  5 26  1  0
  7 27  1  0
  8 28  1  0
 12 29  1  0
 12 30  1  0
 13 31  1  0
 13 32  1  0
 14 33  1  0
 15 34  1  0
 21 35  1  0
 21 36  1  0
M  CHG  2   1  -1  24  -1
M  END
>  <UniqueID>  (41) 
40

>  <SMILES>  (41) 
[NH-]C(=O)c1cc2ccc(C#CCCO)cc2n1C(=O)OCC(=O)[O-]

>  <Energy>  (41) 
67.19751243182259

>  <Genealogy>  (41) 
[NH-]C(=O)c1cc2ccc(C#CCCO)cc2n1C(=O)OCC(=O)[O-] (protonated)
[NH-]C(=O)c1cc2ccc(C#CCCO)cc2n1C(=O)OCC(=O)[O-] (3D coordinates assigned)
[NH-]C(=O)c1cc2ccc(C#CCCO)cc2n1C(=O)OCC(=O)[O-] (optimized conformer: 67.19751243182259 kcal/mol)

>  <smiles>  (41) 
NC(=O)c1cc2ccc(C#CCCO)cc2n1C(=O)OCC(=O)O

>  <score_type>  (41) 
oracle

>  <origin>  (41) 
adg

>  <m_score__min__energy>  (41) 
-6.9000000000000004

>  <m_primary>  (41) 
energy

$$$$
41:0
     RDKit          3D

 40 41  0  0  0  0  0  0  0  0999 V2000
  141.4080  151.2160  132.5860 C   0  0  0  0  0  0  0  0  0  0  0  0
  141.7560  152.6880  132.3520 C   0  0  2  0  0  0  0  0  0  0  0  0
  143.2090  152.8710  132.3660 N   0  0  0  0  0  0  0  0  0  0  0  0
  141.0890  153.5630  133.3770 C   0  0  0  0  0  0  0  0  0  0  0  0
  140.0110  154.1580  133.1000 O   0  0  0  0  0  0  0  0  0  0  0  0
  141.6780  153.7150  134.6360 O   0  0  0  0  0  0  0  0  0  0  0  0
  142.1920  154.9580  135.0980 C   0  0  0  0  0  0  0  0  0  0  0  0
  143.4360  155.2130  134.4580 O   0  0  0  0  0  0  0  0  0  0  0  0
  143.5420  155.9760  133.2900 C   0  0  0  0  0  0  0  0  0  0  0  0
  143.6430  155.4080  132.1690 O   0  0  0  0  0  0  0  0  0  0  0  0
  143.5500  157.4110  133.3730 N   0  0  0  0  0  0  0  0  0  0  0  0
  142.4780  158.2520  133.3560 C   0  0  0  0  0  0  0  0  0  0  0  0
  141.0580  157.8380  133.3950 C   0  0  0  0  0  0  0  0  0  0  0  0
  140.6580  156.5550  132.9100 N   0  0  0  0  0  0  0  0  0  0  0  0
  140.1790  158.6290  133.8310 O   0  0  0  0  0  0  0  0  0  0  0  0
  142.9000  159.5800  133.3920 C   0  0  0  0  0  0  0  0  0  0  0  0
  144.2740  159.5260  133.4350 C   0  0  0  0  0  0  0  0  0  0  0  0
  145.2090  160.5550  133.4720 C   0  0  0  0  0  0  0  0  0  0  0  0
  146.5700  160.2100  133.4840 C   0  0  0  0  0  0  0  0  0  0  0  0
  146.9700  158.8510  133.4530 C   0  0  0  0  0  0  0  0  0  0  0  0
  148.4310  158.5040  133.4470 C   0  0  0  0  0  0  0  0  0  0  0  0
  149.0400  159.0670  132.3400 F   0  0  0  0  0  0  0  0  0  0  0  0
  149.0310  158.9910  134.5950 F   0  0  0  0  0  0  0  0  0  0  0  0
  145.9920  157.8320  133.4120 C   0  0  0  0  0  0  0  0  0  0  0  0
  144.6430  158.2050  133.4210 C   0  0  0  0  0  0  0  0  0  0  0  0
  141.3611  151.0177  133.6670 H   0  0  0  0  0  0  0  0  0  0  0  0
  140.4323  150.9928  132.1296 H   0  0  0  0  0  0  0  0  0  0  0  0
  142.1805  150.5796  132.1296 H   0  0  0  0  0  0  0  0  0  0  0  0
  141.3795  152.9868  131.3626 H   0  0  0  0  0  0  0  0  0  0  0  0
  143.4930  153.3580  131.4840 H   0  0  0  0  0  0  0  0  0  0  0  0
  143.4760  153.4920  133.1660 H   0  0  0  0  0  0  0  0  0  0  0  0
  141.4819  155.7628  134.8571 H   0  0  0  0  0  0  0  0  0  0  0  0
  142.3369  154.9175  136.1877 H   0  0  0  0  0  0  0  0  0  0  0  0
  139.6490  156.2870  132.9070 H   0  0  0  0  0  0  0  0  0  0  0  0
  141.3610  155.8510  132.5930 H   0  0  0  0  0  0  0  0  0  0  0  0
  142.2682  160.4805  133.3871 H   0  0  0  0  0  0  0  0  0  0  0  0
  144.8916  161.6080  133.4913 H   0  0  0  0  0  0  0  0  0  0  0  0
  147.3327  161.0020  133.5178 H   0  0  0  0  0  0  0  0  0  0  0  0
  148.5405  157.4101  133.4103 H   0  0  0  0  0  0  0  0  0  0  0  0
  146.2836  156.7720  133.3740 H   0  0  0  0  0  0  0  0  0  0  0  0
  1  2  1  0
  2  3  1  0
  2  4  1  0
  4  5  2  0
  4  6  1  0
  6  7  1  0
  7  8  1  0
  8  9  1  0
  9 10  2  0
  9 11  1  0
 11 12  1  0
 12 13  1  0
 13 14  1  0
 13 15  2  0
 12 16  2  0
 16 17  1  0
 17 18  2  0
 18 19  1  0
 19 20  2  0
 20 21  1  0
 21 22  1  0
 21 23  1  0
 20 24  1  0
 24 25  2  0
 25 11  1  0
 25 17  1  0
  1 26  1  0
  1 27  1  0
  1 28  1  0
  2 29  1  6
  3 30  1  0
  3 31  1  0
  7 32  1  0
  7 33  1  0
 14 34  1  0
 14 35  1  0
 16 36  1  0
 18 37  1  0
 19 38  1  0
 21 39  1  0
 24 40  1  0
M  END
>  <UniqueID>  (42) 
41

>  <SMILES>  (42) 
C[C@H](N)C(=O)OCOC(=O)n1c(C(N)=O)cc2ccc(C(F)F)cc21

>  <Energy>  (42) 
71.20406668329878

>  <Genealogy>  (42) 
C[C@H](N)C(=O)OCOC(=O)n1c(C(N)=O)cc2ccc(C(F)F)cc21 (chirality)
C[C@H](N)C(=O)OCOC(=O)n1c(C(N)=O)cc2ccc(C(F)F)cc21 (3D coordinates assigned)
C[C@H](N)C(=O)OCOC(=O)n1c(C(N)=O)cc2ccc(C(F)F)cc21 (optimized conformer: 71.20406668329878 kcal/mol)

>  <smiles>  (42) 
CC(N)C(=O)OCOC(=O)n1c(C(N)=O)cc2ccc(C(F)F)cc21

>  <score_type>  (42) 
oracle

>  <origin>  (42) 
adg

>  <m_score__min__energy>  (42) 
-6.5099999999999998

>  <m_primary>  (42) 
energy

$$$$
42:0
     RDKit          3D

 37 38  0  0  0  0  0  0  0  0999 V2000
  143.0560  161.2790  133.6970 N   0  0  0  0  0  0  0  0  0  0  0  0
  144.4670  161.4700  133.7770 C   0  0  0  0  0  0  0  0  0  0  0  0
  144.9190  162.6010  134.0990 O   0  0  0  0  0  0  0  0  0  0  0  0
  145.4000  160.3480  133.5440 C   0  0  0  0  0  0  0  0  0  0  0  0
  146.7680  160.5180  133.3460 C   0  0  0  0  0  0  0  0  0  0  0  0
  147.2850  159.2450  133.2570 C   0  0  0  0  0  0  0  0  0  0  0  0
  148.5920  158.8240  133.0370 C   0  0  0  0  0  0  0  0  0  0  0  0
  148.8340  157.4430  132.9500 C   0  0  0  0  0  0  0  0  0  0  0  0
  147.7750  156.5100  133.0930 C   0  0  0  0  0  0  0  0  0  0  0  0
  148.0380  155.0340  132.9340 C   0  0  0  0  0  0  0  0  0  0  0  0
  148.1510  154.4220  134.1700 F   0  0  0  0  0  0  0  0  0  0  0  0
  146.9900  154.4570  132.2400 F   0  0  0  0  0  0  0  0  0  0  0  0
  149.2140  154.8200  132.2350 F   0  0  0  0  0  0  0  0  0  0  0  0
  146.4550  156.9800  133.2910 C   0  0  0  0  0  0  0  0  0  0  0  0
  146.2470  158.3610  133.3930 C   0  0  0  0  0  0  0  0  0  0  0  0
  145.0800  159.0230  133.5670 N   0  0  0  0  0  0  0  0  0  0  0  0
  143.7730  158.4370  133.6490 C   0  0  0  0  0  0  0  0  0  0  0  0
  143.2360  157.9470  132.6180 O   0  0  0  0  0  0  0  0  0  0  0  0
  143.0890  158.4330  134.8700 O   0  0  0  0  0  0  0  0  0  0  0  0
  141.8190  159.0510  135.0480 C   0  0  0  0  0  0  0  0  0  0  0  0
  140.8870  158.5080  134.1200 O   0  0  0  0  0  0  0  0  0  0  0  0
  140.2020  159.2940  133.1910 C   0  0  0  0  0  0  0  0  0  0  0  0
  140.6110  160.4550  132.9090 O   0  0  0  0  0  0  0  0  0  0  0  0
  139.0590  158.7770  132.5770 O   0  0  0  0  0  0  0  0  0  0  0  0
  138.8930  158.7470  131.1650 C   0  0  0  0  0  0  0  0  0  0  0  0
  138.1840  159.9840  130.7260 C   0  0  0  0  0  0  0  0  0  0  0  0
  138.8030  160.8760  130.0880 O   0  0  0  0  0  0  0  0  0  0  0  0
  136.8520  160.1800  131.0690 O   0  0  0  0  0  0  0  0  0  0  0  0
  142.6460  160.3200  133.6440 H   0  0  0  0  0  0  0  0  0  0  0  0
  147.3186  161.4677  133.2756 H   0  0  0  0  0  0  0  0  0  0  0  0
  149.4116  159.5505  132.9342 H   0  0  0  0  0  0  0  0  0  0  0  0
  149.8567  157.0808  132.7688 H   0  0  0  0  0  0  0  0  0  0  0  0
  145.6121  156.2770  133.3631 H   0  0  0  0  0  0  0  0  0  0  0  0
  141.4636  158.8677  136.0728 H   0  0  0  0  0  0  0  0  0  0  0  0
  141.9137  160.1336  134.8779 H   0  0  0  0  0  0  0  0  0  0  0  0
  139.8790  158.6968  130.6800 H   0  0  0  0  0  0  0  0  0  0  0  0
  138.3023  157.8633  130.8819 H   0  0  0  0  0  0  0  0  0  0  0  0
  1  2  1  0
  2  3  2  0
  2  4  1  0
  4  5  2  0
  5  6  1  0
  6  7  2  0
  7  8  1  0
  8  9  2  0
  9 10  1  0
 10 11  1  0
 10 12  1  0
 10 13  1  0
  9 14  1  0
 14 15  2  0
 15 16  1  0
 16 17  1  0
 17 18  2  0
 17 19  1  0
 19 20  1  0
 20 21  1  0
 21 22  1  0
 22 23  2  0
 22 24  1  0
 24 25  1  0
 25 26  1  0
 26 27  2  0
 26 28  1  0
 16  4  1  0
 15  6  1  0
  1 29  1  0
  5 30  1  0
  7 31  1  0
  8 32  1  0
 14 33  1  0
 20 34  1  0
 20 35  1  0
 25 36  1  0
 25 37  1  0
M  CHG  2   1  -1  28  -1
M  END
>  <UniqueID>  (43) 
42

>  <SMILES>  (43) 
[NH-]C(=O)c1cc2ccc(C(F)(F)F)cc2n1C(=O)OCOC(=O)OCC(=O)[O-]

>  <Energy>  (43) 
70.71897509011666

>  <Genealogy>  (43) 
[NH-]C(=O)c1cc2ccc(C(F)(F)F)cc2n1C(=O)OCOC(=O)OCC(=O)[O-] (protonated)
[NH-]C(=O)c1cc2ccc(C(F)(F)F)cc2n1C(=O)OCOC(=O)OCC(=O)[O-] (3D coordinates assigned)
[NH-]C(=O)c1cc2ccc(C(F)(F)F)cc2n1C(=O)OCOC(=O)OCC(=O)[O-] (optimized conformer: 70.71897509011666 kcal/mol)

>  <smiles>  (43) 
NC(=O)c1cc2ccc(C(F)(F)F)cc2n1C(=O)OCOC(=O)OCC(=O)O

>  <score_type>  (43) 
oracle

>  <origin>  (43) 
adg

>  <m_score__min__energy>  (43) 
-6.1600000000000001

>  <m_primary>  (43) 
energy

$$$$
43:0
     RDKit          3D

 40 41  0  0  0  0  0  0  0  0999 V2000
  148.8900  161.6920  130.6280 C   0  0  0  0  0  0  0  0  0  0  0  0
  148.7100  160.4200  131.4000 C   0  0  0  0  0  0  0  0  0  0  0  0
  149.7870  159.5050  131.5210 C   0  0  0  0  0  0  0  0  0  0  0  0
  149.6170  158.2870  132.2000 C   0  0  0  0  0  0  0  0  0  0  0  0
  148.3660  158.0120  132.7440 C   0  0  0  0  0  0  0  0  0  0  0  0
  147.9160  156.8980  133.4180 C   0  0  0  0  0  0  0  0  0  0  0  0
  146.5750  157.1540  133.7020 C   0  0  0  0  0  0  0  0  0  0  0  0
  145.7070  156.2290  134.4620 C   0  0  0  0  0  0  0  0  0  0  0  0
  144.3690  156.5850  134.7970 N   0  0  0  0  0  0  0  0  0  0  0  0
  146.1630  155.1180  134.8440 O   0  0  0  0  0  0  0  0  0  0  0  0
  146.2120  158.3770  133.2230 N   0  0  0  0  0  0  0  0  0  0  0  0
  144.9090  158.9760  133.2420 C   0  0  0  0  0  0  0  0  0  0  0  0
  143.9680  158.4390  132.5980 O   0  0  0  0  0  0  0  0  0  0  0  0
  144.6580  160.2100  134.0020 C   0  0  0  0  0  0  0  0  0  0  0  0
  145.5420  161.1070  134.0550 O   0  0  0  0  0  0  0  0  0  0  0  0
  143.4130  160.3830  134.6830 N   0  0  0  0  0  0  0  0  0  0  0  0
  142.1290  160.0800  134.0670 C   0  0  0  0  0  0  0  0  0  0  0  0
  141.6400  158.7490  134.5570 C   0  0  0  0  0  0  0  0  0  0  0  0
  141.7320  157.7550  133.7840 O   0  0  0  0  0  0  0  0  0  0  0  0
  141.0380  158.5890  135.8610 N   0  0  0  0  0  0  0  0  0  0  0  0
  140.9210  159.7250  136.7820 C   0  0  0  0  0  0  0  0  0  0  0  0
  140.5400  157.2670  136.2580 C   0  0  0  0  0  0  0  0  0  0  0  0
  147.3170  158.8870  132.6360 C   0  0  0  0  0  0  0  0  0  0  0  0
  147.4500  160.0980  131.9480 C   0  0  0  0  0  0  0  0  0  0  0  0
  149.0089  162.5321  131.3281 H   0  0  0  0  0  0  0  0  0  0  0  0
  149.7859  161.6129  129.9947 H   0  0  0  0  0  0  0  0  0  0  0  0
  148.0073  161.8646  129.9947 H   0  0  0  0  0  0  0  0  0  0  0  0
  150.7639  159.7513  131.0793 H   0  0  0  0  0  0  0  0  0  0  0  0
  150.4474  157.5724  132.2987 H   0  0  0  0  0  0  0  0  0  0  0  0
  148.4923  155.9976  133.6772 H   0  0  0  0  0  0  0  0  0  0  0  0
  143.6980  156.9040  134.0640 H   0  0  0  0  0  0  0  0  0  0  0  0
  141.4007  160.8595  134.3353 H   0  0  0  0  0  0  0  0  0  0  0  0
  142.2458  160.0475  132.9737 H   0  0  0  0  0  0  0  0  0  0  0  0
  140.9585  159.3613  137.8195 H   0  0  0  0  0  0  0  0  0  0  0  0
  141.7518  160.4247  136.6085 H   0  0  0  0  0  0  0  0  0  0  0  0
  139.9650  160.2407  136.6085 H   0  0  0  0  0  0  0  0  0  0  0  0
  140.5145  157.1992  137.3556 H   0  0  0  0  0  0  0  0  0  0  0  0
  139.5256  157.1220  135.8580 H   0  0  0  0  0  0  0  0  0  0  0  0
  141.2066  156.4888  135.8580 H   0  0  0  0  0  0  0  0  0  0  0  0
  146.5950  160.7811  131.8372 H   0  0  0  0  0  0  0  0  0  0  0  0
  1  2  1  0
  2  3  2  0
  3  4  1  0
  4  5  2  0
  5  6  1  0
  6  7  2  0
  7  8  1  0
  8  9  1  0
  8 10  2  0
  7 11  1  0
 11 12  1  0
 12 13  2  0
 12 14  1  0
 14 15  2  0
 14 16  1  0
 16 17  1  0
 17 18  1  0
 18 19  2  0
 18 20  1  0
 20 21  1  0
 20 22  1  0
 11 23  1  0
 23 24  2  0
 24  2  1  0
 23  5  1  0
  1 25  1  0
  1 26  1  0
  1 27  1  0
  3 28  1  0
  4 29  1  0
  6 30  1  0
  9 31  1  0
 17 32  1  0
 17 33  1  0
 21 34  1  0
 21 35  1  0
 21 36  1  0
 22 37  1  0
 22 38  1  0
 22 39  1  0
 24 40  1  0
M  CHG  2   9  -1  16  -1
M  END
>  <UniqueID>  (44) 
43

>  <SMILES>  (44) 
Cc1ccc2cc(C([NH-])=O)n(C(=O)C(=O)[N-]CC(=O)N(C)C)c2c1

>  <Energy>  (44) 
72.56832756285763

>  <Genealogy>  (44) 
Cc1ccc2cc(C([NH-])=O)n(C(=O)C(=O)[N-]CC(=O)N(C)C)c2c1 (protonated)
Cc1ccc2cc(C([NH-])=O)n(C(=O)C(=O)[N-]CC(=O)N(C)C)c2c1 (3D coordinates assigned)
Cc1ccc2cc(C([NH-])=O)n(C(=O)C(=O)[N-]CC(=O)N(C)C)c2c1 (optimized conformer: 72.56832756285763 kcal/mol)

>  <smiles>  (44) 
Cc1ccc2cc(C(N)=O)n(C(=O)C(=O)NCC(=O)N(C)C)c2c1

>  <score_type>  (44) 
oracle

>  <origin>  (44) 
adg

>  <m_score__min__energy>  (44) 
-7.1500000000000004

>  <m_primary>  (44) 
energy

$$$$
44:0
     RDKit          3D

 33 34  0  0  0  0  0  0  0  0999 V2000
  148.4980  157.0340  132.6220 C   0  0  0  0  0  0  0  0  0  0  0  0
  147.5040  158.1260  132.8870 C   0  0  0  0  0  0  0  0  0  0  0  0
  147.9460  159.4600  133.0650 C   0  0  0  0  0  0  0  0  0  0  0  0
  147.0310  160.4820  133.3620 C   0  0  0  0  0  0  0  0  0  0  0  0
  145.6870  160.1400  133.4800 C   0  0  0  0  0  0  0  0  0  0  0  0
  144.5980  160.9250  133.7890 C   0  0  0  0  0  0  0  0  0  0  0  0
  143.5060  160.0590  133.7880 C   0  0  0  0  0  0  0  0  0  0  0  0
  142.1130  160.5060  133.9910 C   0  0  0  0  0  0  0  0  0  0  0  0
  141.1520  159.6060  134.5390 N   0  0  0  0  0  0  0  0  0  0  0  0
  141.7670  161.6870  133.7210 O   0  0  0  0  0  0  0  0  0  0  0  0
  143.9050  158.7870  133.4990 N   0  0  0  0  0  0  0  0  0  0  0  0
  143.1020  157.5960  133.4580 C   0  0  0  0  0  0  0  0  0  0  0  0
  143.5160  156.5430  134.0150 O   0  0  0  0  0  0  0  0  0  0  0  0
  141.8780  157.6130  132.7760 O   0  0  0  0  0  0  0  0  0  0  0  0
  140.7170  156.9440  133.1830 C   0  0  0  0  0  0  0  0  0  0  0  0
  140.7870  155.8990  133.8870 O   0  0  0  0  0  0  0  0  0  0  0  0
  139.4770  157.4630  132.7890 O   0  0  0  0  0  0  0  0  0  0  0  0
  139.2960  158.5870  131.9720 C   0  0  0  0  0  0  0  0  0  0  0  0
  140.2070  159.4530  131.8520 O   0  0  0  0  0  0  0  0  0  0  0  0
  138.0800  158.7270  131.2930 O   0  0  0  0  0  0  0  0  0  0  0  0
  137.5930  159.9250  130.7540 C   0  0  0  0  0  0  0  0  0  0  0  0
  138.3710  160.8480  130.3920 O   0  0  0  0  0  0  0  0  0  0  0  0
  136.2230  160.0990  130.6170 O   0  0  0  0  0  0  0  0  0  0  0  0
  145.2420  158.8550  133.3090 C   0  0  0  0  0  0  0  0  0  0  0  0
  146.1350  157.8130  133.0310 C   0  0  0  0  0  0  0  0  0  0  0  0
  148.8642  156.6316  133.5780 H   0  0  0  0  0  0  0  0  0  0  0  0
  148.0151  156.2303  132.0468 H   0  0  0  0  0  0  0  0  0  0  0  0
  149.3435  157.4394  132.0468 H   0  0  0  0  0  0  0  0  0  0  0  0
  149.0159  159.6970  132.9696 H   0  0  0  0  0  0  0  0  0  0  0  0
  147.3657  161.5211  133.4973 H   0  0  0  0  0  0  0  0  0  0  0  0
  144.5916  162.0059  133.9932 H   0  0  0  0  0  0  0  0  0  0  0  0
  140.6170  158.9530  133.9240 H   0  0  0  0  0  0  0  0  0  0  0  0
  145.7790  156.7773  132.9275 H   0  0  0  0  0  0  0  0  0  0  0  0
  1  2  1  0
  2  3  2  0
  3  4  1  0
  4  5  2  0
  5  6  1  0
  6  7  2  0
  7  8  1  0
  8  9  1  0
  8 10  2  0
  7 11  1  0
 11 12  1  0
 12 13  2  0
 12 14  1  0
 14 15  1  0
 15 16  2  0
 15 17  1  0
 17 18  1  0
 18 19  2  0
 18 20  1  0
 20 21  1  0
 21 22  2  0
 21 23  1  0
 11 24  1  0
 24 25  2  0
 25  2  1  0
 24  5  1  0
  1 26  1  0
  1 27  1  0
  1 28  1  0
  3 29  1  0
  4 30  1  0
  6 31  1  0
  9 32  1  0
 25 33  1  0
M  CHG  2   9  -1  23  -1
M  END
>  <UniqueID>  (45) 
44

>  <SMILES>  (45) 
Cc1ccc2cc(C([NH-])=O)n(C(=O)OC(=O)OC(=O)OC(=O)[O-])c2c1

>  <Energy>  (45) 
74.85756482591673

>  <Genealogy>  (45) 
Cc1ccc2cc(C([NH-])=O)n(C(=O)OC(=O)OC(=O)OC(=O)[O-])c2c1 (protonated)
Cc1ccc2cc(C([NH-])=O)n(C(=O)OC(=O)OC(=O)OC(=O)[O-])c2c1 (3D coordinates assigned)
Cc1ccc2cc(C([NH-])=O)n(C(=O)OC(=O)OC(=O)OC(=O)[O-])c2c1 (optimized conformer: 74.85756482591673 kcal/mol)

>  <smiles>  (45) 
Cc1ccc2cc(C(N)=O)n(C(=O)OC(=O)OC(=O)OC(=O)O)c2c1

>  <score_type>  (45) 
oracle

>  <origin>  (45) 
adg

>  <m_score__min__energy>  (45) 
-6.46

>  <m_primary>  (45) 
energy

$$$$
45:0
     RDKit          3D

 45 46  0  0  0  0  0  0  0  0999 V2000
  140.6230  152.4790  140.4590 C   0  0  0  0  0  0  0  0  0  0  0  0
  141.2040  152.8930  139.1760 N   0  0  0  0  0  0  0  0  0  0  0  0
  141.7490  151.8590  138.2840 C   0  0  0  0  0  0  0  0  0  0  0  0
  140.6450  151.0710  137.6480 C   0  0  0  0  0  0  0  0  0  0  0  0
  140.6210  150.9090  136.3990 O   0  0  0  0  0  0  0  0  0  0  0  0
  139.6190  150.5490  138.4250 O   0  0  0  0  0  0  0  0  0  0  0  0
  141.2570  154.2980  138.8180 C   0  0  0  0  0  0  0  0  0  0  0  0
  141.3240  155.3000  139.8270 C   0  0  0  0  0  0  0  0  0  0  0  0
  141.3600  156.6640  139.4940 C   0  0  0  0  0  0  0  0  0  0  0  0
  141.3390  157.0080  138.1480 C   0  0  0  0  0  0  0  0  0  0  0  0
  141.3290  158.2480  137.5500 C   0  0  0  0  0  0  0  0  0  0  0  0
  141.2860  157.9970  136.1810 C   0  0  0  0  0  0  0  0  0  0  0  0
  141.3290  159.0600  135.1540 C   0  0  0  0  0  0  0  0  0  0  0  0
  142.2050  158.9620  134.0340 N   0  0  0  0  0  0  0  0  0  0  0  0
  140.6140  160.0880  135.2910 O   0  0  0  0  0  0  0  0  0  0  0  0
  141.2660  156.6560  135.9430 N   0  0  0  0  0  0  0  0  0  0  0  0
  141.1200  155.9890  134.6800 C   0  0  0  0  0  0  0  0  0  0  0  0
  142.1350  155.5310  134.0900 O   0  0  0  0  0  0  0  0  0  0  0  0
  139.8440  155.8240  134.1300 O   0  0  0  0  0  0  0  0  0  0  0  0
  139.5360  156.1030  132.7670 C   0  0  0  0  0  0  0  0  0  0  0  0
  139.7100  157.5660  132.4710 C   0  0  0  0  0  0  0  0  0  0  0  0
  140.7830  157.9650  131.9450 O   0  0  0  0  0  0  0  0  0  0  0  0
  138.6870  158.5230  132.7670 N   0  0  0  0  0  0  0  0  0  0  0  0
  138.2880  159.6040  131.8720 C   0  0  0  0  0  0  0  0  0  0  0  0
  139.4740  160.5260  131.6220 C   0  0  0  0  0  0  0  0  0  0  0  0
  140.2240  160.6520  132.7980 O   0  0  0  0  0  0  0  0  0  0  0  0
  141.2990  156.0650  137.1570 C   0  0  0  0  0  0  0  0  0  0  0  0
  141.2400  154.7000  137.4580 C   0  0  0  0  0  0  0  0  0  0  0  0
  141.2160  152.9016  141.2834 H   0  0  0  0  0  0  0  0  0  0  0  0
  139.5876  152.8440  140.5275 H   0  0  0  0  0  0  0  0  0  0  0  0
  140.6300  151.3812  140.5275 H   0  0  0  0  0  0  0  0  0  0  0  0
  142.3483  152.3405  137.4972 H   0  0  0  0  0  0  0  0  0  0  0  0
  142.3746  151.1754  138.8767 H   0  0  0  0  0  0  0  0  0  0  0  0
  141.3480  155.0009  140.8853 H   0  0  0  0  0  0  0  0  0  0  0  0
  141.4035  157.4369  140.2755 H   0  0  0  0  0  0  0  0  0  0  0  0
  141.3504  159.2287  138.0478 H   0  0  0  0  0  0  0  0  0  0  0  0
  141.9410  159.3690  133.1100 H   0  0  0  0  0  0  0  0  0  0  0  0
  140.2078  155.5212  132.1188 H   0  0  0  0  0  0  0  0  0  0  0  0
  138.4883  155.8264  132.5778 H   0  0  0  0  0  0  0  0  0  0  0  0
  137.9462  159.1803  130.9162 H   0  0  0  0  0  0  0  0  0  0  0  0
  137.4711  160.1776  132.3343 H   0  0  0  0  0  0  0  0  0  0  0  0
  140.1063  160.1028  130.8276 H   0  0  0  0  0  0  0  0  0  0  0  0
  139.1093  161.5164  131.3121 H   0  0  0  0  0  0  0  0  0  0  0  0
  140.3950  159.7280  133.1140 H   0  0  0  0  0  0  0  0  0  0  0  0
  141.1815  153.9516  136.6539 H   0  0  0  0  0  0  0  0  0  0  0  0
  1  2  1  0
  2  3  1  0
  3  4  1  0
  4  5  2  0
  4  6  1  0
  2  7  1  0
  7  8  2  0
  8  9  1  0
  9 10  2  0
 10 11  1  0
 11 12  2  0
 12 13  1  0
 13 14  1  0
 13 15  2  0
 12 16  1  0
 16 17  1  0
 17 18  2  0
 17 19  1  0
 19 20  1  0
 20 21  1  0
 21 22  2  0
 21 23  1  0
 23 24  1  0
 24 25  1  0
 25 26  1  0
 16 27  1  0
 27 28  2  0
 28  7  1  0
 27 10  1  0
  1 29  1  0
  1 30  1  0
  1 31  1  0
  3 32  1  0
  3 33  1  0
  8 34  1  0
  9 35  1  0
 11 36  1  0
 14 37  1  0
 20 38  1  0
 20 39  1  0
 24 40  1  0
 24 41  1  0
 25 42  1  0
 25 43  1  0
 26 44  1  0
 28 45  1  0
M  CHG  3   6  -1  14  -1  23  -1
M  END
>  <UniqueID>  (46) 
45

>  <SMILES>  (46) 
CN(CC(=O)[O-])c1ccc2cc(C([NH-])=O)n(C(=O)OCC(=O)[N-]CCO)c2c1

>  <Energy>  (46) 
77.43869727723182

>  <Genealogy>  (46) 
CN(CC(=O)[O-])c1ccc2cc(C([NH-])=O)n(C(=O)OCC(=O)[N-]CCO)c2c1 (protonated)
CN(CC(=O)[O-])c1ccc2cc(C([NH-])=O)n(C(=O)OCC(=O)[N-]CCO)c2c1 (3D coordinates assigned)
CN(CC(=O)[O-])c1ccc2cc(C([NH-])=O)n(C(=O)OCC(=O)[N-]CCO)c2c1 (optimized conformer: 77.43869727723182 kcal/mol)

>  <smiles>  (46) 
CN(CC(=O)O)c1ccc2cc(C(N)=O)n(C(=O)OCC(=O)NCCO)c2c1

>  <score_type>  (46) 
oracle

>  <origin>  (46) 
adg

>  <m_score__min__energy>  (46) 
-5.9299999999999997

>  <m_primary>  (46) 
energy

$$$$
46:0
     RDKit          3D

 67 69  0  0  0  0  0  0  0  0999 V2000
  141.9410  156.3350  136.3950 C   0  0  0  0  0  0  0  0  0  0  0  0
  140.7960  157.2880  136.7760 C   0  0  0  0  0  0  0  0  0  0  0  0
  141.3620  158.6020  137.3220 C   0  0  0  0  0  0  0  0  0  0  0  0
  139.8600  157.5590  135.6240 C   0  0  0  0  0  0  0  0  0  0  0  0
  138.8020  158.2270  135.7930 O   0  0  0  0  0  0  0  0  0  0  0  0
  140.1900  157.0720  134.3520 O   0  0  0  0  0  0  0  0  0  0  0  0
  139.9360  157.7890  133.1500 C   0  0  0  0  0  0  0  0  0  0  0  0
  141.0990  158.5190  132.7680 O   0  0  0  0  0  0  0  0  0  0  0  0
  141.9970  159.0980  133.6720 C   0  0  0  0  0  0  0  0  0  0  0  0
  141.5870  159.8420  134.6030 O   0  0  0  0  0  0  0  0  0  0  0  0
  143.3940  158.7930  133.5680 N   0  0  0  0  0  0  0  0  0  0  0  0
  144.4540  159.6330  133.7310 C   0  0  0  0  0  0  0  0  0  0  0  0
  144.3800  161.0970  133.9090 C   0  0  0  0  0  0  0  0  0  0  0  0
  143.1590  161.8020  133.7080 N   0  0  0  0  0  0  0  0  0  0  0  0
  145.4230  161.7440  134.2000 O   0  0  0  0  0  0  0  0  0  0  0  0
  145.6510  158.9200  133.6610 C   0  0  0  0  0  0  0  0  0  0  0  0
  145.2810  157.6090  133.4560 C   0  0  0  0  0  0  0  0  0  0  0  0
  146.0600  156.4630  133.3640 C   0  0  0  0  0  0  0  0  0  0  0  0
  145.4060  155.2250  133.2300 C   0  0  0  0  0  0  0  0  0  0  0  0
  143.9810  155.1370  133.1950 C   0  0  0  0  0  0  0  0  0  0  0  0
  143.2970  153.8440  133.1090 N   0  0  0  0  0  0  0  0  0  0  0  0
  141.8200  153.8350  133.0600 C   0  0  0  0  0  0  0  0  0  0  0  0
  141.2050  152.4550  133.2820 C   0  0  0  0  0  0  0  0  0  0  0  0
  141.8990  151.4450  132.4740 N   0  0  0  0  0  0  0  0  0  0  0  0
  141.2100  150.1800  132.5730 C   0  0  0  0  0  0  0  0  0  0  0  0
  140.6760  149.8330  133.6630 O   0  0  0  0  0  0  0  0  0  0  0  0
  141.1180  149.3640  131.4350 O   0  0  0  0  0  0  0  0  0  0  0  0
  139.9080  148.9330  130.7950 C   0  0  0  0  0  0  0  0  0  0  0  0
  139.7940  149.5430  129.3840 C   0  0  0  0  0  0  0  0  0  0  0  0
  138.7360  149.4390  131.6500 C   0  0  0  0  0  0  0  0  0  0  0  0
  139.8510  147.3950  130.7280 C   0  0  0  0  0  0  0  0  0  0  0  0
  143.2850  151.3160  132.9450 C   0  0  0  0  0  0  0  0  0  0  0  0
  144.0690  152.6260  132.7640 C   0  0  0  0  0  0  0  0  0  0  0  0
  143.2360  156.3490  133.2670 C   0  0  0  0  0  0  0  0  0  0  0  0
  143.9180  157.5610  133.4020 C   0  0  0  0  0  0  0  0  0  0  0  0
  142.4115  155.9434  137.3089 H   0  0  0  0  0  0  0  0  0  0  0  0
  141.5407  155.4996  135.8018 H   0  0  0  0  0  0  0  0  0  0  0  0
  142.6898  156.8803  135.8018 H   0  0  0  0  0  0  0  0  0  0  0  0
  140.2058  156.7886  137.5584 H   0  0  0  0  0  0  0  0  0  0  0  0
  141.3512  158.5770  138.4217 H   0  0  0  0  0  0  0  0  0  0  0  0
  142.3955  158.7311  136.9683 H   0  0  0  0  0  0  0  0  0  0  0  0
  140.7458  159.4417  136.9683 H   0  0  0  0  0  0  0  0  0  0  0  0
  139.6709  157.0806  132.3513 H   0  0  0  0  0  0  0  0  0  0  0  0
  139.1048  158.4905  133.3144 H   0  0  0  0  0  0  0  0  0  0  0  0
  142.3380  161.3410  133.2580 H   0  0  0  0  0  0  0  0  0  0  0  0
  146.6721  159.3193  133.7504 H   0  0  0  0  0  0  0  0  0  0  0  0
  147.1580  156.5218  133.3951 H   0  0  0  0  0  0  0  0  0  0  0  0
  146.0045  154.3055  133.1505 H   0  0  0  0  0  0  0  0  0  0  0  0
  141.4429  154.5125  133.8402 H   0  0  0  0  0  0  0  0  0  0  0  0
  141.5308  154.1560  132.0484 H   0  0  0  0  0  0  0  0  0  0  0  0
  141.2900  152.1880  134.3457 H   0  0  0  0  0  0  0  0  0  0  0  0
  140.1474  152.4851  132.9810 H   0  0  0  0  0  0  0  0  0  0  0  0
  141.8980  151.7430  131.4680 H   0  0  0  0  0  0  0  0  0  0  0  0
  139.5925  150.6213  129.4659 H   0  0  0  0  0  0  0  0  0  0  0  0
  140.7369  149.3865  128.8396 H   0  0  0  0  0  0  0  0  0  0  0  0
  138.9712  149.0565  128.8396 H   0  0  0  0  0  0  0  0  0  0  0  0
  138.9861  149.3310  132.7157 H   0  0  0  0  0  0  0  0  0  0  0  0
  138.5474  150.4987  131.4232 H   0  0  0  0  0  0  0  0  0  0  0  0
  137.8354  148.8495  131.4232 H   0  0  0  0  0  0  0  0  0  0  0  0
  139.8358  146.9839  131.7482 H   0  0  0  0  0  0  0  0  0  0  0  0
  138.9407  147.0847  130.1940 H   0  0  0  0  0  0  0  0  0  0  0  0
  140.7358  147.0182  130.1940 H   0  0  0  0  0  0  0  0  0  0  0  0
  143.2759  151.0501  134.0123 H   0  0  0  0  0  0  0  0  0  0  0  0
  143.7792  150.5344  132.3493 H   0  0  0  0  0  0  0  0  0  0  0  0
  144.9601  152.5875  133.4078 H   0  0  0  0  0  0  0  0  0  0  0  0
  144.3208  152.7010  131.6958 H   0  0  0  0  0  0  0  0  0  0  0  0
  142.1373  156.3310  133.2169 H   0  0  0  0  0  0  0  0  0  0  0  0
  1  2  1  0
  2  3  1  0
  2  4  1  0
  4  5  2  0
  4  6  1  0
  6  7  1  0
  7  8  1  0
  8  9  1  0
  9 10  2  0
  9 11  1  0
 11 12  1  0
 12 13  1  0
 13 14  1  0
 13 15  2  0
 12 16  2  0
 16 17  1  0
 17 18  2  0
 18 19  1  0
 19 20  2  0
 20 21  1  0
 21 22  1  0
 22 23  1  0
 23 24  1  0
 24 25  1  0
 25 26  2  0
 25 27  1  0
 27 28  1  0
 28 29  1  0
 28 30  1  0
 28 31  1  0
 24 32  1  0
 32 33  1  0
 20 34  1  0
 34 35  2  0
 35 11  1  0
 35 17  1  0
 33 21  1  0
  1 36  1  0
  1 37  1  0
  1 38  1  0
  2 39  1  0
  3 40  1  0
  3 41  1  0
  3 42  1  0
  7 43  1  0
  7 44  1  0
 14 45  1  0
 16 46  1  0
 18 47  1  0
 19 48  1  0
 22 49  1  0
 22 50  1  0
 23 51  1  0
 23 52  1  0
 24 53  1  0
 29 54  1  0
 29 55  1  0
 29 56  1  0
 30 57  1  0
 30 58  1  0
 30 59  1  0
 31 60  1  0
 31 61  1  0
 31 62  1  0
 32 63  1  0
 32 64  1  0
 33 65  1  0
 33 66  1  0
 34 67  1  0
M  CHG  2  14  -1  24   1
M  END
>  <UniqueID>  (47) 
46

>  <SMILES>  (47) 
CC(C)C(=O)OCOC(=O)n1c(C([NH-])=O)cc2ccc(N3CC[NH+](C(=O)OC(C)(C)C)CC3)cc21

>  <Energy>  (47) 
104.98226491535937

>  <Genealogy>  (47) 
CC(C)C(=O)OCOC(=O)n1c(C([NH-])=O)cc2ccc(N3CC[NH+](C(=O)OC(C)(C)C)CC3)cc21 (protonated)
CC(C)C(=O)OCOC(=O)n1c(C([NH-])=O)cc2ccc(N3CC[NH+](C(=O)OC(C)(C)C)CC3)cc21 (3D coordinates assigned)
CC(C)C(=O)OCOC(=O)n1c(C([NH-])=O)cc2ccc(N3CC[NH+](C(=O)OC(C)(C)C)CC3)cc21 (nonaromatic ring conformer: 104.98226491535937 kcal/mol)

>  <smiles>  (47) 
CC(C)C(=O)OCOC(=O)n1c(C(N)=O)cc2ccc(N3CCN(C(=O)OC(C)(C)C)CC3)cc21

>  <score_type>  (47) 
oracle

>  <origin>  (47) 
adg

>  <m_score__min__energy>  (47) 
-9.4900000000000002

>  <m_primary>  (47) 
energy

$$$$
47:0
     RDKit          3D

 44 45  0  0  0  0  0  0  0  0999 V2000
  138.3750  158.3900  132.2610 C   0  0  0  0  0  0  0  0  0  0  0  0
  139.5900  158.2060  133.1840 C   0  0  0  0  0  0  0  0  0  0  0  0
  140.4220  159.5030  133.1750 C   0  0  0  0  0  0  0  0  0  0  0  0
  139.0940  157.8850  134.6060 C   0  0  0  0  0  0  0  0  0  0  0  0
  140.3560  157.1130  132.6570 O   0  0  0  0  0  0  0  0  0  0  0  0
  140.2670  155.7690  133.0470 C   0  0  0  0  0  0  0  0  0  0  0  0
  139.1480  155.2250  133.2450 O   0  0  0  0  0  0  0  0  0  0  0  0
  141.4710  155.0060  133.2280 N   0  0  0  0  0  0  0  0  0  0  0  0
  142.7370  155.4800  133.4030 C   0  0  0  0  0  0  0  0  0  0  0  0
  143.1120  156.8940  133.6000 C   0  0  0  0  0  0  0  0  0  0  0  0
  142.8470  157.8770  132.5970 N   0  0  0  0  0  0  0  0  0  0  0  0
  143.6260  157.2510  134.6920 O   0  0  0  0  0  0  0  0  0  0  0  0
  143.6550  154.4330  133.4240 C   0  0  0  0  0  0  0  0  0  0  0  0
  142.9040  153.2890  133.2690 C   0  0  0  0  0  0  0  0  0  0  0  0
  143.3050  151.9600  133.2050 C   0  0  0  0  0  0  0  0  0  0  0  0
  142.3150  150.9820  133.0020 C   0  0  0  0  0  0  0  0  0  0  0  0
  140.9530  151.3450  132.8580 C   0  0  0  0  0  0  0  0  0  0  0  0
  139.9720  150.3130  132.6410 N   0  0  0  0  0  0  0  0  0  0  0  0
  140.2780  149.0430  131.9760 C   0  0  0  0  0  0  0  0  0  0  0  0
  139.1120  148.5750  131.1070 C   0  0  0  0  0  0  0  0  0  0  0  0
  137.9970  149.3980  131.3170 O   0  0  0  0  0  0  0  0  0  0  0  0
  140.5860  152.7120  132.9240 C   0  0  0  0  0  0  0  0  0  0  0  0
  141.5900  153.6620  133.1510 C   0  0  0  0  0  0  0  0  0  0  0  0
  137.4693  158.5272  132.8700 H   0  0  0  0  0  0  0  0  0  0  0  0
  138.5275  159.2753  131.6262 H   0  0  0  0  0  0  0  0  0  0  0  0
  138.2586  157.4992  131.6262 H   0  0  0  0  0  0  0  0  0  0  0  0
  140.6232  159.8167  134.2099 H   0  0  0  0  0  0  0  0  0  0  0  0
  141.3743  159.3241  132.6543 H   0  0  0  0  0  0  0  0  0  0  0  0
  139.8624  160.2940  132.6543 H   0  0  0  0  0  0  0  0  0  0  0  0
  139.7799  158.3289  135.3425 H   0  0  0  0  0  0  0  0  0  0  0  0
  138.0859  158.3024  134.7457 H   0  0  0  0  0  0  0  0  0  0  0  0
  139.0619  156.7944  134.7457 H   0  0  0  0  0  0  0  0  0  0  0  0
  142.2680  157.6510  131.7590 H   0  0  0  0  0  0  0  0  0  0  0  0
  143.1580  158.8640  132.7370 H   0  0  0  0  0  0  0  0  0  0  0  0
  144.7466  154.5044  133.5397 H   0  0  0  0  0  0  0  0  0  0  0  0
  144.3640  151.6816  133.3099 H   0  0  0  0  0  0  0  0  0  0  0  0
  142.6019  149.9211  132.9544 H   0  0  0  0  0  0  0  0  0  0  0  0
  138.9950  150.4870  132.9720 H   0  0  0  0  0  0  0  0  0  0  0  0
  141.1667  149.1760  131.3415 H   0  0  0  0  0  0  0  0  0  0  0  0
  140.4614  148.2823  132.7491 H   0  0  0  0  0  0  0  0  0  0  0  0
  139.4052  148.6221  130.0478 H   0  0  0  0  0  0  0  0  0  0  0  0
  138.8531  147.5405  131.3768 H   0  0  0  0  0  0  0  0  0  0  0  0
  137.3780  148.8780  131.8930 H   0  0  0  0  0  0  0  0  0  0  0  0
  139.5373  153.0200  132.7999 H   0  0  0  0  0  0  0  0  0  0  0  0
  1  2  1  0
  2  3  1  0
  2  4  1  0
  2  5  1  0
  5  6  1  0
  6  7  2  0
  6  8  1  0
  8  9  1  0
  9 10  1  0
 10 11  1  0
 10 12  2  0
  9 13  2  0
 13 14  1  0
 14 15  2  0
 15 16  1  0
 16 17  2  0
 17 18  1  0
 18 19  1  0
 19 20  1  0
 20 21  1  0
 17 22  1  0
 22 23  2  0
 23  8  1  0
 23 14  1  0
  1 24  1  0
  1 25  1  0
  1 26  1  0
  3 27  1  0
  3 28  1  0
  3 29  1  0
  4 30  1  0
  4 31  1  0
  4 32  1  0
 11 33  1  0
 11 34  1  0
 13 35  1  0
 15 36  1  0
 16 37  1  0
 18 38  1  0
 19 39  1  0
 19 40  1  0
 20 41  1  0
 20 42  1  0
 21 43  1  0
 22 44  1  0
M  END
>  <UniqueID>  (48) 
47

>  <SMILES>  (48) 
CC(C)(C)OC(=O)n1c(C(N)=O)cc2ccc(NCCO)cc21

>  <Energy>  (48) 
74.41398465408548

>  <Genealogy>  (48) 
CC(C)(C)OC(=O)n1c(C(N)=O)cc2ccc(NCCO)cc21 (3D coordinates assigned)
CC(C)(C)OC(=O)n1c(C(N)=O)cc2ccc(NCCO)cc21 (optimized conformer: 74.41398465408548 kcal/mol)

>  <smiles>  (48) 
CC(C)(C)OC(=O)n1c(C(N)=O)cc2ccc(NCCO)cc21

>  <score_type>  (48) 
oracle

>  <origin>  (48) 
adg

>  <m_score__min__energy>  (48) 
-6.9800000000000004

>  <m_primary>  (48) 
energy

$$$$
48:0
     RDKit          3D

 45 47  0  0  0  0  0  0  0  0999 V2000
  149.1740  152.3450  132.8600 C   0  0  0  0  0  0  0  0  0  0  0  0
  148.6820  153.0070  134.0190 O   0  0  0  0  0  0  0  0  0  0  0  0
  148.0850  154.2700  133.9680 C   0  0  0  0  0  0  0  0  0  0  0  0
  147.6810  154.8350  135.0210 O   0  0  0  0  0  0  0  0  0  0  0  0
  147.8770  154.9310  132.6440 C   0  0  0  0  0  0  0  0  0  0  0  0
  147.5440  156.3820  132.8400 C   0  0  0  0  0  0  0  0  0  0  0  0
  148.5550  157.3670  132.7210 C   0  0  0  0  0  0  0  0  0  0  0  0
  148.2480  158.7300  132.8690 C   0  0  0  0  0  0  0  0  0  0  0  0
  146.9270  159.0750  133.1390 C   0  0  0  0  0  0  0  0  0  0  0  0
  146.3560  160.3120  133.3270 C   0  0  0  0  0  0  0  0  0  0  0  0
  145.0080  160.0650  133.5830 C   0  0  0  0  0  0  0  0  0  0  0  0
  144.0460  161.1230  133.9500 C   0  0  0  0  0  0  0  0  0  0  0  0
  142.6650  160.8030  134.1050 N   0  0  0  0  0  0  0  0  0  0  0  0
  144.4200  162.3170  134.0930 O   0  0  0  0  0  0  0  0  0  0  0  0
  144.7540  158.7240  133.5390 N   0  0  0  0  0  0  0  0  0  0  0  0
  143.5020  158.0540  133.7630 C   0  0  0  0  0  0  0  0  0  0  0  0
  143.1790  157.6930  134.9260 O   0  0  0  0  0  0  0  0  0  0  0  0
  142.6420  157.8310  132.6800 O   0  0  0  0  0  0  0  0  0  0  0  0
  141.3260  158.3000  132.5850 C   0  0  0  0  0  0  0  0  0  0  0  0
  141.0840  159.5180  132.3700 O   0  0  0  0  0  0  0  0  0  0  0  0
  140.2340  157.3970  132.7790 N   0  0  0  0  0  0  0  0  0  0  0  0
  139.4480  157.3340  134.0070 C   0  0  0  0  0  0  0  0  0  0  0  0
  140.1130  158.0970  135.1080 C   0  0  0  0  0  0  0  0  0  0  0  0
  140.4900  157.5470  136.2780 N   0  0  0  0  0  0  0  0  0  0  0  0
  141.0490  158.6050  136.8980 C   0  0  0  0  0  0  0  0  0  0  0  0
  141.7270  158.5150  138.2220 C   0  0  0  0  0  0  0  0  0  0  0  0
  141.0200  159.7230  136.1470 N   0  0  0  0  0  0  0  0  0  0  0  0
  140.4230  159.3690  135.0490 O   0  0  0  0  0  0  0  0  0  0  0  0
  145.9380  158.1340  133.2690 C   0  0  0  0  0  0  0  0  0  0  0  0
  146.2100  156.7730  133.0940 C   0  0  0  0  0  0  0  0  0  0  0  0
  149.8048  151.4962  133.1626 H   0  0  0  0  0  0  0  0  0  0  0  0
  148.3279  151.9777  132.2606 H   0  0  0  0  0  0  0  0  0  0  0  0
  149.7697  153.0492  132.2606 H   0  0  0  0  0  0  0  0  0  0  0  0
  148.7964  154.8460  132.0462 H   0  0  0  0  0  0  0  0  0  0  0  0
  147.0445  154.4373  132.1212 H   0  0  0  0  0  0  0  0  0  0  0  0
  149.5906  157.0618  132.5106 H   0  0  0  0  0  0  0  0  0  0  0  0
  149.0274  159.5004  132.7744 H   0  0  0  0  0  0  0  0  0  0  0  0
  146.8573  161.2902  133.2843 H   0  0  0  0  0  0  0  0  0  0  0  0
  142.3490  159.8110  134.1820 H   0  0  0  0  0  0  0  0  0  0  0  0
  138.4534  157.7652  133.8202 H   0  0  0  0  0  0  0  0  0  0  0  0
  139.3599  156.2812  134.3134 H   0  0  0  0  0  0  0  0  0  0  0  0
  140.9804  158.6141  139.0237 H   0  0  0  0  0  0  0  0  0  0  0  0
  142.2323  157.5419  138.3098 H   0  0  0  0  0  0  0  0  0  0  0  0
  142.4687  159.3226  138.3098 H   0  0  0  0  0  0  0  0  0  0  0  0
  145.4052  156.0254  133.1527 H   0  0  0  0  0  0  0  0  0  0  0  0
  1  2  1  0
  2  3  1  0
  3  4  2  0
  3  5  1  0
  5  6  1  0
  6  7  2  0
  7  8  1  0
  8  9  2  0
  9 10  1  0
 10 11  2  0
 11 12  1  0
 12 13  1  0
 12 14  2  0
 11 15  1  0
 15 16  1  0
 16 17  2  0
 16 18  1  0
 18 19  1  0
 19 20  2  0
 19 21  1  0
 21 22  1  0
 22 23  1  0
 23 24  2  0
 24 25  1  0
 25 26  1  0
 25 27  2  0
 27 28  1  0
 15 29  1  0
 29 30  2  0
 30  6  1  0
 29  9  1  0
 28 23  1  0
  1 31  1  0
  1 32  1  0
  1 33  1  0
  5 34  1  0
  5 35  1  0
  7 36  1  0
  8 37  1  0
 10 38  1  0
 13 39  1  0
 22 40  1  0
 22 41  1  0
 26 42  1  0
 26 43  1  0
 26 44  1  0
 30 45  1  0
M  CHG  2  13  -1  21  -1
M  END
>  <UniqueID>  (49) 
48

>  <SMILES>  (49) 
COC(=O)Cc1ccc2cc(C([NH-])=O)n(C(=O)OC(=O)[N-]Cc3nc(C)no3)c2c1

>  <Energy>  (49) 
107.15246966429353

>  <Genealogy>  (49) 
COC(=O)Cc1ccc2cc(C([NH-])=O)n(C(=O)OC(=O)[N-]Cc3nc(C)no3)c2c1 (protonated)
COC(=O)Cc1ccc2cc(C([NH-])=O)n(C(=O)OC(=O)[N-]Cc3nc(C)no3)c2c1 (3D coordinates assigned)
COC(=O)Cc1ccc2cc(C([NH-])=O)n(C(=O)OC(=O)[N-]Cc3nc(C)no3)c2c1 (optimized conformer: 107.15246966429353 kcal/mol)

>  <smiles>  (49) 
COC(=O)Cc1ccc2cc(C(N)=O)n(C(=O)OC(=O)NCc3nc(C)no3)c2c1

>  <score_type>  (49) 
oracle

>  <origin>  (49) 
adg

>  <m_score__min__energy>  (49) 
-7.2999999999999998

>  <m_primary>  (49) 
energy

$$$$
49:0
     RDKit          3D

 38 39  0  0  0  0  0  0  0  0999 V2000
  142.1150  160.2750  134.0320 N   0  0  0  0  0  0  0  0  0  0  0  0
  143.4070  160.7990  133.7430 C   0  0  0  0  0  0  0  0  0  0  0  0
  143.5680  162.0470  133.6840 O   0  0  0  0  0  0  0  0  0  0  0  0
  144.5700  159.9020  133.5680 C   0  0  0  0  0  0  0  0  0  0  0  0
  145.8890  160.3540  133.5450 C   0  0  0  0  0  0  0  0  0  0  0  0
  146.6620  159.2190  133.4550 C   0  0  0  0  0  0  0  0  0  0  0  0
  148.0440  159.0800  133.3760 C   0  0  0  0  0  0  0  0  0  0  0  0
  148.5700  157.7830  133.2520 C   0  0  0  0  0  0  0  0  0  0  0  0
  147.7140  156.6530  133.2190 C   0  0  0  0  0  0  0  0  0  0  0  0
  148.2850  155.2720  133.0210 C   0  0  0  0  0  0  0  0  0  0  0  0
  149.5280  155.3400  132.4120 F   0  0  0  0  0  0  0  0  0  0  0  0
  148.4210  154.6550  134.2500 F   0  0  0  0  0  0  0  0  0  0  0  0
  147.4530  154.5080  132.2220 F   0  0  0  0  0  0  0  0  0  0  0  0
  146.3130  156.8390  133.2750 C   0  0  0  0  0  0  0  0  0  0  0  0
  145.8190  158.1400  133.4210 C   0  0  0  0  0  0  0  0  0  0  0  0
  144.5300  158.5430  133.4860 N   0  0  0  0  0  0  0  0  0  0  0  0
  143.3760  157.6920  133.4040 C   0  0  0  0  0  0  0  0  0  0  0  0
  142.8180  157.4980  132.2900 O   0  0  0  0  0  0  0  0  0  0  0  0
  142.9030  157.0660  134.5630 O   0  0  0  0  0  0  0  0  0  0  0  0
  141.9510  157.6050  135.4400 C   0  0  0  0  0  0  0  0  0  0  0  0
  142.2430  158.5500  136.2220 O   0  0  0  0  0  0  0  0  0  0  0  0
  140.5600  157.0460  135.4410 C   0  0  0  0  0  0  0  0  0  0  0  0
  139.5510  157.9730  134.7320 C   0  0  1  0  0  0  0  0  0  0  0  0
  139.8960  159.3090  134.9880 O   0  0  0  0  0  0  0  0  0  0  0  0
  139.5360  157.7610  133.2100 C   0  0  0  0  0  0  0  0  0  0  0  0
  140.5170  158.5490  132.5940 O   0  0  0  0  0  0  0  0  0  0  0  0
  141.9660  159.2480  134.1490 H   0  0  0  0  0  0  0  0  0  0  0  0
  146.2376  161.3964  133.5894 H   0  0  0  0  0  0  0  0  0  0  0  0
  148.7048  159.9587  133.4096 H   0  0  0  0  0  0  0  0  0  0  0  0
  149.6586  157.6426  133.1797 H   0  0  0  0  0  0  0  0  0  0  0  0
  145.6280  155.9812  133.2054 H   0  0  0  0  0  0  0  0  0  0  0  0
  140.5697  156.0746  134.9250 H   0  0  0  0  0  0  0  0  0  0  0  0
  140.2413  156.9438  136.4888 H   0  0  0  0  0  0  0  0  0  0  0  0
  138.5512  157.7336  135.1233 H   0  0  0  0  0  0  0  0  0  0  0  0
  140.8250  159.4350  134.6630 H   0  0  0  0  0  0  0  0  0  0  0  0
  139.7327  156.7012  132.9904 H   0  0  0  0  0  0  0  0  0  0  0  0
  138.5496  158.0529  132.8204 H   0  0  0  0  0  0  0  0  0  0  0  0
  141.2350  158.6730  133.2680 H   0  0  0  0  0  0  0  0  0  0  0  0
  1  2  1  0
  2  3  2  0
  2  4  1  0
  4  5  2  0
  5  6  1  0
  6  7  2  0
  7  8  1  0
  8  9  2  0
  9 10  1  0
 10 11  1  0
 10 12  1  0
 10 13  1  0
  9 14  1  0
 14 15  2  0
 15 16  1  0
 16 17  1  0
 17 18  2  0
 17 19  1  0
 19 20  1  0
 20 21  2  0
 20 22  1  0
 22 23  1  0
 23 24  1  0
 23 25  1  0
 25 26  1  0
 16  4  1  0
 15  6  1  0
  1 27  1  0
  5 28  1  0
  7 29  1  0
  8 30  1  0
 14 31  1  0
 22 32  1  0
 22 33  1  0
 23 34  1  1
 24 35  1  0
 25 36  1  0
 25 37  1  0
 26 38  1  0
M  CHG  1   1  -1
M  END
>  <UniqueID>  (50) 
49

>  <SMILES>  (50) 
[NH-]C(=O)c1cc2ccc(C(F)(F)F)cc2n1C(=O)OC(=O)C[C@@H](O)CO

>  <Energy>  (50) 
73.93029871158252

>  <Genealogy>  (50) 
[NH-]C(=O)c1cc2ccc(C(F)(F)F)cc2n1C(=O)OC(=O)CC(O)CO (protonated)
[NH-]C(=O)c1cc2ccc(C(F)(F)F)cc2n1C(=O)OC(=O)C[C@@H](O)CO (chirality)
[NH-]C(=O)c1cc2ccc(C(F)(F)F)cc2n1C(=O)OC(=O)C[C@@H](O)CO (3D coordinates assigned)
[NH-]C(=O)c1cc2ccc(C(F)(F)F)cc2n1C(=O)OC(=O)C[C@@H](O)CO (optimized conformer: 73.93029871158252 kcal/mol)

>  <smiles>  (50) 
NC(=O)c1cc2ccc(C(F)(F)F)cc2n1C(=O)OC(=O)CC(O)CO

>  <score_type>  (50) 
oracle

>  <origin>  (50) 
adg

>  <m_score__min__energy>  (50) 
-5.9400000000000004

>  <m_primary>  (50) 
energy

$$$$
50:0
     RDKit          3D

 32 34  0  0  0  0  0  0  0  0999 V2000
  138.3960  158.9020  131.3900 C   0  0  0  0  0  0  0  0  0  0  0  0
  139.4190  159.2050  132.3290 O   0  0  0  0  0  0  0  0  0  0  0  0
  139.7100  158.3820  133.4220 C   0  0  0  0  0  0  0  0  0  0  0  0
  138.8760  158.2590  134.3610 O   0  0  0  0  0  0  0  0  0  0  0  0
  140.9620  157.6780  133.4720 N   0  0  0  0  0  0  0  0  0  0  0  0
  141.1600  156.3390  133.3100 C   0  0  0  0  0  0  0  0  0  0  0  0
  140.1030  155.3120  133.2200 C   0  0  0  0  0  0  0  0  0  0  0  0
  138.7410  155.6710  132.9800 N   0  0  0  0  0  0  0  0  0  0  0  0
  140.3980  154.1020  133.4130 O   0  0  0  0  0  0  0  0  0  0  0  0
  142.5200  156.0420  133.2900 C   0  0  0  0  0  0  0  0  0  0  0  0
  143.1570  157.2490  133.4590 C   0  0  0  0  0  0  0  0  0  0  0  0
  144.5170  157.5420  133.5030 C   0  0  0  0  0  0  0  0  0  0  0  0
  144.8970  158.8850  133.6500 C   0  0  0  0  0  0  0  0  0  0  0  0
  143.9200  159.9090  133.7410 C   0  0  0  0  0  0  0  0  0  0  0  0
  144.3260  161.3220  133.8820 C   0  0  0  0  0  0  0  0  0  0  0  0
  145.4640  161.7190  134.4900 N   0  0  0  0  0  0  0  0  0  0  0  0
  145.4220  163.0600  134.3860 C   0  0  0  0  0  0  0  0  0  0  0  0
  144.2720  163.4270  133.7280 C   0  0  0  0  0  0  0  0  0  0  0  0
  143.6170  162.3330  133.4300 O   0  0  0  0  0  0  0  0  0  0  0  0
  142.5480  159.5720  133.6910 C   0  0  0  0  0  0  0  0  0  0  0  0
  142.1960  158.2220  133.5660 C   0  0  0  0  0  0  0  0  0  0  0  0
  137.4751  158.6292  131.9263 H   0  0  0  0  0  0  0  0  0  0  0  0
  138.2055  159.7823  130.7585 H   0  0  0  0  0  0  0  0  0  0  0  0
  138.7156  158.0600  130.7585 H   0  0  0  0  0  0  0  0  0  0  0  0
  138.0140  154.9270  132.8800 H   0  0  0  0  0  0  0  0  0  0  0  0
  138.4380  156.6700  132.9810 H   0  0  0  0  0  0  0  0  0  0  0  0
  142.9856  155.0532  133.1656 H   0  0  0  0  0  0  0  0  0  0  0  0
  145.2711  156.7450  133.4249 H   0  0  0  0  0  0  0  0  0  0  0  0
  145.9646  159.1463  133.6951 H   0  0  0  0  0  0  0  0  0  0  0  0
  146.1867  163.7528  134.7671 H   0  0  0  0  0  0  0  0  0  0  0  0
  143.9584  164.4550  133.4939 H   0  0  0  0  0  0  0  0  0  0  0  0
  141.7746  160.3521  133.7489 H   0  0  0  0  0  0  0  0  0  0  0  0
  1  2  1  0
  2  3  1  0
  3  4  2  0
  3  5  1  0
  5  6  1  0
  6  7  1  0
  7  8  1  0
  7  9  2  0
  6 10  2  0
 10 11  1  0
 11 12  2  0
 12 13  1  0
 13 14  2  0
 14 15  1  0
 15 16  2  0
 16 17  1  0
 17 18  2  0
 18 19  1  0
 14 20  1  0
 20 21  2  0
 21  5  1  0
 21 11  1  0
 19 15  1  0
  1 22  1  0
  1 23  1  0
  1 24  1  0
  8 25  1  0
  8 26  1  0
 10 27  1  0
 12 28  1  0
 13 29  1  0
 17 30  1  0
 18 31  1  0
 20 32  1  0
M  END
>  <UniqueID>  (51) 
50

>  <SMILES>  (51) 
COC(=O)n1c(C(N)=O)cc2ccc(-c3ncco3)cc21

>  <Energy>  (51) 
101.21611866414204

>  <Genealogy>  (51) 
COC(=O)n1c(C(N)=O)cc2ccc(-c3ncco3)cc21 (3D coordinates assigned)
COC(=O)n1c(C(N)=O)cc2ccc(-c3ncco3)cc21 (optimized conformer: 101.21611866414204 kcal/mol)

>  <smiles>  (51) 
COC(=O)n1c(C(N)=O)cc2ccc(-c3ncco3)cc21

>  <score_type>  (51) 
oracle

>  <origin>  (51) 
adg

>  <m_score__min__energy>  (51) 
-6.2999999999999998

>  <m_primary>  (51) 
energy

$$$$
51:0
     RDKit          3D

 40 41  0  0  0  0  0  0  0  0999 V2000
  147.8360  150.6960  131.8120 C   0  0  0  0  0  0  0  0  0  0  0  0
  149.0770  151.4640  131.6120 N   0  0  0  0  0  0  0  0  0  0  0  0
  150.0340  150.6630  130.8340 C   0  0  0  0  0  0  0  0  0  0  0  0
  149.6650  151.8690  132.9080 C   0  0  0  0  0  0  0  0  0  0  0  0
  148.8540  153.0010  133.5510 C   0  0  0  0  0  0  0  0  0  0  0  0
  148.1390  153.7760  132.5340 N   0  0  0  0  0  0  0  0  0  0  0  0
  147.1950  154.8260  132.8170 C   0  0  0  0  0  0  0  0  0  0  0  0
  145.8210  154.5510  133.0570 C   0  0  0  0  0  0  0  0  0  0  0  0
  144.9150  155.5930  133.3150 C   0  0  0  0  0  0  0  0  0  0  0  0
  145.4080  156.8940  133.3470 C   0  0  0  0  0  0  0  0  0  0  0  0
  144.7490  158.0840  133.5470 C   0  0  0  0  0  0  0  0  0  0  0  0
  145.7320  159.0680  133.4670 C   0  0  0  0  0  0  0  0  0  0  0  0
  145.4680  160.5020  133.7100 C   0  0  0  0  0  0  0  0  0  0  0  0
  146.5320  161.4500  133.7350 N   0  0  0  0  0  0  0  0  0  0  0  0
  144.2920  160.8890  133.9460 O   0  0  0  0  0  0  0  0  0  0  0  0
  146.9490  158.5090  133.2190 N   0  0  0  0  0  0  0  0  0  0  0  0
  148.1910  159.1860  132.9710 C   0  0  0  0  0  0  0  0  0  0  0  0
  148.7800  159.7780  133.9160 O   0  0  0  0  0  0  0  0  0  0  0  0
  148.7470  159.1580  131.6840 O   0  0  0  0  0  0  0  0  0  0  0  0
  148.9520  160.2820  130.8730 C   0  0  0  0  0  0  0  0  0  0  0  0
  148.5230  161.4190  131.2040 O   0  0  0  0  0  0  0  0  0  0  0  0
  149.6410  160.1360  129.6770 O   0  0  0  0  0  0  0  0  0  0  0  0
  146.7340  157.1760  133.1510 C   0  0  0  0  0  0  0  0  0  0  0  0
  147.6550  156.1590  132.8750 C   0  0  0  0  0  0  0  0  0  0  0  0
  147.6468  150.5789  132.8893 H   0  0  0  0  0  0  0  0  0  0  0  0
  146.9946  151.2315  131.3480 H   0  0  0  0  0  0  0  0  0  0  0  0
  147.9399  149.7041  131.3480 H   0  0  0  0  0  0  0  0  0  0  0  0
  150.6933  150.1111  131.5201 H   0  0  0  0  0  0  0  0  0  0  0  0
  149.4858  149.9506  130.2000 H   0  0  0  0  0  0  0  0  0  0  0  0
  150.6387  151.3281  130.2000 H   0  0  0  0  0  0  0  0  0  0  0  0
  149.6728  151.0026  133.5857 H   0  0  0  0  0  0  0  0  0  0  0  0
  150.6890  152.2293  132.7304 H   0  0  0  0  0  0  0  0  0  0  0  0
  148.1252  152.5683  134.2522 H   0  0  0  0  0  0  0  0  0  0  0  0
  149.5464  153.6717  134.0809 H   0  0  0  0  0  0  0  0  0  0  0  0
  148.2540  153.4720  131.5400 H   0  0  0  0  0  0  0  0  0  0  0  0
  145.4634  153.5109  133.0405 H   0  0  0  0  0  0  0  0  0  0  0  0
  143.8482  155.3869  133.4865 H   0  0  0  0  0  0  0  0  0  0  0  0
  143.6742  158.2284  133.7310 H   0  0  0  0  0  0  0  0  0  0  0  0
  147.3360  161.3740  133.0740 H   0  0  0  0  0  0  0  0  0  0  0  0
  148.7163  156.3940  132.7066 H   0  0  0  0  0  0  0  0  0  0  0  0
  1  2  1  0
  2  3  1  0
  2  4  1  0
  4  5  1  0
  5  6  1  0
  6  7  1  0
  7  8  2  0
  8  9  1  0
  9 10  2  0
 10 11  1  0
 11 12  2  0
 12 13  1  0
 13 14  1  0
 13 15  2  0
 12 16  1  0
 16 17  1  0
 17 18  2  0
 17 19  1  0
 19 20  1  0
 20 21  2  0
 20 22  1  0
 16 23  1  0
 23 24  2  0
 24  7  1  0
 23 10  1  0
  1 25  1  0
  1 26  1  0
  1 27  1  0
  3 28  1  0
  3 29  1  0
  3 30  1  0
  4 31  1  0
  4 32  1  0
  5 33  1  0
  5 34  1  0
  6 35  1  0
  8 36  1  0
  9 37  1  0
 11 38  1  0
 14 39  1  0
 24 40  1  0
M  CHG  2  14  -1  22  -1
M  END
>  <UniqueID>  (52) 
51

>  <SMILES>  (52) 
CN(C)CCNc1ccc2cc(C([NH-])=O)n(C(=O)OC(=O)[O-])c2c1

>  <Energy>  (52) 
79.53414201190982

>  <Genealogy>  (52) 
CN(C)CCNc1ccc2cc(C([NH-])=O)n(C(=O)OC(=O)[O-])c2c1 (protonated)
CN(C)CCNc1ccc2cc(C([NH-])=O)n(C(=O)OC(=O)[O-])c2c1 (3D coordinates assigned)
CN(C)CCNc1ccc2cc(C([NH-])=O)n(C(=O)OC(=O)[O-])c2c1 (optimized conformer: 79.53414201190982 kcal/mol)

>  <smiles>  (52) 
CN(C)CCNc1ccc2cc(C(N)=O)n(C(=O)OC(=O)O)c2c1

>  <score_type>  (52) 
oracle

>  <origin>  (52) 
adg

>  <m_score__min__energy>  (52) 
-6.8099999999999996

>  <m_primary>  (52) 
energy

$$$$
52:0
     RDKit          3D

 42 43  0  0  0  0  0  0  0  0999 V2000
  139.7140  159.3260  131.4800 C   0  0  0  0  0  0  0  0  0  0  0  0
  138.7660  158.4310  132.2630 C   0  0  0  0  0  0  0  0  0  0  0  0
  139.4880  157.7420  133.2780 O   0  0  0  0  0  0  0  0  0  0  0  0
  139.8790  156.4070  133.1500 C   0  0  0  0  0  0  0  0  0  0  0  0
  139.1100  155.5620  132.6150 O   0  0  0  0  0  0  0  0  0  0  0  0
  141.2330  155.9740  133.6450 C   0  0  0  0  0  0  0  0  0  0  0  0
  142.0500  157.0830  134.1880 N   0  0  1  0  0  0  0  0  0  0  0  0
  142.5490  156.8020  135.5480 C   0  0  0  0  0  0  0  0  0  0  0  0
  143.1210  157.4400  133.2800 C   0  0  0  0  0  0  0  0  0  0  0  0
  143.3270  156.7600  132.2350 O   0  0  0  0  0  0  0  0  0  0  0  0
  143.8730  158.6480  133.4870 N   0  0  0  0  0  0  0  0  0  0  0  0
  143.4000  159.9040  133.7300 C   0  0  0  0  0  0  0  0  0  0  0  0
  142.0040  160.2540  134.0570 C   0  0  0  0  0  0  0  0  0  0  0  0
  141.2870  159.5320  135.0550 N   0  0  0  0  0  0  0  0  0  0  0  0
  141.4530  161.2310  133.4840 O   0  0  0  0  0  0  0  0  0  0  0  0
  144.4410  160.8290  133.7300 C   0  0  0  0  0  0  0  0  0  0  0  0
  145.5810  160.0950  133.4940 C   0  0  0  0  0  0  0  0  0  0  0  0
  146.9060  160.5060  133.3830 C   0  0  0  0  0  0  0  0  0  0  0  0
  147.8790  159.5270  133.1180 C   0  0  0  0  0  0  0  0  0  0  0  0
  147.5130  158.1640  132.9830 C   0  0  0  0  0  0  0  0  0  0  0  0
  148.5500  157.1280  132.6690 C   0  0  0  0  0  0  0  0  0  0  0  0
  146.1570  157.7880  133.0890 C   0  0  0  0  0  0  0  0  0  0  0  0
  145.2100  158.7820  133.3560 C   0  0  0  0  0  0  0  0  0  0  0  0
  140.3308  159.9083  132.1803 H   0  0  0  0  0  0  0  0  0  0  0  0
  140.3650  158.7054  130.8467 H   0  0  0  0  0  0  0  0  0  0  0  0
  139.1319  160.0116  130.8467 H   0  0  0  0  0  0  0  0  0  0  0  0
  137.9805  159.0463  132.7261 H   0  0  0  0  0  0  0  0  0  0  0  0
  138.3073  157.6999  131.5810 H   0  0  0  0  0  0  0  0  0  0  0  0
  141.0898  155.2267  134.4394 H   0  0  0  0  0  0  0  0  0  0  0  0
  141.7770  155.5673  132.7798 H   0  0  0  0  0  0  0  0  0  0  0  0
  141.4100  157.9070  134.2700 H   0  0  0  0  0  0  0  0  0  0  0  0
  141.8401  157.2012  136.2884 H   0  0  0  0  0  0  0  0  0  0  0  0
  142.6487  155.7151  135.6847 H   0  0  0  0  0  0  0  0  0  0  0  0
  143.5301  157.2803  135.6847 H   0  0  0  0  0  0  0  0  0  0  0  0
  140.5970  158.7930  134.7930 H   0  0  0  0  0  0  0  0  0  0  0  0
  144.3677  161.9155  133.8856 H   0  0  0  0  0  0  0  0  0  0  0  0
  147.1832  161.5642  133.4991 H   0  0  0  0  0  0  0  0  0  0  0  0
  148.9339  159.8209  133.0144 H   0  0  0  0  0  0  0  0  0  0  0  0
  148.9573  156.7211  133.6063 H   0  0  0  0  0  0  0  0  0  0  0  0
  148.0920  156.3160  132.0852 H   0  0  0  0  0  0  0  0  0  0  0  0
  149.3616  157.5868  132.0852 H   0  0  0  0  0  0  0  0  0  0  0  0
  145.8521  156.7384  132.9646 H   0  0  0  0  0  0  0  0  0  0  0  0
  1  2  1  0
  2  3  1  0
  3  4  1  0
  4  5  2  0
  4  6  1  0
  6  7  1  0
  7  8  1  0
  7  9  1  0
  9 10  2  0
  9 11  1  0
 11 12  1  0
 12 13  1  0
 13 14  1  0
 13 15  2  0
 12 16  2  0
 16 17  1  0
 17 18  2  0
 18 19  1  0
 19 20  2  0
 20 21  1  0
 20 22  1  0
 22 23  2  0
 23 11  1  0
 23 17  1  0
  1 24  1  0
  1 25  1  0
  1 26  1  0
  2 27  1  0
  2 28  1  0
  6 29  1  0
  6 30  1  0
  7 31  1  1
  8 32  1  0
  8 33  1  0
  8 34  1  0
 14 35  1  0
 16 36  1  0
 18 37  1  0
 19 38  1  0
 21 39  1  0
 21 40  1  0
 21 41  1  0
 22 42  1  0
M  CHG  2   7   1  14  -1
M  END
>  <UniqueID>  (53) 
52

>  <SMILES>  (53) 
CCOC(=O)C[N@@H+](C)C(=O)n1c(C([NH-])=O)cc2ccc(C)cc21

>  <Energy>  (53) 
77.80737230274923

>  <Genealogy>  (53) 
CCOC(=O)C[NH+](C)C(=O)n1c(C([NH-])=O)cc2ccc(C)cc21 (protonated)
CCOC(=O)C[N@@H+](C)C(=O)n1c(C([NH-])=O)cc2ccc(C)cc21 (chirality)
CCOC(=O)C[N@@H+](C)C(=O)n1c(C([NH-])=O)cc2ccc(C)cc21 (3D coordinates assigned)
CCOC(=O)C[N@@H+](C)C(=O)n1c(C([NH-])=O)cc2ccc(C)cc21 (optimized conformer: 77.80737230274923 kcal/mol)

>  <smiles>  (53) 
CCOC(=O)CN(C)C(=O)n1c(C(N)=O)cc2ccc(C)cc21

>  <score_type>  (53) 
oracle

>  <origin>  (53) 
adg

>  <m_score__min__energy>  (53) 
-5.96

>  <m_primary>  (53) 
energy

$$$$
53:0
     RDKit          3D

 62 64  0  0  0  0  0  0  0  0999 V2000
  140.3030  148.3000  130.3830 C   0  0  0  0  0  0  0  0  0  0  0  0
  139.5690  149.0720  131.4030 N   0  0  0  0  0  0  0  0  0  0  0  0
  138.1520  149.2280  131.0230 C   0  0  0  0  0  0  0  0  0  0  0  0
  140.2230  150.3680  131.7040 C   0  0  0  0  0  0  0  0  0  0  0  0
  140.8450  150.4340  133.0830 C   0  0  0  0  0  0  0  0  0  0  0  0
  140.6070  149.5160  133.9120 O   0  0  0  0  0  0  0  0  0  0  0  0
  141.6930  151.5290  133.4670 N   0  0  0  0  0  0  0  0  0  0  0  0
  141.4780  152.1760  134.7700 C   0  0  0  0  0  0  0  0  0  0  0  0
  142.4860  153.3060  135.0110 C   0  0  0  0  0  0  0  0  0  0  0  0
  142.6550  154.0940  133.7810 N   0  0  0  0  0  0  0  0  0  0  0  0
  142.4910  155.5250  133.7980 C   0  0  0  0  0  0  0  0  0  0  0  0
  141.1960  156.0940  133.8930 C   0  0  0  0  0  0  0  0  0  0  0  0
  141.0250  157.4880  133.9130 C   0  0  0  0  0  0  0  0  0  0  0  0
  142.1630  158.2860  133.8500 C   0  0  0  0  0  0  0  0  0  0  0  0
  142.2830  159.6570  133.8310 C   0  0  0  0  0  0  0  0  0  0  0  0
  143.6520  159.9070  133.7520 C   0  0  0  0  0  0  0  0  0  0  0  0
  144.2330  161.2660  133.7920 C   0  0  0  0  0  0  0  0  0  0  0  0
  145.6140  161.4660  134.0790 N   0  0  0  0  0  0  0  0  0  0  0  0
  143.4900  162.2670  133.6110 O   0  0  0  0  0  0  0  0  0  0  0  0
  144.3500  158.7360  133.7180 N   0  0  0  0  0  0  0  0  0  0  0  0
  145.7640  158.5620  133.5520 C   0  0  0  0  0  0  0  0  0  0  0  0
  146.3770  157.7270  134.2710 O   0  0  0  0  0  0  0  0  0  0  0  0
  146.4410  159.3020  132.5700 O   0  0  0  0  0  0  0  0  0  0  0  0
  147.8610  159.3500  132.3670 C   0  0  0  0  0  0  0  0  0  0  0  0
  148.4980  159.7370  133.7100 C   0  0  0  0  0  0  0  0  0  0  0  0
  148.2220  160.4180  131.3180 C   0  0  0  0  0  0  0  0  0  0  0  0
  148.3980  157.9700  131.9430 C   0  0  0  0  0  0  0  0  0  0  0  0
  143.4240  157.7540  133.7790 C   0  0  0  0  0  0  0  0  0  0  0  0
  143.6230  156.3690  133.7410 C   0  0  0  0  0  0  0  0  0  0  0  0
  142.9430  153.4130  132.5090 C   0  0  0  0  0  0  0  0  0  0  0  0
  142.8670  151.8900  132.6620 C   0  0  0  0  0  0  0  0  0  0  0  0
  140.9797  147.5883  130.8785 H   0  0  0  0  0  0  0  0  0  0  0  0
  139.5875  147.7491  129.7549 H   0  0  0  0  0  0  0  0  0  0  0  0
  140.8893  148.9868  129.7549 H   0  0  0  0  0  0  0  0  0  0  0  0
  139.5880  148.5110  132.2870 H   0  0  0  0  0  0  0  0  0  0  0  0
  137.5343  149.2960  131.9307 H   0  0  0  0  0  0  0  0  0  0  0  0
  138.0309  150.1449  130.4275 H   0  0  0  0  0  0  0  0  0  0  0  0
  137.8343  148.3594  130.4275 H   0  0  0  0  0  0  0  0  0  0  0  0
  141.0137  150.5386  130.9586 H   0  0  0  0  0  0  0  0  0  0  0  0
  139.4382  151.1380  131.6698 H   0  0  0  0  0  0  0  0  0  0  0  0
  140.4605  152.5930  134.7982 H   0  0  0  0  0  0  0  0  0  0  0  0
  141.6139  151.4195  135.5569 H   0  0  0  0  0  0  0  0  0  0  0  0
  142.1167  153.9593  135.8153 H   0  0  0  0  0  0  0  0  0  0  0  0
  143.4547  152.8727  135.3005 H   0  0  0  0  0  0  0  0  0  0  0  0
  140.3158  155.4369  133.9517 H   0  0  0  0  0  0  0  0  0  0  0  0
  140.0220  157.9352  133.9765 H   0  0  0  0  0  0  0  0  0  0  0  0
  141.4710  160.3980  133.8699 H   0  0  0  0  0  0  0  0  0  0  0  0
  146.3410  161.3300  133.3420 H   0  0  0  0  0  0  0  0  0  0  0  0
  147.8751  159.3586  134.5339 H   0  0  0  0  0  0  0  0  0  0  0  0
  149.5039  159.2972  133.7790 H   0  0  0  0  0  0  0  0  0  0  0  0
  148.5712  160.8324  133.7790 H   0  0  0  0  0  0  0  0  0  0  0  0
  148.5342  161.3416  131.8275 H   0  0  0  0  0  0  0  0  0  0  0  0
  149.0457  160.0501  130.6886 H   0  0  0  0  0  0  0  0  0  0  0  0
  147.3440  160.6253  130.6886 H   0  0  0  0  0  0  0  0  0  0  0  0
  148.6294  157.3754  132.8391 H   0  0  0  0  0  0  0  0  0  0  0  0
  147.6371  157.4488  131.3435 H   0  0  0  0  0  0  0  0  0  0  0  0
  149.3111  158.1002  131.3435 H   0  0  0  0  0  0  0  0  0  0  0  0
  144.6365  155.9476  133.6685 H   0  0  0  0  0  0  0  0  0  0  0  0
  142.2081  153.7344  131.7563 H   0  0  0  0  0  0  0  0  0  0  0  0
  143.9633  153.6796  132.1961 H   0  0  0  0  0  0  0  0  0  0  0  0
  142.7845  151.4267  131.6677 H   0  0  0  0  0  0  0  0  0  0  0  0
  143.7767  151.5296  133.1645 H   0  0  0  0  0  0  0  0  0  0  0  0
  1  2  1  0
  2  3  1  0
  2  4  1  0
  4  5  1  0
  5  6  2  0
  5  7  1  0
  7  8  1  0
  8  9  1  0
  9 10  1  0
 10 11  1  0
 11 12  2  0
 12 13  1  0
 13 14  2  0
 14 15  1  0
 15 16  2  0
 16 17  1  0
 17 18  1  0
 17 19  2  0
 16 20  1  0
 20 21  1  0
 21 22  2  0
 21 23  1  0
 23 24  1  0
 24 25  1  0
 24 26  1  0
 24 27  1  0
 20 28  1  0
 28 29  2  0
 10 30  1  0
 30 31  1  0
 31  7  1  0
 29 11  1  0
 28 14  1  0
  1 32  1  0
  1 33  1  0
  1 34  1  0
  2 35  1  0
  3 36  1  0
  3 37  1  0
  3 38  1  0
  4 39  1  0
  4 40  1  0
  8 41  1  0
  8 42  1  0
  9 43  1  0
  9 44  1  0
 12 45  1  0
 13 46  1  0
 15 47  1  0
 18 48  1  0
 25 49  1  0
 25 50  1  0
 25 51  1  0
 26 52  1  0
 26 53  1  0
 26 54  1  0
 27 55  1  0
 27 56  1  0
 27 57  1  0
 29 58  1  0
 30 59  1  0
 30 60  1  0
 31 61  1  0
 31 62  1  0
M  CHG  2   2   1  18  -1
M  END
>  <UniqueID>  (54) 
53

>  <SMILES>  (54) 
C[NH+](C)CC(=O)N1CCN(c2ccc3cc(C([NH-])=O)n(C(=O)OC(C)(C)C)c3c2)CC1

>  <Energy>  (54) 
105.90411989443432

>  <Genealogy>  (54) 
C[NH+](C)CC(=O)N1CCN(c2ccc3cc(C([NH-])=O)n(C(=O)OC(C)(C)C)c3c2)CC1 (protonated)
C[NH+](C)CC(=O)N1CCN(c2ccc3cc(C([NH-])=O)n(C(=O)OC(C)(C)C)c3c2)CC1 (3D coordinates assigned)
C[NH+](C)CC(=O)N1CCN(c2ccc3cc(C([NH-])=O)n(C(=O)OC(C)(C)C)c3c2)CC1 (nonaromatic ring conformer: 105.90411989443432 kcal/mol)

>  <smiles>  (54) 
CN(C)CC(=O)N1CCN(c2ccc3cc(C(N)=O)n(C(=O)OC(C)(C)C)c3c2)CC1

>  <score_type>  (54) 
oracle

>  <origin>  (54) 
adg

>  <m_score__min__energy>  (54) 
-7.8600000000000003

>  <m_primary>  (54) 
energy

$$$$
54:0
     RDKit          3D

 35 36  0  0  0  0  0  0  0  0999 V2000
  139.9990  157.8140  136.1650 C   0  0  0  0  0  0  0  0  0  0  0  0
  140.2120  158.2440  134.7780 N   0  0  0  0  0  0  0  0  0  0  0  0
  139.0890  158.1900  133.8240 C   0  0  0  0  0  0  0  0  0  0  0  0
  139.5840  158.0120  132.3840 C   0  0  0  0  0  0  0  0  0  0  0  0
  139.5670  159.3110  131.6390 C   0  0  0  0  0  0  0  0  0  0  0  0
  138.9630  160.3070  132.1170 O   0  0  0  0  0  0  0  0  0  0  0  0
  140.1800  159.4080  130.3970 O   0  0  0  0  0  0  0  0  0  0  0  0
  141.5110  158.7390  134.3770 C   0  0  0  0  0  0  0  0  0  0  0  0
  141.7330  160.1360  134.2360 C   0  0  0  0  0  0  0  0  0  0  0  0
  142.9880  160.6320  133.8490 C   0  0  0  0  0  0  0  0  0  0  0  0
  144.0050  159.7160  133.6020 C   0  0  0  0  0  0  0  0  0  0  0  0
  145.3170  159.9240  133.2430 C   0  0  0  0  0  0  0  0  0  0  0  0
  145.8770  158.6530  133.1450 C   0  0  0  0  0  0  0  0  0  0  0  0
  147.2640  158.4090  132.7030 C   0  0  0  0  0  0  0  0  0  0  0  0
  147.5870  157.3020  131.8610 N   0  0  0  0  0  0  0  0  0  0  0  0
  148.1700  159.2210  133.0290 O   0  0  0  0  0  0  0  0  0  0  0  0
  144.9530  157.6980  133.4460 N   0  0  0  0  0  0  0  0  0  0  0  0
  145.1610  156.2820  133.5780 C   0  0  0  0  0  0  0  0  0  0  0  0
  145.6010  155.6140  132.6060 O   0  0  0  0  0  0  0  0  0  0  0  0
  144.7410  155.4280  135.1110 S   0  0  0  0  0  0  0  0  0  0  0  0
  143.8110  158.3650  133.7190 C   0  0  0  0  0  0  0  0  0  0  0  0
  142.5770  157.8420  134.1210 C   0  0  0  0  0  0  0  0  0  0  0  0
  140.3808  158.5848  136.8506 H   0  0  0  0  0  0  0  0  0  0  0  0
  138.9234  157.6661  136.3420 H   0  0  0  0  0  0  0  0  0  0  0  0
  140.5331  156.8688  136.3420 H   0  0  0  0  0  0  0  0  0  0  0  0
  138.4380  157.3428  134.0856 H   0  0  0  0  0  0  0  0  0  0  0  0
  138.5381  159.1401  133.8849 H   0  0  0  0  0  0  0  0  0  0  0  0
  140.6130  157.6237  132.4041 H   0  0  0  0  0  0  0  0  0  0  0  0
  138.9128  157.3080  131.8703 H   0  0  0  0  0  0  0  0  0  0  0  0
  140.9097  160.8384  134.4329 H   0  0  0  0  0  0  0  0  0  0  0  0
  143.1619  161.7131  133.7442 H   0  0  0  0  0  0  0  0  0  0  0  0
  145.8168  160.8886  133.0703 H   0  0  0  0  0  0  0  0  0  0  0  0
  148.5790  157.1220  131.5890 H   0  0  0  0  0  0  0  0  0  0  0  0
  146.8400  156.7050  131.4420 H   0  0  0  0  0  0  0  0  0  0  0  0
  142.4376  156.7569  134.2358 H   0  0  0  0  0  0  0  0  0  0  0  0
  1  2  1  0
  2  3  1  0
  3  4  1  0
  4  5  1  0
  5  6  2  0
  5  7  1  0
  2  8  1  0
  8  9  2  0
  9 10  1  0
 10 11  2  0
 11 12  1  0
 12 13  2  0
 13 14  1  0
 14 15  1  0
 14 16  2  0
 13 17  1  0
 17 18  1  0
 18 19  2  0
 18 20  1  0
 17 21  1  0
 21 22  2  0
 22  8  1  0
 21 11  1  0
  1 23  1  0
  1 24  1  0
  1 25  1  0
  3 26  1  0
  3 27  1  0
  4 28  1  0
  4 29  1  0
  9 30  1  0
 10 31  1  0
 12 32  1  0
 15 33  1  0
 15 34  1  0
 22 35  1  0
M  CHG  2   7  -1  20  -1
M  END
>  <UniqueID>  (55) 
54

>  <SMILES>  (55) 
CN(CCC(=O)[O-])c1ccc2cc(C(N)=O)n(C(=O)[S-])c2c1

>  <Energy>  (55) 
74.84901295604203

>  <Genealogy>  (55) 
CN(CCC(=O)[O-])c1ccc2cc(C(N)=O)n(C(=O)[S-])c2c1 (protonated)
CN(CCC(=O)[O-])c1ccc2cc(C(N)=O)n(C(=O)[S-])c2c1 (3D coordinates assigned)
CN(CCC(=O)[O-])c1ccc2cc(C(N)=O)n(C(=O)[S-])c2c1 (optimized conformer: 74.84901295604203 kcal/mol)

>  <smiles>  (55) 
CN(CCC(=O)O)c1ccc2cc(C(N)=O)n(C(=O)S)c2c1

>  <score_type>  (55) 
oracle

>  <origin>  (55) 
adg

>  <m_score__min__energy>  (55) 
-6.75

>  <m_primary>  (55) 
energy

$$$$
55:0
     RDKit          3D

 29 30  0  0  0  0  0  0  0  0999 V2000
  146.8400  155.4120  131.8940 N   0  0  0  0  0  0  0  0  0  0  0  0
  146.8450  156.0170  133.1880 C   0  0  0  0  0  0  0  0  0  0  0  0
  147.3930  155.4150  134.1490 O   0  0  0  0  0  0  0  0  0  0  0  0
  146.1710  157.3090  133.4320 C   0  0  0  0  0  0  0  0  0  0  0  0
  144.7960  157.4340  133.6190 C   0  0  0  0  0  0  0  0  0  0  0  0
  144.5680  158.7850  133.7410 C   0  0  0  0  0  0  0  0  0  0  0  0
  143.3800  159.4780  133.9530 C   0  0  0  0  0  0  0  0  0  0  0  0
  143.4440  160.8770  134.0690 C   0  0  0  0  0  0  0  0  0  0  0  0
  144.6880  161.5530  133.9770 C   0  0  0  0  0  0  0  0  0  0  0  0
  144.7540  163.0470  134.1170 C   0  0  0  0  0  0  0  0  0  0  0  0
  146.0660  163.4680  133.9950 F   0  0  0  0  0  0  0  0  0  0  0  0
  143.9900  163.6420  133.1290 F   0  0  0  0  0  0  0  0  0  0  0  0
  145.8730  160.8150  133.7640 C   0  0  0  0  0  0  0  0  0  0  0  0
  145.7750  159.4250  133.6370 C   0  0  0  0  0  0  0  0  0  0  0  0
  146.7710  158.5320  133.4530 N   0  0  0  0  0  0  0  0  0  0  0  0
  148.1770  158.8310  133.4080 C   0  0  0  0  0  0  0  0  0  0  0  0
  148.8470  158.8440  134.4750 O   0  0  0  0  0  0  0  0  0  0  0  0
  148.8710  159.0860  132.1060 C   0  0  0  0  0  0  0  0  0  0  0  0
  150.0830  158.3860  132.0810 O   0  0  0  0  0  0  0  0  0  0  0  0
  146.2510  155.7910  131.1230 H   0  0  0  0  0  0  0  0  0  0  0  0
  147.3650  154.5240  131.7310 H   0  0  0  0  0  0  0  0  0  0  0  0
  144.0517  156.6251  133.6603 H   0  0  0  0  0  0  0  0  0  0  0  0
  142.4197  158.9467  134.0275 H   0  0  0  0  0  0  0  0  0  0  0  0
  142.5214  161.4532  134.2326 H   0  0  0  0  0  0  0  0  0  0  0  0
  144.3653  163.3341  135.1052 H   0  0  0  0  0  0  0  0  0  0  0  0
  146.8481  161.3200  133.6996 H   0  0  0  0  0  0  0  0  0  0  0  0
  148.2331  158.7454  131.2771 H   0  0  0  0  0  0  0  0  0  0  0  0
  149.0662  160.1632  131.9981 H   0  0  0  0  0  0  0  0  0  0  0  0
  150.1710  157.9580  132.9720 H   0  0  0  0  0  0  0  0  0  0  0  0
  1  2  1  0
  2  3  2  0
  2  4  1  0
  4  5  2  0
  5  6  1  0
  6  7  2  0
  7  8  1  0
  8  9  2  0
  9 10  1  0
 10 11  1  0
 10 12  1  0
  9 13  1  0
 13 14  2  0
 14 15  1  0
 15 16  1  0
 16 17  2  0
 16 18  1  0
 18 19  1  0
 15  4  1  0
 14  6  1  0
  1 20  1  0
  1 21  1  0
  5 22  1  0
  7 23  1  0
  8 24  1  0
 10 25  1  0
 13 26  1  0
 18 27  1  0
 18 28  1  0
 19 29  1  0
M  END
>  <UniqueID>  (56) 
55

>  <SMILES>  (56) 
NC(=O)c1cc2ccc(C(F)F)cc2n1C(=O)CO

>  <Energy>  (56) 
68.10171840717985

>  <Genealogy>  (56) 
NC(=O)c1cc2ccc(C(F)F)cc2n1C(=O)CO (3D coordinates assigned)
NC(=O)c1cc2ccc(C(F)F)cc2n1C(=O)CO (optimized conformer: 68.10171840717985 kcal/mol)

>  <smiles>  (56) 
NC(=O)c1cc2ccc(C(F)F)cc2n1C(=O)CO

>  <score_type>  (56) 
oracle

>  <origin>  (56) 
adg

>  <m_score__min__energy>  (56) 
-5.9900000000000002

>  <m_primary>  (56) 
energy

$$$$
56:0
     RDKit          3D

 53 55  0  0  0  0  0  0  0  0999 V2000
  149.1100  157.4770  132.2270 C   0  0  0  0  0  0  0  0  0  0  0  0
  148.0130  158.3810  132.7210 C   0  0  0  0  0  0  0  0  0  0  0  0
  148.3170  159.6840  133.1880 C   0  0  0  0  0  0  0  0  0  0  0  0
  147.2940  160.5400  133.6260 C   0  0  0  0  0  0  0  0  0  0  0  0
  145.9850  160.0640  133.5940 C   0  0  0  0  0  0  0  0  0  0  0  0
  144.8030  160.6810  133.9450 C   0  0  0  0  0  0  0  0  0  0  0  0
  143.8040  159.7400  133.6950 C   0  0  0  0  0  0  0  0  0  0  0  0
  142.3630  159.9900  133.9240 C   0  0  0  0  0  0  0  0  0  0  0  0
  141.4490  160.0620  132.8300 N   0  0  0  0  0  0  0  0  0  0  0  0
  141.9330  160.1450  135.1040 O   0  0  0  0  0  0  0  0  0  0  0  0
  144.3490  158.5910  133.2110 N   0  0  0  0  0  0  0  0  0  0  0  0
  143.6630  157.3940  132.8220 C   0  0  0  0  0  0  0  0  0  0  0  0
  142.5580  157.4750  132.2220 O   0  0  0  0  0  0  0  0  0  0  0  0
  144.2800  156.0490  133.0740 C   0  0  0  0  0  0  0  0  0  0  0  0
  144.4450  155.8260  134.5420 C   0  0  0  0  0  0  0  0  0  0  0  0
  145.4090  156.3640  135.1580 O   0  0  0  0  0  0  0  0  0  0  0  0
  143.5550  154.9360  135.2200 N   0  0  0  0  0  0  0  0  0  0  0  0
  142.4200  155.3690  136.0330 C   0  0  0  0  0  0  0  0  0  0  0  0
  142.1060  156.8600  135.8260 C   0  0  0  0  0  0  0  0  0  0  0  0
  141.0320  157.0760  134.8320 N   0  0  0  0  0  0  0  0  0  0  0  0
  140.8010  155.8720  133.9960 C   0  0  0  0  0  0  0  0  0  0  0  0
  139.3970  155.8590  133.3430 C   0  0  0  0  0  0  0  0  0  0  0  0
  138.8320  157.2130  133.1850 N   0  0  0  0  0  0  0  0  0  0  0  0
  139.5160  157.9810  132.1300 C   0  0  0  0  0  0  0  0  0  0  0  0
  138.7570  157.9590  134.4660 C   0  0  0  0  0  0  0  0  0  0  0  0
  139.7870  157.4860  135.5070 C   0  0  0  0  0  0  0  0  0  0  0  0
  145.6800  158.8070  133.1450 C   0  0  0  0  0  0  0  0  0  0  0  0
  146.6720  157.9480  132.6720 C   0  0  0  0  0  0  0  0  0  0  0  0
  149.6400  157.0402  133.0863 H   0  0  0  0  0  0  0  0  0  0  0  0
  148.6748  156.6719  131.6168 H   0  0  0  0  0  0  0  0  0  0  0  0
  149.8171  158.0581  131.6168 H   0  0  0  0  0  0  0  0  0  0  0  0
  149.3619  160.0272  133.2075 H   0  0  0  0  0  0  0  0  0  0  0  0
  147.5191  161.5556  133.9836 H   0  0  0  0  0  0  0  0  0  0  0  0
  144.6748  161.7000  134.3390 H   0  0  0  0  0  0  0  0  0  0  0  0
  141.5580  159.4350  132.0010 H   0  0  0  0  0  0  0  0  0  0  0  0
  143.6284  155.2663  132.6582 H   0  0  0  0  0  0  0  0  0  0  0  0
  145.2675  156.0100  132.5910 H   0  0  0  0  0  0  0  0  0  0  0  0
  141.5358  154.7768  135.7545 H   0  0  0  0  0  0  0  0  0  0  0  0
  142.6795  155.2176  137.0912 H   0  0  0  0  0  0  0  0  0  0  0  0
  141.7901  157.2915  136.7872 H   0  0  0  0  0  0  0  0  0  0  0  0
  143.0172  157.3458  135.4470 H   0  0  0  0  0  0  0  0  0  0  0  0
  141.5597  155.8453  133.2000 H   0  0  0  0  0  0  0  0  0  0  0  0
  140.8702  154.9926  134.6532 H   0  0  0  0  0  0  0  0  0  0  0  0
  139.4745  155.3916  132.3503 H   0  0  0  0  0  0  0  0  0  0  0  0
  138.7262  155.2935  134.0065 H   0  0  0  0  0  0  0  0  0  0  0  0
  140.1801  158.7267  132.5914 H   0  0  0  0  0  0  0  0  0  0  0  0
  140.1100  157.2975  131.5055 H   0  0  0  0  0  0  0  0  0  0  0  0
  138.7686  158.4922  131.5055 H   0  0  0  0  0  0  0  0  0  0  0  0
  138.9331  159.0251  134.2600 H   0  0  0  0  0  0  0  0  0  0  0  0
  137.7584  157.7783  134.8903 H   0  0  0  0  0  0  0  0  0  0  0  0
  140.0043  158.3083  136.2046 H   0  0  0  0  0  0  0  0  0  0  0  0
  139.3755  156.6282  136.0592 H   0  0  0  0  0  0  0  0  0  0  0  0
  146.4144  156.9568  132.2705 H   0  0  0  0  0  0  0  0  0  0  0  0
  1  2  1  0
  2  3  2  0
  3  4  1  0
  4  5  2  0
  5  6  1  0
  6  7  2  0
  7  8  1  0
  8  9  1  0
  8 10  2  0
  7 11  1  0
 11 12  1  0
 12 13  2  0
 12 14  1  0
 14 15  1  0
 15 16  2  0
 15 17  1  0
 17 18  1  0
 18 19  1  0
 19 20  1  0
 20 21  1  0
 21 22  1  0
 22 23  1  0
 23 24  1  0
 23 25  1  0
 25 26  1  0
 11 27  1  0
 27 28  2  0
 28  2  1  0
 27  5  1  0
 26 20  1  0
  1 29  1  0
  1 30  1  0
  1 31  1  0
  3 32  1  0
  4 33  1  0
  6 34  1  0
  9 35  1  0
 14 36  1  0
 14 37  1  0
 18 38  1  0
 18 39  1  0
 19 40  1  0
 19 41  1  0
 21 42  1  0
 21 43  1  0
 22 44  1  0
 22 45  1  0
 24 46  1  0
 24 47  1  0
 24 48  1  0
 25 49  1  0
 25 50  1  0
 26 51  1  0
 26 52  1  0
 28 53  1  0
M  CHG  2   9  -1  17  -1
M  END
>  <UniqueID>  (57) 
56

>  <SMILES>  (57) 
Cc1ccc2cc(C([NH-])=O)n(C(=O)CC(=O)[N-]CCN3CCN(C)CC3)c2c1

>  <Energy>  (57) 
99.73714373230085

>  <Genealogy>  (57) 
Cc1ccc2cc(C([NH-])=O)n(C(=O)CC(=O)[N-]CCN3CCN(C)CC3)c2c1 (protonated)
Cc1ccc2cc(C([NH-])=O)n(C(=O)CC(=O)[N-]CCN3CCN(C)CC3)c2c1 (3D coordinates assigned)
Cc1ccc2cc(C([NH-])=O)n(C(=O)CC(=O)[N-]CCN3CCN(C)CC3)c2c1 (nonaromatic ring conformer: 99.73714373230085 kcal/mol)

>  <smiles>  (57) 
Cc1ccc2cc(C(N)=O)n(C(=O)CC(=O)NCCN3CCN(C)CC3)c2c1

>  <score_type>  (57) 
oracle

>  <origin>  (57) 
adg

>  <m_score__min__energy>  (57) 
-8.1899999999999995

>  <m_primary>  (57) 
energy

$$$$
57:0
     RDKit          3D

 49 50  0  0  0  0  0  0  0  0999 V2000
  141.2210  159.0170  136.4840 C   0  0  0  0  0  0  0  0  0  0  0  0
  140.3420  158.8690  135.3770 O   0  0  0  0  0  0  0  0  0  0  0  0
  140.7570  159.0680  134.0580 C   0  0  0  0  0  0  0  0  0  0  0  0
  140.6410  160.1980  133.5100 O   0  0  0  0  0  0  0  0  0  0  0  0
  141.3870  157.9380  133.3060 C   0  0  0  0  0  0  0  0  0  0  0  0
  142.7400  158.2500  132.9880 O   0  0  0  0  0  0  0  0  0  0  0  0
  143.8130  157.9770  133.8460 C   0  0  0  0  0  0  0  0  0  0  0  0
  143.6900  157.1370  134.7800 O   0  0  0  0  0  0  0  0  0  0  0  0
  145.0800  158.6140  133.6280 N   0  0  0  0  0  0  0  0  0  0  0  0
  145.3550  159.9490  133.5690 C   0  0  0  0  0  0  0  0  0  0  0  0
  144.3730  161.0410  133.7950 C   0  0  0  0  0  0  0  0  0  0  0  0
  143.0160  160.9230  133.3600 N   0  0  0  0  0  0  0  0  0  0  0  0
  144.7290  162.1020  134.3690 O   0  0  0  0  0  0  0  0  0  0  0  0
  146.7170  160.1440  133.3230 C   0  0  0  0  0  0  0  0  0  0  0  0
  147.2620  158.8830  133.2340 C   0  0  0  0  0  0  0  0  0  0  0  0
  148.5730  158.4870  132.9880 C   0  0  0  0  0  0  0  0  0  0  0  0
  148.8440  157.1100  132.9240 C   0  0  0  0  0  0  0  0  0  0  0  0
  147.8040  156.1600  133.0960 C   0  0  0  0  0  0  0  0  0  0  0  0
  148.1090  154.6870  133.0570 C   0  0  0  0  0  0  0  0  0  0  0  0
  146.8540  153.8490  133.3310 C   0  0  0  0  0  0  0  0  0  0  0  0
  146.3480  154.0780  134.6920 N   0  0  0  0  0  0  0  0  0  0  0  0
  144.9050  154.1980  134.9370 C   0  0  0  0  0  0  0  0  0  0  0  0
  147.2650  154.1670  135.7990 C   0  0  0  0  0  0  0  0  0  0  0  0
  147.9570  155.2090  135.9630 O   0  0  0  0  0  0  0  0  0  0  0  0
  147.3870  153.0990  136.6930 O   0  0  0  0  0  0  0  0  0  0  0  0
  148.5070  152.9430  137.5550 C   0  0  0  0  0  0  0  0  0  0  0  0
  146.4880  156.6000  133.3550 C   0  0  0  0  0  0  0  0  0  0  0  0
  146.2530  157.9790  133.4240 C   0  0  0  0  0  0  0  0  0  0  0  0
  140.6512  158.9211  137.4200 H   0  0  0  0  0  0  0  0  0  0  0  0
  141.9952  158.2366  136.4444 H   0  0  0  0  0  0  0  0  0  0  0  0
  141.6969  160.0079  136.4444 H   0  0  0  0  0  0  0  0  0  0  0  0
  141.3600  157.0297  133.9259 H   0  0  0  0  0  0  0  0  0  0  0  0
  140.8286  157.7736  132.3727 H   0  0  0  0  0  0  0  0  0  0  0  0
  142.3380  161.6920  133.5610 H   0  0  0  0  0  0  0  0  0  0  0  0
  142.6730  160.0980  132.8180 H   0  0  0  0  0  0  0  0  0  0  0  0
  147.2435  161.1045  133.2217 H   0  0  0  0  0  0  0  0  0  0  0  0
  149.3726  159.2293  132.8480 H   0  0  0  0  0  0  0  0  0  0  0  0
  149.8720  156.7650  132.7388 H   0  0  0  0  0  0  0  0  0  0  0  0
  148.5018  154.4289  132.0625 H   0  0  0  0  0  0  0  0  0  0  0  0
  148.8507  154.4659  133.8386 H   0  0  0  0  0  0  0  0  0  0  0  0
  146.0733  154.1249  132.6069 H   0  0  0  0  0  0  0  0  0  0  0  0
  147.1170  152.7855  133.2317 H   0  0  0  0  0  0  0  0  0  0  0  0
  144.7171  154.2136  136.0207 H   0  0  0  0  0  0  0  0  0  0  0  0
  144.5329  155.1302  134.4869 H   0  0  0  0  0  0  0  0  0  0  0  0
  144.3841  153.3401  134.4869 H   0  0  0  0  0  0  0  0  0  0  0  0
  148.1731  152.9895  138.6021 H   0  0  0  0  0  0  0  0  0  0  0  0
  148.9833  151.9698  137.3649 H   0  0  0  0  0  0  0  0  0  0  0  0
  149.2311  153.7490  137.3649 H   0  0  0  0  0  0  0  0  0  0  0  0
  145.6694  155.8795  133.4987 H   0  0  0  0  0  0  0  0  0  0  0  0
  1  2  1  0
  2  3  1  0
  3  4  2  0
  3  5  1  0
  5  6  1  0
  6  7  1  0
  7  8  2  0
  7  9  1  0
  9 10  1  0
 10 11  1  0
 11 12  1  0
 11 13  2  0
 10 14  2  0
 14 15  1  0
 15 16  2  0
 16 17  1  0
 17 18  2  0
 18 19  1  0
 19 20  1  0
 20 21  1  0
 21 22  1  0
 21 23  1  0
 23 24  2  0
 23 25  1  0
 25 26  1  0
 18 27  1  0
 27 28  2  0
 28  9  1  0
 28 15  1  0
  1 29  1  0
  1 30  1  0
  1 31  1  0
  5 32  1  0
  5 33  1  0
 12 34  1  0
 12 35  1  0
 14 36  1  0
 16 37  1  0
 17 38  1  0
 19 39  1  0
 19 40  1  0
 20 41  1  0
 20 42  1  0
 22 43  1  0
 22 44  1  0
 22 45  1  0
 26 46  1  0
 26 47  1  0
 26 48  1  0
 27 49  1  0
M  END
>  <UniqueID>  (58) 
57

>  <SMILES>  (58) 
COC(=O)COC(=O)n1c(C(N)=O)cc2ccc(CCN(C)C(=O)OC)cc21

>  <Energy>  (58) 
74.5794425565637

>  <Genealogy>  (58) 
COC(=O)COC(=O)n1c(C(N)=O)cc2ccc(CCN(C)C(=O)OC)cc21 (3D coordinates assigned)
COC(=O)COC(=O)n1c(C(N)=O)cc2ccc(CCN(C)C(=O)OC)cc21 (optimized conformer: 74.5794425565637 kcal/mol)

>  <smiles>  (58) 
COC(=O)COC(=O)n1c(C(N)=O)cc2ccc(CCN(C)C(=O)OC)cc21

>  <score_type>  (58) 
oracle

>  <origin>  (58) 
adg

>  <m_score__min__energy>  (58) 
-6.7199999999999998

>  <m_primary>  (58) 
energy

$$$$
58:0
     RDKit          3D

 37 39  0  0  0  0  0  0  0  0999 V2000
  139.0620  158.2460  136.0000 N   0  0  0  0  0  0  0  0  0  0  0  0
  139.5060  157.7620  134.7350 C   0  0  0  0  0  0  0  0  0  0  0  0
  138.6570  157.3870  133.8850 O   0  0  0  0  0  0  0  0  0  0  0  0
  140.9540  157.6630  134.4540 C   0  0  0  0  0  0  0  0  0  0  0  0
  141.6040  156.4600  134.1880 C   0  0  0  0  0  0  0  0  0  0  0  0
  142.9020  156.8040  133.8900 C   0  0  0  0  0  0  0  0  0  0  0  0
  143.9870  155.9980  133.5590 C   0  0  0  0  0  0  0  0  0  0  0  0
  145.2230  156.6210  133.3270 C   0  0  0  0  0  0  0  0  0  0  0  0
  145.3580  158.0280  133.4400 C   0  0  0  0  0  0  0  0  0  0  0  0
  146.6310  158.6560  133.1970 N   0  0  0  0  0  0  0  0  0  0  0  0
  146.7040  160.1170  133.0500 C   0  0  0  0  0  0  0  0  0  0  0  0
  148.1070  160.5800  132.6310 C   0  0  0  0  0  0  0  0  0  0  0  0
  148.6490  159.6980  131.5840 N   0  0  0  0  0  0  0  0  0  0  0  0
  149.3910  160.2380  130.4760 C   0  0  0  0  0  0  0  0  0  0  0  0
  149.6080  161.4770  130.3880 O   0  0  0  0  0  0  0  0  0  0  0  0
  149.8830  159.3960  129.4850 O   0  0  0  0  0  0  0  0  0  0  0  0
  148.5390  158.2370  131.7180 C   0  0  0  0  0  0  0  0  0  0  0  0
  147.8430  157.8450  133.0240 C   0  0  0  0  0  0  0  0  0  0  0  0
  144.2310  158.8130  133.7740 C   0  0  0  0  0  0  0  0  0  0  0  0
  143.0070  158.1680  133.9830 C   0  0  0  0  0  0  0  0  0  0  0  0
  141.8200  158.7110  134.3320 N   0  0  0  0  0  0  0  0  0  0  0  0
  141.5590  160.1010  134.5900 C   0  0  0  0  0  0  0  0  0  0  0  0
  140.9960  160.4540  135.6600 O   0  0  0  0  0  0  0  0  0  0  0  0
  141.9000  161.0660  133.6510 O   0  0  0  0  0  0  0  0  0  0  0  0
  139.3720  159.1770  136.3580 H   0  0  0  0  0  0  0  0  0  0  0  0
  141.1710  155.4491  134.2113 H   0  0  0  0  0  0  0  0  0  0  0  0
  143.8792  154.9060  133.4816 H   0  0  0  0  0  0  0  0  0  0  0  0
  146.0968  156.0110  133.0544 H   0  0  0  0  0  0  0  0  0  0  0  0
  145.9811  160.4341  132.2839 H   0  0  0  0  0  0  0  0  0  0  0  0
  146.4721  160.5702  134.0251 H   0  0  0  0  0  0  0  0  0  0  0  0
  148.0485  161.6080  132.2440 H   0  0  0  0  0  0  0  0  0  0  0  0
  148.7709  160.5423  133.5072 H   0  0  0  0  0  0  0  0  0  0  0  0
  147.9582  157.8430  130.8710 H   0  0  0  0  0  0  0  0  0  0  0  0
  149.5542  157.8135  131.7269 H   0  0  0  0  0  0  0  0  0  0  0  0
  147.5693  156.7802  132.9880 H   0  0  0  0  0  0  0  0  0  0  0  0
  148.5248  158.0208  133.8692 H   0  0  0  0  0  0  0  0  0  0  0  0
  144.3143  159.9059  133.8675 H   0  0  0  0  0  0  0  0  0  0  0  0
  1  2  1  0
  2  3  2  0
  2  4  1  0
  4  5  2  0
  5  6  1  0
  6  7  2  0
  7  8  1  0
  8  9  2  0
  9 10  1  0
 10 11  1  0
 11 12  1  0
 12 13  1  0
 13 14  1  0
 14 15  2  0
 14 16  1  0
 13 17  1  0
 17 18  1  0
  9 19  1  0
 19 20  2  0
 20 21  1  0
 21 22  1  0
 22 23  2  0
 22 24  1  0
 21  4  1  0
 20  6  1  0
 18 10  1  0
  1 25  1  0
  5 26  1  0
  7 27  1  0
  8 28  1  0
 11 29  1  0
 11 30  1  0
 12 31  1  0
 12 32  1  0
 17 33  1  0
 17 34  1  0
 18 35  1  0
 18 36  1  0
 19 37  1  0
M  CHG  3   1  -1  16  -1  24  -1
M  END
>  <UniqueID>  (59) 
58

>  <SMILES>  (59) 
[NH-]C(=O)c1cc2ccc(N3CCN(C(=O)[O-])CC3)cc2n1C(=O)[O-]

>  <Energy>  (59) 
82.06912559653453

>  <Genealogy>  (59) 
[NH-]C(=O)c1cc2ccc(N3CCN(C(=O)[O-])CC3)cc2n1C(=O)[O-] (protonated)
[NH-]C(=O)c1cc2ccc(N3CCN(C(=O)[O-])CC3)cc2n1C(=O)[O-] (3D coordinates assigned)
[NH-]C(=O)c1cc2ccc(N3CCN(C(=O)[O-])CC3)cc2n1C(=O)[O-] (nonaromatic ring conformer: 82.06912559653453 kcal/mol)

>  <smiles>  (59) 
NC(=O)c1cc2ccc(N3CCN(C(=O)O)CC3)cc2n1C(=O)O

>  <score_type>  (59) 
oracle

>  <origin>  (59) 
adg

>  <m_score__min__energy>  (59) 
-7.2699999999999996

>  <m_primary>  (59) 
energy

$$$$
59:0
     RDKit          3D

 34 35  0  0  0  0  0  0  0  0999 V2000
  138.2070  158.2460  132.5890 N   0  0  0  0  0  0  0  0  0  0  0  0
  139.3900  158.8480  133.1110 C   0  0  0  0  0  0  0  0  0  0  0  0
  139.8910  159.8400  132.5190 O   0  0  0  0  0  0  0  0  0  0  0  0
  140.0360  158.2770  134.3120 C   0  0  0  0  0  0  0  0  0  0  0  0
  140.2520  159.0010  135.4830 C   0  0  0  0  0  0  0  0  0  0  0  0
  140.7840  158.0990  136.3770 C   0  0  0  0  0  0  0  0  0  0  0  0
  141.1980  158.2810  137.6930 C   0  0  0  0  0  0  0  0  0  0  0  0
  141.7370  157.1750  138.3720 C   0  0  0  0  0  0  0  0  0  0  0  0
  141.8560  155.9220  137.7260 C   0  0  0  0  0  0  0  0  0  0  0  0
  142.4180  154.8070  138.4240 N   0  0  0  0  0  0  0  0  0  0  0  0
  141.4260  155.7740  136.3900 C   0  0  0  0  0  0  0  0  0  0  0  0
  140.8770  156.8860  135.7420 C   0  0  0  0  0  0  0  0  0  0  0  0
  140.4230  156.9810  134.4720 N   0  0  0  0  0  0  0  0  0  0  0  0
  140.4330  155.9400  133.4820 C   0  0  0  0  0  0  0  0  0  0  0  0
  139.3520  155.5860  132.9370 O   0  0  0  0  0  0  0  0  0  0  0  0
  141.6420  155.3120  133.1520 O   0  0  0  0  0  0  0  0  0  0  0  0
  141.8990  153.9410  133.2730 C   0  0  0  0  0  0  0  0  0  0  0  0
  142.6250  153.3380  132.4350 O   0  0  0  0  0  0  0  0  0  0  0  0
  141.3350  153.2460  134.3450 O   0  0  0  0  0  0  0  0  0  0  0  0
  142.0890  152.3730  135.1810 C   0  0  0  0  0  0  0  0  0  0  0  0
  142.1810  152.9080  136.4800 O   0  0  0  0  0  0  0  0  0  0  0  0
  141.3490  151.8830  137.5650 P   0  0  0  0  0  0  0  0  0  0  0  0
  142.3130  151.3230  138.5860 O   0  0  0  0  0  0  0  0  0  0  0  0
  140.1620  152.7810  138.3650 O   0  0  0  0  0  0  0  0  0  0  0  0
  140.6060  150.6090  136.7340 O   0  0  0  0  0  0  0  0  0  0  0  0
  137.9820  157.2460  132.7870 H   0  0  0  0  0  0  0  0  0  0  0  0
  140.0421  160.0668  135.6563 H   0  0  0  0  0  0  0  0  0  0  0  0
  141.1062  159.2599  138.1863 H   0  0  0  0  0  0  0  0  0  0  0  0
  142.0693  157.2845  139.4149 H   0  0  0  0  0  0  0  0  0  0  0  0
  141.9530  153.8720  138.4000 H   0  0  0  0  0  0  0  0  0  0  0  0
  143.3030  154.9090  138.9680 H   0  0  0  0  0  0  0  0  0  0  0  0
  141.5201  154.8087  135.8711 H   0  0  0  0  0  0  0  0  0  0  0  0
  141.5922  151.3926  135.2255 H   0  0  0  0  0  0  0  0  0  0  0  0
  143.1011  152.2608  134.7650 H   0  0  0  0  0  0  0  0  0  0  0  0
  1  2  1  0
  2  3  2  0
  2  4  1  0
  4  5  2  0
  5  6  1  0
  6  7  2  0
  7  8  1  0
  8  9  2  0
  9 10  1  0
  9 11  1  0
 11 12  2  0
 12 13  1  0
 13 14  1  0
 14 15  2  0
 14 16  1  0
 16 17  1  0
 17 18  2  0
 17 19  1  0
 19 20  1  0
 20 21  1  0
 21 22  1  0
 22 23  2  0
 22 24  1  0
 22 25  1  0
 13  4  1  0
 12  6  1  0
  1 26  1  0
  5 27  1  0
  7 28  1  0
  8 29  1  0
 10 30  1  0
 10 31  1  0
 11 32  1  0
 20 33  1  0
 20 34  1  0
M  CHG  3   1  -1  24  -1  25  -1
M  END
>  <UniqueID>  (60) 
59

>  <SMILES>  (60) 
[NH-]C(=O)c1cc2ccc(N)cc2n1C(=O)OC(=O)OCOP(=O)([O-])[O-]

>  <Energy>  (60) 
71.61484340041815

>  <Genealogy>  (60) 
[NH-]C(=O)c1cc2ccc(N)cc2n1C(=O)OC(=O)OCOP(=O)([O-])[O-] (protonated)
[NH-]C(=O)c1cc2ccc(N)cc2n1C(=O)OC(=O)OCOP(=O)([O-])[O-] (3D coordinates assigned)
[NH-]C(=O)c1cc2ccc(N)cc2n1C(=O)OC(=O)OCOP(=O)([O-])[O-] (optimized conformer: 71.61484340041815 kcal/mol)

>  <smiles>  (60) 
NC(=O)c1cc2ccc(N)cc2n1C(=O)OC(=O)OCOP(=O)(O)O

>  <score_type>  (60) 
oracle

>  <origin>  (60) 
adg

>  <m_score__min__energy>  (60) 
-6.3700000000000001

>  <m_primary>  (60) 
energy

$$$$
60:0
     RDKit          3D

 35 36  0  0  0  0  0  0  0  0999 V2000
  144.3780  153.7060  137.3780 N   0  0  0  0  0  0  0  0  0  0  0  0
  142.9620  153.5960  137.2190 C   0  0  0  0  0  0  0  0  0  0  0  0
  142.3770  152.5660  137.6480 O   0  0  0  0  0  0  0  0  0  0  0  0
  142.1850  154.6640  136.5480 C   0  0  0  0  0  0  0  0  0  0  0  0
  141.5240  155.6990  137.2120 C   0  0  0  0  0  0  0  0  0  0  0  0
  140.9870  156.4880  136.2180 C   0  0  0  0  0  0  0  0  0  0  0  0
  140.2210  157.6470  136.3070 C   0  0  0  0  0  0  0  0  0  0  0  0
  139.7800  158.2380  135.1100 C   0  0  0  0  0  0  0  0  0  0  0  0
  140.0920  157.6520  133.8590 C   0  0  0  0  0  0  0  0  0  0  0  0
  139.6400  158.3070  132.5870 C   0  0  0  0  0  0  0  0  0  0  0  0
  139.6020  159.6780  132.7610 F   0  0  0  0  0  0  0  0  0  0  0  0
  140.8840  156.4850  133.8070 C   0  0  0  0  0  0  0  0  0  0  0  0
  141.3260  155.9310  135.0140 C   0  0  0  0  0  0  0  0  0  0  0  0
  142.0690  154.8200  135.1990 N   0  0  0  0  0  0  0  0  0  0  0  0
  142.5750  153.9560  134.1700 C   0  0  0  0  0  0  0  0  0  0  0  0
  141.9510  152.8980  133.8860 O   0  0  0  0  0  0  0  0  0  0  0  0
  143.8060  154.3100  133.4380 C   0  0  0  0  0  0  0  0  0  0  0  0
  143.8830  155.7320  132.6180 S   0  0  0  0  0  0  0  0  0  0  0  0
  144.9010  153.3800  133.3770 N   0  0  0  0  0  0  0  0  0  0  0  0
  144.6020  151.8360  132.6130 Cl  0  0  0  0  0  0  0  0  0  0  0  0
  146.2800  153.8250  133.5930 C   0  0  0  0  0  0  0  0  0  0  0  0
  146.4880  154.5840  135.2390 P   0  0  0  0  0  0  0  0  0  0  0  0
  147.7460  155.4190  135.2710 O   0  0  0  0  0  0  0  0  0  0  0  0
  146.5980  153.3620  136.4030 O   0  0  0  0  0  0  0  0  0  0  0  0
  145.1560  155.5640  135.5910 O   0  0  0  0  0  0  0  0  0  0  0  0
  144.9150  152.9280  137.8210 H   0  0  0  0  0  0  0  0  0  0  0  0
  144.8950  154.5680  137.0990 H   0  0  0  0  0  0  0  0  0  0  0  0
  141.4480  155.8522  138.2986 H   0  0  0  0  0  0  0  0  0  0  0  0
  139.9687  158.0866  137.2833 H   0  0  0  0  0  0  0  0  0  0  0  0
  139.1873  159.1640  135.1454 H   0  0  0  0  0  0  0  0  0  0  0  0
  140.3429  158.0598  131.7778 H   0  0  0  0  0  0  0  0  0  0  0  0
  138.6354  157.9434  132.3251 H   0  0  0  0  0  0  0  0  0  0  0  0
  141.1469  156.0232  132.8438 H   0  0  0  0  0  0  0  0  0  0  0  0
  146.9522  152.9581  133.5117 H   0  0  0  0  0  0  0  0  0  0  0  0
  146.5218  154.5810  132.8314 H   0  0  0  0  0  0  0  0  0  0  0  0
  1  2  1  0
  2  3  2  0
  2  4  1  0
  4  5  2  0
  5  6  1  0
  6  7  2  0
  7  8  1  0
  8  9  2  0
  9 10  1  0
 10 11  1  0
  9 12  1  0
 12 13  2  0
 13 14  1  0
 14 15  1  0
 15 16  2  0
 15 17  1  0
 17 18  2  0
 17 19  1  0
 19 20  1  0
 19 21  1  0
 21 22  1  0
 22 23  2  0
 22 24  1  0
 22 25  1  0
 14  4  1  0
 13  6  1  0
  1 26  1  0
  1 27  1  0
  5 28  1  0
  7 29  1  0
  8 30  1  0
 10 31  1  0
 10 32  1  0
 12 33  1  0
 21 34  1  0
 21 35  1  0
M  CHG  2  24  -1  25  -1
M  END
>  <UniqueID>  (61) 
60

>  <SMILES>  (61) 
NC(=O)c1cc2ccc(CF)cc2n1C(=O)C(=S)N(Cl)CP(=O)([O-])[O-]

>  <Energy>  (61) 
72.04691830050295

>  <Genealogy>  (61) 
NC(=O)c1cc2ccc(CF)cc2n1C(=O)C(=S)N(Cl)CP(=O)([O-])[O-] (protonated)
NC(=O)c1cc2ccc(CF)cc2n1C(=O)C(=S)N(Cl)CP(=O)([O-])[O-] (3D coordinates assigned)
NC(=O)c1cc2ccc(CF)cc2n1C(=O)C(=S)N(Cl)CP(=O)([O-])[O-] (optimized conformer: 72.04691830050295 kcal/mol)

>  <smiles>  (61) 
NC(=O)c1cc2ccc(CF)cc2n1C(=O)C(=S)N(Cl)CP(=O)(O)O

>  <score_type>  (61) 
oracle

>  <origin>  (61) 
adg

>  <m_score__min__energy>  (61) 
-7.1900000000000004

>  <m_primary>  (61) 
energy

$$$$
61:0
     RDKit          3D

 30 31  0  0  0  0  0  0  0  0999 V2000
  149.2400  161.7930  130.3080 C   0  0  0  0  0  0  0  0  0  0  0  0
  149.0440  160.4970  131.0370 C   0  0  0  0  0  0  0  0  0  0  0  0
  150.1200  159.5840  131.1600 C   0  0  0  0  0  0  0  0  0  0  0  0
  149.9640  158.3890  131.8820 C   0  0  0  0  0  0  0  0  0  0  0  0
  148.7270  158.1370  132.4680 C   0  0  0  0  0  0  0  0  0  0  0  0
  148.3150  157.0770  133.2430 C   0  0  0  0  0  0  0  0  0  0  0  0
  146.9910  157.3550  133.5750 C   0  0  0  0  0  0  0  0  0  0  0  0
  146.1310  156.4260  134.3380 C   0  0  0  0  0  0  0  0  0  0  0  0
  144.7350  156.6880  134.4560 N   0  0  0  0  0  0  0  0  0  0  0  0
  146.6220  155.4230  134.9180 O   0  0  0  0  0  0  0  0  0  0  0  0
  146.6010  158.5440  133.0330 N   0  0  0  0  0  0  0  0  0  0  0  0
  145.3440  159.2170  133.2070 C   0  0  0  0  0  0  0  0  0  0  0  0
  144.3150  158.7920  132.6150 O   0  0  0  0  0  0  0  0  0  0  0  0
  145.2710  160.3550  134.0160 O   0  0  0  0  0  0  0  0  0  0  0  0
  144.1300  161.2040  134.0480 C   0  0  0  0  0  0  0  0  0  0  0  0
  142.9200  160.3900  134.3540 C   0  0  0  0  0  0  0  0  0  0  0  0
  143.0260  159.3160  135.0030 O   0  0  0  0  0  0  0  0  0  0  0  0
  141.6620  160.8410  133.9700 O   0  0  0  0  0  0  0  0  0  0  0  0
  147.6750  159.0090  132.3560 C   0  0  0  0  0  0  0  0  0  0  0  0
  147.8080  160.2160  131.6590 C   0  0  0  0  0  0  0  0  0  0  0  0
  149.3633  162.6083  131.0361 H   0  0  0  0  0  0  0  0  0  0  0  0
  150.1383  161.7263  129.6766 H   0  0  0  0  0  0  0  0  0  0  0  0
  148.3622  161.9949  129.6766 H   0  0  0  0  0  0  0  0  0  0  0  0
  151.0860  159.8126  130.6861 H   0  0  0  0  0  0  0  0  0  0  0  0
  150.7943  157.6743  131.9812 H   0  0  0  0  0  0  0  0  0  0  0  0
  148.9057  156.1971  133.5377 H   0  0  0  0  0  0  0  0  0  0  0  0
  144.3710  157.6660  134.4740 H   0  0  0  0  0  0  0  0  0  0  0  0
  144.2638  161.9704  134.8256 H   0  0  0  0  0  0  0  0  0  0  0  0
  144.0074  161.6941  133.0709 H   0  0  0  0  0  0  0  0  0  0  0  0
  146.9710  160.9271  131.5976 H   0  0  0  0  0  0  0  0  0  0  0  0
  1  2  1  0
  2  3  2  0
  3  4  1  0
  4  5  2  0
  5  6  1  0
  6  7  2  0
  7  8  1  0
  8  9  1  0
  8 10  2  0
  7 11  1  0
 11 12  1  0
 12 13  2  0
 12 14  1  0
 14 15  1  0
 15 16  1  0
 16 17  2  0
 16 18  1  0
 11 19  1  0
 19 20  2  0
 20  2  1  0
 19  5  1  0
  1 21  1  0
  1 22  1  0
  1 23  1  0
  3 24  1  0
  4 25  1  0
  6 26  1  0
  9 27  1  0
 15 28  1  0
 15 29  1  0
 20 30  1  0
M  CHG  2   9  -1  18  -1
M  END
>  <UniqueID>  (62) 
61

>  <SMILES>  (62) 
Cc1ccc2cc(C([NH-])=O)n(C(=O)OCC(=O)[O-])c2c1

>  <Energy>  (62) 
65.24358883706394

>  <Genealogy>  (62) 
Cc1ccc2cc(C([NH-])=O)n(C(=O)OCC(=O)[O-])c2c1 (protonated)
Cc1ccc2cc(C([NH-])=O)n(C(=O)OCC(=O)[O-])c2c1 (3D coordinates assigned)
Cc1ccc2cc(C([NH-])=O)n(C(=O)OCC(=O)[O-])c2c1 (optimized conformer: 65.24358883706394 kcal/mol)

>  <smiles>  (62) 
Cc1ccc2cc(C(N)=O)n(C(=O)OCC(=O)O)c2c1

>  <score_type>  (62) 
oracle

>  <origin>  (62) 
adg

>  <m_score__min__energy>  (62) 
-6.1600000000000001

>  <m_primary>  (62) 
energy

$$$$
62:0
     RDKit          3D

 36 37  0  0  0  0  0  0  0  0999 V2000
  148.1970  161.0610  131.2870 N   0  0  0  0  0  0  0  0  0  0  0  0
  149.0130  159.9440  131.6310 C   0  0  0  0  0  0  0  0  0  0  0  0
  150.2570  160.0090  131.4480 O   0  0  0  0  0  0  0  0  0  0  0  0
  148.4270  158.7370  132.2500 C   0  0  0  0  0  0  0  0  0  0  0  0
  149.0450  157.4890  132.2340 C   0  0  0  0  0  0  0  0  0  0  0  0
  148.2280  156.6660  132.9740 C   0  0  0  0  0  0  0  0  0  0  0  0
  148.3510  155.3120  133.2700 C   0  0  0  0  0  0  0  0  0  0  0  0
  147.3340  154.7070  134.0270 C   0  0  0  0  0  0  0  0  0  0  0  0
  146.2160  155.4610  134.4670 C   0  0  0  0  0  0  0  0  0  0  0  0
  145.1210  154.8070  135.2600 C   0  0  0  0  0  0  0  0  0  0  0  0
  145.6670  154.1250  136.3320 F   0  0  0  0  0  0  0  0  0  0  0  0
  144.4280  153.9200  134.4570 F   0  0  0  0  0  0  0  0  0  0  0  0
  146.1240  156.8330  134.1450 C   0  0  0  0  0  0  0  0  0  0  0  0
  147.1630  157.4130  133.4060 C   0  0  0  0  0  0  0  0  0  0  0  0
  147.2700  158.6870  132.9680 N   0  0  0  0  0  0  0  0  0  0  0  0
  146.2950  159.7270  133.1340 C   0  0  0  0  0  0  0  0  0  0  0  0
  146.6220  160.8160  133.6820 O   0  0  0  0  0  0  0  0  0  0  0  0
  144.9770  159.5150  132.7160 O   0  0  0  0  0  0  0  0  0  0  0  0
  143.8630  159.5570  133.6060 C   0  0  0  0  0  0  0  0  0  0  0  0
  142.8260  158.7190  133.1480 O   0  0  0  0  0  0  0  0  0  0  0  0
  141.3290  159.5250  133.3310 P   0  0  1  0  0  0  0  0  0  0  0  0
  141.5430  160.8810  133.9660 O   0  0  0  0  0  0  0  0  0  0  0  0
  140.6010  159.7400  131.8170 O   0  0  0  0  0  0  0  0  0  0  0  0
  140.2690  158.6070  134.2950 O   0  0  0  0  0  0  0  0  0  0  0  0
  140.8420  158.6690  135.8970 P   0  0  0  0  0  0  0  0  0  0  0  0
  140.6830  160.0810  136.4120 O   0  0  0  0  0  0  0  0  0  0  0  0
  142.4780  158.2430  135.9750 O   0  0  0  0  0  0  0  0  0  0  0  0
  139.9370  157.6300  136.8770 O   0  0  0  0  0  0  0  0  0  0  0  0
  147.7310  161.6330  132.0250 H   0  0  0  0  0  0  0  0  0  0  0  0
  149.9873  157.2185  131.7351 H   0  0  0  0  0  0  0  0  0  0  0  0
  149.2187  154.7326  132.9216 H   0  0  0  0  0  0  0  0  0  0  0  0
  147.4053  153.6391  134.2808 H   0  0  0  0  0  0  0  0  0  0  0  0
  144.4319  155.5808  135.6292 H   0  0  0  0  0  0  0  0  0  0  0  0
  145.2584  157.4309  134.4664 H   0  0  0  0  0  0  0  0  0  0  0  0
  144.1847  159.2212  134.6029 H   0  0  0  0  0  0  0  0  0  0  0  0
  143.4875  160.5899  133.6533 H   0  0  0  0  0  0  0  0  0  0  0  0
  1  2  1  0
  2  3  2  0
  2  4  1  0
  4  5  2  0
  5  6  1  0
  6  7  2  0
  7  8  1  0
  8  9  2  0
  9 10  1  0
 10 11  1  0
 10 12  1  0
  9 13  1  0
 13 14  2  0
 14 15  1  0
 15 16  1  0
 16 17  2  0
 16 18  1  0
 18 19  1  0
 19 20  1  0
 20 21  1  0
 21 22  2  0
 21 23  1  6
 21 24  1  0
 24 25  1  0
 25 26  2  0
 25 27  1  0
 25 28  1  0
 15  4  1  0
 14  6  1  0
  1 29  1  0
  5 30  1  0
  7 31  1  0
  8 32  1  0
 10 33  1  0
 13 34  1  0
 19 35  1  0
 19 36  1  0
M  CHG  4   1  -1  23  -1  27  -1  28  -1
M  END
>  <UniqueID>  (63) 
62

>  <SMILES>  (63) 
[NH-]C(=O)c1cc2ccc(C(F)F)cc2n1C(=O)OCO[P@@](=O)([O-])OP(=O)([O-])[O-]

>  <Energy>  (63) 
71.22512168706686

>  <Genealogy>  (63) 
[NH-]C(=O)c1cc2ccc(C(F)F)cc2n1C(=O)OCOP(=O)([O-])OP(=O)([O-])[O-] (protonated)
[NH-]C(=O)c1cc2ccc(C(F)F)cc2n1C(=O)OCO[P@@](=O)([O-])OP(=O)([O-])[O-] (chirality)
[NH-]C(=O)c1cc2ccc(C(F)F)cc2n1C(=O)OCO[P@@](=O)([O-])OP(=O)([O-])[O-] (3D coordinates assigned)
[NH-]C(=O)c1cc2ccc(C(F)F)cc2n1C(=O)OCO[P@@](=O)([O-])OP(=O)([O-])[O-] (optimized conformer: 71.22512168706686 kcal/mol)

>  <smiles>  (63) 
NC(=O)c1cc2ccc(C(F)F)cc2n1C(=O)OCOP(=O)(O)OP(=O)(O)O

>  <score_type>  (63) 
oracle

>  <origin>  (63) 
adg

>  <m_score__min__energy>  (63) 
-6.9699999999999998

>  <m_primary>  (63) 
energy

$$$$
63:0
     RDKit          3D

 31 32  0  0  0  0  0  0  0  0999 V2000
  149.2510  160.4660  130.4220 C   0  0  0  0  0  0  0  0  0  0  0  0
  149.9070  159.2700  131.1050 C   0  0  0  0  0  0  0  0  0  0  0  0
  148.9480  158.6090  132.0570 C   0  0  0  0  0  0  0  0  0  0  0  0
  148.0500  159.3960  132.8220 C   0  0  0  0  0  0  0  0  0  0  0  0
  147.1810  158.7940  133.7480 C   0  0  0  0  0  0  0  0  0  0  0  0
  147.2320  157.4100  133.8850 C   0  0  0  0  0  0  0  0  0  0  0  0
  146.5320  156.5770  134.7280 C   0  0  0  0  0  0  0  0  0  0  0  0
  147.0050  155.2930  134.4570 C   0  0  0  0  0  0  0  0  0  0  0  0
  146.4740  154.0740  135.1020 C   0  0  0  0  0  0  0  0  0  0  0  0
  146.9780  153.6270  136.3560 N   0  0  0  0  0  0  0  0  0  0  0  0
  145.5850  153.3970  134.5180 O   0  0  0  0  0  0  0  0  0  0  0  0
  147.9610  155.3340  133.4870 N   0  0  0  0  0  0  0  0  0  0  0  0
  148.7470  154.2450  132.9790 C   0  0  0  0  0  0  0  0  0  0  0  0
  149.7510  154.4870  132.2560 O   0  0  0  0  0  0  0  0  0  0  0  0
  148.3830  152.8920  133.2950 N   0  0  0  0  0  0  0  0  0  0  0  0
  149.0390  151.7360  132.7580 C   0  0  0  0  0  0  0  0  0  0  0  0
  149.9800  151.8440  131.9270 O   0  0  0  0  0  0  0  0  0  0  0  0
  148.0900  156.6350  133.1480 C   0  0  0  0  0  0  0  0  0  0  0  0
  148.9810  157.2090  132.2340 C   0  0  0  0  0  0  0  0  0  0  0  0
  148.8700  161.1606  131.1852 H   0  0  0  0  0  0  0  0  0  0  0  0
  149.9925  160.9818  129.7942 H   0  0  0  0  0  0  0  0  0  0  0  0
  148.4175  160.1180  129.7942 H   0  0  0  0  0  0  0  0  0  0  0  0
  150.2158  158.5422  130.3402 H   0  0  0  0  0  0  0  0  0  0  0  0
  150.7813  159.6224  131.6719 H   0  0  0  0  0  0  0  0  0  0  0  0
  148.0335  160.4878  132.6894 H   0  0  0  0  0  0  0  0  0  0  0  0
  146.4824  159.3978  134.3458 H   0  0  0  0  0  0  0  0  0  0  0  0
  145.7626  156.8632  135.4602 H   0  0  0  0  0  0  0  0  0  0  0  0
  146.4150  152.9950  136.9680 H   0  0  0  0  0  0  0  0  0  0  0  0
  147.6020  152.7330  133.9690 H   0  0  0  0  0  0  0  0  0  0  0  0
  148.7144  150.7348  133.0777 H   0  0  0  0  0  0  0  0  0  0  0  0
  149.6887  156.5853  131.6682 H   0  0  0  0  0  0  0  0  0  0  0  0
  1  2  1  0
  2  3  1  0
  3  4  2  0
  4  5  1  0
  5  6  2  0
  6  7  1  0
  7  8  2  0
  8  9  1  0
  9 10  1  0
  9 11  2  0
  8 12  1  0
 12 13  1  0
 13 14  2  0
 13 15  1  0
 15 16  1  0
 16 17  2  0
 12 18  1  0
 18 19  2  0
 19  3  1  0
 18  6  1  0
  1 20  1  0
  1 21  1  0
  1 22  1  0
  2 23  1  0
  2 24  1  0
  4 25  1  0
  5 26  1  0
  7 27  1  0
 10 28  1  0
 15 29  1  0
 16 30  1  0
 19 31  1  0
M  CHG  1  10  -1
M  END
>  <UniqueID>  (64) 
63

>  <SMILES>  (64) 
CCc1ccc2cc(C([NH-])=O)n(C(=O)NC=O)c2c1

>  <Energy>  (64) 
67.19063103570032

>  <Genealogy>  (64) 
CCc1ccc2cc(C([NH-])=O)n(C(=O)NC=O)c2c1 (protonated)
CCc1ccc2cc(C([NH-])=O)n(C(=O)NC=O)c2c1 (3D coordinates assigned)
CCc1ccc2cc(C([NH-])=O)n(C(=O)NC=O)c2c1 (optimized conformer: 67.19063103570032 kcal/mol)

>  <smiles>  (64) 
CCc1ccc2cc(C(N)=O)n(C(=O)NC=O)c2c1

>  <score_type>  (64) 
oracle

>  <origin>  (64) 
adg

>  <m_score__min__energy>  (64) 
-6.8600000000000003

>  <m_primary>  (64) 
energy

$$$$
64:0
     RDKit          3D

 35 36  0  0  0  0  0  0  0  0999 V2000
  144.6490  154.8350  131.2510 C   0  0  0  0  0  0  0  0  0  0  0  0
  145.2880  154.0970  132.3570 N   0  0  2  0  0  0  0  0  0  0  0  0
  144.4300  153.0080  132.8820 C   0  0  0  0  0  0  0  0  0  0  0  0
  144.8260  151.6380  132.3980 C   0  0  0  0  0  0  0  0  0  0  0  0
  145.9670  151.4460  131.9030 O   0  0  0  0  0  0  0  0  0  0  0  0
  143.9340  150.5780  132.4930 O   0  0  0  0  0  0  0  0  0  0  0  0
  145.7220  154.9800  133.4210 C   0  0  0  0  0  0  0  0  0  0  0  0
  145.3470  154.7810  134.6100 O   0  0  0  0  0  0  0  0  0  0  0  0
  146.6900  156.0120  133.1560 N   0  0  0  0  0  0  0  0  0  0  0  0
  148.0200  155.8710  132.8920 C   0  0  0  0  0  0  0  0  0  0  0  0
  148.7140  154.6020  132.6000 C   0  0  0  0  0  0  0  0  0  0  0  0
  148.0070  153.3650  132.6110 N   0  0  0  0  0  0  0  0  0  0  0  0
  149.9350  154.6130  132.2890 O   0  0  0  0  0  0  0  0  0  0  0  0
  148.6420  157.1160  132.8310 C   0  0  0  0  0  0  0  0  0  0  0  0
  147.6400  158.0330  133.0510 C   0  0  0  0  0  0  0  0  0  0  0  0
  147.6910  159.4230  133.0860 C   0  0  0  0  0  0  0  0  0  0  0  0
  146.4970  160.1200  133.3380 C   0  0  0  0  0  0  0  0  0  0  0  0
  145.2830  159.4200  133.5660 C   0  0  0  0  0  0  0  0  0  0  0  0
  144.0000  160.1790  133.7880 C   0  0  0  0  0  0  0  0  0  0  0  0
  143.0120  159.6470  132.9800 F   0  0  0  0  0  0  0  0  0  0  0  0
  144.1630  161.5170  133.4800 F   0  0  0  0  0  0  0  0  0  0  0  0
  143.6000  160.0860  135.1100 F   0  0  0  0  0  0  0  0  0  0  0  0
  145.2710  158.0080  133.4950 C   0  0  0  0  0  0  0  0  0  0  0  0
  146.4730  157.3420  133.2390 C   0  0  0  0  0  0  0  0  0  0  0  0
  143.9812  155.6063  131.6624 H   0  0  0  0  0  0  0  0  0  0  0  0
  145.4236  155.3124  130.6330 H   0  0  0  0  0  0  0  0  0  0  0  0
  144.0657  154.1366  130.6330 H   0  0  0  0  0  0  0  0  0  0  0  0
  146.1360  153.6350  131.9560 H   0  0  0  0  0  0  0  0  0  0  0  0
  144.4887  153.0186  133.9804 H   0  0  0  0  0  0  0  0  0  0  0  0
  143.4106  153.1965  132.5142 H   0  0  0  0  0  0  0  0  0  0  0  0
  147.3520  153.1130  131.8380 H   0  0  0  0  0  0  0  0  0  0  0  0
  149.7067  157.3220  132.6464 H   0  0  0  0  0  0  0  0  0  0  0  0
  148.6369  159.9599  132.9215 H   0  0  0  0  0  0  0  0  0  0  0  0
  146.5030  161.2198  133.3588 H   0  0  0  0  0  0  0  0  0  0  0  0
  144.3363  157.4459  133.6381 H   0  0  0  0  0  0  0  0  0  0  0  0
  1  2  1  0
  2  3  1  0
  3  4  1  0
  4  5  2  0
  4  6  1  0
  2  7  1  0
  7  8  2  0
  7  9  1  0
  9 10  1  0
 10 11  1  0
 11 12  1  0
 11 13  2  0
 10 14  2  0
 14 15  1  0
 15 16  2  0
 16 17  1  0
 17 18  2  0
 18 19  1  0
 19 20  1  0
 19 21  1  0
 19 22  1  0
 18 23  1  0
 23 24  2  0
 24  9  1  0
 24 15  1  0
  1 25  1  0
  1 26  1  0
  1 27  1  0
  2 28  1  6
  3 29  1  0
  3 30  1  0
 12 31  1  0
 14 32  1  0
 16 33  1  0
 17 34  1  0
 23 35  1  0
M  CHG  3   2   1   6  -1  12  -1
M  END
>  <UniqueID>  (65) 
64

>  <SMILES>  (65) 
C[N@H+](CC(=O)[O-])C(=O)n1c(C([NH-])=O)cc2ccc(C(F)(F)F)cc21

>  <Energy>  (65) 
79.68219776216678

>  <Genealogy>  (65) 
C[NH+](CC(=O)[O-])C(=O)n1c(C([NH-])=O)cc2ccc(C(F)(F)F)cc21 (protonated)
C[N@H+](CC(=O)[O-])C(=O)n1c(C([NH-])=O)cc2ccc(C(F)(F)F)cc21 (chirality)
C[N@H+](CC(=O)[O-])C(=O)n1c(C([NH-])=O)cc2ccc(C(F)(F)F)cc21 (3D coordinates assigned)
C[N@H+](CC(=O)[O-])C(=O)n1c(C([NH-])=O)cc2ccc(C(F)(F)F)cc21 (optimized conformer: 79.68219776216678 kcal/mol)

>  <smiles>  (65) 
CN(CC(=O)O)C(=O)n1c(C(N)=O)cc2ccc(C(F)(F)F)cc21

>  <score_type>  (65) 
oracle

>  <origin>  (65) 
adg

>  <m_score__min__energy>  (65) 
-5.0800000000000001

>  <m_primary>  (65) 
energy

$$$$
65:0
     RDKit          3D

 40 41  0  0  0  0  0  0  0  0999 V2000
  139.8860  158.9510  133.3740 C   0  0  0  0  0  0  0  0  0  0  0  0
  140.9440  158.3840  134.2300 N   0  0  0  0  0  0  0  0  0  0  0  0
  140.9170  159.0460  135.5480 C   0  0  0  0  0  0  0  0  0  0  0  0
  140.7580  156.9160  134.3470 C   0  0  0  0  0  0  0  0  0  0  0  0
  142.0750  156.1530  134.5540 C   0  0  0  0  0  0  0  0  0  0  0  0
  143.1770  157.0550  134.5460 O   0  0  0  0  0  0  0  0  0  0  0  0
  143.6820  157.6220  133.3710 C   0  0  0  0  0  0  0  0  0  0  0  0
  143.0300  157.5410  132.2950 O   0  0  0  0  0  0  0  0  0  0  0  0
  144.9350  158.3210  133.4010 N   0  0  0  0  0  0  0  0  0  0  0  0
  145.1320  159.6690  133.4370 C   0  0  0  0  0  0  0  0  0  0  0  0
  144.0870  160.6900  133.6510 C   0  0  0  0  0  0  0  0  0  0  0  0
  142.7190  160.4060  133.3670 N   0  0  0  0  0  0  0  0  0  0  0  0
  144.3970  161.8100  134.1380 O   0  0  0  0  0  0  0  0  0  0  0  0
  146.4890  159.9680  133.3350 C   0  0  0  0  0  0  0  0  0  0  0  0
  147.1240  158.7500  133.2410 C   0  0  0  0  0  0  0  0  0  0  0  0
  148.4770  158.4560  133.1180 C   0  0  0  0  0  0  0  0  0  0  0  0
  148.8510  157.1050  133.0170 C   0  0  0  0  0  0  0  0  0  0  0  0
  147.8700  156.0790  133.0160 C   0  0  0  0  0  0  0  0  0  0  0  0
  148.2860  154.6320  132.9450 C   0  0  0  0  0  0  0  0  0  0  0  0
  147.2970  153.9060  132.3080 F   0  0  0  0  0  0  0  0  0  0  0  0
  148.4790  154.1150  134.2140 F   0  0  0  0  0  0  0  0  0  0  0  0
  149.4690  154.4980  132.2390 F   0  0  0  0  0  0  0  0  0  0  0  0
  146.5060  156.4200  133.1660 C   0  0  0  0  0  0  0  0  0  0  0  0
  146.1650  157.7730  133.2820 C   0  0  0  0  0  0  0  0  0  0  0  0
  139.0921  159.3764  134.0055 H   0  0  0  0  0  0  0  0  0  0  0  0
  140.3125  159.7414  132.7389 H   0  0  0  0  0  0  0  0  0  0  0  0
  139.4640  158.1582  132.7389 H   0  0  0  0  0  0  0  0  0  0  0  0
  141.8610  158.5880  133.7700 H   0  0  0  0  0  0  0  0  0  0  0  0
  140.9480  158.2847  136.3414 H   0  0  0  0  0  0  0  0  0  0  0  0
  141.7888  159.7101  135.6427 H   0  0  0  0  0  0  0  0  0  0  0  0
  139.9940  159.6369  135.6427 H   0  0  0  0  0  0  0  0  0  0  0  0
  140.0989  156.7145  135.2043 H   0  0  0  0  0  0  0  0  0  0  0  0
  140.3229  156.5654  133.3995 H   0  0  0  0  0  0  0  0  0  0  0  0
  142.0424  155.6290  135.5206 H   0  0  0  0  0  0  0  0  0  0  0  0
  142.2005  155.4286  133.7358 H   0  0  0  0  0  0  0  0  0  0  0  0
  142.4560  159.6260  132.7260 H   0  0  0  0  0  0  0  0  0  0  0  0
  146.9540  160.9649  133.3305 H   0  0  0  0  0  0  0  0  0  0  0  0
  149.2317  159.2561  133.1003 H   0  0  0  0  0  0  0  0  0  0  0  0
  149.9156  156.8397  132.9378 H   0  0  0  0  0  0  0  0  0  0  0  0
  145.7306  155.6402  133.1910 H   0  0  0  0  0  0  0  0  0  0  0  0
  1  2  1  0
  2  3  1  0
  2  4  1  0
  4  5  1  0
  5  6  1  0
  6  7  1  0
  7  8  2  0
  7  9  1  0
  9 10  1  0
 10 11  1  0
 11 12  1  0
 11 13  2  0
 10 14  2  0
 14 15  1  0
 15 16  2  0
 16 17  1  0
 17 18  2  0
 18 19  1  0
 19 20  1  0
 19 21  1  0
 19 22  1  0
 18 23  1  0
 23 24  2  0
 24  9  1  0
 24 15  1  0
  1 25  1  0
  1 26  1  0
  1 27  1  0
  2 28  1  0
  3 29  1  0
  3 30  1  0
  3 31  1  0
  4 32  1  0
  4 33  1  0
  5 34  1  0
  5 35  1  0
 12 36  1  0
 14 37  1  0
 16 38  1  0
 17 39  1  0
 23 40  1  0
M  CHG  2   2   1  12  -1
M  END
>  <UniqueID>  (66) 
65

>  <SMILES>  (66) 
C[NH+](C)CCOC(=O)n1c(C([NH-])=O)cc2ccc(C(F)(F)F)cc21

>  <Energy>  (66) 
76.44772019074624

>  <Genealogy>  (66) 
C[NH+](C)CCOC(=O)n1c(C([NH-])=O)cc2ccc(C(F)(F)F)cc21 (protonated)
C[NH+](C)CCOC(=O)n1c(C([NH-])=O)cc2ccc(C(F)(F)F)cc21 (3D coordinates assigned)
C[NH+](C)CCOC(=O)n1c(C([NH-])=O)cc2ccc(C(F)(F)F)cc21 (optimized conformer: 76.44772019074624 kcal/mol)

>  <smiles>  (66) 
CN(C)CCOC(=O)n1c(C(N)=O)cc2ccc(C(F)(F)F)cc21

>  <score_type>  (66) 
oracle

>  <origin>  (66) 
adg

>  <m_score__min__energy>  (66) 
-4.21

>  <m_primary>  (66) 
energy

$$$$
66:0
     RDKit          3D

 42 43  0  0  0  0  0  0  0  0999 V2000
  147.9740  153.6150  132.9760 C   0  0  0  0  0  0  0  0  0  0  0  0
  147.0070  154.3980  133.4680 C   0  0  0  0  0  0  0  0  0  0  0  0
  145.6350  153.9460  133.5080 N   0  0  0  0  0  0  0  0  0  0  0  0
  144.9560  153.5550  132.2710 C   0  0  0  0  0  0  0  0  0  0  0  0
  144.9600  153.7070  134.7870 C   0  0  0  0  0  0  0  0  0  0  0  0
  147.3500  155.7000  133.9760 N   0  0  0  0  0  0  0  0  0  0  0  0
  147.5550  155.8790  135.4160 C   0  0  0  0  0  0  0  0  0  0  0  0
  147.5680  156.7930  133.0620 C   0  0  0  0  0  0  0  0  0  0  0  0
  148.5050  156.7380  132.2190 O   0  0  0  0  0  0  0  0  0  0  0  0
  146.7360  157.9600  133.1040 N   0  0  0  0  0  0  0  0  0  0  0  0
  147.1110  159.2530  132.9010 C   0  0  0  0  0  0  0  0  0  0  0  0
  148.4680  159.6910  132.4980 C   0  0  0  0  0  0  0  0  0  0  0  0
  149.6320  158.9870  132.9360 N   0  0  0  0  0  0  0  0  0  0  0  0
  148.6100  160.7050  131.7640 O   0  0  0  0  0  0  0  0  0  0  0  0
  146.0190  160.1040  133.0830 C   0  0  0  0  0  0  0  0  0  0  0  0
  144.9650  159.2810  133.4160 C   0  0  0  0  0  0  0  0  0  0  0  0
  143.6410  159.5910  133.7130 C   0  0  0  0  0  0  0  0  0  0  0  0
  142.7750  158.5330  134.0420 C   0  0  0  0  0  0  0  0  0  0  0  0
  143.2510  157.1990  134.0870 C   0  0  0  0  0  0  0  0  0  0  0  0
  142.3110  156.0760  134.4090 C   0  0  0  0  0  0  0  0  0  0  0  0
  144.5980  156.9220  133.7680 C   0  0  0  0  0  0  0  0  0  0  0  0
  145.4290  157.9930  133.4280 C   0  0  0  0  0  0  0  0  0  0  0  0
  149.0136  153.9738  132.9526 H   0  0  0  0  0  0  0  0  0  0  0  0
  147.7294  152.6125  132.5950 H   0  0  0  0  0  0  0  0  0  0  0  0
  144.0267  153.0199  132.5162 H   0  0  0  0  0  0  0  0  0  0  0  0
  144.7174  154.4540  131.6838 H   0  0  0  0  0  0  0  0  0  0  0  0
  145.6138  152.8974  131.6838 H   0  0  0  0  0  0  0  0  0  0  0  0
  145.6442  153.9493  135.6136 H   0  0  0  0  0  0  0  0  0  0  0  0
  144.0649  154.3428  134.8536 H   0  0  0  0  0  0  0  0  0  0  0  0
  144.6644  152.6496  134.8536 H   0  0  0  0  0  0  0  0  0  0  0  0
  146.8387  155.2535  135.9689 H   0  0  0  0  0  0  0  0  0  0  0  0
  148.5808  155.5824  135.6800 H   0  0  0  0  0  0  0  0  0  0  0  0
  147.3993  156.9354  135.6800 H   0  0  0  0  0  0  0  0  0  0  0  0
  150.5800  159.3300  132.6670 H   0  0  0  0  0  0  0  0  0  0  0  0
  149.5640  158.1060  133.4900 H   0  0  0  0  0  0  0  0  0  0  0  0
  146.0034  161.1992  132.9820 H   0  0  0  0  0  0  0  0  0  0  0  0
  143.2833  160.6310  133.6911 H   0  0  0  0  0  0  0  0  0  0  0  0
  141.7188  158.7428  134.2664 H   0  0  0  0  0  0  0  0  0  0  0  0
  142.2241  155.9722  135.5006 H   0  0  0  0  0  0  0  0  0  0  0  0
  141.3210  156.2925  133.9813 H   0  0  0  0  0  0  0  0  0  0  0  0
  142.6984  155.1395  133.9813 H   0  0  0  0  0  0  0  0  0  0  0  0
  144.9829  155.8917  133.7865 H   0  0  0  0  0  0  0  0  0  0  0  0
  1  2  2  0
  2  3  1  0
  3  4  1  0
  3  5  1  0
  2  6  1  0
  6  7  1  0
  6  8  1  0
  8  9  2  0
  8 10  1  0
 10 11  1  0
 11 12  1  0
 12 13  1  0
 12 14  2  0
 11 15  2  0
 15 16  1  0
 16 17  2  0
 17 18  1  0
 18 19  2  0
 19 20  1  0
 19 21  1  0
 21 22  2  0
 22 10  1  0
 22 16  1  0
  1 23  1  0
  1 24  1  0
  4 25  1  0
  4 26  1  0
  4 27  1  0
  5 28  1  0
  5 29  1  0
  5 30  1  0
  7 31  1  0
  7 32  1  0
  7 33  1  0
 13 34  1  0
 13 35  1  0
 15 36  1  0
 17 37  1  0
 18 38  1  0
 20 39  1  0
 20 40  1  0
 20 41  1  0
 21 42  1  0
M  END
>  <UniqueID>  (67) 
66

>  <SMILES>  (67) 
C=C(N(C)C)N(C)C(=O)n1c(C(N)=O)cc2ccc(C)cc21

>  <Energy>  (67) 
84.15340220490341

>  <Genealogy>  (67) 
C=C(N(C)C)N(C)C(=O)n1c(C(N)=O)cc2ccc(C)cc21 (3D coordinates assigned)
C=C(N(C)C)N(C)C(=O)n1c(C(N)=O)cc2ccc(C)cc21 (optimized conformer: 84.15340220490341 kcal/mol)

>  <smiles>  (67) 
C=C(N(C)C)N(C)C(=O)n1c(C(N)=O)cc2ccc(C)cc21

>  <score_type>  (67) 
oracle

>  <origin>  (67) 
adg

>  <m_score__min__energy>  (67) 
-6.3399999999999999

>  <m_primary>  (67) 
energy

$$$$
67:0
     RDKit          3D

 34 35  0  0  0  0  0  0  0  0999 V2000
  143.9940  154.8710  136.0350 C   0  0  0  0  0  0  0  0  0  0  0  0
  144.6750  154.9710  134.7400 N   0  0  0  0  0  0  0  0  0  0  0  0
  145.9660  154.2980  134.5310 C   0  0  0  0  0  0  0  0  0  0  0  0
  146.7960  154.3670  135.7740 C   0  0  0  0  0  0  0  0  0  0  0  0
  147.5540  155.3510  135.9780 O   0  0  0  0  0  0  0  0  0  0  0  0
  146.7190  153.3500  136.7180 O   0  0  0  0  0  0  0  0  0  0  0  0
  144.0390  155.6950  133.6670 C   0  0  0  0  0  0  0  0  0  0  0  0
  143.6450  155.0820  132.6370 O   0  0  0  0  0  0  0  0  0  0  0  0
  143.8680  157.1160  133.7380 N   0  0  0  0  0  0  0  0  0  0  0  0
  142.7190  157.8090  133.9650 C   0  0  0  0  0  0  0  0  0  0  0  0
  141.3820  157.2090  134.1630 C   0  0  0  0  0  0  0  0  0  0  0  0
  140.9380  156.1630  133.3030 N   0  0  0  0  0  0  0  0  0  0  0  0
  140.6290  157.6090  135.0900 O   0  0  0  0  0  0  0  0  0  0  0  0
  142.9700  159.1800  133.9610 C   0  0  0  0  0  0  0  0  0  0  0  0
  144.3200  159.3020  133.7140 C   0  0  0  0  0  0  0  0  0  0  0  0
  145.1170  160.4380  133.6100 C   0  0  0  0  0  0  0  0  0  0  0  0
  146.4900  160.2590  133.3620 C   0  0  0  0  0  0  0  0  0  0  0  0
  147.0360  158.9580  133.2240 C   0  0  0  0  0  0  0  0  0  0  0  0
  148.5060  158.7890  132.9700 C   0  0  0  0  0  0  0  0  0  0  0  0
  148.9200  159.6890  132.0040 F   0  0  0  0  0  0  0  0  0  0  0  0
  149.2100  159.0170  134.1380 F   0  0  0  0  0  0  0  0  0  0  0  0
  146.1950  157.8280  133.3350 C   0  0  0  0  0  0  0  0  0  0  0  0
  144.8350  158.0400  133.5780 C   0  0  0  0  0  0  0  0  0  0  0  0
  144.7298  154.9790  136.8455 H   0  0  0  0  0  0  0  0  0  0  0  0
  143.2402  155.6681  136.1154 H   0  0  0  0  0  0  0  0  0  0  0  0
  143.5012  153.8909  136.1154 H   0  0  0  0  0  0  0  0  0  0  0  0
  145.7878  153.2439  134.2720 H   0  0  0  0  0  0  0  0  0  0  0  0
  146.5034  154.8017  133.7140 H   0  0  0  0  0  0  0  0  0  0  0  0
  141.5840  155.7310  132.6060 H   0  0  0  0  0  0  0  0  0  0  0  0
  142.2449  159.9916  134.1209 H   0  0  0  0  0  0  0  0  0  0  0  0
  144.6867  161.4445  133.7183 H   0  0  0  0  0  0  0  0  0  0  0  0
  147.1465  161.1372  133.2743 H   0  0  0  0  0  0  0  0  0  0  0  0
  148.6948  157.7631  132.6209 H   0  0  0  0  0  0  0  0  0  0  0  0
  146.5993  156.8101  133.2331 H   0  0  0  0  0  0  0  0  0  0  0  0
  1  2  1  0
  2  3  1  0
  3  4  1  0
  4  5  2  0
  4  6  1  0
  2  7  1  0
  7  8  2  0
  7  9  1  0
  9 10  1  0
 10 11  1  0
 11 12  1  0
 11 13  2  0
 10 14  2  0
 14 15  1  0
 15 16  2  0
 16 17  1  0
 17 18  2  0
 18 19  1  0
 19 20  1  0
 19 21  1  0
 18 22  1  0
 22 23  2  0
 23  9  1  0
 23 15  1  0
  1 24  1  0
  1 25  1  0
  1 26  1  0
  3 27  1  0
  3 28  1  0
 12 29  1  0
 14 30  1  0
 16 31  1  0
 17 32  1  0
 19 33  1  0
 22 34  1  0
M  CHG  2   6  -1  12  -1
M  END
>  <UniqueID>  (68) 
67

>  <SMILES>  (68) 
CN(CC(=O)[O-])C(=O)n1c(C([NH-])=O)cc2ccc(C(F)F)cc21

>  <Energy>  (68) 
69.61589156249956

>  <Genealogy>  (68) 
CN(CC(=O)[O-])C(=O)n1c(C([NH-])=O)cc2ccc(C(F)F)cc21 (protonated)
CN(CC(=O)[O-])C(=O)n1c(C([NH-])=O)cc2ccc(C(F)F)cc21 (3D coordinates assigned)
CN(CC(=O)[O-])C(=O)n1c(C([NH-])=O)cc2ccc(C(F)F)cc21 (optimized conformer: 69.61589156249956 kcal/mol)

>  <smiles>  (68) 
CN(CC(=O)O)C(=O)n1c(C(N)=O)cc2ccc(C(F)F)cc21

>  <score_type>  (68) 
oracle

>  <origin>  (68) 
adg

>  <m_score__min__energy>  (68) 
-5.7300000000000004

>  <m_primary>  (68) 
energy

$$$$
68:0
     RDKit          3D

 43 44  0  0  0  0  0  0  0  0999 V2000
  148.8630  151.2830  135.4030 H   0  0  0  0  0  0  0  0  0  0  0  0
  149.6410  151.1950  134.7140 N   0  0  0  0  0  0  0  0  0  0  0  0
  149.4630  151.3720  133.4430 C   0  0  0  0  0  0  0  0  0  0  0  0
  150.8330  151.1050  132.3270 S   0  0  0  0  0  0  0  0  0  0  0  0
  150.8720  152.4630  131.9640 H   0  0  0  0  0  0  0  0  0  0  0  0
  148.1330  151.6810  132.8830 C   0  0  0  0  0  0  0  0  0  0  0  0
  147.5049  150.8338  132.5702 H   0  0  0  0  0  0  0  0  0  0  0  0
  147.6280  152.9210  132.7250 C   0  0  0  0  0  0  0  0  0  0  0  0
  148.4650  154.1350  132.9280 C   0  0  0  0  0  0  0  0  0  0  0  0
  149.6170  154.1800  132.4230 O   0  0  0  0  0  0  0  0  0  0  0  0
  147.9760  155.2720  133.6690 N   0  0  0  0  0  0  0  0  0  0  0  0
  147.1970  155.2800  134.7900 C   0  0  0  0  0  0  0  0  0  0  0  0
  146.8120  154.1010  135.5880 C   0  0  0  0  0  0  0  0  0  0  0  0
  145.6110  153.9020  135.9050 O   0  0  0  0  0  0  0  0  0  0  0  0
  147.8020  153.1470  135.9670 N   0  0  0  0  0  0  0  0  0  0  0  0
  148.2450  152.5220  135.2570 H   0  0  0  0  0  0  0  0  0  0  0  0
  146.8610  156.5850  135.1440 C   0  0  0  0  0  0  0  0  0  0  0  0
  146.2346  156.9058  135.9894 H   0  0  0  0  0  0  0  0  0  0  0  0
  147.4780  157.3870  134.2130 C   0  0  0  0  0  0  0  0  0  0  0  0
  147.4660  158.7710  134.0770 C   0  0  0  0  0  0  0  0  0  0  0  0
  146.9255  159.4064  134.7940 H   0  0  0  0  0  0  0  0  0  0  0  0
  148.1660  159.3330  132.9950 C   0  0  0  0  0  0  0  0  0  0  0  0
  148.1712  160.4243  132.8568 H   0  0  0  0  0  0  0  0  0  0  0  0
  148.8640  158.5070  132.0820 C   0  0  0  0  0  0  0  0  0  0  0  0
  149.5620  159.1140  130.9020 C   0  0  0  0  0  0  0  0  0  0  0  0
  150.3486  159.7980  131.2532 H   0  0  0  0  0  0  0  0  0  0  0  0
  150.0141  158.3169  130.2935 H   0  0  0  0  0  0  0  0  0  0  0  0
  148.8354  159.6724  130.2935 H   0  0  0  0  0  0  0  0  0  0  0  0
  148.8410  157.1040  132.2430 C   0  0  0  0  0  0  0  0  0  0  0  0
  149.3547  156.4458  131.5268 H   0  0  0  0  0  0  0  0  0  0  0  0
  148.1480  156.5720  133.3370 C   0  0  0  0  0  0  0  0  0  0  0  0
  146.2580  153.0450  132.2850 N   0  0  0  0  0  0  0  0  0  0  0  0
  146.0270  153.7400  131.5370 H   0  0  0  0  0  0  0  0  0  0  0  0
  145.1370  152.2830  132.8340 C   0  0  0  0  0  0  0  0  0  0  0  0
  145.0562  151.3234  132.3023 H   0  0  0  0  0  0  0  0  0  0  0  0
  145.3153  152.1080  133.9052 H   0  0  0  0  0  0  0  0  0  0  0  0
  143.8590  153.0450  132.6730 C   0  0  0  0  0  0  0  0  0  0  0  0
  143.8240  154.0490  131.9100 O   0  0  0  0  0  0  0  0  0  0  0  0
  142.7050  152.6080  133.3310 O   0  0  0  0  0  0  0  0  0  0  0  0
  141.6390  151.9570  132.6520 C   0  0  0  0  0  0  0  0  0  0  0  0
  140.9414  151.5309  133.3880 H   0  0  0  0  0  0  0  0  0  0  0  0
  141.1073  152.6847  132.0213 H   0  0  0  0  0  0  0  0  0  0  0  0
  142.0435  151.1517  132.0213 H   0  0  0  0  0  0  0  0  0  0  0  0
  1  2  1  0
  2  3  2  0
  3  4  1  0
  4  5  1  0
  3  6  1  0
  6  7  1  0
  6  8  2  0
  8  9  1  0
  9 10  2  0
  9 11  1  0
 11 12  1  0
 12 13  1  0
 13 14  2  0
 13 15  1  0
 15 16  1  0
 12 17  2  0
 17 18  1  0
 17 19  1  0
 19 20  2  0
 20 21  1  0
 20 22  1  0
 22 23  1  0
 22 24  2  0
 24 25  1  0
 25 26  1  0
 25 27  1  0
 25 28  1  0
 24 29  1  0
 29 30  1  0
 29 31  2  0
  8 32  1  0
 32 33  1  0
 32 34  1  0
 34 35  1  0
 34 36  1  0
 34 37  1  0
 37 38  2  0
 37 39  1  0
 39 40  1  0
 40 41  1  0
 40 42  1  0
 40 43  1  0
 31 11  1  0
 31 19  1  0
M  CHG  1  15  -1
M  END
>  <UniqueID>  (69) 
68

>  <SMILES>  (69) 
[H]/N=C(S)\C=C(\NCC(=O)OC)C(=O)n1c(C([NH-])=O)cc2ccc(C)cc21

>  <Energy>  (69) 
83.98268553938351

>  <Genealogy>  (69) 
COC(=O)CN/C(=C/C(=N)S)C(=O)n1c(C([NH-])=O)cc2ccc(C)cc21 (protonated)
[H]/N=C(S)\C=C(\NCC(=O)OC)C(=O)n1c(C([NH-])=O)cc2ccc(C)cc21 (cis-trans isomerization)
[H]/N=C(S)\C=C(\NCC(=O)OC)C(=O)n1c(C([NH-])=O)cc2ccc(C)cc21 (3D coordinates assigned)
[H]/N=C(S)\C=C(\NCC(=O)OC)C(=O)n1c(C([NH-])=O)cc2ccc(C)cc21 (optimized conformer: 83.98268553938351 kcal/mol)

>  <smiles>  (69) 
COC(=O)CN/C(=C/C(=N)S)C(=O)n1c(C(N)=O)cc2ccc(C)cc21

>  <score_type>  (69) 
oracle

>  <origin>  (69) 
adg

>  <m_score__min__energy>  (69) 
-6.96

>  <m_primary>  (69) 
energy

$$$$
69:0
     RDKit          3D

 48 50  0  0  0  0  0  0  0  0999 V2000
  139.1040  146.3070  129.1280 C   0  0  0  0  0  0  0  0  0  0  0  0
  139.2580  147.0630  130.4430 C   0  0  0  0  0  0  0  0  0  0  0  0
  140.0500  148.2850  130.2380 N   0  0  0  0  0  0  0  0  0  0  0  0
  139.4400  149.4730  130.8640 C   0  0  0  0  0  0  0  0  0  0  0  0
  140.1710  149.9080  132.1560 C   0  0  1  0  0  0  0  0  0  0  0  0
  141.5860  149.3300  132.2370 C   0  0  0  0  0  0  0  0  0  0  0  0
  142.4040  150.3630  132.9990 C   0  0  0  0  0  0  0  0  0  0  0  0
  141.6630  151.6120  132.8890 N   0  0  0  0  0  0  0  0  0  0  0  0
  142.1650  152.8910  133.3420 C   0  0  0  0  0  0  0  0  0  0  0  0
  143.4290  152.9850  133.9880 C   0  0  0  0  0  0  0  0  0  0  0  0
  143.9300  154.2230  134.4200 C   0  0  0  0  0  0  0  0  0  0  0  0
  143.1520  155.3550  134.2030 C   0  0  0  0  0  0  0  0  0  0  0  0
  143.4080  156.6740  134.5010 C   0  0  0  0  0  0  0  0  0  0  0  0
  142.2900  157.3760  134.0550 C   0  0  0  0  0  0  0  0  0  0  0  0
  142.0950  158.8300  134.2560 C   0  0  0  0  0  0  0  0  0  0  0  0
  141.8580  159.6960  133.1450 N   0  0  0  0  0  0  0  0  0  0  0  0
  142.1700  159.3220  135.4140 O   0  0  0  0  0  0  0  0  0  0  0  0
  141.3810  156.5240  133.5030 N   0  0  0  0  0  0  0  0  0  0  0  0
  140.1340  156.8670  132.8750 C   0  0  0  0  0  0  0  0  0  0  0  0
  139.0910  156.2190  133.1610 O   0  0  0  0  0  0  0  0  0  0  0  0
  140.0980  157.9090  131.9370 O   0  0  0  0  0  0  0  0  0  0  0  0
  139.2350  159.0100  131.9940 C   0  0  0  0  0  0  0  0  0  0  0  0
  137.9830  158.8660  131.9630 O   0  0  0  0  0  0  0  0  0  0  0  0
  139.7700  160.2870  132.0850 O   0  0  0  0  0  0  0  0  0  0  0  0
  141.9240  155.2900  133.6030 C   0  0  0  0  0  0  0  0  0  0  0  0
  141.4060  154.0730  133.1450 C   0  0  0  0  0  0  0  0  0  0  0  0
  140.3600  151.4230  132.2700 C   0  0  0  0  0  0  0  0  0  0  0  0
  138.8884  145.2487  129.3366 H   0  0  0  0  0  0  0  0  0  0  0  0
  138.2762  146.7427  128.5493 H   0  0  0  0  0  0  0  0  0  0  0  0
  140.0363  146.3842  128.5493 H   0  0  0  0  0  0  0  0  0  0  0  0
  138.2626  147.3351  130.8241 H   0  0  0  0  0  0  0  0  0  0  0  0
  139.7753  146.4182  131.1686 H   0  0  0  0  0  0  0  0  0  0  0  0
  140.1740  148.4440  129.2110 H   0  0  0  0  0  0  0  0  0  0  0  0
  139.4710  150.3049  130.1449 H   0  0  0  0  0  0  0  0  0  0  0  0
  138.4075  149.2111  131.1383 H   0  0  0  0  0  0  0  0  0  0  0  0
  139.5188  149.5331  132.9585 H   0  0  0  0  0  0  0  0  0  0  0  0
  141.5794  148.3711  132.7760 H   0  0  0  0  0  0  0  0  0  0  0  0
  142.0044  149.1335  131.2388 H   0  0  0  0  0  0  0  0  0  0  0  0
  142.5058  150.0691  134.0541 H   0  0  0  0  0  0  0  0  0  0  0  0
  143.4210  150.4571  132.5905 H   0  0  0  0  0  0  0  0  0  0  0  0
  144.0228  152.0736  134.1515 H   0  0  0  0  0  0  0  0  0  0  0  0
  144.9093  154.2956  134.9157 H   0  0  0  0  0  0  0  0  0  0  0  0
  144.3043  157.0862  134.9876 H   0  0  0  0  0  0  0  0  0  0  0  0
  141.7360  159.3190  132.1800 H   0  0  0  0  0  0  0  0  0  0  0  0
  141.7630  160.7250  133.2950 H   0  0  0  0  0  0  0  0  0  0  0  0
  140.4287  154.0339  132.6417 H   0  0  0  0  0  0  0  0  0  0  0  0
  139.5701  151.8619  132.8973 H   0  0  0  0  0  0  0  0  0  0  0  0
  140.3023  151.9143  131.2875 H   0  0  0  0  0  0  0  0  0  0  0  0
  1  2  1  0
  2  3  1  0
  3  4  1  0
  4  5  1  0
  5  6  1  0
  6  7  1  0
  7  8  1  0
  8  9  1  0
  9 10  2  0
 10 11  1  0
 11 12  2  0
 12 13  1  0
 13 14  2  0
 14 15  1  0
 15 16  1  0
 15 17  2  0
 14 18  1  0
 18 19  1  0
 19 20  2  0
 19 21  1  0
 21 22  1  0
 22 23  2  0
 22 24  1  0
 18 25  1  0
 25 26  2  0
  8 27  1  0
 27  5  1  0
 26  9  1  0
 25 12  1  0
  1 28  1  0
  1 29  1  0
  1 30  1  0
  2 31  1  0
  2 32  1  0
  3 33  1  0
  4 34  1  0
  4 35  1  0
  5 36  1  1
  6 37  1  0
  6 38  1  0
  7 39  1  0
  7 40  1  0
 10 41  1  0
 11 42  1  0
 13 43  1  0
 16 44  1  0
 16 45  1  0
 26 46  1  0
 27 47  1  0
 27 48  1  0
M  CHG  1  24  -1
M  END
>  <UniqueID>  (70) 
69

>  <SMILES>  (70) 
CCNC[C@H]1CCN(c2ccc3cc(C(N)=O)n(C(=O)OC(=O)[O-])c3c2)C1

>  <Energy>  (70) 
88.90014442220057

>  <Genealogy>  (70) 
CCNCC1CCN(c2ccc3cc(C(N)=O)n(C(=O)OC(=O)[O-])c3c2)C1 (protonated)
CCNC[C@H]1CCN(c2ccc3cc(C(N)=O)n(C(=O)OC(=O)[O-])c3c2)C1 (chirality)
CCNC[C@H]1CCN(c2ccc3cc(C(N)=O)n(C(=O)OC(=O)[O-])c3c2)C1 (3D coordinates assigned)
CCNC[C@H]1CCN(c2ccc3cc(C(N)=O)n(C(=O)OC(=O)[O-])c3c2)C1 (nonaromatic ring conformer: 88.90014442220057 kcal/mol)

>  <smiles>  (70) 
CCNCC1CCN(c2ccc3cc(C(N)=O)n(C(=O)OC(=O)O)c3c2)C1

>  <score_type>  (70) 
oracle

>  <origin>  (70) 
adg

>  <m_score__min__energy>  (70) 
-8.3300000000000001

>  <m_primary>  (70) 
energy

$$$$
70:0
     RDKit          3D

 39 40  0  0  0  0  0  0  0  0999 V2000
  146.7860  153.4460  133.7510 C   0  0  0  0  0  0  0  0  0  0  0  0
  148.1380  154.0640  133.4060 C   0  0  0  0  0  0  0  0  0  0  0  0
  147.9940  155.0810  132.3610 N   0  0  0  0  0  0  0  0  0  0  0  0
  147.7670  156.4830  132.6080 C   0  0  0  0  0  0  0  0  0  0  0  0
  148.8650  157.3770  132.5440 C   0  0  0  0  0  0  0  0  0  0  0  0
  148.6950  158.7500  132.7850 C   0  0  0  0  0  0  0  0  0  0  0  0
  147.4170  159.2030  133.0980 C   0  0  0  0  0  0  0  0  0  0  0  0
  146.9730  160.4780  133.3660 C   0  0  0  0  0  0  0  0  0  0  0  0
  145.6090  160.3460  133.6200 C   0  0  0  0  0  0  0  0  0  0  0  0
  144.7510  161.4720  134.0510 C   0  0  0  0  0  0  0  0  0  0  0  0
  143.3530  161.4460  133.7720 N   0  0  0  0  0  0  0  0  0  0  0  0
  145.2470  162.4770  134.6220 O   0  0  0  0  0  0  0  0  0  0  0  0
  145.2220  159.0440  133.5030 N   0  0  0  0  0  0  0  0  0  0  0  0
  143.8970  158.4980  133.6240 C   0  0  0  0  0  0  0  0  0  0  0  0
  143.3780  157.8720  132.6590 O   0  0  0  0  0  0  0  0  0  0  0  0
  143.2030  158.6300  134.8300 O   0  0  0  0  0  0  0  0  0  0  0  0
  141.8320  158.2890  134.9810 C   0  0  0  0  0  0  0  0  0  0  0  0
  141.0260  159.5430  134.9950 C   0  0  0  0  0  0  0  0  0  0  0  0
  140.6190  160.0190  136.0910 O   0  0  0  0  0  0  0  0  0  0  0  0
  140.6780  160.1440  133.7800 O   0  0  0  0  0  0  0  0  0  0  0  0
  140.5940  159.4170  132.5600 C   0  0  0  0  0  0  0  0  0  0  0  0
  146.3440  158.3570  133.1850 C   0  0  0  0  0  0  0  0  0  0  0  0
  146.4810  156.9870  132.9270 C   0  0  0  0  0  0  0  0  0  0  0  0
  146.6744  153.3950  134.8441 H   0  0  0  0  0  0  0  0  0  0  0  0
  145.9811  154.0656  133.3288 H   0  0  0  0  0  0  0  0  0  0  0  0
  146.7279  152.4319  133.3288 H   0  0  0  0  0  0  0  0  0  0  0  0
  148.5617  154.5307  134.3075 H   0  0  0  0  0  0  0  0  0  0  0  0
  148.8042  153.2706  133.0363 H   0  0  0  0  0  0  0  0  0  0  0  0
  148.1260  154.7670  131.3700 H   0  0  0  0  0  0  0  0  0  0  0  0
  149.8656  156.9894  132.3019 H   0  0  0  0  0  0  0  0  0  0  0  0
  149.5453  159.4455  132.7281 H   0  0  0  0  0  0  0  0  0  0  0  0
  147.5676  161.4034  133.3773 H   0  0  0  0  0  0  0  0  0  0  0  0
  142.7940  160.5750  133.9150 H   0  0  0  0  0  0  0  0  0  0  0  0
  141.5139  157.6540  134.1410 H   0  0  0  0  0  0  0  0  0  0  0  0
  141.6843  157.7382  135.9216 H   0  0  0  0  0  0  0  0  0  0  0  0
  140.4703  158.3462  132.7791 H   0  0  0  0  0  0  0  0  0  0  0  0
  139.7312  159.7745  131.9788 H   0  0  0  0  0  0  0  0  0  0  0  0
  141.5156  159.5683  131.9788 H   0  0  0  0  0  0  0  0  0  0  0  0
  145.6098  156.3169  132.9710 H   0  0  0  0  0  0  0  0  0  0  0  0
  1  2  1  0
  2  3  1  0
  3  4  1  0
  4  5  2  0
  5  6  1  0
  6  7  2  0
  7  8  1  0
  8  9  2  0
  9 10  1  0
 10 11  1  0
 10 12  2  0
  9 13  1  0
 13 14  1  0
 14 15  2  0
 14 16  1  0
 16 17  1  0
 17 18  1  0
 18 19  2  0
 18 20  1  0
 20 21  1  0
 13 22  1  0
 22 23  2  0
 23  4  1  0
 22  7  1  0
  1 24  1  0
  1 25  1  0
  1 26  1  0
  2 27  1  0
  2 28  1  0
  3 29  1  0
  5 30  1  0
  6 31  1  0
  8 32  1  0
 11 33  1  0
 17 34  1  0
 17 35  1  0
 21 36  1  0
 21 37  1  0
 21 38  1  0
 23 39  1  0
M  CHG  1  11  -1
M  END
>  <UniqueID>  (71) 
70

>  <SMILES>  (71) 
CCNc1ccc2cc(C([NH-])=O)n(C(=O)OCC(=O)OC)c2c1

>  <Energy>  (71) 
68.22999717861606

>  <Genealogy>  (71) 
CCNc1ccc2cc(C([NH-])=O)n(C(=O)OCC(=O)OC)c2c1 (protonated)
CCNc1ccc2cc(C([NH-])=O)n(C(=O)OCC(=O)OC)c2c1 (3D coordinates assigned)
CCNc1ccc2cc(C([NH-])=O)n(C(=O)OCC(=O)OC)c2c1 (optimized conformer: 68.22999717861606 kcal/mol)

>  <smiles>  (71) 
CCNc1ccc2cc(C(N)=O)n(C(=O)OCC(=O)OC)c2c1

>  <score_type>  (71) 
oracle

>  <origin>  (71) 
adg

>  <m_score__min__energy>  (71) 
-5.9299999999999997

>  <m_primary>  (71) 
energy

$$$$
71:0
     RDKit          3D

 38 39  0  0  0  0  0  0  0  0999 V2000
  148.3762  154.8744  134.2672 H   0  0  0  0  0  0  0  0  0  0  0  0
  147.5630  155.0490  134.9870 C   0  0  0  0  0  0  0  0  0  0  0  0
  147.6170  154.3860  136.2980 C   0  0  0  0  0  0  0  0  0  0  0  0
  148.4710  154.7550  137.1460 O   0  0  0  0  0  0  0  0  0  0  0  0
  146.7390  153.3560  136.6170 O   0  0  0  0  0  0  0  0  0  0  0  0
  146.5550  155.8580  134.6430 C   0  0  0  0  0  0  0  0  0  0  0  0
  145.7431  156.0285  135.3653 H   0  0  0  0  0  0  0  0  0  0  0  0
  146.4910  156.5310  133.3300 C   0  0  0  0  0  0  0  0  0  0  0  0
  146.5860  155.8350  132.2850 O   0  0  0  0  0  0  0  0  0  0  0  0
  146.3180  157.9540  133.2160 N   0  0  0  0  0  0  0  0  0  0  0  0
  147.2810  158.8830  132.9650 C   0  0  0  0  0  0  0  0  0  0  0  0
  148.6820  158.5950  132.5990 C   0  0  0  0  0  0  0  0  0  0  0  0
  149.5840  159.4190  132.9080 O   0  0  0  0  0  0  0  0  0  0  0  0
  149.0330  157.4230  131.8600 N   0  0  0  0  0  0  0  0  0  0  0  0
  150.0370  157.2100  131.6640 H   0  0  0  0  0  0  0  0  0  0  0  0
  148.3040  156.8230  131.4180 H   0  0  0  0  0  0  0  0  0  0  0  0
  146.7650  160.1700  133.0970 C   0  0  0  0  0  0  0  0  0  0  0  0
  147.2997  161.1210  132.9569 H   0  0  0  0  0  0  0  0  0  0  0  0
  145.4440  159.9980  133.4400 C   0  0  0  0  0  0  0  0  0  0  0  0
  144.4640  160.9410  133.7250 C   0  0  0  0  0  0  0  0  0  0  0  0
  144.6783  162.0179  133.6594 H   0  0  0  0  0  0  0  0  0  0  0  0
  143.1930  160.4790  134.0990 C   0  0  0  0  0  0  0  0  0  0  0  0
  142.3994  161.2076  134.3214 H   0  0  0  0  0  0  0  0  0  0  0  0
  142.9080  159.0850  134.1970 C   0  0  0  0  0  0  0  0  0  0  0  0
  141.5040  158.6270  134.6280 C   0  0  0  0  0  0  0  0  0  0  0  0
  141.1480  159.1040  135.9830 C   0  0  0  0  0  0  0  0  0  0  0  0
  140.8670  159.4740  137.0440 N   0  0  0  0  0  0  0  0  0  0  0  0
  141.4320  157.0870  134.6550 C   0  0  0  0  0  0  0  0  0  0  0  0
  141.4157  156.7389  135.6984 H   0  0  0  0  0  0  0  0  0  0  0  0
  140.5173  156.7537  134.1430 H   0  0  0  0  0  0  0  0  0  0  0  0
  142.3116  156.6698  134.1430 H   0  0  0  0  0  0  0  0  0  0  0  0
  140.4530  159.1820  133.6500 C   0  0  0  0  0  0  0  0  0  0  0  0
  139.6199  159.6219  134.2178 H   0  0  0  0  0  0  0  0  0  0  0  0
  140.9134  159.9546  133.0166 H   0  0  0  0  0  0  0  0  0  0  0  0
  140.0746  158.3662  133.0166 H   0  0  0  0  0  0  0  0  0  0  0  0
  143.9540  158.1620  133.9150 C   0  0  0  0  0  0  0  0  0  0  0  0
  143.7845  157.0792  134.0093 H   0  0  0  0  0  0  0  0  0  0  0  0
  145.2010  158.6540  133.5160 C   0  0  0  0  0  0  0  0  0  0  0  0
  1  2  1  0
  2  3  1  0
  3  4  2  0
  3  5  1  0
  2  6  2  0
  6  7  1  0
  6  8  1  0
  8  9  2  0
  8 10  1  0
 10 11  1  0
 11 12  1  0
 12 13  2  0
 12 14  1  0
 14 15  1  0
 14 16  1  0
 11 17  2  0
 17 18  1  0
 17 19  1  0
 19 20  2  0
 20 21  1  0
 20 22  1  0
 22 23  1  0
 22 24  2  0
 24 25  1  0
 25 26  1  0
 26 27  3  0
 25 28  1  0
 28 29  1  0
 28 30  1  0
 28 31  1  0
 25 32  1  0
 32 33  1  0
 32 34  1  0
 32 35  1  0
 24 36  1  0
 36 37  1  0
 36 38  2  0
 38 10  1  0
 38 19  1  0
M  CHG  1   5  -1
M  END
>  <UniqueID>  (72) 
71

>  <SMILES>  (72) 
CC(C)(C#N)c1ccc2cc(C(N)=O)n(C(=O)/C=C/C(=O)[O-])c2c1

>  <Energy>  (72) 
77.70145938027875

>  <Genealogy>  (72) 
CC(C)(C#N)c1ccc2cc(C(N)=O)n(C(=O)/C=C/C(=O)[O-])c2c1 (protonated)
CC(C)(C#N)c1ccc2cc(C(N)=O)n(C(=O)/C=C/C(=O)[O-])c2c1 (cis-trans isomerization)
CC(C)(C#N)c1ccc2cc(C(N)=O)n(C(=O)/C=C/C(=O)[O-])c2c1 (3D coordinates assigned)
CC(C)(C#N)c1ccc2cc(C(N)=O)n(C(=O)/C=C/C(=O)[O-])c2c1 (optimized conformer: 77.70145938027875 kcal/mol)

>  <smiles>  (72) 
CC(C)(C#N)c1ccc2cc(C(N)=O)n(C(=O)/C=C/C(=O)O)c2c1

>  <score_type>  (72) 
oracle

>  <origin>  (72) 
adg

>  <m_score__min__energy>  (72) 
-8.4700000000000006

>  <m_primary>  (72) 
energy

$$$$
72:0
     RDKit          3D

 45 46  0  0  0  0  0  0  0  0999 V2000
  146.1200  151.7290  131.9050 N   0  0  0  0  0  0  0  0  0  0  0  0
  145.0760  152.4200  132.5930 C   0  0  0  0  0  0  0  0  0  0  0  0
  144.0720  151.7750  132.9970 O   0  0  0  0  0  0  0  0  0  0  0  0
  145.1230  153.8830  132.7850 C   0  0  0  0  0  0  0  0  0  0  0  0
  143.9980  154.7010  132.7300 C   0  0  0  0  0  0  0  0  0  0  0  0
  144.4700  155.9810  132.9080 C   0  0  0  0  0  0  0  0  0  0  0  0
  143.7780  157.1870  132.9730 C   0  0  0  0  0  0  0  0  0  0  0  0
  144.5150  158.3560  133.2230 C   0  0  0  0  0  0  0  0  0  0  0  0
  145.9190  158.2980  133.4040 C   0  0  0  0  0  0  0  0  0  0  0  0
  146.6890  159.5530  133.7260 C   0  0  0  0  0  0  0  0  0  0  0  0
  148.2080  159.3060  133.6530 C   0  0  1  0  0  0  0  0  0  0  0  0
  148.6030  158.3210  134.5760 O   0  0  0  0  0  0  0  0  0  0  0  0
  148.6340  158.9140  132.2290 C   0  0  0  0  0  0  0  0  0  0  0  0
  149.7080  158.0140  132.2700 O   0  0  0  0  0  0  0  0  0  0  0  0
  146.5860  157.0550  133.3410 C   0  0  0  0  0  0  0  0  0  0  0  0
  145.8300  155.9090  133.0700 C   0  0  0  0  0  0  0  0  0  0  0  0
  146.2470  154.6240  132.9990 N   0  0  0  0  0  0  0  0  0  0  0  0
  147.5740  154.1370  133.2510 C   0  0  0  0  0  0  0  0  0  0  0  0
  148.1290  154.3640  134.3600 O   0  0  0  0  0  0  0  0  0  0  0  0
  148.2430  153.4090  132.2610 O   0  0  0  0  0  0  0  0  0  0  0  0
  149.6540  153.1970  132.2570 C   0  0  0  0  0  0  0  0  0  0  0  0
  149.9960  151.7420  132.5940 C   0  0  0  0  0  0  0  0  0  0  0  0
  149.4680  150.7990  131.5440 C   0  0  0  0  0  0  0  0  0  0  0  0
  148.2690  150.5660  131.5020 O   0  0  0  0  0  0  0  0  0  0  0  0
  150.3710  150.1670  130.5190 C   0  0  0  0  0  0  0  0  0  0  0  0
  150.3200  148.7910  130.6500 F   0  0  0  0  0  0  0  0  0  0  0  0
  151.6690  150.5920  130.7270 F   0  0  0  0  0  0  0  0  0  0  0  0
  149.9890  150.5070  129.2340 F   0  0  0  0  0  0  0  0  0  0  0  0
  146.0900  150.6890  131.8160 H   0  0  0  0  0  0  0  0  0  0  0  0
  146.8780  152.2510  131.4130 H   0  0  0  0  0  0  0  0  0  0  0  0
  142.9540  154.3902  132.5768 H   0  0  0  0  0  0  0  0  0  0  0  0
  142.6876  157.2233  132.8329 H   0  0  0  0  0  0  0  0  0  0  0  0
  143.9977  159.3252  133.2788 H   0  0  0  0  0  0  0  0  0  0  0  0
  146.4173  160.3365  133.0033 H   0  0  0  0  0  0  0  0  0  0  0  0
  146.4347  159.8659  134.7494 H   0  0  0  0  0  0  0  0  0  0  0  0
  148.7142  160.2464  133.9165 H   0  0  0  0  0  0  0  0  0  0  0  0
  149.5660  158.1340  134.4230 H   0  0  0  0  0  0  0  0  0  0  0  0
  147.7847  158.4414  131.7139 H   0  0  0  0  0  0  0  0  0  0  0  0
  148.9479  159.8193  131.6887 H   0  0  0  0  0  0  0  0  0  0  0  0
  149.6310  157.5160  133.1260 H   0  0  0  0  0  0  0  0  0  0  0  0
  147.6723  156.9892  133.5009 H   0  0  0  0  0  0  0  0  0  0  0  0
  150.0502  153.4370  131.2593 H   0  0  0  0  0  0  0  0  0  0  0  0
  150.1064  153.8472  133.0203 H   0  0  0  0  0  0  0  0  0  0  0  0
  151.0892  151.6355  132.6544 H   0  0  0  0  0  0  0  0  0  0  0  0
  149.5269  151.4886  133.5562 H   0  0  0  0  0  0  0  0  0  0  0  0
  1  2  1  0
  2  3  2  0
  2  4  1  0
  4  5  2  0
  5  6  1  0
  6  7  2  0
  7  8  1  0
  8  9  2  0
  9 10  1  0
 10 11  1  0
 11 12  1  0
 11 13  1  0
 13 14  1  0
  9 15  1  0
 15 16  2  0
 16 17  1  0
 17 18  1  0
 18 19  2  0
 18 20  1  0
 20 21  1  0
 21 22  1  0
 22 23  1  0
 23 24  2  0
 23 25  1  0
 25 26  1  0
 25 27  1  0
 25 28  1  0
 17  4  1  0
 16  6  1  0
  1 29  1  0
  1 30  1  0
  5 31  1  0
  7 32  1  0
  8 33  1  0
 10 34  1  0
 10 35  1  0
 11 36  1  1
 12 37  1  0
 13 38  1  0
 13 39  1  0
 14 40  1  0
 15 41  1  0
 21 42  1  0
 21 43  1  0
 22 44  1  0
 22 45  1  0
M  END
>  <UniqueID>  (73) 
72

>  <SMILES>  (73) 
NC(=O)c1cc2ccc(C[C@@H](O)CO)cc2n1C(=O)OCCC(=O)C(F)(F)F

>  <Energy>  (73) 
74.60644692619054

>  <Genealogy>  (73) 
NC(=O)c1cc2ccc(C[C@@H](O)CO)cc2n1C(=O)OCCC(=O)C(F)(F)F (3D coordinates assigned)
NC(=O)c1cc2ccc(C[C@@H](O)CO)cc2n1C(=O)OCCC(=O)C(F)(F)F (optimized conformer: 74.60644692619054 kcal/mol)

>  <smiles>  (73) 
NC(=O)c1cc2ccc(C[C@@H](O)CO)cc2n1C(=O)OCCC(=O)C(F)(F)F

>  <score_type>  (73) 
oracle

>  <origin>  (73) 
adg

>  <m_score__min__energy>  (73) 
-6.9900000000000002

>  <m_primary>  (73) 
energy

$$$$
73:0
     RDKit          3D

 45 46  0  0  0  0  0  0  0  0999 V2000
  141.9780  153.2990  132.6290 C   0  0  0  0  0  0  0  0  0  0  0  0
  143.0120  152.2930  132.8880 N   0  0  0  0  0  0  0  0  0  0  0  0
  142.6360  150.9340  133.2850 C   0  0  0  0  0  0  0  0  0  0  0  0
  144.4000  152.5980  132.6470 C   0  0  0  0  0  0  0  0  0  0  0  0
  145.2250  151.6590  132.4720 O   0  0  0  0  0  0  0  0  0  0  0  0
  144.8650  153.9590  132.6080 N   0  0  0  0  0  0  0  0  0  0  0  0
  144.3610  154.8610  131.5700 C   0  0  0  0  0  0  0  0  0  0  0  0
  145.6890  154.4750  133.6730 C   0  0  0  0  0  0  0  0  0  0  0  0
  145.4440  154.1670  134.8720 O   0  0  0  0  0  0  0  0  0  0  0  0
  146.8010  155.3370  133.3870 N   0  0  0  0  0  0  0  0  0  0  0  0
  148.0660  154.9710  133.0420 C   0  0  0  0  0  0  0  0  0  0  0  0
  148.5620  153.5750  132.9870 C   0  0  0  0  0  0  0  0  0  0  0  0
  147.7200  152.4790  133.3500 N   0  0  0  0  0  0  0  0  0  0  0  0
  149.7380  153.3390  132.6050 O   0  0  0  0  0  0  0  0  0  0  0  0
  148.8430  156.1040  132.7950 C   0  0  0  0  0  0  0  0  0  0  0  0
  148.0000  157.1760  132.9930 C   0  0  0  0  0  0  0  0  0  0  0  0
  148.2370  158.5390  132.8750 C   0  0  0  0  0  0  0  0  0  0  0  0
  147.1710  159.4200  133.1220 C   0  0  0  0  0  0  0  0  0  0  0  0
  145.8790  158.9310  133.4740 C   0  0  0  0  0  0  0  0  0  0  0  0
  144.7810  159.8480  133.7310 N   0  0  0  0  0  0  0  0  0  0  0  0
  145.0450  161.2480  134.0840 C   0  0  0  0  0  0  0  0  0  0  0  0
  143.3900  159.3860  133.6430 C   0  0  0  0  0  0  0  0  0  0  0  0
  145.6870  157.5300  133.5730 C   0  0  0  0  0  0  0  0  0  0  0  0
  146.7730  156.6830  133.3420 C   0  0  0  0  0  0  0  0  0  0  0  0
  141.5880  153.6785  133.5850 H   0  0  0  0  0  0  0  0  0  0  0  0
  142.4113  154.1305  132.0538 H   0  0  0  0  0  0  0  0  0  0  0  0
  141.1587  152.8430  132.0538 H   0  0  0  0  0  0  0  0  0  0  0  0
  142.6168  150.8647  134.3827 H   0  0  0  0  0  0  0  0  0  0  0  0
  141.6388  150.6979  132.8852 H   0  0  0  0  0  0  0  0  0  0  0  0
  143.3700  150.2189  132.8852 H   0  0  0  0  0  0  0  0  0  0  0  0
  143.8763  155.7284  132.0418 H   0  0  0  0  0  0  0  0  0  0  0  0
  145.1981  155.2041  130.9443 H   0  0  0  0  0  0  0  0  0  0  0  0
  143.6300  154.3279  130.9443 H   0  0  0  0  0  0  0  0  0  0  0  0
  146.7610  152.6260  133.7330 H   0  0  0  0  0  0  0  0  0  0  0  0
  148.0770  151.5000  133.2740 H   0  0  0  0  0  0  0  0  0  0  0  0
  149.9034  156.1347  132.5040 H   0  0  0  0  0  0  0  0  0  0  0  0
  149.2312  158.9182  132.5961 H   0  0  0  0  0  0  0  0  0  0  0  0
  147.3359  160.5047  133.0425 H   0  0  0  0  0  0  0  0  0  0  0  0
  145.0647  161.3526  135.1788 H   0  0  0  0  0  0  0  0  0  0  0  0
  146.0166  161.5539  133.6689 H   0  0  0  0  0  0  0  0  0  0  0  0
  144.2515  161.8867  133.6689 H   0  0  0  0  0  0  0  0  0  0  0  0
  142.9837  159.2510  134.6563 H   0  0  0  0  0  0  0  0  0  0  0  0
  142.7890  160.1328  133.1034 H   0  0  0  0  0  0  0  0  0  0  0  0
  143.3552  158.4281  133.1034 H   0  0  0  0  0  0  0  0  0  0  0  0
  144.6996  157.1172  133.8274 H   0  0  0  0  0  0  0  0  0  0  0  0
  1  2  1  0
  2  3  1  0
  2  4  1  0
  4  5  2  0
  4  6  1  0
  6  7  1  0
  6  8  1  0
  8  9  2  0
  8 10  1  0
 10 11  1  0
 11 12  1  0
 12 13  1  0
 12 14  2  0
 11 15  2  0
 15 16  1  0
 16 17  2  0
 17 18  1  0
 18 19  2  0
 19 20  1  0
 20 21  1  0
 20 22  1  0
 19 23  1  0
 23 24  2  0
 24 10  1  0
 24 16  1  0
  1 25  1  0
  1 26  1  0
  1 27  1  0
  3 28  1  0
  3 29  1  0
  3 30  1  0
  7 31  1  0
  7 32  1  0
  7 33  1  0
 13 34  1  0
 13 35  1  0
 15 36  1  0
 17 37  1  0
 18 38  1  0
 21 39  1  0
 21 40  1  0
 21 41  1  0
 22 42  1  0
 22 43  1  0
 22 44  1  0
 23 45  1  0
M  END
>  <UniqueID>  (74) 
73

>  <SMILES>  (74) 
CN(C)C(=O)N(C)C(=O)n1c(C(N)=O)cc2ccc(N(C)C)cc21

>  <Energy>  (74) 
86.77142286648989

>  <Genealogy>  (74) 
CN(C)C(=O)N(C)C(=O)n1c(C(N)=O)cc2ccc(N(C)C)cc21 (3D coordinates assigned)
CN(C)C(=O)N(C)C(=O)n1c(C(N)=O)cc2ccc(N(C)C)cc21 (optimized conformer: 86.77142286648989 kcal/mol)

>  <smiles>  (74) 
CN(C)C(=O)N(C)C(=O)n1c(C(N)=O)cc2ccc(N(C)C)cc21

>  <score_type>  (74) 
oracle

>  <origin>  (74) 
adg

>  <m_score__min__energy>  (74) 
-6.8300000000000001

>  <m_primary>  (74) 
energy

$$$$
74:0
     RDKit          3D

 51 52  0  0  0  0  0  0  0  0999 V2000
  137.8810  159.7820  131.0450 C   0  0  0  0  0  0  0  0  0  0  0  0
  139.0480  159.7930  132.0250 C   0  0  0  0  0  0  0  0  0  0  0  0
  139.5300  158.4700  132.2530 O   0  0  0  0  0  0  0  0  0  0  0  0
  139.2940  157.7560  133.4320 C   0  0  0  0  0  0  0  0  0  0  0  0
  139.0930  156.5090  133.3990 O   0  0  0  0  0  0  0  0  0  0  0  0
  139.2770  158.4450  134.6470 O   0  0  0  0  0  0  0  0  0  0  0  0
  140.0990  158.0860  135.7540 C   0  0  0  0  0  0  0  0  0  0  0  0
  140.2330  156.6850  135.7960 O   0  0  0  0  0  0  0  0  0  0  0  0
  140.9810  156.2440  137.2660 P   0  0  2  0  0  0  0  0  0  0  0  0
  139.9380  155.9400  138.3190 O   0  0  0  0  0  0  0  0  0  0  0  0
  141.9110  157.5500  137.8040 O   0  0  0  0  0  0  0  0  0  0  0  0
  142.0500  154.7780  137.0440 C   0  0  0  0  0  0  0  0  0  0  0  0
  142.8360  154.8160  135.7250 C   0  0  0  0  0  0  0  0  0  0  0  0
  143.1910  156.2310  135.2530 C   0  0  0  0  0  0  0  0  0  0  0  0
  142.9310  156.3770  133.8570 O   0  0  0  0  0  0  0  0  0  0  0  0
  142.9410  157.6040  133.1810 C   0  0  0  0  0  0  0  0  0  0  0  0
  142.0400  157.8810  132.3450 O   0  0  0  0  0  0  0  0  0  0  0  0
  144.0110  158.5320  133.4140 N   0  0  0  0  0  0  0  0  0  0  0  0
  143.9300  159.8850  133.5670 C   0  0  0  0  0  0  0  0  0  0  0  0
  142.6870  160.6780  133.6750 C   0  0  0  0  0  0  0  0  0  0  0  0
  141.4750  160.0870  134.1390 N   0  0  0  0  0  0  0  0  0  0  0  0
  142.7040  161.9060  133.3950 O   0  0  0  0  0  0  0  0  0  0  0  0
  145.2030  160.4400  133.6830 C   0  0  0  0  0  0  0  0  0  0  0  0
  146.0730  159.3780  133.6040 C   0  0  0  0  0  0  0  0  0  0  0  0
  147.4630  159.3580  133.6330 C   0  0  0  0  0  0  0  0  0  0  0  0
  148.1070  158.1180  133.4850 C   0  0  0  0  0  0  0  0  0  0  0  0
  147.3580  156.9250  133.3200 C   0  0  0  0  0  0  0  0  0  0  0  0
  148.0640  155.6130  133.0910 C   0  0  0  0  0  0  0  0  0  0  0  0
  149.3200  155.8190  132.5500 F   0  0  0  0  0  0  0  0  0  0  0  0
  148.1960  154.9510  134.2970 F   0  0  0  0  0  0  0  0  0  0  0  0
  147.3430  154.8180  132.2160 F   0  0  0  0  0  0  0  0  0  0  0  0
  145.9450  156.9920  133.2700 C   0  0  0  0  0  0  0  0  0  0  0  0
  145.3290  158.2380  133.4420 C   0  0  0  0  0  0  0  0  0  0  0  0
  136.9333  159.7731  131.6034 H   0  0  0  0  0  0  0  0  0  0  0  0
  137.9252  160.6806  130.4121 H   0  0  0  0  0  0  0  0  0  0  0  0
  137.9421  158.8844  130.4121 H   0  0  0  0  0  0  0  0  0  0  0  0
  139.8613  160.4068  131.6105 H   0  0  0  0  0  0  0  0  0  0  0  0
  138.7016  160.2119  132.9813 H   0  0  0  0  0  0  0  0  0  0  0  0
  141.0911  158.5472  135.6404 H   0  0  0  0  0  0  0  0  0  0  0  0
  139.6378  158.4413  136.6873 H   0  0  0  0  0  0  0  0  0  0  0  0
  142.7646  154.7331  137.8791 H   0  0  0  0  0  0  0  0  0  0  0  0
  141.3995  153.8913  137.0194 H   0  0  0  0  0  0  0  0  0  0  0  0
  143.7705  154.2523  135.8625 H   0  0  0  0  0  0  0  0  0  0  0  0
  142.1865  154.3761  134.9539 H   0  0  0  0  0  0  0  0  0  0  0  0
  142.5858  156.9604  135.8113 H   0  0  0  0  0  0  0  0  0  0  0  0
  144.2619  156.4060  135.4336 H   0  0  0  0  0  0  0  0  0  0  0  0
  141.0150  159.3160  133.6080 H   0  0  0  0  0  0  0  0  0  0  0  0
  145.4579  161.5024  133.8107 H   0  0  0  0  0  0  0  0  0  0  0  0
  148.0407  160.2844  133.7676 H   0  0  0  0  0  0  0  0  0  0  0  0
  149.2060  158.0719  133.4973 H   0  0  0  0  0  0  0  0  0  0  0  0
  145.3445  156.0862  133.1000 H   0  0  0  0  0  0  0  0  0  0  0  0
  1  2  1  0
  2  3  1  0
  3  4  1  0
  4  5  2  0
  4  6  1  0
  6  7  1  0
  7  8  1  0
  8  9  1  0
  9 10  2  0
  9 11  1  1
  9 12  1  0
 12 13  1  0
 13 14  1  0
 14 15  1  0
 15 16  1  0
 16 17  2  0
 16 18  1  0
 18 19  1  0
 19 20  1  0
 20 21  1  0
 20 22  2  0
 19 23  2  0
 23 24  1  0
 24 25  2  0
 25 26  1  0
 26 27  2  0
 27 28  1  0
 28 29  1  0
 28 30  1  0
 28 31  1  0
 27 32  1  0
 32 33  2  0
 33 18  1  0
 33 24  1  0
  1 34  1  0
  1 35  1  0
  1 36  1  0
  2 37  1  0
  2 38  1  0
  7 39  1  0
  7 40  1  0
 12 41  1  0
 12 42  1  0
 13 43  1  0
 13 44  1  0
 14 45  1  0
 14 46  1  0
 21 47  1  0
 23 48  1  0
 25 49  1  0
 26 50  1  0
 32 51  1  0
M  CHG  2  11  -1  21  -1
M  END
>  <UniqueID>  (75) 
74

>  <SMILES>  (75) 
CCOC(=O)OCO[P@](=O)([O-])CCCOC(=O)n1c(C([NH-])=O)cc2ccc(C(F)(F)F)cc21

>  <Energy>  (75) 
78.28085553972433

>  <Genealogy>  (75) 
CCOC(=O)OCOP(=O)([O-])CCCOC(=O)n1c(C([NH-])=O)cc2ccc(C(F)(F)F)cc21 (protonated)
CCOC(=O)OCO[P@](=O)([O-])CCCOC(=O)n1c(C([NH-])=O)cc2ccc(C(F)(F)F)cc21 (chirality)
CCOC(=O)OCO[P@](=O)([O-])CCCOC(=O)n1c(C([NH-])=O)cc2ccc(C(F)(F)F)cc21 (3D coordinates assigned)
CCOC(=O)OCO[P@](=O)([O-])CCCOC(=O)n1c(C([NH-])=O)cc2ccc(C(F)(F)F)cc21 (optimized conformer: 78.28085553972433 kcal/mol)

>  <smiles>  (75) 
CCOC(=O)OCOP(=O)(O)CCCOC(=O)n1c(C(N)=O)cc2ccc(C(F)(F)F)cc21

>  <score_type>  (75) 
oracle

>  <origin>  (75) 
adg

>  <m_score__min__energy>  (75) 
-6.0800000000000001

>  <m_primary>  (75) 
energy

$$$$
75:0
     RDKit          3D

 48 50  0  0  0  0  0  0  0  0999 V2000
  144.4350  161.3670  133.9350 C   0  0  0  0  0  0  0  0  0  0  0  0
  143.8330  159.9970  133.7800 C   0  0  0  0  0  0  0  0  0  0  0  0
  142.4550  159.8130  133.9680 C   0  0  0  0  0  0  0  0  0  0  0  0
  141.8840  158.5460  133.8280 C   0  0  0  0  0  0  0  0  0  0  0  0
  142.6790  157.4370  133.4960 C   0  0  0  0  0  0  0  0  0  0  0  0
  142.0720  156.0900  133.3510 C   0  0  0  0  0  0  0  0  0  0  0  0
  140.6610  155.9340  133.3570 C   0  0  0  0  0  0  0  0  0  0  0  0
  140.0760  154.6630  133.2340 C   0  0  0  0  0  0  0  0  0  0  0  0
  140.9200  153.5670  133.0930 C   0  0  0  0  0  0  0  0  0  0  0  0
  140.6210  152.2270  132.9890 C   0  0  0  0  0  0  0  0  0  0  0  0
  141.8510  151.5830  132.8870 C   0  0  0  0  0  0  0  0  0  0  0  0
  141.9930  150.1260  132.6960 C   0  0  0  0  0  0  0  0  0  0  0  0
  142.9320  149.5890  131.7620 N   0  0  0  0  0  0  0  0  0  0  0  0
  141.2330  149.3420  133.3260 O   0  0  0  0  0  0  0  0  0  0  0  0
  142.8710  152.4830  132.9410 N   0  0  0  0  0  0  0  0  0  0  0  0
  144.2810  152.2100  132.9820 C   0  0  0  0  0  0  0  0  0  0  0  0
  144.7570  151.2830  132.2730 O   0  0  0  0  0  0  0  0  0  0  0  0
  145.1090  152.9770  133.8160 O   0  0  0  0  0  0  0  0  0  0  0  0
  146.2060  153.8020  133.4000 C   0  0  0  0  0  0  0  0  0  0  0  0
  146.6220  154.6460  134.6140 C   0  0  0  0  0  0  0  0  0  0  0  0
  145.7730  154.7460  132.2620 C   0  0  0  0  0  0  0  0  0  0  0  0
  147.4020  152.9340  132.9630 C   0  0  0  0  0  0  0  0  0  0  0  0
  142.2850  153.6960  133.0650 C   0  0  0  0  0  0  0  0  0  0  0  0
  142.8950  154.9480  133.2090 C   0  0  0  0  0  0  0  0  0  0  0  0
  144.0590  157.6220  133.3080 C   0  0  0  0  0  0  0  0  0  0  0  0
  144.6370  158.8900  133.4470 C   0  0  0  0  0  0  0  0  0  0  0  0
  146.3740  159.0540  133.2050 Cl  0  0  0  0  0  0  0  0  0  0  0  0
  144.5387  161.6031  135.0043 H   0  0  0  0  0  0  0  0  0  0  0  0
  145.4255  161.3885  133.4570 H   0  0  0  0  0  0  0  0  0  0  0  0
  143.7809  162.1111  133.4570 H   0  0  0  0  0  0  0  0  0  0  0  0
  141.8197  160.6727  134.2275 H   0  0  0  0  0  0  0  0  0  0  0  0
  140.8022  158.4157  133.9791 H   0  0  0  0  0  0  0  0  0  0  0  0
  140.0174  156.8202  133.4593 H   0  0  0  0  0  0  0  0  0  0  0  0
  138.9832  154.5384  133.2488 H   0  0  0  0  0  0  0  0  0  0  0  0
  139.6231  151.7641  132.9869 H   0  0  0  0  0  0  0  0  0  0  0  0
  143.0480  148.5560  131.6710 H   0  0  0  0  0  0  0  0  0  0  0  0
  143.4500  150.2090  131.1010 H   0  0  0  0  0  0  0  0  0  0  0  0
  146.3589  154.1122  135.5391 H   0  0  0  0  0  0  0  0  0  0  0  0
  147.7081  154.8180  134.5861 H   0  0  0  0  0  0  0  0  0  0  0  0
  146.0969  155.6122  134.5861 H   0  0  0  0  0  0  0  0  0  0  0  0
  145.3506  155.6669  132.6903 H   0  0  0  0  0  0  0  0  0  0  0  0
  146.6460  154.9970  131.6416 H   0  0  0  0  0  0  0  0  0  0  0  0
  145.0133  154.2481  131.6416 H   0  0  0  0  0  0  0  0  0  0  0  0
  147.9246  152.5547  133.8535 H   0  0  0  0  0  0  0  0  0  0  0  0
  147.0400  152.0870  132.3618 H   0  0  0  0  0  0  0  0  0  0  0  0
  148.0951  153.5407  132.3618 H   0  0  0  0  0  0  0  0  0  0  0  0
  143.9910  155.0417  133.2117 H   0  0  0  0  0  0  0  0  0  0  0  0
  144.6927  156.7611  133.0487 H   0  0  0  0  0  0  0  0  0  0  0  0
  1  2  1  0
  2  3  2  0
  3  4  1  0
  4  5  2  0
  5  6  1  0
  6  7  2  0
  7  8  1  0
  8  9  2  0
  9 10  1  0
 10 11  2  0
 11 12  1  0
 12 13  1  0
 12 14  2  0
 11 15  1  0
 15 16  1  0
 16 17  2  0
 16 18  1  0
 18 19  1  0
 19 20  1  0
 19 21  1  0
 19 22  1  0
 15 23  1  0
 23 24  2  0
  5 25  1  0
 25 26  2  0
 26 27  1  0
 26  2  1  0
 24  6  1  0
 23  9  1  0
  1 28  1  0
  1 29  1  0
  1 30  1  0
  3 31  1  0
  4 32  1  0
  7 33  1  0
  8 34  1  0
 10 35  1  0
 13 36  1  0
 13 37  1  0
 20 38  1  0
 20 39  1  0
 20 40  1  0
 21 41  1  0
 21 42  1  0
 21 43  1  0
 22 44  1  0
 22 45  1  0
 22 46  1  0
 24 47  1  0
 25 48  1  0
M  END
>  <UniqueID>  (76) 
75

>  <SMILES>  (76) 
Cc1ccc(-c2ccc3cc(C(N)=O)n(C(=O)OC(C)(C)C)c3c2)cc1Cl

>  <Energy>  (76) 
89.76985932400916

>  <Genealogy>  (76) 
Cc1ccc(-c2ccc3cc(C(N)=O)n(C(=O)OC(C)(C)C)c3c2)cc1Cl (3D coordinates assigned)
Cc1ccc(-c2ccc3cc(C(N)=O)n(C(=O)OC(C)(C)C)c3c2)cc1Cl (optimized conformer: 89.76985932400916 kcal/mol)

>  <smiles>  (76) 
Cc1ccc(-c2ccc3cc(C(N)=O)n(C(=O)OC(C)(C)C)c3c2)cc1Cl

>  <score_type>  (76) 
oracle

>  <origin>  (76) 
adg

>  <m_score__min__energy>  (76) 
-8.9600000000000009

>  <m_primary>  (76) 
energy

$$$$
76:0
     RDKit          3D

 48 49  0  0  0  0  0  0  0  0999 V2000
  148.0830  159.7090  131.4530 C   0  0  0  0  0  0  0  0  0  0  0  0
  147.2280  158.9530  132.3840 N   0  0  0  0  0  0  0  0  0  0  0  0
  146.5510  159.8870  133.2970 C   0  0  0  0  0  0  0  0  0  0  0  0
  148.0200  157.9710  133.1560 C   0  0  0  0  0  0  0  0  0  0  0  0
  147.6830  156.5300  132.7410 C   0  0  0  0  0  0  0  0  0  0  0  0
  146.2370  156.3310  132.6290 N   0  0  0  0  0  0  0  0  0  0  0  0
  145.5690  155.0600  132.7510 C   0  0  0  0  0  0  0  0  0  0  0  0
  146.3290  153.8710  132.6170 C   0  0  0  0  0  0  0  0  0  0  0  0
  145.7160  152.6080  132.7030 C   0  0  0  0  0  0  0  0  0  0  0  0
  144.3460  152.5630  132.9330 C   0  0  0  0  0  0  0  0  0  0  0  0
  143.4940  151.4840  133.0080 C   0  0  0  0  0  0  0  0  0  0  0  0
  142.2270  152.0260  133.2090 C   0  0  0  0  0  0  0  0  0  0  0  0
  140.9980  151.2240  133.4040 C   0  0  0  0  0  0  0  0  0  0  0  0
  139.8620  151.4040  132.5560 N   0  0  0  0  0  0  0  0  0  0  0  0
  140.9530  150.3490  134.3100 O   0  0  0  0  0  0  0  0  0  0  0  0
  142.2950  153.3860  133.2660 N   0  0  0  0  0  0  0  0  0  0  0  0
  141.2020  154.3130  133.3370 C   0  0  0  0  0  0  0  0  0  0  0  0
  140.1760  154.1300  132.6250 O   0  0  0  0  0  0  0  0  0  0  0  0
  141.2670  155.3940  134.2260 O   0  0  0  0  0  0  0  0  0  0  0  0
  141.1520  156.7590  133.8240 C   0  0  0  0  0  0  0  0  0  0  0  0
  142.0770  157.6480  134.6570 C   0  0  0  0  0  0  0  0  0  0  0  0
  143.5350  158.2120  133.7160 P   0  0  0  0  0  0  0  0  0  0  0  0
  143.4870  157.6680  132.3060 O   0  0  0  0  0  0  0  0  0  0  0  0
  143.5690  159.9020  133.6710 O   0  0  0  0  0  0  0  0  0  0  0  0
  144.9370  157.6540  134.4800 O   0  0  0  0  0  0  0  0  0  0  0  0
  143.5980  153.7000  133.0920 C   0  0  0  0  0  0  0  0  0  0  0  0
  144.1780  154.9690  133.0030 C   0  0  0  0  0  0  0  0  0  0  0  0
  148.7869  160.3314  132.0249 H   0  0  0  0  0  0  0  0  0  0  0  0
  148.6452  159.0072  130.8194 H   0  0  0  0  0  0  0  0  0  0  0  0
  147.4554  160.3529  130.8194 H   0  0  0  0  0  0  0  0  0  0  0  0
  146.7600  159.5987  134.3378 H   0  0  0  0  0  0  0  0  0  0  0  0
  146.9206  160.9075  133.1180 H   0  0  0  0  0  0  0  0  0  0  0  0
  145.4662  159.8532  133.1180 H   0  0  0  0  0  0  0  0  0  0  0  0
  149.0899  158.1541  132.9775 H   0  0  0  0  0  0  0  0  0  0  0  0
  147.7766  158.0906  134.2221 H   0  0  0  0  0  0  0  0  0  0  0  0
  148.1498  156.3194  131.7674 H   0  0  0  0  0  0  0  0  0  0  0  0
  148.0676  155.8481  133.5138 H   0  0  0  0  0  0  0  0  0  0  0  0
  145.6530  157.1830  132.4640 H   0  0  0  0  0  0  0  0  0  0  0  0
  147.4132  153.9370  132.4434 H   0  0  0  0  0  0  0  0  0  0  0  0
  146.3028  151.6843  132.5917 H   0  0  0  0  0  0  0  0  0  0  0  0
  143.7582  150.4193  132.9264 H   0  0  0  0  0  0  0  0  0  0  0  0
  139.0160  150.8060  132.6810 H   0  0  0  0  0  0  0  0  0  0  0  0
  139.8370  152.1580  131.8340 H   0  0  0  0  0  0  0  0  0  0  0  0
  141.4263  156.8471  132.7624 H   0  0  0  0  0  0  0  0  0  0  0  0
  140.1134  157.0867  133.9784 H   0  0  0  0  0  0  0  0  0  0  0  0
  141.5111  158.5294  134.9930 H   0  0  0  0  0  0  0  0  0  0  0  0
  142.4378  157.0515  135.5078 H   0  0  0  0  0  0  0  0  0  0  0  0
  143.5681  155.8761  133.1259 H   0  0  0  0  0  0  0  0  0  0  0  0
  1  2  1  0
  2  3  1  0
  2  4  1  0
  4  5  1  0
  5  6  1  0
  6  7  1  0
  7  8  2  0
  8  9  1  0
  9 10  2  0
 10 11  1  0
 11 12  2  0
 12 13  1  0
 13 14  1  0
 13 15  2  0
 12 16  1  0
 16 17  1  0
 17 18  2  0
 17 19  1  0
 19 20  1  0
 20 21  1  0
 21 22  1  0
 22 23  2  0
 22 24  1  0
 22 25  1  0
 16 26  1  0
 26 27  2  0
 27  7  1  0
 26 10  1  0
  1 28  1  0
  1 29  1  0
  1 30  1  0
  3 31  1  0
  3 32  1  0
  3 33  1  0
  4 34  1  0
  4 35  1  0
  5 36  1  0
  5 37  1  0
  6 38  1  0
  8 39  1  0
  9 40  1  0
 11 41  1  0
 14 42  1  0
 14 43  1  0
 20 44  1  0
 20 45  1  0
 21 46  1  0
 21 47  1  0
 27 48  1  0
M  CHG  2  24  -1  25  -1
M  END
>  <UniqueID>  (77) 
76

>  <SMILES>  (77) 
CN(C)CCNc1ccc2cc(C(N)=O)n(C(=O)OCCP(=O)([O-])[O-])c2c1

>  <Energy>  (77) 
77.41632907770068

>  <Genealogy>  (77) 
CN(C)CCNc1ccc2cc(C(N)=O)n(C(=O)OCCP(=O)([O-])[O-])c2c1 (protonated)
CN(C)CCNc1ccc2cc(C(N)=O)n(C(=O)OCCP(=O)([O-])[O-])c2c1 (3D coordinates assigned)
CN(C)CCNc1ccc2cc(C(N)=O)n(C(=O)OCCP(=O)([O-])[O-])c2c1 (optimized conformer: 77.41632907770068 kcal/mol)

>  <smiles>  (77) 
CN(C)CCNc1ccc2cc(C(N)=O)n(C(=O)OCCP(=O)(O)O)c2c1

>  <score_type>  (77) 
oracle

>  <origin>  (77) 
adg

>  <m_score__min__energy>  (77) 
-6.3899999999999997

>  <m_primary>  (77) 
energy

$$$$
77:0
     RDKit          3D

 30 31  0  0  0  0  0  0  0  0999 V2000
  138.6590  158.2360  130.9180 C   0  0  0  0  0  0  0  0  0  0  0  0
  139.2020  158.9210  131.9340 C   0  0  0  0  0  0  0  0  0  0  0  0
  139.3930  160.3880  131.8210 C   0  0  0  0  0  0  0  0  0  0  0  0
  140.1490  161.0000  132.6220 O   0  0  0  0  0  0  0  0  0  0  0  0
  138.7260  161.1150  130.8440 O   0  0  0  0  0  0  0  0  0  0  0  0
  139.6240  158.1980  133.1630 C   0  0  0  0  0  0  0  0  0  0  0  0
  138.8480  158.1440  134.1570 O   0  0  0  0  0  0  0  0  0  0  0  0
  140.8960  157.5360  133.2380 N   0  0  0  0  0  0  0  0  0  0  0  0
  141.1520  156.1960  133.2120 C   0  0  0  0  0  0  0  0  0  0  0  0
  140.1560  155.1280  132.9870 C   0  0  0  0  0  0  0  0  0  0  0  0
  138.7600  155.3920  133.0860 N   0  0  0  0  0  0  0  0  0  0  0  0
  140.5440  153.9720  132.6670 O   0  0  0  0  0  0  0  0  0  0  0  0
  142.5170  155.9600  133.3650 C   0  0  0  0  0  0  0  0  0  0  0  0
  143.0940  157.2060  133.4740 C   0  0  0  0  0  0  0  0  0  0  0  0
  144.4280  157.5670  133.6390 C   0  0  0  0  0  0  0  0  0  0  0  0
  144.7330  158.9360  133.7320 C   0  0  0  0  0  0  0  0  0  0  0  0
  143.7050  159.9100  133.6740 C   0  0  0  0  0  0  0  0  0  0  0  0
  144.0470  161.3680  133.7420 C   0  0  0  0  0  0  0  0  0  0  0  0
  142.3650  159.5070  133.4890 C   0  0  0  0  0  0  0  0  0  0  0  0
  142.0940  158.1390  133.3890 C   0  0  0  0  0  0  0  0  0  0  0  0
  138.5173  157.1484  131.0015 H   0  0  0  0  0  0  0  0  0  0  0  0
  138.3551  158.7614  130.0006 H   0  0  0  0  0  0  0  0  0  0  0  0
  138.3880  156.3620  132.9840 H   0  0  0  0  0  0  0  0  0  0  0  0
  143.0258  154.9852  133.3928 H   0  0  0  0  0  0  0  0  0  0  0  0
  145.2190  156.8047  133.6949 H   0  0  0  0  0  0  0  0  0  0  0  0
  145.7792  159.2543  133.8509 H   0  0  0  0  0  0  0  0  0  0  0  0
  144.1199  161.6788  134.7947 H   0  0  0  0  0  0  0  0  0  0  0  0
  145.0104  161.5424  133.2406 H   0  0  0  0  0  0  0  0  0  0  0  0
  143.2616  161.9526  133.2406 H   0  0  0  0  0  0  0  0  0  0  0  0
  141.5557  160.2492  133.4252 H   0  0  0  0  0  0  0  0  0  0  0  0
  1  2  2  0
  2  3  1  0
  3  4  2  0
  3  5  1  0
  2  6  1  0
  6  7  2  0
  6  8  1  0
  8  9  1  0
  9 10  1  0
 10 11  1  0
 10 12  2  0
  9 13  2  0
 13 14  1  0
 14 15  2  0
 15 16  1  0
 16 17  2  0
 17 18  1  0
 17 19  1  0
 19 20  2  0
 20  8  1  0
 20 14  1  0
  1 21  1  0
  1 22  1  0
 11 23  1  0
 13 24  1  0
 15 25  1  0
 16 26  1  0
 18 27  1  0
 18 28  1  0
 18 29  1  0
 19 30  1  0
M  CHG  2   5  -1  11  -1
M  END
>  <UniqueID>  (78) 
77

>  <SMILES>  (78) 
C=C(C(=O)[O-])C(=O)n1c(C([NH-])=O)cc2ccc(C)cc21

>  <Energy>  (78) 
71.4107804129307

>  <Genealogy>  (78) 
C=C(C(=O)[O-])C(=O)n1c(C([NH-])=O)cc2ccc(C)cc21 (protonated)
C=C(C(=O)[O-])C(=O)n1c(C([NH-])=O)cc2ccc(C)cc21 (3D coordinates assigned)
C=C(C(=O)[O-])C(=O)n1c(C([NH-])=O)cc2ccc(C)cc21 (optimized conformer: 71.4107804129307 kcal/mol)

>  <smiles>  (78) 
C=C(C(=O)O)C(=O)n1c(C(N)=O)cc2ccc(C)cc21

>  <score_type>  (78) 
oracle

>  <origin>  (78) 
adg

>  <m_score__min__energy>  (78) 
-6.6699999999999999

>  <m_primary>  (78) 
energy

$$$$
78:0
     RDKit          3D

 40 41  0  0  0  0  0  0  0  0999 V2000
  149.2466  153.4113  130.9204 H   0  0  0  0  0  0  0  0  0  0  0  0
  149.2350  153.0580  131.9620 C   0  0  0  0  0  0  0  0  0  0  0  0
  149.6310  151.7980  132.2150 C   0  0  0  0  0  0  0  0  0  0  0  0
  149.6260  151.1340  133.8510 Cl  0  0  0  0  0  0  0  0  0  0  0  0
  150.0810  150.9170  131.1170 C   0  0  0  0  0  0  0  0  0  0  0  0
  150.2900  149.6940  131.3370 O   0  0  0  0  0  0  0  0  0  0  0  0
  150.2790  151.4150  129.8340 O   0  0  0  0  0  0  0  0  0  0  0  0
  148.7830  153.9950  133.0210 C   0  0  0  0  0  0  0  0  0  0  0  0
  149.5171  154.7022  133.4344 H   0  0  0  0  0  0  0  0  0  0  0  0
  147.5250  154.0300  133.5060 C   0  0  0  0  0  0  0  0  0  0  0  0
  147.1620  155.0400  134.5350 C   0  0  0  0  0  0  0  0  0  0  0  0
  147.5130  154.8730  135.7350 O   0  0  0  0  0  0  0  0  0  0  0  0
  146.4110  156.2150  134.1850 N   0  0  0  0  0  0  0  0  0  0  0  0
  145.1110  156.4860  134.4860 C   0  0  0  0  0  0  0  0  0  0  0  0
  144.1730  155.5450  135.1410 C   0  0  0  0  0  0  0  0  0  0  0  0
  143.0280  155.3530  134.6520 O   0  0  0  0  0  0  0  0  0  0  0  0
  144.5380  154.8570  136.3390 N   0  0  0  0  0  0  0  0  0  0  0  0
  145.4980  154.9330  136.7420 H   0  0  0  0  0  0  0  0  0  0  0  0
  143.8530  154.2240  136.8080 H   0  0  0  0  0  0  0  0  0  0  0  0
  144.7630  157.7580  134.0290 C   0  0  0  0  0  0  0  0  0  0  0  0
  143.7852  158.2541  134.1171 H   0  0  0  0  0  0  0  0  0  0  0  0
  145.9050  158.2600  133.4440 C   0  0  0  0  0  0  0  0  0  0  0  0
  146.1340  159.4900  132.8360 C   0  0  0  0  0  0  0  0  0  0  0  0
  145.3306  160.2361  132.7467 H   0  0  0  0  0  0  0  0  0  0  0  0
  147.4230  159.7510  132.3390 C   0  0  0  0  0  0  0  0  0  0  0  0
  147.6330  160.7133  131.8492 H   0  0  0  0  0  0  0  0  0  0  0  0
  148.4580  158.7840  132.4630 C   0  0  0  0  0  0  0  0  0  0  0  0
  149.7860  159.0350  131.9680 N   0  0  0  0  0  0  0  0  0  0  0  0
  150.6050  158.7010  132.5260 H   0  0  0  0  0  0  0  0  0  0  0  0
  150.0610  159.7340  130.7160 C   0  0  0  0  0  0  0  0  0  0  0  0
  150.4557  160.7371  130.9351 H   0  0  0  0  0  0  0  0  0  0  0  0
  150.8031  159.1669  130.1348 H   0  0  0  0  0  0  0  0  0  0  0  0
  149.1315  159.8246  130.1348 H   0  0  0  0  0  0  0  0  0  0  0  0
  148.1810  157.5480  133.0870 C   0  0  0  0  0  0  0  0  0  0  0  0
  148.9677  156.7878  133.2018 H   0  0  0  0  0  0  0  0  0  0  0  0
  146.8850  157.3110  133.5560 C   0  0  0  0  0  0  0  0  0  0  0  0
  146.4650  153.0700  133.0190 C   0  0  0  0  0  0  0  0  0  0  0  0
  145.9599  152.6126  133.8825 H   0  0  0  0  0  0  0  0  0  0  0  0
  145.7287  153.6149  132.4099 H   0  0  0  0  0  0  0  0  0  0  0  0
  146.9345  152.2835  132.4099 H   0  0  0  0  0  0  0  0  0  0  0  0
  1  2  1  0
  2  3  2  0
  3  4  1  0
  3  5  1  0
  5  6  2  0
  5  7  1  0
  2  8  1  0
  8  9  1  0
  8 10  2  0
 10 11  1  0
 11 12  2  0
 11 13  1  0
 13 14  1  0
 14 15  1  0
 15 16  2  0
 15 17  1  0
 17 18  1  0
 17 19  1  0
 14 20  2  0
 20 21  1  0
 20 22  1  0
 22 23  2  0
 23 24  1  0
 23 25  1  0
 25 26  1  0
 25 27  2  0
 27 28  1  0
 28 29  1  0
 28 30  1  0
 30 31  1  0
 30 32  1  0
 30 33  1  0
 27 34  1  0
 34 35  1  0
 34 36  2  0
 10 37  1  0
 37 38  1  0
 37 39  1  0
 37 40  1  0
 36 13  1  0
 36 22  1  0
M  CHG  1   7  -1
M  END
>  <UniqueID>  (79) 
78

>  <SMILES>  (79) 
CNc1ccc2cc(C(N)=O)n(C(=O)/C(C)=C/C=C(\Cl)C(=O)[O-])c2c1

>  <Energy>  (79) 
79.88369014811626

>  <Genealogy>  (79) 
CNc1ccc2cc(C(N)=O)n(C(=O)/C(C)=C/C=C(\Cl)C(=O)[O-])c2c1 (protonated)
CNc1ccc2cc(C(N)=O)n(C(=O)/C(C)=C/C=C(\Cl)C(=O)[O-])c2c1 (cis-trans isomerization)
CNc1ccc2cc(C(N)=O)n(C(=O)/C(C)=C/C=C(\Cl)C(=O)[O-])c2c1 (3D coordinates assigned)
CNc1ccc2cc(C(N)=O)n(C(=O)/C(C)=C/C=C(\Cl)C(=O)[O-])c2c1 (optimized conformer: 79.88369014811626 kcal/mol)

>  <smiles>  (79) 
CNc1ccc2cc(C(N)=O)n(C(=O)/C(C)=C/C=C(\Cl)C(=O)O)c2c1

>  <score_type>  (79) 
oracle

>  <origin>  (79) 
adg

>  <m_score__min__energy>  (79) 
-8.3200000000000003

>  <m_primary>  (79) 
energy

$$$$
79:0
     RDKit          3D

 35 37  0  0  0  0  0  0  0  0999 V2000
  139.1250  157.8490  136.3350 N   0  0  0  0  0  0  0  0  0  0  0  0
  139.5510  157.9210  134.9760 C   0  0  0  0  0  0  0  0  0  0  0  0
  138.7500  157.5960  134.0610 O   0  0  0  0  0  0  0  0  0  0  0  0
  140.9060  158.4180  134.6560 C   0  0  0  0  0  0  0  0  0  0  0  0
  141.2000  159.7640  134.4510 C   0  0  0  0  0  0  0  0  0  0  0  0
  142.5280  159.7960  134.0900 C   0  0  0  0  0  0  0  0  0  0  0  0
  143.3420  160.8790  133.7790 C   0  0  0  0  0  0  0  0  0  0  0  0
  144.6880  160.6220  133.4670 C   0  0  0  0  0  0  0  0  0  0  0  0
  145.1990  159.2970  133.4790 C   0  0  0  0  0  0  0  0  0  0  0  0
  146.5860  159.0430  133.1630 N   0  0  0  0  0  0  0  0  0  0  0  0
  147.4990  160.1690  132.9090 C   0  0  0  0  0  0  0  0  0  0  0  0
  148.8480  159.7430  132.9270 O   0  0  0  0  0  0  0  0  0  0  0  0
  149.0440  158.7610  131.9280 C   0  0  0  0  0  0  0  0  0  0  0  0
  148.2430  157.4700  132.2290 C   0  0  1  0  0  0  0  0  0  0  0  0
  149.0930  156.4190  132.6120 O   0  0  0  0  0  0  0  0  0  0  0  0
  147.1560  157.6980  133.2950 C   0  0  0  0  0  0  0  0  0  0  0  0
  144.3330  158.2250  133.7990 C   0  0  0  0  0  0  0  0  0  0  0  0
  142.9930  158.5070  134.0870 C   0  0  0  0  0  0  0  0  0  0  0  0
  142.0100  157.6480  134.4360 N   0  0  0  0  0  0  0  0  0  0  0  0
  142.1380  156.2270  134.6100 C   0  0  0  0  0  0  0  0  0  0  0  0
  141.4340  155.4360  133.9280 O   0  0  0  0  0  0  0  0  0  0  0  0
  143.0600  155.7100  135.5110 O   0  0  0  0  0  0  0  0  0  0  0  0
  139.0930  158.7060  136.9330 H   0  0  0  0  0  0  0  0  0  0  0  0
  140.5164  160.6194  134.5554 H   0  0  0  0  0  0  0  0  0  0  0  0
  142.9451  161.9049  133.7772 H   0  0  0  0  0  0  0  0  0  0  0  0
  145.3547  161.4584  133.2100 H   0  0  0  0  0  0  0  0  0  0  0  0
  147.2715  160.6011  131.9233 H   0  0  0  0  0  0  0  0  0  0  0  0
  147.3582  160.9193  133.7009 H   0  0  0  0  0  0  0  0  0  0  0  0
  148.7154  159.1668  130.9598 H   0  0  0  0  0  0  0  0  0  0  0  0
  150.1132  158.5037  131.9051 H   0  0  0  0  0  0  0  0  0  0  0  0
  147.7381  157.1866  131.2937 H   0  0  0  0  0  0  0  0  0  0  0  0
  149.6150  156.7280  133.3990 H   0  0  0  0  0  0  0  0  0  0  0  0
  146.3584  156.9517  133.1650 H   0  0  0  0  0  0  0  0  0  0  0  0
  147.6077  157.5977  134.2930 H   0  0  0  0  0  0  0  0  0  0  0  0
  144.7057  157.1903  133.8210 H   0  0  0  0  0  0  0  0  0  0  0  0
  1  2  1  0
  2  3  2  0
  2  4  1  0
  4  5  2  0
  5  6  1  0
  6  7  2  0
  7  8  1  0
  8  9  2  0
  9 10  1  0
 10 11  1  0
 11 12  1  0
 12 13  1  0
 13 14  1  0
 14 15  1  0
 14 16  1  0
  9 17  1  0
 17 18  2  0
 18 19  1  0
 19 20  1  0
 20 21  2  0
 20 22  1  0
 19  4  1  0
 18  6  1  0
 16 10  1  0
  1 23  1  0
  5 24  1  0
  7 25  1  0
  8 26  1  0
 11 27  1  0
 11 28  1  0
 13 29  1  0
 13 30  1  0
 14 31  1  6
 15 32  1  0
 16 33  1  0
 16 34  1  0
 17 35  1  0
M  CHG  2   1  -1  22  -1
M  END
>  <UniqueID>  (80) 
79

>  <SMILES>  (80) 
[NH-]C(=O)c1cc2ccc(N3COC[C@@H](O)C3)cc2n1C(=O)[O-]

>  <Energy>  (80) 
85.84947736775987

>  <Genealogy>  (80) 
[NH-]C(=O)c1cc2ccc(N3COC[C@@H](O)C3)cc2n1C(=O)[O-] (protonated)
[NH-]C(=O)c1cc2ccc(N3COC[C@@H](O)C3)cc2n1C(=O)[O-] (3D coordinates assigned)
[NH-]C(=O)c1cc2ccc(N3COC[C@@H](O)C3)cc2n1C(=O)[O-] (nonaromatic ring conformer: 85.84947736775987 kcal/mol)

>  <smiles>  (80) 
NC(=O)c1cc2ccc(N3COC[C@@H](O)C3)cc2n1C(=O)O

>  <score_type>  (80) 
oracle

>  <origin>  (80) 
adg

>  <m_score__min__energy>  (80) 
-6.8499999999999996

>  <m_primary>  (80) 
energy

$$$$
80:0
     RDKit          3D

 49 50  0  0  0  0  0  0  0  0999 V2000
  150.4760  150.7160  132.4590 C   0  0  0  0  0  0  0  0  0  0  0  0
  149.7630  151.7160  133.2620 N   0  0  0  0  0  0  0  0  0  0  0  0
  149.5950  151.5110  134.7050 C   0  0  0  0  0  0  0  0  0  0  0  0
  149.2540  152.9010  132.6100 C   0  0  0  0  0  0  0  0  0  0  0  0
  149.4670  153.0730  131.3780 O   0  0  0  0  0  0  0  0  0  0  0  0
  148.4670  153.9500  133.3510 C   0  0  0  0  0  0  0  0  0  0  0  0
  147.8780  154.9170  132.4240 N   0  0  0  0  0  0  0  0  0  0  0  0
  147.7470  156.3250  132.6940 C   0  0  0  0  0  0  0  0  0  0  0  0
  148.8680  157.1980  132.6630 C   0  0  0  0  0  0  0  0  0  0  0  0
  148.7130  158.5740  132.9030 C   0  0  0  0  0  0  0  0  0  0  0  0
  147.4350  159.0490  133.1820 C   0  0  0  0  0  0  0  0  0  0  0  0
  146.9990  160.3320  133.4180 C   0  0  0  0  0  0  0  0  0  0  0  0
  145.6240  160.2230  133.6220 C   0  0  0  0  0  0  0  0  0  0  0  0
  144.7590  161.3660  133.9860 C   0  0  0  0  0  0  0  0  0  0  0  0
  143.3580  161.3070  133.7280 N   0  0  0  0  0  0  0  0  0  0  0  0
  145.2490  162.4090  134.4940 O   0  0  0  0  0  0  0  0  0  0  0  0
  145.2270  158.9230  133.5100 N   0  0  0  0  0  0  0  0  0  0  0  0
  143.8970  158.3930  133.5960 C   0  0  0  0  0  0  0  0  0  0  0  0
  143.4120  157.7600  132.6190 O   0  0  0  0  0  0  0  0  0  0  0  0
  143.1640  158.5680  134.7780 O   0  0  0  0  0  0  0  0  0  0  0  0
  141.7500  158.3860  134.9400 C   0  0  0  0  0  0  0  0  0  0  0  0
  140.9760  159.1360  133.8390 C   0  0  0  0  0  0  0  0  0  0  0  0
  141.3700  158.9770  136.3050 C   0  0  0  0  0  0  0  0  0  0  0  0
  141.3950  156.8870  134.9300 C   0  0  0  0  0  0  0  0  0  0  0  0
  146.3480  158.2180  133.2430 C   0  0  0  0  0  0  0  0  0  0  0  0
  146.4700  156.8460  132.9940 C   0  0  0  0  0  0  0  0  0  0  0  0
  150.9836  150.0040  133.1264 H   0  0  0  0  0  0  0  0  0  0  0  0
  149.7581  150.1758  131.8243 H   0  0  0  0  0  0  0  0  0  0  0  0
  151.2207  151.2186  131.8243 H   0  0  0  0  0  0  0  0  0  0  0  0
  150.1996  152.2487  135.2530 H   0  0  0  0  0  0  0  0  0  0  0  0
  148.5351  151.6346  134.9720 H   0  0  0  0  0  0  0  0  0  0  0  0
  149.9244  150.4960  134.9720 H   0  0  0  0  0  0  0  0  0  0  0  0
  147.6624  153.4609  133.9197 H   0  0  0  0  0  0  0  0  0  0  0  0
  149.1483  154.4850  134.0289 H   0  0  0  0  0  0  0  0  0  0  0  0
  147.5840  154.5630  131.4860 H   0  0  0  0  0  0  0  0  0  0  0  0
  149.8678  156.7923  132.4488 H   0  0  0  0  0  0  0  0  0  0  0  0
  149.5761  159.2553  132.8713 H   0  0  0  0  0  0  0  0  0  0  0  0
  147.6060  161.2491  133.4409 H   0  0  0  0  0  0  0  0  0  0  0  0
  142.8730  160.3920  133.6030 H   0  0  0  0  0  0  0  0  0  0  0  0
  140.2596  159.8302  134.3025 H   0  0  0  0  0  0  0  0  0  0  0  0
  141.6829  159.7016  133.2142 H   0  0  0  0  0  0  0  0  0  0  0  0
  140.4329  158.4116  133.2142 H   0  0  0  0  0  0  0  0  0  0  0  0
  141.7779  158.3426  137.1057 H   0  0  0  0  0  0  0  0  0  0  0  0
  141.7853  159.9917  136.3937 H   0  0  0  0  0  0  0  0  0  0  0  0
  140.2744  159.0202  136.3937 H   0  0  0  0  0  0  0  0  0  0  0  0
  141.3090  156.5236  135.9647 H   0  0  0  0  0  0  0  0  0  0  0  0
  140.4373  156.7405  134.4091 H   0  0  0  0  0  0  0  0  0  0  0  0
  142.1853  156.3265  134.4091 H   0  0  0  0  0  0  0  0  0  0  0  0
  145.5894  156.1878  133.0313 H   0  0  0  0  0  0  0  0  0  0  0  0
  1  2  1  0
  2  3  1  0
  2  4  1  0
  4  5  2  0
  4  6  1  0
  6  7  1  0
  7  8  1  0
  8  9  2  0
  9 10  1  0
 10 11  2  0
 11 12  1  0
 12 13  2  0
 13 14  1  0
 14 15  1  0
 14 16  2  0
 13 17  1  0
 17 18  1  0
 18 19  2  0
 18 20  1  0
 20 21  1  0
 21 22  1  0
 21 23  1  0
 21 24  1  0
 17 25  1  0
 25 26  2  0
 26  8  1  0
 25 11  1  0
  1 27  1  0
  1 28  1  0
  1 29  1  0
  3 30  1  0
  3 31  1  0
  3 32  1  0
  6 33  1  0
  6 34  1  0
  7 35  1  0
  9 36  1  0
 10 37  1  0
 12 38  1  0
 15 39  1  0
 22 40  1  0
 22 41  1  0
 22 42  1  0
 23 43  1  0
 23 44  1  0
 23 45  1  0
 24 46  1  0
 24 47  1  0
 24 48  1  0
 26 49  1  0
M  CHG  1  15  -1
M  END
>  <UniqueID>  (81) 
80

>  <SMILES>  (81) 
CN(C)C(=O)CNc1ccc2cc(C([NH-])=O)n(C(=O)OC(C)(C)C)c2c1

>  <Energy>  (81) 
78.92891936493466

>  <Genealogy>  (81) 
CN(C)C(=O)CNc1ccc2cc(C([NH-])=O)n(C(=O)OC(C)(C)C)c2c1 (protonated)
CN(C)C(=O)CNc1ccc2cc(C([NH-])=O)n(C(=O)OC(C)(C)C)c2c1 (3D coordinates assigned)
CN(C)C(=O)CNc1ccc2cc(C([NH-])=O)n(C(=O)OC(C)(C)C)c2c1 (optimized conformer: 78.92891936493466 kcal/mol)

>  <smiles>  (81) 
CN(C)C(=O)CNc1ccc2cc(C(N)=O)n(C(=O)OC(C)(C)C)c2c1

>  <score_type>  (81) 
oracle

>  <origin>  (81) 
adg

>  <m_score__min__energy>  (81) 
-7.8099999999999996

>  <m_primary>  (81) 
energy

$$$$
81:0
     RDKit          3D

 41 42  0  0  0  0  0  0  0  0999 V2000
  140.2190  157.4570  135.8430 C   0  0  0  0  0  0  0  0  0  0  0  0
  140.2540  158.9630  136.0970 C   0  0  0  0  0  0  0  0  0  0  0  0
  141.2130  159.2900  137.2450 C   0  0  0  0  0  0  0  0  0  0  0  0
  140.6720  159.6240  134.9020 O   0  0  0  0  0  0  0  0  0  0  0  0
  140.3850  159.1510  133.6190 C   0  0  0  0  0  0  0  0  0  0  0  0
  139.1890  159.0230  133.2350 O   0  0  0  0  0  0  0  0  0  0  0  0
  141.4400  158.8180  132.7670 O   0  0  0  0  0  0  0  0  0  0  0  0
  141.9110  157.4820  132.6070 C   0  0  0  0  0  0  0  0  0  0  0  0
  143.2730  157.3900  133.0140 O   0  0  0  0  0  0  0  0  0  0  0  0
  143.8360  158.2350  133.9780 C   0  0  0  0  0  0  0  0  0  0  0  0
  143.2340  158.4520  135.0650 O   0  0  0  0  0  0  0  0  0  0  0  0
  145.0960  158.8690  133.7180 N   0  0  0  0  0  0  0  0  0  0  0  0
  145.3670  160.2050  133.6620 C   0  0  0  0  0  0  0  0  0  0  0  0
  144.4220  161.2970  133.9760 C   0  0  0  0  0  0  0  0  0  0  0  0
  143.0260  161.1140  133.7520 N   0  0  0  0  0  0  0  0  0  0  0  0
  144.8370  162.4030  134.4130 O   0  0  0  0  0  0  0  0  0  0  0  0
  146.7060  160.4170  133.3340 C   0  0  0  0  0  0  0  0  0  0  0  0
  147.2510  159.1610  133.1960 C   0  0  0  0  0  0  0  0  0  0  0  0
  148.5460  158.7790  132.8580 C   0  0  0  0  0  0  0  0  0  0  0  0
  148.8210  157.4050  132.7540 C   0  0  0  0  0  0  0  0  0  0  0  0
  147.8060  156.4440  132.9890 C   0  0  0  0  0  0  0  0  0  0  0  0
  148.1050  154.9820  132.8130 C   0  0  0  0  0  0  0  0  0  0  0  0
  149.4440  154.7910  132.5180 F   0  0  0  0  0  0  0  0  0  0  0  0
  147.7930  154.3050  133.9760 F   0  0  0  0  0  0  0  0  0  0  0  0
  146.4990  156.8710  133.3130 C   0  0  0  0  0  0  0  0  0  0  0  0
  146.2590  158.2450  133.4320 C   0  0  0  0  0  0  0  0  0  0  0  0
  140.2066  156.9232  136.8047 H   0  0  0  0  0  0  0  0  0  0  0  0
  139.3147  157.2026  135.2707 H   0  0  0  0  0  0  0  0  0  0  0  0
  141.1105  157.1609  135.2707 H   0  0  0  0  0  0  0  0  0  0  0  0
  139.2495  159.3099  136.3809 H   0  0  0  0  0  0  0  0  0  0  0  0
  140.7067  159.1174  138.2062 H   0  0  0  0  0  0  0  0  0  0  0  0
  142.1005  158.6437  137.1768 H   0  0  0  0  0  0  0  0  0  0  0  0
  141.5208  160.3439  137.1768 H   0  0  0  0  0  0  0  0  0  0  0  0
  141.3009  156.8051  133.2231 H   0  0  0  0  0  0  0  0  0  0  0  0
  141.8324  157.1975  131.5473 H   0  0  0  0  0  0  0  0  0  0  0  0
  142.5600  160.2090  133.9790 H   0  0  0  0  0  0  0  0  0  0  0  0
  147.2177  161.3830  133.2116 H   0  0  0  0  0  0  0  0  0  0  0  0
  149.3298  159.5294  132.6779 H   0  0  0  0  0  0  0  0  0  0  0  0
  149.8348  157.0716  132.4874 H   0  0  0  0  0  0  0  0  0  0  0  0
  147.4991  154.5967  131.9797 H   0  0  0  0  0  0  0  0  0  0  0  0
  145.6900  156.1420  133.4679 H   0  0  0  0  0  0  0  0  0  0  0  0
  1  2  1  0
  2  3  1  0
  2  4  1  0
  4  5  1  0
  5  6  2  0
  5  7  1  0
  7  8  1  0
  8  9  1  0
  9 10  1  0
 10 11  2  0
 10 12  1  0
 12 13  1  0
 13 14  1  0
 14 15  1  0
 14 16  2  0
 13 17  2  0
 17 18  1  0
 18 19  2  0
 19 20  1  0
 20 21  2  0
 21 22  1  0
 22 23  1  0
 22 24  1  0
 21 25  1  0
 25 26  2  0
 26 12  1  0
 26 18  1  0
  1 27  1  0
  1 28  1  0
  1 29  1  0
  2 30  1  0
  3 31  1  0
  3 32  1  0
  3 33  1  0
  8 34  1  0
  8 35  1  0
 15 36  1  0
 17 37  1  0
 19 38  1  0
 20 39  1  0
 22 40  1  0
 25 41  1  0
M  CHG  1  15  -1
M  END
>  <UniqueID>  (82) 
81

>  <SMILES>  (82) 
CC(C)OC(=O)OCOC(=O)n1c(C([NH-])=O)cc2ccc(C(F)F)cc21

>  <Energy>  (82) 
68.91609752833563

>  <Genealogy>  (82) 
CC(C)OC(=O)OCOC(=O)n1c(C([NH-])=O)cc2ccc(C(F)F)cc21 (protonated)
CC(C)OC(=O)OCOC(=O)n1c(C([NH-])=O)cc2ccc(C(F)F)cc21 (3D coordinates assigned)
CC(C)OC(=O)OCOC(=O)n1c(C([NH-])=O)cc2ccc(C(F)F)cc21 (optimized conformer: 68.91609752833563 kcal/mol)

>  <smiles>  (82) 
CC(C)OC(=O)OCOC(=O)n1c(C(N)=O)cc2ccc(C(F)F)cc21

>  <score_type>  (82) 
oracle

>  <origin>  (82) 
adg

>  <m_score__min__energy>  (82) 
-6.0300000000000002

>  <m_primary>  (82) 
energy

$$$$
82:0
     RDKit          3D

 31 33  0  0  0  0  0  0  0  0999 V2000
  149.5520  159.3960  131.4690 C   0  0  0  0  0  0  0  0  0  0  0  0
  148.3780  158.8970  132.2420 C   0  0  0  0  0  0  0  0  0  0  0  0
  148.3920  157.7560  132.9610 N   0  0  0  0  0  0  0  0  0  0  0  0
  147.1420  157.6860  133.4590 C   0  0  0  0  0  0  0  0  0  0  0  0
  146.4210  158.7790  133.0190 C   0  0  0  0  0  0  0  0  0  0  0  0
  145.0090  159.1180  133.3100 C   0  0  0  0  0  0  0  0  0  0  0  0
  144.5940  160.4660  133.4670 C   0  0  0  0  0  0  0  0  0  0  0  0
  143.2500  160.7780  133.7300 C   0  0  0  0  0  0  0  0  0  0  0  0
  142.3460  159.7270  133.8400 C   0  0  0  0  0  0  0  0  0  0  0  0
  140.9880  159.7510  134.0560 C   0  0  0  0  0  0  0  0  0  0  0  0
  140.5920  158.4170  134.0590 C   0  0  0  0  0  0  0  0  0  0  0  0
  139.2080  157.9820  134.3240 C   0  0  0  0  0  0  0  0  0  0  0  0
  138.4710  157.2300  133.3600 N   0  0  0  0  0  0  0  0  0  0  0  0
  138.6850  158.2280  135.4450 O   0  0  0  0  0  0  0  0  0  0  0  0
  141.6600  157.5970  133.8400 N   0  0  0  0  0  0  0  0  0  0  0  0
  141.6370  156.1710  133.6530 C   0  0  0  0  0  0  0  0  0  0  0  0
  142.5730  155.4540  134.0940 O   0  0  0  0  0  0  0  0  0  0  0  0
  140.5820  155.5700  132.9760 O   0  0  0  0  0  0  0  0  0  0  0  0
  142.7280  158.4160  133.7110 C   0  0  0  0  0  0  0  0  0  0  0  0
  144.0580  158.0790  133.4280 C   0  0  0  0  0  0  0  0  0  0  0  0
  147.2140  159.5040  132.2680 O   0  0  0  0  0  0  0  0  0  0  0  0
  150.3352  159.7289  132.1659 H   0  0  0  0  0  0  0  0  0  0  0  0
  149.9446  158.5870  130.8355 H   0  0  0  0  0  0  0  0  0  0  0  0
  149.2420  160.2401  130.8355 H   0  0  0  0  0  0  0  0  0  0  0  0
  146.7577  156.8875  134.1107 H   0  0  0  0  0  0  0  0  0  0  0  0
  145.3334  161.2759  133.3817 H   0  0  0  0  0  0  0  0  0  0  0  0
  142.9225  161.8218  133.8454 H   0  0  0  0  0  0  0  0  0  0  0  0
  140.3505  160.6364  134.1965 H   0  0  0  0  0  0  0  0  0  0  0  0
  137.4790  156.9610  133.5490 H   0  0  0  0  0  0  0  0  0  0  0  0
  138.9290  156.8690  132.4930 H   0  0  0  0  0  0  0  0  0  0  0  0
  144.3560  157.0278  133.3003 H   0  0  0  0  0  0  0  0  0  0  0  0
  1  2  1  0
  2  3  2  0
  3  4  1  0
  4  5  2  0
  5  6  1  0
  6  7  2  0
  7  8  1  0
  8  9  2  0
  9 10  1  0
 10 11  2  0
 11 12  1  0
 12 13  1  0
 12 14  2  0
 11 15  1  0
 15 16  1  0
 16 17  2  0
 16 18  1  0
 15 19  1  0
 19 20  2  0
  5 21  1  0
 21  2  1  0
 20  6  1  0
 19  9  1  0
  1 22  1  0
  1 23  1  0
  1 24  1  0
  4 25  1  0
  7 26  1  0
  8 27  1  0
 10 28  1  0
 13 29  1  0
 13 30  1  0
 20 31  1  0
M  CHG  1  18  -1
M  END
>  <UniqueID>  (83) 
82

>  <SMILES>  (83) 
Cc1ncc(-c2ccc3cc(C(N)=O)n(C(=O)[O-])c3c2)o1

>  <Energy>  (83) 
102.591324363929

>  <Genealogy>  (83) 
Cc1ncc(-c2ccc3cc(C(N)=O)n(C(=O)[O-])c3c2)o1 (protonated)
Cc1ncc(-c2ccc3cc(C(N)=O)n(C(=O)[O-])c3c2)o1 (3D coordinates assigned)
Cc1ncc(-c2ccc3cc(C(N)=O)n(C(=O)[O-])c3c2)o1 (optimized conformer: 102.591324363929 kcal/mol)

>  <smiles>  (83) 
Cc1ncc(-c2ccc3cc(C(N)=O)n(C(=O)O)c3c2)o1

>  <score_type>  (83) 
oracle

>  <origin>  (83) 
adg

>  <m_score__min__energy>  (83) 
-6.6500000000000004

>  <m_primary>  (83) 
energy

$$$$
83:0
     RDKit          3D

 46 47  0  0  0  0  0  0  0  0999 V2000
  143.7440  153.2100  133.5960 C   0  0  0  0  0  0  0  0  0  0  0  0
  142.3670  153.1420  134.2930 C   0  0  0  0  0  0  0  0  0  0  0  0
  142.5960  153.1960  135.8210 C   0  0  0  0  0  0  0  0  0  0  0  0
  141.6830  151.8190  133.9960 C   0  0  0  0  0  0  0  0  0  0  0  0
  141.2900  151.0960  134.9530 O   0  0  0  0  0  0  0  0  0  0  0  0
  141.5280  151.3820  132.6740 O   0  0  0  0  0  0  0  0  0  0  0  0
  141.1880  150.0420  132.3220 C   0  0  0  0  0  0  0  0  0  0  0  0
  139.7150  149.9470  131.9380 C   0  0  0  0  0  0  0  0  0  0  0  0
  139.1330  151.2200  131.9980 O   0  0  0  0  0  0  0  0  0  0  0  0
  141.5030  154.2990  133.7650 C   0  0  0  0  0  0  0  0  0  0  0  0
  140.1720  154.1060  133.2890 C   0  0  0  0  0  0  0  0  0  0  0  0
  139.3870  155.1910  132.8680 C   0  0  0  0  0  0  0  0  0  0  0  0
  139.9390  156.4630  132.9330 C   0  0  0  0  0  0  0  0  0  0  0  0
  139.3820  157.6850  132.6300 C   0  0  0  0  0  0  0  0  0  0  0  0
  140.3740  158.6220  132.9120 C   0  0  0  0  0  0  0  0  0  0  0  0
  140.2200  160.0700  132.6600 C   0  0  0  0  0  0  0  0  0  0  0  0
  141.0470  161.0220  133.3230 N   0  0  0  0  0  0  0  0  0  0  0  0
  139.3730  160.4700  131.8190 O   0  0  0  0  0  0  0  0  0  0  0  0
  141.4960  158.0020  133.3780 N   0  0  0  0  0  0  0  0  0  0  0  0
  142.6990  158.6180  133.8650 C   0  0  0  0  0  0  0  0  0  0  0  0
  143.7280  158.6390  133.1370 O   0  0  0  0  0  0  0  0  0  0  0  0
  142.7200  159.1620  135.1560 O   0  0  0  0  0  0  0  0  0  0  0  0
  141.6300  159.1830  136.0370 C   0  0  0  0  0  0  0  0  0  0  0  0
  140.8860  160.1970  136.1300 O   0  0  0  0  0  0  0  0  0  0  0  0
  141.3050  157.9530  136.8210 C   0  0  0  0  0  0  0  0  0  0  0  0
  142.1510  156.9250  136.4500 F   0  0  0  0  0  0  0  0  0  0  0  0
  141.4590  158.1970  138.1740 F   0  0  0  0  0  0  0  0  0  0  0  0
  139.9980  157.5790  136.5720 F   0  0  0  0  0  0  0  0  0  0  0  0
  141.2130  156.6810  133.3810 C   0  0  0  0  0  0  0  0  0  0  0  0
  142.0130  155.6230  133.8230 C   0  0  0  0  0  0  0  0  0  0  0  0
  144.5382  153.2492  134.3561 H   0  0  0  0  0  0  0  0  0  0  0  0
  143.8815  152.3176  132.9678 H   0  0  0  0  0  0  0  0  0  0  0  0
  143.7929  154.1117  132.9678 H   0  0  0  0  0  0  0  0  0  0  0  0
  141.6527  152.9735  136.3412 H   0  0  0  0  0  0  0  0  0  0  0  0
  143.3553  152.4523  136.1045 H   0  0  0  0  0  0  0  0  0  0  0  0
  142.9430  154.2006  136.1045 H   0  0  0  0  0  0  0  0  0  0  0  0
  141.8055  149.7242  131.4690 H   0  0  0  0  0  0  0  0  0  0  0  0
  141.3723  149.3894  133.1881 H   0  0  0  0  0  0  0  0  0  0  0  0
  139.6276  149.5519  130.9151 H   0  0  0  0  0  0  0  0  0  0  0  0
  139.1969  149.2740  132.6370 H   0  0  0  0  0  0  0  0  0  0  0  0
  139.8620  151.8640  131.8000 H   0  0  0  0  0  0  0  0  0  0  0  0
  139.7536  153.0894  133.2512 H   0  0  0  0  0  0  0  0  0  0  0  0
  138.3629  155.0375  132.4969 H   0  0  0  0  0  0  0  0  0  0  0  0
  138.3695  157.8801  132.2469 H   0  0  0  0  0  0  0  0  0  0  0  0
  141.6240  160.7530  134.1510 H   0  0  0  0  0  0  0  0  0  0  0  0
  143.0246  155.8138  134.2107 H   0  0  0  0  0  0  0  0  0  0  0  0
  1  2  1  0
  2  3  1  0
  2  4  1  0
  4  5  2  0
  4  6  1  0
  6  7  1  0
  7  8  1  0
  8  9  1  0
  2 10  1  0
 10 11  2  0
 11 12  1  0
 12 13  2  0
 13 14  1  0
 14 15  2  0
 15 16  1  0
 16 17  1  0
 16 18  2  0
 15 19  1  0
 19 20  1  0
 20 21  2  0
 20 22  1  0
 22 23  1  0
 23 24  2  0
 23 25  1  0
 25 26  1  0
 25 27  1  0
 25 28  1  0
 19 29  1  0
 29 30  2  0
 30 10  1  0
 29 13  1  0
  1 31  1  0
  1 32  1  0
  1 33  1  0
  3 34  1  0
  3 35  1  0
  3 36  1  0
  7 37  1  0
  7 38  1  0
  8 39  1  0
  8 40  1  0
  9 41  1  0
 11 42  1  0
 12 43  1  0
 14 44  1  0
 17 45  1  0
 30 46  1  0
M  CHG  1  17  -1
M  END
>  <UniqueID>  (84) 
83

>  <SMILES>  (84) 
CC(C)(C(=O)OCCO)c1ccc2cc(C([NH-])=O)n(C(=O)OC(=O)C(F)(F)F)c2c1

>  <Energy>  (84) 
83.13000171536416

>  <Genealogy>  (84) 
CC(C)(C(=O)OCCO)c1ccc2cc(C([NH-])=O)n(C(=O)OC(=O)C(F)(F)F)c2c1 (protonated)
CC(C)(C(=O)OCCO)c1ccc2cc(C([NH-])=O)n(C(=O)OC(=O)C(F)(F)F)c2c1 (3D coordinates assigned)
CC(C)(C(=O)OCCO)c1ccc2cc(C([NH-])=O)n(C(=O)OC(=O)C(F)(F)F)c2c1 (optimized conformer: 83.13000171536416 kcal/mol)

>  <smiles>  (84) 
CC(C)(C(=O)OCCO)c1ccc2cc(C(N)=O)n(C(=O)OC(=O)C(F)(F)F)c2c1

>  <score_type>  (84) 
oracle

>  <origin>  (84) 
adg

>  <m_score__min__energy>  (84) 
-6.5800000000000001

>  <m_primary>  (84) 
energy

$$$$
84:0
     RDKit          3D

 39 40  0  0  0  0  0  0  0  0999 V2000
  139.8620  157.4570  136.7620 C   0  0  0  0  0  0  0  0  0  0  0  0
  139.9690  158.6280  135.7920 C   0  0  0  0  0  0  0  0  0  0  0  0
  141.3390  159.2210  135.8430 C   0  0  0  0  0  0  0  0  0  0  0  0
  142.0760  159.0130  136.8460 O   0  0  0  0  0  0  0  0  0  0  0  0
  141.8080  159.9610  134.7530 O   0  0  0  0  0  0  0  0  0  0  0  0
  141.7090  159.5050  133.4100 C   0  0  0  0  0  0  0  0  0  0  0  0
  142.9290  158.8800  133.0280 O   0  0  0  0  0  0  0  0  0  0  0  0
  144.1660  159.2380  133.5690 C   0  0  0  0  0  0  0  0  0  0  0  0
  144.3470  160.4000  134.0260 O   0  0  0  0  0  0  0  0  0  0  0  0
  145.2440  158.2900  133.5690 N   0  0  0  0  0  0  0  0  0  0  0  0
  145.2550  157.0340  134.1030 C   0  0  0  0  0  0  0  0  0  0  0  0
  144.0870  156.3120  134.6490 C   0  0  0  0  0  0  0  0  0  0  0  0
  142.8920  157.0050  134.9970 N   0  0  0  0  0  0  0  0  0  0  0  0
  144.1280  155.0570  134.7620 O   0  0  0  0  0  0  0  0  0  0  0  0
  146.5210  156.4640  133.9890 C   0  0  0  0  0  0  0  0  0  0  0  0
  147.2910  157.4130  133.3560 C   0  0  0  0  0  0  0  0  0  0  0  0
  148.6360  157.3770  132.9950 C   0  0  0  0  0  0  0  0  0  0  0  0
  149.1800  158.5120  132.3720 C   0  0  0  0  0  0  0  0  0  0  0  0
  148.3820  159.6580  132.1360 C   0  0  0  0  0  0  0  0  0  0  0  0
  148.9730  160.8580  131.4470 C   0  0  0  0  0  0  0  0  0  0  0  0
  149.4390  160.4840  130.0760 C   0  0  0  0  0  0  0  0  0  0  0  0
  149.9770  161.3460  129.3330 O   0  0  0  0  0  0  0  0  0  0  0  0
  149.2340  159.1950  129.6000 O   0  0  0  0  0  0  0  0  0  0  0  0
  147.0190  159.6550  132.5070 C   0  0  0  0  0  0  0  0  0  0  0  0
  146.4980  158.5040  133.1130 C   0  0  0  0  0  0  0  0  0  0  0  0
  139.8963  157.8325  137.7953 H   0  0  0  0  0  0  0  0  0  0  0  0
  138.9118  156.9284  136.5953 H   0  0  0  0  0  0  0  0  0  0  0  0
  140.7007  156.7650  136.5953 H   0  0  0  0  0  0  0  0  0  0  0  0
  139.7652  158.2730  134.7710 H   0  0  0  0  0  0  0  0  0  0  0  0
  139.2359  159.3968  136.0775 H   0  0  0  0  0  0  0  0  0  0  0  0
  140.8852  158.7805  133.3290 H   0  0  0  0  0  0  0  0  0  0  0  0
  141.5129  160.3604  132.7468 H   0  0  0  0  0  0  0  0  0  0  0  0
  142.8710  158.0480  135.0390 H   0  0  0  0  0  0  0  0  0  0  0  0
  146.8377  155.4679  134.3318 H   0  0  0  0  0  0  0  0  0  0  0  0
  149.2526  156.4875  133.1917 H   0  0  0  0  0  0  0  0  0  0  0  0
  150.2361  158.5109  132.0643 H   0  0  0  0  0  0  0  0  0  0  0  0
  148.2095  161.6461  131.3697 H   0  0  0  0  0  0  0  0  0  0  0  0
  149.8298  161.2240  132.0318 H   0  0  0  0  0  0  0  0  0  0  0  0
  146.3829  160.5337  132.3248 H   0  0  0  0  0  0  0  0  0  0  0  0
  1  2  1  0
  2  3  1  0
  3  4  2  0
  3  5  1  0
  5  6  1  0
  6  7  1  0
  7  8  1  0
  8  9  2  0
  8 10  1  0
 10 11  1  0
 11 12  1  0
 12 13  1  0
 12 14  2  0
 11 15  2  0
 15 16  1  0
 16 17  2  0
 17 18  1  0
 18 19  2  0
 19 20  1  0
 20 21  1  0
 21 22  2  0
 21 23  1  0
 19 24  1  0
 24 25  2  0
 25 10  1  0
 25 16  1  0
  1 26  1  0
  1 27  1  0
  1 28  1  0
  2 29  1  0
  2 30  1  0
  6 31  1  0
  6 32  1  0
 13 33  1  0
 15 34  1  0
 17 35  1  0
 18 36  1  0
 20 37  1  0
 20 38  1  0
 24 39  1  0
M  CHG  2  13  -1  23  -1
M  END
>  <UniqueID>  (85) 
84

>  <SMILES>  (85) 
CCC(=O)OCOC(=O)n1c(C([NH-])=O)cc2ccc(CC(=O)[O-])cc21

>  <Energy>  (85) 
68.31516011307336

>  <Genealogy>  (85) 
CCC(=O)OCOC(=O)n1c(C([NH-])=O)cc2ccc(CC(=O)[O-])cc21 (protonated)
CCC(=O)OCOC(=O)n1c(C([NH-])=O)cc2ccc(CC(=O)[O-])cc21 (3D coordinates assigned)
CCC(=O)OCOC(=O)n1c(C([NH-])=O)cc2ccc(CC(=O)[O-])cc21 (optimized conformer: 68.31516011307336 kcal/mol)

>  <smiles>  (85) 
CCC(=O)OCOC(=O)n1c(C(N)=O)cc2ccc(CC(=O)O)cc21

>  <score_type>  (85) 
oracle

>  <origin>  (85) 
adg

>  <m_score__min__energy>  (85) 
-6.71

>  <m_primary>  (85) 
energy

$$$$
85:0
     RDKit          3D

 39 40  0  0  0  0  0  0  0  0999 V2000
  141.6160  155.6390  132.4120 H   0  0  0  0  0  0  0  0  0  0  0  0
  141.0770  155.7320  133.3010 N   0  0  0  0  0  0  0  0  0  0  0  0
  141.5680  156.5290  134.3750 C   0  0  0  0  0  0  0  0  0  0  0  0
  141.1130  156.3460  135.5360 O   0  0  0  0  0  0  0  0  0  0  0  0
  142.6220  157.5430  134.1520 C   0  0  0  0  0  0  0  0  0  0  0  0
  142.4490  158.9060  134.3950 C   0  0  0  0  0  0  0  0  0  0  0  0
  141.5372  159.4104  134.7474 H   0  0  0  0  0  0  0  0  0  0  0  0
  143.6620  159.4850  134.1000 C   0  0  0  0  0  0  0  0  0  0  0  0
  144.0530  160.8210  134.1420 C   0  0  0  0  0  0  0  0  0  0  0  0
  143.3560  161.6059  134.4709 H   0  0  0  0  0  0  0  0  0  0  0  0
  145.3660  161.1350  133.7510 C   0  0  0  0  0  0  0  0  0  0  0  0
  145.7048  162.1813  133.7710 H   0  0  0  0  0  0  0  0  0  0  0  0
  146.2580  160.1160  133.3310 C   0  0  0  0  0  0  0  0  0  0  0  0
  147.6450  160.4680  132.8730 C   0  0  0  0  0  0  0  0  0  0  0  0
  148.0162  161.3223  133.4582 H   0  0  0  0  0  0  0  0  0  0  0  0
  147.6171  160.7315  131.8054 H   0  0  0  0  0  0  0  0  0  0  0  0
  148.5580  159.3010  133.0670 C   0  0  0  0  0  0  0  0  0  0  0  0
  148.7710  158.8580  134.2300 O   0  0  0  0  0  0  0  0  0  0  0  0
  149.2040  158.7430  131.9620 O   0  0  0  0  0  0  0  0  0  0  0  0
  149.3450  159.4360  130.7260 C   0  0  0  0  0  0  0  0  0  0  0  0
  149.5608  160.4965  130.9228 H   0  0  0  0  0  0  0  0  0  0  0  0
  150.1717  158.9943  130.1502 H   0  0  0  0  0  0  0  0  0  0  0  0
  148.4115  159.3525  130.1502 H   0  0  0  0  0  0  0  0  0  0  0  0
  145.8200  158.7740  133.2870 C   0  0  0  0  0  0  0  0  0  0  0  0
  146.4894  157.9728  132.9407 H   0  0  0  0  0  0  0  0  0  0  0  0
  144.5140  158.4910  133.6950 C   0  0  0  0  0  0  0  0  0  0  0  0
  143.8920  157.2930  133.7280 N   0  0  0  0  0  0  0  0  0  0  0  0
  144.4430  156.0390  133.2970 C   0  0  0  0  0  0  0  0  0  0  0  0
  143.7450  155.2710  132.5810 O   0  0  0  0  0  0  0  0  0  0  0  0
  145.8120  155.6300  133.6580 C   0  0  0  0  0  0  0  0  0  0  0  0
  145.9862  155.1860  134.6492 H   0  0  0  0  0  0  0  0  0  0  0  0
  146.8510  155.7770  132.8290 C   0  0  0  0  0  0  0  0  0  0  0  0
  146.6901  156.2210  131.8356 H   0  0  0  0  0  0  0  0  0  0  0  0
  148.2310  155.3480  133.2280 C   0  0  0  0  0  0  0  0  0  0  0  0
  148.3224  155.3935  134.3233 H   0  0  0  0  0  0  0  0  0  0  0  0
  148.4006  154.3193  132.8773 H   0  0  0  0  0  0  0  0  0  0  0  0
  149.2300  156.2250  132.6250 N   0  0  0  0  0  0  0  0  0  0  0  0
  149.4000  157.0230  133.2790 H   0  0  0  0  0  0  0  0  0  0  0  0
  148.8100  156.6340  131.7590 H   0  0  0  0  0  0  0  0  0  0  0  0
  1  2  1  0
  2  3  1  0
  3  4  2  0
  3  5  1  0
  5  6  2  0
  6  7  1  0
  6  8  1  0
  8  9  2  0
  9 10  1  0
  9 11  1  0
 11 12  1  0
 11 13  2  0
 13 14  1  0
 14 15  1  0
 14 16  1  0
 14 17  1  0
 17 18  2  0
 17 19  1  0
 19 20  1  0
 20 21  1  0
 20 22  1  0
 20 23  1  0
 13 24  1  0
 24 25  1  0
 24 26  2  0
 26 27  1  0
 27 28  1  0
 28 29  2  0
 28 30  1  0
 30 31  1  0
 30 32  2  0
 32 33  1  0
 32 34  1  0
 34 35  1  0
 34 36  1  0
 34 37  1  0
 37 38  1  0
 37 39  1  0
 27  5  1  0
 26  8  1  0
M  CHG  1   2  -1
M  END
>  <UniqueID>  (86) 
85

>  <SMILES>  (86) 
COC(=O)Cc1ccc2cc(C([NH-])=O)n(C(=O)/C=C/CN)c2c1

>  <Energy>  (86) 
69.8886707083579

>  <Genealogy>  (86) 
COC(=O)Cc1ccc2cc(C([NH-])=O)n(C(=O)C=CCN)c2c1 (protonated)
COC(=O)Cc1ccc2cc(C([NH-])=O)n(C(=O)/C=C/CN)c2c1 (cis-trans isomerization)
COC(=O)Cc1ccc2cc(C([NH-])=O)n(C(=O)/C=C/CN)c2c1 (3D coordinates assigned)
COC(=O)Cc1ccc2cc(C([NH-])=O)n(C(=O)/C=C/CN)c2c1 (optimized conformer: 69.8886707083579 kcal/mol)

>  <smiles>  (86) 
COC(=O)Cc1ccc2cc(C(N)=O)n(C(=O)C=CCN)c2c1

>  <score_type>  (86) 
oracle

>  <origin>  (86) 
adg

>  <m_score__min__energy>  (86) 
-6.9299999999999997

>  <m_primary>  (86) 
energy

$$$$
86:0
     RDKit          3D

 49 50  0  0  0  0  0  0  0  0999 V2000
  136.8730  159.6900  130.7640 C   0  0  0  0  0  0  0  0  0  0  0  0
  137.5880  160.8570  131.1020 O   0  0  0  0  0  0  0  0  0  0  0  0
  138.9730  160.5950  131.0310 C   0  0  0  0  0  0  0  0  0  0  0  0
  139.2020  159.1240  130.6860 C   0  0  0  0  0  0  0  0  0  0  0  0
  140.2460  158.5860  131.4930 O   0  0  0  0  0  0  0  0  0  0  0  0
  140.0120  157.7910  132.6200 C   0  0  0  0  0  0  0  0  0  0  0  0
  139.4490  156.6670  132.5120 O   0  0  0  0  0  0  0  0  0  0  0  0
  140.3420  158.3300  133.9730 C   0  0  0  0  0  0  0  0  0  0  0  0
  141.7090  158.9510  133.9350 C   0  0  0  0  0  0  0  0  0  0  0  0
  141.8530  160.3590  133.8510 C   0  0  0  0  0  0  0  0  0  0  0  0
  143.1250  160.9410  133.7360 C   0  0  0  0  0  0  0  0  0  0  0  0
  144.2290  160.0950  133.6840 C   0  0  0  0  0  0  0  0  0  0  0  0
  145.5670  160.3940  133.5650 C   0  0  0  0  0  0  0  0  0  0  0  0
  146.2150  159.1620  133.5370 C   0  0  0  0  0  0  0  0  0  0  0  0
  147.6700  159.0170  133.3320 C   0  0  0  0  0  0  0  0  0  0  0  0
  148.4120  158.0090  134.0180 N   0  0  0  0  0  0  0  0  0  0  0  0
  148.2540  159.7540  132.4950 O   0  0  0  0  0  0  0  0  0  0  0  0
  145.3210  158.1410  133.6500 N   0  0  0  0  0  0  0  0  0  0  0  0
  145.6130  156.7380  133.7700 C   0  0  0  0  0  0  0  0  0  0  0  0
  145.3460  155.9540  132.8200 O   0  0  0  0  0  0  0  0  0  0  0  0
  146.1780  156.2450  134.9530 O   0  0  0  0  0  0  0  0  0  0  0  0
  146.2950  154.8550  135.2480 C   0  0  0  0  0  0  0  0  0  0  0  0
  147.5820  154.2800  134.6530 C   0  0  0  0  0  0  0  0  0  0  0  0
  148.2570  155.2750  133.9050 O   0  0  0  0  0  0  0  0  0  0  0  0
  148.5410  154.8060  132.6040 C   0  0  0  0  0  0  0  0  0  0  0  0
  144.1060  158.7290  133.7390 C   0  0  0  0  0  0  0  0  0  0  0  0
  142.8530  158.1240  133.8870 C   0  0  0  0  0  0  0  0  0  0  0  0
  136.5571  159.1745  131.6829 H   0  0  0  0  0  0  0  0  0  0  0  0
  135.9861  159.9617  130.1727 H   0  0  0  0  0  0  0  0  0  0  0  0
  137.5178  159.0233  130.1727 H   0  0  0  0  0  0  0  0  0  0  0  0
  139.4254  161.2277  130.2532 H   0  0  0  0  0  0  0  0  0  0  0  0
  139.4361  160.8174  132.0037 H   0  0  0  0  0  0  0  0  0  0  0  0
  138.2753  158.5598  130.8672 H   0  0  0  0  0  0  0  0  0  0  0  0
  139.4894  159.0442  129.6272 H   0  0  0  0  0  0  0  0  0  0  0  0
  139.5998  159.0904  134.2576 H   0  0  0  0  0  0  0  0  0  0  0  0
  140.3261  157.5142  134.7107 H   0  0  0  0  0  0  0  0  0  0  0  0
  140.9600  161.0008  133.8762 H   0  0  0  0  0  0  0  0  0  0  0  0
  143.2458  162.0333  133.6884 H   0  0  0  0  0  0  0  0  0  0  0  0
  146.0259  161.3919  133.5049 H   0  0  0  0  0  0  0  0  0  0  0  0
  147.9290  157.2820  134.5900 H   0  0  0  0  0  0  0  0  0  0  0  0
  149.4460  157.9380  133.8880 H   0  0  0  0  0  0  0  0  0  0  0  0
  146.3095  154.7179  136.3393 H   0  0  0  0  0  0  0  0  0  0  0  0
  145.4363  154.3274  134.8073 H   0  0  0  0  0  0  0  0  0  0  0  0
  148.2348  153.9303  135.4664 H   0  0  0  0  0  0  0  0  0  0  0  0
  147.3290  153.4396  133.9899 H   0  0  0  0  0  0  0  0  0  0  0  0
  149.1098  153.8667  132.6689 H   0  0  0  0  0  0  0  0  0  0  0  0
  147.5990  154.6277  132.0647 H   0  0  0  0  0  0  0  0  0  0  0  0
  149.1355  155.5582  132.0647 H   0  0  0  0  0  0  0  0  0  0  0  0
  142.7611  157.0306  133.9641 H   0  0  0  0  0  0  0  0  0  0  0  0
  1  2  1  0
  2  3  1  0
  3  4  1  0
  4  5  1  0
  5  6  1  0
  6  7  2  0
  6  8  1  0
  8  9  1  0
  9 10  2  0
 10 11  1  0
 11 12  2  0
 12 13  1  0
 13 14  2  0
 14 15  1  0
 15 16  1  0
 15 17  2  0
 14 18  1  0
 18 19  1  0
 19 20  2  0
 19 21  1  0
 21 22  1  0
 22 23  1  0
 23 24  1  0
 24 25  1  0
 18 26  1  0
 26 27  2  0
 27  9  1  0
 26 12  1  0
  1 28  1  0
  1 29  1  0
  1 30  1  0
  3 31  1  0
  3 32  1  0
  4 33  1  0
  4 34  1  0
  8 35  1  0
  8 36  1  0
 10 37  1  0
 11 38  1  0
 13 39  1  0
 16 40  1  0
 16 41  1  0
 22 42  1  0
 22 43  1  0
 23 44  1  0
 23 45  1  0
 25 46  1  0
 25 47  1  0
 25 48  1  0
 27 49  1  0
M  END
>  <UniqueID>  (87) 
86

>  <SMILES>  (87) 
COCCOC(=O)Cc1ccc2cc(C(N)=O)n(C(=O)OCCOC)c2c1

>  <Energy>  (87) 
79.75010860219322

>  <Genealogy>  (87) 
COCCOC(=O)Cc1ccc2cc(C(N)=O)n(C(=O)OCCOC)c2c1 (3D coordinates assigned)
COCCOC(=O)Cc1ccc2cc(C(N)=O)n(C(=O)OCCOC)c2c1 (optimized conformer: 79.75010860219322 kcal/mol)

>  <smiles>  (87) 
COCCOC(=O)Cc1ccc2cc(C(N)=O)n(C(=O)OCCOC)c2c1

>  <score_type>  (87) 
oracle

>  <origin>  (87) 
adg

>  <m_score__min__energy>  (87) 
-6.54

>  <m_primary>  (87) 
energy

$$$$
87:0
     RDKit          3D

 43 44  0  0  0  0  0  0  0  0999 V2000
  144.6120  160.1010  133.6570 C   0  0  0  0  0  0  0  0  0  0  0  0
  145.7700  159.2060  133.3370 C   0  0  0  0  0  0  0  0  0  0  0  0
  146.9910  159.7610  132.8770 C   0  0  0  0  0  0  0  0  0  0  0  0
  148.0940  158.9340  132.6010 C   0  0  0  0  0  0  0  0  0  0  0  0
  147.9520  157.5650  132.8080 C   0  0  0  0  0  0  0  0  0  0  0  0
  148.8460  156.5360  132.6120 C   0  0  0  0  0  0  0  0  0  0  0  0
  148.1640  155.3770  132.9820 C   0  0  0  0  0  0  0  0  0  0  0  0
  148.7660  154.0280  132.9810 C   0  0  0  0  0  0  0  0  0  0  0  0
  148.2150  153.0050  133.8070 N   0  0  0  0  0  0  0  0  0  0  0  0
  149.7520  153.7630  132.2450 O   0  0  0  0  0  0  0  0  0  0  0  0
  146.8990  155.6820  133.3860 N   0  0  0  0  0  0  0  0  0  0  0  0
  145.8630  154.7820  133.8030 C   0  0  0  0  0  0  0  0  0  0  0  0
  145.7290  154.5200  135.0280 O   0  0  0  0  0  0  0  0  0  0  0  0
  144.9170  154.2200  132.8170 C   0  0  0  0  0  0  0  0  0  0  0  0
  144.6250  154.9070  131.7970 O   0  0  0  0  0  0  0  0  0  0  0  0
  144.2770  152.9410  133.0480 N   0  0  2  0  0  0  0  0  0  0  0  0
  145.0760  151.8150  132.5250 C   0  0  0  0  0  0  0  0  0  0  0  0
  142.8540  152.9140  132.6080 C   0  0  0  0  0  0  0  0  0  0  0  0
  141.9310  151.8270  133.2400 C   0  0  1  0  0  0  0  0  0  0  0  0
  140.5190  151.9550  132.6530 C   0  0  0  0  0  0  0  0  0  0  0  0
  142.3880  150.5590  132.9110 F   0  0  0  0  0  0  0  0  0  0  0  0
  141.8360  151.9600  134.7360 C   0  0  0  0  0  0  0  0  0  0  0  0
  142.5320  152.8160  135.3460 O   0  0  0  0  0  0  0  0  0  0  0  0
  140.9910  151.1270  135.4610 O   0  0  0  0  0  0  0  0  0  0  0  0
  146.7850  157.0200  133.2780 C   0  0  0  0  0  0  0  0  0  0  0  0
  145.6680  157.8150  133.5530 C   0  0  0  0  0  0  0  0  0  0  0  0
  144.5039  160.1846  134.7485 H   0  0  0  0  0  0  0  0  0  0  0  0
  144.7902  161.0984  133.2287 H   0  0  0  0  0  0  0  0  0  0  0  0
  143.6917  159.6771  133.2287 H   0  0  0  0  0  0  0  0  0  0  0  0
  147.0760  160.8484  132.7348 H   0  0  0  0  0  0  0  0  0  0  0  0
  149.0406  159.3562  132.2326 H   0  0  0  0  0  0  0  0  0  0  0  0
  149.8791  156.6120  132.2420 H   0  0  0  0  0  0  0  0  0  0  0  0
  147.2800  153.1230  134.2570 H   0  0  0  0  0  0  0  0  0  0  0  0
  144.2610  152.7940  134.0850 H   0  0  0  0  0  0  0  0  0  0  0  0
  145.4870  151.2358  133.3649 H   0  0  0  0  0  0  0  0  0  0  0  0
  144.4357  151.1654  131.9102 H   0  0  0  0  0  0  0  0  0  0  0  0
  145.9006  152.2049  131.9102 H   0  0  0  0  0  0  0  0  0  0  0  0
  142.4168  153.8958  132.8424 H   0  0  0  0  0  0  0  0  0  0  0  0
  142.8938  152.6635  131.5376 H   0  0  0  0  0  0  0  0  0  0  0  0
  139.7865  152.0214  133.4709 H   0  0  0  0  0  0  0  0  0  0  0  0
  140.4602  152.8622  132.0336 H   0  0  0  0  0  0  0  0  0  0  0  0
  140.2981  151.0732  132.0336 H   0  0  0  0  0  0  0  0  0  0  0  0
  144.7351  157.3684  133.9275 H   0  0  0  0  0  0  0  0  0  0  0  0
  1  2  1  0
  2  3  2  0
  3  4  1  0
  4  5  2  0
  5  6  1  0
  6  7  2  0
  7  8  1  0
  8  9  1  0
  8 10  2  0
  7 11  1  0
 11 12  1  0
 12 13  2  0
 12 14  1  0
 14 15  2  0
 14 16  1  0
 16 17  1  0
 16 18  1  0
 18 19  1  0
 19 20  1  0
 19 21  1  1
 19 22  1  0
 22 23  2  0
 22 24  1  0
 11 25  1  0
 25 26  2  0
 26  2  1  0
 25  5  1  0
  1 27  1  0
  1 28  1  0
  1 29  1  0
  3 30  1  0
  4 31  1  0
  6 32  1  0
  9 33  1  0
 16 34  1  1
 17 35  1  0
 17 36  1  0
 17 37  1  0
 18 38  1  0
 18 39  1  0
 20 40  1  0
 20 41  1  0
 20 42  1  0
 26 43  1  0
M  CHG  3   9  -1  16   1  24  -1
M  END
>  <UniqueID>  (88) 
87

>  <SMILES>  (88) 
Cc1ccc2cc(C([NH-])=O)n(C(=O)C(=O)[N@H+](C)C[C@@](C)(F)C(=O)[O-])c2c1

>  <Energy>  (88) 
87.97547352549348

>  <Genealogy>  (88) 
Cc1ccc2cc(C([NH-])=O)n(C(=O)C(=O)[NH+](C)C[C@@](C)(F)C(=O)[O-])c2c1 (protonated)
Cc1ccc2cc(C([NH-])=O)n(C(=O)C(=O)[N@H+](C)C[C@@](C)(F)C(=O)[O-])c2c1 (chirality)
Cc1ccc2cc(C([NH-])=O)n(C(=O)C(=O)[N@H+](C)C[C@@](C)(F)C(=O)[O-])c2c1 (3D coordinates assigned)
Cc1ccc2cc(C([NH-])=O)n(C(=O)C(=O)[N@H+](C)C[C@@](C)(F)C(=O)[O-])c2c1 (optimized conformer: 87.97547352549348 kcal/mol)

>  <smiles>  (88) 
Cc1ccc2cc(C(N)=O)n(C(=O)C(=O)N(C)C[C@@](C)(F)C(=O)O)c2c1

>  <score_type>  (88) 
oracle

>  <origin>  (88) 
adg

>  <m_score__min__energy>  (88) 
-6.1699999999999999

>  <m_primary>  (88) 
energy

$$$$
89:0
     RDKit          3D

 54 56  0  0  0  0  0  0  0  0999 V2000
  139.5080  157.7380  134.6680 C   0  0  0  0  0  0  0  0  0  0  0  0
  141.0250  157.5140  134.5190 C   0  0  0  0  0  0  0  0  0  0  0  0
  141.4270  157.7860  133.0610 C   0  0  0  0  0  0  0  0  0  0  0  0
  141.8100  158.4660  135.4380 C   0  0  0  0  0  0  0  0  0  0  0  0
  141.3630  156.1500  134.8030 O   0  0  0  0  0  0  0  0  0  0  0  0
  141.3350  155.0750  133.9030 C   0  0  0  0  0  0  0  0  0  0  0  0
  140.2880  154.8230  133.2510 O   0  0  0  0  0  0  0  0  0  0  0  0
  142.4990  154.2370  133.7460 N   0  0  0  0  0  0  0  0  0  0  0  0
  142.5270  152.8780  133.6370 C   0  0  0  0  0  0  0  0  0  0  0  0
  141.3680  151.9810  133.7570 C   0  0  0  0  0  0  0  0  0  0  0  0
  140.2360  152.1370  132.9030 N   0  0  0  0  0  0  0  0  0  0  0  0
  141.3490  151.1090  134.6660 O   0  0  0  0  0  0  0  0  0  0  0  0
  143.8080  152.4280  133.3420 C   0  0  0  0  0  0  0  0  0  0  0  0
  144.5870  153.5590  133.3030 C   0  0  0  0  0  0  0  0  0  0  0  0
  145.9550  153.6930  133.0820 C   0  0  0  0  0  0  0  0  0  0  0  0
  146.5090  154.9830  133.1220 C   0  0  0  0  0  0  0  0  0  0  0  0
  145.6920  156.1100  133.3800 C   0  0  0  0  0  0  0  0  0  0  0  0
  146.2720  157.4260  133.4480 N   0  0  0  0  0  0  0  0  0  0  0  0
  145.4640  158.6050  133.1100 C   0  0  0  0  0  0  0  0  0  0  0  0
  146.3620  159.8160  132.8350 C   0  0  0  0  0  0  0  0  0  0  0  0
  147.5550  159.3690  132.0890 N   0  0  0  0  0  0  0  0  0  0  0  0
  148.3080  160.5170  131.5460 C   0  0  0  0  0  0  0  0  0  0  0  0
  149.2450  160.0780  130.4640 C   0  0  0  0  0  0  0  0  0  0  0  0
  148.8680  160.0680  129.2660 O   0  0  0  0  0  0  0  0  0  0  0  0
  150.5550  159.7300  130.7750 O   0  0  0  0  0  0  0  0  0  0  0  0
  148.4350  158.5350  132.9440 C   0  0  0  0  0  0  0  0  0  0  0  0
  147.6540  157.6140  133.9050 C   0  0  0  0  0  0  0  0  0  0  0  0
  144.3080  155.9350  133.6040 C   0  0  0  0  0  0  0  0  0  0  0  0
  143.7780  154.6390  133.5480 C   0  0  0  0  0  0  0  0  0  0  0  0
  139.2462  157.7767  135.7357 H   0  0  0  0  0  0  0  0  0  0  0  0
  139.2285  158.6872  134.1873 H   0  0  0  0  0  0  0  0  0  0  0  0
  138.9662  156.9101  134.1873 H   0  0  0  0  0  0  0  0  0  0  0  0
  142.3379  158.4023  133.0407 H   0  0  0  0  0  0  0  0  0  0  0  0
  141.6187  156.8313  132.5493 H   0  0  0  0  0  0  0  0  0  0  0  0
  140.6121  158.3191  132.5493 H   0  0  0  0  0  0  0  0  0  0  0  0
  141.6030  158.2149  136.4888 H   0  0  0  0  0  0  0  0  0  0  0  0
  142.8871  158.3605  135.2412 H   0  0  0  0  0  0  0  0  0  0  0  0
  141.5012  159.5033  135.2412 H   0  0  0  0  0  0  0  0  0  0  0  0
  139.4250  151.4820  132.9790 H   0  0  0  0  0  0  0  0  0  0  0  0
  140.1920  152.9210  132.2150 H   0  0  0  0  0  0  0  0  0  0  0  0
  144.1294  151.3893  133.1754 H   0  0  0  0  0  0  0  0  0  0  0  0
  146.5843  152.8133  132.8817 H   0  0  0  0  0  0  0  0  0  0  0  0
  147.5872  155.1188  132.9513 H   0  0  0  0  0  0  0  0  0  0  0  0
  144.8659  158.3878  132.2128 H   0  0  0  0  0  0  0  0  0  0  0  0
  144.8059  158.8383  133.9599 H   0  0  0  0  0  0  0  0  0  0  0  0
  145.8098  160.5569  132.2382 H   0  0  0  0  0  0  0  0  0  0  0  0
  146.6686  160.2755  133.7863 H   0  0  0  0  0  0  0  0  0  0  0  0
  147.5991  161.2498  131.1331 H   0  0  0  0  0  0  0  0  0  0  0  0
  148.8964  160.9674  132.3590 H   0  0  0  0  0  0  0  0  0  0  0  0
  149.0632  157.9090  132.2933 H   0  0  0  0  0  0  0  0  0  0  0  0
  149.0340  159.2197  133.5623 H   0  0  0  0  0  0  0  0  0  0  0  0
  148.1539  156.6352  133.9506 H   0  0  0  0  0  0  0  0  0  0  0  0
  147.6330  158.0832  134.8997 H   0  0  0  0  0  0  0  0  0  0  0  0
  143.6602  156.7979  133.8179 H   0  0  0  0  0  0  0  0  0  0  0  0
  1  2  1  0
  2  3  1  0
  2  4  1  0
  2  5  1  0
  5  6  1  0
  6  7  2  0
  6  8  1  0
  8  9  1  0
  9 10  1  0
 10 11  1  0
 10 12  2  0
  9 13  2  0
 13 14  1  0
 14 15  2  0
 15 16  1  0
 16 17  2  0
 17 18  1  0
 18 19  1  0
 19 20  1  0
 20 21  1  0
 21 22  1  0
 22 23  1  0
 23 24  2  0
 23 25  1  0
 21 26  1  0
 26 27  1  0
 17 28  1  0
 28 29  2  0
 29  8  1  0
 29 14  1  0
 27 18  1  0
  1 30  1  0
  1 31  1  0
  1 32  1  0
  3 33  1  0
  3 34  1  0
  3 35  1  0
  4 36  1  0
  4 37  1  0
  4 38  1  0
 11 39  1  0
 11 40  1  0
 13 41  1  0
 15 42  1  0
 16 43  1  0
 19 44  1  0
 19 45  1  0
 20 46  1  0
 20 47  1  0
 22 48  1  0
 22 49  1  0
 26 50  1  0
 26 51  1  0
 27 52  1  0
 27 53  1  0
 28 54  1  0
M  CHG  1  25  -1
M  END
>  <UniqueID>  (89) 
88

>  <SMILES>  (89) 
CC(C)(C)OC(=O)n1c(C(N)=O)cc2ccc(N3CCN(CC(=O)[O-])CC3)cc21

>  <Energy>  (89) 
101.25882467655725

>  <Genealogy>  (89) 
CC(C)(C)OC(=O)n1c(C(N)=O)cc2ccc(N3CCN(CC(=O)[O-])CC3)cc21 (protonated)
CC(C)(C)OC(=O)n1c(C(N)=O)cc2ccc(N3CCN(CC(=O)[O-])CC3)cc21 (3D coordinates assigned)
CC(C)(C)OC(=O)n1c(C(N)=O)cc2ccc(N3CCN(CC(=O)[O-])CC3)cc21 (nonaromatic ring conformer: 101.25882467655725 kcal/mol)

>  <smiles>  (89) 
CC(C)(C)OC(=O)n1c(C(N)=O)cc2ccc(N3CCN(CC(=O)O)CC3)cc21

>  <score_type>  (89) 
oracle

>  <origin>  (89) 
adg

>  <m_score__min__energy>  (89) 
-8.3200000000000003

>  <m_primary>  (89) 
energy

$$$$
90:0
     RDKit          3D

 55 57  0  0  0  0  0  0  0  0999 V2000
  148.3780  154.2480  132.9530 C   0  0  0  0  0  0  0  0  0  0  0  0
  147.2580  155.0490  133.4620 N   0  0  0  0  0  0  0  0  0  0  0  0
  145.8780  154.7520  133.0380 C   0  0  0  0  0  0  0  0  0  0  0  0
  144.9200  154.6720  134.2480 C   0  0  1  0  0  0  0  0  0  0  0  0
  145.3820  153.6600  135.3190 C   0  0  0  0  0  0  0  0  0  0  0  0
  145.1430  154.1620  136.6080 O   0  0  0  0  0  0  0  0  0  0  0  0
  144.6120  155.9960  134.8270 N   0  0  0  0  0  0  0  0  0  0  0  0
  143.8070  157.0570  134.2520 C   0  0  0  0  0  0  0  0  0  0  0  0
  144.3060  158.3690  134.0300 C   0  0  0  0  0  0  0  0  0  0  0  0
  143.4840  159.3690  133.4800 C   0  0  0  0  0  0  0  0  0  0  0  0
  142.1700  159.0410  133.1520 C   0  0  0  0  0  0  0  0  0  0  0  0
  141.1620  159.8350  132.6510 C   0  0  0  0  0  0  0  0  0  0  0  0
  140.0560  158.9990  132.5400 C   0  0  0  0  0  0  0  0  0  0  0  0
  138.7520  159.4460  132.0060 C   0  0  0  0  0  0  0  0  0  0  0  0
  137.5970  158.6020  132.0940 N   0  0  0  0  0  0  0  0  0  0  0  0
  138.6610  160.5750  131.4460 O   0  0  0  0  0  0  0  0  0  0  0  0
  140.3570  157.7360  132.9640 N   0  0  0  0  0  0  0  0  0  0  0  0
  139.4380  156.6310  133.0950 C   0  0  0  0  0  0  0  0  0  0  0  0
  138.3620  156.7770  133.7560 O   0  0  0  0  0  0  0  0  0  0  0  0
  139.7320  155.3800  132.5170 O   0  0  0  0  0  0  0  0  0  0  0  0
  141.6640  157.7810  133.3410 C   0  0  0  0  0  0  0  0  0  0  0  0
  142.4590  156.7710  133.9150 C   0  0  0  0  0  0  0  0  0  0  0  0
  147.5350  156.1590  134.3370 C   0  0  0  0  0  0  0  0  0  0  0  0
  147.1060  156.1520  135.5230 O   0  0  0  0  0  0  0  0  0  0  0  0
  148.2850  157.2470  133.8670 O   0  0  0  0  0  0  0  0  0  0  0  0
  147.7550  158.5630  133.7330 C   0  0  0  0  0  0  0  0  0  0  0  0
  148.2200  159.1920  132.4500 C   0  0  0  0  0  0  0  0  0  0  0  0
  148.0690  160.5760  132.2500 C   0  0  0  0  0  0  0  0  0  0  0  0
  148.5320  161.1690  131.0720 C   0  0  0  0  0  0  0  0  0  0  0  0
  149.1550  160.3860  130.0890 C   0  0  0  0  0  0  0  0  0  0  0  0
  149.3140  159.0090  130.2830 C   0  0  0  0  0  0  0  0  0  0  0  0
  148.8500  158.4120  131.4580 C   0  0  0  0  0  0  0  0  0  0  0  0
  148.9502  153.8388  133.7986 H   0  0  0  0  0  0  0  0  0  0  0  0
  147.9890  153.4220  132.3395 H   0  0  0  0  0  0  0  0  0  0  0  0
  149.0340  154.8831  132.3395 H   0  0  0  0  0  0  0  0  0  0  0  0
  145.5330  155.5470  132.3606 H   0  0  0  0  0  0  0  0  0  0  0  0
  145.8749  153.7766  132.5295 H   0  0  0  0  0  0  0  0  0  0  0  0
  143.9735  154.2824  133.8452 H   0  0  0  0  0  0  0  0  0  0  0  0
  144.8285  152.7183  135.1893 H   0  0  0  0  0  0  0  0  0  0  0  0
  146.4617  153.4859  135.2005 H   0  0  0  0  0  0  0  0  0  0  0  0
  145.5830  155.0490  136.6570 H   0  0  0  0  0  0  0  0  0  0  0  0
  144.9540  156.1410  135.8100 H   0  0  0  0  0  0  0  0  0  0  0  0
  145.3480  158.6054  134.2915 H   0  0  0  0  0  0  0  0  0  0  0  0
  143.8692  160.3857  133.3128 H   0  0  0  0  0  0  0  0  0  0  0  0
  141.2195  160.9029  132.3935 H   0  0  0  0  0  0  0  0  0  0  0  0
  137.6630  157.6280  132.4760 H   0  0  0  0  0  0  0  0  0  0  0  0
  136.6680  158.9420  131.7470 H   0  0  0  0  0  0  0  0  0  0  0  0
  142.0396  155.7711  134.1002 H   0  0  0  0  0  0  0  0  0  0  0  0
  146.6562  158.5120  133.7332 H   0  0  0  0  0  0  0  0  0  0  0  0
  148.1076  159.1750  134.5763 H   0  0  0  0  0  0  0  0  0  0  0  0
  147.5857  161.1928  133.0220 H   0  0  0  0  0  0  0  0  0  0  0  0
  148.4077  162.2507  130.9157 H   0  0  0  0  0  0  0  0  0  0  0  0
  149.5195  160.8553  129.1633 H   0  0  0  0  0  0  0  0  0  0  0  0
  149.8038  158.3973  129.5111 H   0  0  0  0  0  0  0  0  0  0  0  0
  148.9765  157.3299  131.6099 H   0  0  0  0  0  0  0  0  0  0  0  0
  1  2  1  0
  2  3  1  0
  3  4  1  0
  4  5  1  0
  5  6  1  0
  4  7  1  0
  7  8  1  0
  8  9  2  0
  9 10  1  0
 10 11  2  0
 11 12  1  0
 12 13  2  0
 13 14  1  0
 14 15  1  0
 14 16  2  0
 13 17  1  0
 17 18  1  0
 18 19  2  0
 18 20  1  0
 17 21  1  0
 21 22  2  0
  2 23  1  0
 23 24  2  0
 23 25  1  0
 25 26  1  0
 26 27  1  0
 27 28  2  0
 28 29  1  0
 29 30  2  0
 30 31  1  0
 31 32  2  0
 22  8  1  0
 32 27  1  0
 21 11  1  0
  1 33  1  0
  1 34  1  0
  1 35  1  0
  3 36  1  0
  3 37  1  0
  4 38  1  6
  5 39  1  0
  5 40  1  0
  6 41  1  0
  7 42  1  0
  9 43  1  0
 10 44  1  0
 12 45  1  0
 15 46  1  0
 15 47  1  0
 22 48  1  0
 26 49  1  0
 26 50  1  0
 28 51  1  0
 29 52  1  0
 30 53  1  0
 31 54  1  0
 32 55  1  0
M  CHG  1  20  -1
M  END
>  <UniqueID>  (90) 
89

>  <SMILES>  (90) 
CN(C[C@@H](CO)Nc1ccc2cc(C(N)=O)n(C(=O)[O-])c2c1)C(=O)OCc1ccccc1

>  <Energy>  (90) 
94.39967346762045

>  <Genealogy>  (90) 
CN(C[C@@H](CO)Nc1ccc2cc(C(N)=O)n(C(=O)[O-])c2c1)C(=O)OCc1ccccc1 (protonated)
CN(C[C@@H](CO)Nc1ccc2cc(C(N)=O)n(C(=O)[O-])c2c1)C(=O)OCc1ccccc1 (3D coordinates assigned)
CN(C[C@@H](CO)Nc1ccc2cc(C(N)=O)n(C(=O)[O-])c2c1)C(=O)OCc1ccccc1 (optimized conformer: 94.39967346762045 kcal/mol)

>  <smiles>  (90) 
CN(C[C@@H](CO)Nc1ccc2cc(C(N)=O)n(C(=O)O)c2c1)C(=O)OCc1ccccc1

>  <score_type>  (90) 
oracle

>  <origin>  (90) 
adg

>  <m_score__min__energy>  (90) 
-8.8800000000000008

>  <m_primary>  (90) 
energy

$$$$
91:0
     RDKit          3D

 43 44  0  0  0  0  0  0  0  0999 V2000
  138.2510  158.3570  132.5550 C   0  0  0  0  0  0  0  0  0  0  0  0
  139.4430  157.8210  133.3750 C   0  0  0  0  0  0  0  0  0  0  0  0
  139.1110  157.8930  134.8750 C   0  0  0  0  0  0  0  0  0  0  0  0
  139.6990  156.3540  132.9740 C   0  0  0  0  0  0  0  0  0  0  0  0
  140.6820  158.6560  133.1090 C   0  0  0  0  0  0  0  0  0  0  0  0
  141.6980  158.1290  132.5750 O   0  0  0  0  0  0  0  0  0  0  0  0
  140.6710  160.0280  133.3870 O   0  0  0  0  0  0  0  0  0  0  0  0
  141.8440  160.7570  133.7290 C   0  0  0  0  0  0  0  0  0  0  0  0
  142.9770  160.1450  133.1240 O   0  0  0  0  0  0  0  0  0  0  0  0
  144.2270  160.0760  133.7440 C   0  0  0  0  0  0  0  0  0  0  0  0
  144.6540  161.0500  134.4210 O   0  0  0  0  0  0  0  0  0  0  0  0
  145.0130  158.8770  133.6310 N   0  0  0  0  0  0  0  0  0  0  0  0
  144.6870  157.6170  134.0410 C   0  0  0  0  0  0  0  0  0  0  0  0
  143.4920  157.2380  134.8250 C   0  0  0  0  0  0  0  0  0  0  0  0
  142.6050  158.2500  135.2980 N   0  0  0  0  0  0  0  0  0  0  0  0
  143.2230  156.0290  135.0490 O   0  0  0  0  0  0  0  0  0  0  0  0
  145.6920  156.7170  133.6980 C   0  0  0  0  0  0  0  0  0  0  0  0
  146.6580  157.4690  133.0690 C   0  0  0  0  0  0  0  0  0  0  0  0
  147.8710  157.0800  132.5120 C   0  0  0  0  0  0  0  0  0  0  0  0
  148.6630  158.0670  131.9010 C   0  0  0  0  0  0  0  0  0  0  0  0
  148.2370  159.4200  131.8670 C   0  0  0  0  0  0  0  0  0  0  0  0
  149.0670  160.4610  131.1600 C   0  0  0  0  0  0  0  0  0  0  0  0
  148.5100  161.7190  131.3130 F   0  0  0  0  0  0  0  0  0  0  0  0
  149.1430  160.1840  129.8050 F   0  0  0  0  0  0  0  0  0  0  0  0
  150.3430  160.4640  131.6920 F   0  0  0  0  0  0  0  0  0  0  0  0
  146.9840  159.7700  132.4220 C   0  0  0  0  0  0  0  0  0  0  0  0
  146.2250  158.7690  133.0430 C   0  0  0  0  0  0  0  0  0  0  0  0
  137.4650  158.7104  133.2386 H   0  0  0  0  0  0  0  0  0  0  0  0
  138.5874  159.1905  131.9209 H   0  0  0  0  0  0  0  0  0  0  0  0
  137.8507  157.5522  131.9209 H   0  0  0  0  0  0  0  0  0  0  0  0
  140.0203  157.6958  135.4617 H   0  0  0  0  0  0  0  0  0  0  0  0
  138.7280  158.8951  135.1181 H   0  0  0  0  0  0  0  0  0  0  0  0
  138.3472  157.1396  135.1181 H   0  0  0  0  0  0  0  0  0  0  0  0
  139.8062  155.7396  133.8801 H   0  0  0  0  0  0  0  0  0  0  0  0
  138.8519  155.9836  132.3779 H   0  0  0  0  0  0  0  0  0  0  0  0
  140.6215  156.2924  132.3779 H   0  0  0  0  0  0  0  0  0  0  0  0
  141.7504  161.7921  133.3686 H   0  0  0  0  0  0  0  0  0  0  0  0
  141.9686  160.7587  134.8219 H   0  0  0  0  0  0  0  0  0  0  0  0
  142.0850  158.8630  134.6300 H   0  0  0  0  0  0  0  0  0  0  0  0
  145.7103  155.6339  133.8892 H   0  0  0  0  0  0  0  0  0  0  0  0
  148.2008  156.0312  132.5485 H   0  0  0  0  0  0  0  0  0  0  0  0
  149.6238  157.7876  131.4441 H   0  0  0  0  0  0  0  0  0  0  0  0
  146.6137  160.8044  132.3674 H   0  0  0  0  0  0  0  0  0  0  0  0
  1  2  1  0
  2  3  1  0
  2  4  1  0
  2  5  1  0
  5  6  2  0
  5  7  1  0
  7  8  1  0
  8  9  1  0
  9 10  1  0
 10 11  2  0
 10 12  1  0
 12 13  1  0
 13 14  1  0
 14 15  1  0
 14 16  2  0
 13 17  2  0
 17 18  1  0
 18 19  2  0
 19 20  1  0
 20 21  2  0
 21 22  1  0
 22 23  1  0
 22 24  1  0
 22 25  1  0
 21 26  1  0
 26 27  2  0
 27 12  1  0
 27 18  1  0
  1 28  1  0
  1 29  1  0
  1 30  1  0
  3 31  1  0
  3 32  1  0
  3 33  1  0
  4 34  1  0
  4 35  1  0
  4 36  1  0
  8 37  1  0
  8 38  1  0
 15 39  1  0
 17 40  1  0
 19 41  1  0
 20 42  1  0
 26 43  1  0
M  CHG  1  15  -1
M  END
>  <UniqueID>  (91) 
90

>  <SMILES>  (91) 
CC(C)(C)C(=O)OCOC(=O)n1c(C([NH-])=O)cc2ccc(C(F)(F)F)cc21

>  <Energy>  (91) 
74.13182077775187

>  <Genealogy>  (91) 
CC(C)(C)C(=O)OCOC(=O)n1c(C([NH-])=O)cc2ccc(C(F)(F)F)cc21 (protonated)
CC(C)(C)C(=O)OCOC(=O)n1c(C([NH-])=O)cc2ccc(C(F)(F)F)cc21 (3D coordinates assigned)
CC(C)(C)C(=O)OCOC(=O)n1c(C([NH-])=O)cc2ccc(C(F)(F)F)cc21 (optimized conformer: 74.13182077775187 kcal/mol)

>  <smiles>  (91) 
CC(C)(C)C(=O)OCOC(=O)n1c(C(N)=O)cc2ccc(C(F)(F)F)cc21

>  <score_type>  (91) 
oracle

>  <origin>  (91) 
adg

>  <m_score__min__energy>  (91) 
-6.2199999999999998

>  <m_primary>  (91) 
energy

$$$$
92:0
     RDKit          3D

 35 37  0  0  0  0  0  0  0  0999 V2000
  148.9260  161.5270  130.7490 C   0  0  0  0  0  0  0  0  0  0  0  0
  148.6340  160.5200  131.3450 C   0  0  0  0  0  0  0  0  0  0  0  0
  148.2700  159.3140  132.0370 C   0  0  0  0  0  0  0  0  0  0  0  0
  149.2240  158.3390  132.2180 C   0  0  0  0  0  0  0  0  0  0  0  0
  148.8530  157.1940  132.8840 C   0  0  0  0  0  0  0  0  0  0  0  0
  147.5680  157.0340  133.3500 C   0  0  0  0  0  0  0  0  0  0  0  0
  146.9730  156.0010  134.0290 C   0  0  0  0  0  0  0  0  0  0  0  0
  145.6340  156.3220  134.2800 C   0  0  0  0  0  0  0  0  0  0  0  0
  144.7780  155.4130  134.9820 C   0  0  0  0  0  0  0  0  0  0  0  0
  143.8750  155.6080  136.0290 N   0  0  0  0  0  0  0  0  0  0  0  0
  144.8360  154.1780  134.5820 O   0  0  0  0  0  0  0  0  0  0  0  0
  145.4210  157.5510  133.7530 N   0  0  0  0  0  0  0  0  0  0  0  0
  144.2740  158.3510  133.7680 C   0  0  0  0  0  0  0  0  0  0  0  0
  144.4130  159.6170  133.9330 O   0  0  0  0  0  0  0  0  0  0  0  0
  142.5900  157.8320  133.5860 S   0  0  0  0  0  0  0  0  0  0  0  0
  141.6080  158.0470  135.0400 C   0  0  0  0  0  0  0  0  0  0  0  0
  141.9860  157.9920  136.3340 N   0  0  0  0  0  0  0  0  0  0  0  0
  140.9170  158.2140  137.1340 C   0  0  0  0  0  0  0  0  0  0  0  0
  139.8400  158.4140  136.3420 N   0  0  0  0  0  0  0  0  0  0  0  0
  140.2530  158.3130  135.0550 C   0  0  0  0  0  0  0  0  0  0  0  0
  139.3840  158.4670  133.8440 C   0  0  0  0  0  0  0  0  0  0  0  0
  146.5930  157.9850  133.1870 C   0  0  0  0  0  0  0  0  0  0  0  0
  146.9730  159.1340  132.5170 C   0  0  0  0  0  0  0  0  0  0  0  0
  149.1923  162.4454  130.2054 H   0  0  0  0  0  0  0  0  0  0  0  0
  150.2495  158.4709  131.8425 H   0  0  0  0  0  0  0  0  0  0  0  0
  149.5927  156.3962  133.0462 H   0  0  0  0  0  0  0  0  0  0  0  0
  147.4703  155.0669  134.3291 H   0  0  0  0  0  0  0  0  0  0  0  0
  144.0560  155.2280  137.0050 H   0  0  0  0  0  0  0  0  0  0  0  0
  142.9800  156.1390  135.8050 H   0  0  0  0  0  0  0  0  0  0  0  0
  140.9235  158.2290  138.2339 H   0  0  0  0  0  0  0  0  0  0  0  0
  138.8520  158.6110  136.6000 H   0  0  0  0  0  0  0  0  0  0  0  0
  138.3461  158.6509  134.1585 H   0  0  0  0  0  0  0  0  0  0  0  0
  139.7407  159.3159  133.2423 H   0  0  0  0  0  0  0  0  0  0  0  0
  139.4273  157.5472  133.2423 H   0  0  0  0  0  0  0  0  0  0  0  0
  146.2300  159.9294  132.3581 H   0  0  0  0  0  0  0  0  0  0  0  0
  1  2  3  0
  2  3  1  0
  3  4  2  0
  4  5  1  0
  5  6  2  0
  6  7  1  0
  7  8  2  0
  8  9  1  0
  9 10  1  0
  9 11  2  0
  8 12  1  0
 12 13  1  0
 13 14  2  0
 13 15  1  0
 15 16  1  0
 16 17  1  0
 17 18  2  0
 18 19  1  0
 19 20  1  0
 20 21  1  0
 12 22  1  0
 22 23  2  0
 23  3  1  0
 22  6  1  0
 20 16  2  0
  1 24  1  0
  4 25  1  0
  5 26  1  0
  7 27  1  0
 10 28  1  0
 10 29  1  0
 18 30  1  0
 19 31  1  0
 21 32  1  0
 21 33  1  0
 21 34  1  0
 23 35  1  0
M  END
>  <smiles>  (92) 
C#Cc1ccc2cc(C(N)=O)n(C(=O)Sc3nc[nH]c3C)c2c1

>  <score_type>  (92) 
oracle

>  <origin>  (92) 
adg

>  <m_score__min__energy>  (92) 
-8.1799999999999997

>  <m_primary>  (92) 
energy

$$$$
93:0
     RDKit          3D

 29 30  0  0  0  0  0  0  0  0999 V2000
  138.6030  157.7700  134.2150 N   0  0  0  0  0  0  0  0  0  0  0  0
  139.5390  157.0500  133.4160 C   0  0  0  0  0  0  0  0  0  0  0  0
  139.1270  156.1280  132.6650 O   0  0  0  0  0  0  0  0  0  0  0  0
  140.9790  157.3650  133.5090 C   0  0  0  0  0  0  0  0  0  0  0  0
  141.9650  156.3990  133.7040 C   0  0  0  0  0  0  0  0  0  0  0  0
  143.1590  157.0790  133.6410 C   0  0  0  0  0  0  0  0  0  0  0  0
  144.4630  156.6100  133.7670 C   0  0  0  0  0  0  0  0  0  0  0  0
  145.5100  157.5430  133.6780 C   0  0  0  0  0  0  0  0  0  0  0  0
  145.2390  158.9230  133.4910 C   0  0  0  0  0  0  0  0  0  0  0  0
  146.3730  159.9080  133.3610 C   0  0  0  0  0  0  0  0  0  0  0  0
  146.7240  160.0770  132.0330 F   0  0  0  0  0  0  0  0  0  0  0  0
  147.4890  159.4640  134.0490 F   0  0  0  0  0  0  0  0  0  0  0  0
  145.9790  161.1260  133.8820 F   0  0  0  0  0  0  0  0  0  0  0  0
  143.9000  159.3560  133.3450 C   0  0  0  0  0  0  0  0  0  0  0  0
  142.8780  158.4020  133.4200 C   0  0  0  0  0  0  0  0  0  0  0  0
  141.5420  158.5950  133.3370 N   0  0  0  0  0  0  0  0  0  0  0  0
  140.8680  159.8530  133.1840 C   0  0  0  0  0  0  0  0  0  0  0  0
  141.4830  160.9270  133.4320 O   0  0  0  0  0  0  0  0  0  0  0  0
  139.5260  159.8730  132.7800 O   0  0  0  0  0  0  0  0  0  0  0  0
  139.0670  159.5680  131.4910 C   0  0  0  0  0  0  0  0  0  0  0  0
  138.2100  158.4450  131.3040 N   0  0  0  0  0  0  0  0  0  0  0  0
  139.4010  160.2670  130.4960 O   0  0  0  0  0  0  0  0  0  0  0  0
  138.1240  158.6210  133.8460 H   0  0  0  0  0  0  0  0  0  0  0  0
  141.8191  155.3218  133.8724 H   0  0  0  0  0  0  0  0  0  0  0  0
  144.6679  155.5418  133.9312 H   0  0  0  0  0  0  0  0  0  0  0  0
  146.5521  157.1993  133.7542 H   0  0  0  0  0  0  0  0  0  0  0  0
  143.6672  160.4178  133.1764 H   0  0  0  0  0  0  0  0  0  0  0  0
  137.8570  158.2000  130.3540 H   0  0  0  0  0  0  0  0  0  0  0  0
  137.9310  157.8580  132.1210 H   0  0  0  0  0  0  0  0  0  0  0  0
  1  2  1  0
  2  3  2  0
  2  4  1  0
  4  5  2  0
  5  6  1  0
  6  7  2  0
  7  8  1  0
  8  9  2  0
  9 10  1  0
 10 11  1  0
 10 12  1  0
 10 13  1  0
  9 14  1  0
 14 15  2  0
 15 16  1  0
 16 17  1  0
 17 18  2  0
 17 19  1  0
 19 20  1  0
 20 21  1  0
 20 22  2  0
 16  4  1  0
 15  6  1  0
  1 23  1  0
  5 24  1  0
  7 25  1  0
  8 26  1  0
 14 27  1  0
 21 28  1  0
 21 29  1  0
M  CHG  1   1  -1
M  END
>  <UniqueID>  (93) 
91

>  <SMILES>  (93) 
[NH-]C(=O)c1cc2ccc(C(F)(F)F)cc2n1C(=O)OC(N)=O

>  <Energy>  (93) 
68.3836895453054

>  <Genealogy>  (93) 
[NH-]C(=O)c1cc2ccc(C(F)(F)F)cc2n1C(=O)OC(N)=O (protonated)
[NH-]C(=O)c1cc2ccc(C(F)(F)F)cc2n1C(=O)OC(N)=O (3D coordinates assigned)
[NH-]C(=O)c1cc2ccc(C(F)(F)F)cc2n1C(=O)OC(N)=O (optimized conformer: 68.3836895453054 kcal/mol)

>  <smiles>  (93) 
NC(=O)OC(=O)n1c(C(N)=O)cc2ccc(C(F)(F)F)cc21

>  <score_type>  (93) 
oracle

>  <origin>  (93) 
adg

>  <m_score__min__energy>  (93) 
-6.0800000000000001

>  <m_primary>  (93) 
energy

$$$$
94:0
     RDKit          3D

 39 40  0  0  0  0  0  0  0  0999 V2000
  143.7810  153.6540  132.5670 C   0  0  0  0  0  0  0  0  0  0  0  0
  144.8450  152.5640  132.6210 C   0  0  0  0  0  0  0  0  0  0  0  0
  146.1390  153.1140  132.3880 O   0  0  0  0  0  0  0  0  0  0  0  0
  147.3270  152.4140  132.6250 C   0  0  0  0  0  0  0  0  0  0  0  0
  147.5470  151.3060  132.0650 O   0  0  0  0  0  0  0  0  0  0  0  0
  148.3670  153.0140  133.5190 C   0  0  0  0  0  0  0  0  0  0  0  0
  148.8220  154.3880  133.0070 C   0  0  0  0  0  0  0  0  0  0  0  0
  147.7880  155.0300  132.1810 N   0  0  0  0  0  0  0  0  0  0  0  0
  147.7430  156.4430  132.4620 C   0  0  0  0  0  0  0  0  0  0  0  0
  148.9280  157.2210  132.3990 C   0  0  0  0  0  0  0  0  0  0  0  0
  148.9020  158.5950  132.6890 C   0  0  0  0  0  0  0  0  0  0  0  0
  147.6830  159.1620  133.0510 C   0  0  0  0  0  0  0  0  0  0  0  0
  147.3710  160.4640  133.3620 C   0  0  0  0  0  0  0  0  0  0  0  0
  146.0080  160.4620  133.6440 C   0  0  0  0  0  0  0  0  0  0  0  0
  145.2720  161.6550  134.1140 C   0  0  0  0  0  0  0  0  0  0  0  0
  145.9640  162.6820  134.8200 N   0  0  0  0  0  0  0  0  0  0  0  0
  144.0310  161.7600  133.9330 O   0  0  0  0  0  0  0  0  0  0  0  0
  145.4920  159.2070  133.5050 N   0  0  0  0  0  0  0  0  0  0  0  0
  144.1200  158.8010  133.6350 C   0  0  0  0  0  0  0  0  0  0  0  0
  143.4650  159.0940  134.6690 O   0  0  0  0  0  0  0  0  0  0  0  0
  143.5090  158.0570  132.6320 O   0  0  0  0  0  0  0  0  0  0  0  0
  146.5320  158.4220  133.1440 C   0  0  0  0  0  0  0  0  0  0  0  0
  146.5260  157.0540  132.8450 C   0  0  0  0  0  0  0  0  0  0  0  0
  143.4994  153.9425  133.5905 H   0  0  0  0  0  0  0  0  0  0  0  0
  144.1806  154.5304  132.0358 H   0  0  0  0  0  0  0  0  0  0  0  0
  142.8952  153.2757  132.0358 H   0  0  0  0  0  0  0  0  0  0  0  0
  144.8270  152.0901  133.6135 H   0  0  0  0  0  0  0  0  0  0  0  0
  144.6302  151.8198  131.8400 H   0  0  0  0  0  0  0  0  0  0  0  0
  147.9469  153.1298  134.5290 H   0  0  0  0  0  0  0  0  0  0  0  0
  149.2393  152.3440  133.5330 H   0  0  0  0  0  0  0  0  0  0  0  0
  149.0421  155.0348  133.8691 H   0  0  0  0  0  0  0  0  0  0  0  0
  149.7173  154.2430  132.3846 H   0  0  0  0  0  0  0  0  0  0  0  0
  147.9970  154.8860  131.1660 H   0  0  0  0  0  0  0  0  0  0  0  0
  146.8540  154.6010  132.3830 H   0  0  0  0  0  0  0  0  0  0  0  0
  149.8782  156.7423  132.1197 H   0  0  0  0  0  0  0  0  0  0  0  0
  149.8162  159.2041  132.6319 H   0  0  0  0  0  0  0  0  0  0  0  0
  148.0543  161.3257  133.3835 H   0  0  0  0  0  0  0  0  0  0  0  0
  147.0070  162.7420  134.7930 H   0  0  0  0  0  0  0  0  0  0  0  0
  145.5969  156.4683  132.9065 H   0  0  0  0  0  0  0  0  0  0  0  0
  1  2  1  0
  2  3  1  0
  3  4  1  0
  4  5  2  0
  4  6  1  0
  6  7  1  0
  7  8  1  0
  8  9  1  0
  9 10  2  0
 10 11  1  0
 11 12  2  0
 12 13  1  0
 13 14  2  0
 14 15  1  0
 15 16  1  0
 15 17  2  0
 14 18  1  0
 18 19  1  0
 19 20  2  0
 19 21  1  0
 18 22  1  0
 22 23  2  0
 23  9  1  0
 22 12  1  0
  1 24  1  0
  1 25  1  0
  1 26  1  0
  2 27  1  0
  2 28  1  0
  6 29  1  0
  6 30  1  0
  7 31  1  0
  7 32  1  0
  8 33  1  0
  8 34  1  0
 10 35  1  0
 11 36  1  0
 13 37  1  0
 16 38  1  0
 23 39  1  0
M  CHG  3   8   1  16  -1  21  -1
M  END
>  <UniqueID>  (94) 
92

>  <SMILES>  (94) 
CCOC(=O)CC[NH2+]c1ccc2cc(C([NH-])=O)n(C(=O)[O-])c2c1

>  <Energy>  (94) 
71.39091575764914

>  <Genealogy>  (94) 
CCOC(=O)CC[NH2+]c1ccc2cc(C([NH-])=O)n(C(=O)[O-])c2c1 (protonated)
CCOC(=O)CC[NH2+]c1ccc2cc(C([NH-])=O)n(C(=O)[O-])c2c1 (3D coordinates assigned)
CCOC(=O)CC[NH2+]c1ccc2cc(C([NH-])=O)n(C(=O)[O-])c2c1 (optimized conformer: 71.39091575764914 kcal/mol)

>  <smiles>  (94) 
CCOC(=O)CCNc1ccc2cc(C(N)=O)n(C(=O)O)c2c1

>  <score_type>  (94) 
oracle

>  <origin>  (94) 
adg

>  <m_score__min__energy>  (94) 
-6.1699999999999999

>  <m_primary>  (94) 
energy

$$$$
95:0
     RDKit          3D

 36 37  0  0  0  0  0  0  0  0999 V2000
  142.1010  152.2120  134.3750 C   0  0  0  0  0  0  0  0  0  0  0  0
  141.5470  152.3580  132.9570 C   0  0  2  0  0  0  0  0  0  0  0  0
  140.6000  153.4760  132.8990 N   0  0  0  0  0  0  0  0  0  0  0  0
  140.9350  154.7850  133.3840 C   0  0  0  0  0  0  0  0  0  0  0  0
  142.1050  155.0290  133.7870 O   0  0  0  0  0  0  0  0  0  0  0  0
  139.9230  155.8570  133.4140 C   0  0  0  0  0  0  0  0  0  0  0  0
  138.7600  155.6370  132.9820 O   0  0  0  0  0  0  0  0  0  0  0  0
  140.2490  157.1550  133.9360 N   0  0  0  0  0  0  0  0  0  0  0  0
  140.1560  158.3570  133.3020 C   0  0  0  0  0  0  0  0  0  0  0  0
  139.8120  158.5610  131.8790 C   0  0  0  0  0  0  0  0  0  0  0  0
  138.7130  157.8760  131.2830 N   0  0  0  0  0  0  0  0  0  0  0  0
  140.5140  159.3300  131.1710 O   0  0  0  0  0  0  0  0  0  0  0  0
  140.4820  159.3940  134.1750 C   0  0  0  0  0  0  0  0  0  0  0  0
  140.7790  158.7840  135.3730 C   0  0  0  0  0  0  0  0  0  0  0  0
  141.1390  159.3380  136.5980 C   0  0  0  0  0  0  0  0  0  0  0  0
  141.3470  158.4660  137.6800 C   0  0  0  0  0  0  0  0  0  0  0  0
  141.2020  157.0630  137.5210 C   0  0  0  0  0  0  0  0  0  0  0  0
  141.3690  156.1430  138.7030 C   0  0  0  0  0  0  0  0  0  0  0  0
  141.6540  156.8650  139.8490 F   0  0  0  0  0  0  0  0  0  0  0  0
  140.1980  155.4340  138.8950 F   0  0  0  0  0  0  0  0  0  0  0  0
  142.4050  155.2510  138.4850 F   0  0  0  0  0  0  0  0  0  0  0  0
  140.8090  156.5420  136.2660 C   0  0  0  0  0  0  0  0  0  0  0  0
  140.6290  157.4320  135.2030 C   0  0  0  0  0  0  0  0  0  0  0  0
  140.8750  151.0850  132.5230 C   0  0  0  0  0  0  0  0  0  0  0  0
  141.5220  150.0060  132.4950 O   0  0  0  0  0  0  0  0  0  0  0  0
  139.5390  151.0930  132.1410 O   0  0  0  0  0  0  0  0  0  0  0  0
  141.3040  152.4220  135.1035 H   0  0  0  0  0  0  0  0  0  0  0  0
  142.4699  151.1860  134.5207 H   0  0  0  0  0  0  0  0  0  0  0  0
  142.9276  152.9230  134.5207 H   0  0  0  0  0  0  0  0  0  0  0  0
  142.3827  152.5636  132.2719 H   0  0  0  0  0  0  0  0  0  0  0  0
  139.6220  153.2940  132.5790 H   0  0  0  0  0  0  0  0  0  0  0  0
  138.4020  156.9450  131.6400 H   0  0  0  0  0  0  0  0  0  0  0  0
  140.4984  160.4713  133.9535 H   0  0  0  0  0  0  0  0  0  0  0  0
  141.2571  160.4253  136.7155 H   0  0  0  0  0  0  0  0  0  0  0  0
  141.6256  158.8756  138.6621 H   0  0  0  0  0  0  0  0  0  0  0  0
  140.6488  155.4623  136.1297 H   0  0  0  0  0  0  0  0  0  0  0  0
  1  2  1  0
  2  3  1  0
  3  4  1  0
  4  5  2  0
  4  6  1  0
  6  7  2  0
  6  8  1  0
  8  9  1  0
  9 10  1  0
 10 11  1  0
 10 12  2  0
  9 13  2  0
 13 14  1  0
 14 15  2  0
 15 16  1  0
 16 17  2  0
 17 18  1  0
 18 19  1  0
 18 20  1  0
 18 21  1  0
 17 22  1  0
 22 23  2  0
  2 24  1  0
 24 25  2  0
 24 26  1  0
 23  8  1  0
 23 14  1  0
  1 27  1  0
  1 28  1  0
  1 29  1  0
  2 30  1  6
  3 31  1  0
 11 32  1  0
 13 33  1  0
 15 34  1  0
 16 35  1  0
 22 36  1  0
M  CHG  2  11  -1  26  -1
M  END
>  <UniqueID>  (95) 
93

>  <SMILES>  (95) 
C[C@H](NC(=O)C(=O)n1c(C([NH-])=O)cc2ccc(C(F)(F)F)cc21)C(=O)[O-]

>  <Energy>  (95) 
72.27746577740244

>  <Genealogy>  (95) 
CC(NC(=O)C(=O)n1c(C([NH-])=O)cc2ccc(C(F)(F)F)cc21)C(=O)[O-] (protonated)
C[C@H](NC(=O)C(=O)n1c(C([NH-])=O)cc2ccc(C(F)(F)F)cc21)C(=O)[O-] (chirality)
C[C@H](NC(=O)C(=O)n1c(C([NH-])=O)cc2ccc(C(F)(F)F)cc21)C(=O)[O-] (3D coordinates assigned)
C[C@H](NC(=O)C(=O)n1c(C([NH-])=O)cc2ccc(C(F)(F)F)cc21)C(=O)[O-] (optimized conformer: 72.27746577740244 kcal/mol)

>  <smiles>  (95) 
CC(NC(=O)C(=O)n1c(C(N)=O)cc2ccc(C(F)(F)F)cc21)C(=O)O

>  <score_type>  (95) 
oracle

>  <origin>  (95) 
adg

>  <m_score__min__energy>  (95) 
-6.7000000000000002

>  <m_primary>  (95) 
energy

$$$$
96:0
     RDKit          3D

 49 50  0  0  0  0  0  0  0  0999 V2000
  148.3610  152.1380  139.4040 C   0  0  0  0  0  0  0  0  0  0  0  0
  148.9300  153.2570  138.9290 C   0  0  0  0  0  0  0  0  0  0  0  0
  150.2980  153.6540  139.4160 C   0  0  0  0  0  0  0  0  0  0  0  0
  148.2060  154.1030  137.9110 C   0  0  0  0  0  0  0  0  0  0  0  0
  148.0210  153.3400  136.6380 C   0  0  0  0  0  0  0  0  0  0  0  0
  148.9290  152.5610  136.2370 O   0  0  0  0  0  0  0  0  0  0  0  0
  146.8210  153.4610  135.9350 O   0  0  0  0  0  0  0  0  0  0  0  0
  146.0100  154.6290  135.9930 C   0  0  0  0  0  0  0  0  0  0  0  0
  144.7330  154.3320  135.4460 O   0  0  0  0  0  0  0  0  0  0  0  0
  144.5430  153.3890  134.4320 C   0  0  0  0  0  0  0  0  0  0  0  0
  143.5070  152.6640  134.4250 O   0  0  0  0  0  0  0  0  0  0  0  0
  145.5370  153.2580  133.3940 N   0  0  1  0  0  0  0  0  0  0  0  0
  145.2140  152.1360  132.5010 C   0  0  0  0  0  0  0  0  0  0  0  0
  145.6570  154.4780  132.6300 C   0  0  0  0  0  0  0  0  0  0  0  0
  144.8670  154.7200  131.6760 O   0  0  0  0  0  0  0  0  0  0  0  0
  146.7730  155.3540  132.8520 N   0  0  0  0  0  0  0  0  0  0  0  0
  148.0990  155.0560  132.7940 C   0  0  0  0  0  0  0  0  0  0  0  0
  148.6730  153.7030  132.6570 C   0  0  0  0  0  0  0  0  0  0  0  0
  148.0910  152.5920  133.3330 N   0  0  0  0  0  0  0  0  0  0  0  0
  149.7130  153.5310  131.9670 O   0  0  0  0  0  0  0  0  0  0  0  0
  148.8650  156.2110  132.9440 C   0  0  0  0  0  0  0  0  0  0  0  0
  147.9550  157.2330  133.1030 C   0  0  0  0  0  0  0  0  0  0  0  0
  148.1580  158.5980  133.2860 C   0  0  0  0  0  0  0  0  0  0  0  0
  147.0250  159.4230  133.4000 C   0  0  0  0  0  0  0  0  0  0  0  0
  145.7210  158.8740  133.3110 C   0  0  0  0  0  0  0  0  0  0  0  0
  144.5220  159.7610  133.4620 C   0  0  0  0  0  0  0  0  0  0  0  0
  145.5540  157.4830  133.1400 C   0  0  0  0  0  0  0  0  0  0  0  0
  146.7000  156.6870  133.0430 C   0  0  0  0  0  0  0  0  0  0  0  0
  147.3617  151.8383  139.0552 H   0  0  0  0  0  0  0  0  0  0  0  0
  148.8939  151.5206  140.1421 H   0  0  0  0  0  0  0  0  0  0  0  0
  150.3090  153.6572  140.5159 H   0  0  0  0  0  0  0  0  0  0  0  0
  151.0426  152.9349  139.0440 H   0  0  0  0  0  0  0  0  0  0  0  0
  150.5420  154.6600  139.0440 H   0  0  0  0  0  0  0  0  0  0  0  0
  147.2211  154.3871  138.3100 H   0  0  0  0  0  0  0  0  0  0  0  0
  148.8034  155.0033  137.7045 H   0  0  0  0  0  0  0  0  0  0  0  0
  145.8978  154.9487  137.0395 H   0  0  0  0  0  0  0  0  0  0  0  0
  146.4821  155.4387  135.4173 H   0  0  0  0  0  0  0  0  0  0  0  0
  146.4570  153.0510  133.8460 H   0  0  0  0  0  0  0  0  0  0  0  0
  144.9591  151.2507  133.1020 H   0  0  0  0  0  0  0  0  0  0  0  0
  144.3575  152.4073  131.8664 H   0  0  0  0  0  0  0  0  0  0  0  0
  146.0837  151.9104  131.8664 H   0  0  0  0  0  0  0  0  0  0  0  0
  147.8180  152.6580  134.3390 H   0  0  0  0  0  0  0  0  0  0  0  0
  149.9622  156.2896  132.9369 H   0  0  0  0  0  0  0  0  0  0  0  0
  149.1732  159.0182  133.3397 H   0  0  0  0  0  0  0  0  0  0  0  0
  147.1516  160.5040  133.5596 H   0  0  0  0  0  0  0  0  0  0  0  0
  144.3127  159.9158  134.5308 H   0  0  0  0  0  0  0  0  0  0  0  0
  144.7209  160.7311  132.9830 H   0  0  0  0  0  0  0  0  0  0  0  0
  143.6526  159.2870  132.9830 H   0  0  0  0  0  0  0  0  0  0  0  0
  144.5500  157.0371  133.0845 H   0  0  0  0  0  0  0  0  0  0  0  0
  1  2  2  0
  2  3  1  0
  2  4  1  0
  4  5  1  0
  5  6  2  0
  5  7  1  0
  7  8  1  0
  8  9  1  0
  9 10  1  0
 10 11  2  0
 10 12  1  0
 12 13  1  0
 12 14  1  0
 14 15  2  0
 14 16  1  0
 16 17  1  0
 17 18  1  0
 18 19  1  0
 18 20  2  0
 17 21  2  0
 21 22  1  0
 22 23  2  0
 23 24  1  0
 24 25  2  0
 25 26  1  0
 25 27  1  0
 27 28  2  0
 28 16  1  0
 28 22  1  0
  1 29  1  0
  1 30  1  0
  3 31  1  0
  3 32  1  0
  3 33  1  0
  4 34  1  0
  4 35  1  0
  8 36  1  0
  8 37  1  0
 12 38  1  1
 13 39  1  0
 13 40  1  0
 13 41  1  0
 19 42  1  0
 21 43  1  0
 23 44  1  0
 24 45  1  0
 26 46  1  0
 26 47  1  0
 26 48  1  0
 27 49  1  0
M  CHG  2  12   1  19  -1
M  END
>  <UniqueID>  (96) 
94

>  <SMILES>  (96) 
C=C(C)CC(=O)OCOC(=O)[NH+](C)C(=O)n1c(C([NH-])=O)cc2ccc(C)cc21

>  <Energy>  (96) 
80.68625483797578

>  <Genealogy>  (96) 
C=C(C)CC(=O)OCOC(=O)[NH+](C)C(=O)n1c(C([NH-])=O)cc2ccc(C)cc21 (protonated)
C=C(C)CC(=O)OCOC(=O)[NH+](C)C(=O)n1c(C([NH-])=O)cc2ccc(C)cc21 (3D coordinates assigned)
C=C(C)CC(=O)OCOC(=O)[NH+](C)C(=O)n1c(C([NH-])=O)cc2ccc(C)cc21 (optimized conformer: 80.68625483797578 kcal/mol)

>  <smiles>  (96) 
C=C(C)CC(=O)OCOC(=O)N(C)C(=O)n1c(C(N)=O)cc2ccc(C)cc21

>  <score_type>  (96) 
oracle

>  <origin>  (96) 
adg

>  <m_score__min__energy>  (96) 
-7.6100000000000003

>  <m_primary>  (96) 
energy

$$$$
97:0
     RDKit          3D

 40 41  0  0  0  0  0  0  0  0999 V2000
  143.6940  155.5880  134.7940 C   0  0  0  0  0  0  0  0  0  0  0  0
  144.9570  154.8550  134.9200 N   0  0  0  0  0  0  0  0  0  0  0  0
  145.3930  154.3540  136.2320 C   0  0  0  0  0  0  0  0  0  0  0  0
  146.8760  154.1530  136.2440 C   0  0  0  0  0  0  0  0  0  0  0  0
  147.3610  153.0050  136.4250 O   0  0  0  0  0  0  0  0  0  0  0  0
  147.7250  155.2330  136.0380 O   0  0  0  0  0  0  0  0  0  0  0  0
  145.7320  154.5840  133.7340 C   0  0  0  0  0  0  0  0  0  0  0  0
  145.4670  153.5780  133.0220 O   0  0  0  0  0  0  0  0  0  0  0  0
  146.8260  155.4320  133.3580 N   0  0  0  0  0  0  0  0  0  0  0  0
  148.0800  155.0590  132.9810 C   0  0  0  0  0  0  0  0  0  0  0  0
  148.5700  153.6610  132.9250 C   0  0  0  0  0  0  0  0  0  0  0  0
  147.9000  152.6150  133.6330 N   0  0  0  0  0  0  0  0  0  0  0  0
  149.5890  153.3770  132.2430 O   0  0  0  0  0  0  0  0  0  0  0  0
  148.8480  156.1890  132.6910 C   0  0  0  0  0  0  0  0  0  0  0  0
  148.0140  157.2640  132.9120 C   0  0  0  0  0  0  0  0  0  0  0  0
  148.2490  158.6260  132.7720 C   0  0  0  0  0  0  0  0  0  0  0  0
  147.1940  159.5110  133.0540 C   0  0  0  0  0  0  0  0  0  0  0  0
  145.9190  159.0290  133.4690 C   0  0  0  0  0  0  0  0  0  0  0  0
  144.8310  159.9500  133.7470 N   0  0  0  0  0  0  0  0  0  0  0  0
  143.4350  159.4990  133.6820 C   0  0  0  0  0  0  0  0  0  0  0  0
  145.1090  161.3470  134.1030 C   0  0  0  0  0  0  0  0  0  0  0  0
  145.7310  157.6280  133.6000 C   0  0  0  0  0  0  0  0  0  0  0  0
  146.8040  156.7780  133.3180 C   0  0  0  0  0  0  0  0  0  0  0  0
  143.3009  155.8161  135.7957 H   0  0  0  0  0  0  0  0  0  0  0  0
  143.8674  156.5258  134.2459 H   0  0  0  0  0  0  0  0  0  0  0  0
  142.9658  154.9722  134.2459 H   0  0  0  0  0  0  0  0  0  0  0  0
  145.1193  155.0836  137.0084 H   0  0  0  0  0  0  0  0  0  0  0  0
  144.8996  153.3909  136.4295 H   0  0  0  0  0  0  0  0  0  0  0  0
  148.2360  151.6310  133.5510 H   0  0  0  0  0  0  0  0  0  0  0  0
  147.0920  152.8080  134.2660 H   0  0  0  0  0  0  0  0  0  0  0  0
  149.8958  156.2154  132.3572 H   0  0  0  0  0  0  0  0  0  0  0  0
  149.2317  159.0009  132.4499 H   0  0  0  0  0  0  0  0  0  0  0  0
  147.3555  160.5943  132.9526 H   0  0  0  0  0  0  0  0  0  0  0  0
  143.0428  159.3723  134.7019 H   0  0  0  0  0  0  0  0  0  0  0  0
  142.8322  160.2481  133.1477 H   0  0  0  0  0  0  0  0  0  0  0  0
  143.3844  158.5388  133.1477 H   0  0  0  0  0  0  0  0  0  0  0  0
  145.1293  161.4492  135.1980 H   0  0  0  0  0  0  0  0  0  0  0  0
  146.0838  161.6439  133.6888 H   0  0  0  0  0  0  0  0  0  0  0  0
  144.3221  161.9945  133.6888 H   0  0  0  0  0  0  0  0  0  0  0  0
  144.7601  157.2196  133.9172 H   0  0  0  0  0  0  0  0  0  0  0  0
  1  2  1  0
  2  3  1  0
  3  4  1  0
  4  5  2  0
  4  6  1  0
  2  7  1  0
  7  8  2  0
  7  9  1  0
  9 10  1  0
 10 11  1  0
 11 12  1  0
 11 13  2  0
 10 14  2  0
 14 15  1  0
 15 16  2  0
 16 17  1  0
 17 18  2  0
 18 19  1  0
 19 20  1  0
 19 21  1  0
 18 22  1  0
 22 23  2  0
 23  9  1  0
 23 15  1  0
  1 24  1  0
  1 25  1  0
  1 26  1  0
  3 27  1  0
  3 28  1  0
 12 29  1  0
 12 30  1  0
 14 31  1  0
 16 32  1  0
 17 33  1  0
 20 34  1  0
 20 35  1  0
 20 36  1  0
 21 37  1  0
 21 38  1  0
 21 39  1  0
 22 40  1  0
M  CHG  1   6  -1
M  END
>  <UniqueID>  (97) 
95

>  <SMILES>  (97) 
CN(CC(=O)[O-])C(=O)n1c(C(N)=O)cc2ccc(N(C)C)cc21

>  <Energy>  (97) 
77.02106875216462

>  <Genealogy>  (97) 
CN(CC(=O)[O-])C(=O)n1c(C(N)=O)cc2ccc(N(C)C)cc21 (protonated)
CN(CC(=O)[O-])C(=O)n1c(C(N)=O)cc2ccc(N(C)C)cc21 (3D coordinates assigned)
CN(CC(=O)[O-])C(=O)n1c(C(N)=O)cc2ccc(N(C)C)cc21 (optimized conformer: 77.02106875216462 kcal/mol)

>  <smiles>  (97) 
CN(CC(=O)O)C(=O)n1c(C(N)=O)cc2ccc(N(C)C)cc21

>  <score_type>  (97) 
oracle

>  <origin>  (97) 
adg

>  <m_score__min__energy>  (97) 
-6.6299999999999999

>  <m_primary>  (97) 
energy

$$$$
