0:0
     RDKit          3D

 43 44  0  0  0  0  0  0  0  0999 V2000
  138.8360  160.8160  131.2750 C   0  0  0  0  0  0  0  0  0  0  0  0
  139.3250  159.5470  131.9060 C   0  0  0  0  0  0  0  0  0  0  0  0
  138.6850  158.3170  131.6140 C   0  0  0  0  0  0  0  0  0  0  0  0
  139.1150  157.1240  132.2210 C   0  0  0  0  0  0  0  0  0  0  0  0
  140.1730  157.1970  133.1240 C   0  0  0  0  0  0  0  0  0  0  0  0
  140.7960  156.2020  133.8450 C   0  0  0  0  0  0  0  0  0  0  0  0
  141.7850  156.8480  134.5850 C   0  0  0  0  0  0  0  0  0  0  0  0
  142.6590  156.1640  135.5600 C   0  0  0  0  0  0  0  0  0  0  0  0
  143.9000  155.6050  135.1320 N   0  0  0  0  0  0  0  0  0  0  0  0
  142.3140  156.0480  136.7650 O   0  0  0  0  0  0  0  0  0  0  0  0
  141.7780  158.1850  134.3230 N   0  0  0  0  0  0  0  0  0  0  0  0
  142.6620  159.1940  134.8430 C   0  0  0  0  0  0  0  0  0  0  0  0
  142.4040  159.7180  135.9590 O   0  0  0  0  0  0  0  0  0  0  0  0
  143.8240  159.6160  134.0980 N   0  0  0  0  0  0  0  0  0  0  0  0
  144.1120  161.0440  133.9470 C   0  0  0  0  0  0  0  0  0  0  0  0
  144.7780  158.6550  133.6140 C   0  0  0  0  0  0  0  0  0  0  0  0
  144.3830  157.6140  133.0200 O   0  0  0  0  0  0  0  0  0  0  0  0
  146.1490  158.8920  133.7820 O   0  0  0  0  0  0  0  0  0  0  0  0
  147.1690  158.1820  133.0820 C   0  0  0  0  0  0  0  0  0  0  0  0
  147.3200  156.7540  133.6370 C   0  0  1  0  0  0  0  0  0  0  0  0
  146.5890  156.6000  134.8270 O   0  0  0  0  0  0  0  0  0  0  0  0
  146.8900  155.6900  132.6120 C   0  0  0  0  0  0  0  0  0  0  0  0
  145.6300  155.1680  132.9380 O   0  0  0  0  0  0  0  0  0  0  0  0
  140.7830  158.3840  133.4350 C   0  0  0  0  0  0  0  0  0  0  0  0
  140.3840  159.5850  132.8390 C   0  0  0  0  0  0  0  0  0  0  0  0
  138.5594  161.5337  132.0614 H   0  0  0  0  0  0  0  0  0  0  0  0
  139.6330  161.2456  130.6503 H   0  0  0  0  0  0  0  0  0  0  0  0
  137.9568  160.5998  130.6503 H   0  0  0  0  0  0  0  0  0  0  0  0
  137.8437  158.2953  130.9056 H   0  0  0  0  0  0  0  0  0  0  0  0
  138.6313  156.1634  131.9901 H   0  0  0  0  0  0  0  0  0  0  0  0
  140.5627  155.1270  133.8382 H   0  0  0  0  0  0  0  0  0  0  0  0
  144.5480  156.1460  134.5190 H   0  0  0  0  0  0  0  0  0  0  0  0
  144.2052  161.5063  134.9408 H   0  0  0  0  0  0  0  0  0  0  0  0
  145.0540  161.1716  133.3934 H   0  0  0  0  0  0  0  0  0  0  0  0
  143.2931  161.5267  133.3934 H   0  0  0  0  0  0  0  0  0  0  0  0
  146.9043  158.1284  132.0157 H   0  0  0  0  0  0  0  0  0  0  0  0
  148.1227  158.7141  133.2134 H   0  0  0  0  0  0  0  0  0  0  0  0
  148.3885  156.6035  133.8509 H   0  0  0  0  0  0  0  0  0  0  0  0
  145.6340  156.7740  134.6170 H   0  0  0  0  0  0  0  0  0  0  0  0
  146.8433  156.1488  131.6133 H   0  0  0  0  0  0  0  0  0  0  0  0
  147.6251  154.8718  132.6223 H   0  0  0  0  0  0  0  0  0  0  0  0
  145.1340  155.8820  133.4180 H   0  0  0  0  0  0  0  0  0  0  0  0
  140.8818  160.5332  133.0904 H   0  0  0  0  0  0  0  0  0  0  0  0
  1  2  1  0
  2  3  2  0
  3  4  1  0
  4  5  2  0
  5  6  1  0
  6  7  2  0
  7  8  1  0
  8  9  1  0
  8 10  2  0
  7 11  1  0
 11 12  1  0
 12 13  2  0
 12 14  1  0
 14 15  1  0
 14 16  1  0
 16 17  2  0
 16 18  1  0
 18 19  1  0
 19 20  1  0
 20 21  1  0
 20 22  1  0
 22 23  1  0
 11 24  1  0
 24 25  2  0
 25  2  1  0
 24  5  1  0
  1 26  1  0
  1 27  1  0
  1 28  1  0
  3 29  1  0
  4 30  1  0
  6 31  1  0
  9 32  1  0
 15 33  1  0
 15 34  1  0
 15 35  1  0
 19 36  1  0
 19 37  1  0
 20 38  1  1
 21 39  1  0
 22 40  1  0
 22 41  1  0
 23 42  1  0
 25 43  1  0
M  CHG  1   9  -1
M  END
>  <UniqueID>  (1) 
1

>  <SMILES>  (1) 
Cc1ccc2cc(C([NH-])=O)n(C(=O)N(C)C(=O)OC[C@@H](O)CO)c2c1

>  <Energy>  (1) 
78.95340535821292

>  <Genealogy>  (1) 
Cc1ccc2cc(C([NH-])=O)n(C(=O)N(C)C(=O)OC[C@@H](O)CO)c2c1 (protonated)
Cc1ccc2cc(C([NH-])=O)n(C(=O)N(C)C(=O)OC[C@@H](O)CO)c2c1 (3D coordinates assigned)
Cc1ccc2cc(C([NH-])=O)n(C(=O)N(C)C(=O)OC[C@@H](O)CO)c2c1 (optimized conformer: 78.95340535821292 kcal/mol)

>  <smiles>  (1) 
Cc1ccc2cc(C(N)=O)n(C(=O)N(C)C(=O)OC[C@@H](O)CO)c2c1

>  <score_type>  (1) 
oracle

>  <origin>  (1) 
adg

>  <m_score__min__energy>  (1) 
-5.1299999999999999

>  <m_primary>  (1) 
energy

$$$$
1:0
     RDKit          3D

 42 43  0  0  0  0  0  0  0  0999 V2000
  149.6590  150.7380  131.3330 C   0  0  0  0  0  0  0  0  0  0  0  0
  150.0350  151.6220  132.4470 N   0  0  0  0  0  0  0  0  0  0  0  0
  149.6140  151.0600  133.7410 C   0  0  0  0  0  0  0  0  0  0  0  0
  149.6070  153.0270  132.2550 C   0  0  0  0  0  0  0  0  0  0  0  0
  148.1560  153.3280  132.6720 C   0  0  0  0  0  0  0  0  0  0  0  0
  148.0940  154.5410  133.4140 O   0  0  0  0  0  0  0  0  0  0  0  0
  147.3560  155.6500  132.9910 C   0  0  0  0  0  0  0  0  0  0  0  0
  146.7360  155.6250  131.8920 O   0  0  0  0  0  0  0  0  0  0  0  0
  147.3290  156.8590  133.8240 C   0  0  0  0  0  0  0  0  0  0  0  0
  148.0810  156.9320  134.8330 O   0  0  0  0  0  0  0  0  0  0  0  0
  146.4870  157.9730  133.4850 N   0  0  0  0  0  0  0  0  0  0  0  0
  146.8820  159.1930  133.0270 C   0  0  0  0  0  0  0  0  0  0  0  0
  148.2590  159.5700  132.6460 C   0  0  0  0  0  0  0  0  0  0  0  0
  149.3950  158.9850  133.2860 N   0  0  0  0  0  0  0  0  0  0  0  0
  148.4370  160.3920  131.7080 O   0  0  0  0  0  0  0  0  0  0  0  0
  145.7960  160.0640  132.9560 C   0  0  0  0  0  0  0  0  0  0  0  0
  144.7140  159.3300  133.3900 C   0  0  0  0  0  0  0  0  0  0  0  0
  143.3820  159.7050  133.5420 C   0  0  0  0  0  0  0  0  0  0  0  0
  142.4870  158.7530  134.0570 C   0  0  0  0  0  0  0  0  0  0  0  0
  142.9380  157.4630  134.4410 C   0  0  0  0  0  0  0  0  0  0  0  0
  141.9600  156.4400  134.9620 C   0  0  0  0  0  0  0  0  0  0  0  0
  142.6250  155.3930  135.5730 F   0  0  0  0  0  0  0  0  0  0  0  0
  141.1230  157.0410  135.8840 F   0  0  0  0  0  0  0  0  0  0  0  0
  141.1960  155.9240  133.9290 F   0  0  0  0  0  0  0  0  0  0  0  0
  144.2960  157.1160  134.2530 C   0  0  0  0  0  0  0  0  0  0  0  0
  145.1590  158.0750  133.7110 C   0  0  0  0  0  0  0  0  0  0  0  0
  149.2579  149.7949  131.7326 H   0  0  0  0  0  0  0  0  0  0  0  0
  148.8925  151.2306  130.7167 H   0  0  0  0  0  0  0  0  0  0  0  0
  150.5455  150.5275  130.7167 H   0  0  0  0  0  0  0  0  0  0  0  0
  150.0557  151.6496  134.5579 H   0  0  0  0  0  0  0  0  0  0  0  0
  148.5171  151.0938  133.8159 H   0  0  0  0  0  0  0  0  0  0  0  0
  149.9547  150.0168  133.8159 H   0  0  0  0  0  0  0  0  0  0  0  0
  150.2730  153.6707  132.8483 H   0  0  0  0  0  0  0  0  0  0  0  0
  149.6623  153.2201  131.1735 H   0  0  0  0  0  0  0  0  0  0  0  0
  147.5321  153.4221  131.7709 H   0  0  0  0  0  0  0  0  0  0  0  0
  147.7881  152.5051  133.3025 H   0  0  0  0  0  0  0  0  0  0  0  0
  149.2960  158.1630  133.9220 H   0  0  0  0  0  0  0  0  0  0  0  0
  150.3560  159.3100  133.0420 H   0  0  0  0  0  0  0  0  0  0  0  0
  145.8017  161.1128  132.6244 H   0  0  0  0  0  0  0  0  0  0  0  0
  143.0415  160.7143  133.2676 H   0  0  0  0  0  0  0  0  0  0  0  0
  141.4229  159.0103  134.1642 H   0  0  0  0  0  0  0  0  0  0  0  0
  144.6650  156.1164  134.5262 H   0  0  0  0  0  0  0  0  0  0  0  0
  1  2  1  0
  2  3  1  0
  2  4  1  0
  4  5  1  0
  5  6  1  0
  6  7  1  0
  7  8  2  0
  7  9  1  0
  9 10  2  0
  9 11  1  0
 11 12  1  0
 12 13  1  0
 13 14  1  0
 13 15  2  0
 12 16  2  0
 16 17  1  0
 17 18  2  0
 18 19  1  0
 19 20  2  0
 20 21  1  0
 21 22  1  0
 21 23  1  0
 21 24  1  0
 20 25  1  0
 25 26  2  0
 26 11  1  0
 26 17  1  0
  1 27  1  0
  1 28  1  0
  1 29  1  0
  3 30  1  0
  3 31  1  0
  3 32  1  0
  4 33  1  0
  4 34  1  0
  5 35  1  0
  5 36  1  0
 14 37  1  0
 14 38  1  0
 16 39  1  0
 18 40  1  0
 19 41  1  0
 25 42  1  0
M  END
>  <UniqueID>  (2) 
2

>  <SMILES>  (2) 
CN(C)CCOC(=O)C(=O)n1c(C(N)=O)cc2ccc(C(F)(F)F)cc21

>  <Energy>  (2) 
82.30207145300513

>  <Genealogy>  (2) 
CN(C)CCOC(=O)C(=O)n1c(C(N)=O)cc2ccc(C(F)(F)F)cc21 (3D coordinates assigned)
CN(C)CCOC(=O)C(=O)n1c(C(N)=O)cc2ccc(C(F)(F)F)cc21 (optimized conformer: 82.30207145300513 kcal/mol)

>  <smiles>  (2) 
CN(C)CCOC(=O)C(=O)n1c(C(N)=O)cc2ccc(C(F)(F)F)cc21

>  <score_type>  (2) 
oracle

>  <origin>  (2) 
adg

>  <m_score__min__energy>  (2) 
-6.4299999999999997

>  <m_primary>  (2) 
energy

$$$$
2:0
     RDKit          3D

 40 41  0  0  0  0  0  0  0  0999 V2000
  149.6510  151.0480  134.5590 C   0  0  0  0  0  0  0  0  0  0  0  0
  149.4010  151.2140  133.0510 C   0  0  0  0  0  0  0  0  0  0  0  0
  150.7350  151.0970  132.2880 C   0  0  0  0  0  0  0  0  0  0  0  0
  148.4510  150.0980  132.5670 C   0  0  0  0  0  0  0  0  0  0  0  0
  148.7850  152.5790  132.8040 C   0  0  0  0  0  0  0  0  0  0  0  0
  149.4530  153.4650  132.2030 O   0  0  0  0  0  0  0  0  0  0  0  0
  147.5060  152.8660  133.3050 O   0  0  0  0  0  0  0  0  0  0  0  0
  146.3000  152.6400  132.6270 C   0  0  0  0  0  0  0  0  0  0  0  0
  146.1730  151.6570  131.8470 O   0  0  0  0  0  0  0  0  0  0  0  0
  145.1970  153.5370  132.8330 N   0  0  0  0  0  0  0  0  0  0  0  0
  145.2570  154.8860  133.0250 C   0  0  0  0  0  0  0  0  0  0  0  0
  146.4720  155.7200  132.8890 C   0  0  0  0  0  0  0  0  0  0  0  0
  147.6100  155.2350  132.1740 N   0  0  0  0  0  0  0  0  0  0  0  0
  146.5250  156.8550  133.4310 O   0  0  0  0  0  0  0  0  0  0  0  0
  143.9870  155.4000  133.2790 C   0  0  0  0  0  0  0  0  0  0  0  0
  143.1410  154.3180  133.2360 C   0  0  0  0  0  0  0  0  0  0  0  0
  141.7630  154.2530  133.4190 C   0  0  0  0  0  0  0  0  0  0  0  0
  141.1450  152.9940  133.3410 C   0  0  0  0  0  0  0  0  0  0  0  0
  141.9120  151.8230  133.1080 C   0  0  0  0  0  0  0  0  0  0  0  0
  141.2330  150.4820  132.9900 C   0  0  0  0  0  0  0  0  0  0  0  0
  142.0440  149.5800  132.3230 F   0  0  0  0  0  0  0  0  0  0  0  0
  140.9510  149.9650  134.2430 F   0  0  0  0  0  0  0  0  0  0  0  0
  140.0510  150.6310  132.2880 F   0  0  0  0  0  0  0  0  0  0  0  0
  143.3070  151.9340  132.9030 C   0  0  0  0  0  0  0  0  0  0  0  0
  143.8940  153.2040  132.9680 C   0  0  0  0  0  0  0  0  0  0  0  0
  148.8633  151.5711  135.1210 H   0  0  0  0  0  0  0  0  0  0  0  0
  149.6375  149.9789  134.8174 H   0  0  0  0  0  0  0  0  0  0  0  0
  150.6311  151.4753  134.8174 H   0  0  0  0  0  0  0  0  0  0  0  0
  151.5638  151.0243  133.0076 H   0  0  0  0  0  0  0  0  0  0  0  0
  150.7182  150.1969  131.6559 H   0  0  0  0  0  0  0  0  0  0  0  0
  150.8751  151.9863  131.6559 H   0  0  0  0  0  0  0  0  0  0  0  0
  148.0145  149.5852  133.4368 H   0  0  0  0  0  0  0  0  0  0  0  0
  147.6468  150.5389  131.9596 H   0  0  0  0  0  0  0  0  0  0  0  0
  149.0146  149.3745  131.9596 H   0  0  0  0  0  0  0  0  0  0  0  0
  147.5860  154.3220  131.6690 H   0  0  0  0  0  0  0  0  0  0  0  0
  148.4750  155.8170  132.1110 H   0  0  0  0  0  0  0  0  0  0  0  0
  143.7187  156.4490  133.4728 H   0  0  0  0  0  0  0  0  0  0  0  0
  141.1750  155.1609  133.6189 H   0  0  0  0  0  0  0  0  0  0  0  0
  140.0545  152.9149  133.4619 H   0  0  0  0  0  0  0  0  0  0  0  0
  143.9175  151.0425  132.6970 H   0  0  0  0  0  0  0  0  0  0  0  0
  1  2  1  0
  2  3  1  0
  2  4  1  0
  2  5  1  0
  5  6  2  0
  5  7  1  0
  7  8  1  0
  8  9  2  0
  8 10  1  0
 10 11  1  0
 11 12  1  0
 12 13  1  0
 12 14  2  0
 11 15  2  0
 15 16  1  0
 16 17  2  0
 17 18  1  0
 18 19  2  0
 19 20  1  0
 20 21  1  0
 20 22  1  0
 20 23  1  0
 19 24  1  0
 24 25  2  0
 25 10  1  0
 25 16  1  0
  1 26  1  0
  1 27  1  0
  1 28  1  0
  3 29  1  0
  3 30  1  0
  3 31  1  0
  4 32  1  0
  4 33  1  0
  4 34  1  0
 13 35  1  0
 13 36  1  0
 15 37  1  0
 17 38  1  0
 18 39  1  0
 24 40  1  0
M  END
>  <UniqueID>  (3) 
3

>  <SMILES>  (3) 
CC(C)(C)C(=O)OC(=O)n1c(C(N)=O)cc2ccc(C(F)(F)F)cc21

>  <Energy>  (3) 
75.34302387024096

>  <Genealogy>  (3) 
CC(C)(C)C(=O)OC(=O)n1c(C(N)=O)cc2ccc(C(F)(F)F)cc21 (3D coordinates assigned)
CC(C)(C)C(=O)OC(=O)n1c(C(N)=O)cc2ccc(C(F)(F)F)cc21 (optimized conformer: 75.34302387024096 kcal/mol)

>  <smiles>  (3) 
CC(C)(C)C(=O)OC(=O)n1c(C(N)=O)cc2ccc(C(F)(F)F)cc21

>  <score_type>  (3) 
oracle

>  <origin>  (3) 
adg

>  <m_score__min__energy>  (3) 
-6.7599999999999998

>  <m_primary>  (3) 
energy

$$$$
3:0
     RDKit          3D

 37 39  0  0  0  0  0  0  0  0999 V2000
  138.7090  158.3820  132.9810 C   0  0  0  0  0  0  0  0  0  0  0  0
  139.4000  157.8630  134.1990 C   0  0  0  0  0  0  0  0  0  0  0  0
  139.0490  158.1470  135.4320 O   0  0  0  0  0  0  0  0  0  0  0  0
  139.8810  157.4830  136.2020 C   0  0  0  0  0  0  0  0  0  0  0  0
  139.8450  157.5170  137.4600 O   0  0  0  0  0  0  0  0  0  0  0  0
  140.7530  156.7780  135.5180 O   0  0  0  0  0  0  0  0  0  0  0  0
  140.4740  156.9930  134.2530 C   0  0  0  0  0  0  0  0  0  0  0  0
  141.2220  156.3880  133.1040 C   0  0  0  0  0  0  0  0  0  0  0  0
  142.4220  157.1130  132.8460 O   0  0  0  0  0  0  0  0  0  0  0  0
  143.3970  157.3550  133.8200 C   0  0  0  0  0  0  0  0  0  0  0  0
  143.6650  156.4790  134.6870 O   0  0  0  0  0  0  0  0  0  0  0  0
  144.1230  158.5940  133.8060 N   0  0  0  0  0  0  0  0  0  0  0  0
  143.6190  159.8560  133.9010 C   0  0  0  0  0  0  0  0  0  0  0  0
  142.2150  160.2080  134.1980 C   0  0  0  0  0  0  0  0  0  0  0  0
  141.6360  159.8200  135.4420 N   0  0  0  0  0  0  0  0  0  0  0  0
  141.5110  160.8200  133.3530 O   0  0  0  0  0  0  0  0  0  0  0  0
  144.6350  160.7990  133.7480 C   0  0  0  0  0  0  0  0  0  0  0  0
  145.7850  160.0680  133.5570 C   0  0  0  0  0  0  0  0  0  0  0  0
  147.0900  160.4960  133.3300 C   0  0  0  0  0  0  0  0  0  0  0  0
  148.0780  159.5180  133.1270 C   0  0  0  0  0  0  0  0  0  0  0  0
  147.7440  158.1400  133.1460 C   0  0  0  0  0  0  0  0  0  0  0  0
  148.8120  157.1110  132.9060 C   0  0  0  0  0  0  0  0  0  0  0  0
  149.6270  157.5180  131.8650 F   0  0  0  0  0  0  0  0  0  0  0  0
  148.2260  155.9000  132.5820 F   0  0  0  0  0  0  0  0  0  0  0  0
  146.4080  157.7430  133.3760 C   0  0  0  0  0  0  0  0  0  0  0  0
  145.4490  158.7400  133.5940 C   0  0  0  0  0  0  0  0  0  0  0  0
  137.8630  159.0174  133.2821 H   0  0  0  0  0  0  0  0  0  0  0  0
  139.4169  158.9736  132.3819 H   0  0  0  0  0  0  0  0  0  0  0  0
  138.3381  157.5373  132.3819 H   0  0  0  0  0  0  0  0  0  0  0  0
  141.4752  155.3455  133.3469 H   0  0  0  0  0  0  0  0  0  0  0  0
  140.5855  156.4274  132.2077 H   0  0  0  0  0  0  0  0  0  0  0  0
  141.0860  158.9360  135.5250 H   0  0  0  0  0  0  0  0  0  0  0  0
  144.5377  161.8944  133.7744 H   0  0  0  0  0  0  0  0  0  0  0  0
  147.3400  161.5670  133.3102 H   0  0  0  0  0  0  0  0  0  0  0  0
  149.1200  159.8240  132.9518 H   0  0  0  0  0  0  0  0  0  0  0  0
  149.4142  156.9961  133.8194 H   0  0  0  0  0  0  0  0  0  0  0  0
  146.1284  156.6792  133.3837 H   0  0  0  0  0  0  0  0  0  0  0  0
  1  2  1  0
  2  3  1  0
  3  4  1  0
  4  5  2  0
  4  6  1  0
  6  7  1  0
  7  8  1  0
  8  9  1  0
  9 10  1  0
 10 11  2  0
 10 12  1  0
 12 13  1  0
 13 14  1  0
 14 15  1  0
 14 16  2  0
 13 17  2  0
 17 18  1  0
 18 19  2  0
 19 20  1  0
 20 21  2  0
 21 22  1  0
 22 23  1  0
 22 24  1  0
 21 25  1  0
 25 26  2  0
  7  2  2  0
 26 12  1  0
 26 18  1  0
  1 27  1  0
  1 28  1  0
  1 29  1  0
  8 30  1  0
  8 31  1  0
 15 32  1  0
 17 33  1  0
 19 34  1  0
 20 35  1  0
 22 36  1  0
 25 37  1  0
M  CHG  1  15  -1
M  END
>  <UniqueID>  (4) 
4

>  <SMILES>  (4) 
Cc1oc(=O)oc1COC(=O)n1c(C([NH-])=O)cc2ccc(C(F)F)cc21

>  <Energy>  (4) 
106.73499349293837

>  <Genealogy>  (4) 
Cc1oc(=O)oc1COC(=O)n1c(C([NH-])=O)cc2ccc(C(F)F)cc21 (protonated)
Cc1oc(=O)oc1COC(=O)n1c(C([NH-])=O)cc2ccc(C(F)F)cc21 (3D coordinates assigned)
Cc1oc(=O)oc1COC(=O)n1c(C([NH-])=O)cc2ccc(C(F)F)cc21 (optimized conformer: 106.73499349293837 kcal/mol)

>  <smiles>  (4) 
Cc1oc(=O)oc1COC(=O)n1c(C(N)=O)cc2ccc(C(F)F)cc21

>  <score_type>  (4) 
oracle

>  <origin>  (4) 
adg

>  <m_score__min__energy>  (4) 
-6.4400000000000004

>  <m_primary>  (4) 
energy

$$$$
4:0
     RDKit          3D

 42 44  0  0  0  0  0  0  0  0999 V2000
  145.9350  162.7790  134.9010 N   0  0  0  0  0  0  0  0  0  0  0  0
  145.2700  161.7850  134.1290 C   0  0  0  0  0  0  0  0  0  0  0  0
  144.0710  161.9710  133.7860 O   0  0  0  0  0  0  0  0  0  0  0  0
  145.9780  160.5680  133.6780 C   0  0  0  0  0  0  0  0  0  0  0  0
  147.3450  160.5360  133.4100 C   0  0  0  0  0  0  0  0  0  0  0  0
  147.6270  159.2220  133.1140 C   0  0  0  0  0  0  0  0  0  0  0  0
  148.8340  158.6230  132.7690 C   0  0  0  0  0  0  0  0  0  0  0  0
  148.8310  157.2450  132.4940 C   0  0  0  0  0  0  0  0  0  0  0  0
  147.6270  156.4970  132.5550 C   0  0  0  0  0  0  0  0  0  0  0  0
  147.6400  155.0800  132.2810 N   0  0  0  0  0  0  0  0  0  0  0  0
  146.4830  154.4020  132.8910 C   0  0  0  0  0  0  0  0  0  0  0  0
  146.7260  152.8930  133.0840 C   0  0  0  0  0  0  0  0  0  0  0  0
  148.0450  152.5040  132.5470 N   0  0  0  0  0  0  0  0  0  0  0  0
  147.9800  151.2130  131.8590 C   0  0  0  0  0  0  0  0  0  0  0  0
  149.3800  150.6280  131.9010 C   0  0  0  0  0  0  0  0  0  0  0  0
  150.0560  151.3000  133.0860 C   0  0  2  0  0  0  0  0  0  0  0  0
  150.3490  150.3730  134.0740 F   0  0  0  0  0  0  0  0  0  0  0  0
  149.0570  152.3310  133.5970 C   0  0  0  0  0  0  0  0  0  0  0  0
  146.4200  157.1440  132.9090 C   0  0  0  0  0  0  0  0  0  0  0  0
  146.4580  158.5120  133.2000 C   0  0  0  0  0  0  0  0  0  0  0  0
  145.4340  159.3260  133.5440 N   0  0  0  0  0  0  0  0  0  0  0  0
  144.0520  158.9510  133.6530 C   0  0  0  0  0  0  0  0  0  0  0  0
  143.5160  158.2330  132.7680 O   0  0  0  0  0  0  0  0  0  0  0  0
  143.2990  159.3550  134.7480 O   0  0  0  0  0  0  0  0  0  0  0  0
  146.9760  162.8680  134.8830 H   0  0  0  0  0  0  0  0  0  0  0  0
  148.0488  161.3811  133.4307 H   0  0  0  0  0  0  0  0  0  0  0  0
  149.7625  159.2101  132.7131 H   0  0  0  0  0  0  0  0  0  0  0  0
  149.7720  156.7409  132.2287 H   0  0  0  0  0  0  0  0  0  0  0  0
  148.5160  154.6670  132.6780 H   0  0  0  0  0  0  0  0  0  0  0  0
  147.6580  154.9010  131.2490 H   0  0  0  0  0  0  0  0  0  0  0  0
  146.2833  154.8567  133.8725 H   0  0  0  0  0  0  0  0  0  0  0  0
  145.6260  154.5212  132.2118 H   0  0  0  0  0  0  0  0  0  0  0  0
  146.6889  152.6557  134.1574 H   0  0  0  0  0  0  0  0  0  0  0  0
  145.9460  152.3372  132.5430 H   0  0  0  0  0  0  0  0  0  0  0  0
  147.2737  150.5443  132.3728 H   0  0  0  0  0  0  0  0  0  0  0  0
  147.6312  151.3330  130.8227 H   0  0  0  0  0  0  0  0  0  0  0  0
  149.3389  149.5385  132.0470 H   0  0  0  0  0  0  0  0  0  0  0  0
  149.9269  150.8012  130.9624 H   0  0  0  0  0  0  0  0  0  0  0  0
  151.0098  151.7659  132.7974 H   0  0  0  0  0  0  0  0  0  0  0  0
  148.5836  151.9720  134.5227 H   0  0  0  0  0  0  0  0  0  0  0  0
  149.5569  153.2847  133.8219 H   0  0  0  0  0  0  0  0  0  0  0  0
  145.4738  156.5848  132.9544 H   0  0  0  0  0  0  0  0  0  0  0  0
  1  2  1  0
  2  3  2  0
  2  4  1  0
  4  5  2  0
  5  6  1  0
  6  7  2  0
  7  8  1  0
  8  9  2  0
  9 10  1  0
 10 11  1  0
 11 12  1  0
 12 13  1  0
 13 14  1  0
 14 15  1  0
 15 16  1  0
 16 17  1  0
 16 18  1  0
  9 19  1  0
 19 20  2  0
 20 21  1  0
 21 22  1  0
 22 23  2  0
 22 24  1  0
 21  4  1  0
 20  6  1  0
 18 13  1  0
  1 25  1  0
  5 26  1  0
  7 27  1  0
  8 28  1  0
 10 29  1  0
 10 30  1  0
 11 31  1  0
 11 32  1  0
 12 33  1  0
 12 34  1  0
 14 35  1  0
 14 36  1  0
 15 37  1  0
 15 38  1  0
 16 39  1  6
 18 40  1  0
 18 41  1  0
 19 42  1  0
M  CHG  3   1  -1  10   1  24  -1
M  END
>  <UniqueID>  (5) 
5

>  <SMILES>  (5) 
[NH-]C(=O)c1cc2ccc([NH2+]CCN3CC[C@H](F)C3)cc2n1C(=O)[O-]

>  <Energy>  (5) 
85.03920180910694

>  <Genealogy>  (5) 
[NH-]C(=O)c1cc2ccc([NH2+]CCN3CCC(F)C3)cc2n1C(=O)[O-] (protonated)
[NH-]C(=O)c1cc2ccc([NH2+]CCN3CC[C@H](F)C3)cc2n1C(=O)[O-] (chirality)
[NH-]C(=O)c1cc2ccc([NH2+]CCN3CC[C@H](F)C3)cc2n1C(=O)[O-] (3D coordinates assigned)
[NH-]C(=O)c1cc2ccc([NH2+]CCN3CC[C@H](F)C3)cc2n1C(=O)[O-] (nonaromatic ring conformer: 85.03920180910694 kcal/mol)

>  <smiles>  (5) 
NC(=O)c1cc2ccc(NCCN3CCC(F)C3)cc2n1C(=O)O

>  <score_type>  (5) 
oracle

>  <origin>  (5) 
adg

>  <m_score__min__energy>  (5) 
-7.2199999999999998

>  <m_primary>  (5) 
energy

$$$$
5:0
     RDKit          3D

 33 34  0  0  0  0  0  0  0  0999 V2000
  143.4680  161.8670  133.7260 N   0  0  0  0  0  0  0  0  0  0  0  0
  144.8540  161.7630  134.0400 C   0  0  0  0  0  0  0  0  0  0  0  0
  145.4250  162.7180  134.6310 O   0  0  0  0  0  0  0  0  0  0  0  0
  145.6140  160.5330  133.7330 C   0  0  0  0  0  0  0  0  0  0  0  0
  146.9920  160.5150  133.5310 C   0  0  0  0  0  0  0  0  0  0  0  0
  147.3200  159.1900  133.3660 C   0  0  0  0  0  0  0  0  0  0  0  0
  148.5580  158.5960  133.1370 C   0  0  0  0  0  0  0  0  0  0  0  0
  148.6000  157.2000  132.9850 C   0  0  0  0  0  0  0  0  0  0  0  0
  147.4120  156.4270  133.0390 C   0  0  0  0  0  0  0  0  0  0  0  0
  147.4750  154.9260  132.9120 C   0  0  0  0  0  0  0  0  0  0  0  0
  147.5280  154.3650  134.1740 F   0  0  0  0  0  0  0  0  0  0  0  0
  146.3600  154.4440  132.2500 F   0  0  0  0  0  0  0  0  0  0  0  0
  148.5990  154.5430  132.2000 F   0  0  0  0  0  0  0  0  0  0  0  0
  146.1770  157.0670  133.2980 C   0  0  0  0  0  0  0  0  0  0  0  0
  146.1670  158.4570  133.4640 C   0  0  0  0  0  0  0  0  0  0  0  0
  145.1090  159.2670  133.6870 N   0  0  0  0  0  0  0  0  0  0  0  0
  143.7330  158.8630  133.7670 C   0  0  0  0  0  0  0  0  0  0  0  0
  143.2360  158.1510  132.8520 O   0  0  0  0  0  0  0  0  0  0  0  0
  142.9660  159.2480  134.8750 O   0  0  0  0  0  0  0  0  0  0  0  0
  141.6480  159.7200  134.8170 C   0  0  0  0  0  0  0  0  0  0  0  0
  141.0580  159.8700  133.7120 O   0  0  0  0  0  0  0  0  0  0  0  0
  140.9950  160.0310  136.0140 O   0  0  0  0  0  0  0  0  0  0  0  0
  140.8900  159.1230  137.1080 C   0  0  0  0  0  0  0  0  0  0  0  0
  140.0320  157.9560  136.7390 C   0  0  0  0  0  0  0  0  0  0  0  0
  139.1220  158.0890  135.8800 O   0  0  0  0  0  0  0  0  0  0  0  0
  140.2170  156.7290  137.3620 O   0  0  0  0  0  0  0  0  0  0  0  0
  142.8790  161.0140  133.6060 H   0  0  0  0  0  0  0  0  0  0  0  0
  147.6736  161.3781  133.5083 H   0  0  0  0  0  0  0  0  0  0  0  0
  149.4748  159.2008  133.0769 H   0  0  0  0  0  0  0  0  0  0  0  0
  149.5663  156.7002  132.8221 H   0  0  0  0  0  0  0  0  0  0  0  0
  145.2458  156.4855  133.3674 H   0  0  0  0  0  0  0  0  0  0  0  0
  141.8940  158.7633  137.3776 H   0  0  0  0  0  0  0  0  0  0  0  0
  140.4326  159.6453  137.9613 H   0  0  0  0  0  0  0  0  0  0  0  0
  1  2  1  0
  2  3  2  0
  2  4  1  0
  4  5  2  0
  5  6  1  0
  6  7  2  0
  7  8  1  0
  8  9  2  0
  9 10  1  0
 10 11  1  0
 10 12  1  0
 10 13  1  0
  9 14  1  0
 14 15  2  0
 15 16  1  0
 16 17  1  0
 17 18  2  0
 17 19  1  0
 19 20  1  0
 20 21  2  0
 20 22  1  0
 22 23  1  0
 23 24  1  0
 24 25  2  0
 24 26  1  0
 16  4  1  0
 15  6  1  0
  1 27  1  0
  5 28  1  0
  7 29  1  0
  8 30  1  0
 14 31  1  0
 23 32  1  0
 23 33  1  0
M  CHG  2   1  -1  26  -1
M  END
>  <UniqueID>  (6) 
6

>  <SMILES>  (6) 
[NH-]C(=O)c1cc2ccc(C(F)(F)F)cc2n1C(=O)OC(=O)OCC(=O)[O-]

>  <Energy>  (6) 
72.31899864754176

>  <Genealogy>  (6) 
[NH-]C(=O)c1cc2ccc(C(F)(F)F)cc2n1C(=O)OC(=O)OCC(=O)[O-] (protonated)
[NH-]C(=O)c1cc2ccc(C(F)(F)F)cc2n1C(=O)OC(=O)OCC(=O)[O-] (3D coordinates assigned)
[NH-]C(=O)c1cc2ccc(C(F)(F)F)cc2n1C(=O)OC(=O)OCC(=O)[O-] (optimized conformer: 72.31899864754176 kcal/mol)

>  <smiles>  (6) 
NC(=O)c1cc2ccc(C(F)(F)F)cc2n1C(=O)OC(=O)OCC(=O)O

>  <score_type>  (6) 
oracle

>  <origin>  (6) 
adg

>  <m_score__min__energy>  (6) 
-5.7300000000000004

>  <m_primary>  (6) 
energy

$$$$
6:0
     RDKit          3D

 41 42  0  0  0  0  0  0  0  0999 V2000
  138.7430  147.9680  129.9870 C   0  0  0  0  0  0  0  0  0  0  0  0
  140.0850  147.8110  130.6920 C   0  0  0  0  0  0  0  0  0  0  0  0
  140.6400  149.0890  130.9920 O   0  0  0  0  0  0  0  0  0  0  0  0
  140.0830  149.9760  131.9210 C   0  0  0  0  0  0  0  0  0  0  0  0
  139.1270  150.7300  131.5930 O   0  0  0  0  0  0  0  0  0  0  0  0
  140.6130  150.0230  133.2940 C   0  0  0  0  0  0  0  0  0  0  0  0
  140.2370  149.1650  134.1370 O   0  0  0  0  0  0  0  0  0  0  0  0
  141.5870  151.0870  133.7110 C   0  0  0  0  0  0  0  0  0  0  0  0
  141.3650  151.4720  135.0650 O   0  0  0  0  0  0  0  0  0  0  0  0
  141.9150  152.6250  135.6370 C   0  0  0  0  0  0  0  0  0  0  0  0
  142.8080  153.2750  135.0270 O   0  0  0  0  0  0  0  0  0  0  0  0
  141.4580  153.0660  136.9240 N   0  0  0  0  0  0  0  0  0  0  0  0
  141.0070  152.3030  137.9590 C   0  0  0  0  0  0  0  0  0  0  0  0
  141.0240  150.8260  138.0230 C   0  0  0  0  0  0  0  0  0  0  0  0
  140.2220  150.0430  137.1430 N   0  0  0  0  0  0  0  0  0  0  0  0
  141.7940  150.2460  138.8340 O   0  0  0  0  0  0  0  0  0  0  0  0
  140.6110  153.1110  139.0230 C   0  0  0  0  0  0  0  0  0  0  0  0
  140.8500  154.4010  138.6110 C   0  0  0  0  0  0  0  0  0  0  0  0
  140.6500  155.6060  139.2780 C   0  0  0  0  0  0  0  0  0  0  0  0
  140.9790  156.7950  138.6030 C   0  0  0  0  0  0  0  0  0  0  0  0
  141.4840  156.7570  137.2800 C   0  0  0  0  0  0  0  0  0  0  0  0
  141.8550  158.0340  136.5780 C   0  0  0  0  0  0  0  0  0  0  0  0
  140.6280  158.8370  136.2930 C   0  0  0  0  0  0  0  0  0  0  0  0
  140.6590  160.0930  136.3680 O   0  0  0  0  0  0  0  0  0  0  0  0
  139.4330  158.1950  135.9910 O   0  0  0  0  0  0  0  0  0  0  0  0
  141.6830  155.5150  136.6390 C   0  0  0  0  0  0  0  0  0  0  0  0
  141.3630  154.3470  137.3410 C   0  0  0  0  0  0  0  0  0  0  0  0
  137.9436  148.0615  130.7368 H   0  0  0  0  0  0  0  0  0  0  0  0
  138.7627  148.8700  129.3577 H   0  0  0  0  0  0  0  0  0  0  0  0
  138.5540  147.0858  129.3577 H   0  0  0  0  0  0  0  0  0  0  0  0
  139.9400  147.2501  131.6270 H   0  0  0  0  0  0  0  0  0  0  0  0
  140.7753  147.2683  130.0294 H   0  0  0  0  0  0  0  0  0  0  0  0
  142.6111  150.6986  133.6095 H   0  0  0  0  0  0  0  0  0  0  0  0
  141.4463  151.9669  133.0661 H   0  0  0  0  0  0  0  0  0  0  0  0
  140.5010  149.8950  136.1480 H   0  0  0  0  0  0  0  0  0  0  0  0
  140.1952  152.7858  139.9881 H   0  0  0  0  0  0  0  0  0  0  0  0
  140.2471  155.6277  140.3013 H   0  0  0  0  0  0  0  0  0  0  0  0
  140.8430  157.7633  139.1069 H   0  0  0  0  0  0  0  0  0  0  0  0
  142.5317  158.6183  137.2188 H   0  0  0  0  0  0  0  0  0  0  0  0
  142.3555  157.7914  135.6290 H   0  0  0  0  0  0  0  0  0  0  0  0
  142.0794  155.4664  135.6141 H   0  0  0  0  0  0  0  0  0  0  0  0
  1  2  1  0
  2  3  1  0
  3  4  1  0
  4  5  2  0
  4  6  1  0
  6  7  2  0
  6  8  1  0
  8  9  1  0
  9 10  1  0
 10 11  2  0
 10 12  1  0
 12 13  1  0
 13 14  1  0
 14 15  1  0
 14 16  2  0
 13 17  2  0
 17 18  1  0
 18 19  2  0
 19 20  1  0
 20 21  2  0
 21 22  1  0
 22 23  1  0
 23 24  2  0
 23 25  1  0
 21 26  1  0
 26 27  2  0
 27 12  1  0
 27 18  1  0
  1 28  1  0
  1 29  1  0
  1 30  1  0
  2 31  1  0
  2 32  1  0
  8 33  1  0
  8 34  1  0
 15 35  1  0
 17 36  1  0
 19 37  1  0
 20 38  1  0
 22 39  1  0
 22 40  1  0
 26 41  1  0
M  CHG  2  15  -1  25  -1
M  END
>  <UniqueID>  (7) 
7

>  <SMILES>  (7) 
CCOC(=O)C(=O)COC(=O)n1c(C([NH-])=O)cc2ccc(CC(=O)[O-])cc21

>  <Energy>  (7) 
69.4224855389228

>  <Genealogy>  (7) 
CCOC(=O)C(=O)COC(=O)n1c(C([NH-])=O)cc2ccc(CC(=O)[O-])cc21 (protonated)
CCOC(=O)C(=O)COC(=O)n1c(C([NH-])=O)cc2ccc(CC(=O)[O-])cc21 (3D coordinates assigned)
CCOC(=O)C(=O)COC(=O)n1c(C([NH-])=O)cc2ccc(CC(=O)[O-])cc21 (optimized conformer: 69.4224855389228 kcal/mol)

>  <smiles>  (7) 
CCOC(=O)C(=O)COC(=O)n1c(C(N)=O)cc2ccc(CC(=O)O)cc21

>  <score_type>  (7) 
oracle

>  <origin>  (7) 
adg

>  <m_score__min__energy>  (7) 
-6.5800000000000001

>  <m_primary>  (7) 
energy

$$$$
7:0
     RDKit          3D

 46 47  0  0  0  0  0  0  0  0999 V2000
  139.6220  159.3750  131.7390 C   0  0  0  0  0  0  0  0  0  0  0  0
  139.6570  159.2660  133.2680 C   0  0  0  0  0  0  0  0  0  0  0  0
  140.8080  158.3570  133.8160 C   0  0  0  0  0  0  0  0  0  0  0  0
  140.8250  156.9810  133.0560 C   0  0  0  0  0  0  0  0  0  0  0  0
  139.5190  156.1730  133.0480 C   0  0  0  0  0  0  0  0  0  0  0  0
  142.1810  159.0730  133.7160 C   0  0  0  0  0  0  0  0  0  0  0  0
  142.2590  160.4990  133.7790 C   0  0  0  0  0  0  0  0  0  0  0  0
  143.4890  161.1720  133.7330 C   0  0  0  0  0  0  0  0  0  0  0  0
  144.6460  160.4140  133.6420 C   0  0  0  0  0  0  0  0  0  0  0  0
  145.9630  160.8120  133.6180 C   0  0  0  0  0  0  0  0  0  0  0  0
  146.7020  159.6330  133.5560 C   0  0  0  0  0  0  0  0  0  0  0  0
  148.1750  159.6010  133.4340 C   0  0  0  0  0  0  0  0  0  0  0  0
  148.9570  158.9860  134.4560 N   0  0  0  0  0  0  0  0  0  0  0  0
  148.7530  160.1420  132.4560 O   0  0  0  0  0  0  0  0  0  0  0  0
  145.8740  158.5520  133.5490 N   0  0  0  0  0  0  0  0  0  0  0  0
  146.2440  157.1630  133.5670 C   0  0  0  0  0  0  0  0  0  0  0  0
  147.3550  156.8180  134.0560 O   0  0  0  0  0  0  0  0  0  0  0  0
  145.3730  156.2100  133.0220 O   0  0  0  0  0  0  0  0  0  0  0  0
  144.4690  155.4310  133.7550 C   0  0  0  0  0  0  0  0  0  0  0  0
  144.0240  155.8230  134.8690 O   0  0  0  0  0  0  0  0  0  0  0  0
  143.9760  154.1440  133.1790 C   0  0  0  0  0  0  0  0  0  0  0  0
  142.6090  154.0340  133.3620 F   0  0  0  0  0  0  0  0  0  0  0  0
  144.5990  153.0770  133.8010 F   0  0  0  0  0  0  0  0  0  0  0  0
  144.2590  154.1100  131.8270 F   0  0  0  0  0  0  0  0  0  0  0  0
  144.6170  159.0490  133.5980 C   0  0  0  0  0  0  0  0  0  0  0  0
  143.4080  158.3470  133.6610 C   0  0  0  0  0  0  0  0  0  0  0  0
  140.4950  158.0470  135.6070 P   0  0  2  0  0  0  0  0  0  0  0  0
  139.0150  157.8520  135.8510 O   0  0  0  0  0  0  0  0  0  0  0  0
  141.0240  159.3740  136.5130 O   0  0  0  0  0  0  0  0  0  0  0  0
  141.3090  156.6560  136.1260 O   0  0  0  0  0  0  0  0  0  0  0  0
  139.2974  160.3857  131.4508 H   0  0  0  0  0  0  0  0  0  0  0  0
  140.6269  159.1834  131.3346 H   0  0  0  0  0  0  0  0  0  0  0  0
  138.9166  158.6341  131.3346 H   0  0  0  0  0  0  0  0  0  0  0  0
  139.7864  160.2761  133.6838 H   0  0  0  0  0  0  0  0  0  0  0  0
  138.7095  158.7993  133.5753 H   0  0  0  0  0  0  0  0  0  0  0  0
  141.0965  157.1833  132.0094 H   0  0  0  0  0  0  0  0  0  0  0  0
  141.5432  156.3579  133.6092 H   0  0  0  0  0  0  0  0  0  0  0  0
  139.2026  155.9773  134.0832 H   0  0  0  0  0  0  0  0  0  0  0  0
  138.7369  156.7453  132.5276 H   0  0  0  0  0  0  0  0  0  0  0  0
  139.6820  155.2177  132.5276 H   0  0  0  0  0  0  0  0  0  0  0  0
  141.3311  161.0833  133.8658 H   0  0  0  0  0  0  0  0  0  0  0  0
  143.5341  162.2705  133.7682 H   0  0  0  0  0  0  0  0  0  0  0  0
  146.3496  161.8415  133.6425 H   0  0  0  0  0  0  0  0  0  0  0  0
  149.1960  157.9700  134.4110 H   0  0  0  0  0  0  0  0  0  0  0  0
  143.4037  157.2470  133.6680 H   0  0  0  0  0  0  0  0  0  0  0  0
  142.1280  156.6210  135.5710 H   0  0  0  0  0  0  0  0  0  0  0  0
  1  2  1  0
  2  3  1  0
  3  4  1  0
  4  5  1  0
  3  6  1  0
  6  7  2  0
  7  8  1  0
  8  9  2  0
  9 10  1  0
 10 11  2  0
 11 12  1  0
 12 13  1  0
 12 14  2  0
 11 15  1  0
 15 16  1  0
 16 17  2  0
 16 18  1  0
 18 19  1  0
 19 20  2  0
 19 21  1  0
 21 22  1  0
 21 23  1  0
 21 24  1  0
 15 25  1  0
 25 26  2  0
  3 27  1  0
 27 28  2  0
 27 29  1  1
 27 30  1  0
 26  6  1  0
 25  9  1  0
  1 31  1  0
  1 32  1  0
  1 33  1  0
  2 34  1  0
  2 35  1  0
  4 36  1  0
  4 37  1  0
  5 38  1  0
  5 39  1  0
  5 40  1  0
  7 41  1  0
  8 42  1  0
 10 43  1  0
 13 44  1  0
 26 45  1  0
 30 46  1  0
M  CHG  2  13  -1  29  -1
M  END
>  <UniqueID>  (8) 
8

>  <SMILES>  (8) 
CCC(CC)(c1ccc2cc(C([NH-])=O)n(C(=O)OC(=O)C(F)(F)F)c2c1)[P@](=O)([O-])O

>  <Energy>  (8) 
85.67365801071051

>  <Genealogy>  (8) 
CCC(CC)(c1ccc2cc(C([NH-])=O)n(C(=O)OC(=O)C(F)(F)F)c2c1)P(=O)([O-])O (protonated)
CCC(CC)(c1ccc2cc(C([NH-])=O)n(C(=O)OC(=O)C(F)(F)F)c2c1)[P@](=O)([O-])O (chirality)
CCC(CC)(c1ccc2cc(C([NH-])=O)n(C(=O)OC(=O)C(F)(F)F)c2c1)[P@](=O)([O-])O (3D coordinates assigned)
CCC(CC)(c1ccc2cc(C([NH-])=O)n(C(=O)OC(=O)C(F)(F)F)c2c1)[P@](=O)([O-])O (optimized conformer: 85.67365801071051 kcal/mol)

>  <smiles>  (8) 
CCC(CC)(c1ccc2cc(C(N)=O)n(C(=O)OC(=O)C(F)(F)F)c2c1)P(=O)(O)O

>  <score_type>  (8) 
oracle

>  <origin>  (8) 
adg

>  <m_score__min__energy>  (8) 
-7.6399999999999997

>  <m_primary>  (8) 
energy

$$$$
8:0
     RDKit          3D

 51 53  0  0  0  0  0  0  0  0999 V2000
  144.7010  151.4620  132.2390 N   0  0  0  0  0  0  0  0  0  0  0  0
  143.3980  151.4340  132.8240 C   0  0  0  0  0  0  0  0  0  0  0  0
  142.8820  150.3240  133.1270 O   0  0  0  0  0  0  0  0  0  0  0  0
  142.6720  152.6800  133.1430 C   0  0  0  0  0  0  0  0  0  0  0  0
  141.4280  152.9980  132.6060 C   0  0  0  0  0  0  0  0  0  0  0  0
  141.0750  154.1920  133.1930 C   0  0  0  0  0  0  0  0  0  0  0  0
  139.9340  154.9690  133.0190 C   0  0  0  0  0  0  0  0  0  0  0  0
  139.8430  156.1760  133.7320 C   0  0  0  0  0  0  0  0  0  0  0  0
  140.8990  156.5990  134.5790 C   0  0  0  0  0  0  0  0  0  0  0  0
  140.7760  157.8800  135.3660 C   0  0  0  0  0  0  0  0  0  0  0  0
  139.7600  157.7840  136.3010 F   0  0  0  0  0  0  0  0  0  0  0  0
  140.4930  158.9430  134.5270 F   0  0  0  0  0  0  0  0  0  0  0  0
  141.9690  158.1260  136.0210 F   0  0  0  0  0  0  0  0  0  0  0  0
  142.0340  155.7700  134.7450 C   0  0  0  0  0  0  0  0  0  0  0  0
  142.0890  154.5620  134.0400 C   0  0  0  0  0  0  0  0  0  0  0  0
  143.0800  153.6410  134.0190 N   0  0  0  0  0  0  0  0  0  0  0  0
  144.3530  153.7290  134.6820 C   0  0  0  0  0  0  0  0  0  0  0  0
  144.4030  154.0250  135.9070 O   0  0  0  0  0  0  0  0  0  0  0  0
  145.5270  153.4820  133.9560 O   0  0  0  0  0  0  0  0  0  0  0  0
  145.9030  154.1440  132.7810 C   0  0  0  0  0  0  0  0  0  0  0  0
  145.0380  154.5130  131.9390 O   0  0  0  0  0  0  0  0  0  0  0  0
  147.2600  154.3870  132.5550 O   0  0  0  0  0  0  0  0  0  0  0  0
  148.2360  154.4250  133.5960 C   0  0  0  0  0  0  0  0  0  0  0  0
  148.4540  153.0200  134.1760 C   0  0  0  0  0  0  0  0  0  0  0  0
  149.6010  152.3380  133.5310 N   0  0  0  0  0  0  0  0  0  0  0  0
  149.7660  152.7140  132.0980 C   0  0  0  0  0  0  0  0  0  0  0  0
  149.4860  151.5680  131.1040 C   0  0  0  0  0  0  0  0  0  0  0  0
  148.2900  150.7200  131.5510 C   0  0  0  0  0  0  0  0  0  0  0  0
  147.1190  151.4960  131.5370 O   0  0  0  0  0  0  0  0  0  0  0  0
  148.5150  150.1400  132.9640 C   0  0  0  0  0  0  0  0  0  0  0  0
  149.6170  150.8750  133.7530 C   0  0  0  0  0  0  0  0  0  0  0  0
  145.2250  152.3580  132.1320 H   0  0  0  0  0  0  0  0  0  0  0  0
  145.1780  150.5700  131.9810 H   0  0  0  0  0  0  0  0  0  0  0  0
  140.8506  152.4192  131.8701 H   0  0  0  0  0  0  0  0  0  0  0  0
  139.1275  154.6478  132.3435 H   0  0  0  0  0  0  0  0  0  0  0  0
  138.9426  156.8000  133.6322 H   0  0  0  0  0  0  0  0  0  0  0  0
  142.8550  156.0685  135.4135 H   0  0  0  0  0  0  0  0  0  0  0  0
  149.1862  154.8005  133.1885 H   0  0  0  0  0  0  0  0  0  0  0  0
  147.8790  155.0902  134.3961 H   0  0  0  0  0  0  0  0  0  0  0  0
  148.6496  153.1052  135.2551 H   0  0  0  0  0  0  0  0  0  0  0  0
  147.5483  152.4247  133.9879 H   0  0  0  0  0  0  0  0  0  0  0  0
  149.0730  153.5390  131.8765 H   0  0  0  0  0  0  0  0  0  0  0  0
  150.8214  152.9945  131.9658 H   0  0  0  0  0  0  0  0  0  0  0  0
  149.2705  151.9972  130.1144 H   0  0  0  0  0  0  0  0  0  0  0  0
  150.3740  150.9201  131.0634 H   0  0  0  0  0  0  0  0  0  0  0  0
  148.1838  149.8819  130.8465 H   0  0  0  0  0  0  0  0  0  0  0  0
  147.4010  152.4460  131.5950 H   0  0  0  0  0  0  0  0  0  0  0  0
  147.5729  150.2147  133.5268 H   0  0  0  0  0  0  0  0  0  0  0  0
  148.8409  149.0966  132.8413 H   0  0  0  0  0  0  0  0  0  0  0  0
  149.4707  150.6805  134.8257 H   0  0  0  0  0  0  0  0  0  0  0  0
  150.5872  150.4964  133.3988 H   0  0  0  0  0  0  0  0  0  0  0  0
  1  2  1  0
  2  3  2  0
  2  4  1  0
  4  5  2  0
  5  6  1  0
  6  7  2  0
  7  8  1  0
  8  9  2  0
  9 10  1  0
 10 11  1  0
 10 12  1  0
 10 13  1  0
  9 14  1  0
 14 15  2  0
 15 16  1  0
 16 17  1  0
 17 18  2  0
 17 19  1  0
 19 20  1  0
 20 21  2  0
 20 22  1  0
 22 23  1  0
 23 24  1  0
 24 25  1  0
 25 26  1  0
 26 27  1  0
 27 28  1  0
 28 29  1  0
 28 30  1  0
 30 31  1  0
 16  4  1  0
 31 25  1  0
 15  6  1  0
  1 32  1  0
  1 33  1  0
  5 34  1  0
  7 35  1  0
  8 36  1  0
 14 37  1  0
 23 38  1  0
 23 39  1  0
 24 40  1  0
 24 41  1  0
 26 42  1  0
 26 43  1  0
 27 44  1  0
 27 45  1  0
 28 46  1  0
 29 47  1  0
 30 48  1  0
 30 49  1  0
 31 50  1  0
 31 51  1  0
M  END
>  <UniqueID>  (9) 
9

>  <SMILES>  (9) 
NC(=O)c1cc2ccc(C(F)(F)F)cc2n1C(=O)OC(=O)OCCN1CCC(O)CC1

>  <Energy>  (9) 
101.32517479219415

>  <Genealogy>  (9) 
NC(=O)c1cc2ccc(C(F)(F)F)cc2n1C(=O)OC(=O)OCCN1CCC(O)CC1 (3D coordinates assigned)
NC(=O)c1cc2ccc(C(F)(F)F)cc2n1C(=O)OC(=O)OCCN1CCC(O)CC1 (nonaromatic ring conformer: 101.32517479219415 kcal/mol)

>  <smiles>  (9) 
NC(=O)c1cc2ccc(C(F)(F)F)cc2n1C(=O)OC(=O)OCCN1CCC(O)CC1

>  <score_type>  (9) 
oracle

>  <origin>  (9) 
adg

>  <m_score__min__energy>  (9) 
-7.1200000000000001

>  <m_primary>  (9) 
energy

$$$$
9:0
     RDKit          3D

 41 42  0  0  0  0  0  0  0  0999 V2000
  149.2030  160.6390  130.6010 C   0  0  0  0  0  0  0  0  0  0  0  0
  149.5680  159.4810  131.5220 C   0  0  0  0  0  0  0  0  0  0  0  0
  148.5390  158.4360  131.4480 N   0  0  0  0  0  0  0  0  0  0  0  0
  148.4390  157.6800  132.7050 C   0  0  0  0  0  0  0  0  0  0  0  0
  147.9260  158.5700  133.8470 C   0  0  0  0  0  0  0  0  0  0  0  0
  146.5510  159.0370  133.6050 N   0  0  0  0  0  0  0  0  0  0  0  0
  146.3530  160.4720  133.3570 C   0  0  0  0  0  0  0  0  0  0  0  0
  145.4090  158.1330  133.6180 C   0  0  0  0  0  0  0  0  0  0  0  0
  145.5750  156.7380  133.8560 C   0  0  0  0  0  0  0  0  0  0  0  0
  144.4760  155.8640  133.8610 C   0  0  0  0  0  0  0  0  0  0  0  0
  143.2160  156.3960  133.6230 C   0  0  0  0  0  0  0  0  0  0  0  0
  141.9870  155.7790  133.5940 C   0  0  0  0  0  0  0  0  0  0  0  0
  141.0720  156.7930  133.3180 C   0  0  0  0  0  0  0  0  0  0  0  0
  139.6260  156.5600  133.1030 C   0  0  0  0  0  0  0  0  0  0  0  0
  138.7030  157.6510  133.1060 N   0  0  0  0  0  0  0  0  0  0  0  0
  139.1900  155.3900  132.9460 O   0  0  0  0  0  0  0  0  0  0  0  0
  141.7110  157.9890  133.1830 N   0  0  0  0  0  0  0  0  0  0  0  0
  141.1130  159.2770  132.9610 C   0  0  0  0  0  0  0  0  0  0  0  0
  140.5070  159.5220  131.8850 O   0  0  0  0  0  0  0  0  0  0  0  0
  141.2100  160.2720  133.9260 O   0  0  0  0  0  0  0  0  0  0  0  0
  143.0250  157.7280  133.3730 C   0  0  0  0  0  0  0  0  0  0  0  0
  144.0980  158.6260  133.3790 C   0  0  0  0  0  0  0  0  0  0  0  0
  148.9268  161.5154  131.2057 H   0  0  0  0  0  0  0  0  0  0  0  0
  150.0660  160.8887  129.9663 H   0  0  0  0  0  0  0  0  0  0  0  0
  148.3528  160.3487  129.9663 H   0  0  0  0  0  0  0  0  0  0  0  0
  150.5364  159.0610  131.2127 H   0  0  0  0  0  0  0  0  0  0  0  0
  149.6341  159.8496  132.5563 H   0  0  0  0  0  0  0  0  0  0  0  0
  148.8160  157.7720  130.6860 H   0  0  0  0  0  0  0  0  0  0  0  0
  147.7433  156.8397  132.5643 H   0  0  0  0  0  0  0  0  0  0  0  0
  149.4408  157.3124  132.9719 H   0  0  0  0  0  0  0  0  0  0  0  0
  147.9459  157.9933  134.7835 H   0  0  0  0  0  0  0  0  0  0  0  0
  148.5792  159.4528  133.9104 H   0  0  0  0  0  0  0  0  0  0  0  0
  146.2797  161.0034  134.3173 H   0  0  0  0  0  0  0  0  0  0  0  0
  147.2053  160.8661  132.7840 H   0  0  0  0  0  0  0  0  0  0  0  0
  145.4258  160.6206  132.7840 H   0  0  0  0  0  0  0  0  0  0  0  0
  146.5832  156.3381  134.0393 H   0  0  0  0  0  0  0  0  0  0  0  0
  144.6096  154.7883  134.0482 H   0  0  0  0  0  0  0  0  0  0  0  0
  141.7722  154.7122  133.7545 H   0  0  0  0  0  0  0  0  0  0  0  0
  139.0320  158.6390  133.1800 H   0  0  0  0  0  0  0  0  0  0  0  0
  137.6820  157.4730  132.9920 H   0  0  0  0  0  0  0  0  0  0  0  0
  143.9290  159.6983  133.2012 H   0  0  0  0  0  0  0  0  0  0  0  0
  1  2  1  0
  2  3  1  0
  3  4  1  0
  4  5  1  0
  5  6  1  0
  6  7  1  0
  6  8  1  0
  8  9  2  0
  9 10  1  0
 10 11  2  0
 11 12  1  0
 12 13  2  0
 13 14  1  0
 14 15  1  0
 14 16  2  0
 13 17  1  0
 17 18  1  0
 18 19  2  0
 18 20  1  0
 17 21  1  0
 21 22  2  0
 22  8  1  0
 21 11  1  0
  1 23  1  0
  1 24  1  0
  1 25  1  0
  2 26  1  0
  2 27  1  0
  3 28  1  0
  4 29  1  0
  4 30  1  0
  5 31  1  0
  5 32  1  0
  7 33  1  0
  7 34  1  0
  7 35  1  0
  9 36  1  0
 10 37  1  0
 12 38  1  0
 15 39  1  0
 15 40  1  0
 22 41  1  0
M  CHG  1  20  -1
M  END
>  <UniqueID>  (10) 
10

>  <SMILES>  (10) 
CCNCCN(C)c1ccc2cc(C(N)=O)n(C(=O)[O-])c2c1

>  <Energy>  (10) 
77.56007677522459

>  <Genealogy>  (10) 
CCNCCN(C)c1ccc2cc(C(N)=O)n(C(=O)[O-])c2c1 (protonated)
CCNCCN(C)c1ccc2cc(C(N)=O)n(C(=O)[O-])c2c1 (3D coordinates assigned)
CCNCCN(C)c1ccc2cc(C(N)=O)n(C(=O)[O-])c2c1 (optimized conformer: 77.56007677522459 kcal/mol)

>  <smiles>  (10) 
CCNCCN(C)c1ccc2cc(C(N)=O)n(C(=O)O)c2c1

>  <score_type>  (10) 
oracle

>  <origin>  (10) 
adg

>  <m_score__min__energy>  (10) 
-6.9299999999999997

>  <m_primary>  (10) 
energy

$$$$
10:0
     RDKit          3D

 53 54  0  0  0  0  0  0  0  0999 V2000
  144.3960  160.1150  133.7370 C   0  0  0  0  0  0  0  0  0  0  0  0
  145.4950  159.2470  133.5410 O   0  0  0  0  0  0  0  0  0  0  0  0
  146.2890  159.6980  132.4600 C   0  0  0  0  0  0  0  0  0  0  0  0
  147.5700  160.3850  132.9600 C   0  0  0  0  0  0  0  0  0  0  0  0
  148.2780  159.5350  133.8410 O   0  0  0  0  0  0  0  0  0  0  0  0
  148.4940  158.2660  133.2510 C   0  0  0  0  0  0  0  0  0  0  0  0
  147.8910  157.2230  134.1350 C   0  0  0  0  0  0  0  0  0  0  0  0
  148.4710  156.8890  135.2000 O   0  0  0  0  0  0  0  0  0  0  0  0
  146.6640  156.6600  133.7790 O   0  0  0  0  0  0  0  0  0  0  0  0
  146.5120  155.8000  132.6570 C   0  0  0  0  0  0  0  0  0  0  0  0
  145.2610  155.1320  132.7510 O   0  0  0  0  0  0  0  0  0  0  0  0
  145.1020  153.9270  133.4420 C   0  0  0  0  0  0  0  0  0  0  0  0
  145.5010  152.8340  132.9230 O   0  0  0  0  0  0  0  0  0  0  0  0
  144.4910  153.9250  134.7370 N   0  0  0  0  0  0  0  0  0  0  0  0
  145.3100  154.1310  135.8920 C   0  0  0  0  0  0  0  0  0  0  0  0
  144.9470  153.5570  137.1460 N   0  0  0  0  0  0  0  0  0  0  0  0
  146.3640  154.8070  135.7960 O   0  0  0  0  0  0  0  0  0  0  0  0
  143.0580  153.8460  134.8690 C   0  0  0  0  0  0  0  0  0  0  0  0
  142.3910  153.0740  134.1270 O   0  0  0  0  0  0  0  0  0  0  0  0
  142.3710  154.6630  135.8270 N   0  0  0  0  0  0  0  0  0  0  0  0
  142.2850  156.0250  135.8520 C   0  0  0  0  0  0  0  0  0  0  0  0
  142.8960  156.9290  134.8480 C   0  0  0  0  0  0  0  0  0  0  0  0
  144.2270  156.7170  134.3600 N   0  0  0  0  0  0  0  0  0  0  0  0
  142.2380  157.9060  134.3940 O   0  0  0  0  0  0  0  0  0  0  0  0
  141.6280  156.4390  137.0140 C   0  0  0  0  0  0  0  0  0  0  0  0
  141.3200  155.2810  137.6940 C   0  0  0  0  0  0  0  0  0  0  0  0
  140.6900  155.0990  138.9230 C   0  0  0  0  0  0  0  0  0  0  0  0
  140.5290  153.7820  139.3990 C   0  0  0  0  0  0  0  0  0  0  0  0
  141.0180  152.6860  138.6470 C   0  0  0  0  0  0  0  0  0  0  0  0
  140.8440  151.2830  139.1410 C   0  0  0  0  0  0  0  0  0  0  0  0
  141.6480  152.9070  137.4050 C   0  0  0  0  0  0  0  0  0  0  0  0
  141.7780  154.2270  136.9540 C   0  0  0  0  0  0  0  0  0  0  0  0
  144.2238  160.2510  134.8149 H   0  0  0  0  0  0  0  0  0  0  0  0
  144.6113  161.0894  133.2743 H   0  0  0  0  0  0  0  0  0  0  0  0
  143.4979  159.6798  133.2743 H   0  0  0  0  0  0  0  0  0  0  0  0
  146.5647  158.8369  131.8336 H   0  0  0  0  0  0  0  0  0  0  0  0
  145.7056  160.4284  131.8802 H   0  0  0  0  0  0  0  0  0  0  0  0
  148.2101  160.6275  132.0989 H   0  0  0  0  0  0  0  0  0  0  0  0
  147.2934  161.3035  133.4984 H   0  0  0  0  0  0  0  0  0  0  0  0
  148.0187  158.2321  132.2596 H   0  0  0  0  0  0  0  0  0  0  0  0
  149.5724  158.0834  133.1343 H   0  0  0  0  0  0  0  0  0  0  0  0
  146.5446  156.3929  131.7310 H   0  0  0  0  0  0  0  0  0  0  0  0
  147.3270  155.0614  132.6422 H   0  0  0  0  0  0  0  0  0  0  0  0
  144.4760  154.1470  137.8740 H   0  0  0  0  0  0  0  0  0  0  0  0
  144.8570  155.9890  134.7540 H   0  0  0  0  0  0  0  0  0  0  0  0
  144.5550  157.2830  133.5510 H   0  0  0  0  0  0  0  0  0  0  0  0
  141.4041  157.4713  137.3209 H   0  0  0  0  0  0  0  0  0  0  0  0
  140.3283  155.9590  139.5058 H   0  0  0  0  0  0  0  0  0  0  0  0
  140.0214  153.6047  140.3586 H   0  0  0  0  0  0  0  0  0  0  0  0
  140.8435  151.2790  140.2410 H   0  0  0  0  0  0  0  0  0  0  0  0
  139.8890  150.8803  138.7724 H   0  0  0  0  0  0  0  0  0  0  0  0
  141.6717  150.6592  138.7724 H   0  0  0  0  0  0  0  0  0  0  0  0
  142.0272  152.0656  136.8064 H   0  0  0  0  0  0  0  0  0  0  0  0
  1  2  1  0
  2  3  1  0
  3  4  1  0
  4  5  1  0
  5  6  1  0
  6  7  1  0
  7  8  2  0
  7  9  1  0
  9 10  1  0
 10 11  1  0
 11 12  1  0
 12 13  2  0
 12 14  1  0
 14 15  1  0
 15 16  1  0
 15 17  2  0
 14 18  1  0
 18 19  2  0
 18 20  1  0
 20 21  1  0
 21 22  1  0
 22 23  1  0
 22 24  2  0
 21 25  2  0
 25 26  1  0
 26 27  2  0
 27 28  1  0
 28 29  2  0
 29 30  1  0
 29 31  1  0
 31 32  2  0
 32 20  1  0
 32 26  1  0
  1 33  1  0
  1 34  1  0
  1 35  1  0
  3 36  1  0
  3 37  1  0
  4 38  1  0
  4 39  1  0
  6 40  1  0
  6 41  1  0
 10 42  1  0
 10 43  1  0
 16 44  1  0
 23 45  1  0
 23 46  1  0
 25 47  1  0
 27 48  1  0
 28 49  1  0
 30 50  1  0
 30 51  1  0
 30 52  1  0
 31 53  1  0
M  CHG  1  16  -1
M  END
>  <UniqueID>  (11) 
11

>  <SMILES>  (11) 
COCCOCC(=O)OCOC(=O)N(C([NH-])=O)C(=O)n1c(C(N)=O)cc2ccc(C)cc21

>  <Energy>  (11) 
101.17462499015993

>  <Genealogy>  (11) 
COCCOCC(=O)OCOC(=O)N(C([NH-])=O)C(=O)n1c(C(N)=O)cc2ccc(C)cc21 (protonated)
COCCOCC(=O)OCOC(=O)N(C([NH-])=O)C(=O)n1c(C(N)=O)cc2ccc(C)cc21 (3D coordinates assigned)
COCCOCC(=O)OCOC(=O)N(C([NH-])=O)C(=O)n1c(C(N)=O)cc2ccc(C)cc21 (optimized conformer: 101.17462499015993 kcal/mol)

>  <smiles>  (11) 
COCCOCC(=O)OCOC(=O)N(C(N)=O)C(=O)n1c(C(N)=O)cc2ccc(C)cc21

>  <score_type>  (11) 
oracle

>  <origin>  (11) 
adg

>  <m_score__min__energy>  (11) 
-6.8099999999999996

>  <m_primary>  (11) 
energy

$$$$
11:0
     RDKit          3D

 38 39  0  0  0  0  0  0  0  0999 V2000
  138.5120  158.2370  133.1140 C   0  0  0  0  0  0  0  0  0  0  0  0
  139.7470  157.4610  132.9640 N   0  0  0  0  0  0  0  0  0  0  0  0
  139.7120  155.9960  133.0480 C   0  0  0  0  0  0  0  0  0  0  0  0
  140.9910  158.1580  132.7330 C   0  0  0  0  0  0  0  0  0  0  0  0
  140.9880  159.4140  132.6120 O   0  0  0  0  0  0  0  0  0  0  0  0
  142.2910  157.4080  132.6000 C   0  0  0  0  0  0  0  0  0  0  0  0
  143.0470  157.4560  133.8460 N   0  0  0  0  0  0  0  0  0  0  0  0
  143.5920  158.6660  134.3780 C   0  0  0  0  0  0  0  0  0  0  0  0
  142.9530  159.3160  135.2500 O   0  0  0  0  0  0  0  0  0  0  0  0
  144.8540  159.1560  133.8980 N   0  0  0  0  0  0  0  0  0  0  0  0
  145.2400  160.4540  133.7390 C   0  0  0  0  0  0  0  0  0  0  0  0
  144.3670  161.6400  133.8530 C   0  0  0  0  0  0  0  0  0  0  0  0
  142.9670  161.5450  133.6050 N   0  0  0  0  0  0  0  0  0  0  0  0
  144.8710  162.7620  134.1210 O   0  0  0  0  0  0  0  0  0  0  0  0
  146.5780  160.5220  133.3550 C   0  0  0  0  0  0  0  0  0  0  0  0
  147.0010  159.2160  133.2720 C   0  0  0  0  0  0  0  0  0  0  0  0
  148.2460  158.6990  132.9280 C   0  0  0  0  0  0  0  0  0  0  0  0
  148.4070  157.3040  132.9430 C   0  0  0  0  0  0  0  0  0  0  0  0
  147.3370  156.4530  133.3250 C   0  0  0  0  0  0  0  0  0  0  0  0
  147.5110  154.9560  133.2940 C   0  0  0  0  0  0  0  0  0  0  0  0
  147.5890  154.4440  134.5780 F   0  0  0  0  0  0  0  0  0  0  0  0
  148.6730  154.6130  132.6210 F   0  0  0  0  0  0  0  0  0  0  0  0
  146.4310  154.3850  132.6470 F   0  0  0  0  0  0  0  0  0  0  0  0
  146.0810  157.0170  133.6480 C   0  0  0  0  0  0  0  0  0  0  0  0
  145.9440  158.4100  133.6060 C   0  0  0  0  0  0  0  0  0  0  0  0
  138.2930  158.3746  134.1832 H   0  0  0  0  0  0  0  0  0  0  0  0
  138.6361  159.2198  132.6357 H   0  0  0  0  0  0  0  0  0  0  0  0
  137.6804  157.6988  132.6357 H   0  0  0  0  0  0  0  0  0  0  0  0
  139.7047  155.6894  134.1044 H   0  0  0  0  0  0  0  0  0  0  0  0
  138.8047  155.6218  132.5513 H   0  0  0  0  0  0  0  0  0  0  0  0
  140.6004  155.5789  132.5513 H   0  0  0  0  0  0  0  0  0  0  0  0
  142.0777  156.3587  132.3479 H   0  0  0  0  0  0  0  0  0  0  0  0
  142.8897  157.8787  131.8063 H   0  0  0  0  0  0  0  0  0  0  0  0
  142.4850  160.6190  133.5920 H   0  0  0  0  0  0  0  0  0  0  0  0
  147.1702  161.4282  133.1597 H   0  0  0  0  0  0  0  0  0  0  0  0
  149.0789  159.3627  132.6526 H   0  0  0  0  0  0  0  0  0  0  0  0
  149.3739  156.8655  132.6553 H   0  0  0  0  0  0  0  0  0  0  0  0
  145.2312  156.3762  133.9258 H   0  0  0  0  0  0  0  0  0  0  0  0
  1  2  1  0
  2  3  1  0
  2  4  1  0
  4  5  2  0
  4  6  1  0
  6  7  1  0
  7  8  1  0
  8  9  2  0
  8 10  1  0
 10 11  1  0
 11 12  1  0
 12 13  1  0
 12 14  2  0
 11 15  2  0
 15 16  1  0
 16 17  2  0
 17 18  1  0
 18 19  2  0
 19 20  1  0
 20 21  1  0
 20 22  1  0
 20 23  1  0
 19 24  1  0
 24 25  2  0
 25 10  1  0
 25 16  1  0
  1 26  1  0
  1 27  1  0
  1 28  1  0
  3 29  1  0
  3 30  1  0
  3 31  1  0
  6 32  1  0
  6 33  1  0
 13 34  1  0
 15 35  1  0
 17 36  1  0
 18 37  1  0
 24 38  1  0
M  CHG  2   7  -1  13  -1
M  END
>  <UniqueID>  (12) 
12

>  <SMILES>  (12) 
CN(C)C(=O)C[N-]C(=O)n1c(C([NH-])=O)cc2ccc(C(F)(F)F)cc21

>  <Energy>  (12) 
73.40084250747115

>  <Genealogy>  (12) 
CN(C)C(=O)C[N-]C(=O)n1c(C([NH-])=O)cc2ccc(C(F)(F)F)cc21 (protonated)
CN(C)C(=O)C[N-]C(=O)n1c(C([NH-])=O)cc2ccc(C(F)(F)F)cc21 (3D coordinates assigned)
CN(C)C(=O)C[N-]C(=O)n1c(C([NH-])=O)cc2ccc(C(F)(F)F)cc21 (optimized conformer: 73.40084250747115 kcal/mol)

>  <smiles>  (12) 
CN(C)C(=O)CNC(=O)n1c(C(N)=O)cc2ccc(C(F)(F)F)cc21

>  <score_type>  (12) 
oracle

>  <origin>  (12) 
adg

>  <m_score__min__energy>  (12) 
-6.3899999999999997

>  <m_primary>  (12) 
energy

$$$$
12:0
     RDKit          3D

 43 44  0  0  0  0  0  0  0  0999 V2000
  146.7660  153.1230  133.0380 C   0  0  0  0  0  0  0  0  0  0  0  0
  148.1120  153.5390  133.6410 C   0  0  1  0  0  0  0  0  0  0  0  0
  149.1840  153.6290  132.5490 C   0  0  0  0  0  0  0  0  0  0  0  0
  149.5170  154.9680  132.3000 O   0  0  0  0  0  0  0  0  0  0  0  0
  147.9890  154.8110  134.2810 O   0  0  0  0  0  0  0  0  0  0  0  0
  146.8380  155.6030  134.2070 C   0  0  0  0  0  0  0  0  0  0  0  0
  145.9980  155.6040  135.1470 O   0  0  0  0  0  0  0  0  0  0  0  0
  146.6170  156.4490  133.0260 C   0  0  0  0  0  0  0  0  0  0  0  0
  146.6060  155.9250  131.8800 O   0  0  0  0  0  0  0  0  0  0  0  0
  146.4190  157.8660  133.1610 N   0  0  0  0  0  0  0  0  0  0  0  0
  147.3220  158.8560  132.9160 C   0  0  0  0  0  0  0  0  0  0  0  0
  148.7470  158.6450  132.5670 C   0  0  0  0  0  0  0  0  0  0  0  0
  149.1610  157.4890  131.8380 N   0  0  0  0  0  0  0  0  0  0  0  0
  149.6110  159.4990  132.8970 O   0  0  0  0  0  0  0  0  0  0  0  0
  146.7310  160.1060  133.1060 C   0  0  0  0  0  0  0  0  0  0  0  0
  145.4290  159.8440  133.4690 C   0  0  0  0  0  0  0  0  0  0  0  0
  144.3880  160.7160  133.7630 C   0  0  0  0  0  0  0  0  0  0  0  0
  143.1360  160.1680  134.0830 C   0  0  0  0  0  0  0  0  0  0  0  0
  142.9300  158.7580  134.0930 C   0  0  0  0  0  0  0  0  0  0  0  0
  141.6300  158.1980  134.4180 N   0  0  0  0  0  0  0  0  0  0  0  0
  140.7920  157.5980  133.3710 C   0  0  0  0  0  0  0  0  0  0  0  0
  141.1240  158.2340  135.7960 C   0  0  0  0  0  0  0  0  0  0  0  0
  144.0240  157.9100  133.7790 C   0  0  0  0  0  0  0  0  0  0  0  0
  145.2650  158.4860  133.4910 C   0  0  0  0  0  0  0  0  0  0  0  0
  146.0541  152.9030  133.8471 H   0  0  0  0  0  0  0  0  0  0  0  0
  146.3737  153.9418  132.4170 H   0  0  0  0  0  0  0  0  0  0  0  0
  146.9041  152.2256  132.4170 H   0  0  0  0  0  0  0  0  0  0  0  0
  148.4093  152.7795  134.3791 H   0  0  0  0  0  0  0  0  0  0  0  0
  150.0830  153.0871  132.8781 H   0  0  0  0  0  0  0  0  0  0  0  0
  148.7901  153.1815  131.6246 H   0  0  0  0  0  0  0  0  0  0  0  0
  148.6700  155.4840  132.3310 H   0  0  0  0  0  0  0  0  0  0  0  0
  150.1630  157.3780  131.5610 H   0  0  0  0  0  0  0  0  0  0  0  0
  148.4940  156.7260  131.5930 H   0  0  0  0  0  0  0  0  0  0  0  0
  147.2051  161.0918  132.9902 H   0  0  0  0  0  0  0  0  0  0  0  0
  144.5407  161.8052  133.7455 H   0  0  0  0  0  0  0  0  0  0  0  0
  142.2996  160.8384  134.3302 H   0  0  0  0  0  0  0  0  0  0  0  0
  139.9819  157.0180  133.8372 H   0  0  0  0  0  0  0  0  0  0  0  0
  140.3605  158.3937  132.7459 H   0  0  0  0  0  0  0  0  0  0  0  0
  141.4062  156.9331  132.7459 H   0  0  0  0  0  0  0  0  0  0  0  0
  141.9684  158.1739  136.4984 H   0  0  0  0  0  0  0  0  0  0  0  0
  140.5760  159.1734  135.9610 H   0  0  0  0  0  0  0  0  0  0  0  0
  140.4485  157.3816  135.9610 H   0  0  0  0  0  0  0  0  0  0  0  0
  143.8976  156.8174  133.7625 H   0  0  0  0  0  0  0  0  0  0  0  0
  1  2  1  0
  2  3  1  0
  3  4  1  0
  2  5  1  0
  5  6  1  0
  6  7  2  0
  6  8  1  0
  8  9  2  0
  8 10  1  0
 10 11  1  0
 11 12  1  0
 12 13  1  0
 12 14  2  0
 11 15  2  0
 15 16  1  0
 16 17  2  0
 17 18  1  0
 18 19  2  0
 19 20  1  0
 20 21  1  0
 20 22  1  0
 19 23  1  0
 23 24  2  0
 24 10  1  0
 24 16  1  0
  1 25  1  0
  1 26  1  0
  1 27  1  0
  2 28  1  1
  3 29  1  0
  3 30  1  0
  4 31  1  0
 13 32  1  0
 13 33  1  0
 15 34  1  0
 17 35  1  0
 18 36  1  0
 21 37  1  0
 21 38  1  0
 21 39  1  0
 22 40  1  0
 22 41  1  0
 22 42  1  0
 23 43  1  0
M  END
>  <UniqueID>  (13) 
13

>  <SMILES>  (13) 
C[C@@H](CO)OC(=O)C(=O)n1c(C(N)=O)cc2ccc(N(C)C)cc21

>  <Energy>  (13) 
76.72165394596544

>  <Genealogy>  (13) 
C[C@@H](CO)OC(=O)C(=O)n1c(C(N)=O)cc2ccc(N(C)C)cc21 (chirality)
C[C@@H](CO)OC(=O)C(=O)n1c(C(N)=O)cc2ccc(N(C)C)cc21 (3D coordinates assigned)
C[C@@H](CO)OC(=O)C(=O)n1c(C(N)=O)cc2ccc(N(C)C)cc21 (optimized conformer: 76.72165394596544 kcal/mol)

>  <smiles>  (13) 
CC(CO)OC(=O)C(=O)n1c(C(N)=O)cc2ccc(N(C)C)cc21

>  <score_type>  (13) 
oracle

>  <origin>  (13) 
adg

>  <m_score__min__energy>  (13) 
-6.04

>  <m_primary>  (13) 
energy

$$$$
13:0
     RDKit          3D

 32 33  0  0  0  0  0  0  0  0999 V2000
  144.0400  155.2400  135.4960 C   0  0  0  0  0  0  0  0  0  0  0  0
  145.2970  154.5330  135.2370 N   0  0  0  0  0  0  0  0  0  0  0  0
  145.8940  153.7360  136.2790 C   0  0  0  0  0  0  0  0  0  0  0  0
  147.0960  153.3680  136.1900 O   0  0  0  0  0  0  0  0  0  0  0  0
  145.1650  153.3820  137.4070 O   0  0  0  0  0  0  0  0  0  0  0  0
  145.8210  154.4960  133.8960 C   0  0  0  0  0  0  0  0  0  0  0  0
  145.3400  153.6860  133.0580 O   0  0  0  0  0  0  0  0  0  0  0  0
  146.8660  155.3950  133.4860 N   0  0  0  0  0  0  0  0  0  0  0  0
  148.1180  155.0730  133.0550 C   0  0  0  0  0  0  0  0  0  0  0  0
  148.6980  153.7100  133.0590 C   0  0  0  0  0  0  0  0  0  0  0  0
  147.9800  152.6080  133.6170 N   0  0  0  0  0  0  0  0  0  0  0  0
  149.8320  153.5050  132.5480 O   0  0  0  0  0  0  0  0  0  0  0  0
  148.8130  156.2210  132.6790 C   0  0  0  0  0  0  0  0  0  0  0  0
  147.9380  157.2630  132.8890 C   0  0  0  0  0  0  0  0  0  0  0  0
  148.0990  158.6270  132.6640 C   0  0  0  0  0  0  0  0  0  0  0  0
  147.0110  159.4730  132.9430 C   0  0  0  0  0  0  0  0  0  0  0  0
  145.7960  158.9440  133.4410 C   0  0  0  0  0  0  0  0  0  0  0  0
  144.6260  159.8500  133.6880 C   0  0  0  0  0  0  0  0  0  0  0  0
  145.0810  161.0810  134.1220 F   0  0  0  0  0  0  0  0  0  0  0  0
  145.6640  157.5520  133.6410 C   0  0  0  0  0  0  0  0  0  0  0  0
  146.7690  156.7360  133.3720 C   0  0  0  0  0  0  0  0  0  0  0  0
  143.8852  155.3271  136.5816 H   0  0  0  0  0  0  0  0  0  0  0  0
  144.0858  156.2447  135.0504 H   0  0  0  0  0  0  0  0  0  0  0  0
  143.2053  154.6790  135.0504 H   0  0  0  0  0  0  0  0  0  0  0  0
  148.3840  151.6470  133.5780 H   0  0  0  0  0  0  0  0  0  0  0  0
  147.0690  152.7430  134.1070 H   0  0  0  0  0  0  0  0  0  0  0  0
  149.8423  156.2817  132.2958 H   0  0  0  0  0  0  0  0  0  0  0  0
  149.0475  159.0305  132.2800 H   0  0  0  0  0  0  0  0  0  0  0  0
  147.1048  160.5557  132.7727 H   0  0  0  0  0  0  0  0  0  0  0  0
  144.0572  159.9772  132.7551 H   0  0  0  0  0  0  0  0  0  0  0  0
  143.9750  159.4076  134.4564 H   0  0  0  0  0  0  0  0  0  0  0  0
  144.7176  157.1205  133.9988 H   0  0  0  0  0  0  0  0  0  0  0  0
  1  2  1  0
  2  3  1  0
  3  4  2  0
  3  5  1  0
  2  6  1  0
  6  7  2  0
  6  8  1  0
  8  9  1  0
  9 10  1  0
 10 11  1  0
 10 12  2  0
  9 13  2  0
 13 14  1  0
 14 15  2  0
 15 16  1  0
 16 17  2  0
 17 18  1  0
 18 19  1  0
 17 20  1  0
 20 21  2  0
 21  8  1  0
 21 14  1  0
  1 22  1  0
  1 23  1  0
  1 24  1  0
 11 25  1  0
 11 26  1  0
 13 27  1  0
 15 28  1  0
 16 29  1  0
 18 30  1  0
 18 31  1  0
 20 32  1  0
M  CHG  1   5  -1
M  END
>  <UniqueID>  (14) 
14

>  <SMILES>  (14) 
CN(C(=O)[O-])C(=O)n1c(C(N)=O)cc2ccc(CF)cc21

>  <Energy>  (14) 
72.01377635217142

>  <Genealogy>  (14) 
CN(C(=O)[O-])C(=O)n1c(C(N)=O)cc2ccc(CF)cc21 (protonated)
CN(C(=O)[O-])C(=O)n1c(C(N)=O)cc2ccc(CF)cc21 (3D coordinates assigned)
CN(C(=O)[O-])C(=O)n1c(C(N)=O)cc2ccc(CF)cc21 (optimized conformer: 72.01377635217142 kcal/mol)

>  <smiles>  (14) 
CN(C(=O)O)C(=O)n1c(C(N)=O)cc2ccc(CF)cc21

>  <score_type>  (14) 
oracle

>  <origin>  (14) 
adg

>  <m_score__min__energy>  (14) 
-5.7699999999999996

>  <m_primary>  (14) 
energy

$$$$
14:0
     RDKit          3D

 43 44  0  0  0  0  0  0  0  0999 V2000
  138.5710  158.2400  132.7970 C   0  0  0  0  0  0  0  0  0  0  0  0
  139.1280  156.7270  133.6370 S   0  0  0  0  0  0  0  0  0  0  0  0
  140.6530  157.4560  134.2130 N   0  0  0  0  0  0  0  0  0  0  0  0
  141.7320  157.5900  133.2530 C   0  0  0  0  0  0  0  0  0  0  0  0
  141.6230  158.3770  132.2750 O   0  0  0  0  0  0  0  0  0  0  0  0
  142.9390  156.8270  133.3930 N   0  0  0  0  0  0  0  0  0  0  0  0
  144.2170  157.2970  133.4300 C   0  0  0  0  0  0  0  0  0  0  0  0
  144.6100  158.7220  133.4250 C   0  0  0  0  0  0  0  0  0  0  0  0
  143.6100  159.7350  133.3620 N   0  0  0  0  0  0  0  0  0  0  0  0
  145.8250  159.0550  133.4670 O   0  0  0  0  0  0  0  0  0  0  0  0
  145.1220  156.2390  133.5000 C   0  0  0  0  0  0  0  0  0  0  0  0
  144.3500  155.0970  133.4900 C   0  0  0  0  0  0  0  0  0  0  0  0
  144.7270  153.7580  133.5080 C   0  0  0  0  0  0  0  0  0  0  0  0
  143.7110  152.7880  133.4530 C   0  0  0  0  0  0  0  0  0  0  0  0
  142.3450  153.1680  133.3920 C   0  0  0  0  0  0  0  0  0  0  0  0
  141.2690  152.1190  133.2770 C   0  0  0  0  0  0  0  0  0  0  0  0
  140.0880  152.7190  132.8850 F   0  0  0  0  0  0  0  0  0  0  0  0
  141.6200  151.1590  132.3440 F   0  0  0  0  0  0  0  0  0  0  0  0
  141.0710  151.4870  134.4930 F   0  0  0  0  0  0  0  0  0  0  0  0
  142.0070  154.5400  133.3460 C   0  0  0  0  0  0  0  0  0  0  0  0
  143.0370  155.4820  133.4180 C   0  0  0  0  0  0  0  0  0  0  0  0
  140.8140  157.9050  135.6260 C   0  0  0  0  0  0  0  0  0  0  0  0
  142.0900  157.2600  136.2150 C   0  0  0  0  0  0  0  0  0  0  0  0
  139.6110  157.4860  136.5020 C   0  0  0  0  0  0  0  0  0  0  0  0
  140.8900  159.4270  135.6830 C   0  0  0  0  0  0  0  0  0  0  0  0
  141.3200  160.1960  134.5560 N   0  0  0  0  0  0  0  0  0  0  0  0
  140.6500  160.0240  136.7670 O   0  0  0  0  0  0  0  0  0  0  0  0
  138.2931  158.9948  133.5473 H   0  0  0  0  0  0  0  0  0  0  0  0
  139.3843  158.6306  132.1677 H   0  0  0  0  0  0  0  0  0  0  0  0
  137.6986  158.0100  132.1677 H   0  0  0  0  0  0  0  0  0  0  0  0
  142.8880  159.7290  132.6080 H   0  0  0  0  0  0  0  0  0  0  0  0
  146.2189  156.3020  133.5521 H   0  0  0  0  0  0  0  0  0  0  0  0
  145.7865  153.4675  133.5635 H   0  0  0  0  0  0  0  0  0  0  0  0
  143.9781  151.7209  133.4573 H   0  0  0  0  0  0  0  0  0  0  0  0
  140.9580  154.8586  133.2557 H   0  0  0  0  0  0  0  0  0  0  0  0
  142.0400  157.2853  137.3136 H   0  0  0  0  0  0  0  0  0  0  0  0
  142.1637  156.2164  135.8752 H   0  0  0  0  0  0  0  0  0  0  0  0
  142.9740  157.8195  135.8752 H   0  0  0  0  0  0  0  0  0  0  0  0
  139.8806  157.5799  137.5643 H   0  0  0  0  0  0  0  0  0  0  0  0
  138.7528  158.1381  136.2825 H   0  0  0  0  0  0  0  0  0  0  0  0
  139.3436  156.4418  136.2825 H   0  0  0  0  0  0  0  0  0  0  0  0
  141.6410  159.7460  133.6720 H   0  0  0  0  0  0  0  0  0  0  0  0
  141.3620  161.2370  134.6220 H   0  0  0  0  0  0  0  0  0  0  0  0
  1  2  1  0
  2  3  1  0
  3  4  1  0
  4  5  2  0
  4  6  1  0
  6  7  1  0
  7  8  1  0
  8  9  1  0
  8 10  2  0
  7 11  2  0
 11 12  1  0
 12 13  2  0
 13 14  1  0
 14 15  2  0
 15 16  1  0
 16 17  1  0
 16 18  1  0
 16 19  1  0
 15 20  1  0
 20 21  2  0
  3 22  1  0
 22 23  1  0
 22 24  1  0
 22 25  1  0
 25 26  1  0
 25 27  2  0
 21  6  1  0
 21 12  1  0
  1 28  1  0
  1 29  1  0
  1 30  1  0
  9 31  1  0
 11 32  1  0
 13 33  1  0
 14 34  1  0
 20 35  1  0
 23 36  1  0
 23 37  1  0
 23 38  1  0
 24 39  1  0
 24 40  1  0
 24 41  1  0
 26 42  1  0
 26 43  1  0
M  CHG  1   9  -1
M  END
>  <UniqueID>  (15) 
15

>  <SMILES>  (15) 
CSN(C(=O)n1c(C([NH-])=O)cc2ccc(C(F)(F)F)cc21)C(C)(C)C(N)=O

>  <Energy>  (15) 
79.56753580123316

>  <Genealogy>  (15) 
CSN(C(=O)n1c(C([NH-])=O)cc2ccc(C(F)(F)F)cc21)C(C)(C)C(N)=O (protonated)
CSN(C(=O)n1c(C([NH-])=O)cc2ccc(C(F)(F)F)cc21)C(C)(C)C(N)=O (3D coordinates assigned)
CSN(C(=O)n1c(C([NH-])=O)cc2ccc(C(F)(F)F)cc21)C(C)(C)C(N)=O (optimized conformer: 79.56753580123316 kcal/mol)

>  <smiles>  (15) 
CSN(C(=O)n1c(C(N)=O)cc2ccc(C(F)(F)F)cc21)C(C)(C)C(N)=O

>  <score_type>  (15) 
oracle

>  <origin>  (15) 
adg

>  <m_score__min__energy>  (15) 
-6.1900000000000004

>  <m_primary>  (15) 
energy

$$$$
15:0
     RDKit          3D

 39 40  0  0  0  0  0  0  0  0999 V2000
  142.2080  156.1880  134.3860 C   0  0  0  0  0  0  0  0  0  0  0  0
  143.1630  157.2760  133.9970 C   0  0  0  0  0  0  0  0  0  0  0  0
  142.7310  158.6250  133.9750 C   0  0  0  0  0  0  0  0  0  0  0  0
  143.6270  159.6580  133.6530 C   0  0  0  0  0  0  0  0  0  0  0  0
  144.9450  159.3130  133.3660 C   0  0  0  0  0  0  0  0  0  0  0  0
  146.0210  160.1080  133.0400 C   0  0  0  0  0  0  0  0  0  0  0  0
  147.0920  159.2310  132.8670 C   0  0  0  0  0  0  0  0  0  0  0  0
  148.4440  159.6420  132.4270 C   0  0  0  0  0  0  0  0  0  0  0  0
  149.6080  158.9650  132.9050 N   0  0  0  0  0  0  0  0  0  0  0  0
  148.5820  160.6130  131.6370 O   0  0  0  0  0  0  0  0  0  0  0  0
  146.6890  157.9460  133.0740 N   0  0  0  0  0  0  0  0  0  0  0  0
  147.4970  156.7560  133.0300 C   0  0  0  0  0  0  0  0  0  0  0  0
  148.4840  156.7100  132.2470 O   0  0  0  0  0  0  0  0  0  0  0  0
  147.2080  155.6350  133.8860 N   0  0  0  0  0  0  0  0  0  0  0  0
  147.3810  155.7740  135.3350 C   0  0  0  0  0  0  0  0  0  0  0  0
  146.9340  154.3360  133.3250 C   0  0  0  0  0  0  0  0  0  0  0  0
  145.8860  154.1480  132.6480 O   0  0  0  0  0  0  0  0  0  0  0  0
  147.8300  153.2790  133.5340 O   0  0  0  0  0  0  0  0  0  0  0  0
  148.0980  152.2600  132.5740 C   0  0  0  0  0  0  0  0  0  0  0  0
  149.5810  152.2230  132.2200 C   0  0  0  0  0  0  0  0  0  0  0  0
  150.1050  153.5030  132.2050 F   0  0  0  0  0  0  0  0  0  0  0  0
  149.7520  151.6480  130.9730 F   0  0  0  0  0  0  0  0  0  0  0  0
  150.2620  151.4720  133.1610 F   0  0  0  0  0  0  0  0  0  0  0  0
  145.3770  158.0120  133.3830 C   0  0  0  0  0  0  0  0  0  0  0  0
  144.5110  156.9650  133.7150 C   0  0  0  0  0  0  0  0  0  0  0  0
  142.1519  156.1241  135.4827 H   0  0  0  0  0  0  0  0  0  0  0  0
  141.2106  156.4132  133.9804 H   0  0  0  0  0  0  0  0  0  0  0  0
  142.5606  155.2283  133.9804 H   0  0  0  0  0  0  0  0  0  0  0  0
  141.6843  158.8659  134.2123 H   0  0  0  0  0  0  0  0  0  0  0  0
  143.2974  160.7072  133.6284 H   0  0  0  0  0  0  0  0  0  0  0  0
  146.0334  161.2032  132.9376 H   0  0  0  0  0  0  0  0  0  0  0  0
  150.5570  159.2910  132.6160 H   0  0  0  0  0  0  0  0  0  0  0  0
  149.5360  158.1180  133.5090 H   0  0  0  0  0  0  0  0  0  0  0  0
  146.6251  155.1667  135.8545 H   0  0  0  0  0  0  0  0  0  0  0  0
  148.3864  155.4297  135.6189 H   0  0  0  0  0  0  0  0  0  0  0  0
  147.2613  156.8300  135.6189 H   0  0  0  0  0  0  0  0  0  0  0  0
  147.8027  151.2858  132.9908 H   0  0  0  0  0  0  0  0  0  0  0  0
  147.5239  152.4770  131.6612 H   0  0  0  0  0  0  0  0  0  0  0  0
  144.8708  155.9263  133.7553 H   0  0  0  0  0  0  0  0  0  0  0  0
  1  2  1  0
  2  3  2  0
  3  4  1  0
  4  5  2  0
  5  6  1  0
  6  7  2  0
  7  8  1  0
  8  9  1  0
  8 10  2  0
  7 11  1  0
 11 12  1  0
 12 13  2  0
 12 14  1  0
 14 15  1  0
 14 16  1  0
 16 17  2  0
 16 18  1  0
 18 19  1  0
 19 20  1  0
 20 21  1  0
 20 22  1  0
 20 23  1  0
 11 24  1  0
 24 25  2  0
 25  2  1  0
 24  5  1  0
  1 26  1  0
  1 27  1  0
  1 28  1  0
  3 29  1  0
  4 30  1  0
  6 31  1  0
  9 32  1  0
  9 33  1  0
 15 34  1  0
 15 35  1  0
 15 36  1  0
 19 37  1  0
 19 38  1  0
 25 39  1  0
M  END
>  <UniqueID>  (16) 
16

>  <SMILES>  (16) 
Cc1ccc2cc(C(N)=O)n(C(=O)N(C)C(=O)OCC(F)(F)F)c2c1

>  <Energy>  (16) 
74.17483659464742

>  <Genealogy>  (16) 
Cc1ccc2cc(C(N)=O)n(C(=O)N(C)C(=O)OCC(F)(F)F)c2c1 (3D coordinates assigned)
Cc1ccc2cc(C(N)=O)n(C(=O)N(C)C(=O)OCC(F)(F)F)c2c1 (optimized conformer: 74.17483659464742 kcal/mol)

>  <smiles>  (16) 
Cc1ccc2cc(C(N)=O)n(C(=O)N(C)C(=O)OCC(F)(F)F)c2c1

>  <score_type>  (16) 
oracle

>  <origin>  (16) 
adg

>  <m_score__min__energy>  (16) 
-6.2300000000000004

>  <m_primary>  (16) 
energy

$$$$
16:0
     RDKit          3D

 55 58  0  0  0  0  0  0  0  0999 V2000
  139.8550  159.2260  130.3600 C   0  0  0  0  0  0  0  0  0  0  0  0
  139.1910  158.9490  131.7230 C   0  0  0  0  0  0  0  0  0  0  0  0
  137.6660  159.0190  131.5550 C   0  0  0  0  0  0  0  0  0  0  0  0
  139.6270  159.9990  132.7630 C   0  0  0  0  0  0  0  0  0  0  0  0
  139.5070  157.6260  132.1770 O   0  0  0  0  0  0  0  0  0  0  0  0
  139.4490  157.1630  133.4990 C   0  0  0  0  0  0  0  0  0  0  0  0
  138.3790  157.2270  134.1630 O   0  0  0  0  0  0  0  0  0  0  0  0
  140.6360  156.6370  134.1110 N   0  0  0  0  0  0  0  0  0  0  0  0
  141.5580  157.3010  134.8650 C   0  0  0  0  0  0  0  0  0  0  0  0
  141.4460  158.6920  135.3510 C   0  0  0  0  0  0  0  0  0  0  0  0
  140.1930  159.2220  135.7740 N   0  0  0  0  0  0  0  0  0  0  0  0
  142.4790  159.4070  135.4380 O   0  0  0  0  0  0  0  0  0  0  0  0
  142.6140  156.4540  135.2010 C   0  0  0  0  0  0  0  0  0  0  0  0
  142.3020  155.2390  134.6350 C   0  0  0  0  0  0  0  0  0  0  0  0
  143.0050  154.0370  134.6460 C   0  0  0  0  0  0  0  0  0  0  0  0
  142.4550  152.9460  133.9510 C   0  0  0  0  0  0  0  0  0  0  0  0
  141.2290  153.0800  133.2590 C   0  0  0  0  0  0  0  0  0  0  0  0
  140.6820  151.9680  132.5490 N   0  0  0  0  0  0  0  0  0  0  0  0
  139.3440  151.4300  132.2400 C   0  0  0  0  0  0  0  0  0  0  0  0
  139.8280  150.2380  131.4510 C   0  0  0  0  0  0  0  0  0  0  0  0
  139.5030  148.8810  132.1270 C   0  0  0  0  0  0  0  0  0  0  0  0
  139.6200  147.7430  131.1050 C   0  0  0  0  0  0  0  0  0  0  0  0
  138.6950  147.9040  129.9630 N   0  0  0  0  0  0  0  0  0  0  0  0
  138.3520  149.3030  129.6280 C   0  0  0  0  0  0  0  0  0  0  0  0
  139.4970  150.2730  129.9380 C   0  0  0  0  0  0  0  0  0  0  0  0
  141.1830  150.8120  131.7820 C   0  0  0  0  0  0  0  0  0  0  0  0
  140.5440  154.3110  133.2670 C   0  0  0  0  0  0  0  0  0  0  0  0
  141.1040  155.3760  133.9820 C   0  0  0  0  0  0  0  0  0  0  0  0
  140.8594  159.6450  130.5199 H   0  0  0  0  0  0  0  0  0  0  0  0
  139.9355  158.2864  129.7937 H   0  0  0  0  0  0  0  0  0  0  0  0
  139.2439  159.9443  129.7937 H   0  0  0  0  0  0  0  0  0  0  0  0
  137.1886  159.0409  132.5457 H   0  0  0  0  0  0  0  0  0  0  0  0
  137.3998  159.9303  130.9994 H   0  0  0  0  0  0  0  0  0  0  0  0
  137.3174  158.1359  130.9994 H   0  0  0  0  0  0  0  0  0  0  0  0
  139.4623  159.6024  133.7757 H   0  0  0  0  0  0  0  0  0  0  0  0
  140.6945  160.2277  132.6279 H   0  0  0  0  0  0  0  0  0  0  0  0
  139.0355  160.9165  132.6279 H   0  0  0  0  0  0  0  0  0  0  0  0
  139.2940  158.7930  135.4590 H   0  0  0  0  0  0  0  0  0  0  0  0
  143.5068  156.7041  135.7929 H   0  0  0  0  0  0  0  0  0  0  0  0
  143.9611  153.9442  135.1820 H   0  0  0  0  0  0  0  0  0  0  0  0
  142.9822  151.9806  133.9453 H   0  0  0  0  0  0  0  0  0  0  0  0
  138.7834  151.1428  133.1418 H   0  0  0  0  0  0  0  0  0  0  0  0
  138.6354  152.1069  131.7403 H   0  0  0  0  0  0  0  0  0  0  0  0
  140.2113  148.7054  132.9501 H   0  0  0  0  0  0  0  0  0  0  0  0
  138.4753  148.9100  132.5182 H   0  0  0  0  0  0  0  0  0  0  0  0
  140.6509  147.7186  130.7221 H   0  0  0  0  0  0  0  0  0  0  0  0
  139.3543  146.8071  131.6182 H   0  0  0  0  0  0  0  0  0  0  0  0
  137.8040  147.3990  130.1830 H   0  0  0  0  0  0  0  0  0  0  0  0
  138.1187  149.3627  128.5547 H   0  0  0  0  0  0  0  0  0  0  0  0
  137.4883  149.5943  130.2438 H   0  0  0  0  0  0  0  0  0  0  0  0
  140.3881  149.9798  129.3636 H   0  0  0  0  0  0  0  0  0  0  0  0
  139.1914  151.2923  129.6593 H   0  0  0  0  0  0  0  0  0  0  0  0
  141.7948  150.1310  132.3919 H   0  0  0  0  0  0  0  0  0  0  0  0
  141.8558  151.0250  130.9382 H   0  0  0  0  0  0  0  0  0  0  0  0
  139.5941  154.4320  132.7256 H   0  0  0  0  0  0  0  0  0  0  0  0
  1  2  1  0
  2  3  1  0
  2  4  1  0
  2  5  1  0
  5  6  1  0
  6  7  2  0
  6  8  1  0
  8  9  1  0
  9 10  1  0
 10 11  1  0
 10 12  2  0
  9 13  2  0
 13 14  1  0
 14 15  2  0
 15 16  1  0
 16 17  2  0
 17 18  1  0
 18 19  1  0
 19 20  1  0
 20 21  1  0
 21 22  1  0
 22 23  1  0
 23 24  1  0
 24 25  1  0
 20 26  1  0
 17 27  1  0
 27 28  2  0
 28  8  1  0
 28 14  1  0
 26 18  1  0
 25 20  1  0
  1 29  1  0
  1 30  1  0
  1 31  1  0
  3 32  1  0
  3 33  1  0
  3 34  1  0
  4 35  1  0
  4 36  1  0
  4 37  1  0
 11 38  1  0
 13 39  1  0
 15 40  1  0
 16 41  1  0
 19 42  1  0
 19 43  1  0
 21 44  1  0
 21 45  1  0
 22 46  1  0
 22 47  1  0
 23 48  1  0
 24 49  1  0
 24 50  1  0
 25 51  1  0
 25 52  1  0
 26 53  1  0
 26 54  1  0
 27 55  1  0
M  CHG  1  11  -1
M  END
>  <UniqueID>  (17) 
17

>  <SMILES>  (17) 
CC(C)(C)OC(=O)n1c(C([NH-])=O)cc2ccc(N3CC4(CCNCC4)C3)cc21

>  <Energy>  (17) 
143.15159462162129

>  <Genealogy>  (17) 
CC(C)(C)OC(=O)n1c(C([NH-])=O)cc2ccc(N3CC4(CCNCC4)C3)cc21 (protonated)
CC(C)(C)OC(=O)n1c(C([NH-])=O)cc2ccc(N3CC4(CCNCC4)C3)cc21 (3D coordinates assigned)
CC(C)(C)OC(=O)n1c(C([NH-])=O)cc2ccc(N3CC4(CCNCC4)C3)cc21 (nonaromatic ring conformer: 143.15159462162129 kcal/mol)

>  <smiles>  (17) 
CC(C)(C)OC(=O)n1c(C(N)=O)cc2ccc(N3CC4(CCNCC4)C3)cc21

>  <score_type>  (17) 
oracle

>  <origin>  (17) 
adg

>  <m_score__min__energy>  (17) 
-9.4600000000000009

>  <m_primary>  (17) 
energy

$$$$
17:0
     RDKit          3D

 44 45  0  0  0  0  0  0  0  0999 V2000
  140.3510  158.0300  135.8560 C   0  0  0  0  0  0  0  0  0  0  0  0
  139.8790  158.9680  134.8960 O   0  0  0  0  0  0  0  0  0  0  0  0
  139.1730  158.5850  133.7500 C   0  0  0  0  0  0  0  0  0  0  0  0
  138.1440  157.8590  133.8570 O   0  0  0  0  0  0  0  0  0  0  0  0
  139.6350  159.0240  132.3710 C   0  0  0  0  0  0  0  0  0  0  0  0
  138.9150  158.1490  131.3250 C   0  0  0  0  0  0  0  0  0  0  0  0
  139.2800  160.5080  132.1450 C   0  0  0  0  0  0  0  0  0  0  0  0
  141.0980  158.8390  132.2790 N   0  0  0  0  0  0  0  0  0  0  0  0
  141.8090  157.6440  132.6350 C   0  0  0  0  0  0  0  0  0  0  0  0
  141.1930  156.6300  133.0620 O   0  0  0  0  0  0  0  0  0  0  0  0
  143.2030  157.6260  132.4960 O   0  0  0  0  0  0  0  0  0  0  0  0
  144.1210  157.6730  133.5540 C   0  0  0  0  0  0  0  0  0  0  0  0
  143.8820  157.0860  134.6450 O   0  0  0  0  0  0  0  0  0  0  0  0
  145.3370  158.4220  133.4010 N   0  0  0  0  0  0  0  0  0  0  0  0
  145.4900  159.7770  133.3780 C   0  0  0  0  0  0  0  0  0  0  0  0
  144.4400  160.7770  133.6690 C   0  0  0  0  0  0  0  0  0  0  0  0
  143.0790  160.5320  133.3260 N   0  0  0  0  0  0  0  0  0  0  0  0
  144.7420  161.8410  134.2720 O   0  0  0  0  0  0  0  0  0  0  0  0
  146.8160  160.1150  133.1190 C   0  0  0  0  0  0  0  0  0  0  0  0
  147.4800  158.9160  132.9940 C   0  0  0  0  0  0  0  0  0  0  0  0
  148.8200  158.6600  132.7160 C   0  0  0  0  0  0  0  0  0  0  0  0
  149.2250  157.3180  132.6100 C   0  0  0  0  0  0  0  0  0  0  0  0
  148.2920  156.2670  132.7850 C   0  0  0  0  0  0  0  0  0  0  0  0
  148.7280  154.8420  132.6170 C   0  0  0  0  0  0  0  0  0  0  0  0
  146.9380  156.5650  133.0480 C   0  0  0  0  0  0  0  0  0  0  0  0
  146.5650  157.9090  133.1680 C   0  0  0  0  0  0  0  0  0  0  0  0
  140.1581  158.4134  136.8688 H   0  0  0  0  0  0  0  0  0  0  0  0
  139.8276  157.0720  135.7207 H   0  0  0  0  0  0  0  0  0  0  0  0
  141.4322  157.8794  135.7207 H   0  0  0  0  0  0  0  0  0  0  0  0
  138.2968  157.3978  131.8383 H   0  0  0  0  0  0  0  0  0  0  0  0
  138.2738  158.7832  130.6953 H   0  0  0  0  0  0  0  0  0  0  0  0
  139.6608  157.6419  130.6953 H   0  0  0  0  0  0  0  0  0  0  0  0
  139.1603  161.0085  133.1172 H   0  0  0  0  0  0  0  0  0  0  0  0
  140.0868  160.9958  131.5783 H   0  0  0  0  0  0  0  0  0  0  0  0
  138.3398  160.5779  131.5783 H   0  0  0  0  0  0  0  0  0  0  0  0
  141.6840  159.6240  131.9130 H   0  0  0  0  0  0  0  0  0  0  0  0
  142.8230  159.7820  132.6450 H   0  0  0  0  0  0  0  0  0  0  0  0
  147.2420  161.1255  133.0327 H   0  0  0  0  0  0  0  0  0  0  0  0
  149.5391  159.4818  132.5835 H   0  0  0  0  0  0  0  0  0  0  0  0
  150.2764  157.0820  132.3891 H   0  0  0  0  0  0  0  0  0  0  0  0
  148.8686  154.3825  133.6065 H   0  0  0  0  0  0  0  0  0  0  0  0
  147.9588  154.2864  132.0606 H   0  0  0  0  0  0  0  0  0  0  0  0
  149.6764  154.8119  132.0606 H   0  0  0  0  0  0  0  0  0  0  0  0
  146.1944  155.7616  133.1560 H   0  0  0  0  0  0  0  0  0  0  0  0
  1  2  1  0
  2  3  1  0
  3  4  2  0
  3  5  1  0
  5  6  1  0
  5  7  1  0
  5  8  1  0
  8  9  1  0
  9 10  2  0
  9 11  1  0
 11 12  1  0
 12 13  2  0
 12 14  1  0
 14 15  1  0
 15 16  1  0
 16 17  1  0
 16 18  2  0
 15 19  2  0
 19 20  1  0
 20 21  2  0
 21 22  1  0
 22 23  2  0
 23 24  1  0
 23 25  1  0
 25 26  2  0
 26 14  1  0
 26 20  1  0
  1 27  1  0
  1 28  1  0
  1 29  1  0
  6 30  1  0
  6 31  1  0
  6 32  1  0
  7 33  1  0
  7 34  1  0
  7 35  1  0
  8 36  1  0
 17 37  1  0
 19 38  1  0
 21 39  1  0
 22 40  1  0
 24 41  1  0
 24 42  1  0
 24 43  1  0
 25 44  1  0
M  CHG  1  17  -1
M  END
>  <UniqueID>  (18) 
18

>  <SMILES>  (18) 
COC(=O)C(C)(C)NC(=O)OC(=O)n1c(C([NH-])=O)cc2ccc(C)cc21

>  <Energy>  (18) 
80.03267874941069

>  <Genealogy>  (18) 
COC(=O)C(C)(C)NC(=O)OC(=O)n1c(C([NH-])=O)cc2ccc(C)cc21 (protonated)
COC(=O)C(C)(C)NC(=O)OC(=O)n1c(C([NH-])=O)cc2ccc(C)cc21 (3D coordinates assigned)
COC(=O)C(C)(C)NC(=O)OC(=O)n1c(C([NH-])=O)cc2ccc(C)cc21 (optimized conformer: 80.03267874941069 kcal/mol)

>  <smiles>  (18) 
COC(=O)C(C)(C)NC(=O)OC(=O)n1c(C(N)=O)cc2ccc(C)cc21

>  <score_type>  (18) 
oracle

>  <origin>  (18) 
adg

>  <m_score__min__energy>  (18) 
-7.5999999999999996

>  <m_primary>  (18) 
energy

$$$$
18:0
     RDKit          3D

 45 47  0  0  0  0  0  0  0  0999 V2000
  139.2680  156.0290  133.0580 C   0  0  0  0  0  0  0  0  0  0  0  0
  139.4290  157.4960  132.8310 C   0  0  0  0  0  0  0  0  0  0  0  0
  139.3170  158.0910  131.6670 O   0  0  0  0  0  0  0  0  0  0  0  0
  139.5110  159.3700  131.8980 C   0  0  0  0  0  0  0  0  0  0  0  0
  139.4780  160.2540  131.0020 O   0  0  0  0  0  0  0  0  0  0  0  0
  139.7400  159.6270  133.1660 O   0  0  0  0  0  0  0  0  0  0  0  0
  139.6940  158.4670  133.7800 C   0  0  0  0  0  0  0  0  0  0  0  0
  139.8930  158.2710  135.2460 C   0  0  0  0  0  0  0  0  0  0  0  0
  141.2810  158.3520  135.5480 O   0  0  0  0  0  0  0  0  0  0  0  0
  142.0970  157.2240  135.6780 C   0  0  0  0  0  0  0  0  0  0  0  0
  142.1070  156.5780  136.7630 O   0  0  0  0  0  0  0  0  0  0  0  0
  142.9380  156.8190  134.5800 N   0  0  0  0  0  0  0  0  0  0  0  0
  143.3270  155.4110  134.4660 C   0  0  0  0  0  0  0  0  0  0  0  0
  143.2520  157.7310  133.5090 C   0  0  0  0  0  0  0  0  0  0  0  0
  142.4670  157.8390  132.5280 O   0  0  0  0  0  0  0  0  0  0  0  0
  144.4540  158.5210  133.5390 N   0  0  0  0  0  0  0  0  0  0  0  0
  144.5590  159.8790  133.5610 C   0  0  0  0  0  0  0  0  0  0  0  0
  143.4260  160.8230  133.6780 C   0  0  0  0  0  0  0  0  0  0  0  0
  142.0790  160.3500  133.7010 N   0  0  0  0  0  0  0  0  0  0  0  0
  143.6410  162.0630  133.7390 O   0  0  0  0  0  0  0  0  0  0  0  0
  145.9000  160.2630  133.5320 C   0  0  0  0  0  0  0  0  0  0  0  0
  146.6150  159.0870  133.5010 C   0  0  0  0  0  0  0  0  0  0  0  0
  147.9890  158.8760  133.4450 C   0  0  0  0  0  0  0  0  0  0  0  0
  148.4500  157.5490  133.3920 C   0  0  0  0  0  0  0  0  0  0  0  0
  147.5380  156.4620  133.4090 C   0  0  0  0  0  0  0  0  0  0  0  0
  148.0430  155.0460  133.2910 C   0  0  0  0  0  0  0  0  0  0  0  0
  149.2560  155.0500  132.6280 F   0  0  0  0  0  0  0  0  0  0  0  0
  148.2150  154.4840  134.5440 F   0  0  0  0  0  0  0  0  0  0  0  0
  147.1460  154.2640  132.5850 F   0  0  0  0  0  0  0  0  0  0  0  0
  146.1470  156.7210  133.4420 C   0  0  0  0  0  0  0  0  0  0  0  0
  145.7190  158.0500  133.5090 C   0  0  0  0  0  0  0  0  0  0  0  0
  139.2457  155.8255  134.1388 H   0  0  0  0  0  0  0  0  0  0  0  0
  138.3271  155.6884  132.6012 H   0  0  0  0  0  0  0  0  0  0  0  0
  140.1127  155.4924  132.6012 H   0  0  0  0  0  0  0  0  0  0  0  0
  139.3508  159.0528  135.7980 H   0  0  0  0  0  0  0  0  0  0  0  0
  139.5092  157.2831  135.5407 H   0  0  0  0  0  0  0  0  0  0  0  0
  143.4458  154.9809  135.4714 H   0  0  0  0  0  0  0  0  0  0  0  0
  142.5479  154.8584  133.9205 H   0  0  0  0  0  0  0  0  0  0  0  0
  144.2793  155.3367  133.9205 H   0  0  0  0  0  0  0  0  0  0  0  0
  141.2860  161.0290  133.7500 H   0  0  0  0  0  0  0  0  0  0  0  0
  141.8610  159.3300  133.7140 H   0  0  0  0  0  0  0  0  0  0  0  0
  146.3007  161.2874  133.5336 H   0  0  0  0  0  0  0  0  0  0  0  0
  148.6929  159.7213  133.4423 H   0  0  0  0  0  0  0  0  0  0  0  0
  149.5306  157.3509  133.3367 H   0  0  0  0  0  0  0  0  0  0  0  0
  145.4199  155.8960  133.4156 H   0  0  0  0  0  0  0  0  0  0  0  0
  1  2  1  0
  2  3  1  0
  3  4  1  0
  4  5  2  0
  4  6  1  0
  6  7  1  0
  7  8  1  0
  8  9  1  0
  9 10  1  0
 10 11  2  0
 10 12  1  0
 12 13  1  0
 12 14  1  0
 14 15  2  0
 14 16  1  0
 16 17  1  0
 17 18  1  0
 18 19  1  0
 18 20  2  0
 17 21  2  0
 21 22  1  0
 22 23  2  0
 23 24  1  0
 24 25  2  0
 25 26  1  0
 26 27  1  0
 26 28  1  0
 26 29  1  0
 25 30  1  0
 30 31  2  0
  7  2  2  0
 31 16  1  0
 31 22  1  0
  1 32  1  0
  1 33  1  0
  1 34  1  0
  8 35  1  0
  8 36  1  0
 13 37  1  0
 13 38  1  0
 13 39  1  0
 19 40  1  0
 19 41  1  0
 21 42  1  0
 23 43  1  0
 24 44  1  0
 30 45  1  0
M  END
>  <UniqueID>  (19) 
19

>  <SMILES>  (19) 
Cc1oc(=O)oc1COC(=O)N(C)C(=O)n1c(C(N)=O)cc2ccc(C(F)(F)F)cc21

>  <Energy>  (19) 
116.42570309113319

>  <Genealogy>  (19) 
Cc1oc(=O)oc1COC(=O)N(C)C(=O)n1c(C(N)=O)cc2ccc(C(F)(F)F)cc21 (3D coordinates assigned)
Cc1oc(=O)oc1COC(=O)N(C)C(=O)n1c(C(N)=O)cc2ccc(C(F)(F)F)cc21 (optimized conformer: 116.42570309113319 kcal/mol)

>  <smiles>  (19) 
Cc1oc(=O)oc1COC(=O)N(C)C(=O)n1c(C(N)=O)cc2ccc(C(F)(F)F)cc21

>  <score_type>  (19) 
oracle

>  <origin>  (19) 
adg

>  <m_score__min__energy>  (19) 
-6.8700000000000001

>  <m_primary>  (19) 
energy

$$$$
19:0
     RDKit          3D

 50 51  0  0  0  0  0  0  0  0999 V2000
  139.1420  160.9220  132.2230 C   0  0  0  0  0  0  0  0  0  0  0  0
  138.8940  159.7810  131.3340 N   0  0  0  0  0  0  0  0  0  0  0  0
  138.5590  160.0040  129.9260 C   0  0  0  0  0  0  0  0  0  0  0  0
  138.9720  158.4280  131.8340 C   0  0  0  0  0  0  0  0  0  0  0  0
  138.7290  157.4620  131.0570 O   0  0  0  0  0  0  0  0  0  0  0  0
  139.3190  158.1450  133.2770 C   0  0  0  0  0  0  0  0  0  0  0  0
  140.5940  157.4190  133.3960 N   0  0  0  0  0  0  0  0  0  0  0  0
  140.5700  155.9520  133.3630 C   0  0  0  0  0  0  0  0  0  0  0  0
  141.8540  158.1280  133.5010 C   0  0  0  0  0  0  0  0  0  0  0  0
  141.8840  159.5450  133.6360 C   0  0  0  0  0  0  0  0  0  0  0  0
  143.1020  160.2380  133.7310 C   0  0  0  0  0  0  0  0  0  0  0  0
  144.2790  159.5010  133.6960 C   0  0  0  0  0  0  0  0  0  0  0  0
  145.5910  159.9170  133.7400 C   0  0  0  0  0  0  0  0  0  0  0  0
  146.3520  158.7510  133.6410 C   0  0  0  0  0  0  0  0  0  0  0  0
  147.8340  158.7050  133.6590 C   0  0  0  0  0  0  0  0  0  0  0  0
  148.5290  157.5090  134.0200 N   0  0  0  0  0  0  0  0  0  0  0  0
  148.5010  159.7260  133.3460 O   0  0  0  0  0  0  0  0  0  0  0  0
  145.5380  157.6630  133.5580 N   0  0  0  0  0  0  0  0  0  0  0  0
  145.9250  156.2970  133.3450 C   0  0  0  0  0  0  0  0  0  0  0  0
  146.8950  156.0480  132.5800 O   0  0  0  0  0  0  0  0  0  0  0  0
  145.2120  155.2140  133.9810 N   0  0  0  0  0  0  0  0  0  0  0  0
  144.5520  154.2080  133.1420 C   0  0  0  0  0  0  0  0  0  0  0  0
  145.2740  155.0180  135.4360 C   0  0  0  0  0  0  0  0  0  0  0  0
  146.6250  154.5130  135.8310 C   0  0  0  0  0  0  0  0  0  0  0  0
  146.7440  153.3930  136.3950 O   0  0  0  0  0  0  0  0  0  0  0  0
  147.7500  155.3030  135.6190 O   0  0  0  0  0  0  0  0  0  0  0  0
  144.2750  158.1390  133.5770 C   0  0  0  0  0  0  0  0  0  0  0  0
  143.0810  157.4200  133.4630 C   0  0  0  0  0  0  0  0  0  0  0  0
  139.0705  160.5932  133.2703 H   0  0  0  0  0  0  0  0  0  0  0  0
  140.1483  161.3233  132.0326 H   0  0  0  0  0  0  0  0  0  0  0  0
  138.3930  161.7048  132.0326 H   0  0  0  0  0  0  0  0  0  0  0  0
  137.6451  160.6124  129.8584 H   0  0  0  0  0  0  0  0  0  0  0  0
  139.3878  160.5312  129.4309 H   0  0  0  0  0  0  0  0  0  0  0  0
  138.3925  159.0359  129.4309 H   0  0  0  0  0  0  0  0  0  0  0  0
  139.3998  159.0992  133.8183 H   0  0  0  0  0  0  0  0  0  0  0  0
  138.5242  157.5163  133.7048 H   0  0  0  0  0  0  0  0  0  0  0  0
  140.5636  155.5622  134.3916 H   0  0  0  0  0  0  0  0  0  0  0  0
  139.6662  155.6118  132.8363 H   0  0  0  0  0  0  0  0  0  0  0  0
  141.4622  155.5824  132.8363 H   0  0  0  0  0  0  0  0  0  0  0  0
  140.9383  160.1060  133.6664 H   0  0  0  0  0  0  0  0  0  0  0  0
  143.1233  161.3333  133.8303 H   0  0  0  0  0  0  0  0  0  0  0  0
  145.9607  160.9488  133.8333 H   0  0  0  0  0  0  0  0  0  0  0  0
  149.5730  157.4920  134.0160 H   0  0  0  0  0  0  0  0  0  0  0  0
  148.0220  156.6540  134.3380 H   0  0  0  0  0  0  0  0  0  0  0  0
  144.0616  153.4605  133.7830 H   0  0  0  0  0  0  0  0  0  0  0  0
  143.7988  154.6972  132.5069 H   0  0  0  0  0  0  0  0  0  0  0  0
  145.3007  153.7118  132.5069 H   0  0  0  0  0  0  0  0  0  0  0  0
  145.0825  155.9766  135.9404 H   0  0  0  0  0  0  0  0  0  0  0  0
  144.5139  154.2800  135.7319 H   0  0  0  0  0  0  0  0  0  0  0  0
  143.0940  156.3263  133.3461 H   0  0  0  0  0  0  0  0  0  0  0  0
  1  2  1  0
  2  3  1  0
  2  4  1  0
  4  5  2  0
  4  6  1  0
  6  7  1  0
  7  8  1  0
  7  9  1  0
  9 10  2  0
 10 11  1  0
 11 12  2  0
 12 13  1  0
 13 14  2  0
 14 15  1  0
 15 16  1  0
 15 17  2  0
 14 18  1  0
 18 19  1  0
 19 20  2  0
 19 21  1  0
 21 22  1  0
 21 23  1  0
 23 24  1  0
 24 25  2  0
 24 26  1  0
 18 27  1  0
 27 28  2  0
 28  9  1  0
 27 12  1  0
  1 29  1  0
  1 30  1  0
  1 31  1  0
  3 32  1  0
  3 33  1  0
  3 34  1  0
  6 35  1  0
  6 36  1  0
  8 37  1  0
  8 38  1  0
  8 39  1  0
 10 40  1  0
 11 41  1  0
 13 42  1  0
 16 43  1  0
 16 44  1  0
 22 45  1  0
 22 46  1  0
 22 47  1  0
 23 48  1  0
 23 49  1  0
 28 50  1  0
M  CHG  1  26  -1
M  END
>  <UniqueID>  (20) 
20

>  <SMILES>  (20) 
CN(C)C(=O)CN(C)c1ccc2cc(C(N)=O)n(C(=O)N(C)CC(=O)[O-])c2c1

>  <Energy>  (20) 
84.99252434399921

>  <Genealogy>  (20) 
CN(C)C(=O)CN(C)c1ccc2cc(C(N)=O)n(C(=O)N(C)CC(=O)[O-])c2c1 (protonated)
CN(C)C(=O)CN(C)c1ccc2cc(C(N)=O)n(C(=O)N(C)CC(=O)[O-])c2c1 (3D coordinates assigned)
CN(C)C(=O)CN(C)c1ccc2cc(C(N)=O)n(C(=O)N(C)CC(=O)[O-])c2c1 (optimized conformer: 84.99252434399921 kcal/mol)

>  <smiles>  (20) 
CN(C)C(=O)CN(C)c1ccc2cc(C(N)=O)n(C(=O)N(C)CC(=O)O)c2c1

>  <score_type>  (20) 
oracle

>  <origin>  (20) 
adg

>  <m_score__min__energy>  (20) 
-7.5

>  <m_primary>  (20) 
energy

$$$$
20:0
     RDKit          3D

 35 36  0  0  0  0  0  0  0  0999 V2000
  142.0160  160.2560  133.6450 C   0  0  0  0  0  0  0  0  0  0  0  0
  141.7320  158.8740  133.1350 C   0  0  0  0  0  0  0  0  0  0  0  0
  142.6760  158.2310  132.6010 O   0  0  0  0  0  0  0  0  0  0  0  0
  140.4100  158.2900  133.2040 N   0  0  0  0  0  0  0  0  0  0  0  0
  139.4840  158.3780  132.0620 C   0  0  0  0  0  0  0  0  0  0  0  0
  139.4460  159.7730  131.5200 C   0  0  0  0  0  0  0  0  0  0  0  0
  139.3950  160.7550  132.3050 O   0  0  0  0  0  0  0  0  0  0  0  0
  139.4540  159.9890  130.1480 O   0  0  0  0  0  0  0  0  0  0  0  0
  139.9470  157.7170  134.4460 C   0  0  0  0  0  0  0  0  0  0  0  0
  138.7750  157.9520  134.8490 O   0  0  0  0  0  0  0  0  0  0  0  0
  140.7860  156.8420  135.2150 N   0  0  0  0  0  0  0  0  0  0  0  0
  141.3020  157.0530  136.4580 C   0  0  0  0  0  0  0  0  0  0  0  0
  141.0410  158.2320  137.3110 C   0  0  0  0  0  0  0  0  0  0  0  0
  140.4350  159.3940  136.7510 N   0  0  0  0  0  0  0  0  0  0  0  0
  141.3650  158.2310  138.5290 O   0  0  0  0  0  0  0  0  0  0  0  0
  142.0850  155.9700  136.8510 C   0  0  0  0  0  0  0  0  0  0  0  0
  142.0220  155.0760  135.8040 C   0  0  0  0  0  0  0  0  0  0  0  0
  142.6180  153.8260  135.6530 C   0  0  0  0  0  0  0  0  0  0  0  0
  142.3860  153.1290  134.4540 C   0  0  0  0  0  0  0  0  0  0  0  0
  141.5730  153.6900  133.4390 C   0  0  0  0  0  0  0  0  0  0  0  0
  141.3530  152.9740  132.2220 N   0  0  0  0  0  0  0  0  0  0  0  0
  140.9860  154.9580  133.6280 C   0  0  0  0  0  0  0  0  0  0  0  0
  141.2260  155.6250  134.8330 C   0  0  0  0  0  0  0  0  0  0  0  0
  142.0144  160.2484  134.7450 H   0  0  0  0  0  0  0  0  0  0  0  0
  143.0007  160.5856  133.2820 H   0  0  0  0  0  0  0  0  0  0  0  0
  141.2411  160.9472  133.2820 H   0  0  0  0  0  0  0  0  0  0  0  0
  139.8199  157.6918  131.2706 H   0  0  0  0  0  0  0  0  0  0  0  0
  138.4748  158.1023  132.4020 H   0  0  0  0  0  0  0  0  0  0  0  0
  139.4670  159.3590  136.3590 H   0  0  0  0  0  0  0  0  0  0  0  0
  142.6362  155.8532  137.7957 H   0  0  0  0  0  0  0  0  0  0  0  0
  143.2494  153.3982  136.4457 H   0  0  0  0  0  0  0  0  0  0  0  0
  142.8403  152.1386  134.3029 H   0  0  0  0  0  0  0  0  0  0  0  0
  142.1200  152.8590  131.5220 H   0  0  0  0  0  0  0  0  0  0  0  0
  140.4200  152.5520  132.0130 H   0  0  0  0  0  0  0  0  0  0  0  0
  140.3559  155.4104  132.8480 H   0  0  0  0  0  0  0  0  0  0  0  0
  1  2  1  0
  2  3  2  0
  2  4  1  0
  4  5  1  0
  5  6  1  0
  6  7  2  0
  6  8  1  0
  4  9  1  0
  9 10  2  0
  9 11  1  0
 11 12  1  0
 12 13  1  0
 13 14  1  0
 13 15  2  0
 12 16  2  0
 16 17  1  0
 17 18  2  0
 18 19  1  0
 19 20  2  0
 20 21  1  0
 20 22  1  0
 22 23  2  0
 23 11  1  0
 23 17  1  0
  1 24  1  0
  1 25  1  0
  1 26  1  0
  5 27  1  0
  5 28  1  0
 14 29  1  0
 16 30  1  0
 18 31  1  0
 19 32  1  0
 21 33  1  0
 21 34  1  0
 22 35  1  0
M  CHG  2   8  -1  14  -1
M  END
>  <UniqueID>  (21) 
21

>  <SMILES>  (21) 
CC(=O)N(CC(=O)[O-])C(=O)n1c(C([NH-])=O)cc2ccc(N)cc21

>  <Energy>  (21) 
74.21576223807988

>  <Genealogy>  (21) 
CC(=O)N(CC(=O)[O-])C(=O)n1c(C([NH-])=O)cc2ccc(N)cc21 (protonated)
CC(=O)N(CC(=O)[O-])C(=O)n1c(C([NH-])=O)cc2ccc(N)cc21 (3D coordinates assigned)
CC(=O)N(CC(=O)[O-])C(=O)n1c(C([NH-])=O)cc2ccc(N)cc21 (optimized conformer: 74.21576223807988 kcal/mol)

>  <smiles>  (21) 
CC(=O)N(CC(=O)O)C(=O)n1c(C(N)=O)cc2ccc(N)cc21

>  <score_type>  (21) 
oracle

>  <origin>  (21) 
adg

>  <m_score__min__energy>  (21) 
-6.2000000000000002

>  <m_primary>  (21) 
energy

$$$$
21:0
     RDKit          3D

 38 39  0  0  0  0  0  0  0  0999 V2000
  149.5980  162.4950  129.9860 C   0  0  0  0  0  0  0  0  0  0  0  0
  149.3150  161.4780  130.5670 C   0  0  0  0  0  0  0  0  0  0  0  0
  148.9750  160.2640  131.2610 C   0  0  0  0  0  0  0  0  0  0  0  0
  149.9290  159.2240  131.3680 C   0  0  0  0  0  0  0  0  0  0  0  0
  149.6150  158.0380  132.0540 C   0  0  0  0  0  0  0  0  0  0  0  0
  148.3430  157.9240  132.6110 C   0  0  0  0  0  0  0  0  0  0  0  0
  147.7870  156.9020  133.3470 C   0  0  0  0  0  0  0  0  0  0  0  0
  146.4970  157.3280  133.6500 C   0  0  0  0  0  0  0  0  0  0  0  0
  145.5130  156.4970  134.3730 C   0  0  0  0  0  0  0  0  0  0  0  0
  144.1220  156.5550  134.0560 N   0  0  0  0  0  0  0  0  0  0  0  0
  145.9140  155.6840  135.2470 O   0  0  0  0  0  0  0  0  0  0  0  0
  146.2670  158.5700  133.1380 N   0  0  0  0  0  0  0  0  0  0  0  0
  145.1010  159.3860  133.3210 C   0  0  0  0  0  0  0  0  0  0  0  0
  145.2150  160.5470  133.8000 O   0  0  0  0  0  0  0  0  0  0  0  0
  143.8410  158.8830  132.9790 O   0  0  0  0  0  0  0  0  0  0  0  0
  142.6190  159.4370  133.4600 C   0  0  0  0  0  0  0  0  0  0  0  0
  141.5270  158.4000  133.4520 C   0  0  0  0  0  0  0  0  0  0  0  0
  141.7580  157.2830  133.9910 O   0  0  0  0  0  0  0  0  0  0  0  0
  140.2480  158.6450  132.8290 N   0  0  0  0  0  0  0  0  0  0  0  0
  139.2720  157.5520  132.7540 C   0  0  0  0  0  0  0  0  0  0  0  0
  139.9160  159.9650  132.2810 C   0  0  0  0  0  0  0  0  0  0  0  0
  147.4040  158.9190  132.4990 C   0  0  0  0  0  0  0  0  0  0  0  0
  147.6970  160.1180  131.8380 C   0  0  0  0  0  0  0  0  0  0  0  0
  149.8564  163.4234  129.4556 H   0  0  0  0  0  0  0  0  0  0  0  0
  150.9225  159.3446  130.9114 H   0  0  0  0  0  0  0  0  0  0  0  0
  150.3504  157.2254  132.1481 H   0  0  0  0  0  0  0  0  0  0  0  0
  148.2609  155.9518  133.6342 H   0  0  0  0  0  0  0  0  0  0  0  0
  143.7770  157.0810  133.2230 H   0  0  0  0  0  0  0  0  0  0  0  0
  143.4350  155.9930  134.6070 H   0  0  0  0  0  0  0  0  0  0  0  0
  142.7662  159.7989  134.4883 H   0  0  0  0  0  0  0  0  0  0  0  0
  142.3235  160.2680  132.8026 H   0  0  0  0  0  0  0  0  0  0  0  0
  138.9928  157.2393  133.7710 H   0  0  0  0  0  0  0  0  0  0  0  0
  138.3758  157.8968  132.2174 H   0  0  0  0  0  0  0  0  0  0  0  0
  139.7157  156.7004  132.2174 H   0  0  0  0  0  0  0  0  0  0  0  0
  139.7386  160.6705  133.1061 H   0  0  0  0  0  0  0  0  0  0  0  0
  140.7513  160.3261  131.6630 H   0  0  0  0  0  0  0  0  0  0  0  0
  139.0093  159.8880  131.6630 H   0  0  0  0  0  0  0  0  0  0  0  0
  146.9509  160.9235  131.7708 H   0  0  0  0  0  0  0  0  0  0  0  0
  1  2  3  0
  2  3  1  0
  3  4  2  0
  4  5  1  0
  5  6  2  0
  6  7  1  0
  7  8  2  0
  8  9  1  0
  9 10  1  0
  9 11  2  0
  8 12  1  0
 12 13  1  0
 13 14  2  0
 13 15  1  0
 15 16  1  0
 16 17  1  0
 17 18  2  0
 17 19  1  0
 19 20  1  0
 19 21  1  0
 12 22  1  0
 22 23  2  0
 23  3  1  0
 22  6  1  0
  1 24  1  0
  4 25  1  0
  5 26  1  0
  7 27  1  0
 10 28  1  0
 10 29  1  0
 16 30  1  0
 16 31  1  0
 20 32  1  0
 20 33  1  0
 20 34  1  0
 21 35  1  0
 21 36  1  0
 21 37  1  0
 23 38  1  0
M  END
>  <UniqueID>  (22) 
22

>  <SMILES>  (22) 
C#Cc1ccc2cc(C(N)=O)n(C(=O)OCC(=O)N(C)C)c2c1

>  <Energy>  (22) 
70.33944406878167

>  <Genealogy>  (22) 
C#Cc1ccc2cc(C(N)=O)n(C(=O)OCC(=O)N(C)C)c2c1 (3D coordinates assigned)
C#Cc1ccc2cc(C(N)=O)n(C(=O)OCC(=O)N(C)C)c2c1 (optimized conformer: 70.33944406878167 kcal/mol)

>  <smiles>  (22) 
C#Cc1ccc2cc(C(N)=O)n(C(=O)OCC(=O)N(C)C)c2c1

>  <score_type>  (22) 
oracle

>  <origin>  (22) 
adg

>  <m_score__min__energy>  (22) 
-6.96

>  <m_primary>  (22) 
energy

$$$$
22:0
     RDKit          3D

 33 34  0  0  0  0  0  0  0  0999 V2000
  147.6920  154.4180  134.1240 C   0  0  0  0  0  0  0  0  0  0  0  0
  147.0540  155.5560  133.4590 N   0  0  0  0  0  0  0  0  0  0  0  0
  146.2690  155.3570  132.2360 C   0  0  0  0  0  0  0  0  0  0  0  0
  147.2770  156.8860  133.9640 C   0  0  0  0  0  0  0  0  0  0  0  0
  148.2060  157.1020  134.7880 O   0  0  0  0  0  0  0  0  0  0  0  0
  146.4600  157.9840  133.5280 N   0  0  0  0  0  0  0  0  0  0  0  0
  146.8780  159.1670  133.0010 C   0  0  0  0  0  0  0  0  0  0  0  0
  148.2680  159.5090  132.6340 C   0  0  0  0  0  0  0  0  0  0  0  0
  149.3830  158.9670  133.3430 N   0  0  0  0  0  0  0  0  0  0  0  0
  148.4760  160.2660  131.6490 O   0  0  0  0  0  0  0  0  0  0  0  0
  145.8040  160.0450  132.8660 C   0  0  0  0  0  0  0  0  0  0  0  0
  144.7080  159.3560  133.3370 C   0  0  0  0  0  0  0  0  0  0  0  0
  143.3810  159.7560  133.4600 C   0  0  0  0  0  0  0  0  0  0  0  0
  142.4700  158.8490  134.0310 C   0  0  0  0  0  0  0  0  0  0  0  0
  142.9050  157.5800  134.4960 C   0  0  0  0  0  0  0  0  0  0  0  0
  141.9120  156.6030  135.0730 C   0  0  0  0  0  0  0  0  0  0  0  0
  142.5630  155.5110  135.6200 F   0  0  0  0  0  0  0  0  0  0  0  0
  141.1600  157.2020  136.0710 F   0  0  0  0  0  0  0  0  0  0  0  0
  141.0660  156.1680  134.0700 F   0  0  0  0  0  0  0  0  0  0  0  0
  144.2590  157.2060  134.3370 C   0  0  0  0  0  0  0  0  0  0  0  0
  145.1350  158.1190  133.7400 C   0  0  0  0  0  0  0  0  0  0  0  0
  147.6214  154.5439  135.2145 H   0  0  0  0  0  0  0  0  0  0  0  0
  147.1835  153.4884  133.8285 H   0  0  0  0  0  0  0  0  0  0  0  0
  148.7503  154.3669  133.8285 H   0  0  0  0  0  0  0  0  0  0  0  0
  145.2346  155.0948  132.5029 H   0  0  0  0  0  0  0  0  0  0  0  0
  146.2712  156.2841  131.6440 H   0  0  0  0  0  0  0  0  0  0  0  0
  146.7126  154.5429  131.6440 H   0  0  0  0  0  0  0  0  0  0  0  0
  150.3520  159.2750  133.1050 H   0  0  0  0  0  0  0  0  0  0  0  0
  149.2670  158.1870  134.0260 H   0  0  0  0  0  0  0  0  0  0  0  0
  145.8267  161.0702  132.4679 H   0  0  0  0  0  0  0  0  0  0  0  0
  143.0546  160.7503  133.1213 H   0  0  0  0  0  0  0  0  0  0  0  0
  141.4090  159.1259  134.1182 H   0  0  0  0  0  0  0  0  0  0  0  0
  144.6150  156.2214  134.6744 H   0  0  0  0  0  0  0  0  0  0  0  0
  1  2  1  0
  2  3  1  0
  2  4  1  0
  4  5  2  0
  4  6  1  0
  6  7  1  0
  7  8  1  0
  8  9  1  0
  8 10  2  0
  7 11  2  0
 11 12  1  0
 12 13  2  0
 13 14  1  0
 14 15  2  0
 15 16  1  0
 16 17  1  0
 16 18  1  0
 16 19  1  0
 15 20  1  0
 20 21  2  0
 21  6  1  0
 21 12  1  0
  1 22  1  0
  1 23  1  0
  1 24  1  0
  3 25  1  0
  3 26  1  0
  3 27  1  0
  9 28  1  0
  9 29  1  0
 11 30  1  0
 13 31  1  0
 14 32  1  0
 20 33  1  0
M  END
>  <UniqueID>  (23) 
23

>  <SMILES>  (23) 
CN(C)C(=O)n1c(C(N)=O)cc2ccc(C(F)(F)F)cc21

>  <Energy>  (23) 
71.59831945360082

>  <Genealogy>  (23) 
CN(C)C(=O)n1c(C(N)=O)cc2ccc(C(F)(F)F)cc21 (3D coordinates assigned)
CN(C)C(=O)n1c(C(N)=O)cc2ccc(C(F)(F)F)cc21 (optimized conformer: 71.59831945360082 kcal/mol)

>  <smiles>  (23) 
CN(C)C(=O)n1c(C(N)=O)cc2ccc(C(F)(F)F)cc21

>  <score_type>  (23) 
oracle

>  <origin>  (23) 
adg

>  <m_score__min__energy>  (23) 
-6.0199999999999996

>  <m_primary>  (23) 
energy

$$$$
23:0
     RDKit          3D

 38 40  0  0  0  0  0  0  0  0999 V2000
  142.9680  160.6850  133.3720 N   0  0  0  0  0  0  0  0  0  0  0  0
  144.3400  160.8260  133.7310 C   0  0  0  0  0  0  0  0  0  0  0  0
  144.7140  161.8580  134.3510 O   0  0  0  0  0  0  0  0  0  0  0  0
  145.3170  159.7580  133.4320 C   0  0  0  0  0  0  0  0  0  0  0  0
  146.6460  160.0030  133.0960 C   0  0  0  0  0  0  0  0  0  0  0  0
  147.2320  158.7610  132.9920 C   0  0  0  0  0  0  0  0  0  0  0  0
  148.5400  158.4100  132.6730 C   0  0  0  0  0  0  0  0  0  0  0  0
  148.8590  157.0420  132.6160 C   0  0  0  0  0  0  0  0  0  0  0  0
  147.8700  156.0630  132.8720 C   0  0  0  0  0  0  0  0  0  0  0  0
  148.2040  154.6760  132.8010 N   0  0  0  0  0  0  0  0  0  0  0  0
  149.4000  153.8560  132.5250 C   0  0  0  0  0  0  0  0  0  0  0  0
  148.7210  152.5310  132.6930 C   0  0  0  0  0  0  0  0  0  0  0  0
  149.1660  151.7940  133.8090 O   0  0  0  0  0  0  0  0  0  0  0  0
  147.5160  153.3790  132.9630 C   0  0  0  0  0  0  0  0  0  0  0  0
  146.5540  156.4540  133.1920 C   0  0  0  0  0  0  0  0  0  0  0  0
  146.2690  157.8220  133.2570 C   0  0  0  0  0  0  0  0  0  0  0  0
  145.0860  158.4170  133.5230 N   0  0  0  0  0  0  0  0  0  0  0  0
  143.8390  157.7500  133.7650 C   0  0  0  0  0  0  0  0  0  0  0  0
  143.7880  156.8060  134.6010 O   0  0  0  0  0  0  0  0  0  0  0  0
  142.6680  158.1230  133.0270 N   0  0  0  0  0  0  0  0  0  0  0  0
  141.3660  157.4980  133.2500 C   0  0  0  0  0  0  0  0  0  0  0  0
  140.2800  158.3470  132.6720 C   0  0  0  0  0  0  0  0  0  0  0  0
  139.0730  158.0220  132.8220 O   0  0  0  0  0  0  0  0  0  0  0  0
  140.6000  159.5210  132.0010 O   0  0  0  0  0  0  0  0  0  0  0  0
  142.6900  160.1720  132.5060 H   0  0  0  0  0  0  0  0  0  0  0  0
  147.1260  160.9812  132.9455 H   0  0  0  0  0  0  0  0  0  0  0  0
  149.3006  159.1787  132.4717 H   0  0  0  0  0  0  0  0  0  0  0  0
  149.8850  156.7304  132.3706 H   0  0  0  0  0  0  0  0  0  0  0  0
  149.7935  154.0064  131.5089 H   0  0  0  0  0  0  0  0  0  0  0  0
  150.2920  154.0452  133.1402 H   0  0  0  0  0  0  0  0  0  0  0  0
  148.7519  151.7246  131.9454 H   0  0  0  0  0  0  0  0  0  0  0  0
  148.4460  151.1730  134.0980 H   0  0  0  0  0  0  0  0  0  0  0  0
  146.7149  153.2272  132.2246 H   0  0  0  0  0  0  0  0  0  0  0  0
  146.9824  153.2076  133.9095 H   0  0  0  0  0  0  0  0  0  0  0  0
  145.7728  155.7041  133.3853 H   0  0  0  0  0  0  0  0  0  0  0  0
  142.7540  158.8350  132.2670 H   0  0  0  0  0  0  0  0  0  0  0  0
  141.3501  156.5095  132.7676 H   0  0  0  0  0  0  0  0  0  0  0  0
  141.2001  157.3906  134.3321 H   0  0  0  0  0  0  0  0  0  0  0  0
  1  2  1  0
  2  3  2  0
  2  4  1  0
  4  5  2  0
  5  6  1  0
  6  7  2  0
  7  8  1  0
  8  9  2  0
  9 10  1  0
 10 11  1  0
 11 12  1  0
 12 13  1  0
 12 14  1  0
  9 15  1  0
 15 16  2  0
 16 17  1  0
 17 18  1  0
 18 19  2  0
 18 20  1  0
 20 21  1  0
 21 22  1  0
 22 23  2  0
 22 24  1  0
 17  4  1  0
 16  6  1  0
 14 10  1  0
  1 25  1  0
  5 26  1  0
  7 27  1  0
  8 28  1  0
 11 29  1  0
 11 30  1  0
 12 31  1  0
 13 32  1  0
 14 33  1  0
 14 34  1  0
 15 35  1  0
 20 36  1  0
 21 37  1  0
 21 38  1  0
M  CHG  2   1  -1  24  -1
M  END
>  <UniqueID>  (24) 
24

>  <SMILES>  (24) 
[NH-]C(=O)c1cc2ccc(N3CC(O)C3)cc2n1C(=O)NCC(=O)[O-]

>  <Energy>  (24) 
122.13479279539315

>  <Genealogy>  (24) 
[NH-]C(=O)c1cc2ccc(N3CC(O)C3)cc2n1C(=O)NCC(=O)[O-] (protonated)
[NH-]C(=O)c1cc2ccc(N3CC(O)C3)cc2n1C(=O)NCC(=O)[O-] (3D coordinates assigned)
[NH-]C(=O)c1cc2ccc(N3CC(O)C3)cc2n1C(=O)NCC(=O)[O-] (nonaromatic ring conformer: 122.13479279539315 kcal/mol)

>  <smiles>  (24) 
NC(=O)c1cc2ccc(N3CC(O)C3)cc2n1C(=O)NCC(=O)O

>  <score_type>  (24) 
oracle

>  <origin>  (24) 
adg

>  <m_score__min__energy>  (24) 
-7.1500000000000004

>  <m_primary>  (24) 
energy

$$$$
24:0
     RDKit          3D

 41 42  0  0  0  0  0  0  0  0999 V2000
  139.8350  158.0650  135.7380 C   0  0  0  0  0  0  0  0  0  0  0  0
  140.9230  159.3560  136.4170 S   0  0  0  0  0  0  0  0  0  0  0  0
  141.8400  159.5440  134.8930 C   0  0  0  0  0  0  0  0  0  0  0  0
  141.2490  159.9730  133.8650 O   0  0  0  0  0  0  0  0  0  0  0  0
  143.2010  159.2160  134.8700 O   0  0  0  0  0  0  0  0  0  0  0  0
  143.9220  158.8520  133.7250 C   0  0  0  0  0  0  0  0  0  0  0  0
  143.3650  158.2220  132.7840 O   0  0  0  0  0  0  0  0  0  0  0  0
  145.3050  159.2220  133.6130 N   0  0  0  0  0  0  0  0  0  0  0  0
  145.8430  160.4710  133.7010 C   0  0  0  0  0  0  0  0  0  0  0  0
  145.1190  161.7000  134.0890 C   0  0  0  0  0  0  0  0  0  0  0  0
  143.7470  161.8560  133.7350 N   0  0  0  0  0  0  0  0  0  0  0  0
  145.7100  162.6310  134.6950 O   0  0  0  0  0  0  0  0  0  0  0  0
  147.2140  160.4320  133.4550 C   0  0  0  0  0  0  0  0  0  0  0  0
  147.5040  159.1080  133.2190 C   0  0  0  0  0  0  0  0  0  0  0  0
  148.7190  158.4980  132.9210 C   0  0  0  0  0  0  0  0  0  0  0  0
  148.7240  157.1100  132.7060 C   0  0  0  0  0  0  0  0  0  0  0  0
  147.5200  156.3640  132.7790 C   0  0  0  0  0  0  0  0  0  0  0  0
  147.5410  154.8700  132.5840 C   0  0  0  0  0  0  0  0  0  0  0  0
  148.9040  154.2900  132.9610 C   0  0  0  0  0  0  0  0  0  0  0  0
  149.3950  153.5140  131.8930 O   0  0  0  0  0  0  0  0  0  0  0  0
  149.2630  151.8720  132.2990 S   0  0  0  0  0  0  0  0  0  0  0  0
  149.9810  150.8670  131.0170 C   0  0  0  0  0  0  0  0  0  0  0  0
  149.9400  151.5870  133.6130 O   0  0  0  0  0  0  0  0  0  0  0  0
  147.8060  151.5270  132.4230 O   0  0  0  0  0  0  0  0  0  0  0  0
  146.3070  157.0170  133.0920 C   0  0  0  0  0  0  0  0  0  0  0  0
  146.3360  158.3970  133.3200 C   0  0  0  0  0  0  0  0  0  0  0  0
  139.3664  157.5090  136.5634 H   0  0  0  0  0  0  0  0  0  0  0  0
  139.0537  158.5316  135.1201 H   0  0  0  0  0  0  0  0  0  0  0  0
  140.4272  157.3740  135.1201 H   0  0  0  0  0  0  0  0  0  0  0  0
  143.1060  161.0330  133.6930 H   0  0  0  0  0  0  0  0  0  0  0  0
  147.9152  161.2795  133.4505 H   0  0  0  0  0  0  0  0  0  0  0  0
  149.6470  159.0850  132.8559 H   0  0  0  0  0  0  0  0  0  0  0  0
  149.6702  156.5970  132.4789 H   0  0  0  0  0  0  0  0  0  0  0  0
  146.7672  154.4131  133.2184 H   0  0  0  0  0  0  0  0  0  0  0  0
  147.3470  154.6511  131.5236 H   0  0  0  0  0  0  0  0  0  0  0  0
  149.6061  155.1102  133.1716 H   0  0  0  0  0  0  0  0  0  0  0  0
  148.7994  153.6586  133.8556 H   0  0  0  0  0  0  0  0  0  0  0  0
  150.5631  150.0523  131.4725 H   0  0  0  0  0  0  0  0  0  0  0  0
  149.1810  150.4417  130.3932 H   0  0  0  0  0  0  0  0  0  0  0  0
  150.6426  151.4860  130.3932 H   0  0  0  0  0  0  0  0  0  0  0  0
  145.3637  156.4547  133.1548 H   0  0  0  0  0  0  0  0  0  0  0  0
  1  2  1  0
  2  3  1  0
  3  4  2  0
  3  5  1  0
  5  6  1  0
  6  7  2  0
  6  8  1  0
  8  9  1  0
  9 10  1  0
 10 11  1  0
 10 12  2  0
  9 13  2  0
 13 14  1  0
 14 15  2  0
 15 16  1  0
 16 17  2  0
 17 18  1  0
 18 19  1  0
 19 20  1  0
 20 21  1  0
 21 22  1  0
 21 23  2  0
 21 24  2  0
 17 25  1  0
 25 26  2  0
 26  8  1  0
 26 14  1  0
  1 27  1  0
  1 28  1  0
  1 29  1  0
 11 30  1  0
 13 31  1  0
 15 32  1  0
 16 33  1  0
 18 34  1  0
 18 35  1  0
 19 36  1  0
 19 37  1  0
 22 38  1  0
 22 39  1  0
 22 40  1  0
 25 41  1  0
M  CHG  1  11  -1
M  END
>  <UniqueID>  (25) 
25

>  <SMILES>  (25) 
CSC(=O)OC(=O)n1c(C([NH-])=O)cc2ccc(CCOS(C)(=O)=O)cc21

>  <Energy>  (25) 
70.72890993995759

>  <Genealogy>  (25) 
CSC(=O)OC(=O)n1c(C([NH-])=O)cc2ccc(CCOS(C)(=O)=O)cc21 (protonated)
CSC(=O)OC(=O)n1c(C([NH-])=O)cc2ccc(CCOS(C)(=O)=O)cc21 (3D coordinates assigned)
CSC(=O)OC(=O)n1c(C([NH-])=O)cc2ccc(CCOS(C)(=O)=O)cc21 (optimized conformer: 70.72890993995759 kcal/mol)

>  <smiles>  (25) 
CSC(=O)OC(=O)n1c(C(N)=O)cc2ccc(CCOS(C)(=O)=O)cc21

>  <score_type>  (25) 
oracle

>  <origin>  (25) 
adg

>  <m_score__min__energy>  (25) 
-7.5800000000000001

>  <m_primary>  (25) 
energy

$$$$
25:0
     RDKit          3D

 34 35  0  0  0  0  0  0  0  0999 V2000
  141.2600  159.2980  136.0090 C   0  0  0  0  0  0  0  0  0  0  0  0
  141.7720  159.3690  134.7030 O   0  0  0  0  0  0  0  0  0  0  0  0
  143.0810  159.0120  134.7880 N   0  0  0  0  0  0  0  0  0  0  0  0
  143.8420  158.6950  133.6210 C   0  0  0  0  0  0  0  0  0  0  0  0
  143.2970  158.0820  132.6650 O   0  0  0  0  0  0  0  0  0  0  0  0
  145.2160  159.1060  133.5230 N   0  0  0  0  0  0  0  0  0  0  0  0
  145.7280  160.3600  133.6800 C   0  0  0  0  0  0  0  0  0  0  0  0
  144.9820  161.5490  134.1390 C   0  0  0  0  0  0  0  0  0  0  0  0
  143.6240  161.7300  133.7470 N   0  0  0  0  0  0  0  0  0  0  0  0
  145.5420  162.4280  134.8470 O   0  0  0  0  0  0  0  0  0  0  0  0
  147.0990  160.3620  133.4280 C   0  0  0  0  0  0  0  0  0  0  0  0
  147.4150  159.0590  133.1180 C   0  0  0  0  0  0  0  0  0  0  0  0
  148.6400  158.4910  132.7800 C   0  0  0  0  0  0  0  0  0  0  0  0
  148.6700  157.1170  132.4870 C   0  0  0  0  0  0  0  0  0  0  0  0
  147.4820  156.3400  132.5250 C   0  0  0  0  0  0  0  0  0  0  0  0
  147.5300  154.9270  132.2380 N   0  0  0  0  0  0  0  0  0  0  0  0
  148.0720  154.1680  133.3770 C   0  0  0  0  0  0  0  0  0  0  0  0
  149.0780  153.1450  132.9340 C   0  0  0  0  0  0  0  0  0  0  0  0
  149.6240  153.2400  131.8040 O   0  0  0  0  0  0  0  0  0  0  0  0
  149.4390  152.1110  133.7880 O   0  0  0  0  0  0  0  0  0  0  0  0
  146.2580  156.9550  132.8780 C   0  0  0  0  0  0  0  0  0  0  0  0
  146.2620  158.3210  133.1810 C   0  0  0  0  0  0  0  0  0  0  0  0
  142.0815  159.4119  136.7316 H   0  0  0  0  0  0  0  0  0  0  0  0
  140.5254  160.1029  136.1591 H   0  0  0  0  0  0  0  0  0  0  0  0
  140.7721  158.3236  136.1591 H   0  0  0  0  0  0  0  0  0  0  0  0
  142.9310  160.9530  133.8340 H   0  0  0  0  0  0  0  0  0  0  0  0
  147.7831  161.2225  133.4684 H   0  0  0  0  0  0  0  0  0  0  0  0
  149.5561  159.0988  132.7434 H   0  0  0  0  0  0  0  0  0  0  0  0
  149.6249  156.6377  132.2252 H   0  0  0  0  0  0  0  0  0  0  0  0
  146.5790  154.5690  131.9890 H   0  0  0  0  0  0  0  0  0  0  0  0
  148.1460  154.7670  131.4060 H   0  0  0  0  0  0  0  0  0  0  0  0
  148.5578  154.8677  134.0729 H   0  0  0  0  0  0  0  0  0  0  0  0
  147.2392  153.6410  133.8655 H   0  0  0  0  0  0  0  0  0  0  0  0
  145.3252  156.3731  132.9135 H   0  0  0  0  0  0  0  0  0  0  0  0
  1  2  1  0
  2  3  1  0
  3  4  1  0
  4  5  2  0
  4  6  1  0
  6  7  1  0
  7  8  1  0
  8  9  1  0
  8 10  2  0
  7 11  2  0
 11 12  1  0
 12 13  2  0
 13 14  1  0
 14 15  2  0
 15 16  1  0
 16 17  1  0
 17 18  1  0
 18 19  2  0
 18 20  1  0
 15 21  1  0
 21 22  2  0
 22  6  1  0
 22 12  1  0
  1 23  1  0
  1 24  1  0
  1 25  1  0
  9 26  1  0
 11 27  1  0
 13 28  1  0
 14 29  1  0
 16 30  1  0
 16 31  1  0
 17 32  1  0
 17 33  1  0
 21 34  1  0
M  CHG  4   3  -1   9  -1  16   1  20  -1
M  END
>  <UniqueID>  (26) 
26

>  <SMILES>  (26) 
CO[N-]C(=O)n1c(C([NH-])=O)cc2ccc([NH2+]CC(=O)[O-])cc21

>  <Energy>  (26) 
71.86638171784682

>  <Genealogy>  (26) 
CO[N-]C(=O)n1c(C([NH-])=O)cc2ccc([NH2+]CC(=O)[O-])cc21 (protonated)
CO[N-]C(=O)n1c(C([NH-])=O)cc2ccc([NH2+]CC(=O)[O-])cc21 (3D coordinates assigned)
CO[N-]C(=O)n1c(C([NH-])=O)cc2ccc([NH2+]CC(=O)[O-])cc21 (optimized conformer: 71.86638171784682 kcal/mol)

>  <smiles>  (26) 
CONC(=O)n1c(C(N)=O)cc2ccc(NCC(=O)O)cc21

>  <score_type>  (26) 
oracle

>  <origin>  (26) 
adg

>  <m_score__min__energy>  (26) 
-5.8600000000000003

>  <m_primary>  (26) 
energy

$$$$
26:0
     RDKit          3D

 37 38  0  0  0  0  0  0  0  0999 V2000
  138.6890  158.2460  135.6560 N   0  0  0  0  0  0  0  0  0  0  0  0
  139.1780  157.5810  134.4910 C   0  0  0  0  0  0  0  0  0  0  0  0
  138.3580  157.1130  133.6570 O   0  0  0  0  0  0  0  0  0  0  0  0
  140.6250  157.4910  134.2130 C   0  0  0  0  0  0  0  0  0  0  0  0
  141.2520  156.3200  133.7950 C   0  0  0  0  0  0  0  0  0  0  0  0
  142.5670  156.6670  133.5880 C   0  0  0  0  0  0  0  0  0  0  0  0
  143.6410  155.8860  133.1720 C   0  0  0  0  0  0  0  0  0  0  0  0
  144.9010  156.4980  133.0740 C   0  0  0  0  0  0  0  0  0  0  0  0
  145.0670  157.8640  133.4100 C   0  0  0  0  0  0  0  0  0  0  0  0
  146.4190  158.5140  133.2820 C   0  0  0  0  0  0  0  0  0  0  0  0
  146.2960  160.0360  133.3660 C   0  0  0  0  0  0  0  0  0  0  0  0
  147.5630  160.6570  132.9580 N   0  0  0  0  0  0  0  0  0  0  0  0
  148.3140  159.8260  132.0030 C   0  0  0  0  0  0  0  0  0  0  0  0
  148.7740  160.6010  130.7550 C   0  0  0  0  0  0  0  0  0  0  0  0
  148.8290  161.9790  131.0070 O   0  0  0  0  0  0  0  0  0  0  0  0
  143.9520  158.6290  133.8190 C   0  0  0  0  0  0  0  0  0  0  0  0
  142.7030  158.0000  133.8860 C   0  0  0  0  0  0  0  0  0  0  0  0
  141.5170  158.5210  134.2760 N   0  0  0  0  0  0  0  0  0  0  0  0
  141.2820  159.8510  134.7680 C   0  0  0  0  0  0  0  0  0  0  0  0
  141.5100  160.8500  134.0360 O   0  0  0  0  0  0  0  0  0  0  0  0
  140.7990  160.0510  136.0550 O   0  0  0  0  0  0  0  0  0  0  0  0
  139.3280  158.7910  136.2750 H   0  0  0  0  0  0  0  0  0  0  0  0
  137.6630  158.2670  135.8560 H   0  0  0  0  0  0  0  0  0  0  0  0
  140.7937  155.3293  133.6593 H   0  0  0  0  0  0  0  0  0  0  0  0
  143.5070  154.8219  132.9274 H   0  0  0  0  0  0  0  0  0  0  0  0
  145.7669  155.9114  132.7333 H   0  0  0  0  0  0  0  0  0  0  0  0
  147.0691  158.1587  134.0951 H   0  0  0  0  0  0  0  0  0  0  0  0
  146.8493  158.2469  132.3055 H   0  0  0  0  0  0  0  0  0  0  0  0
  145.4904  160.3754  132.6982 H   0  0  0  0  0  0  0  0  0  0  0  0
  146.0639  160.3267  134.4012 H   0  0  0  0  0  0  0  0  0  0  0  0
  147.3670  161.5940  132.5330 H   0  0  0  0  0  0  0  0  0  0  0  0
  149.2025  159.4245  132.5123 H   0  0  0  0  0  0  0  0  0  0  0  0
  147.6376  159.0286  131.6615 H   0  0  0  0  0  0  0  0  0  0  0  0
  149.7744  160.2493  130.4625 H   0  0  0  0  0  0  0  0  0  0  0  0
  148.0492  160.4228  129.9469 H   0  0  0  0  0  0  0  0  0  0  0  0
  148.0150  162.2050  131.5290 H   0  0  0  0  0  0  0  0  0  0  0  0
  144.0624  159.6923  134.0783 H   0  0  0  0  0  0  0  0  0  0  0  0
  1  2  1  0
  2  3  2  0
  2  4  1  0
  4  5  2  0
  5  6  1  0
  6  7  2  0
  7  8  1  0
  8  9  2  0
  9 10  1  0
 10 11  1  0
 11 12  1  0
 12 13  1  0
 13 14  1  0
 14 15  1  0
  9 16  1  0
 16 17  2  0
 17 18  1  0
 18 19  1  0
 19 20  2  0
 19 21  1  0
 18  4  1  0
 17  6  1  0
  1 22  1  0
  1 23  1  0
  5 24  1  0
  7 25  1  0
  8 26  1  0
 10 27  1  0
 10 28  1  0
 11 29  1  0
 11 30  1  0
 12 31  1  0
 13 32  1  0
 13 33  1  0
 14 34  1  0
 14 35  1  0
 15 36  1  0
 16 37  1  0
M  CHG  1  21  -1
M  END
>  <UniqueID>  (27) 
27

>  <SMILES>  (27) 
NC(=O)c1cc2ccc(CCNCCO)cc2n1C(=O)[O-]

>  <Energy>  (27) 
72.93676485171656

>  <Genealogy>  (27) 
NC(=O)c1cc2ccc(CCNCCO)cc2n1C(=O)[O-] (protonated)
NC(=O)c1cc2ccc(CCNCCO)cc2n1C(=O)[O-] (3D coordinates assigned)
NC(=O)c1cc2ccc(CCNCCO)cc2n1C(=O)[O-] (optimized conformer: 72.93676485171656 kcal/mol)

>  <smiles>  (27) 
NC(=O)c1cc2ccc(CCNCCO)cc2n1C(=O)O

>  <score_type>  (27) 
oracle

>  <origin>  (27) 
adg

>  <m_score__min__energy>  (27) 
-6.5700000000000003

>  <m_primary>  (27) 
energy

$$$$
27:0
     RDKit          3D

 46 47  0  0  0  0  0  0  0  0999 V2000
  148.2430  155.6690  132.6800 C   0  0  0  0  0  0  0  0  0  0  0  0
  148.5800  157.0180  133.1310 N   0  0  0  0  0  0  0  0  0  0  0  0
  147.6170  158.0850  133.2640 C   0  0  0  0  0  0  0  0  0  0  0  0
  148.0100  159.4530  133.2740 C   0  0  0  0  0  0  0  0  0  0  0  0
  147.0550  160.4780  133.4100 C   0  0  0  0  0  0  0  0  0  0  0  0
  145.7180  160.1100  133.5350 C   0  0  0  0  0  0  0  0  0  0  0  0
  144.5980  160.8910  133.7090 C   0  0  0  0  0  0  0  0  0  0  0  0
  143.5350  159.9940  133.7930 C   0  0  0  0  0  0  0  0  0  0  0  0
  142.1240  160.4120  133.9090 C   0  0  0  0  0  0  0  0  0  0  0  0
  141.1600  159.5230  134.4720 N   0  0  0  0  0  0  0  0  0  0  0  0
  141.7650  161.5610  133.5490 O   0  0  0  0  0  0  0  0  0  0  0  0
  143.9830  158.7090  133.6840 N   0  0  0  0  0  0  0  0  0  0  0  0
  143.2280  157.4940  133.7960 C   0  0  0  0  0  0  0  0  0  0  0  0
  143.0290  156.7880  132.7730 O   0  0  0  0  0  0  0  0  0  0  0  0
  142.7180  157.1110  135.0450 O   0  0  0  0  0  0  0  0  0  0  0  0
  141.3740  156.8130  135.3120 C   0  0  0  0  0  0  0  0  0  0  0  0
  140.7080  157.4950  136.1390 O   0  0  0  0  0  0  0  0  0  0  0  0
  140.7820  155.7380  134.6460 O   0  0  0  0  0  0  0  0  0  0  0  0
  139.9480  155.9060  133.5020 C   0  0  0  0  0  0  0  0  0  0  0  0
  139.4620  157.2450  133.4620 O   0  0  0  0  0  0  0  0  0  0  0  0
  139.6410  158.0750  132.3510 C   0  0  0  0  0  0  0  0  0  0  0  0
  140.8010  158.4530  132.0170 O   0  0  0  0  0  0  0  0  0  0  0  0
  138.5180  158.5070  131.6320 O   0  0  0  0  0  0  0  0  0  0  0  0
  138.4420  159.7710  130.9760 C   0  0  0  0  0  0  0  0  0  0  0  0
  139.1070  160.8420  131.8420 C   0  0  0  0  0  0  0  0  0  0  0  0
  136.9750  160.1160  130.7300 C   0  0  0  0  0  0  0  0  0  0  0  0
  145.3200  158.7980  133.5190 C   0  0  0  0  0  0  0  0  0  0  0  0
  146.2490  157.7580  133.3950 C   0  0  0  0  0  0  0  0  0  0  0  0
  148.0809  155.0202  133.5534 H   0  0  0  0  0  0  0  0  0  0  0  0
  147.3259  155.7035  132.0736 H   0  0  0  0  0  0  0  0  0  0  0  0
  149.0686  155.2682  132.0736 H   0  0  0  0  0  0  0  0  0  0  0  0
  149.5830  157.2090  133.3600 H   0  0  0  0  0  0  0  0  0  0  0  0
  149.0742  159.7126  133.1741 H   0  0  0  0  0  0  0  0  0  0  0  0
  147.3554  161.5362  133.4173 H   0  0  0  0  0  0  0  0  0  0  0  0
  144.5520  161.9884  133.7689 H   0  0  0  0  0  0  0  0  0  0  0  0
  141.1310  158.5190  134.1920 H   0  0  0  0  0  0  0  0  0  0  0  0
  140.5288  155.6992  132.5910 H   0  0  0  0  0  0  0  0  0  0  0  0
  139.0990  155.2090  133.5611 H   0  0  0  0  0  0  0  0  0  0  0  0
  138.9690  159.7265  130.0115 H   0  0  0  0  0  0  0  0  0  0  0  0
  138.9567  160.5999  132.9044 H   0  0  0  0  0  0  0  0  0  0  0  0
  140.1843  160.8744  131.6222 H   0  0  0  0  0  0  0  0  0  0  0  0
  138.6583  161.8220  131.6222 H   0  0  0  0  0  0  0  0  0  0  0  0
  136.4601  160.2371  131.6945 H   0  0  0  0  0  0  0  0  0  0  0  0
  136.9097  161.0540  130.1592 H   0  0  0  0  0  0  0  0  0  0  0  0
  136.4984  159.3054  130.1592 H   0  0  0  0  0  0  0  0  0  0  0  0
  145.9205  156.7082  133.3995 H   0  0  0  0  0  0  0  0  0  0  0  0
  1  2  1  0
  2  3  1  0
  3  4  2  0
  4  5  1  0
  5  6  2  0
  6  7  1  0
  7  8  2  0
  8  9  1  0
  9 10  1  0
  9 11  2  0
  8 12  1  0
 12 13  1  0
 13 14  2  0
 13 15  1  0
 15 16  1  0
 16 17  2  0
 16 18  1  0
 18 19  1  0
 19 20  1  0
 20 21  1  0
 21 22  2  0
 21 23  1  0
 23 24  1  0
 24 25  1  0
 24 26  1  0
 12 27  1  0
 27 28  2  0
 28  3  1  0
 27  6  1  0
  1 29  1  0
  1 30  1  0
  1 31  1  0
  2 32  1  0
  4 33  1  0
  5 34  1  0
  7 35  1  0
 10 36  1  0
 19 37  1  0
 19 38  1  0
 24 39  1  0
 25 40  1  0
 25 41  1  0
 25 42  1  0
 26 43  1  0
 26 44  1  0
 26 45  1  0
 28 46  1  0
M  CHG  1  10  -1
M  END
>  <UniqueID>  (28) 
28

>  <SMILES>  (28) 
CNc1ccc2cc(C([NH-])=O)n(C(=O)OC(=O)OCOC(=O)OC(C)C)c2c1

>  <Energy>  (28) 
76.0158517865158

>  <Genealogy>  (28) 
CNc1ccc2cc(C([NH-])=O)n(C(=O)OC(=O)OCOC(=O)OC(C)C)c2c1 (protonated)
CNc1ccc2cc(C([NH-])=O)n(C(=O)OC(=O)OCOC(=O)OC(C)C)c2c1 (3D coordinates assigned)
CNc1ccc2cc(C([NH-])=O)n(C(=O)OC(=O)OCOC(=O)OC(C)C)c2c1 (optimized conformer: 76.0158517865158 kcal/mol)

>  <smiles>  (28) 
CNc1ccc2cc(C(N)=O)n(C(=O)OC(=O)OCOC(=O)OC(C)C)c2c1

>  <score_type>  (28) 
oracle

>  <origin>  (28) 
adg

>  <m_score__min__energy>  (28) 
-6.8600000000000003

>  <m_primary>  (28) 
energy

$$$$
28:0
     RDKit          3D

 45 47  0  0  0  0  0  0  0  0999 V2000
  150.3733  158.7397  130.2655 H   0  0  0  0  0  0  0  0  0  0  0  0
  149.5890  158.9930  130.9940 C   0  0  0  0  0  0  0  0  0  0  0  0
  148.9740  160.3270  130.8890 C   0  0  0  0  0  0  0  0  0  0  0  0
  147.7270  160.4510  130.7420 O   0  0  0  0  0  0  0  0  0  0  0  0
  149.8000  161.4530  130.8900 O   0  0  0  0  0  0  0  0  0  0  0  0
  149.6050  162.5450  130.0000 C   0  0  0  0  0  0  0  0  0  0  0  0
  149.4406  163.4654  130.5795 H   0  0  0  0  0  0  0  0  0  0  0  0
  150.4959  162.6650  129.3661 H   0  0  0  0  0  0  0  0  0  0  0  0
  148.7276  162.3492  129.3661 H   0  0  0  0  0  0  0  0  0  0  0  0
  149.2710  158.0620  131.9050 C   0  0  0  0  0  0  0  0  0  0  0  0
  149.6876  157.0544  131.7592 H   0  0  0  0  0  0  0  0  0  0  0  0
  148.4090  158.2710  133.0890 C   0  0  0  0  0  0  0  0  0  0  0  0
  148.8210  159.0360  134.0010 O   0  0  0  0  0  0  0  0  0  0  0  0
  147.0980  157.6850  133.1980 N   0  0  0  0  0  0  0  0  0  0  0  0
  145.9030  158.3230  133.3610 C   0  0  0  0  0  0  0  0  0  0  0  0
  145.7280  159.7730  133.5930 C   0  0  0  0  0  0  0  0  0  0  0  0
  144.6600  160.2070  134.0980 O   0  0  0  0  0  0  0  0  0  0  0  0
  146.7510  160.6980  133.2230 N   0  0  0  0  0  0  0  0  0  0  0  0
  147.6720  160.3700  132.8560 H   0  0  0  0  0  0  0  0  0  0  0  0
  146.6050  161.7230  133.3590 H   0  0  0  0  0  0  0  0  0  0  0  0
  144.8570  157.4030  133.3690 C   0  0  0  0  0  0  0  0  0  0  0  0
  143.7827  157.6152  133.4731 H   0  0  0  0  0  0  0  0  0  0  0  0
  145.4540  156.1720  133.2190 C   0  0  0  0  0  0  0  0  0  0  0  0
  144.8880  154.9080  133.1570 C   0  0  0  0  0  0  0  0  0  0  0  0
  143.8003  154.7705  133.2471 H   0  0  0  0  0  0  0  0  0  0  0  0
  145.7420  153.8080  132.9760 C   0  0  0  0  0  0  0  0  0  0  0  0
  145.3136  152.7958  132.9318 H   0  0  0  0  0  0  0  0  0  0  0  0
  147.1550  153.9750  132.8480 C   0  0  0  0  0  0  0  0  0  0  0  0
  148.0350  152.8260  132.6470 N   0  0  0  0  0  0  0  0  0  0  0  0
  147.4480  151.5260  132.2540 C   0  0  0  0  0  0  0  0  0  0  0  0
  146.6934  151.2443  133.0032 H   0  0  0  0  0  0  0  0  0  0  0  0
  147.0135  151.6577  131.2521 H   0  0  0  0  0  0  0  0  0  0  0  0
  148.4760  150.3950  132.1530 C   0  0  0  0  0  0  0  0  0  0  0  0
  148.6660  149.9906  133.1582 H   0  0  0  0  0  0  0  0  0  0  0  0
  148.0730  149.6126  131.4931 H   0  0  0  0  0  0  0  0  0  0  0  0
  149.6870  150.8620  131.6080 O   0  0  0  0  0  0  0  0  0  0  0  0
  150.2940  151.7180  132.5450 C   0  0  0  0  0  0  0  0  0  0  0  0
  150.3407  151.2096  133.5193 H   0  0  0  0  0  0  0  0  0  0  0  0
  151.3056  151.9649  132.1904 H   0  0  0  0  0  0  0  0  0  0  0  0
  149.4990  153.0180  132.6960 C   0  0  0  0  0  0  0  0  0  0  0  0
  149.7577  153.4733  133.6634 H   0  0  0  0  0  0  0  0  0  0  0  0
  149.7683  153.6611  131.8451 H   0  0  0  0  0  0  0  0  0  0  0  0
  147.6800  155.2970  132.9280 C   0  0  0  0  0  0  0  0  0  0  0  0
  148.7620  155.4729  132.8367 H   0  0  0  0  0  0  0  0  0  0  0  0
  146.8030  156.3680  133.1240 C   0  0  0  0  0  0  0  0  0  0  0  0
  1  2  1  0
  2  3  1  0
  3  4  2  0
  3  5  1  0
  5  6  1  0
  6  7  1  0
  6  8  1  0
  6  9  1  0
  2 10  2  0
 10 11  1  0
 10 12  1  0
 12 13  2  0
 12 14  1  0
 14 15  1  0
 15 16  1  0
 16 17  2  0
 16 18  1  0
 18 19  1  0
 18 20  1  0
 15 21  2  0
 21 22  1  0
 21 23  1  0
 23 24  2  0
 24 25  1  0
 24 26  1  0
 26 27  1  0
 26 28  2  0
 28 29  1  0
 29 30  1  0
 30 31  1  0
 30 32  1  0
 30 33  1  0
 33 34  1  0
 33 35  1  0
 33 36  1  0
 36 37  1  0
 37 38  1  0
 37 39  1  0
 37 40  1  0
 40 41  1  0
 40 42  1  0
 28 43  1  0
 43 44  1  0
 43 45  2  0
 45 14  1  0
 45 23  1  0
 40 29  1  0
M  END
>  <UniqueID>  (29) 
29

>  <SMILES>  (29) 
COC(=O)/C=C\C(=O)n1c(C(N)=O)cc2ccc(N3CCOCC3)cc21

>  <Energy>  (29) 
95.80853983893847

>  <Genealogy>  (29) 
COC(=O)/C=C\C(=O)n1c(C(N)=O)cc2ccc(N3CCOCC3)cc21 (cis-trans isomerization)
COC(=O)/C=C\C(=O)n1c(C(N)=O)cc2ccc(N3CCOCC3)cc21 (3D coordinates assigned)
COC(=O)/C=C\C(=O)n1c(C(N)=O)cc2ccc(N3CCOCC3)cc21 (nonaromatic ring conformer: 95.80853983893847 kcal/mol)

>  <smiles>  (29) 
COC(=O)/C=C\C(=O)n1c(C(N)=O)cc2ccc(N3CCOCC3)cc21

>  <score_type>  (29) 
oracle

>  <origin>  (29) 
adg

>  <m_score__min__energy>  (29) 
-7.5999999999999996

>  <m_primary>  (29) 
energy

$$$$
29:0
     RDKit          3D

 42 44  0  0  0  0  0  0  0  0999 V2000
  140.9440  159.7370  135.9880 C   0  0  0  0  0  0  0  0  0  0  0  0
  141.2390  158.6920  134.9890 N   0  0  2  0  0  0  0  0  0  0  0  0
  140.0120  158.1050  134.4040 C   0  0  0  0  0  0  0  0  0  0  0  0
  139.7040  158.6060  133.0180 C   0  0  0  0  0  0  0  0  0  0  0  0
  138.6410  158.2600  132.4420 O   0  0  0  0  0  0  0  0  0  0  0  0
  140.5850  159.4690  132.3770 O   0  0  0  0  0  0  0  0  0  0  0  0
  142.1100  157.6700  135.5210 C   0  0  0  0  0  0  0  0  0  0  0  0
  141.7880  157.0330  136.5640 O   0  0  0  0  0  0  0  0  0  0  0  0
  143.2950  157.3650  134.8360 O   0  0  0  0  0  0  0  0  0  0  0  0
  143.6760  157.9060  133.6000 C   0  0  0  0  0  0  0  0  0  0  0  0
  142.9130  157.8300  132.5990 O   0  0  0  0  0  0  0  0  0  0  0  0
  144.9580  158.5430  133.4730 N   0  0  0  0  0  0  0  0  0  0  0  0
  145.2540  159.8590  133.6650 C   0  0  0  0  0  0  0  0  0  0  0  0
  144.2780  160.9500  133.8600 C   0  0  0  0  0  0  0  0  0  0  0  0
  142.8780  160.7070  133.7500 N   0  0  0  0  0  0  0  0  0  0  0  0
  144.6850  162.1230  134.0760 O   0  0  0  0  0  0  0  0  0  0  0  0
  146.6280  160.0700  133.5670 C   0  0  0  0  0  0  0  0  0  0  0  0
  147.1680  158.8330  133.2980 C   0  0  0  0  0  0  0  0  0  0  0  0
  148.4930  158.4590  133.1080 C   0  0  0  0  0  0  0  0  0  0  0  0
  148.7680  157.1040  132.8660 C   0  0  0  0  0  0  0  0  0  0  0  0
  147.7180  156.1400  132.8260 C   0  0  0  0  0  0  0  0  0  0  0  0
  147.9460  154.6580  132.5750 C   0  0  0  0  0  0  0  0  0  0  0  0
  149.3870  154.1690  132.6140 C   0  0  0  0  0  0  0  0  0  0  0  0
  148.4300  153.8110  133.7440 C   0  0  0  0  0  0  0  0  0  0  0  0
  146.3860  156.5680  133.0250 C   0  0  0  0  0  0  0  0  0  0  0  0
  146.1410  157.9280  133.2460 C   0  0  0  0  0  0  0  0  0  0  0  0
  141.0615  159.3209  136.9995 H   0  0  0  0  0  0  0  0  0  0  0  0
  141.6397  160.5786  135.8547 H   0  0  0  0  0  0  0  0  0  0  0  0
  139.9109  160.0906  135.8547 H   0  0  0  0  0  0  0  0  0  0  0  0
  141.7550  159.1610  134.2070 H   0  0  0  0  0  0  0  0  0  0  0  0
  140.1365  157.0130  134.3591 H   0  0  0  0  0  0  0  0  0  0  0  0
  139.1727  158.4050  135.0487 H   0  0  0  0  0  0  0  0  0  0  0  0
  142.5180  159.8560  133.2650 H   0  0  0  0  0  0  0  0  0  0  0  0
  147.1664  161.0225  133.6805 H   0  0  0  0  0  0  0  0  0  0  0  0
  149.3023  159.2030  133.1462 H   0  0  0  0  0  0  0  0  0  0  0  0
  149.8073  156.7815  132.7051 H   0  0  0  0  0  0  0  0  0  0  0  0
  147.1138  154.5854  131.8593 H   0  0  0  0  0  0  0  0  0  0  0  0
  149.7235  153.3924  131.9114 H   0  0  0  0  0  0  0  0  0  0  0  0
  150.3739  154.6510  132.5538 H   0  0  0  0  0  0  0  0  0  0  0  0
  148.0753  152.7759  133.8574 H   0  0  0  0  0  0  0  0  0  0  0  0
  148.4394  153.9274  134.8378 H   0  0  0  0  0  0  0  0  0  0  0  0
  145.5569  155.8453  133.0065 H   0  0  0  0  0  0  0  0  0  0  0  0
  1  2  1  0
  2  3  1  0
  3  4  1  0
  4  5  2  0
  4  6  1  0
  2  7  1  0
  7  8  2  0
  7  9  1  0
  9 10  1  0
 10 11  2  0
 10 12  1  0
 12 13  1  0
 13 14  1  0
 14 15  1  0
 14 16  2  0
 13 17  2  0
 17 18  1  0
 18 19  2  0
 19 20  1  0
 20 21  2  0
 21 22  1  0
 22 23  1  0
 23 24  1  0
 21 25  1  0
 25 26  2  0
 26 12  1  0
 26 18  1  0
 24 22  1  0
  1 27  1  0
  1 28  1  0
  1 29  1  0
  2 30  1  6
  3 31  1  0
  3 32  1  0
 15 33  1  0
 17 34  1  0
 19 35  1  0
 20 36  1  0
 22 37  1  0
 23 38  1  0
 23 39  1  0
 24 40  1  0
 24 41  1  0
 25 42  1  0
M  CHG  3   2   1   6  -1  15  -1
M  END
>  <UniqueID>  (30) 
30

>  <SMILES>  (30) 
C[N@H+](CC(=O)[O-])C(=O)OC(=O)n1c(C([NH-])=O)cc2ccc(C3CC3)cc21

>  <Energy>  (30) 
354.2928145805012

>  <Genealogy>  (30) 
C[NH+](CC(=O)[O-])C(=O)OC(=O)n1c(C([NH-])=O)cc2ccc(C3CC3)cc21 (protonated)
C[N@H+](CC(=O)[O-])C(=O)OC(=O)n1c(C([NH-])=O)cc2ccc(C3CC3)cc21 (chirality)
C[N@H+](CC(=O)[O-])C(=O)OC(=O)n1c(C([NH-])=O)cc2ccc(C3CC3)cc21 (3D coordinates assigned)
C[N@H+](CC(=O)[O-])C(=O)OC(=O)n1c(C([NH-])=O)cc2ccc(C3CC3)cc21 (nonaromatic ring conformer: 354.2928145805012 kcal/mol)

>  <smiles>  (30) 
CN(CC(=O)O)C(=O)OC(=O)n1c(C(N)=O)cc2ccc(C3CC3)cc21

>  <score_type>  (30) 
oracle

>  <origin>  (30) 
adg

>  <m_score__min__energy>  (30) 
-6.2999999999999998

>  <m_primary>  (30) 
energy

$$$$
30:0
     RDKit          3D

 42 43  0  0  0  0  0  0  0  0999 V2000
  148.8830  154.9160  132.6280 C   0  0  0  0  0  0  0  0  0  0  0  0
  147.9070  155.3150  133.6630 N   0  0  0  0  0  0  0  0  0  0  0  0
  147.6880  154.4200  134.8070 C   0  0  0  0  0  0  0  0  0  0  0  0
  147.1940  156.5800  133.5640 C   0  0  0  0  0  0  0  0  0  0  0  0
  147.8970  157.7910  133.3220 C   0  0  0  0  0  0  0  0  0  0  0  0
  147.2220  159.0170  133.2320 C   0  0  0  0  0  0  0  0  0  0  0  0
  145.8400  159.0170  133.3870 C   0  0  0  0  0  0  0  0  0  0  0  0
  144.9600  160.0710  133.3800 C   0  0  0  0  0  0  0  0  0  0  0  0
  143.7080  159.5040  133.5950 C   0  0  0  0  0  0  0  0  0  0  0  0
  142.4670  160.2950  133.6410 C   0  0  0  0  0  0  0  0  0  0  0  0
  141.1950  159.6560  133.5410 N   0  0  0  0  0  0  0  0  0  0  0  0
  142.5330  161.5510  133.7340 O   0  0  0  0  0  0  0  0  0  0  0  0
  143.8010  158.1520  133.7590 N   0  0  0  0  0  0  0  0  0  0  0  0
  142.7400  157.2560  134.1590 C   0  0  0  0  0  0  0  0  0  0  0  0
  142.4830  157.0770  135.3840 O   0  0  0  0  0  0  0  0  0  0  0  0
  141.9730  156.5970  133.1880 O   0  0  0  0  0  0  0  0  0  0  0  0
  140.5740  156.3670  133.3200 C   0  0  0  0  0  0  0  0  0  0  0  0
  139.8500  157.1050  132.3360 O   0  0  0  0  0  0  0  0  0  0  0  0
  138.9700  158.1510  132.6510 C   0  0  0  0  0  0  0  0  0  0  0  0
  138.8870  158.5950  133.8280 O   0  0  0  0  0  0  0  0  0  0  0  0
  138.0920  158.7170  131.5810 C   0  0  0  0  0  0  0  0  0  0  0  0
  138.6080  160.0510  131.1540 C   0  0  0  0  0  0  0  0  0  0  0  0
  138.3800  160.4780  129.9890 O   0  0  0  0  0  0  0  0  0  0  0  0
  139.2410  160.8710  132.0740 O   0  0  0  0  0  0  0  0  0  0  0  0
  145.1250  157.8680  133.6160 C   0  0  0  0  0  0  0  0  0  0  0  0
  145.7840  156.6290  133.7130 C   0  0  0  0  0  0  0  0  0  0  0  0
  149.7977  154.5421  133.1113 H   0  0  0  0  0  0  0  0  0  0  0  0
  148.4491  154.1231  132.0011 H   0  0  0  0  0  0  0  0  0  0  0  0
  149.1288  155.7858  132.0011 H   0  0  0  0  0  0  0  0  0  0  0  0
  147.8253  154.9811  135.7431 H   0  0  0  0  0  0  0  0  0  0  0  0
  146.6649  154.0178  134.7673 H   0  0  0  0  0  0  0  0  0  0  0  0
  148.4098  153.5909  134.7673 H   0  0  0  0  0  0  0  0  0  0  0  0
  148.9903  157.7664  133.2031 H   0  0  0  0  0  0  0  0  0  0  0  0
  147.7701  159.9520  133.0441 H   0  0  0  0  0  0  0  0  0  0  0  0
  145.1948  161.1359  133.2354 H   0  0  0  0  0  0  0  0  0  0  0  0
  140.3170  160.2160  133.6110 H   0  0  0  0  0  0  0  0  0  0  0  0
  141.1300  158.6300  133.3370 H   0  0  0  0  0  0  0  0  0  0  0  0
  140.3699  155.2939  133.1901 H   0  0  0  0  0  0  0  0  0  0  0  0
  140.2525  156.6965  134.3190 H   0  0  0  0  0  0  0  0  0  0  0  0
  138.0837  158.0356  130.7175 H   0  0  0  0  0  0  0  0  0  0  0  0
  137.0708  158.8321  131.9733 H   0  0  0  0  0  0  0  0  0  0  0  0
  145.2124  155.7084  133.9023 H   0  0  0  0  0  0  0  0  0  0  0  0
  1  2  1  0
  2  3  1  0
  2  4  1  0
  4  5  2  0
  5  6  1  0
  6  7  2  0
  7  8  1  0
  8  9  2  0
  9 10  1  0
 10 11  1  0
 10 12  2  0
  9 13  1  0
 13 14  1  0
 14 15  2  0
 14 16  1  0
 16 17  1  0
 17 18  1  0
 18 19  1  0
 19 20  2  0
 19 21  1  0
 21 22  1  0
 22 23  2  0
 22 24  1  0
 13 25  1  0
 25 26  2  0
 26  4  1  0
 25  7  1  0
  1 27  1  0
  1 28  1  0
  1 29  1  0
  3 30  1  0
  3 31  1  0
  3 32  1  0
  5 33  1  0
  6 34  1  0
  8 35  1  0
 11 36  1  0
 11 37  1  0
 17 38  1  0
 17 39  1  0
 21 40  1  0
 21 41  1  0
 26 42  1  0
M  CHG  1  24  -1
M  END
>  <UniqueID>  (31) 
31

>  <SMILES>  (31) 
CN(C)c1ccc2cc(C(N)=O)n(C(=O)OCOC(=O)CC(=O)[O-])c2c1

>  <Energy>  (31) 
78.66658474611927

>  <Genealogy>  (31) 
CN(C)c1ccc2cc(C(N)=O)n(C(=O)OCOC(=O)CC(=O)[O-])c2c1 (protonated)
CN(C)c1ccc2cc(C(N)=O)n(C(=O)OCOC(=O)CC(=O)[O-])c2c1 (3D coordinates assigned)
CN(C)c1ccc2cc(C(N)=O)n(C(=O)OCOC(=O)CC(=O)[O-])c2c1 (optimized conformer: 78.66658474611927 kcal/mol)

>  <smiles>  (31) 
CN(C)c1ccc2cc(C(N)=O)n(C(=O)OCOC(=O)CC(=O)O)c2c1

>  <score_type>  (31) 
oracle

>  <origin>  (31) 
adg

>  <m_score__min__energy>  (31) 
-6.8300000000000001

>  <m_primary>  (31) 
energy

$$$$
31:0
     RDKit          3D

 54 56  0  0  0  0  0  0  0  0999 V2000
  147.6450  159.7180  131.8600 C   0  0  0  0  0  0  0  0  0  0  0  0
  147.2900  158.4090  132.3960 N   0  0  0  0  0  0  0  0  0  0  0  0
  147.8500  157.9220  133.6240 C   0  0  0  0  0  0  0  0  0  0  0  0
  148.6750  158.6260  134.2690 O   0  0  0  0  0  0  0  0  0  0  0  0
  147.4090  156.6040  134.1820 C   0  0  0  0  0  0  0  0  0  0  0  0
  146.5880  155.9330  133.2310 O   0  0  0  0  0  0  0  0  0  0  0  0
  145.1900  155.7900  133.2970 C   0  0  0  0  0  0  0  0  0  0  0  0
  144.6940  154.4920  133.5000 C   0  0  0  0  0  0  0  0  0  0  0  0
  145.6180  153.4420  133.6380 O   0  0  0  0  0  0  0  0  0  0  0  0
  145.9260  152.5010  132.6150 C   0  0  0  0  0  0  0  0  0  0  0  0
  143.3060  154.2700  133.5390 C   0  0  0  0  0  0  0  0  0  0  0  0
  142.4080  155.3250  133.3770 C   0  0  0  0  0  0  0  0  0  0  0  0
  141.0350  155.0320  133.3550 O   0  0  0  0  0  0  0  0  0  0  0  0
  140.0080  155.9270  133.6830 C   0  0  0  0  0  0  0  0  0  0  0  0
  138.8190  155.6940  133.3350 O   0  0  0  0  0  0  0  0  0  0  0  0
  140.3300  157.1510  134.3620 N   0  0  0  0  0  0  0  0  0  0  0  0
  140.2040  158.4200  133.8820 C   0  0  0  0  0  0  0  0  0  0  0  0
  139.8790  158.7910  132.4890 C   0  0  0  0  0  0  0  0  0  0  0  0
  138.7510  158.2230  131.8290 N   0  0  0  0  0  0  0  0  0  0  0  0
  140.6370  159.5740  131.8550 O   0  0  0  0  0  0  0  0  0  0  0  0
  140.5060  159.3520  134.8730 C   0  0  0  0  0  0  0  0  0  0  0  0
  140.8360  158.6080  135.9820 C   0  0  0  0  0  0  0  0  0  0  0  0
  141.2010  159.0240  137.2590 C   0  0  0  0  0  0  0  0  0  0  0  0
  141.4550  158.0360  138.2240 C   0  0  0  0  0  0  0  0  0  0  0  0
  141.3520  156.6580  137.8990 C   0  0  0  0  0  0  0  0  0  0  0  0
  141.5720  155.6110  138.9620 C   0  0  0  0  0  0  0  0  0  0  0  0
  140.3720  155.0220  139.3220 F   0  0  0  0  0  0  0  0  0  0  0  0
  142.4230  154.6380  138.4720 F   0  0  0  0  0  0  0  0  0  0  0  0
  142.1330  156.1740  140.0950 F   0  0  0  0  0  0  0  0  0  0  0  0
  140.9520  156.2780  136.5970 C   0  0  0  0  0  0  0  0  0  0  0  0
  140.7230  157.2830  135.6500 C   0  0  0  0  0  0  0  0  0  0  0  0
  142.9000  156.6240  133.1870 C   0  0  0  0  0  0  0  0  0  0  0  0
  144.2860  156.8750  133.1600 C   0  0  0  0  0  0  0  0  0  0  0  0
  144.7810  158.1810  133.0060 O   0  0  0  0  0  0  0  0  0  0  0  0
  144.1250  159.3620  133.4520 C   0  0  0  0  0  0  0  0  0  0  0  0
  147.8340  160.4150  132.6897 H   0  0  0  0  0  0  0  0  0  0  0  0
  148.5512  159.6281  131.2430 H   0  0  0  0  0  0  0  0  0  0  0  0
  146.8175  160.0983  131.2430 H   0  0  0  0  0  0  0  0  0  0  0  0
  146.6090  157.8150  131.8670 H   0  0  0  0  0  0  0  0  0  0  0  0
  148.2919  155.9865  134.4037 H   0  0  0  0  0  0  0  0  0  0  0  0
  146.8356  156.7719  135.1056 H   0  0  0  0  0  0  0  0  0  0  0  0
  146.2371  151.5504  133.0728 H   0  0  0  0  0  0  0  0  0  0  0  0
  145.0358  152.3334  131.9909 H   0  0  0  0  0  0  0  0  0  0  0  0
  146.7430  152.8922  131.9909 H   0  0  0  0  0  0  0  0  0  0  0  0
  142.9234  153.2512  133.6993 H   0  0  0  0  0  0  0  0  0  0  0  0
  138.2210  157.4310  132.2540 H   0  0  0  0  0  0  0  0  0  0  0  0
  140.4850  160.4484  134.7869 H   0  0  0  0  0  0  0  0  0  0  0  0
  141.2878  160.0927  137.5046 H   0  0  0  0  0  0  0  0  0  0  0  0
  141.7373  158.3336  139.2446 H   0  0  0  0  0  0  0  0  0  0  0  0
  140.8238  155.2175  136.3346 H   0  0  0  0  0  0  0  0  0  0  0  0
  142.1946  157.4581  133.0573 H   0  0  0  0  0  0  0  0  0  0  0  0
  144.1138  159.3822  134.5518 H   0  0  0  0  0  0  0  0  0  0  0  0
  144.6621  160.2446  133.0745 H   0  0  0  0  0  0  0  0  0  0  0  0
  143.0918  159.3724  133.0745 H   0  0  0  0  0  0  0  0  0  0  0  0
  1  2  1  0
  2  3  1  0
  3  4  2  0
  3  5  1  0
  5  6  1  0
  6  7  1  0
  7  8  2  0
  8  9  1  0
  9 10  1  0
  8 11  1  0
 11 12  2  0
 12 13  1  0
 13 14  1  0
 14 15  2  0
 14 16  1  0
 16 17  1  0
 17 18  1  0
 18 19  1  0
 18 20  2  0
 17 21  2  0
 21 22  1  0
 22 23  2  0
 23 24  1  0
 24 25  2  0
 25 26  1  0
 26 27  1  0
 26 28  1  0
 26 29  1  0
 25 30  1  0
 30 31  2  0
 12 32  1  0
 32 33  2  0
 33 34  1  0
 34 35  1  0
 33  7  1  0
 31 16  1  0
 31 22  1  0
  1 36  1  0
  1 37  1  0
  1 38  1  0
  2 39  1  0
  5 40  1  0
  5 41  1  0
 10 42  1  0
 10 43  1  0
 10 44  1  0
 11 45  1  0
 19 46  1  0
 21 47  1  0
 23 48  1  0
 24 49  1  0
 30 50  1  0
 32 51  1  0
 35 52  1  0
 35 53  1  0
 35 54  1  0
M  CHG  1  19  -1
M  END
>  <UniqueID>  (32) 
32

>  <SMILES>  (32) 
CNC(=O)COc1c(OC)cc(OC(=O)n2c(C([NH-])=O)cc3ccc(C(F)(F)F)cc32)cc1OC

>  <Energy>  (32) 
98.15148194569547

>  <Genealogy>  (32) 
CNC(=O)COc1c(OC)cc(OC(=O)n2c(C([NH-])=O)cc3ccc(C(F)(F)F)cc32)cc1OC (protonated)
CNC(=O)COc1c(OC)cc(OC(=O)n2c(C([NH-])=O)cc3ccc(C(F)(F)F)cc32)cc1OC (3D coordinates assigned)
CNC(=O)COc1c(OC)cc(OC(=O)n2c(C([NH-])=O)cc3ccc(C(F)(F)F)cc32)cc1OC (optimized conformer: 98.15148194569547 kcal/mol)

>  <smiles>  (32) 
CNC(=O)COc1c(OC)cc(OC(=O)n2c(C(N)=O)cc3ccc(C(F)(F)F)cc32)cc1OC

>  <score_type>  (32) 
oracle

>  <origin>  (32) 
adg

>  <m_score__min__energy>  (32) 
-6.8700000000000001

>  <m_primary>  (32) 
energy

$$$$
32:0
     RDKit          3D

 51 53  0  0  0  0  0  0  0  0999 V2000
  147.7360  155.0250  133.8490 C   0  0  0  0  0  0  0  0  0  0  0  0
  146.8560  155.3160  135.0760 C   0  0  1  0  0  0  0  0  0  0  0  0
  146.3730  156.6360  135.0420 O   0  0  0  0  0  0  0  0  0  0  0  0
  145.6940  154.3060  135.2630 C   0  0  2  0  0  0  0  0  0  0  0  0
  144.3950  154.9730  135.1000 N   0  0  0  0  0  0  0  0  0  0  0  0
  144.0230  155.6320  133.8790 C   0  0  0  0  0  0  0  0  0  0  0  0
  144.7870  155.5870  132.8770 O   0  0  0  0  0  0  0  0  0  0  0  0
  142.7520  156.3750  133.7850 C   0  0  0  0  0  0  0  0  0  0  0  0
  141.6900  155.7710  133.4730 O   0  0  0  0  0  0  0  0  0  0  0  0
  142.7000  157.7760  134.0980 N   0  0  0  0  0  0  0  0  0  0  0  0
  141.6540  158.4860  134.6080 C   0  0  0  0  0  0  0  0  0  0  0  0
  140.3670  157.9260  135.0690 C   0  0  0  0  0  0  0  0  0  0  0  0
  139.9400  158.0830  136.4200 N   0  0  0  0  0  0  0  0  0  0  0  0
  139.6180  157.3270  134.2530 O   0  0  0  0  0  0  0  0  0  0  0  0
  141.9880  159.8360  134.7050 C   0  0  0  0  0  0  0  0  0  0  0  0
  143.2830  159.9270  134.2450 C   0  0  0  0  0  0  0  0  0  0  0  0
  144.1160  161.0330  134.1160 C   0  0  0  0  0  0  0  0  0  0  0  0
  145.4040  160.8320  133.5940 C   0  0  0  0  0  0  0  0  0  0  0  0
  145.8400  159.5360  133.2050 C   0  0  0  0  0  0  0  0  0  0  0  0
  147.1650  159.3400  132.6640 N   0  0  0  0  0  0  0  0  0  0  0  0
  148.0750  160.4770  132.4710 C   0  0  0  0  0  0  0  0  0  0  0  0
  149.0270  160.1970  131.3010 C   0  0  0  0  0  0  0  0  0  0  0  0
  149.7750  158.9300  131.4410 N   0  0  0  0  0  0  0  0  0  0  0  0
  149.1740  157.9480  132.3600 C   0  0  0  0  0  0  0  0  0  0  0  0
  147.6420  157.9900  132.3360 C   0  0  0  0  0  0  0  0  0  0  0  0
  144.9600  158.4370  133.3570 C   0  0  0  0  0  0  0  0  0  0  0  0
  143.6890  158.6680  133.8890 C   0  0  0  0  0  0  0  0  0  0  0  0
  145.7610  153.5790  136.5840 C   0  0  0  0  0  0  0  0  0  0  0  0
  144.7520  153.5100  137.3350 O   0  0  0  0  0  0  0  0  0  0  0  0
  146.9590  153.0110  136.9980 O   0  0  0  0  0  0  0  0  0  0  0  0
  148.7315  154.6958  134.1815 H   0  0  0  0  0  0  0  0  0  0  0  0
  147.2710  154.2328  133.2439 H   0  0  0  0  0  0  0  0  0  0  0  0
  147.8350  155.9382  133.2439 H   0  0  0  0  0  0  0  0  0  0  0  0
  147.5073  155.1929  135.9539 H   0  0  0  0  0  0  0  0  0  0  0  0
  146.0510  156.8210  134.1220 H   0  0  0  0  0  0  0  0  0  0  0  0
  145.8045  153.5445  134.4769 H   0  0  0  0  0  0  0  0  0  0  0  0
  143.7430  155.0270  135.9140 H   0  0  0  0  0  0  0  0  0  0  0  0
  139.4810  158.9650  136.7390 H   0  0  0  0  0  0  0  0  0  0  0  0
  141.3519  160.6552  135.0714 H   0  0  0  0  0  0  0  0  0  0  0  0
  143.7760  162.0358  134.4141 H   0  0  0  0  0  0  0  0  0  0  0  0
  146.0849  161.6890  133.4846 H   0  0  0  0  0  0  0  0  0  0  0  0
  147.4870  161.3809  132.2534 H   0  0  0  0  0  0  0  0  0  0  0  0
  148.6647  160.6260  133.3875 H   0  0  0  0  0  0  0  0  0  0  0  0
  148.4362  160.1522  130.3742 H   0  0  0  0  0  0  0  0  0  0  0  0
  149.7675  161.0102  131.2841 H   0  0  0  0  0  0  0  0  0  0  0  0
  150.7400  159.1470  131.7860 H   0  0  0  0  0  0  0  0  0  0  0  0
  149.5048  156.9407  132.0669 H   0  0  0  0  0  0  0  0  0  0  0  0
  149.5014  158.1976  133.3800 H   0  0  0  0  0  0  0  0  0  0  0  0
  147.2869  157.7133  131.3323 H   0  0  0  0  0  0  0  0  0  0  0  0
  147.2524  157.2813  133.0816 H   0  0  0  0  0  0  0  0  0  0  0  0
  145.2704  157.4236  133.0626 H   0  0  0  0  0  0  0  0  0  0  0  0
  1  2  1  0
  2  3  1  0
  2  4  1  0
  4  5  1  0
  5  6  1  0
  6  7  2  0
  6  8  1  0
  8  9  2  0
  8 10  1  0
 10 11  1  0
 11 12  1  0
 12 13  1  0
 12 14  2  0
 11 15  2  0
 15 16  1  0
 16 17  2  0
 17 18  1  0
 18 19  2  0
 19 20  1  0
 20 21  1  0
 21 22  1  0
 22 23  1  0
 23 24  1  0
 24 25  1  0
 19 26  1  0
 26 27  2  0
  4 28  1  0
 28 29  2  0
 28 30  1  0
 27 10  1  0
 27 16  1  0
 25 20  1  0
  1 31  1  0
  1 32  1  0
  1 33  1  0
  2 34  1  1
  3 35  1  0
  4 36  1  6
  5 37  1  0
 13 38  1  0
 15 39  1  0
 17 40  1  0
 18 41  1  0
 21 42  1  0
 21 43  1  0
 22 44  1  0
 22 45  1  0
 23 46  1  0
 24 47  1  0
 24 48  1  0
 25 49  1  0
 25 50  1  0
 26 51  1  0
M  CHG  2  13  -1  30  -1
M  END
>  <UniqueID>  (33) 
33

>  <SMILES>  (33) 
C[C@@H](O)[C@H](NC(=O)C(=O)n1c(C([NH-])=O)cc2ccc(N3CCNCC3)cc21)C(=O)[O-]

>  <Energy>  (33) 
97.16306065528057

>  <Genealogy>  (33) 
CC(O)C(NC(=O)C(=O)n1c(C([NH-])=O)cc2ccc(N3CCNCC3)cc21)C(=O)[O-] (protonated)
C[C@@H](O)[C@H](NC(=O)C(=O)n1c(C([NH-])=O)cc2ccc(N3CCNCC3)cc21)C(=O)[O-] (chirality)
C[C@@H](O)[C@H](NC(=O)C(=O)n1c(C([NH-])=O)cc2ccc(N3CCNCC3)cc21)C(=O)[O-] (3D coordinates assigned)
C[C@@H](O)[C@H](NC(=O)C(=O)n1c(C([NH-])=O)cc2ccc(N3CCNCC3)cc21)C(=O)[O-] (nonaromatic ring conformer: 97.16306065528057 kcal/mol)

>  <smiles>  (33) 
CC(O)C(NC(=O)C(=O)n1c(C(N)=O)cc2ccc(N3CCNCC3)cc21)C(=O)O

>  <score_type>  (33) 
oracle

>  <origin>  (33) 
adg

>  <m_score__min__energy>  (33) 
-8.0800000000000001

>  <m_primary>  (33) 
energy

$$$$
33:0
     RDKit          3D

 31 32  0  0  0  0  0  0  0  0999 V2000
  141.4400  148.8730  132.2000 C   0  0  0  0  0  0  0  0  0  0  0  0
  140.1870  149.6970  131.8920 C   0  0  1  0  0  0  0  0  0  0  0  0
  140.5360  151.1070  131.6850 N   0  0  0  0  0  0  0  0  0  0  0  0
  141.2530  151.9140  132.6420 C   0  0  0  0  0  0  0  0  0  0  0  0
  142.1070  152.9770  132.2380 C   0  0  0  0  0  0  0  0  0  0  0  0
  142.7860  153.7550  133.1910 C   0  0  0  0  0  0  0  0  0  0  0  0
  142.6020  153.4500  134.5350 C   0  0  0  0  0  0  0  0  0  0  0  0
  143.1150  154.0570  135.6570 C   0  0  0  0  0  0  0  0  0  0  0  0
  142.5900  153.3460  136.7340 C   0  0  0  0  0  0  0  0  0  0  0  0
  142.9580  153.6140  138.1390 C   0  0  0  0  0  0  0  0  0  0  0  0
  144.2490  153.2710  138.6380 N   0  0  0  0  0  0  0  0  0  0  0  0
  142.1400  154.2010  138.8980 O   0  0  0  0  0  0  0  0  0  0  0  0
  141.7760  152.3440  136.2950 N   0  0  0  0  0  0  0  0  0  0  0  0
  140.9750  151.4540  137.0880 C   0  0  0  0  0  0  0  0  0  0  0  0
  140.6250  151.7790  138.2540 O   0  0  0  0  0  0  0  0  0  0  0  0
  140.6020  150.2120  136.5880 O   0  0  0  0  0  0  0  0  0  0  0  0
  141.7970  152.4200  134.9450 C   0  0  0  0  0  0  0  0  0  0  0  0
  141.0940  151.6400  134.0190 C   0  0  0  0  0  0  0  0  0  0  0  0
  139.5120  149.1460  130.6690 C   0  0  0  0  0  0  0  0  0  0  0  0
  139.3020  149.8890  129.6740 O   0  0  0  0  0  0  0  0  0  0  0  0
  139.0750  147.8270  130.6430 O   0  0  0  0  0  0  0  0  0  0  0  0
  141.5658  148.7903  133.2896 H   0  0  0  0  0  0  0  0  0  0  0  0
  141.3338  147.8679  131.7658 H   0  0  0  0  0  0  0  0  0  0  0  0
  142.3208  149.3688  131.7658 H   0  0  0  0  0  0  0  0  0  0  0  0
  139.4987  149.6337  132.7477 H   0  0  0  0  0  0  0  0  0  0  0  0
  140.2420  151.5640  130.7900 H   0  0  0  0  0  0  0  0  0  0  0  0
  142.2375  153.1926  131.1673 H   0  0  0  0  0  0  0  0  0  0  0  0
  143.4438  154.5811  132.8828 H   0  0  0  0  0  0  0  0  0  0  0  0
  143.7953  154.9205  135.6960 H   0  0  0  0  0  0  0  0  0  0  0  0
  145.1010  153.7840  138.3190 H   0  0  0  0  0  0  0  0  0  0  0  0
  140.4310  150.8299  134.3568 H   0  0  0  0  0  0  0  0  0  0  0  0
  1  2  1  0
  2  3  1  0
  3  4  1  0
  4  5  2  0
  5  6  1  0
  6  7  2  0
  7  8  1  0
  8  9  2  0
  9 10  1  0
 10 11  1  0
 10 12  2  0
  9 13  1  0
 13 14  1  0
 14 15  2  0
 14 16  1  0
 13 17  1  0
 17 18  2  0
  2 19  1  0
 19 20  2  0
 19 21  1  0
 18  4  1  0
 17  7  1  0
  1 22  1  0
  1 23  1  0
  1 24  1  0
  2 25  1  1
  3 26  1  0
  5 27  1  0
  6 28  1  0
  8 29  1  0
 11 30  1  0
 18 31  1  0
M  CHG  3  11  -1  16  -1  21  -1
M  END
>  <UniqueID>  (34) 
34

>  <SMILES>  (34) 
C[C@@H](Nc1ccc2cc(C([NH-])=O)n(C(=O)[O-])c2c1)C(=O)[O-]

>  <Energy>  (34) 
69.04881260341728

>  <Genealogy>  (34) 
CC(Nc1ccc2cc(C([NH-])=O)n(C(=O)[O-])c2c1)C(=O)[O-] (protonated)
C[C@@H](Nc1ccc2cc(C([NH-])=O)n(C(=O)[O-])c2c1)C(=O)[O-] (chirality)
C[C@@H](Nc1ccc2cc(C([NH-])=O)n(C(=O)[O-])c2c1)C(=O)[O-] (3D coordinates assigned)
C[C@@H](Nc1ccc2cc(C([NH-])=O)n(C(=O)[O-])c2c1)C(=O)[O-] (optimized conformer: 69.04881260341728 kcal/mol)

>  <smiles>  (34) 
CC(Nc1ccc2cc(C(N)=O)n(C(=O)O)c2c1)C(=O)O

>  <score_type>  (34) 
oracle

>  <origin>  (34) 
adg

>  <m_score__min__energy>  (34) 
-6.7199999999999998

>  <m_primary>  (34) 
energy

$$$$
34:0
     RDKit          3D

 39 40  0  0  0  0  0  0  0  0999 V2000
  140.6230  159.3440  134.8640 C   0  0  0  0  0  0  0  0  0  0  0  0
  141.0470  159.2050  133.4620 N   0  0  0  0  0  0  0  0  0  0  0  0
  140.2730  160.1010  132.5900 C   0  0  0  0  0  0  0  0  0  0  0  0
  140.8990  157.8300  133.0270 C   0  0  0  0  0  0  0  0  0  0  0  0
  139.7870  157.3430  132.8830 O   0  0  0  0  0  0  0  0  0  0  0  0
  142.1110  156.9950  132.7140 C   0  0  0  0  0  0  0  0  0  0  0  0
  143.2660  157.8210  132.6020 O   0  0  0  0  0  0  0  0  0  0  0  0
  143.9060  158.4010  133.7030 C   0  0  0  0  0  0  0  0  0  0  0  0
  143.3370  158.4280  134.8290 O   0  0  0  0  0  0  0  0  0  0  0  0
  145.2050  158.9890  133.5450 N   0  0  0  0  0  0  0  0  0  0  0  0
  145.5300  160.3140  133.5420 C   0  0  0  0  0  0  0  0  0  0  0  0
  144.6180  161.4310  133.8600 C   0  0  0  0  0  0  0  0  0  0  0  0
  143.2060  161.2740  133.7700 N   0  0  0  0  0  0  0  0  0  0  0  0
  145.0910  162.5280  134.2550 O   0  0  0  0  0  0  0  0  0  0  0  0
  146.8830  160.4830  133.2580 C   0  0  0  0  0  0  0  0  0  0  0  0
  147.3840  159.2130  133.0940 C   0  0  0  0  0  0  0  0  0  0  0  0
  148.6720  158.7920  132.7740 C   0  0  0  0  0  0  0  0  0  0  0  0
  148.8970  157.4130  132.6280 C   0  0  0  0  0  0  0  0  0  0  0  0
  147.8400  156.4860  132.8060 C   0  0  0  0  0  0  0  0  0  0  0  0
  148.0900  155.0180  132.6070 C   0  0  0  0  0  0  0  0  0  0  0  0
  147.6970  154.3120  133.7290 F   0  0  0  0  0  0  0  0  0  0  0  0
  149.4370  154.8050  132.3820 F   0  0  0  0  0  0  0  0  0  0  0  0
  146.5440  156.9510  133.1160 C   0  0  0  0  0  0  0  0  0  0  0  0
  146.3520  158.3290  133.2720 C   0  0  0  0  0  0  0  0  0  0  0  0
  141.4564  159.0708  135.5279 H   0  0  0  0  0  0  0  0  0  0  0  0
  140.3276  160.3860  135.0561 H   0  0  0  0  0  0  0  0  0  0  0  0
  139.7680  158.6791  135.0561 H   0  0  0  0  0  0  0  0  0  0  0  0
  142.0530  159.4850  133.3990 H   0  0  0  0  0  0  0  0  0  0  0  0
  139.6780  160.7898  133.2076 H   0  0  0  0  0  0  0  0  0  0  0  0
  140.9607  160.6788  131.9550 H   0  0  0  0  0  0  0  0  0  0  0  0
  139.6013  159.5046  131.9550 H   0  0  0  0  0  0  0  0  0  0  0  0
  142.2653  156.2631  133.5205 H   0  0  0  0  0  0  0  0  0  0  0  0
  141.9495  156.4748  131.7583 H   0  0  0  0  0  0  0  0  0  0  0  0
  142.7430  160.3780  134.0400 H   0  0  0  0  0  0  0  0  0  0  0  0
  147.4342  161.4318  133.1811 H   0  0  0  0  0  0  0  0  0  0  0  0
  149.4883  159.5169  132.6396 H   0  0  0  0  0  0  0  0  0  0  0  0
  149.9033  157.0493  132.3731 H   0  0  0  0  0  0  0  0  0  0  0  0
  147.5085  154.6713  131.7400 H   0  0  0  0  0  0  0  0  0  0  0  0
  145.7057  156.2483  133.2321 H   0  0  0  0  0  0  0  0  0  0  0  0
  1  2  1  0
  2  3  1  0
  2  4  1  0
  4  5  2  0
  4  6  1  0
  6  7  1  0
  7  8  1  0
  8  9  2  0
  8 10  1  0
 10 11  1  0
 11 12  1  0
 12 13  1  0
 12 14  2  0
 11 15  2  0
 15 16  1  0
 16 17  2  0
 17 18  1  0
 18 19  2  0
 19 20  1  0
 20 21  1  0
 20 22  1  0
 19 23  1  0
 23 24  2  0
 24 10  1  0
 24 16  1  0
  1 25  1  0
  1 26  1  0
  1 27  1  0
  2 28  1  0
  3 29  1  0
  3 30  1  0
  3 31  1  0
  6 32  1  0
  6 33  1  0
 13 34  1  0
 15 35  1  0
 17 36  1  0
 18 37  1  0
 20 38  1  0
 23 39  1  0
M  CHG  2   2   1  13  -1
M  END
>  <UniqueID>  (35) 
35

>  <SMILES>  (35) 
C[NH+](C)C(=O)COC(=O)n1c(C([NH-])=O)cc2ccc(C(F)F)cc21

>  <Energy>  (35) 
74.3526149268361

>  <Genealogy>  (35) 
C[NH+](C)C(=O)COC(=O)n1c(C([NH-])=O)cc2ccc(C(F)F)cc21 (protonated)
C[NH+](C)C(=O)COC(=O)n1c(C([NH-])=O)cc2ccc(C(F)F)cc21 (3D coordinates assigned)
C[NH+](C)C(=O)COC(=O)n1c(C([NH-])=O)cc2ccc(C(F)F)cc21 (optimized conformer: 74.3526149268361 kcal/mol)

>  <smiles>  (35) 
CN(C)C(=O)COC(=O)n1c(C(N)=O)cc2ccc(C(F)F)cc21

>  <score_type>  (35) 
oracle

>  <origin>  (35) 
adg

>  <m_score__min__energy>  (35) 
-5.2400000000000002

>  <m_primary>  (35) 
energy

$$$$
35:0
     RDKit          3D

 46 47  0  0  0  0  0  0  0  0999 V2000
  140.3000  160.1230  132.9700 C   0  0  0  0  0  0  0  0  0  0  0  0
  140.9270  158.8700  133.0930 O   0  0  0  0  0  0  0  0  0  0  0  0
  141.4570  158.6930  134.7040 P   0  0  0  0  0  0  0  0  0  0  0  0
  141.3230  160.0160  135.4290 O   0  0  0  0  0  0  0  0  0  0  0  0
  140.4740  157.5260  135.4660 O   0  0  0  0  0  0  0  0  0  0  0  0
  140.0750  158.0340  136.7160 C   0  0  0  0  0  0  0  0  0  0  0  0
  143.1020  158.1900  134.7300 O   0  0  0  0  0  0  0  0  0  0  0  0
  143.8530  158.0280  133.5630 C   0  0  0  0  0  0  0  0  0  0  0  0
  143.3830  157.3840  132.5860 O   0  0  0  0  0  0  0  0  0  0  0  0
  145.1750  158.5810  133.4870 N   0  0  0  0  0  0  0  0  0  0  0  0
  145.5420  159.8900  133.5850 C   0  0  0  0  0  0  0  0  0  0  0  0
  144.6600  161.0140  133.9630 C   0  0  0  0  0  0  0  0  0  0  0  0
  143.2660  160.9840  133.6650 N   0  0  0  0  0  0  0  0  0  0  0  0
  145.1330  161.9910  134.6010 O   0  0  0  0  0  0  0  0  0  0  0  0
  146.9100  160.0320  133.3600 C   0  0  0  0  0  0  0  0  0  0  0  0
  147.3750  158.7580  133.1320 C   0  0  0  0  0  0  0  0  0  0  0  0
  148.6610  158.3140  132.8370 C   0  0  0  0  0  0  0  0  0  0  0  0
  148.8500  156.9400  132.6150 C   0  0  0  0  0  0  0  0  0  0  0  0
  147.7570  156.0330  132.6930 C   0  0  0  0  0  0  0  0  0  0  0  0
  147.9170  154.6230  132.4430 N   0  0  0  0  0  0  0  0  0  0  0  0
  149.1530  153.8670  132.6560 C   0  0  0  0  0  0  0  0  0  0  0  0
  148.9330  152.3620  132.4010 C   0  0  2  0  0  0  0  0  0  0  0  0
  147.5670  152.0520  132.5080 O   0  0  0  0  0  0  0  0  0  0  0  0
  149.7490  151.4700  133.3520 C   0  0  0  0  0  0  0  0  0  0  0  0
  149.0650  150.2730  133.6030 O   0  0  0  0  0  0  0  0  0  0  0  0
  146.4670  156.5300  132.9800 C   0  0  0  0  0  0  0  0  0  0  0  0
  146.3100  157.9000  133.2140 C   0  0  0  0  0  0  0  0  0  0  0  0
  140.0960  160.5308  133.9711 H   0  0  0  0  0  0  0  0  0  0  0  0
  140.9600  160.8110  132.4214 H   0  0  0  0  0  0  0  0  0  0  0  0
  139.3536  160.0072  132.4214 H   0  0  0  0  0  0  0  0  0  0  0  0
  140.5401  157.4418  137.5179 H   0  0  0  0  0  0  0  0  0  0  0  0
  140.3928  159.0834  136.8037 H   0  0  0  0  0  0  0  0  0  0  0  0
  138.9801  157.9739  136.8037 H   0  0  0  0  0  0  0  0  0  0  0  0
  142.7220  160.0950  133.7270 H   0  0  0  0  0  0  0  0  0  0  0  0
  147.4935  160.9645  133.3639 H   0  0  0  0  0  0  0  0  0  0  0  0
  149.5040  159.0182  132.7795 H   0  0  0  0  0  0  0  0  0  0  0  0
  149.8551  156.5609  132.3781 H   0  0  0  0  0  0  0  0  0  0  0  0
  147.0740  154.0730  132.1600 H   0  0  0  0  0  0  0  0  0  0  0  0
  149.9253  154.2392  131.9668 H   0  0  0  0  0  0  0  0  0  0  0  0
  149.4701  154.0021  133.7006 H   0  0  0  0  0  0  0  0  0  0  0  0
  149.2880  152.1540  131.3809 H   0  0  0  0  0  0  0  0  0  0  0  0
  147.4180  151.6540  133.4070 H   0  0  0  0  0  0  0  0  0  0  0  0
  150.7215  151.2424  132.8910 H   0  0  0  0  0  0  0  0  0  0  0  0
  149.8980  152.0030  134.3026 H   0  0  0  0  0  0  0  0  0  0  0  0
  148.1650  150.5340  133.9320 H   0  0  0  0  0  0  0  0  0  0  0  0
  145.6014  155.8523  133.0188 H   0  0  0  0  0  0  0  0  0  0  0  0
  1  2  1  0
  2  3  1  0
  3  4  2  0
  3  5  1  0
  5  6  1  0
  3  7  1  0
  7  8  1  0
  8  9  2  0
  8 10  1  0
 10 11  1  0
 11 12  1  0
 12 13  1  0
 12 14  2  0
 11 15  2  0
 15 16  1  0
 16 17  2  0
 17 18  1  0
 18 19  2  0
 19 20  1  0
 20 21  1  0
 21 22  1  0
 22 23  1  0
 22 24  1  0
 24 25  1  0
 19 26  1  0
 26 27  2  0
 27 10  1  0
 27 16  1  0
  1 28  1  0
  1 29  1  0
  1 30  1  0
  6 31  1  0
  6 32  1  0
  6 33  1  0
 13 34  1  0
 15 35  1  0
 17 36  1  0
 18 37  1  0
 20 38  1  0
 21 39  1  0
 21 40  1  0
 22 41  1  6
 23 42  1  0
 24 43  1  0
 24 44  1  0
 25 45  1  0
 26 46  1  0
M  CHG  1  13  -1
M  END
>  <UniqueID>  (36) 
36

>  <SMILES>  (36) 
COP(=O)(OC)OC(=O)n1c(C([NH-])=O)cc2ccc(NC[C@H](O)CO)cc21

>  <Energy>  (36) 
78.19333495030253

>  <Genealogy>  (36) 
COP(=O)(OC)OC(=O)n1c(C([NH-])=O)cc2ccc(NCC(O)CO)cc21 (protonated)
COP(=O)(OC)OC(=O)n1c(C([NH-])=O)cc2ccc(NC[C@H](O)CO)cc21 (chirality)
COP(=O)(OC)OC(=O)n1c(C([NH-])=O)cc2ccc(NC[C@H](O)CO)cc21 (3D coordinates assigned)
COP(=O)(OC)OC(=O)n1c(C([NH-])=O)cc2ccc(NC[C@H](O)CO)cc21 (optimized conformer: 78.19333495030253 kcal/mol)

>  <smiles>  (36) 
COP(=O)(OC)OC(=O)n1c(C(N)=O)cc2ccc(NCC(O)CO)cc21

>  <score_type>  (36) 
oracle

>  <origin>  (36) 
adg

>  <m_score__min__energy>  (36) 
-7.04

>  <m_primary>  (36) 
energy

$$$$
36:0
     RDKit          3D

 31 32  0  0  0  0  0  0  0  0999 V2000
  145.0840  160.8470  134.1640 C   0  0  0  0  0  0  0  0  0  0  0  0
  144.1120  160.0050  133.8140 C   0  0  0  0  0  0  0  0  0  0  0  0
  142.3950  160.5110  134.0640 S   0  0  0  0  0  0  0  0  0  0  0  0
  144.4120  158.6680  133.2530 C   0  0  0  0  0  0  0  0  0  0  0  0
  143.5290  158.0320  132.6150 O   0  0  0  0  0  0  0  0  0  0  0  0
  145.7200  158.0960  133.3900 N   0  0  0  0  0  0  0  0  0  0  0  0
  146.0800  156.9770  134.0780 C   0  0  0  0  0  0  0  0  0  0  0  0
  145.1540  156.0670  134.7860 C   0  0  0  0  0  0  0  0  0  0  0  0
  145.6670  155.1190  135.7200 N   0  0  0  0  0  0  0  0  0  0  0  0
  143.9160  156.1080  134.5630 O   0  0  0  0  0  0  0  0  0  0  0  0
  147.4540  156.7660  133.9780 C   0  0  0  0  0  0  0  0  0  0  0  0
  147.9250  157.7960  133.1930 C   0  0  0  0  0  0  0  0  0  0  0  0
  149.2170  158.0800  132.7620 C   0  0  0  0  0  0  0  0  0  0  0  0
  149.4080  159.2160  131.9570 C   0  0  0  0  0  0  0  0  0  0  0  0
  148.3140  160.0480  131.6100 C   0  0  0  0  0  0  0  0  0  0  0  0
  148.5260  161.2450  130.7230 C   0  0  0  0  0  0  0  0  0  0  0  0
  149.6210  160.9690  129.6980 C   0  0  0  0  0  0  0  0  0  0  0  0
  147.0140  159.7210  132.0560 C   0  0  0  0  0  0  0  0  0  0  0  0
  146.8560  158.5810  132.8490 C   0  0  0  0  0  0  0  0  0  0  0  0
  146.1367  160.5615  134.0215 H   0  0  0  0  0  0  0  0  0  0  0  0
  144.8335  161.8274  134.5954 H   0  0  0  0  0  0  0  0  0  0  0  0
  145.4910  155.2270  136.7440 H   0  0  0  0  0  0  0  0  0  0  0  0
  148.0382  155.9507  134.4296 H   0  0  0  0  0  0  0  0  0  0  0  0
  150.0629  157.4353  133.0427 H   0  0  0  0  0  0  0  0  0  0  0  0
  150.4163  159.4620  131.5926 H   0  0  0  0  0  0  0  0  0  0  0  0
  147.5880  161.4749  130.1964 H   0  0  0  0  0  0  0  0  0  0  0  0
  148.8322  162.0977  131.3468 H   0  0  0  0  0  0  0  0  0  0  0  0
  150.5602  160.7323  130.2195 H   0  0  0  0  0  0  0  0  0  0  0  0
  149.3268  160.1169  129.0676 H   0  0  0  0  0  0  0  0  0  0  0  0
  149.7658  161.8587  129.0676 H   0  0  0  0  0  0  0  0  0  0  0  0
  146.1501  160.3463  131.7866 H   0  0  0  0  0  0  0  0  0  0  0  0
  1  2  2  0
  2  3  1  0
  2  4  1  0
  4  5  2  0
  4  6  1  0
  6  7  1  0
  7  8  1  0
  8  9  1  0
  8 10  2  0
  7 11  2  0
 11 12  1  0
 12 13  2  0
 13 14  1  0
 14 15  2  0
 15 16  1  0
 16 17  1  0
 15 18  1  0
 18 19  2  0
 19  6  1  0
 19 12  1  0
  1 20  1  0
  1 21  1  0
  9 22  1  0
 11 23  1  0
 13 24  1  0
 14 25  1  0
 16 26  1  0
 16 27  1  0
 17 28  1  0
 17 29  1  0
 17 30  1  0
 18 31  1  0
M  CHG  2   3  -1   9  -1
M  END
>  <UniqueID>  (37) 
37

>  <SMILES>  (37) 
C=C([S-])C(=O)n1c(C([NH-])=O)cc2ccc(CC)cc21

>  <Energy>  (37) 
66.88312801868132

>  <Genealogy>  (37) 
C=C([S-])C(=O)n1c(C([NH-])=O)cc2ccc(CC)cc21 (protonated)
C=C([S-])C(=O)n1c(C([NH-])=O)cc2ccc(CC)cc21 (3D coordinates assigned)
C=C([S-])C(=O)n1c(C([NH-])=O)cc2ccc(CC)cc21 (optimized conformer: 66.88312801868132 kcal/mol)

>  <smiles>  (37) 
C=C(S)C(=O)n1c(C(N)=O)cc2ccc(CC)cc21

>  <score_type>  (37) 
oracle

>  <origin>  (37) 
adg

>  <m_score__min__energy>  (37) 
-6.5099999999999998

>  <m_primary>  (37) 
energy

$$$$
37:0
     RDKit          3D

 34 35  0  0  0  0  0  0  0  0999 V2000
  148.3570  154.4580  133.5350 C   0  0  0  0  0  0  0  0  0  0  0  0
  147.4550  155.5920  133.7600 N   0  0  0  0  0  0  0  0  0  0  0  0
  146.8610  155.8100  135.0870 C   0  0  0  0  0  0  0  0  0  0  0  0
  146.2600  154.5420  135.6070 C   0  0  0  0  0  0  0  0  0  0  0  0
  146.9670  153.7250  136.2520 O   0  0  0  0  0  0  0  0  0  0  0  0
  144.9160  154.2680  135.3890 O   0  0  0  0  0  0  0  0  0  0  0  0
  147.1290  156.4590  132.6540 C   0  0  0  0  0  0  0  0  0  0  0  0
  146.9990  155.9830  131.4930 O   0  0  0  0  0  0  0  0  0  0  0  0
  146.9200  157.8630  132.8560 N   0  0  0  0  0  0  0  0  0  0  0  0
  147.8030  158.8800  132.6590 C   0  0  0  0  0  0  0  0  0  0  0  0
  149.1850  158.7370  132.1530 C   0  0  0  0  0  0  0  0  0  0  0  0
  149.7330  157.4540  131.8620 N   0  0  0  0  0  0  0  0  0  0  0  0
  149.8910  159.7640  131.9680 O   0  0  0  0  0  0  0  0  0  0  0  0
  147.2130  160.1020  132.9780 C   0  0  0  0  0  0  0  0  0  0  0  0
  145.9280  159.7960  133.3710 C   0  0  0  0  0  0  0  0  0  0  0  0
  144.8950  160.6250  133.7970 C   0  0  0  0  0  0  0  0  0  0  0  0
  143.6730  160.0250  134.1500 C   0  0  0  0  0  0  0  0  0  0  0  0
  143.5120  158.6190  134.0830 C   0  0  0  0  0  0  0  0  0  0  0  0
  142.1940  157.9940  134.4330 C   0  0  0  0  0  0  0  0  0  0  0  0
  141.2940  158.9830  134.7830 F   0  0  0  0  0  0  0  0  0  0  0  0
  144.5770  157.8110  133.6290 C   0  0  0  0  0  0  0  0  0  0  0  0
  145.7780  158.4370  133.2820 C   0  0  0  0  0  0  0  0  0  0  0  0
  148.6816  154.0499  134.5036 H   0  0  0  0  0  0  0  0  0  0  0  0
  147.8301  153.6776  132.9663 H   0  0  0  0  0  0  0  0  0  0  0  0
  149.2359  154.7958  132.9663 H   0  0  0  0  0  0  0  0  0  0  0  0
  147.6424  156.1517  135.7817 H   0  0  0  0  0  0  0  0  0  0  0  0
  146.0702  156.5699  135.0023 H   0  0  0  0  0  0  0  0  0  0  0  0
  149.1240  156.6700  131.5390 H   0  0  0  0  0  0  0  0  0  0  0  0
  147.6750  161.0990  132.9269 H   0  0  0  0  0  0  0  0  0  0  0  0
  145.0298  161.7151  133.8558 H   0  0  0  0  0  0  0  0  0  0  0  0
  142.8336  160.6538  134.4815 H   0  0  0  0  0  0  0  0  0  0  0  0
  141.8094  157.4387  133.5649 H   0  0  0  0  0  0  0  0  0  0  0  0
  142.3283  157.3041  135.2791 H   0  0  0  0  0  0  0  0  0  0  0  0
  144.4650  156.7195  133.5505 H   0  0  0  0  0  0  0  0  0  0  0  0
  1  2  1  0
  2  3  1  0
  3  4  1  0
  4  5  2  0
  4  6  1  0
  2  7  1  0
  7  8  2  0
  7  9  1  0
  9 10  1  0
 10 11  1  0
 11 12  1  0
 11 13  2  0
 10 14  2  0
 14 15  1  0
 15 16  2  0
 16 17  1  0
 17 18  2  0
 18 19  1  0
 19 20  1  0
 18 21  1  0
 21 22  2  0
 22  9  1  0
 22 15  1  0
  1 23  1  0
  1 24  1  0
  1 25  1  0
  3 26  1  0
  3 27  1  0
 12 28  1  0
 14 29  1  0
 16 30  1  0
 17 31  1  0
 19 32  1  0
 19 33  1  0
 21 34  1  0
M  CHG  2   6  -1  12  -1
M  END
>  <UniqueID>  (38) 
38

>  <SMILES>  (38) 
CN(CC(=O)[O-])C(=O)n1c(C([NH-])=O)cc2ccc(CF)cc21

>  <Energy>  (38) 
69.50347736038819

>  <Genealogy>  (38) 
CN(CC(=O)[O-])C(=O)n1c(C([NH-])=O)cc2ccc(CF)cc21 (protonated)
CN(CC(=O)[O-])C(=O)n1c(C([NH-])=O)cc2ccc(CF)cc21 (3D coordinates assigned)
CN(CC(=O)[O-])C(=O)n1c(C([NH-])=O)cc2ccc(CF)cc21 (optimized conformer: 69.50347736038819 kcal/mol)

>  <smiles>  (38) 
CN(CC(=O)O)C(=O)n1c(C(N)=O)cc2ccc(CF)cc21

>  <score_type>  (38) 
oracle

>  <origin>  (38) 
adg

>  <m_score__min__energy>  (38) 
-6.0300000000000002

>  <m_primary>  (38) 
energy

$$$$
38:0
     RDKit          3D

 34 35  0  0  0  0  0  0  0  0999 V2000
  140.9780  159.7830  134.9950 N   0  0  0  0  0  0  0  0  0  0  0  0
  141.7560  160.4750  134.0220 C   0  0  0  0  0  0  0  0  0  0  0  0
  141.2230  161.4000  133.3520 O   0  0  0  0  0  0  0  0  0  0  0  0
  143.1820  160.1470  133.8100 C   0  0  0  0  0  0  0  0  0  0  0  0
  144.2130  161.0820  133.8980 C   0  0  0  0  0  0  0  0  0  0  0  0
  145.3710  160.3690  133.6840 C   0  0  0  0  0  0  0  0  0  0  0  0
  146.6940  160.7970  133.6530 C   0  0  0  0  0  0  0  0  0  0  0  0
  147.6910  159.8420  133.3860 C   0  0  0  0  0  0  0  0  0  0  0  0
  147.3470  158.4890  133.1270 C   0  0  0  0  0  0  0  0  0  0  0  0
  148.4270  157.4670  132.8790 C   0  0  0  0  0  0  0  0  0  0  0  0
  149.5040  158.0410  132.2250 F   0  0  0  0  0  0  0  0  0  0  0  0
  147.9480  156.4300  132.0980 F   0  0  0  0  0  0  0  0  0  0  0  0
  148.8570  156.9570  134.0910 F   0  0  0  0  0  0  0  0  0  0  0  0
  145.9920  158.0910  133.1880 C   0  0  0  0  0  0  0  0  0  0  0  0
  145.0250  159.0600  133.4750 C   0  0  0  0  0  0  0  0  0  0  0  0
  143.6860  158.9060  133.5550 N   0  0  0  0  0  0  0  0  0  0  0  0
  142.9550  157.6930  133.3260 C   0  0  0  0  0  0  0  0  0  0  0  0
  143.1260  157.0560  132.2510 O   0  0  0  0  0  0  0  0  0  0  0  0
  142.0060  157.1840  134.3250 C   0  0  0  0  0  0  0  0  0  0  0  0
  142.2730  157.2830  135.5540 O   0  0  0  0  0  0  0  0  0  0  0  0
  140.8090  156.5970  133.9020 O   0  0  0  0  0  0  0  0  0  0  0  0
  139.7920  157.3060  133.1960 C   0  0  0  0  0  0  0  0  0  0  0  0
  138.7540  157.8660  134.1680 C   0  0  0  0  0  0  0  0  0  0  0  0
  139.1690  157.6650  135.4920 O   0  0  0  0  0  0  0  0  0  0  0  0
  140.8060  158.7560  134.9140 H   0  0  0  0  0  0  0  0  0  0  0  0
  144.1206  162.1600  134.0962 H   0  0  0  0  0  0  0  0  0  0  0  0
  146.9527  161.8511  133.8320 H   0  0  0  0  0  0  0  0  0  0  0  0
  148.7481  160.1462  133.3777 H   0  0  0  0  0  0  0  0  0  0  0  0
  145.7047  157.0436  133.0138 H   0  0  0  0  0  0  0  0  0  0  0  0
  140.2504  158.1362  132.6386 H   0  0  0  0  0  0  0  0  0  0  0  0
  139.2920  156.6131  132.5032 H   0  0  0  0  0  0  0  0  0  0  0  0
  138.6307  158.9438  133.9860 H   0  0  0  0  0  0  0  0  0  0  0  0
  137.7980  157.3454  134.0097 H   0  0  0  0  0  0  0  0  0  0  0  0
  140.1490  157.8250  135.5090 H   0  0  0  0  0  0  0  0  0  0  0  0
  1  2  1  0
  2  3  2  0
  2  4  1  0
  4  5  2  0
  5  6  1  0
  6  7  2  0
  7  8  1  0
  8  9  2  0
  9 10  1  0
 10 11  1  0
 10 12  1  0
 10 13  1  0
  9 14  1  0
 14 15  2  0
 15 16  1  0
 16 17  1  0
 17 18  2  0
 17 19  1  0
 19 20  2  0
 19 21  1  0
 21 22  1  0
 22 23  1  0
 23 24  1  0
 16  4  1  0
 15  6  1  0
  1 25  1  0
  5 26  1  0
  7 27  1  0
  8 28  1  0
 14 29  1  0
 22 30  1  0
 22 31  1  0
 23 32  1  0
 23 33  1  0
 24 34  1  0
M  CHG  1   1  -1
M  END
>  <UniqueID>  (39) 
39

>  <SMILES>  (39) 
[NH-]C(=O)c1cc2ccc(C(F)(F)F)cc2n1C(=O)C(=O)OCCO

>  <Energy>  (39) 
70.37012836263854

>  <Genealogy>  (39) 
[NH-]C(=O)c1cc2ccc(C(F)(F)F)cc2n1C(=O)C(=O)OCCO (protonated)
[NH-]C(=O)c1cc2ccc(C(F)(F)F)cc2n1C(=O)C(=O)OCCO (3D coordinates assigned)
[NH-]C(=O)c1cc2ccc(C(F)(F)F)cc2n1C(=O)C(=O)OCCO (optimized conformer: 70.37012836263854 kcal/mol)

>  <smiles>  (39) 
NC(=O)c1cc2ccc(C(F)(F)F)cc2n1C(=O)C(=O)OCCO

>  <score_type>  (39) 
oracle

>  <origin>  (39) 
adg

>  <m_score__min__energy>  (39) 
-4.9500000000000002

>  <m_primary>  (39) 
energy

$$$$
39:0
     RDKit          3D

 30 31  0  0  0  0  0  0  0  0999 V2000
  144.1830  161.6360  133.7610 C   0  0  0  0  0  0  0  0  0  0  0  0
  143.8090  160.1860  133.6930 C   0  0  0  0  0  0  0  0  0  0  0  0
  144.8170  159.1970  133.5840 C   0  0  0  0  0  0  0  0  0  0  0  0
  144.4770  157.8390  133.4680 C   0  0  0  0  0  0  0  0  0  0  0  0
  143.1260  157.5030  133.4620 C   0  0  0  0  0  0  0  0  0  0  0  0
  142.5190  156.2750  133.3240 C   0  0  0  0  0  0  0  0  0  0  0  0
  141.1490  156.5330  133.3560 C   0  0  0  0  0  0  0  0  0  0  0  0
  140.0980  155.4900  133.2870 C   0  0  0  0  0  0  0  0  0  0  0  0
  138.7440  155.8310  132.9850 N   0  0  0  0  0  0  0  0  0  0  0  0
  140.3940  154.2810  133.4780 O   0  0  0  0  0  0  0  0  0  0  0  0
  140.9210  157.8670  133.5170 N   0  0  0  0  0  0  0  0  0  0  0  0
  139.6520  158.5390  133.5480 C   0  0  0  0  0  0  0  0  0  0  0  0
  138.8170  158.2520  134.4480 O   0  0  0  0  0  0  0  0  0  0  0  0
  139.3190  159.5980  132.5400 C   0  0  0  0  0  0  0  0  0  0  0  0
  138.4570  159.0340  131.4530 C   0  0  0  0  0  0  0  0  0  0  0  0
  138.6590  157.9070  131.0260 O   0  0  0  0  0  0  0  0  0  0  0  0
  142.1400  158.4470  133.5720 C   0  0  0  0  0  0  0  0  0  0  0  0
  142.4480  159.8090  133.6660 C   0  0  0  0  0  0  0  0  0  0  0  0
  144.2627  161.9451  134.8137 H   0  0  0  0  0  0  0  0  0  0  0  0
  145.1500  161.7892  133.2596 H   0  0  0  0  0  0  0  0  0  0  0  0
  143.4107  162.2378  133.2596 H   0  0  0  0  0  0  0  0  0  0  0  0
  145.8758  159.4951  133.5902 H   0  0  0  0  0  0  0  0  0  0  0  0
  145.2542  157.0650  133.3845 H   0  0  0  0  0  0  0  0  0  0  0  0
  143.0106  155.2973  133.2122 H   0  0  0  0  0  0  0  0  0  0  0  0
  138.4380  156.8240  132.8860 H   0  0  0  0  0  0  0  0  0  0  0  0
  138.0220  155.0810  132.9030 H   0  0  0  0  0  0  0  0  0  0  0  0
  138.7817  160.4175  133.0398 H   0  0  0  0  0  0  0  0  0  0  0  0
  140.2528  159.9727  132.0955 H   0  0  0  0  0  0  0  0  0  0  0  0
  137.6372  159.6377  131.0365 H   0  0  0  0  0  0  0  0  0  0  0  0
  141.6514  160.5658  133.7175 H   0  0  0  0  0  0  0  0  0  0  0  0
  1  2  1  0
  2  3  2  0
  3  4  1  0
  4  5  2  0
  5  6  1  0
  6  7  2  0
  7  8  1  0
  8  9  1  0
  8 10  2  0
  7 11  1  0
 11 12  1  0
 12 13  2  0
 12 14  1  0
 14 15  1  0
 15 16  2  0
 11 17  1  0
 17 18  2  0
 18  2  1  0
 17  5  1  0
  1 19  1  0
  1 20  1  0
  1 21  1  0
  3 22  1  0
  4 23  1  0
  6 24  1  0
  9 25  1  0
  9 26  1  0
 14 27  1  0
 14 28  1  0
 15 29  1  0
 18 30  1  0
M  END
>  <UniqueID>  (40) 
40

>  <SMILES>  (40) 
Cc1ccc2cc(C(N)=O)n(C(=O)CC=O)c2c1

>  <Energy>  (40) 
66.55719349148077

>  <Genealogy>  (40) 
Cc1ccc2cc(C(N)=O)n(C(=O)CC=O)c2c1 (3D coordinates assigned)
Cc1ccc2cc(C(N)=O)n(C(=O)CC=O)c2c1 (optimized conformer: 66.55719349148077 kcal/mol)

>  <smiles>  (40) 
Cc1ccc2cc(C(N)=O)n(C(=O)CC=O)c2c1

>  <score_type>  (40) 
oracle

>  <origin>  (40) 
adg

>  <m_score__min__energy>  (40) 
-5.9900000000000002

>  <m_primary>  (40) 
energy

$$$$
40:0
     RDKit          3D

 57 59  0  0  0  0  0  0  0  0999 V2000
  140.5850  158.7080  132.2800 C   0  0  0  0  0  0  0  0  0  0  0  0
  140.1980  160.1030  132.7430 C   0  0  0  0  0  0  0  0  0  0  0  0
  141.3130  160.7200  133.3780 O   0  0  0  0  0  0  0  0  0  0  0  0
  142.0590  160.0900  134.3780 C   0  0  0  0  0  0  0  0  0  0  0  0
  141.5530  159.8870  135.5150 O   0  0  0  0  0  0  0  0  0  0  0  0
  143.3990  159.6550  134.1000 N   0  0  0  0  0  0  0  0  0  0  0  0
  144.4910  160.4320  133.8540 C   0  0  0  0  0  0  0  0  0  0  0  0
  144.5610  161.9010  133.9960 C   0  0  0  0  0  0  0  0  0  0  0  0
  143.6080  162.7450  133.3550 N   0  0  0  0  0  0  0  0  0  0  0  0
  145.4440  162.4150  134.7340 O   0  0  0  0  0  0  0  0  0  0  0  0
  145.5890  159.6420  133.5200 C   0  0  0  0  0  0  0  0  0  0  0  0
  145.1350  158.3450  133.5780 C   0  0  0  0  0  0  0  0  0  0  0  0
  145.8050  157.1500  133.3310 C   0  0  0  0  0  0  0  0  0  0  0  0
  145.0790  155.9520  133.4390 C   0  0  0  0  0  0  0  0  0  0  0  0
  143.7020  155.9680  133.7750 C   0  0  0  0  0  0  0  0  0  0  0  0
  142.9680  154.7350  133.8840 N   0  0  0  0  0  0  0  0  0  0  0  0
  143.5240  153.5970  134.6250 C   0  0  0  0  0  0  0  0  0  0  0  0
  143.5310  152.3570  133.7290 C   0  0  0  0  0  0  0  0  0  0  0  0
  142.2410  152.1820  133.0410 N   0  0  0  0  0  0  0  0  0  0  0  0
  142.0170  150.9950  132.2580 C   0  0  0  0  0  0  0  0  0  0  0  0
  142.9660  150.1880  132.0620 O   0  0  0  0  0  0  0  0  0  0  0  0
  140.7430  150.7420  131.7220 O   0  0  0  0  0  0  0  0  0  0  0  0
  140.0480  149.4860  131.7300 C   0  0  0  0  0  0  0  0  0  0  0  0
  138.5430  149.6970  131.4780 C   0  0  0  0  0  0  0  0  0  0  0  0
  140.2360  148.8720  133.1260 C   0  0  0  0  0  0  0  0  0  0  0  0
  140.6460  148.5280  130.6810 C   0  0  0  0  0  0  0  0  0  0  0  0
  141.1530  153.1510  133.2520 C   0  0  0  0  0  0  0  0  0  0  0  0
  141.6900  154.5880  133.1720 C   0  0  0  0  0  0  0  0  0  0  0  0
  143.0580  157.2020  134.0230 C   0  0  0  0  0  0  0  0  0  0  0  0
  143.8100  158.3790  133.9270 C   0  0  0  0  0  0  0  0  0  0  0  0
  140.7628  158.0670  133.1561 H   0  0  0  0  0  0  0  0  0  0  0  0
  139.7707  158.2836  131.6744 H   0  0  0  0  0  0  0  0  0  0  0  0
  141.5016  158.7638  131.6744 H   0  0  0  0  0  0  0  0  0  0  0  0
  139.8911  160.7052  131.8751 H   0  0  0  0  0  0  0  0  0  0  0  0
  139.3630  160.0337  133.4557 H   0  0  0  0  0  0  0  0  0  0  0  0
  142.6330  162.4190  133.1800 H   0  0  0  0  0  0  0  0  0  0  0  0
  146.6031  159.9830  133.2644 H   0  0  0  0  0  0  0  0  0  0  0  0
  146.8709  157.1439  133.0594 H   0  0  0  0  0  0  0  0  0  0  0  0
  145.5845  154.9914  133.2609 H   0  0  0  0  0  0  0  0  0  0  0  0
  144.5530  153.8300  134.9361 H   0  0  0  0  0  0  0  0  0  0  0  0
  142.9063  153.4024  135.5142 H   0  0  0  0  0  0  0  0  0  0  0  0
  144.3260  152.4642  132.9764 H   0  0  0  0  0  0  0  0  0  0  0  0
  143.7076  151.4746  134.3617 H   0  0  0  0  0  0  0  0  0  0  0  0
  138.0168  149.7708  132.4411 H   0  0  0  0  0  0  0  0  0  0  0  0
  138.3935  150.6249  130.9065 H   0  0  0  0  0  0  0  0  0  0  0  0
  138.1441  148.8460  130.9065 H   0  0  0  0  0  0  0  0  0  0  0  0
  140.0050  149.6264  133.8925 H   0  0  0  0  0  0  0  0  0  0  0  0
  139.5600  148.0121  133.2424 H   0  0  0  0  0  0  0  0  0  0  0  0
  141.2776  148.5380  133.2424 H   0  0  0  0  0  0  0  0  0  0  0  0
  141.1620  147.7014  131.1913 H   0  0  0  0  0  0  0  0  0  0  0  0
  139.8395  148.1239  130.0515 H   0  0  0  0  0  0  0  0  0  0  0  0
  141.3633  149.0751  130.0515 H   0  0  0  0  0  0  0  0  0  0  0  0
  140.3852  153.0077  132.4774 H   0  0  0  0  0  0  0  0  0  0  0  0
  140.7197  152.9880  134.2498 H   0  0  0  0  0  0  0  0  0  0  0  0
  141.8389  154.8539  132.1151 H   0  0  0  0  0  0  0  0  0  0  0  0
  140.9553  155.2540  133.6482 H   0  0  0  0  0  0  0  0  0  0  0  0
  141.9903  157.2365  134.2854 H   0  0  0  0  0  0  0  0  0  0  0  0
  1  2  1  0
  2  3  1  0
  3  4  1  0
  4  5  2  0
  4  6  1  0
  6  7  1  0
  7  8  1  0
  8  9  1  0
  8 10  2  0
  7 11  2  0
 11 12  1  0
 12 13  2  0
 13 14  1  0
 14 15  2  0
 15 16  1  0
 16 17  1  0
 17 18  1  0
 18 19  1  0
 19 20  1  0
 20 21  2  0
 20 22  1  0
 22 23  1  0
 23 24  1  0
 23 25  1  0
 23 26  1  0
 19 27  1  0
 27 28  1  0
 15 29  1  0
 29 30  2  0
 30  6  1  0
 30 12  1  0
 28 16  1  0
  1 31  1  0
  1 32  1  0
  1 33  1  0
  2 34  1  0
  2 35  1  0
  9 36  1  0
 11 37  1  0
 13 38  1  0
 14 39  1  0
 17 40  1  0
 17 41  1  0
 18 42  1  0
 18 43  1  0
 24 44  1  0
 24 45  1  0
 24 46  1  0
 25 47  1  0
 25 48  1  0
 25 49  1  0
 26 50  1  0
 26 51  1  0
 26 52  1  0
 27 53  1  0
 27 54  1  0
 28 55  1  0
 28 56  1  0
 29 57  1  0
M  CHG  1   9  -1
M  END
>  <UniqueID>  (41) 
41

>  <SMILES>  (41) 
CCOC(=O)n1c(C([NH-])=O)cc2ccc(N3CCN(C(=O)OC(C)(C)C)CC3)cc21

>  <Energy>  (41) 
90.98747468544917

>  <Genealogy>  (41) 
CCOC(=O)n1c(C([NH-])=O)cc2ccc(N3CCN(C(=O)OC(C)(C)C)CC3)cc21 (protonated)
CCOC(=O)n1c(C([NH-])=O)cc2ccc(N3CCN(C(=O)OC(C)(C)C)CC3)cc21 (3D coordinates assigned)
CCOC(=O)n1c(C([NH-])=O)cc2ccc(N3CCN(C(=O)OC(C)(C)C)CC3)cc21 (nonaromatic ring conformer: 90.98747468544917 kcal/mol)

>  <smiles>  (41) 
CCOC(=O)n1c(C(N)=O)cc2ccc(N3CCN(C(=O)OC(C)(C)C)CC3)cc21

>  <score_type>  (41) 
oracle

>  <origin>  (41) 
adg

>  <m_score__min__energy>  (41) 
-8.1699999999999999

>  <m_primary>  (41) 
energy

$$$$
41:0
     RDKit          3D

 42 43  0  0  0  0  0  0  0  0999 V2000
  148.8110  160.0670  132.3620 C   0  0  0  0  0  0  0  0  0  0  0  0
  147.6790  159.8200  132.6920 C   0  0  0  0  0  0  0  0  0  0  0  0
  146.3280  159.5230  133.0850 C   0  0  0  0  0  0  0  0  0  0  0  0
  145.4750  160.5610  133.5250 C   0  0  0  0  0  0  0  0  0  0  0  0
  144.1490  160.2820  133.9020 C   0  0  0  0  0  0  0  0  0  0  0  0
  143.7140  158.9610  133.8310 C   0  0  0  0  0  0  0  0  0  0  0  0
  142.4780  158.4130  134.0940 C   0  0  0  0  0  0  0  0  0  0  0  0
  142.6080  157.0490  133.8200 C   0  0  0  0  0  0  0  0  0  0  0  0
  141.5000  156.0630  133.8780 C   0  0  0  0  0  0  0  0  0  0  0  0
  141.6440  154.7540  133.3190 N   0  0  0  0  0  0  0  0  0  0  0  0
  140.4100  156.3730  134.4260 O   0  0  0  0  0  0  0  0  0  0  0  0
  143.8830  156.7710  133.4240 N   0  0  0  0  0  0  0  0  0  0  0  0
  144.4270  155.5070  133.0190 C   0  0  0  0  0  0  0  0  0  0  0  0
  144.0920  155.0290  131.9020 O   0  0  0  0  0  0  0  0  0  0  0  0
  145.3660  154.7990  133.8550 N   0  0  0  0  0  0  0  0  0  0  0  0
  146.6960  155.3800  134.0750 C   0  0  0  0  0  0  0  0  0  0  0  0
  144.9980  153.5390  134.5160 C   0  0  0  0  0  0  0  0  0  0  0  0
  144.0620  152.7430  133.6620 C   0  0  0  0  0  0  0  0  0  0  0  0
  144.5150  152.1050  132.6740 O   0  0  0  0  0  0  0  0  0  0  0  0
  142.7120  152.6420  134.0220 O   0  0  0  0  0  0  0  0  0  0  0  0
  141.8770  151.5390  133.6690 C   0  0  0  0  0  0  0  0  0  0  0  0
  141.3140  151.6940  132.2600 C   0  0  0  0  0  0  0  0  0  0  0  0
  141.7280  152.9100  131.7040 O   0  0  0  0  0  0  0  0  0  0  0  0
  144.5400  157.9480  133.4180 C   0  0  0  0  0  0  0  0  0  0  0  0
  145.8610  158.1950  133.0340 C   0  0  0  0  0  0  0  0  0  0  0  0
  149.8446  160.2925  132.0607 H   0  0  0  0  0  0  0  0  0  0  0  0
  145.8508  161.5937  133.5728 H   0  0  0  0  0  0  0  0  0  0  0  0
  143.4761  161.0828  134.2425 H   0  0  0  0  0  0  0  0  0  0  0  0
  141.5779  158.9385  134.4457 H   0  0  0  0  0  0  0  0  0  0  0  0
  142.4990  154.4690  132.7950 H   0  0  0  0  0  0  0  0  0  0  0  0
  140.8580  154.0700  133.3880 H   0  0  0  0  0  0  0  0  0  0  0  0
  146.8858  155.4629  135.1553 H   0  0  0  0  0  0  0  0  0  0  0  0
  147.4590  154.7332  133.6173 H   0  0  0  0  0  0  0  0  0  0  0  0
  146.7399  156.3793  133.6173 H   0  0  0  0  0  0  0  0  0  0  0  0
  145.9082  152.9492  134.6997 H   0  0  0  0  0  0  0  0  0  0  0  0
  144.4948  153.7736  135.4656 H   0  0  0  0  0  0  0  0  0  0  0  0
  142.4683  150.6128  133.7180 H   0  0  0  0  0  0  0  0  0  0  0  0
  141.0348  151.5031  134.3757 H   0  0  0  0  0  0  0  0  0  0  0  0
  141.6744  150.8661  131.6318 H   0  0  0  0  0  0  0  0  0  0  0  0
  140.2152  151.6780  132.3093 H   0  0  0  0  0  0  0  0  0  0  0  0
  142.7100  152.9590  131.8480 H   0  0  0  0  0  0  0  0  0  0  0  0
  146.5166  157.3766  132.7018 H   0  0  0  0  0  0  0  0  0  0  0  0
  1  2  3  0
  2  3  1  0
  3  4  2  0
  4  5  1  0
  5  6  2  0
  6  7  1  0
  7  8  2  0
  8  9  1  0
  9 10  1  0
  9 11  2  0
  8 12  1  0
 12 13  1  0
 13 14  2  0
 13 15  1  0
 15 16  1  0
 15 17  1  0
 17 18  1  0
 18 19  2  0
 18 20  1  0
 20 21  1  0
 21 22  1  0
 22 23  1  0
 12 24  1  0
 24 25  2  0
 25  3  1  0
 24  6  1  0
  1 26  1  0
  4 27  1  0
  5 28  1  0
  7 29  1  0
 10 30  1  0
 10 31  1  0
 16 32  1  0
 16 33  1  0
 16 34  1  0
 17 35  1  0
 17 36  1  0
 21 37  1  0
 21 38  1  0
 22 39  1  0
 22 40  1  0
 23 41  1  0
 25 42  1  0
M  END
>  <UniqueID>  (42) 
42

>  <SMILES>  (42) 
C#Cc1ccc2cc(C(N)=O)n(C(=O)N(C)CC(=O)OCCO)c2c1

>  <Energy>  (42) 
70.66556855631391

>  <Genealogy>  (42) 
C#Cc1ccc2cc(C(N)=O)n(C(=O)N(C)CC(=O)OCCO)c2c1 (3D coordinates assigned)
C#Cc1ccc2cc(C(N)=O)n(C(=O)N(C)CC(=O)OCCO)c2c1 (optimized conformer: 70.66556855631391 kcal/mol)

>  <smiles>  (42) 
C#Cc1ccc2cc(C(N)=O)n(C(=O)N(C)CC(=O)OCCO)c2c1

>  <score_type>  (42) 
oracle

>  <origin>  (42) 
adg

>  <m_score__min__energy>  (42) 
-5.8899999999999997

>  <m_primary>  (42) 
energy

$$$$
42:0
     RDKit          3D

 37 39  0  0  0  0  0  0  0  0999 V2000
  140.9940  154.6440  133.6460 C   0  0  0  0  0  0  0  0  0  0  0  0
  141.4020  155.8830  133.3730 C   0  0  0  0  0  0  0  0  0  0  0  0
  142.5390  156.5150  134.0690 C   0  0  0  0  0  0  0  0  0  0  0  0
  143.5050  155.8150  134.4780 O   0  0  0  0  0  0  0  0  0  0  0  0
  142.5780  157.9400  134.2370 N   0  0  0  0  0  0  0  0  0  0  0  0
  141.5560  158.7760  134.5780 C   0  0  0  0  0  0  0  0  0  0  0  0
  140.1980  158.3600  134.9850 C   0  0  0  0  0  0  0  0  0  0  0  0
  139.8790  158.2340  136.3700 N   0  0  0  0  0  0  0  0  0  0  0  0
  139.3230  158.0820  134.1240 O   0  0  0  0  0  0  0  0  0  0  0  0
  141.9880  160.1020  134.5730 C   0  0  0  0  0  0  0  0  0  0  0  0
  143.3200  160.0500  134.2270 C   0  0  0  0  0  0  0  0  0  0  0  0
  144.2440  161.0770  134.0590 C   0  0  0  0  0  0  0  0  0  0  0  0
  145.5500  160.7300  133.6740 C   0  0  0  0  0  0  0  0  0  0  0  0
  145.9080  159.3730  133.4760 C   0  0  0  0  0  0  0  0  0  0  0  0
  147.2960  159.0160  133.0130 C   0  0  0  0  0  0  0  0  0  0  0  0
  147.6670  157.5170  133.0020 C   0  0  0  0  0  0  0  0  0  0  0  0
  149.0310  157.2650  132.5370 N   0  0  0  0  0  0  0  0  0  0  0  0
  147.8110  159.8450  131.8380 C   0  0  0  0  0  0  0  0  0  0  0  0
  148.3730  160.0800  133.2340 C   0  0  0  0  0  0  0  0  0  0  0  0
  144.9380  158.3600  133.6370 C   0  0  0  0  0  0  0  0  0  0  0  0
  143.6500  158.7330  134.0330 C   0  0  0  0  0  0  0  0  0  0  0  0
  140.1409  154.2133  133.1013 H   0  0  0  0  0  0  0  0  0  0  0  0
  141.5104  154.0520  134.4160 H   0  0  0  0  0  0  0  0  0  0  0  0
  140.8707  156.4564  132.5991 H   0  0  0  0  0  0  0  0  0  0  0  0
  139.4500  159.0270  136.8960 H   0  0  0  0  0  0  0  0  0  0  0  0
  141.3917  160.9987  134.7976 H   0  0  0  0  0  0  0  0  0  0  0  0
  143.9609  162.1273  134.2225 H   0  0  0  0  0  0  0  0  0  0  0  0
  146.3018  161.5191  133.5248 H   0  0  0  0  0  0  0  0  0  0  0  0
  147.5681  157.1247  134.0249 H   0  0  0  0  0  0  0  0  0  0  0  0
  146.9842  157.0161  132.3000 H   0  0  0  0  0  0  0  0  0  0  0  0
  148.9960  156.4640  131.8660 H   0  0  0  0  0  0  0  0  0  0  0  0
  149.5960  156.9340  133.3530 H   0  0  0  0  0  0  0  0  0  0  0  0
  148.4370  159.3740  131.0658 H   0  0  0  0  0  0  0  0  0  0  0  0
  147.3431  160.4809  131.0720 H   0  0  0  0  0  0  0  0  0  0  0  0
  149.4041  159.7780  133.4697 H   0  0  0  0  0  0  0  0  0  0  0  0
  148.4784  160.9546  133.8927 H   0  0  0  0  0  0  0  0  0  0  0  0
  145.1890  157.3045  133.4556 H   0  0  0  0  0  0  0  0  0  0  0  0
  1  2  2  0
  2  3  1  0
  3  4  2  0
  3  5  1  0
  5  6  1  0
  6  7  1  0
  7  8  1  0
  7  9  2  0
  6 10  2  0
 10 11  1  0
 11 12  2  0
 12 13  1  0
 13 14  2  0
 14 15  1  0
 15 16  1  0
 16 17  1  0
 15 18  1  0
 18 19  1  0
 14 20  1  0
 20 21  2  0
 21  5  1  0
 21 11  1  0
 19 15  1  0
  1 22  1  0
  1 23  1  0
  2 24  1  0
  8 25  1  0
 10 26  1  0
 12 27  1  0
 13 28  1  0
 16 29  1  0
 16 30  1  0
 17 31  1  0
 17 32  1  0
 18 33  1  0
 18 34  1  0
 19 35  1  0
 19 36  1  0
 20 37  1  0
M  CHG  1   8  -1
M  END
>  <UniqueID>  (43) 
43

>  <SMILES>  (43) 
C=CC(=O)n1c(C([NH-])=O)cc2ccc(C3(CN)CC3)cc21

>  <Energy>  (43) 
343.0676996919703

>  <Genealogy>  (43) 
C=CC(=O)n1c(C([NH-])=O)cc2ccc(C3(CN)CC3)cc21 (protonated)
C=CC(=O)n1c(C([NH-])=O)cc2ccc(C3(CN)CC3)cc21 (3D coordinates assigned)
C=CC(=O)n1c(C([NH-])=O)cc2ccc(C3(CN)CC3)cc21 (nonaromatic ring conformer: 343.0676996919703 kcal/mol)

>  <smiles>  (43) 
C=CC(=O)n1c(C(N)=O)cc2ccc(C3(CN)CC3)cc21

>  <score_type>  (43) 
oracle

>  <origin>  (43) 
adg

>  <m_score__min__energy>  (43) 
-7.5499999999999998

>  <m_primary>  (43) 
energy

$$$$
43:0
     RDKit          3D

 45 46  0  0  0  0  0  0  0  0999 V2000
  143.2550  149.7230  132.2290 C   0  0  0  0  0  0  0  0  0  0  0  0
  142.7390  150.9770  132.7900 N   0  0  0  0  0  0  0  0  0  0  0  0
  141.3140  151.1060  133.1110 C   0  0  0  0  0  0  0  0  0  0  0  0
  143.6560  152.0680  133.0190 C   0  0  0  0  0  0  0  0  0  0  0  0
  144.8320  152.0030  132.5670 O   0  0  0  0  0  0  0  0  0  0  0  0
  143.2640  153.2900  133.8090 C   0  0  0  0  0  0  0  0  0  0  0  0
  143.4480  154.4820  133.0500 O   0  0  0  0  0  0  0  0  0  0  0  0
  144.7030  154.9640  132.6600 C   0  0  0  0  0  0  0  0  0  0  0  0
  145.0970  154.8420  131.4680 O   0  0  0  0  0  0  0  0  0  0  0  0
  145.5620  155.6230  133.6510 C   0  0  0  0  0  0  0  0  0  0  0  0
  145.2880  155.5210  134.8770 O   0  0  0  0  0  0  0  0  0  0  0  0
  146.6950  156.4020  133.2380 N   0  0  0  0  0  0  0  0  0  0  0  0
  147.9230  155.9540  132.8560 C   0  0  0  0  0  0  0  0  0  0  0  0
  148.3100  154.5390  132.6690 C   0  0  0  0  0  0  0  0  0  0  0  0
  147.3620  153.4890  132.8410 N   0  0  0  0  0  0  0  0  0  0  0  0
  149.4880  154.2550  132.3220 O   0  0  0  0  0  0  0  0  0  0  0  0
  148.7780  157.0290  132.6160 C   0  0  0  0  0  0  0  0  0  0  0  0
  148.0270  158.1560  132.8680 C   0  0  0  0  0  0  0  0  0  0  0  0
  148.3790  159.4990  132.8100 C   0  0  0  0  0  0  0  0  0  0  0  0
  147.4070  160.4520  133.1610 C   0  0  0  0  0  0  0  0  0  0  0  0
  146.1020  160.0550  133.5730 C   0  0  0  0  0  0  0  0  0  0  0  0
  145.1070  161.0450  133.9430 N   0  0  0  0  0  0  0  0  0  0  0  0
  145.5180  162.3600  134.4530 C   0  0  0  0  0  0  0  0  0  0  0  0
  143.6750  160.7490  133.8160 C   0  0  0  0  0  0  0  0  0  0  0  0
  145.7940  158.6710  133.6170 C   0  0  0  0  0  0  0  0  0  0  0  0
  146.7770  157.7490  133.2440 C   0  0  0  0  0  0  0  0  0  0  0  0
  143.5348  149.0430  133.0472 H   0  0  0  0  0  0  0  0  0  0  0  0
  142.4779  149.2512  131.6097 H   0  0  0  0  0  0  0  0  0  0  0  0
  144.1391  149.9348  131.6097 H   0  0  0  0  0  0  0  0  0  0  0  0
  141.1838  151.1178  134.2032 H   0  0  0  0  0  0  0  0  0  0  0  0
  140.9256  152.0430  132.6853 H   0  0  0  0  0  0  0  0  0  0  0  0
  140.7637  150.2540  132.6853 H   0  0  0  0  0  0  0  0  0  0  0  0
  142.2048  153.2072  134.0938 H   0  0  0  0  0  0  0  0  0  0  0  0
  143.9054  153.3455  134.7010 H   0  0  0  0  0  0  0  0  0  0  0  0
  146.5390  153.3990  132.2050 H   0  0  0  0  0  0  0  0  0  0  0  0
  149.8289  156.9862  132.2939 H   0  0  0  0  0  0  0  0  0  0  0  0
  149.3880  159.8072  132.4987 H   0  0  0  0  0  0  0  0  0  0  0  0
  147.6580  161.5221  133.1169 H   0  0  0  0  0  0  0  0  0  0  0  0
  145.5132  162.3446  135.5529 H   0  0  0  0  0  0  0  0  0  0  0  0
  146.5315  162.5921  134.0940 H   0  0  0  0  0  0  0  0  0  0  0  0
  144.8170  163.1280  134.0940 H   0  0  0  0  0  0  0  0  0  0  0  0
  143.2294  160.6569  134.8175 H   0  0  0  0  0  0  0  0  0  0  0  0
  143.1794  161.5637  133.2677 H   0  0  0  0  0  0  0  0  0  0  0  0
  143.5430  159.8046  133.2677 H   0  0  0  0  0  0  0  0  0  0  0  0
  144.7993  158.3290  133.9389 H   0  0  0  0  0  0  0  0  0  0  0  0
  1  2  1  0
  2  3  1  0
  2  4  1  0
  4  5  2  0
  4  6  1  0
  6  7  1  0
  7  8  1  0
  8  9  2  0
  8 10  1  0
 10 11  2  0
 10 12  1  0
 12 13  1  0
 13 14  1  0
 14 15  1  0
 14 16  2  0
 13 17  2  0
 17 18  1  0
 18 19  2  0
 19 20  1  0
 20 21  2  0
 21 22  1  0
 22 23  1  0
 22 24  1  0
 21 25  1  0
 25 26  2  0
 26 12  1  0
 26 18  1  0
  1 27  1  0
  1 28  1  0
  1 29  1  0
  3 30  1  0
  3 31  1  0
  3 32  1  0
  6 33  1  0
  6 34  1  0
 15 35  1  0
 17 36  1  0
 19 37  1  0
 20 38  1  0
 23 39  1  0
 23 40  1  0
 23 41  1  0
 24 42  1  0
 24 43  1  0
 24 44  1  0
 25 45  1  0
M  CHG  1  15  -1
M  END
>  <UniqueID>  (44) 
44

>  <SMILES>  (44) 
CN(C)C(=O)COC(=O)C(=O)n1c(C([NH-])=O)cc2ccc(N(C)C)cc21

>  <Energy>  (44) 
79.01442727980523

>  <Genealogy>  (44) 
CN(C)C(=O)COC(=O)C(=O)n1c(C([NH-])=O)cc2ccc(N(C)C)cc21 (protonated)
CN(C)C(=O)COC(=O)C(=O)n1c(C([NH-])=O)cc2ccc(N(C)C)cc21 (3D coordinates assigned)
CN(C)C(=O)COC(=O)C(=O)n1c(C([NH-])=O)cc2ccc(N(C)C)cc21 (optimized conformer: 79.01442727980523 kcal/mol)

>  <smiles>  (44) 
CN(C)C(=O)COC(=O)C(=O)n1c(C(N)=O)cc2ccc(N(C)C)cc21

>  <score_type>  (44) 
oracle

>  <origin>  (44) 
adg

>  <m_score__min__energy>  (44) 
-6.4000000000000004

>  <m_primary>  (44) 
energy

$$$$
44:0
     RDKit          3D

 27 28  0  0  0  0  0  0  0  0999 V2000
  138.7360  155.7240  132.9900 N   0  0  0  0  0  0  0  0  0  0  0  0
  140.0930  155.3280  133.2060 C   0  0  0  0  0  0  0  0  0  0  0  0
  140.3660  154.1000  133.2750 O   0  0  0  0  0  0  0  0  0  0  0  0
  141.1700  156.3380  133.3280 C   0  0  0  0  0  0  0  0  0  0  0  0
  142.5320  156.0560  133.2240 C   0  0  0  0  0  0  0  0  0  0  0  0
  143.1720  157.2540  133.4470 C   0  0  0  0  0  0  0  0  0  0  0  0
  144.5300  157.5600  133.4410 C   0  0  0  0  0  0  0  0  0  0  0  0
  144.9050  158.8950  133.6680 C   0  0  0  0  0  0  0  0  0  0  0  0
  143.9230  159.8940  133.8880 C   0  0  0  0  0  0  0  0  0  0  0  0
  144.3260  161.3230  134.1130 C   0  0  0  0  0  0  0  0  0  0  0  0
  145.6510  161.4950  133.7520 F   0  0  0  0  0  0  0  0  0  0  0  0
  143.5320  162.1580  133.3490 F   0  0  0  0  0  0  0  0  0  0  0  0
  142.5550  159.5450  133.8840 C   0  0  0  0  0  0  0  0  0  0  0  0
  142.2120  158.2040  133.6760 C   0  0  0  0  0  0  0  0  0  0  0  0
  140.9800  157.6560  133.6160 N   0  0  0  0  0  0  0  0  0  0  0  0
  139.7280  158.3490  133.7400 C   0  0  0  0  0  0  0  0  0  0  0  0
  139.1040  158.3150  134.8340 O   0  0  0  0  0  0  0  0  0  0  0  0
  139.1720  159.1120  132.6140 C   0  0  0  0  0  0  0  0  0  0  0  0
  138.2790  158.6100  131.8820 O   0  0  0  0  0  0  0  0  0  0  0  0
  139.6440  160.3890  132.3380 O   0  0  0  0  0  0  0  0  0  0  0  0
  138.4520  156.7270  132.9930 H   0  0  0  0  0  0  0  0  0  0  0  0
  137.9930  154.9990  132.8700 H   0  0  0  0  0  0  0  0  0  0  0  0
  142.9964  155.0822  133.0092 H   0  0  0  0  0  0  0  0  0  0  0  0
  145.2861  156.7809  133.2640 H   0  0  0  0  0  0  0  0  0  0  0  0
  145.9706  159.1678  133.6751 H   0  0  0  0  0  0  0  0  0  0  0  0
  144.1993  161.5698  135.1774 H   0  0  0  0  0  0  0  0  0  0  0  0
  141.7781  160.3079  134.0404 H   0  0  0  0  0  0  0  0  0  0  0  0
  1  2  1  0
  2  3  2  0
  2  4  1  0
  4  5  2  0
  5  6  1  0
  6  7  2  0
  7  8  1  0
  8  9  2  0
  9 10  1  0
 10 11  1  0
 10 12  1  0
  9 13  1  0
 13 14  2  0
 14 15  1  0
 15 16  1  0
 16 17  2  0
 16 18  1  0
 18 19  2  0
 18 20  1  0
 15  4  1  0
 14  6  1  0
  1 21  1  0
  1 22  1  0
  5 23  1  0
  7 24  1  0
  8 25  1  0
 10 26  1  0
 13 27  1  0
M  CHG  1  20  -1
M  END
>  <UniqueID>  (45) 
45

>  <SMILES>  (45) 
NC(=O)c1cc2ccc(C(F)F)cc2n1C(=O)C(=O)[O-]

>  <Energy>  (45) 
66.21078815815339

>  <Genealogy>  (45) 
NC(=O)c1cc2ccc(C(F)F)cc2n1C(=O)C(=O)[O-] (protonated)
NC(=O)c1cc2ccc(C(F)F)cc2n1C(=O)C(=O)[O-] (3D coordinates assigned)
NC(=O)c1cc2ccc(C(F)F)cc2n1C(=O)C(=O)[O-] (optimized conformer: 66.21078815815339 kcal/mol)

>  <smiles>  (45) 
NC(=O)c1cc2ccc(C(F)F)cc2n1C(=O)C(=O)O

>  <score_type>  (45) 
oracle

>  <origin>  (45) 
adg

>  <m_score__min__energy>  (45) 
-5.6699999999999999

>  <m_primary>  (45) 
energy

$$$$
45:0
     RDKit          3D

 42 43  0  0  0  0  0  0  0  0999 V2000
  149.6500  151.0620  133.6010 C   0  0  0  0  0  0  0  0  0  0  0  0
  149.1390  152.3100  134.0550 O   0  0  0  0  0  0  0  0  0  0  0  0
  148.8610  153.3690  133.1860 C   0  0  0  0  0  0  0  0  0  0  0  0
  149.6090  153.5960  132.1950 O   0  0  0  0  0  0  0  0  0  0  0  0
  147.6170  154.1940  133.4140 C   0  0  1  0  0  0  0  0  0  0  0  0
  147.7040  155.0260  134.7070 C   0  0  0  0  0  0  0  0  0  0  0  0
  147.2770  155.0150  132.2310 N   0  0  0  0  0  0  0  0  0  0  0  0
  147.2900  156.4390  132.4930 C   0  0  0  0  0  0  0  0  0  0  0  0
  148.4800  157.1900  132.3040 C   0  0  0  0  0  0  0  0  0  0  0  0
  148.5100  158.5690  132.5710 C   0  0  0  0  0  0  0  0  0  0  0  0
  147.3370  159.1730  133.0110 C   0  0  0  0  0  0  0  0  0  0  0  0
  147.0960  160.4800  133.3690 C   0  0  0  0  0  0  0  0  0  0  0  0
  145.7530  160.5190  133.7400 C   0  0  0  0  0  0  0  0  0  0  0  0
  145.0520  161.7640  134.1150 C   0  0  0  0  0  0  0  0  0  0  0  0
  143.9180  162.2180  133.3810 N   0  0  0  0  0  0  0  0  0  0  0  0
  145.4900  162.4650  135.0670 O   0  0  0  0  0  0  0  0  0  0  0  0
  145.1890  159.2840  133.6270 N   0  0  0  0  0  0  0  0  0  0  0  0
  143.8610  158.8810  133.9970 C   0  0  0  0  0  0  0  0  0  0  0  0
  142.8880  159.6600  133.8000 O   0  0  0  0  0  0  0  0  0  0  0  0
  143.6570  157.6380  134.6040 O   0  0  0  0  0  0  0  0  0  0  0  0
  143.0670  156.5370  133.9240 C   0  0  0  0  0  0  0  0  0  0  0  0
  143.9260  155.3320  134.1040 C   0  0  0  0  0  0  0  0  0  0  0  0
  144.1800  154.9050  135.2610 O   0  0  0  0  0  0  0  0  0  0  0  0
  144.4910  154.7070  133.0000 O   0  0  0  0  0  0  0  0  0  0  0  0
  146.1710  158.4720  133.1760 C   0  0  0  0  0  0  0  0  0  0  0  0
  146.1170  157.0950  132.9330 C   0  0  0  0  0  0  0  0  0  0  0  0
  149.9070  150.4342  134.4669 H   0  0  0  0  0  0  0  0  0  0  0  0
  148.8878  150.5532  132.9926 H   0  0  0  0  0  0  0  0  0  0  0  0
  150.5502  151.2338  132.9926 H   0  0  0  0  0  0  0  0  0  0  0  0
  146.7833  153.4907  133.5562 H   0  0  0  0  0  0  0  0  0  0  0  0
  147.6342  154.3581  135.5782 H   0  0  0  0  0  0  0  0  0  0  0  0
  148.6633  155.5637  134.7332 H   0  0  0  0  0  0  0  0  0  0  0  0
  146.8767  155.7505  134.7332 H   0  0  0  0  0  0  0  0  0  0  0  0
  147.9510  154.7990  131.4600 H   0  0  0  0  0  0  0  0  0  0  0  0
  146.3320  154.7340  131.8780 H   0  0  0  0  0  0  0  0  0  0  0  0
  149.3893  156.6862  131.9443 H   0  0  0  0  0  0  0  0  0  0  0  0
  149.4325  159.1528  132.4362 H   0  0  0  0  0  0  0  0  0  0  0  0
  147.8111  161.3158  133.3635 H   0  0  0  0  0  0  0  0  0  0  0  0
  143.0360  161.6610  133.3580 H   0  0  0  0  0  0  0  0  0  0  0  0
  142.0672  156.3414  134.3389 H   0  0  0  0  0  0  0  0  0  0  0  0
  142.9768  156.7697  132.8527 H   0  0  0  0  0  0  0  0  0  0  0  0
  145.1820  156.5347  133.0811 H   0  0  0  0  0  0  0  0  0  0  0  0
  1  2  1  0
  2  3  1  0
  3  4  2  0
  3  5  1  0
  5  6  1  0
  5  7  1  0
  7  8  1  0
  8  9  2  0
  9 10  1  0
 10 11  2  0
 11 12  1  0
 12 13  2  0
 13 14  1  0
 14 15  1  0
 14 16  2  0
 13 17  1  0
 17 18  1  0
 18 19  2  0
 18 20  1  0
 20 21  1  0
 21 22  1  0
 22 23  2  0
 22 24  1  0
 17 25  1  0
 25 26  2  0
 26  8  1  0
 25 11  1  0
  1 27  1  0
  1 28  1  0
  1 29  1  0
  5 30  1  1
  6 31  1  0
  6 32  1  0
  6 33  1  0
  7 34  1  0
  7 35  1  0
  9 36  1  0
 10 37  1  0
 12 38  1  0
 15 39  1  0
 21 40  1  0
 21 41  1  0
 26 42  1  0
M  CHG  3   7   1  15  -1  24  -1
M  END
>  <UniqueID>  (46) 
46

>  <SMILES>  (46) 
COC(=O)[C@@H](C)[NH2+]c1ccc2cc(C([NH-])=O)n(C(=O)OCC(=O)[O-])c2c1

>  <Energy>  (46) 
77.09013357369236

>  <Genealogy>  (46) 
COC(=O)C(C)[NH2+]c1ccc2cc(C([NH-])=O)n(C(=O)OCC(=O)[O-])c2c1 (protonated)
COC(=O)[C@@H](C)[NH2+]c1ccc2cc(C([NH-])=O)n(C(=O)OCC(=O)[O-])c2c1 (chirality)
COC(=O)[C@@H](C)[NH2+]c1ccc2cc(C([NH-])=O)n(C(=O)OCC(=O)[O-])c2c1 (3D coordinates assigned)
COC(=O)[C@@H](C)[NH2+]c1ccc2cc(C([NH-])=O)n(C(=O)OCC(=O)[O-])c2c1 (optimized conformer: 77.09013357369236 kcal/mol)

>  <smiles>  (46) 
COC(=O)C(C)Nc1ccc2cc(C(N)=O)n(C(=O)OCC(=O)O)c2c1

>  <score_type>  (46) 
oracle

>  <origin>  (46) 
adg

>  <m_score__min__energy>  (46) 
-5.5899999999999999

>  <m_primary>  (46) 
energy

$$$$
46:0
     RDKit          3D

 46 47  0  0  0  0  0  0  0  0999 V2000
  144.2240  155.5930  133.5750 C   0  0  0  0  0  0  0  0  0  0  0  0
  143.9700  154.2970  133.8060 C   0  0  0  0  0  0  0  0  0  0  0  0
  144.8590  153.2550  133.2310 C   0  0  0  0  0  0  0  0  0  0  0  0
  144.4850  152.5790  132.2330 O   0  0  0  0  0  0  0  0  0  0  0  0
  146.1070  153.0020  133.8130 O   0  0  0  0  0  0  0  0  0  0  0  0
  147.0680  154.0160  134.0930 C   0  0  0  0  0  0  0  0  0  0  0  0
  147.0800  154.3280  135.5560 C   0  0  0  0  0  0  0  0  0  0  0  0
  146.9690  155.5230  135.9430 O   0  0  0  0  0  0  0  0  0  0  0  0
  147.1870  153.2640  136.5090 N   0  0  0  0  0  0  0  0  0  0  0  0
  148.3030  153.1200  137.4380 C   0  0  2  0  0  0  0  0  0  0  0  0
  148.4080  151.6640  137.8810 C   0  0  0  0  0  0  0  0  0  0  0  0
  148.1040  154.0130  138.6270 C   0  0  0  0  0  0  0  0  0  0  0  0
  147.0040  154.0110  139.2410 O   0  0  0  0  0  0  0  0  0  0  0  0
  149.1120  154.8800  139.0300 O   0  0  0  0  0  0  0  0  0  0  0  0
  142.7740  153.9170  134.6060 C   0  0  0  0  0  0  0  0  0  0  0  0
  142.1370  152.8620  134.3330 O   0  0  0  0  0  0  0  0  0  0  0  0
  142.3310  154.7230  135.7080 N   0  0  0  0  0  0  0  0  0  0  0  0
  142.6430  154.5850  137.0260 C   0  0  0  0  0  0  0  0  0  0  0  0
  143.5410  153.5440  137.5880 C   0  0  0  0  0  0  0  0  0  0  0  0
  144.9610  153.7030  137.5700 N   0  0  0  0  0  0  0  0  0  0  0  0
  143.0550  152.4980  138.0930 O   0  0  0  0  0  0  0  0  0  0  0  0
  142.0030  155.5760  137.7750 C   0  0  0  0  0  0  0  0  0  0  0  0
  141.2940  156.3260  136.8610 C   0  0  0  0  0  0  0  0  0  0  0  0
  140.4570  157.4200  137.0550 C   0  0  0  0  0  0  0  0  0  0  0  0
  139.8370  157.9820  135.9270 C   0  0  0  0  0  0  0  0  0  0  0  0
  140.0650  157.4520  134.6300 C   0  0  0  0  0  0  0  0  0  0  0  0
  139.3490  158.0500  133.4470 C   0  0  0  0  0  0  0  0  0  0  0  0
  137.9870  157.8780  133.6060 F   0  0  0  0  0  0  0  0  0  0  0  0
  139.6250  159.4030  133.3620 F   0  0  0  0  0  0  0  0  0  0  0  0
  139.7440  157.4510  132.2640 F   0  0  0  0  0  0  0  0  0  0  0  0
  140.9040  156.3210  134.4800 C   0  0  0  0  0  0  0  0  0  0  0  0
  141.5140  155.7930  135.6210 C   0  0  0  0  0  0  0  0  0  0  0  0
  143.5671  156.3664  133.9997 H   0  0  0  0  0  0  0  0  0  0  0  0
  145.0893  155.8829  132.9608 H   0  0  0  0  0  0  0  0  0  0  0  0
  148.0651  153.6655  133.7882 H   0  0  0  0  0  0  0  0  0  0  0  0
  146.8023  154.9257  133.5346 H   0  0  0  0  0  0  0  0  0  0  0  0
  149.2364  153.4134  136.9353 H   0  0  0  0  0  0  0  0  0  0  0  0
  148.4116  151.6144  138.9799 H   0  0  0  0  0  0  0  0  0  0  0  0
  147.5483  151.0992  137.4913 H   0  0  0  0  0  0  0  0  0  0  0  0
  149.3399  151.2285  137.4913 H   0  0  0  0  0  0  0  0  0  0  0  0
  145.4210  154.5100  137.0960 H   0  0  0  0  0  0  0  0  0  0  0  0
  145.5710  152.9670  137.9890 H   0  0  0  0  0  0  0  0  0  0  0  0
  142.0541  155.7259  138.8635 H   0  0  0  0  0  0  0  0  0  0  0  0
  140.2860  157.8321  138.0605 H   0  0  0  0  0  0  0  0  0  0  0  0
  139.1656  158.8446  136.0503 H   0  0  0  0  0  0  0  0  0  0  0  0
  141.0712  155.8698  133.4908 H   0  0  0  0  0  0  0  0  0  0  0  0
  1  2  2  0
  2  3  1  0
  3  4  2  0
  3  5  1  0
  5  6  1  0
  6  7  1  0
  7  8  2  0
  7  9  1  0
  9 10  1  0
 10 11  1  0
 10 12  1  0
 12 13  2  0
 12 14  1  0
  2 15  1  0
 15 16  2  0
 15 17  1  0
 17 18  1  0
 18 19  1  0
 19 20  1  0
 19 21  2  0
 18 22  2  0
 22 23  1  0
 23 24  2  0
 24 25  1  0
 25 26  2  0
 26 27  1  0
 27 28  1  0
 27 29  1  0
 27 30  1  0
 26 31  1  0
 31 32  2  0
 32 17  1  0
 32 23  1  0
  1 33  1  0
  1 34  1  0
  6 35  1  0
  6 36  1  0
 10 37  1  6
 11 38  1  0
 11 39  1  0
 11 40  1  0
 20 41  1  0
 20 42  1  0
 22 43  1  0
 24 44  1  0
 25 45  1  0
 31 46  1  0
M  CHG  2   9  -1  14  -1
M  END
>  <UniqueID>  (47) 
47

>  <SMILES>  (47) 
C=C(C(=O)OCC(=O)[N-][C@H](C)C(=O)[O-])C(=O)n1c(C(N)=O)cc2ccc(C(F)(F)F)cc21

>  <Energy>  (47) 
78.08224356146766

>  <Genealogy>  (47) 
C=C(C(=O)OCC(=O)[N-]C(C)C(=O)[O-])C(=O)n1c(C(N)=O)cc2ccc(C(F)(F)F)cc21 (protonated)
C=C(C(=O)OCC(=O)[N-][C@H](C)C(=O)[O-])C(=O)n1c(C(N)=O)cc2ccc(C(F)(F)F)cc21 (chirality)
C=C(C(=O)OCC(=O)[N-][C@H](C)C(=O)[O-])C(=O)n1c(C(N)=O)cc2ccc(C(F)(F)F)cc21 (3D coordinates assigned)
C=C(C(=O)OCC(=O)[N-][C@H](C)C(=O)[O-])C(=O)n1c(C(N)=O)cc2ccc(C(F)(F)F)cc21 (optimized conformer: 78.08224356146766 kcal/mol)

>  <smiles>  (47) 
C=C(C(=O)OCC(=O)NC(C)C(=O)O)C(=O)n1c(C(N)=O)cc2ccc(C(F)(F)F)cc21

>  <score_type>  (47) 
oracle

>  <origin>  (47) 
adg

>  <m_score__min__energy>  (47) 
-7.1900000000000004

>  <m_primary>  (47) 
energy

$$$$
47:0
     RDKit          3D

 41 42  0  0  0  0  0  0  0  0999 V2000
  139.0700  149.1150  129.2890 C   0  0  0  0  0  0  0  0  0  0  0  0
  138.7950  148.1590  130.3760 N   0  0  0  0  0  0  0  0  0  0  0  0
  139.1080  146.7960  129.9150 C   0  0  0  0  0  0  0  0  0  0  0  0
  139.5900  148.4780  131.5820 C   0  0  0  0  0  0  0  0  0  0  0  0
  140.5980  149.6180  131.3410 C   0  0  0  0  0  0  0  0  0  0  0  0
  140.3280  150.9100  132.1410 C   0  0  0  0  0  0  0  0  0  0  0  0
  141.3880  151.9300  131.9950 N   0  0  0  0  0  0  0  0  0  0  0  0
  141.7500  152.5440  133.2530 C   0  0  0  0  0  0  0  0  0  0  0  0
  142.5410  153.7230  133.2740 C   0  0  0  0  0  0  0  0  0  0  0  0
  142.8980  154.3280  134.4890 C   0  0  0  0  0  0  0  0  0  0  0  0
  142.4770  153.7220  135.6680 C   0  0  0  0  0  0  0  0  0  0  0  0
  142.6490  154.1160  136.9730 C   0  0  0  0  0  0  0  0  0  0  0  0
  142.0050  153.1470  137.7400 C   0  0  0  0  0  0  0  0  0  0  0  0
  142.0180  153.1400  139.2170 C   0  0  0  0  0  0  0  0  0  0  0  0
  140.8260  153.3750  139.9620 N   0  0  0  0  0  0  0  0  0  0  0  0
  143.0860  152.8730  139.8300 O   0  0  0  0  0  0  0  0  0  0  0  0
  141.4500  152.1950  136.9390 N   0  0  0  0  0  0  0  0  0  0  0  0
  140.6150  151.0940  137.3330 C   0  0  0  0  0  0  0  0  0  0  0  0
  140.1100  151.0600  138.4850 O   0  0  0  0  0  0  0  0  0  0  0  0
  140.3830  150.0420  136.4550 O   0  0  0  0  0  0  0  0  0  0  0  0
  141.7500  152.5600  135.6720 C   0  0  0  0  0  0  0  0  0  0  0  0
  141.3650  151.9450  134.4760 C   0  0  0  0  0  0  0  0  0  0  0  0
  139.3499  150.0882  129.7187 H   0  0  0  0  0  0  0  0  0  0  0  0
  139.8958  148.7370  128.6684 H   0  0  0  0  0  0  0  0  0  0  0  0
  138.1695  149.2336  128.6684 H   0  0  0  0  0  0  0  0  0  0  0  0
  139.2586  146.1402  130.7851 H   0  0  0  0  0  0  0  0  0  0  0  0
  138.2742  146.4138  129.3077 H   0  0  0  0  0  0  0  0  0  0  0  0
  140.0250  146.8159  129.3077 H   0  0  0  0  0  0  0  0  0  0  0  0
  138.9037  148.7786  132.3873 H   0  0  0  0  0  0  0  0  0  0  0  0
  140.1621  147.5782  131.8523 H   0  0  0  0  0  0  0  0  0  0  0  0
  141.5987  149.2514  131.6132 H   0  0  0  0  0  0  0  0  0  0  0  0
  140.5052  149.8899  130.2792 H   0  0  0  0  0  0  0  0  0  0  0  0
  139.3788  151.3428  131.7922 H   0  0  0  0  0  0  0  0  0  0  0  0
  140.2949  150.6296  133.2042 H   0  0  0  0  0  0  0  0  0  0  0  0
  142.2250  151.5130  131.5240 H   0  0  0  0  0  0  0  0  0  0  0  0
  141.0340  152.6870  131.3650 H   0  0  0  0  0  0  0  0  0  0  0  0
  142.8782  154.1678  132.3261 H   0  0  0  0  0  0  0  0  0  0  0  0
  143.4926  155.2532  134.5083 H   0  0  0  0  0  0  0  0  0  0  0  0
  143.1820  155.0073  137.3355 H   0  0  0  0  0  0  0  0  0  0  0  0
  139.9890  152.7640  139.8420 H   0  0  0  0  0  0  0  0  0  0  0  0
  140.7759  151.0161  134.4859 H   0  0  0  0  0  0  0  0  0  0  0  0
  1  2  1  0
  2  3  1  0
  2  4  1  0
  4  5  1  0
  5  6  1  0
  6  7  1  0
  7  8  1  0
  8  9  2  0
  9 10  1  0
 10 11  2  0
 11 12  1  0
 12 13  2  0
 13 14  1  0
 14 15  1  0
 14 16  2  0
 13 17  1  0
 17 18  1  0
 18 19  2  0
 18 20  1  0
 17 21  1  0
 21 22  2  0
 22  8  1  0
 21 11  1  0
  1 23  1  0
  1 24  1  0
  1 25  1  0
  3 26  1  0
  3 27  1  0
  3 28  1  0
  4 29  1  0
  4 30  1  0
  5 31  1  0
  5 32  1  0
  6 33  1  0
  6 34  1  0
  7 35  1  0
  7 36  1  0
  9 37  1  0
 10 38  1  0
 12 39  1  0
 15 40  1  0
 22 41  1  0
M  CHG  3   7   1  15  -1  20  -1
M  END
>  <UniqueID>  (48) 
48

>  <SMILES>  (48) 
CN(C)CCC[NH2+]c1ccc2cc(C([NH-])=O)n(C(=O)[O-])c2c1

>  <Energy>  (48) 
80.20036570340494

>  <Genealogy>  (48) 
CN(C)CCC[NH2+]c1ccc2cc(C([NH-])=O)n(C(=O)[O-])c2c1 (protonated)
CN(C)CCC[NH2+]c1ccc2cc(C([NH-])=O)n(C(=O)[O-])c2c1 (3D coordinates assigned)
CN(C)CCC[NH2+]c1ccc2cc(C([NH-])=O)n(C(=O)[O-])c2c1 (optimized conformer: 80.20036570340494 kcal/mol)

>  <smiles>  (48) 
CN(C)CCCNc1ccc2cc(C(N)=O)n(C(=O)O)c2c1

>  <score_type>  (48) 
oracle

>  <origin>  (48) 
adg

>  <m_score__min__energy>  (48) 
-6.6799999999999997

>  <m_primary>  (48) 
energy

$$$$
48:0
     RDKit          3D

 38 39  0  0  0  0  0  0  0  0999 V2000
  140.8360  156.3260  134.5250 C   0  0  0  0  0  0  0  0  0  0  0  0
  141.9650  157.1130  135.0260 N   0  0  0  0  0  0  0  0  0  0  0  0
  141.7110  158.1760  135.9120 C   0  0  0  0  0  0  0  0  0  0  0  0
  141.4990  159.0530  136.6370 N   0  0  0  0  0  0  0  0  0  0  0  0
  143.2800  156.9210  134.4690 C   0  0  0  0  0  0  0  0  0  0  0  0
  144.0910  156.1430  135.0430 O   0  0  0  0  0  0  0  0  0  0  0  0
  143.7240  157.6180  133.2420 C   0  0  0  0  0  0  0  0  0  0  0  0
  142.9570  157.6810  132.2420 O   0  0  0  0  0  0  0  0  0  0  0  0
  145.0070  158.2590  133.1960 N   0  0  0  0  0  0  0  0  0  0  0  0
  145.2940  159.5790  133.3970 C   0  0  0  0  0  0  0  0  0  0  0  0
  144.3230  160.6350  133.7490 C   0  0  0  0  0  0  0  0  0  0  0  0
  142.9580  160.5060  133.3530 N   0  0  0  0  0  0  0  0  0  0  0  0
  144.6820  161.6570  134.3980 O   0  0  0  0  0  0  0  0  0  0  0  0
  146.6690  159.7940  133.3180 C   0  0  0  0  0  0  0  0  0  0  0  0
  147.2190  158.5550  133.0700 C   0  0  0  0  0  0  0  0  0  0  0  0
  148.5510  158.1800  132.9160 C   0  0  0  0  0  0  0  0  0  0  0  0
  148.8290  156.8230  132.6700 C   0  0  0  0  0  0  0  0  0  0  0  0
  147.7780  155.8740  132.5630 C   0  0  0  0  0  0  0  0  0  0  0  0
  148.0420  154.4850  132.2900 N   0  0  0  0  0  0  0  0  0  0  0  0
  149.3100  153.8360  132.6380 C   0  0  0  0  0  0  0  0  0  0  0  0
  149.1170  152.3340  132.8780 C   0  0  0  0  0  0  0  0  0  0  0  0
  147.7960  151.9540  132.5950 O   0  0  0  0  0  0  0  0  0  0  0  0
  146.4380  156.2990  132.7130 C   0  0  0  0  0  0  0  0  0  0  0  0
  146.1930  157.6500  132.9870 C   0  0  0  0  0  0  0  0  0  0  0  0
  140.2623  155.9261  135.3741 H   0  0  0  0  0  0  0  0  0  0  0  0
  140.1853  156.9672  133.9123 H   0  0  0  0  0  0  0  0  0  0  0  0
  141.2125  155.4936  133.9123 H   0  0  0  0  0  0  0  0  0  0  0  0
  142.6750  159.8270  132.6120 H   0  0  0  0  0  0  0  0  0  0  0  0
  147.2019  160.7498  133.4298 H   0  0  0  0  0  0  0  0  0  0  0  0
  149.3606  158.9215  132.9845 H   0  0  0  0  0  0  0  0  0  0  0  0
  149.8726  156.4933  132.5592 H   0  0  0  0  0  0  0  0  0  0  0  0
  147.2790  153.9180  131.8560 H   0  0  0  0  0  0  0  0  0  0  0  0
  150.0241  153.9787  131.8136 H   0  0  0  0  0  0  0  0  0  0  0  0
  149.6909  154.2905  133.5645 H   0  0  0  0  0  0  0  0  0  0  0  0
  149.8022  151.7728  132.2257 H   0  0  0  0  0  0  0  0  0  0  0  0
  149.3308  152.1134  133.9343 H   0  0  0  0  0  0  0  0  0  0  0  0
  147.4950  151.3890  133.3540 H   0  0  0  0  0  0  0  0  0  0  0  0
  145.6070  155.5847  132.6167 H   0  0  0  0  0  0  0  0  0  0  0  0
  1  2  1  0
  2  3  1  0
  3  4  3  0
  2  5  1  0
  5  6  2  0
  5  7  1  0
  7  8  2  0
  7  9  1  0
  9 10  1  0
 10 11  1  0
 11 12  1  0
 11 13  2  0
 10 14  2  0
 14 15  1  0
 15 16  2  0
 16 17  1  0
 17 18  2  0
 18 19  1  0
 19 20  1  0
 20 21  1  0
 21 22  1  0
 18 23  1  0
 23 24  2  0
 24  9  1  0
 24 15  1  0
  1 25  1  0
  1 26  1  0
  1 27  1  0
 12 28  1  0
 14 29  1  0
 16 30  1  0
 17 31  1  0
 19 32  1  0
 20 33  1  0
 20 34  1  0
 21 35  1  0
 21 36  1  0
 22 37  1  0
 23 38  1  0
M  CHG  1  12  -1
M  END
>  <UniqueID>  (49) 
49

>  <SMILES>  (49) 
CN(C#N)C(=O)C(=O)n1c(C([NH-])=O)cc2ccc(NCCO)cc21

>  <Energy>  (49) 
75.2970482437679

>  <Genealogy>  (49) 
CN(C#N)C(=O)C(=O)n1c(C([NH-])=O)cc2ccc(NCCO)cc21 (protonated)
CN(C#N)C(=O)C(=O)n1c(C([NH-])=O)cc2ccc(NCCO)cc21 (3D coordinates assigned)
CN(C#N)C(=O)C(=O)n1c(C([NH-])=O)cc2ccc(NCCO)cc21 (optimized conformer: 75.2970482437679 kcal/mol)

>  <smiles>  (49) 
CN(C#N)C(=O)C(=O)n1c(C(N)=O)cc2ccc(NCCO)cc21

>  <score_type>  (49) 
oracle

>  <origin>  (49) 
adg

>  <m_score__min__energy>  (49) 
-6.3899999999999997

>  <m_primary>  (49) 
energy

$$$$
49:0
     RDKit          3D

 45 46  0  0  0  0  0  0  0  0999 V2000
  143.1970  155.6420  135.4700 C   0  0  0  0  0  0  0  0  0  0  0  0
  143.6590  155.5370  134.0610 N   0  0  0  0  0  0  0  0  0  0  0  0
  144.0950  154.2100  133.6060 C   0  0  0  0  0  0  0  0  0  0  0  0
  145.3380  153.7710  134.3330 C   0  0  0  0  0  0  0  0  0  0  0  0
  145.5160  154.0740  135.5460 O   0  0  0  0  0  0  0  0  0  0  0  0
  146.3320  153.0810  133.6540 O   0  0  0  0  0  0  0  0  0  0  0  0
  143.9050  156.7600  133.3040 C   0  0  0  0  0  0  0  0  0  0  0  0
  142.9800  157.2460  132.5760 O   0  0  0  0  0  0  0  0  0  0  0  0
  145.0390  157.5800  133.5770 N   0  0  0  0  0  0  0  0  0  0  0  0
  145.0040  158.9290  133.7410 C   0  0  0  0  0  0  0  0  0  0  0  0
  143.7830  159.7460  133.9710 C   0  0  0  0  0  0  0  0  0  0  0  0
  142.6750  159.1770  134.6670 N   0  0  0  0  0  0  0  0  0  0  0  0
  143.7300  160.9570  133.6240 O   0  0  0  0  0  0  0  0  0  0  0  0
  146.2700  159.4780  133.4970 C   0  0  0  0  0  0  0  0  0  0  0  0
  147.0860  158.4120  133.2050 C   0  0  0  0  0  0  0  0  0  0  0  0
  148.4260  158.3920  132.8360 C   0  0  0  0  0  0  0  0  0  0  0  0
  149.0010  157.1450  132.5550 C   0  0  0  0  0  0  0  0  0  0  0  0
  148.2310  155.9640  132.6070 C   0  0  0  0  0  0  0  0  0  0  0  0
  148.8940  154.6890  132.4770 C   0  0  0  0  0  0  0  0  0  0  0  0
  149.4550  153.6200  132.5060 C   0  0  0  0  0  0  0  0  0  0  0  0
  149.9700  152.2580  132.7000 C   0  0  0  0  0  0  0  0  0  0  0  0
  148.9880  151.3860  133.4070 N   0  0  0  0  0  0  0  0  0  0  0  0
  148.3870  150.3490  132.5320 C   0  0  0  0  0  0  0  0  0  0  0  0
  149.5910  150.7640  134.5990 C   0  0  0  0  0  0  0  0  0  0  0  0
  146.8680  156.0160  132.9830 C   0  0  0  0  0  0  0  0  0  0  0  0
  146.3260  157.2700  133.2700 C   0  0  0  0  0  0  0  0  0  0  0  0
  144.0416  155.4500  136.1481 H   0  0  0  0  0  0  0  0  0  0  0  0
  142.8028  156.6526  135.6523 H   0  0  0  0  0  0  0  0  0  0  0  0
  142.4047  154.9010  135.6523 H   0  0  0  0  0  0  0  0  0  0  0  0
  143.2917  153.4829  133.7959 H   0  0  0  0  0  0  0  0  0  0  0  0
  144.3194  154.2649  132.5305 H   0  0  0  0  0  0  0  0  0  0  0  0
  142.2570  158.2690  134.3460 H   0  0  0  0  0  0  0  0  0  0  0  0
  146.5517  160.5407  133.5320 H   0  0  0  0  0  0  0  0  0  0  0  0
  149.0130  159.3197  132.7671 H   0  0  0  0  0  0  0  0  0  0  0  0
  150.0671  157.0864  132.2903 H   0  0  0  0  0  0  0  0  0  0  0  0
  150.1918  151.8185  131.7163 H   0  0  0  0  0  0  0  0  0  0  0  0
  150.8764  152.3220  133.3200 H   0  0  0  0  0  0  0  0  0  0  0  0
  148.1920  151.9840  133.7530 H   0  0  0  0  0  0  0  0  0  0  0  0
  147.9319  149.5637  133.1534 H   0  0  0  0  0  0  0  0  0  0  0  0
  147.6147  150.8077  131.8970 H   0  0  0  0  0  0  0  0  0  0  0  0
  149.1689  149.9069  131.8970 H   0  0  0  0  0  0  0  0  0  0  0  0
  149.1571  151.2116  135.5053 H   0  0  0  0  0  0  0  0  0  0  0  0
  149.3882  149.6829  134.5908 H   0  0  0  0  0  0  0  0  0  0  0  0
  150.6779  150.9332  134.5908 H   0  0  0  0  0  0  0  0  0  0  0  0
  146.2583  155.1026  133.0468 H   0  0  0  0  0  0  0  0  0  0  0  0
  1  2  1  0
  2  3  1  0
  3  4  1  0
  4  5  2  0
  4  6  1  0
  2  7  1  0
  7  8  2  0
  7  9  1  0
  9 10  1  0
 10 11  1  0
 11 12  1  0
 11 13  2  0
 10 14  2  0
 14 15  1  0
 15 16  2  0
 16 17  1  0
 17 18  2  0
 18 19  1  0
 19 20  3  0
 20 21  1  0
 21 22  1  0
 22 23  1  0
 22 24  1  0
 18 25  1  0
 25 26  2  0
 26  9  1  0
 26 15  1  0
  1 27  1  0
  1 28  1  0
  1 29  1  0
  3 30  1  0
  3 31  1  0
 12 32  1  0
 14 33  1  0
 16 34  1  0
 17 35  1  0
 21 36  1  0
 21 37  1  0
 22 38  1  0
 23 39  1  0
 23 40  1  0
 23 41  1  0
 24 42  1  0
 24 43  1  0
 24 44  1  0
 25 45  1  0
M  CHG  3   6  -1  12  -1  22   1
M  END
>  <UniqueID>  (50) 
50

>  <SMILES>  (50) 
CN(CC(=O)[O-])C(=O)n1c(C([NH-])=O)cc2ccc(C#CC[NH+](C)C)cc21

>  <Energy>  (50) 
94.68789133379069

>  <Genealogy>  (50) 
CN(CC(=O)[O-])C(=O)n1c(C([NH-])=O)cc2ccc(C#CC[NH+](C)C)cc21 (protonated)
CN(CC(=O)[O-])C(=O)n1c(C([NH-])=O)cc2ccc(C#CC[NH+](C)C)cc21 (3D coordinates assigned)
CN(CC(=O)[O-])C(=O)n1c(C([NH-])=O)cc2ccc(C#CC[NH+](C)C)cc21 (optimized conformer: 94.68789133379069 kcal/mol)

>  <smiles>  (50) 
CN(C)CC#Cc1ccc2cc(C(N)=O)n(C(=O)N(C)CC(=O)O)c2c1

>  <score_type>  (50) 
oracle

>  <origin>  (50) 
adg

>  <m_score__min__energy>  (50) 
-7.1200000000000001

>  <m_primary>  (50) 
energy

$$$$
50:0
     RDKit          3D

 68 71  0  0  0  0  0  0  0  0999 V2000
  136.7150  160.1140  130.6480 C   0  0  0  0  0  0  0  0  0  0  0  0
  138.0210  160.0300  131.3250 N   0  0  0  0  0  0  0  0  0  0  0  0
  139.0840  160.4720  130.4100 C   0  0  0  0  0  0  0  0  0  0  0  0
  138.2830  158.6530  131.8040 C   0  0  0  0  0  0  0  0  0  0  0  0
  139.3190  158.6600  132.9360 C   0  0  0  0  0  0  0  0  0  0  0  0
  140.6850  158.1370  132.4640 C   0  0  0  0  0  0  0  0  0  0  0  0
  141.6870  158.2270  133.5400 N   0  0  0  0  0  0  0  0  0  0  0  0
  142.3100  159.5030  133.8500 C   0  0  0  0  0  0  0  0  0  0  0  0
  141.6150  160.4760  134.2460 O   0  0  0  0  0  0  0  0  0  0  0  0
  143.7660  159.7000  133.7420 C   0  0  0  0  0  0  0  0  0  0  0  0
  144.3220  160.9810  133.8580 C   0  0  0  0  0  0  0  0  0  0  0  0
  145.7020  161.1580  133.7480 C   0  0  0  0  0  0  0  0  0  0  0  0
  146.5360  160.0600  133.5200 C   0  0  0  0  0  0  0  0  0  0  0  0
  145.9960  158.7660  133.4110 C   0  0  0  0  0  0  0  0  0  0  0  0
  146.8770  157.5970  133.1750 C   0  0  0  0  0  0  0  0  0  0  0  0
  148.2470  157.7850  132.8540 C   0  0  0  0  0  0  0  0  0  0  0  0
  149.0850  156.6850  132.6040 C   0  0  0  0  0  0  0  0  0  0  0  0
  148.5310  155.4120  132.6870 C   0  0  0  0  0  0  0  0  0  0  0  0
  149.1010  154.1820  132.4500 C   0  0  0  0  0  0  0  0  0  0  0  0
  148.0780  153.2560  132.6420 C   0  0  0  0  0  0  0  0  0  0  0  0
  148.2740  151.7930  132.5580 C   0  0  0  0  0  0  0  0  0  0  0  0
  147.6560  151.0540  131.5080 N   0  0  0  0  0  0  0  0  0  0  0  0
  149.0080  151.1930  133.3870 O   0  0  0  0  0  0  0  0  0  0  0  0
  146.9190  153.8890  132.9860 N   0  0  0  0  0  0  0  0  0  0  0  0
  145.6220  153.3040  133.1760 C   0  0  0  0  0  0  0  0  0  0  0  0
  145.2880  152.2880  132.5080 O   0  0  0  0  0  0  0  0  0  0  0  0
  144.7470  153.8510  134.1220 O   0  0  0  0  0  0  0  0  0  0  0  0
  144.8050  153.5380  135.5110 C   0  0  0  0  0  0  0  0  0  0  0  0
  146.1090  153.9880  136.0910 C   0  0  0  0  0  0  0  0  0  0  0  0
  146.4960  155.1750  135.9310 O   0  0  0  0  0  0  0  0  0  0  0  0
  146.9100  153.0910  136.7880 O   0  0  0  0  0  0  0  0  0  0  0  0
  147.2150  155.2080  133.0110 C   0  0  0  0  0  0  0  0  0  0  0  0
  146.3540  156.2840  133.2520 C   0  0  0  0  0  0  0  0  0  0  0  0
  144.6050  158.5950  133.5330 C   0  0  0  0  0  0  0  0  0  0  0  0
  142.0350  156.9660  134.2370 C   0  0  0  0  0  0  0  0  0  0  0  0
  142.7260  155.9300  133.3560 C   0  0  0  0  0  0  0  0  0  0  0  0
  141.5570  154.9760  133.5790 C   0  0  0  0  0  0  0  0  0  0  0  0
  140.8610  156.0150  134.4540 C   0  0  0  0  0  0  0  0  0  0  0  0
  135.9145  160.1655  131.4007 H   0  0  0  0  0  0  0  0  0  0  0  0
  136.6854  161.0159  130.0190 H   0  0  0  0  0  0  0  0  0  0  0  0
  136.5701  159.2233  130.0190 H   0  0  0  0  0  0  0  0  0  0  0  0
  139.9449  160.8300  130.9938 H   0  0  0  0  0  0  0  0  0  0  0  0
  139.3960  159.6290  129.7759 H   0  0  0  0  0  0  0  0  0  0  0  0
  138.7063  161.2876  129.7759 H   0  0  0  0  0  0  0  0  0  0  0  0
  137.3448  158.2155  132.1760 H   0  0  0  0  0  0  0  0  0  0  0  0
  138.6772  158.0569  130.9678 H   0  0  0  0  0  0  0  0  0  0  0  0
  139.4395  159.6904  133.3018 H   0  0  0  0  0  0  0  0  0  0  0  0
  138.9566  157.9962  133.7348 H   0  0  0  0  0  0  0  0  0  0  0  0
  140.5808  157.0859  132.1569 H   0  0  0  0  0  0  0  0  0  0  0  0
  141.0229  158.7546  131.6188 H   0  0  0  0  0  0  0  0  0  0  0  0
  143.6697  161.8486  134.0361 H   0  0  0  0  0  0  0  0  0  0  0  0
  146.1347  162.1651  133.8411 H   0  0  0  0  0  0  0  0  0  0  0  0
  147.6218  160.2088  133.4252 H   0  0  0  0  0  0  0  0  0  0  0  0
  148.6576  158.8041  132.8003 H   0  0  0  0  0  0  0  0  0  0  0  0
  150.1460  156.8264  132.3506 H   0  0  0  0  0  0  0  0  0  0  0  0
  150.1438  153.9740  132.1685 H   0  0  0  0  0  0  0  0  0  0  0  0
  146.6210  150.9180  131.4860 H   0  0  0  0  0  0  0  0  0  0  0  0
  143.9810  154.0471  136.0324 H   0  0  0  0  0  0  0  0  0  0  0  0
  144.7146  152.4489  135.6364 H   0  0  0  0  0  0  0  0  0  0  0  0
  145.2950  156.1136  133.4957 H   0  0  0  0  0  0  0  0  0  0  0  0
  144.1714  157.5864  133.4640 H   0  0  0  0  0  0  0  0  0  0  0  0
  142.5610  157.3970  135.1016 H   0  0  0  0  0  0  0  0  0  0  0  0
  142.8581  156.2440  132.3101 H   0  0  0  0  0  0  0  0  0  0  0  0
  143.7572  155.6118  133.5690 H   0  0  0  0  0  0  0  0  0  0  0  0
  141.0056  154.7219  132.6617 H   0  0  0  0  0  0  0  0  0  0  0  0
  141.7371  153.9611  133.9630 H   0  0  0  0  0  0  0  0  0  0  0  0
  139.9053  156.3786  134.0485 H   0  0  0  0  0  0  0  0  0  0  0  0
  140.5269  155.7592  135.4703 H   0  0  0  0  0  0  0  0  0  0  0  0
  1  2  1  0
  2  3  1  0
  2  4  1  0
  4  5  1  0
  5  6  1  0
  6  7  1  0
  7  8  1  0
  8  9  2  0
  8 10  1  0
 10 11  2  0
 11 12  1  0
 12 13  2  0
 13 14  1  0
 14 15  1  0
 15 16  2  0
 16 17  1  0
 17 18  2  0
 18 19  1  0
 19 20  2  0
 20 21  1  0
 21 22  1  0
 21 23  2  0
 20 24  1  0
 24 25  1  0
 25 26  2  0
 25 27  1  0
 27 28  1  0
 28 29  1  0
 29 30  2  0
 29 31  1  0
 24 32  1  0
 32 33  2  0
 14 34  2  0
  7 35  1  0
 35 36  1  0
 36 37  1  0
 37 38  1  0
 34 10  1  0
 38 35  1  0
 33 15  1  0
 32 18  1  0
  1 39  1  0
  1 40  1  0
  1 41  1  0
  3 42  1  0
  3 43  1  0
  3 44  1  0
  4 45  1  0
  4 46  1  0
  5 47  1  0
  5 48  1  0
  6 49  1  0
  6 50  1  0
 11 51  1  0
 12 52  1  0
 13 53  1  0
 16 54  1  0
 17 55  1  0
 19 56  1  0
 22 57  1  0
 28 58  1  0
 28 59  1  0
 33 60  1  0
 34 61  1  0
 35 62  1  0
 36 63  1  0
 36 64  1  0
 37 65  1  0
 37 66  1  0
 38 67  1  0
 38 68  1  0
M  CHG  2  22  -1  31  -1
M  END
>  <UniqueID>  (51) 
51

>  <SMILES>  (51) 
CN(C)CCCN(C(=O)c1cccc(-c2ccc3cc(C([NH-])=O)n(C(=O)OCC(=O)[O-])c3c2)c1)C1CCC1

>  <Energy>  (51) 
177.16478714223246

>  <Genealogy>  (51) 
CN(C)CCCN(C(=O)c1cccc(-c2ccc3cc(C([NH-])=O)n(C(=O)OCC(=O)[O-])c3c2)c1)C1CCC1 (protonated)
CN(C)CCCN(C(=O)c1cccc(-c2ccc3cc(C([NH-])=O)n(C(=O)OCC(=O)[O-])c3c2)c1)C1CCC1 (3D coordinates assigned)
CN(C)CCCN(C(=O)c1cccc(-c2ccc3cc(C([NH-])=O)n(C(=O)OCC(=O)[O-])c3c2)c1)C1CCC1 (nonaromatic ring conformer: 177.16478714223246 kcal/mol)

>  <smiles>  (51) 
CN(C)CCCN(C(=O)c1cccc(-c2ccc3cc(C(N)=O)n(C(=O)OCC(=O)O)c3c2)c1)C1CCC1

>  <score_type>  (51) 
oracle

>  <origin>  (51) 
adg

>  <m_score__min__energy>  (51) 
-10.720000000000001

>  <m_primary>  (51) 
energy

$$$$
51:0
     RDKit          3D

 40 41  0  0  0  0  0  0  0  0999 V2000
  139.9610  149.5470  132.8290 C   0  0  0  0  0  0  0  0  0  0  0  0
  140.6790  150.5130  132.9110 C   0  0  0  0  0  0  0  0  0  0  0  0
  141.5330  151.6670  133.0090 C   0  0  0  0  0  0  0  0  0  0  0  0
  142.9380  151.5080  132.9760 C   0  0  0  0  0  0  0  0  0  0  0  0
  143.7830  152.6290  133.0630 C   0  0  0  0  0  0  0  0  0  0  0  0
  143.1920  153.8830  133.1880 C   0  0  0  0  0  0  0  0  0  0  0  0
  143.7680  155.1300  133.2710 C   0  0  0  0  0  0  0  0  0  0  0  0
  142.7030  156.0240  133.3720 C   0  0  0  0  0  0  0  0  0  0  0  0
  142.8720  157.4810  133.5540 C   0  0  0  0  0  0  0  0  0  0  0  0
  142.5260  158.0840  134.7990 N   0  0  0  0  0  0  0  0  0  0  0  0
  143.2890  158.2050  132.6130 O   0  0  0  0  0  0  0  0  0  0  0  0
  141.5150  155.3550  133.3490 N   0  0  0  0  0  0  0  0  0  0  0  0
  140.1900  155.9120  133.3680 C   0  0  0  0  0  0  0  0  0  0  0  0
  139.2670  155.3430  132.7230 O   0  0  0  0  0  0  0  0  0  0  0  0
  139.8970  157.0980  134.1320 N   0  0  0  0  0  0  0  0  0  0  0  0
  139.6570  157.0310  135.4950 O   0  0  0  0  0  0  0  0  0  0  0  0
  140.6600  156.8220  136.4480 C   0  0  0  0  0  0  0  0  0  0  0  0
  141.2120  155.6930  136.5660 O   0  0  0  0  0  0  0  0  0  0  0  0
  141.0730  157.8970  137.2390 O   0  0  0  0  0  0  0  0  0  0  0  0
  140.6980  159.2410  136.9610 C   0  0  0  0  0  0  0  0  0  0  0  0
  139.6560  158.3540  133.4800 C   0  0  0  0  0  0  0  0  0  0  0  0
  140.2920  159.3880  133.8250 O   0  0  0  0  0  0  0  0  0  0  0  0
  138.7120  158.4190  132.4490 O   0  0  0  0  0  0  0  0  0  0  0  0
  139.0210  158.8730  131.1330 C   0  0  0  0  0  0  0  0  0  0  0  0
  138.5730  160.2910  130.9480 C   0  0  0  0  0  0  0  0  0  0  0  0
  139.0930  161.1890  131.5900 O   0  0  0  0  0  0  0  0  0  0  0  0
  141.8310  154.0470  133.2350 C   0  0  0  0  0  0  0  0  0  0  0  0
  140.9660  152.9510  133.1350 C   0  0  0  0  0  0  0  0  0  0  0  0
  139.3063  148.6662  132.7542 H   0  0  0  0  0  0  0  0  0  0  0  0
  143.3724  150.5018  132.8817 H   0  0  0  0  0  0  0  0  0  0  0  0
  144.8770  152.5181  133.0332 H   0  0  0  0  0  0  0  0  0  0  0  0
  144.8413  155.3705  133.2600 H   0  0  0  0  0  0  0  0  0  0  0  0
  141.5300  158.1400  135.1100 H   0  0  0  0  0  0  0  0  0  0  0  0
  140.5469  159.7826  137.9065 H   0  0  0  0  0  0  0  0  0  0  0  0
  141.4937  159.7312  136.3808 H   0  0  0  0  0  0  0  0  0  0  0  0
  139.7635  159.2484  136.3808 H   0  0  0  0  0  0  0  0  0  0  0  0
  140.1080  158.8134  130.9755 H   0  0  0  0  0  0  0  0  0  0  0  0
  138.4967  158.2365  130.4050 H   0  0  0  0  0  0  0  0  0  0  0  0
  137.7722  160.5233  130.2306 H   0  0  0  0  0  0  0  0  0  0  0  0
  139.8747  153.0881  133.1542 H   0  0  0  0  0  0  0  0  0  0  0  0
  1  2  3  0
  2  3  1  0
  3  4  2  0
  4  5  1  0
  5  6  2  0
  6  7  1  0
  7  8  2  0
  8  9  1  0
  9 10  1  0
  9 11  2  0
  8 12  1  0
 12 13  1  0
 13 14  2  0
 13 15  1  0
 15 16  1  0
 16 17  1  0
 17 18  2  0
 17 19  1  0
 19 20  1  0
 15 21  1  0
 21 22  2  0
 21 23  1  0
 23 24  1  0
 24 25  1  0
 25 26  2  0
 12 27  1  0
 27 28  2  0
 28  3  1  0
 27  6  1  0
  1 29  1  0
  4 30  1  0
  5 31  1  0
  7 32  1  0
 10 33  1  0
 20 34  1  0
 20 35  1  0
 20 36  1  0
 24 37  1  0
 24 38  1  0
 25 39  1  0
 28 40  1  0
M  CHG  1  10  -1
M  END
>  <UniqueID>  (52) 
52

>  <SMILES>  (52) 
C#Cc1ccc2cc(C([NH-])=O)n(C(=O)N(OC(=O)OC)C(=O)OCC=O)c2c1

>  <Energy>  (52) 
76.94980335276828

>  <Genealogy>  (52) 
C#Cc1ccc2cc(C([NH-])=O)n(C(=O)N(OC(=O)OC)C(=O)OCC=O)c2c1 (protonated)
C#Cc1ccc2cc(C([NH-])=O)n(C(=O)N(OC(=O)OC)C(=O)OCC=O)c2c1 (3D coordinates assigned)
C#Cc1ccc2cc(C([NH-])=O)n(C(=O)N(OC(=O)OC)C(=O)OCC=O)c2c1 (optimized conformer: 76.94980335276828 kcal/mol)

>  <smiles>  (52) 
C#Cc1ccc2cc(C(N)=O)n(C(=O)N(OC(=O)OC)C(=O)OCC=O)c2c1

>  <score_type>  (52) 
oracle

>  <origin>  (52) 
adg

>  <m_score__min__energy>  (52) 
-6.1100000000000003

>  <m_primary>  (52) 
energy

$$$$
52:0
     RDKit          3D

 32 33  0  0  0  0  0  0  0  0999 V2000
  146.9470  161.2540  132.9970 H   0  0  0  0  0  0  0  0  0  0  0  0
  146.2250  160.9100  133.6700 N   0  0  0  0  0  0  0  0  0  0  0  0
  145.3420  159.8500  133.3180 C   0  0  0  0  0  0  0  0  0  0  0  0
  144.1340  160.1120  133.0700 O   0  0  0  0  0  0  0  0  0  0  0  0
  145.8120  158.4490  133.2700 C   0  0  0  0  0  0  0  0  0  0  0  0
  144.9790  157.3460  133.4540 C   0  0  0  0  0  0  0  0  0  0  0  0
  143.8927  157.3518  133.6270 H   0  0  0  0  0  0  0  0  0  0  0  0
  145.8060  156.2480  133.3730 C   0  0  0  0  0  0  0  0  0  0  0  0
  145.5060  154.8920  133.4590 C   0  0  0  0  0  0  0  0  0  0  0  0
  144.4766  154.5495  133.6411 H   0  0  0  0  0  0  0  0  0  0  0  0
  146.5590  153.9730  133.3060 C   0  0  0  0  0  0  0  0  0  0  0  0
  146.3511  152.8941  133.3581 H   0  0  0  0  0  0  0  0  0  0  0  0
  147.8880  154.4220  133.0850 C   0  0  0  0  0  0  0  0  0  0  0  0
  148.9990  153.4270  132.8670 C   0  0  0  0  0  0  0  0  0  0  0  0
  148.6440  152.5630  131.8490 F   0  0  0  0  0  0  0  0  0  0  0  0
  149.2320  152.6960  134.0190 F   0  0  0  0  0  0  0  0  0  0  0  0
  150.1730  154.0740  132.5210 F   0  0  0  0  0  0  0  0  0  0  0  0
  148.1450  155.8090  132.9780 C   0  0  0  0  0  0  0  0  0  0  0  0
  149.1591  156.1790  132.7668 H   0  0  0  0  0  0  0  0  0  0  0  0
  147.0800  156.6980  133.1470 C   0  0  0  0  0  0  0  0  0  0  0  0
  147.1020  158.0470  133.0930 N   0  0  0  0  0  0  0  0  0  0  0  0
  148.2370  158.8630  132.7670 C   0  0  0  0  0  0  0  0  0  0  0  0
  148.5320  159.8320  133.5150 O   0  0  0  0  0  0  0  0  0  0  0  0
  149.0280  158.6540  131.5350 C   0  0  0  0  0  0  0  0  0  0  0  0
  149.6214  157.7302  131.4683 H   0  0  0  0  0  0  0  0  0  0  0  0
  149.0830  159.4950  130.4930 C   0  0  0  0  0  0  0  0  0  0  0  0
  149.7526  159.2340  129.6602 H   0  0  0  0  0  0  0  0  0  0  0  0
  148.2940  160.7700  130.3820 C   0  0  0  0  0  0  0  0  0  0  0  0
  148.6253  161.3257  129.4923 H   0  0  0  0  0  0  0  0  0  0  0  0
  147.2254  160.5237  130.2956 H   0  0  0  0  0  0  0  0  0  0  0  0
  148.4890  161.5620  131.5210 O   0  0  0  0  0  0  0  0  0  0  0  0
  147.7510  161.3430  132.1490 H   0  0  0  0  0  0  0  0  0  0  0  0
  1  2  1  0
  2  3  1  0
  3  4  2  0
  3  5  1  0
  5  6  2  0
  6  7  1  0
  6  8  1  0
  8  9  2  0
  9 10  1  0
  9 11  1  0
 11 12  1  0
 11 13  2  0
 13 14  1  0
 14 15  1  0
 14 16  1  0
 14 17  1  0
 13 18  1  0
 18 19  1  0
 18 20  2  0
 20 21  1  0
 21 22  1  0
 22 23  2  0
 22 24  1  0
 24 25  1  0
 24 26  2  0
 26 27  1  0
 26 28  1  0
 28 29  1  0
 28 30  1  0
 28 31  1  0
 31 32  1  0
 21  5  1  0
 20  8  1  0
M  CHG  1   2  -1
M  END
>  <UniqueID>  (53) 
53

>  <SMILES>  (53) 
[NH-]C(=O)c1cc2ccc(C(F)(F)F)cc2n1C(=O)/C=C\CO

>  <Energy>  (53) 
72.93697667923176

>  <Genealogy>  (53) 
[NH-]C(=O)c1cc2ccc(C(F)(F)F)cc2n1C(=O)C=CCO (protonated)
[NH-]C(=O)c1cc2ccc(C(F)(F)F)cc2n1C(=O)/C=C\CO (cis-trans isomerization)
[NH-]C(=O)c1cc2ccc(C(F)(F)F)cc2n1C(=O)/C=C\CO (3D coordinates assigned)
[NH-]C(=O)c1cc2ccc(C(F)(F)F)cc2n1C(=O)/C=C\CO (optimized conformer: 72.93697667923176 kcal/mol)

>  <smiles>  (53) 
NC(=O)c1cc2ccc(C(F)(F)F)cc2n1C(=O)C=CCO

>  <score_type>  (53) 
oracle

>  <origin>  (53) 
adg

>  <m_score__min__energy>  (53) 
-5.96

>  <m_primary>  (53) 
energy

$$$$
53:0
     RDKit          3D

 32 33  0  0  0  0  0  0  0  0999 V2000
  149.5990  157.4320  132.2550 N   0  0  0  0  0  0  0  0  0  0  0  0
  149.1040  158.7660  132.3300 C   0  0  0  0  0  0  0  0  0  0  0  0
  149.8830  159.7270  132.0910 O   0  0  0  0  0  0  0  0  0  0  0  0
  147.7100  159.0380  132.7380 C   0  0  0  0  0  0  0  0  0  0  0  0
  147.2060  160.3210  132.9400 C   0  0  0  0  0  0  0  0  0  0  0  0
  145.9160  160.1410  133.3840 C   0  0  0  0  0  0  0  0  0  0  0  0
  144.9470  161.0790  133.7230 C   0  0  0  0  0  0  0  0  0  0  0  0
  143.6830  160.6080  134.1160 C   0  0  0  0  0  0  0  0  0  0  0  0
  143.4100  159.2190  134.1560 C   0  0  0  0  0  0  0  0  0  0  0  0
  142.0450  158.7370  134.5600 C   0  0  0  0  0  0  0  0  0  0  0  0
  141.5790  159.4930  135.6190 F   0  0  0  0  0  0  0  0  0  0  0  0
  141.1740  158.8590  133.4930 F   0  0  0  0  0  0  0  0  0  0  0  0
  144.4190  158.2950  133.8020 C   0  0  0  0  0  0  0  0  0  0  0  0
  145.6750  158.7920  133.4340 C   0  0  0  0  0  0  0  0  0  0  0  0
  146.7670  158.1010  133.0390 N   0  0  0  0  0  0  0  0  0  0  0  0
  146.8570  156.6790  132.8640 C   0  0  0  0  0  0  0  0  0  0  0  0
  147.2550  156.2040  131.7660 O   0  0  0  0  0  0  0  0  0  0  0  0
  146.5300  155.8290  133.9250 O   0  0  0  0  0  0  0  0  0  0  0  0
  147.5090  155.2210  134.7650 C   0  0  0  0  0  0  0  0  0  0  0  0
  147.0190  155.0660  136.0780 O   0  0  0  0  0  0  0  0  0  0  0  0
  147.7810  153.7210  136.8060 P   0  0  0  0  0  0  0  0  0  0  0  0
  148.6410  152.9940  135.7960 O   0  0  0  0  0  0  0  0  0  0  0  0
  148.7370  154.2190  138.1100 O   0  0  0  0  0  0  0  0  0  0  0  0
  146.5900  152.6630  137.3740 O   0  0  0  0  0  0  0  0  0  0  0  0
  149.2880  156.7860  131.4970 H   0  0  0  0  0  0  0  0  0  0  0  0
  147.7284  161.2755  132.7788 H   0  0  0  0  0  0  0  0  0  0  0  0
  145.1635  162.1568  133.6847 H   0  0  0  0  0  0  0  0  0  0  0  0
  142.8974  161.3255  134.3954 H   0  0  0  0  0  0  0  0  0  0  0  0
  142.1100  157.6815  134.8628 H   0  0  0  0  0  0  0  0  0  0  0  0
  144.2225  157.2128  133.8153 H   0  0  0  0  0  0  0  0  0  0  0  0
  147.7685  154.2324  134.3584 H   0  0  0  0  0  0  0  0  0  0  0  0
  148.3973  155.8691  134.7956 H   0  0  0  0  0  0  0  0  0  0  0  0
  1  2  1  0
  2  3  2  0
  2  4  1  0
  4  5  2  0
  5  6  1  0
  6  7  2  0
  7  8  1  0
  8  9  2  0
  9 10  1  0
 10 11  1  0
 10 12  1  0
  9 13  1  0
 13 14  2  0
 14 15  1  0
 15 16  1  0
 16 17  2  0
 16 18  1  0
 18 19  1  0
 19 20  1  0
 20 21  1  0
 21 22  2  0
 21 23  1  0
 21 24  1  0
 15  4  1  0
 14  6  1  0
  1 25  1  0
  5 26  1  0
  7 27  1  0
  8 28  1  0
 10 29  1  0
 13 30  1  0
 19 31  1  0
 19 32  1  0
M  CHG  3   1  -1  23  -1  24  -1
M  END
>  <UniqueID>  (54) 
54

>  <SMILES>  (54) 
[NH-]C(=O)c1cc2ccc(C(F)F)cc2n1C(=O)OCOP(=O)([O-])[O-]

>  <Energy>  (54) 
69.31197333429509

>  <Genealogy>  (54) 
[NH-]C(=O)c1cc2ccc(C(F)F)cc2n1C(=O)OCOP(=O)([O-])[O-] (protonated)
[NH-]C(=O)c1cc2ccc(C(F)F)cc2n1C(=O)OCOP(=O)([O-])[O-] (3D coordinates assigned)
[NH-]C(=O)c1cc2ccc(C(F)F)cc2n1C(=O)OCOP(=O)([O-])[O-] (optimized conformer: 69.31197333429509 kcal/mol)

>  <smiles>  (54) 
NC(=O)c1cc2ccc(C(F)F)cc2n1C(=O)OCOP(=O)(O)O

>  <score_type>  (54) 
oracle

>  <origin>  (54) 
adg

>  <m_score__min__energy>  (54) 
-6.0300000000000002

>  <m_primary>  (54) 
energy

$$$$
54:0
     RDKit          3D

 32 33  0  0  0  0  0  0  0  0999 V2000
  140.9770  159.3490  137.1130 C   0  0  0  0  0  0  0  0  0  0  0  0
  141.1790  159.7490  135.7770 O   0  0  0  0  0  0  0  0  0  0  0  0
  141.6200  158.6480  135.0060 C   0  0  0  0  0  0  0  0  0  0  0  0
  143.0450  158.6280  134.9230 O   0  0  0  0  0  0  0  0  0  0  0  0
  143.7360  158.5130  133.7120 C   0  0  0  0  0  0  0  0  0  0  0  0
  143.2320  157.8700  132.7520 O   0  0  0  0  0  0  0  0  0  0  0  0
  145.0180  159.1440  133.5570 N   0  0  0  0  0  0  0  0  0  0  0  0
  145.3140  160.4720  133.6660 C   0  0  0  0  0  0  0  0  0  0  0  0
  144.3390  161.5730  133.8000 C   0  0  0  0  0  0  0  0  0  0  0  0
  142.9390  161.3310  133.6910 N   0  0  0  0  0  0  0  0  0  0  0  0
  144.7490  162.7530  133.9630 O   0  0  0  0  0  0  0  0  0  0  0  0
  146.6880  160.6760  133.5490 C   0  0  0  0  0  0  0  0  0  0  0  0
  147.2270  159.4270  133.3510 C   0  0  0  0  0  0  0  0  0  0  0  0
  148.5550  159.0420  133.1910 C   0  0  0  0  0  0  0  0  0  0  0  0
  148.8300  157.6730  133.0400 C   0  0  0  0  0  0  0  0  0  0  0  0
  147.7820  156.7180  133.0390 C   0  0  0  0  0  0  0  0  0  0  0  0
  148.0960  155.2470  132.9380 C   0  0  0  0  0  0  0  0  0  0  0  0
  147.0870  154.6130  132.2380 F   0  0  0  0  0  0  0  0  0  0  0  0
  149.2970  155.0460  132.2800 F   0  0  0  0  0  0  0  0  0  0  0  0
  148.1940  154.6820  134.1980 F   0  0  0  0  0  0  0  0  0  0  0  0
  146.4480  157.1480  133.2270 C   0  0  0  0  0  0  0  0  0  0  0  0
  146.2000  158.5200  133.3590 C   0  0  0  0  0  0  0  0  0  0  0  0
  141.3677  160.1226  137.7904 H   0  0  0  0  0  0  0  0  0  0  0  0
  139.9011  159.2109  137.2957 H   0  0  0  0  0  0  0  0  0  0  0  0
  141.5045  158.4012  137.2957 H   0  0  0  0  0  0  0  0  0  0  0  0
  141.2726  157.7160  135.4758 H   0  0  0  0  0  0  0  0  0  0  0  0
  141.2080  158.7402  133.9902 H   0  0  0  0  0  0  0  0  0  0  0  0
  142.4720  160.6060  134.2780 H   0  0  0  0  0  0  0  0  0  0  0  0
  147.2268  161.6335  133.6035 H   0  0  0  0  0  0  0  0  0  0  0  0
  149.3642  159.7870  133.1831 H   0  0  0  0  0  0  0  0  0  0  0  0
  149.8709  157.3377  132.9211 H   0  0  0  0  0  0  0  0  0  0  0  0
  145.6235  156.4210  133.2686 H   0  0  0  0  0  0  0  0  0  0  0  0
  1  2  1  0
  2  3  1  0
  3  4  1  0
  4  5  1  0
  5  6  2  0
  5  7  1  0
  7  8  1  0
  8  9  1  0
  9 10  1  0
  9 11  2  0
  8 12  2  0
 12 13  1  0
 13 14  2  0
 14 15  1  0
 15 16  2  0
 16 17  1  0
 17 18  1  0
 17 19  1  0
 17 20  1  0
 16 21  1  0
 21 22  2  0
 22  7  1  0
 22 13  1  0
  1 23  1  0
  1 24  1  0
  1 25  1  0
  3 26  1  0
  3 27  1  0
 10 28  1  0
 12 29  1  0
 14 30  1  0
 15 31  1  0
 21 32  1  0
M  CHG  1  10  -1
M  END
>  <UniqueID>  (55) 
55

>  <SMILES>  (55) 
COCOC(=O)n1c(C([NH-])=O)cc2ccc(C(F)(F)F)cc21

>  <Energy>  (55) 
71.81281217133545

>  <Genealogy>  (55) 
COCOC(=O)n1c(C([NH-])=O)cc2ccc(C(F)(F)F)cc21 (protonated)
COCOC(=O)n1c(C([NH-])=O)cc2ccc(C(F)(F)F)cc21 (3D coordinates assigned)
COCOC(=O)n1c(C([NH-])=O)cc2ccc(C(F)(F)F)cc21 (optimized conformer: 71.81281217133545 kcal/mol)

>  <smiles>  (55) 
COCOC(=O)n1c(C(N)=O)cc2ccc(C(F)(F)F)cc21

>  <score_type>  (55) 
oracle

>  <origin>  (55) 
adg

>  <m_score__min__energy>  (55) 
-5.0300000000000002

>  <m_primary>  (55) 
energy

$$$$
55:0
     RDKit          3D

 40 41  0  0  0  0  0  0  0  0999 V2000
  139.6620  159.6210  132.5450 C   0  0  0  0  0  0  0  0  0  0  0  0
  140.0590  158.5520  133.5620 C   0  0  0  0  0  0  0  0  0  0  0  0
  138.8120  157.8570  134.1180 C   0  0  0  0  0  0  0  0  0  0  0  0
  140.8060  159.1830  134.6490 N   0  0  0  0  0  0  0  0  0  0  0  0
  141.8830  158.5960  135.3960 C   0  0  0  0  0  0  0  0  0  0  0  0
  142.1020  159.0110  136.5640 O   0  0  0  0  0  0  0  0  0  0  0  0
  142.7840  157.5340  134.8270 C   0  0  0  0  0  0  0  0  0  0  0  0
  143.3890  157.9900  133.5300 C   0  0  0  0  0  0  0  0  0  0  0  0
  142.7390  157.8490  132.4570 O   0  0  0  0  0  0  0  0  0  0  0  0
  144.6850  158.6110  133.5040 N   0  0  0  0  0  0  0  0  0  0  0  0
  144.9760  159.9440  133.5090 C   0  0  0  0  0  0  0  0  0  0  0  0
  143.9950  161.0320  133.7240 C   0  0  0  0  0  0  0  0  0  0  0  0
  142.6030  160.8240  133.4710 N   0  0  0  0  0  0  0  0  0  0  0  0
  144.3860  162.1670  134.1020 O   0  0  0  0  0  0  0  0  0  0  0  0
  146.3510  160.1420  133.4040 C   0  0  0  0  0  0  0  0  0  0  0  0
  146.8980  158.8800  133.3460 C   0  0  0  0  0  0  0  0  0  0  0  0
  148.2280  158.4830  133.2570 C   0  0  0  0  0  0  0  0  0  0  0  0
  148.5040  157.1060  133.2210 C   0  0  0  0  0  0  0  0  0  0  0  0
  147.4520  156.1520  133.2510 C   0  0  0  0  0  0  0  0  0  0  0  0
  147.7680  154.6760  133.2690 C   0  0  0  0  0  0  0  0  0  0  0  0
  148.9570  154.4580  132.5980 F   0  0  0  0  0  0  0  0  0  0  0  0
  147.8920  154.2170  134.5690 F   0  0  0  0  0  0  0  0  0  0  0  0
  146.7610  153.9540  132.6510 F   0  0  0  0  0  0  0  0  0  0  0  0
  146.1140  156.5970  133.3610 C   0  0  0  0  0  0  0  0  0  0  0  0
  145.8720  157.9740  133.4090 C   0  0  0  0  0  0  0  0  0  0  0  0
  139.3264  160.5246  133.0749 H   0  0  0  0  0  0  0  0  0  0  0  0
  140.5288  159.8667  131.9139 H   0  0  0  0  0  0  0  0  0  0  0  0
  138.8449  159.2413  131.9139 H   0  0  0  0  0  0  0  0  0  0  0  0
  140.6876  157.7953  133.0698 H   0  0  0  0  0  0  0  0  0  0  0  0
  138.8423  157.8739  135.2174 H   0  0  0  0  0  0  0  0  0  0  0  0
  137.9119  158.3836  133.7679 H   0  0  0  0  0  0  0  0  0  0  0  0
  138.7864  156.8145  133.7679 H   0  0  0  0  0  0  0  0  0  0  0  0
  143.5890  157.3204  135.5456 H   0  0  0  0  0  0  0  0  0  0  0  0
  142.1887  156.6280  134.6403 H   0  0  0  0  0  0  0  0  0  0  0  0
  142.2340  159.8910  133.1820 H   0  0  0  0  0  0  0  0  0  0  0  0
  141.9280  161.6130  133.5870 H   0  0  0  0  0  0  0  0  0  0  0  0
  146.8860  161.1027  133.3739 H   0  0  0  0  0  0  0  0  0  0  0  0
  149.0392  159.2248  133.2161 H   0  0  0  0  0  0  0  0  0  0  0  0
  149.5476  156.7623  133.1689 H   0  0  0  0  0  0  0  0  0  0  0  0
  145.2833  155.8774  133.4077 H   0  0  0  0  0  0  0  0  0  0  0  0
  1  2  1  0
  2  3  1  0
  2  4  1  0
  4  5  1  0
  5  6  2  0
  5  7  1  0
  7  8  1  0
  8  9  2  0
  8 10  1  0
 10 11  1  0
 11 12  1  0
 12 13  1  0
 12 14  2  0
 11 15  2  0
 15 16  1  0
 16 17  2  0
 17 18  1  0
 18 19  2  0
 19 20  1  0
 20 21  1  0
 20 22  1  0
 20 23  1  0
 19 24  1  0
 24 25  2  0
 25 10  1  0
 25 16  1  0
  1 26  1  0
  1 27  1  0
  1 28  1  0
  2 29  1  0
  3 30  1  0
  3 31  1  0
  3 32  1  0
  7 33  1  0
  7 34  1  0
 13 35  1  0
 13 36  1  0
 15 37  1  0
 17 38  1  0
 18 39  1  0
 24 40  1  0
M  CHG  1   4  -1
M  END
>  <UniqueID>  (56) 
56

>  <SMILES>  (56) 
CC(C)[N-]C(=O)CC(=O)n1c(C(N)=O)cc2ccc(C(F)(F)F)cc21

>  <Energy>  (56) 
73.31888070960154

>  <Genealogy>  (56) 
CC(C)[N-]C(=O)CC(=O)n1c(C(N)=O)cc2ccc(C(F)(F)F)cc21 (protonated)
CC(C)[N-]C(=O)CC(=O)n1c(C(N)=O)cc2ccc(C(F)(F)F)cc21 (3D coordinates assigned)
CC(C)[N-]C(=O)CC(=O)n1c(C(N)=O)cc2ccc(C(F)(F)F)cc21 (optimized conformer: 73.31888070960154 kcal/mol)

>  <smiles>  (56) 
CC(C)NC(=O)CC(=O)n1c(C(N)=O)cc2ccc(C(F)(F)F)cc21

>  <score_type>  (56) 
oracle

>  <origin>  (56) 
adg

>  <m_score__min__energy>  (56) 
-6.4000000000000004

>  <m_primary>  (56) 
energy

$$$$
56:0
     RDKit          3D

 42 44  0  0  0  0  0  0  0  0999 V2000
  148.5200  158.0790  134.3960 N   0  0  0  0  0  0  0  0  0  0  0  0
  147.7950  159.0690  133.6640 C   0  0  0  0  0  0  0  0  0  0  0  0
  148.4290  159.8860  132.9420 O   0  0  0  0  0  0  0  0  0  0  0  0
  146.3190  159.1260  133.6960 C   0  0  0  0  0  0  0  0  0  0  0  0
  145.5890  160.3120  133.6410 C   0  0  0  0  0  0  0  0  0  0  0  0
  144.2670  159.9280  133.6940 C   0  0  0  0  0  0  0  0  0  0  0  0
  143.1090  160.6980  133.7050 C   0  0  0  0  0  0  0  0  0  0  0  0
  141.8760  160.0330  133.8200 C   0  0  0  0  0  0  0  0  0  0  0  0
  141.8250  158.6210  133.9340 C   0  0  0  0  0  0  0  0  0  0  0  0
  140.4990  157.9300  134.0740 C   0  0  0  0  0  0  0  0  0  0  0  0
  139.6800  158.6620  134.9170 F   0  0  0  0  0  0  0  0  0  0  0  0
  139.8960  157.8200  132.8350 F   0  0  0  0  0  0  0  0  0  0  0  0
  143.0230  157.8720  133.9280 C   0  0  0  0  0  0  0  0  0  0  0  0
  144.2320  158.5610  133.7850 C   0  0  0  0  0  0  0  0  0  0  0  0
  145.4840  158.0550  133.7790 N   0  0  0  0  0  0  0  0  0  0  0  0
  145.8420  156.6810  133.9890 C   0  0  0  0  0  0  0  0  0  0  0  0
  146.1220  156.2900  135.1560 O   0  0  0  0  0  0  0  0  0  0  0  0
  145.9140  155.7630  132.8800 N   0  0  0  0  0  0  0  0  0  0  0  0
  147.2050  155.5860  132.1830 C   0  0  0  0  0  0  0  0  0  0  0  0
  148.1330  154.5590  132.8600 C   0  0  0  0  0  0  0  0  0  0  0  0
  147.3820  153.3520  133.4540 C   0  0  0  0  0  0  0  0  0  0  0  0
  146.2540  152.9000  132.6240 N   0  0  0  0  0  0  0  0  0  0  0  0
  144.9670  153.4580  133.0650 C   0  0  0  0  0  0  0  0  0  0  0  0
  144.7580  154.9030  132.5730 C   0  0  0  0  0  0  0  0  0  0  0  0
  148.0370  157.2690  134.8400 H   0  0  0  0  0  0  0  0  0  0  0  0
  149.5640  158.0980  134.4060 H   0  0  0  0  0  0  0  0  0  0  0  0
  145.9841  161.3362  133.5704 H   0  0  0  0  0  0  0  0  0  0  0  0
  143.1565  161.7941  133.6261 H   0  0  0  0  0  0  0  0  0  0  0  0
  140.9418  160.6138  133.8216 H   0  0  0  0  0  0  0  0  0  0  0  0
  140.6588  156.9261  134.4944 H   0  0  0  0  0  0  0  0  0  0  0  0
  143.0055  156.7771  134.0329 H   0  0  0  0  0  0  0  0  0  0  0  0
  147.0027  155.2485  131.1558 H   0  0  0  0  0  0  0  0  0  0  0  0
  147.7225  156.5563  132.2089 H   0  0  0  0  0  0  0  0  0  0  0  0
  148.8491  154.1897  132.1112 H   0  0  0  0  0  0  0  0  0  0  0  0
  148.6315  155.0734  133.6948 H   0  0  0  0  0  0  0  0  0  0  0  0
  148.0916  152.5184  133.5620 H   0  0  0  0  0  0  0  0  0  0  0  0
  146.9663  153.6717  134.4209 H   0  0  0  0  0  0  0  0  0  0  0  0
  146.4300  153.2370  131.6490 H   0  0  0  0  0  0  0  0  0  0  0  0
  144.1550  152.8291  132.6712 H   0  0  0  0  0  0  0  0  0  0  0  0
  144.9654  153.4730  134.1649 H   0  0  0  0  0  0  0  0  0  0  0  0
  144.6053  154.8887  131.4837 H   0  0  0  0  0  0  0  0  0  0  0  0
  143.8803  155.3152  133.0924 H   0  0  0  0  0  0  0  0  0  0  0  0
  1  2  1  0
  2  3  2  0
  2  4  1  0
  4  5  2  0
  5  6  1  0
  6  7  2  0
  7  8  1  0
  8  9  2  0
  9 10  1  0
 10 11  1  0
 10 12  1  0
  9 13  1  0
 13 14  2  0
 14 15  1  0
 15 16  1  0
 16 17  2  0
 16 18  1  0
 18 19  1  0
 19 20  1  0
 20 21  1  0
 21 22  1  0
 22 23  1  0
 23 24  1  0
 15  4  1  0
 24 18  1  0
 14  6  1  0
  1 25  1  0
  1 26  1  0
  5 27  1  0
  7 28  1  0
  8 29  1  0
 10 30  1  0
 13 31  1  0
 19 32  1  0
 19 33  1  0
 20 34  1  0
 20 35  1  0
 21 36  1  0
 21 37  1  0
 22 38  1  0
 23 39  1  0
 23 40  1  0
 24 41  1  0
 24 42  1  0
M  END
>  <UniqueID>  (57) 
57

>  <SMILES>  (57) 
NC(=O)c1cc2ccc(C(F)F)cc2n1C(=O)N1CCCNCC1

>  <Energy>  (57) 
88.82328701467301

>  <Genealogy>  (57) 
NC(=O)c1cc2ccc(C(F)F)cc2n1C(=O)N1CCCNCC1 (3D coordinates assigned)
NC(=O)c1cc2ccc(C(F)F)cc2n1C(=O)N1CCCNCC1 (nonaromatic ring conformer: 88.82328701467301 kcal/mol)

>  <smiles>  (57) 
NC(=O)c1cc2ccc(C(F)F)cc2n1C(=O)N1CCCNCC1

>  <score_type>  (57) 
oracle

>  <origin>  (57) 
adg

>  <m_score__min__energy>  (57) 
-5.21

>  <m_primary>  (57) 
energy

$$$$
57:0
     RDKit          3D

 33 34  0  0  0  0  0  0  0  0999 V2000
  148.6870  158.1470  131.6870 N   0  0  0  0  0  0  0  0  0  0  0  0
  148.2970  158.7090  132.9380 C   0  0  0  0  0  0  0  0  0  0  0  0
  149.1810  158.9960  133.7880 O   0  0  0  0  0  0  0  0  0  0  0  0
  146.8790  159.0100  133.2290 C   0  0  0  0  0  0  0  0  0  0  0  0
  146.3850  160.3040  133.3710 C   0  0  0  0  0  0  0  0  0  0  0  0
  145.0260  160.1610  133.5380 C   0  0  0  0  0  0  0  0  0  0  0  0
  144.0410  161.1250  133.7270 C   0  0  0  0  0  0  0  0  0  0  0  0
  142.7160  160.6880  133.8960 C   0  0  0  0  0  0  0  0  0  0  0  0
  142.4070  159.3050  133.8900 C   0  0  0  0  0  0  0  0  0  0  0  0
  140.9850  158.8530  134.0490 C   0  0  0  0  0  0  0  0  0  0  0  0
  140.1380  158.9750  132.4870 Cl  0  0  0  0  0  0  0  0  0  0  0  0
  143.4310  158.3560  133.6840 C   0  0  0  0  0  0  0  0  0  0  0  0
  144.7400  158.8200  133.5000 C   0  0  0  0  0  0  0  0  0  0  0  0
  145.8670  158.0990  133.3130 N   0  0  0  0  0  0  0  0  0  0  0  0
  145.9630  156.6670  133.2960 C   0  0  0  0  0  0  0  0  0  0  0  0
  145.1120  155.9760  133.9200 O   0  0  0  0  0  0  0  0  0  0  0  0
  146.9900  156.0530  132.5650 O   0  0  0  0  0  0  0  0  0  0  0  0
  148.0670  155.3530  133.1220 C   0  0  0  0  0  0  0  0  0  0  0  0
  149.2200  155.4190  132.6120 O   0  0  0  0  0  0  0  0  0  0  0  0
  147.8440  154.5770  134.2640 O   0  0  0  0  0  0  0  0  0  0  0  0
  147.6630  155.1300  135.5650 C   0  0  0  0  0  0  0  0  0  0  0  0
  147.8740  154.0840  136.6120 C   0  0  0  0  0  0  0  0  0  0  0  0
  148.8470  154.1720  137.4060 O   0  0  0  0  0  0  0  0  0  0  0  0
  146.9810  153.0260  136.7320 O   0  0  0  0  0  0  0  0  0  0  0  0
  148.5170  157.1390  131.4750 H   0  0  0  0  0  0  0  0  0  0  0  0
  146.9591  161.2421  133.3535 H   0  0  0  0  0  0  0  0  0  0  0  0
  144.2914  162.1960  133.7437 H   0  0  0  0  0  0  0  0  0  0  0  0
  141.9119  161.4258  134.0341 H   0  0  0  0  0  0  0  0  0  0  0  0
  140.9697  157.8081  134.3926 H   0  0  0  0  0  0  0  0  0  0  0  0
  140.4800  159.4924  134.7881 H   0  0  0  0  0  0  0  0  0  0  0  0
  143.2070  157.2792  133.6683 H   0  0  0  0  0  0  0  0  0  0  0  0
  148.3866  155.9446  135.7160 H   0  0  0  0  0  0  0  0  0  0  0  0
  146.6360  155.5151  135.6484 H   0  0  0  0  0  0  0  0  0  0  0  0
  1  2  1  0
  2  3  2  0
  2  4  1  0
  4  5  2  0
  5  6  1  0
  6  7  2  0
  7  8  1  0
  8  9  2  0
  9 10  1  0
 10 11  1  0
  9 12  1  0
 12 13  2  0
 13 14  1  0
 14 15  1  0
 15 16  2  0
 15 17  1  0
 17 18  1  0
 18 19  2  0
 18 20  1  0
 20 21  1  0
 21 22  1  0
 22 23  2  0
 22 24  1  0
 14  4  1  0
 13  6  1  0
  1 25  1  0
  5 26  1  0
  7 27  1  0
  8 28  1  0
 10 29  1  0
 10 30  1  0
 12 31  1  0
 21 32  1  0
 21 33  1  0
M  CHG  2   1  -1  24  -1
M  END
>  <UniqueID>  (58) 
58

>  <SMILES>  (58) 
[NH-]C(=O)c1cc2ccc(CCl)cc2n1C(=O)OC(=O)OCC(=O)[O-]

>  <Energy>  (58) 
70.57991541141504

>  <Genealogy>  (58) 
[NH-]C(=O)c1cc2ccc(CCl)cc2n1C(=O)OC(=O)OCC(=O)[O-] (protonated)
[NH-]C(=O)c1cc2ccc(CCl)cc2n1C(=O)OC(=O)OCC(=O)[O-] (3D coordinates assigned)
[NH-]C(=O)c1cc2ccc(CCl)cc2n1C(=O)OC(=O)OCC(=O)[O-] (optimized conformer: 70.57991541141504 kcal/mol)

>  <smiles>  (58) 
NC(=O)c1cc2ccc(CCl)cc2n1C(=O)OC(=O)OCC(=O)O

>  <score_type>  (58) 
oracle

>  <origin>  (58) 
adg

>  <m_score__min__energy>  (58) 
-6.6799999999999997

>  <m_primary>  (58) 
energy

$$$$
58:0
     RDKit          3D

 38 40  0  0  0  0  0  0  0  0999 V2000
  149.2660  156.0760  132.6500 N   0  0  0  0  0  0  0  0  0  0  0  0
  148.0440  155.4180  132.9760 C   0  0  0  0  0  0  0  0  0  0  0  0
  148.0600  154.1860  133.2400 O   0  0  0  0  0  0  0  0  0  0  0  0
  146.7720  156.1660  133.0440 C   0  0  0  0  0  0  0  0  0  0  0  0
  145.5250  155.5940  132.7950 C   0  0  0  0  0  0  0  0  0  0  0  0
  144.6090  156.5930  133.0410 C   0  0  0  0  0  0  0  0  0  0  0  0
  143.2200  156.5760  132.9620 C   0  0  0  0  0  0  0  0  0  0  0  0
  142.5290  157.7600  133.2710 C   0  0  0  0  0  0  0  0  0  0  0  0
  143.2330  158.9400  133.6300 C   0  0  0  0  0  0  0  0  0  0  0  0
  142.4780  160.1910  134.0020 C   0  0  0  0  0  0  0  0  0  0  0  0
  141.9420  160.0810  135.2730 F   0  0  0  0  0  0  0  0  0  0  0  0
  143.3180  161.2910  133.9810 F   0  0  0  0  0  0  0  0  0  0  0  0
  141.4530  160.3900  133.0960 F   0  0  0  0  0  0  0  0  0  0  0  0
  144.6440  158.9070  133.7220 C   0  0  0  0  0  0  0  0  0  0  0  0
  145.3020  157.7110  133.4180 C   0  0  0  0  0  0  0  0  0  0  0  0
  146.6290  157.4680  133.4200 N   0  0  0  0  0  0  0  0  0  0  0  0
  147.6600  158.4250  133.7120 C   0  0  0  0  0  0  0  0  0  0  0  0
  148.4870  158.1690  134.6250 O   0  0  0  0  0  0  0  0  0  0  0  0
  147.7100  159.7110  132.9760 C   0  0  0  0  0  0  0  0  0  0  0  0
  146.9430  160.6400  133.3480 O   0  0  0  0  0  0  0  0  0  0  0  0
  148.5870  159.9360  131.8520 N   0  0  0  0  0  0  0  0  0  0  0  0
  148.5220  161.1510  131.0560 C   0  0  0  0  0  0  0  0  0  0  0  0
  149.4380  160.9160  129.8630 C   0  0  0  0  0  0  0  0  0  0  0  0
  150.3270  159.7380  130.2460 C   0  0  0  0  0  0  0  0  0  0  0  0
  149.5950  159.0090  131.3650 C   0  0  0  0  0  0  0  0  0  0  0  0
  149.5810  156.9190  133.1780 H   0  0  0  0  0  0  0  0  0  0  0  0
  145.3169  154.5636  132.4709 H   0  0  0  0  0  0  0  0  0  0  0  0
  142.6797  155.6644  132.6669 H   0  0  0  0  0  0  0  0  0  0  0  0
  141.4297  157.7730  133.2344 H   0  0  0  0  0  0  0  0  0  0  0  0
  145.2099  159.8002  134.0252 H   0  0  0  0  0  0  0  0  0  0  0  0
  147.4912  161.3322  130.7174 H   0  0  0  0  0  0  0  0  0  0  0  0
  148.8323  162.0321  131.6368 H   0  0  0  0  0  0  0  0  0  0  0  0
  148.8463  160.6739  128.9679 H   0  0  0  0  0  0  0  0  0  0  0  0
  150.0322  161.8111  129.6270 H   0  0  0  0  0  0  0  0  0  0  0  0
  150.4698  159.0702  129.3836 H   0  0  0  0  0  0  0  0  0  0  0  0
  151.3246  160.0725  130.5669 H   0  0  0  0  0  0  0  0  0  0  0  0
  149.1198  158.0950  130.9794 H   0  0  0  0  0  0  0  0  0  0  0  0
  150.2839  158.7040  132.1665 H   0  0  0  0  0  0  0  0  0  0  0  0
  1  2  1  0
  2  3  2  0
  2  4  1  0
  4  5  2  0
  5  6  1  0
  6  7  2  0
  7  8  1  0
  8  9  2  0
  9 10  1  0
 10 11  1  0
 10 12  1  0
 10 13  1  0
  9 14  1  0
 14 15  2  0
 15 16  1  0
 16 17  1  0
 17 18  2  0
 17 19  1  0
 19 20  2  0
 19 21  1  0
 21 22  1  0
 22 23  1  0
 23 24  1  0
 24 25  1  0
 16  4  1  0
 25 21  1  0
 15  6  1  0
  1 26  1  0
  5 27  1  0
  7 28  1  0
  8 29  1  0
 14 30  1  0
 22 31  1  0
 22 32  1  0
 23 33  1  0
 23 34  1  0
 24 35  1  0
 24 36  1  0
 25 37  1  0
 25 38  1  0
M  CHG  1   1  -1
M  END
>  <UniqueID>  (59) 
59

>  <SMILES>  (59) 
[NH-]C(=O)c1cc2ccc(C(F)(F)F)cc2n1C(=O)C(=O)N1CCCC1

>  <Energy>  (59) 
80.57482585832857

>  <Genealogy>  (59) 
[NH-]C(=O)c1cc2ccc(C(F)(F)F)cc2n1C(=O)C(=O)N1CCCC1 (protonated)
[NH-]C(=O)c1cc2ccc(C(F)(F)F)cc2n1C(=O)C(=O)N1CCCC1 (3D coordinates assigned)
[NH-]C(=O)c1cc2ccc(C(F)(F)F)cc2n1C(=O)C(=O)N1CCCC1 (nonaromatic ring conformer: 80.57482585832857 kcal/mol)

>  <smiles>  (59) 
NC(=O)c1cc2ccc(C(F)(F)F)cc2n1C(=O)C(=O)N1CCCC1

>  <score_type>  (59) 
oracle

>  <origin>  (59) 
adg

>  <m_score__min__energy>  (59) 
-7.25

>  <m_primary>  (59) 
energy

$$$$
59:0
     RDKit          3D

 38 39  0  0  0  0  0  0  0  0999 V2000
  149.9950  158.4030  131.8790 C   0  0  0  0  0  0  0  0  0  0  0  0
  148.9310  159.2080  132.0100 C   0  0  0  0  0  0  0  0  0  0  0  0
  148.1110  159.0670  133.2410 C   0  0  0  0  0  0  0  0  0  0  0  0
  148.5000  159.6190  134.3060 O   0  0  0  0  0  0  0  0  0  0  0  0
  146.9240  158.2570  133.2660 N   0  0  0  0  0  0  0  0  0  0  0  0
  145.6430  158.6580  133.5150 C   0  0  0  0  0  0  0  0  0  0  0  0
  145.1810  160.0530  133.6820 C   0  0  0  0  0  0  0  0  0  0  0  0
  146.1050  161.1370  133.7290 N   0  0  0  0  0  0  0  0  0  0  0  0
  143.9470  160.2950  133.7640 O   0  0  0  0  0  0  0  0  0  0  0  0
  144.7900  157.5570  133.5670 C   0  0  0  0  0  0  0  0  0  0  0  0
  145.5950  156.4600  133.3610 C   0  0  0  0  0  0  0  0  0  0  0  0
  145.2780  155.1050  133.3580 C   0  0  0  0  0  0  0  0  0  0  0  0
  146.3230  154.1840  133.1780 C   0  0  0  0  0  0  0  0  0  0  0  0
  147.6590  154.6280  133.0030 C   0  0  0  0  0  0  0  0  0  0  0  0
  148.7820  153.6310  132.8700 C   0  0  0  0  0  0  0  0  0  0  0  0
  149.9490  154.3000  132.5520 F   0  0  0  0  0  0  0  0  0  0  0  0
  148.9660  152.9410  134.0560 F   0  0  0  0  0  0  0  0  0  0  0  0
  148.5020  152.7110  131.8740 F   0  0  0  0  0  0  0  0  0  0  0  0
  147.9440  156.0130  133.0450 C   0  0  0  0  0  0  0  0  0  0  0  0
  146.8790  156.9080  133.1960 C   0  0  0  0  0  0  0  0  0  0  0  0
  148.5760  160.1920  130.8870 C   0  0  0  0  0  0  0  0  0  0  0  0
  148.8670  159.5930  129.4940 C   0  0  0  0  0  0  0  0  0  0  0  0
  149.3750  161.4960  131.0690 C   0  0  0  0  0  0  0  0  0  0  0  0
  147.1950  160.4740  130.9610 O   0  0  0  0  0  0  0  0  0  0  0  0
  150.6305  158.4726  130.9838 H   0  0  0  0  0  0  0  0  0  0  0  0
  150.2326  157.6728  132.6667 H   0  0  0  0  0  0  0  0  0  0  0  0
  146.9000  161.1950  133.0550 H   0  0  0  0  0  0  0  0  0  0  0  0
  143.7032  157.5635  133.7368 H   0  0  0  0  0  0  0  0  0  0  0  0
  144.2404  154.7655  133.4925 H   0  0  0  0  0  0  0  0  0  0  0  0
  146.1031  153.1062  133.1726 H   0  0  0  0  0  0  0  0  0  0  0  0
  148.9784  156.3778  132.9609 H   0  0  0  0  0  0  0  0  0  0  0  0
  149.3450  158.6091  129.6105 H   0  0  0  0  0  0  0  0  0  0  0  0
  147.9238  159.4791  128.9395 H   0  0  0  0  0  0  0  0  0  0  0  0
  149.5395  160.2640  128.9395 H   0  0  0  0  0  0  0  0  0  0  0  0
  149.5012  161.7019  132.1422 H   0  0  0  0  0  0  0  0  0  0  0  0
  150.3631  161.3895  130.5974 H   0  0  0  0  0  0  0  0  0  0  0  0
  148.8314  162.3279  130.5974 H   0  0  0  0  0  0  0  0  0  0  0  0
  147.0080  160.9200  131.8290 H   0  0  0  0  0  0  0  0  0  0  0  0
  1  2  2  0
  2  3  1  0
  3  4  2  0
  3  5  1  0
  5  6  1  0
  6  7  1  0
  7  8  1  0
  7  9  2  0
  6 10  2  0
 10 11  1  0
 11 12  2  0
 12 13  1  0
 13 14  2  0
 14 15  1  0
 15 16  1  0
 15 17  1  0
 15 18  1  0
 14 19  1  0
 19 20  2  0
  2 21  1  0
 21 22  1  0
 21 23  1  0
 21 24  1  0
 20  5  1  0
 20 11  1  0
  1 25  1  0
  1 26  1  0
  8 27  1  0
 10 28  1  0
 12 29  1  0
 13 30  1  0
 19 31  1  0
 22 32  1  0
 22 33  1  0
 22 34  1  0
 23 35  1  0
 23 36  1  0
 23 37  1  0
 24 38  1  0
M  CHG  1   8  -1
M  END
>  <UniqueID>  (60) 
60

>  <SMILES>  (60) 
C=C(C(=O)n1c(C([NH-])=O)cc2ccc(C(F)(F)F)cc21)C(C)(C)O

>  <Energy>  (60) 
81.18266249616936

>  <Genealogy>  (60) 
C=C(C(=O)n1c(C([NH-])=O)cc2ccc(C(F)(F)F)cc21)C(C)(C)O (protonated)
C=C(C(=O)n1c(C([NH-])=O)cc2ccc(C(F)(F)F)cc21)C(C)(C)O (3D coordinates assigned)
C=C(C(=O)n1c(C([NH-])=O)cc2ccc(C(F)(F)F)cc21)C(C)(C)O (optimized conformer: 81.18266249616936 kcal/mol)

>  <smiles>  (60) 
C=C(C(=O)n1c(C(N)=O)cc2ccc(C(F)(F)F)cc21)C(C)(C)O

>  <score_type>  (60) 
oracle

>  <origin>  (60) 
adg

>  <m_score__min__energy>  (60) 
-6.6500000000000004

>  <m_primary>  (60) 
energy

$$$$
61:0
     RDKit          3D

 42 43  0  0  0  0  0  0  0  0999 V2000
  141.5280  157.5800  136.5320 C   0  0  0  0  0  0  0  0  0  0  0  0
  141.2660  158.0540  135.1650 N   0  0  0  0  0  0  0  0  0  0  0  0
  141.9590  159.3300  134.9140 C   0  0  0  0  0  0  0  0  0  0  0  0
  139.8390  158.2050  134.9550 C   0  0  0  0  0  0  0  0  0  0  0  0
  139.0720  158.1980  135.9100 O   0  0  0  0  0  0  0  0  0  0  0  0
  139.2710  158.3530  133.5650 C   0  0  0  0  0  0  0  0  0  0  0  0
  139.3430  157.0300  132.8020 C   0  0  0  0  0  0  0  0  0  0  0  0
  140.1570  156.1100  133.5220 O   0  0  0  0  0  0  0  0  0  0  0  0
  140.2290  154.7530  133.2160 C   0  0  0  0  0  0  0  0  0  0  0  0
  139.1750  154.0940  132.9860 O   0  0  0  0  0  0  0  0  0  0  0  0
  141.5050  154.0980  133.1940 N   0  0  0  0  0  0  0  0  0  0  0  0
  142.7440  154.6580  133.3140 C   0  0  0  0  0  0  0  0  0  0  0  0
  143.0380  156.0730  133.6310 C   0  0  0  0  0  0  0  0  0  0  0  0
  142.5890  157.1300  132.7880 N   0  0  0  0  0  0  0  0  0  0  0  0
  143.6670  156.3540  134.6860 O   0  0  0  0  0  0  0  0  0  0  0  0
  143.7310  153.6840  133.1770 C   0  0  0  0  0  0  0  0  0  0  0  0
  143.0540  152.4990  132.9830 C   0  0  0  0  0  0  0  0  0  0  0  0
  143.5410  151.2090  132.7900 C   0  0  0  0  0  0  0  0  0  0  0  0
  142.6100  150.1720  132.6000 C   0  0  0  0  0  0  0  0  0  0  0  0
  141.2170  150.4390  132.5820 C   0  0  0  0  0  0  0  0  0  0  0  0
  140.2310  149.3080  132.4100 C   0  0  0  0  0  0  0  0  0  0  0  0
  140.5620  148.5250  131.3130 F   0  0  0  0  0  0  0  0  0  0  0  0
  138.9630  149.8310  132.2270 F   0  0  0  0  0  0  0  0  0  0  0  0
  140.2270  148.4960  133.5320 F   0  0  0  0  0  0  0  0  0  0  0  0
  140.7620  151.7630  132.8020 C   0  0  0  0  0  0  0  0  0  0  0  0
  141.7120  152.7750  133.0020 C   0  0  0  0  0  0  0  0  0  0  0  0
  141.1269  158.3057  137.2549 H   0  0  0  0  0  0  0  0  0  0  0  0
  141.0405  156.6054  136.6819 H   0  0  0  0  0  0  0  0  0  0  0  0
  142.6126  157.4744  136.6819 H   0  0  0  0  0  0  0  0  0  0  0  0
  141.6550  157.3470  134.4950 H   0  0  0  0  0  0  0  0  0  0  0  0
  142.2157  159.8027  135.8735 H   0  0  0  0  0  0  0  0  0  0  0  0
  142.8785  159.1412  134.3406 H   0  0  0  0  0  0  0  0  0  0  0  0
  141.3000  159.9985  134.3406 H   0  0  0  0  0  0  0  0  0  0  0  0
  138.2202  158.6702  133.6373 H   0  0  0  0  0  0  0  0  0  0  0  0
  139.8629  159.1044  133.0218 H   0  0  0  0  0  0  0  0  0  0  0  0
  138.3303  156.6149  132.6916 H   0  0  0  0  0  0  0  0  0  0  0  0
  139.7787  157.2040  131.8071 H   0  0  0  0  0  0  0  0  0  0  0  0
  141.7000  157.0440  132.2440 H   0  0  0  0  0  0  0  0  0  0  0  0
  144.8206  153.8299  133.2155 H   0  0  0  0  0  0  0  0  0  0  0  0
  144.6222  151.0068  132.7862 H   0  0  0  0  0  0  0  0  0  0  0  0
  142.9668  149.1404  132.4636 H   0  0  0  0  0  0  0  0  0  0  0  0
  139.6862  151.9921  132.8156 H   0  0  0  0  0  0  0  0  0  0  0  0
  1  2  1  0
  2  3  1  0
  2  4  1  0
  4  5  2  0
  4  6  1  0
  6  7  1  0
  7  8  1  0
  8  9  1  0
  9 10  2  0
  9 11  1  0
 11 12  1  0
 12 13  1  0
 13 14  1  0
 13 15  2  0
 12 16  2  0
 16 17  1  0
 17 18  2  0
 18 19  1  0
 19 20  2  0
 20 21  1  0
 21 22  1  0
 21 23  1  0
 21 24  1  0
 20 25  1  0
 25 26  2  0
 26 11  1  0
 26 17  1  0
  1 27  1  0
  1 28  1  0
  1 29  1  0
  2 30  1  0
  3 31  1  0
  3 32  1  0
  3 33  1  0
  6 34  1  0
  6 35  1  0
  7 36  1  0
  7 37  1  0
 14 38  1  0
 16 39  1  0
 18 40  1  0
 19 41  1  0
 25 42  1  0
M  CHG  2   2   1  14  -1
M  END
>  <UniqueID>  (61) 
61

>  <SMILES>  (61) 
C[NH+](C)C(=O)CCOC(=O)n1c(C([NH-])=O)cc2ccc(C(F)(F)F)cc21

>  <Energy>  (61) 
74.49750013850458

>  <Genealogy>  (61) 
C[NH+](C)C(=O)CCOC(=O)n1c(C([NH-])=O)cc2ccc(C(F)(F)F)cc21 (protonated)
C[NH+](C)C(=O)CCOC(=O)n1c(C([NH-])=O)cc2ccc(C(F)(F)F)cc21 (3D coordinates assigned)
C[NH+](C)C(=O)CCOC(=O)n1c(C([NH-])=O)cc2ccc(C(F)(F)F)cc21 (optimized conformer: 74.49750013850458 kcal/mol)

>  <smiles>  (61) 
CN(C)C(=O)CCOC(=O)n1c(C(N)=O)cc2ccc(C(F)(F)F)cc21

>  <score_type>  (61) 
oracle

>  <origin>  (61) 
adg

>  <m_score__min__energy>  (61) 
-5.1600000000000001

>  <m_primary>  (61) 
energy

$$$$
62:0
     RDKit          3D

 50 51  0  0  0  0  0  0  0  0999 V2000
  147.7380  159.8440  131.7810 C   0  0  0  0  0  0  0  0  0  0  0  0
  147.2460  158.9200  132.8090 N   0  0  0  0  0  0  0  0  0  0  0  0
  146.2000  159.3780  133.7410 C   0  0  0  0  0  0  0  0  0  0  0  0
  144.9350  159.7930  132.9830 C   0  0  0  0  0  0  0  0  0  0  0  0
  144.3770  158.6770  132.3310 O   0  0  0  0  0  0  0  0  0  0  0  0
  147.7770  157.5760  132.8390 C   0  0  0  0  0  0  0  0  0  0  0  0
  148.9200  157.3480  132.3600 O   0  0  0  0  0  0  0  0  0  0  0  0
  147.0080  156.4270  133.4270 C   0  0  0  0  0  0  0  0  0  0  0  0
  145.5840  156.5280  133.0990 N   0  0  0  0  0  0  0  0  0  0  0  0
  144.5780  156.3840  134.1100 C   0  0  0  0  0  0  0  0  0  0  0  0
  144.8960  155.9530  135.2530 O   0  0  0  0  0  0  0  0  0  0  0  0
  143.1680  156.7100  133.8200 C   0  0  0  0  0  0  0  0  0  0  0  0
  142.7250  156.6010  132.6450 O   0  0  0  0  0  0  0  0  0  0  0  0
  142.2820  157.1290  134.8700 N   0  0  0  0  0  0  0  0  0  0  0  0
  141.6600  158.3330  135.0070 C   0  0  0  0  0  0  0  0  0  0  0  0
  141.7020  159.4450  134.0370 C   0  0  0  0  0  0  0  0  0  0  0  0
  141.5260  159.2100  132.6440 N   0  0  0  0  0  0  0  0  0  0  0  0
  141.8720  160.6210  134.4500 O   0  0  0  0  0  0  0  0  0  0  0  0
  140.9180  158.3660  136.1850 C   0  0  0  0  0  0  0  0  0  0  0  0
  141.1110  157.1330  136.7740 C   0  0  0  0  0  0  0  0  0  0  0  0
  140.6100  156.6190  137.9650 C   0  0  0  0  0  0  0  0  0  0  0  0
  140.9890  155.3160  138.3370 C   0  0  0  0  0  0  0  0  0  0  0  0
  141.8720  154.5480  137.5230 C   0  0  0  0  0  0  0  0  0  0  0  0
  142.2660  153.2060  137.9180 N   0  0  0  0  0  0  0  0  0  0  0  0
  143.6280  152.9360  138.3940 C   0  0  0  0  0  0  0  0  0  0  0  0
  141.3010  152.0980  137.8760 C   0  0  0  0  0  0  0  0  0  0  0  0
  142.3580  155.1200  136.3180 C   0  0  0  0  0  0  0  0  0  0  0  0
  141.9410  156.4100  135.9620 C   0  0  0  0  0  0  0  0  0  0  0  0
  148.2025  160.7163  132.2641 H   0  0  0  0  0  0  0  0  0  0  0  0
  148.4830  159.3321  131.1541 H   0  0  0  0  0  0  0  0  0  0  0  0
  146.8974  160.1763  131.1541 H   0  0  0  0  0  0  0  0  0  0  0  0
  145.9525  158.5606  134.4342 H   0  0  0  0  0  0  0  0  0  0  0  0
  146.5797  160.2497  134.2942 H   0  0  0  0  0  0  0  0  0  0  0  0
  144.2026  160.2036  133.6936 H   0  0  0  0  0  0  0  0  0  0  0  0
  145.1962  160.5555  132.2344 H   0  0  0  0  0  0  0  0  0  0  0  0
  143.4060  158.6920  132.5380 H   0  0  0  0  0  0  0  0  0  0  0  0
  147.4046  155.4839  133.0228 H   0  0  0  0  0  0  0  0  0  0  0  0
  147.1191  156.4533  134.5211 H   0  0  0  0  0  0  0  0  0  0  0  0
  145.2910  156.7310  132.1170 H   0  0  0  0  0  0  0  0  0  0  0  0
  142.2050  158.6250  132.1070 H   0  0  0  0  0  0  0  0  0  0  0  0
  140.3076  159.1983  136.5653 H   0  0  0  0  0  0  0  0  0  0  0  0
  139.9362  157.2144  138.5986 H   0  0  0  0  0  0  0  0  0  0  0  0
  140.5981  154.8835  139.2698 H   0  0  0  0  0  0  0  0  0  0  0  0
  143.6383  152.9340  139.4939 H   0  0  0  0  0  0  0  0  0  0  0  0
  143.9585  151.9549  138.0224 H   0  0  0  0  0  0  0  0  0  0  0  0
  144.3078  153.7169  138.0224 H   0  0  0  0  0  0  0  0  0  0  0  0
  141.0408  151.7993  138.9022 H   0  0  0  0  0  0  0  0  0  0  0  0
  140.3927  152.4227  137.3472 H   0  0  0  0  0  0  0  0  0  0  0  0
  141.7473  151.2429  137.3472 H   0  0  0  0  0  0  0  0  0  0  0  0
  143.0512  154.5594  135.6736 H   0  0  0  0  0  0  0  0  0  0  0  0
  1  2  1  0
  2  3  1  0
  3  4  1  0
  4  5  1  0
  2  6  1  0
  6  7  2  0
  6  8  1  0
  8  9  1  0
  9 10  1  0
 10 11  2  0
 10 12  1  0
 12 13  2  0
 12 14  1  0
 14 15  1  0
 15 16  1  0
 16 17  1  0
 16 18  2  0
 15 19  2  0
 19 20  1  0
 20 21  2  0
 21 22  1  0
 22 23  2  0
 23 24  1  0
 24 25  1  0
 24 26  1  0
 23 27  1  0
 27 28  2  0
 28 14  1  0
 28 20  1  0
  1 29  1  0
  1 30  1  0
  1 31  1  0
  3 32  1  0
  3 33  1  0
  4 34  1  0
  4 35  1  0
  5 36  1  0
  8 37  1  0
  8 38  1  0
  9 39  1  0
 17 40  1  0
 19 41  1  0
 21 42  1  0
 22 43  1  0
 25 44  1  0
 25 45  1  0
 25 46  1  0
 26 47  1  0
 26 48  1  0
 26 49  1  0
 27 50  1  0
M  CHG  1  17  -1
M  END
>  <UniqueID>  (62) 
62

>  <SMILES>  (62) 
CN(CCO)C(=O)CNC(=O)C(=O)n1c(C([NH-])=O)cc2ccc(N(C)C)cc21

>  <Energy>  (62) 
85.18346271204102

>  <Genealogy>  (62) 
CN(CCO)C(=O)CNC(=O)C(=O)n1c(C([NH-])=O)cc2ccc(N(C)C)cc21 (protonated)
CN(CCO)C(=O)CNC(=O)C(=O)n1c(C([NH-])=O)cc2ccc(N(C)C)cc21 (3D coordinates assigned)
CN(CCO)C(=O)CNC(=O)C(=O)n1c(C([NH-])=O)cc2ccc(N(C)C)cc21 (optimized conformer: 85.18346271204102 kcal/mol)

>  <smiles>  (62) 
CN(CCO)C(=O)CNC(=O)C(=O)n1c(C(N)=O)cc2ccc(N(C)C)cc21

>  <score_type>  (62) 
oracle

>  <origin>  (62) 
adg

>  <m_score__min__energy>  (62) 
-6.5300000000000002

>  <m_primary>  (62) 
energy

$$$$
63:0
     RDKit          3D

 47 48  0  0  0  0  0  0  0  0999 V2000
  138.2640  160.2230  130.3160 C   0  0  0  0  0  0  0  0  0  0  0  0
  139.5980  159.7730  130.3750 O   0  0  0  0  0  0  0  0  0  0  0  0
  139.8280  159.1550  131.6230 C   0  0  0  0  0  0  0  0  0  0  0  0
  138.5040  158.9870  132.3550 C   0  0  0  0  0  0  0  0  0  0  0  0
  138.4850  157.7360  133.0360 O   0  0  0  0  0  0  0  0  0  0  0  0
  139.1150  157.5390  134.2660 C   0  0  0  0  0  0  0  0  0  0  0  0
  138.7780  158.2200  135.2750 O   0  0  0  0  0  0  0  0  0  0  0  0
  140.1110  156.5660  134.3670 O   0  0  0  0  0  0  0  0  0  0  0  0
  141.0870  156.3460  133.3520 C   0  0  0  0  0  0  0  0  0  0  0  0
  141.8930  157.5090  133.1800 O   0  0  0  0  0  0  0  0  0  0  0  0
  143.2350  157.5670  133.5690 C   0  0  0  0  0  0  0  0  0  0  0  0
  143.8620  156.5120  133.8600 O   0  0  0  0  0  0  0  0  0  0  0  0
  143.9010  158.8350  133.6350 N   0  0  0  0  0  0  0  0  0  0  0  0
  143.3660  160.0410  133.9760 C   0  0  0  0  0  0  0  0  0  0  0  0
  141.9330  160.3230  134.2030 C   0  0  0  0  0  0  0  0  0  0  0  0
  141.1600  159.5190  135.0910 N   0  0  0  0  0  0  0  0  0  0  0  0
  141.3730  161.2560  133.5690 O   0  0  0  0  0  0  0  0  0  0  0  0
  144.3560  161.0230  133.9940 C   0  0  0  0  0  0  0  0  0  0  0  0
  145.5170  160.3750  133.6380 C   0  0  0  0  0  0  0  0  0  0  0  0
  146.8100  160.8680  133.5000 C   0  0  0  0  0  0  0  0  0  0  0  0
  147.8240  159.9660  133.1380 C   0  0  0  0  0  0  0  0  0  0  0  0
  147.5420  158.5860  132.9260 C   0  0  0  0  0  0  0  0  0  0  0  0
  148.5990  157.6610  132.5600 N   0  0  0  0  0  0  0  0  0  0  0  0
  149.8040  158.1400  131.8710 C   0  0  0  0  0  0  0  0  0  0  0  0
  148.4810  156.2320  132.8730 C   0  0  0  0  0  0  0  0  0  0  0  0
  146.2070  158.1330  133.0800 C   0  0  0  0  0  0  0  0  0  0  0  0
  145.2160  159.0580  133.4240 C   0  0  0  0  0  0  0  0  0  0  0  0
  137.8757  160.3540  131.3368 H   0  0  0  0  0  0  0  0  0  0  0  0
  138.2245  161.1842  129.7825 H   0  0  0  0  0  0  0  0  0  0  0  0
  137.6504  159.4821  129.7825 H   0  0  0  0  0  0  0  0  0  0  0  0
  140.2878  158.1683  131.4649 H   0  0  0  0  0  0  0  0  0  0  0  0
  140.5037  159.7810  132.2243 H   0  0  0  0  0  0  0  0  0  0  0  0
  138.3839  159.8017  133.0842 H   0  0  0  0  0  0  0  0  0  0  0  0
  137.6799  159.0170  131.6270 H   0  0  0  0  0  0  0  0  0  0  0  0
  141.7277  155.5002  133.6420 H   0  0  0  0  0  0  0  0  0  0  0  0
  140.5741  156.1230  132.4048 H   0  0  0  0  0  0  0  0  0  0  0  0
  140.8940  158.5410  134.8390 H   0  0  0  0  0  0  0  0  0  0  0  0
  144.2349  162.0882  134.2402 H   0  0  0  0  0  0  0  0  0  0  0  0
  147.0319  161.9320  133.6692 H   0  0  0  0  0  0  0  0  0  0  0  0
  148.8542  160.3318  133.0161 H   0  0  0  0  0  0  0  0  0  0  0  0
  150.5571  158.4394  132.6148 H   0  0  0  0  0  0  0  0  0  0  0  0
  150.2106  157.3351  131.2410 H   0  0  0  0  0  0  0  0  0  0  0  0
  149.5470  159.0044  131.2410 H   0  0  0  0  0  0  0  0  0  0  0  0
  148.4697  156.0954  133.9644 H   0  0  0  0  0  0  0  0  0  0  0  0
  147.5473  155.8387  132.4446 H   0  0  0  0  0  0  0  0  0  0  0  0
  149.3375  155.6909  132.4446 H   0  0  0  0  0  0  0  0  0  0  0  0
  145.9553  157.0725  132.9315 H   0  0  0  0  0  0  0  0  0  0  0  0
  1  2  1  0
  2  3  1  0
  3  4  1  0
  4  5  1  0
  5  6  1  0
  6  7  2  0
  6  8  1  0
  8  9  1  0
  9 10  1  0
 10 11  1  0
 11 12  2  0
 11 13  1  0
 13 14  1  0
 14 15  1  0
 15 16  1  0
 15 17  2  0
 14 18  2  0
 18 19  1  0
 19 20  2  0
 20 21  1  0
 21 22  2  0
 22 23  1  0
 23 24  1  0
 23 25  1  0
 22 26  1  0
 26 27  2  0
 27 13  1  0
 27 19  1  0
  1 28  1  0
  1 29  1  0
  1 30  1  0
  3 31  1  0
  3 32  1  0
  4 33  1  0
  4 34  1  0
  9 35  1  0
  9 36  1  0
 16 37  1  0
 18 38  1  0
 20 39  1  0
 21 40  1  0
 24 41  1  0
 24 42  1  0
 24 43  1  0
 25 44  1  0
 25 45  1  0
 25 46  1  0
 26 47  1  0
M  CHG  1  16  -1
M  END
>  <UniqueID>  (63) 
63

>  <SMILES>  (63) 
COCCOC(=O)OCOC(=O)n1c(C([NH-])=O)cc2ccc(N(C)C)cc21

>  <Energy>  (63) 
79.73747445134946

>  <Genealogy>  (63) 
COCCOC(=O)OCOC(=O)n1c(C([NH-])=O)cc2ccc(N(C)C)cc21 (protonated)
COCCOC(=O)OCOC(=O)n1c(C([NH-])=O)cc2ccc(N(C)C)cc21 (3D coordinates assigned)
COCCOC(=O)OCOC(=O)n1c(C([NH-])=O)cc2ccc(N(C)C)cc21 (optimized conformer: 79.73747445134946 kcal/mol)

>  <smiles>  (63) 
COCCOC(=O)OCOC(=O)n1c(C(N)=O)cc2ccc(N(C)C)cc21

>  <score_type>  (63) 
oracle

>  <origin>  (63) 
adg

>  <m_score__min__energy>  (63) 
-5.5999999999999996

>  <m_primary>  (63) 
energy

$$$$
64:0
     RDKit          3D

 60 61  0  0  0  0  0  0  0  0999 V2000
  142.0570  154.0140  136.7460 C   0  0  0  0  0  0  0  0  0  0  0  0
  142.5010  153.2800  135.6100 O   0  0  0  0  0  0  0  0  0  0  0  0
  141.7660  152.2250  135.0580 C   0  0  0  0  0  0  0  0  0  0  0  0
  141.0630  151.4870  135.8030 O   0  0  0  0  0  0  0  0  0  0  0  0
  141.8030  151.9950  133.6370 N   0  0  0  0  0  0  0  0  0  0  0  0
  140.5970  152.2700  132.8520 C   0  0  0  0  0  0  0  0  0  0  0  0
  142.9860  151.3920  133.0020 C   0  0  0  0  0  0  0  0  0  0  0  0
  144.0480  152.4500  132.6410 C   0  0  0  0  0  0  0  0  0  0  0  0
  144.2420  153.4620  133.6960 N   0  0  0  0  0  0  0  0  0  0  0  0
  145.4030  154.2850  133.4490 C   0  0  0  0  0  0  0  0  0  0  0  0
  146.6790  153.6880  133.2630 C   0  0  0  0  0  0  0  0  0  0  0  0
  147.8100  154.4760  132.9960 C   0  0  0  0  0  0  0  0  0  0  0  0
  147.6430  155.8560  132.9340 C   0  0  0  0  0  0  0  0  0  0  0  0
  148.5590  156.8470  132.6640 C   0  0  0  0  0  0  0  0  0  0  0  0
  147.8390  158.0390  132.7210 C   0  0  0  0  0  0  0  0  0  0  0  0
  148.4560  159.3730  132.5770 C   0  0  0  0  0  0  0  0  0  0  0  0
  147.7930  160.5230  133.0960 N   0  0  0  0  0  0  0  0  0  0  0  0
  149.5440  159.5140  131.9620 O   0  0  0  0  0  0  0  0  0  0  0  0
  146.5300  157.7940  133.0110 N   0  0  0  0  0  0  0  0  0  0  0  0
  145.4500  158.7400  133.0650 C   0  0  0  0  0  0  0  0  0  0  0  0
  145.4130  159.6980  132.2450 O   0  0  0  0  0  0  0  0  0  0  0  0
  144.4630  158.6150  134.0500 O   0  0  0  0  0  0  0  0  0  0  0  0
  143.0700  158.6440  133.7520 C   0  0  0  0  0  0  0  0  0  0  0  0
  142.7180  157.5280  132.9420 O   0  0  0  0  0  0  0  0  0  0  0  0
  141.8110  156.5430  133.3520 C   0  0  0  0  0  0  0  0  0  0  0  0
  142.2330  155.4050  133.7030 O   0  0  0  0  0  0  0  0  0  0  0  0
  140.3360  156.8760  133.4550 C   0  0  0  0  0  0  0  0  0  0  0  0
  140.0310  158.0640  132.5260 C   0  0  0  0  0  0  0  0  0  0  0  0
  139.4940  155.6580  133.0250 C   0  0  0  0  0  0  0  0  0  0  0  0
  139.9650  157.2480  134.9060 C   0  0  0  0  0  0  0  0  0  0  0  0
  146.4280  156.4540  133.1410 C   0  0  0  0  0  0  0  0  0  0  0  0
  145.2820  155.6930  133.3970 C   0  0  0  0  0  0  0  0  0  0  0  0
  142.3710  153.4949  137.6636 H   0  0  0  0  0  0  0  0  0  0  0  0
  142.4970  155.0220  136.7261 H   0  0  0  0  0  0  0  0  0  0  0  0
  140.9600  154.0923  136.7261 H   0  0  0  0  0  0  0  0  0  0  0  0
  139.7534  152.4624  133.5312 H   0  0  0  0  0  0  0  0  0  0  0  0
  140.7657  153.1527  132.2177 H   0  0  0  0  0  0  0  0  0  0  0  0
  140.3664  151.4014  132.2177 H   0  0  0  0  0  0  0  0  0  0  0  0
  143.4307  150.6648  133.6972 H   0  0  0  0  0  0  0  0  0  0  0  0
  142.6613  150.9041  132.0711 H   0  0  0  0  0  0  0  0  0  0  0  0
  145.0061  151.9384  132.4669 H   0  0  0  0  0  0  0  0  0  0  0  0
  143.6921  152.9774  131.7437 H   0  0  0  0  0  0  0  0  0  0  0  0
  144.3780  152.9680  134.6080 H   0  0  0  0  0  0  0  0  0  0  0  0
  143.3790  154.0470  133.7900 H   0  0  0  0  0  0  0  0  0  0  0  0
  146.7820  152.5948  133.3290 H   0  0  0  0  0  0  0  0  0  0  0  0
  148.7974  154.0167  132.8407 H   0  0  0  0  0  0  0  0  0  0  0  0
  149.6308  156.7244  132.4491 H   0  0  0  0  0  0  0  0  0  0  0  0
  146.9680  160.9340  132.6070 H   0  0  0  0  0  0  0  0  0  0  0  0
  142.4968  158.6074  134.6901 H   0  0  0  0  0  0  0  0  0  0  0  0
  142.8385  159.5709  133.2067 H   0  0  0  0  0  0  0  0  0  0  0  0
  139.8026  158.9536  133.1313 H   0  0  0  0  0  0  0  0  0  0  0  0
  140.9061  158.2672  131.8913 H   0  0  0  0  0  0  0  0  0  0  0  0
  139.1662  157.8205  131.8913 H   0  0  0  0  0  0  0  0  0  0  0  0
  139.1293  155.1304  133.9187 H   0  0  0  0  0  0  0  0  0  0  0  0
  138.6372  155.9980  132.4248 H   0  0  0  0  0  0  0  0  0  0  0  0
  140.1148  154.9766  132.4248 H   0  0  0  0  0  0  0  0  0  0  0  0
  140.5655  156.6459  135.6038 H   0  0  0  0  0  0  0  0  0  0  0  0
  140.1685  158.3158  135.0742 H   0  0  0  0  0  0  0  0  0  0  0  0
  138.8966  157.0474  135.0742 H   0  0  0  0  0  0  0  0  0  0  0  0
  144.3080  156.1795  133.5544 H   0  0  0  0  0  0  0  0  0  0  0  0
  1  2  1  0
  2  3  1  0
  3  4  2  0
  3  5  1  0
  5  6  1  0
  5  7  1  0
  7  8  1  0
  8  9  1  0
  9 10  1  0
 10 11  2  0
 11 12  1  0
 12 13  2  0
 13 14  1  0
 14 15  2  0
 15 16  1  0
 16 17  1  0
 16 18  2  0
 15 19  1  0
 19 20  1  0
 20 21  2  0
 20 22  1  0
 22 23  1  0
 23 24  1  0
 24 25  1  0
 25 26  2  0
 25 27  1  0
 27 28  1  0
 27 29  1  0
 27 30  1  0
 19 31  1  0
 31 32  2  0
 32 10  1  0
 31 13  1  0
  1 33  1  0
  1 34  1  0
  1 35  1  0
  6 36  1  0
  6 37  1  0
  6 38  1  0
  7 39  1  0
  7 40  1  0
  8 41  1  0
  8 42  1  0
  9 43  1  0
  9 44  1  0
 11 45  1  0
 12 46  1  0
 14 47  1  0
 17 48  1  0
 23 49  1  0
 23 50  1  0
 28 51  1  0
 28 52  1  0
 28 53  1  0
 29 54  1  0
 29 55  1  0
 29 56  1  0
 30 57  1  0
 30 58  1  0
 30 59  1  0
 32 60  1  0
M  CHG  2   9   1  17  -1
M  END
>  <UniqueID>  (64) 
64

>  <SMILES>  (64) 
COC(=O)N(C)CC[NH2+]c1ccc2cc(C([NH-])=O)n(C(=O)OCOC(=O)C(C)(C)C)c2c1

>  <Energy>  (64) 
84.21146152771006

>  <Genealogy>  (64) 
COC(=O)N(C)CC[NH2+]c1ccc2cc(C([NH-])=O)n(C(=O)OCOC(=O)C(C)(C)C)c2c1 (protonated)
COC(=O)N(C)CC[NH2+]c1ccc2cc(C([NH-])=O)n(C(=O)OCOC(=O)C(C)(C)C)c2c1 (3D coordinates assigned)
COC(=O)N(C)CC[NH2+]c1ccc2cc(C([NH-])=O)n(C(=O)OCOC(=O)C(C)(C)C)c2c1 (optimized conformer: 84.21146152771006 kcal/mol)

>  <smiles>  (64) 
COC(=O)N(C)CCNc1ccc2cc(C(N)=O)n(C(=O)OCOC(=O)C(C)(C)C)c2c1

>  <score_type>  (64) 
oracle

>  <origin>  (64) 
adg

>  <m_score__min__energy>  (64) 
-7.0899999999999999

>  <m_primary>  (64) 
energy

$$$$
65:0
     RDKit          3D

 39 40  0  0  0  0  0  0  0  0999 V2000
  140.0160  149.6760  132.6780 C   0  0  0  0  0  0  0  0  0  0  0  0
  141.0410  150.7560  132.8610 C   0  0  0  0  0  0  0  0  0  0  0  0
  142.4190  150.4330  132.8620 C   0  0  0  0  0  0  0  0  0  0  0  0
  143.3890  151.4410  132.9820 C   0  0  0  0  0  0  0  0  0  0  0  0
  142.9530  152.7570  133.0960 C   0  0  0  0  0  0  0  0  0  0  0  0
  143.6780  153.9230  133.1820 C   0  0  0  0  0  0  0  0  0  0  0  0
  142.7310  154.9410  133.2480 C   0  0  0  0  0  0  0  0  0  0  0  0
  143.0820  156.3660  133.4050 C   0  0  0  0  0  0  0  0  0  0  0  0
  142.5800  157.3550  132.5030 N   0  0  0  0  0  0  0  0  0  0  0  0
  143.7900  156.7250  134.3820 O   0  0  0  0  0  0  0  0  0  0  0  0
  141.4690  154.4300  133.1910 N   0  0  0  0  0  0  0  0  0  0  0  0
  140.2380  155.1680  133.1040 C   0  0  0  0  0  0  0  0  0  0  0  0
  139.1390  154.5570  132.9920 O   0  0  0  0  0  0  0  0  0  0  0  0
  140.2640  156.5650  133.1420 O   0  0  0  0  0  0  0  0  0  0  0  0
  139.1210  157.3660  132.8740 C   0  0  0  0  0  0  0  0  0  0  0  0
  139.5440  158.6050  132.1390 C   0  0  0  0  0  0  0  0  0  0  0  0
  140.7570  158.9480  132.1910 O   0  0  0  0  0  0  0  0  0  0  0  0
  138.6110  159.3790  131.3540 N   0  0  0  0  0  0  0  0  0  0  0  0
  137.1950  159.0030  131.2780 C   0  0  0  0  0  0  0  0  0  0  0  0
  139.0990  160.5550  130.6250 C   0  0  0  0  0  0  0  0  0  0  0  0
  141.6220  153.0890  133.1000 C   0  0  0  0  0  0  0  0  0  0  0  0
  140.6340  152.1050  132.9610 C   0  0  0  0  0  0  0  0  0  0  0  0
  139.6784  149.3203  133.6626 H   0  0  0  0  0  0  0  0  0  0  0  0
  139.1576  150.0762  132.1186 H   0  0  0  0  0  0  0  0  0  0  0  0
  140.4605  148.8396  132.1186 H   0  0  0  0  0  0  0  0  0  0  0  0
  142.7328  149.3829  132.7679 H   0  0  0  0  0  0  0  0  0  0  0  0
  144.4617  151.1973  132.9857 H   0  0  0  0  0  0  0  0  0  0  0  0
  144.7728  154.0284  133.1957 H   0  0  0  0  0  0  0  0  0  0  0  0
  142.8740  158.3520  132.6030 H   0  0  0  0  0  0  0  0  0  0  0  0
  141.8630  157.1140  131.7840 H   0  0  0  0  0  0  0  0  0  0  0  0
  138.4104  156.7971  132.2564 H   0  0  0  0  0  0  0  0  0  0  0  0
  138.6377  157.6467  133.8214 H   0  0  0  0  0  0  0  0  0  0  0  0
  136.7892  158.8952  132.2947 H   0  0  0  0  0  0  0  0  0  0  0  0
  136.6366  159.7840  130.7412 H   0  0  0  0  0  0  0  0  0  0  0  0
  137.0976  158.0479  130.7412 H   0  0  0  0  0  0  0  0  0  0  0  0
  139.4185  161.3248  131.3428 H   0  0  0  0  0  0  0  0  0  0  0  0
  139.9518  160.2667  129.9928 H   0  0  0  0  0  0  0  0  0  0  0  0
  138.2927  160.9552  129.9928 H   0  0  0  0  0  0  0  0  0  0  0  0
  139.5684  152.3762  132.9305 H   0  0  0  0  0  0  0  0  0  0  0  0
  1  2  1  0
  2  3  2  0
  3  4  1  0
  4  5  2  0
  5  6  1  0
  6  7  2  0
  7  8  1  0
  8  9  1  0
  8 10  2  0
  7 11  1  0
 11 12  1  0
 12 13  2  0
 12 14  1  0
 14 15  1  0
 15 16  1  0
 16 17  2  0
 16 18  1  0
 18 19  1  0
 18 20  1  0
 11 21  1  0
 21 22  2  0
 22  2  1  0
 21  5  1  0
  1 23  1  0
  1 24  1  0
  1 25  1  0
  3 26  1  0
  4 27  1  0
  6 28  1  0
  9 29  1  0
  9 30  1  0
 15 31  1  0
 15 32  1  0
 19 33  1  0
 19 34  1  0
 19 35  1  0
 20 36  1  0
 20 37  1  0
 20 38  1  0
 22 39  1  0
M  END
>  <UniqueID>  (65) 
65

>  <SMILES>  (65) 
Cc1ccc2cc(C(N)=O)n(C(=O)OCC(=O)N(C)C)c2c1

>  <Energy>  (65) 
71.61425159639161

>  <Genealogy>  (65) 
Cc1ccc2cc(C(N)=O)n(C(=O)OCC(=O)N(C)C)c2c1 (3D coordinates assigned)
Cc1ccc2cc(C(N)=O)n(C(=O)OCC(=O)N(C)C)c2c1 (optimized conformer: 71.61425159639161 kcal/mol)

>  <smiles>  (65) 
Cc1ccc2cc(C(N)=O)n(C(=O)OCC(=O)N(C)C)c2c1

>  <score_type>  (65) 
oracle

>  <origin>  (65) 
adg

>  <m_score__min__energy>  (65) 
-6.6100000000000003

>  <m_primary>  (65) 
energy

$$$$
66:0
     RDKit          3D

 57 58  0  0  0  0  0  0  0  0999 V2000
  147.2290  150.9900  132.1560 C   0  0  0  0  0  0  0  0  0  0  0  0
  148.6790  151.1960  132.2590 N   0  0  0  0  0  0  0  0  0  0  0  0
  149.5970  150.0710  132.0510 C   0  0  0  0  0  0  0  0  0  0  0  0
  149.2240  152.5020  132.5450 C   0  0  0  0  0  0  0  0  0  0  0  0
  150.4750  152.6580  132.6080 O   0  0  0  0  0  0  0  0  0  0  0  0
  148.3410  153.6950  132.7960 C   0  0  0  0  0  0  0  0  0  0  0  0
  149.0970  154.9410  132.6590 N   0  0  0  0  0  0  0  0  0  0  0  0
  148.4790  156.2410  132.6990 C   0  0  0  0  0  0  0  0  0  0  0  0
  149.2360  157.3760  132.3160 C   0  0  0  0  0  0  0  0  0  0  0  0
  148.6780  158.6640  132.3590 C   0  0  0  0  0  0  0  0  0  0  0  0
  147.3620  158.7900  132.7900 C   0  0  0  0  0  0  0  0  0  0  0  0
  146.5770  159.9130  132.9100 C   0  0  0  0  0  0  0  0  0  0  0  0
  145.3460  159.4550  133.3720 C   0  0  0  0  0  0  0  0  0  0  0  0
  144.2200  160.3440  133.7300 C   0  0  0  0  0  0  0  0  0  0  0  0
  142.9190  160.1320  133.1790 N   0  0  0  0  0  0  0  0  0  0  0  0
  144.4070  161.3220  134.5010 O   0  0  0  0  0  0  0  0  0  0  0  0
  145.3670  158.1000  133.5280 N   0  0  0  0  0  0  0  0  0  0  0  0
  144.2680  157.2460  133.8930 C   0  0  0  0  0  0  0  0  0  0  0  0
  143.1130  157.7350  134.0320 O   0  0  0  0  0  0  0  0  0  0  0  0
  144.4750  155.8730  134.0680 O   0  0  0  0  0  0  0  0  0  0  0  0
  144.7580  155.2900  135.3370 C   0  0  0  0  0  0  0  0  0  0  0  0
  145.6530  154.1920  135.1850 O   0  0  0  0  0  0  0  0  0  0  0  0
  146.8630  154.1010  135.8760 C   0  0  0  0  0  0  0  0  0  0  0  0
  147.7700  154.9550  135.6880 O   0  0  0  0  0  0  0  0  0  0  0  0
  147.0560  153.0190  136.7970 N   0  0  0  0  0  0  0  0  0  0  0  0
  148.3140  152.6340  137.4470 C   0  0  0  0  0  0  0  0  0  0  0  0
  149.2180  151.8830  136.4510 C   0  0  0  0  0  0  0  0  0  0  0  0
  149.0360  153.8760  138.0000 C   0  0  0  0  0  0  0  0  0  0  0  0
  147.9680  151.6950  138.6130 C   0  0  0  0  0  0  0  0  0  0  0  0
  146.6110  157.7080  133.1700 C   0  0  0  0  0  0  0  0  0  0  0  0
  147.1370  156.4110  133.1180 C   0  0  0  0  0  0  0  0  0  0  0  0
  146.7948  150.9283  133.1648 H   0  0  0  0  0  0  0  0  0  0  0  0
  146.7766  151.8329  131.6130 H   0  0  0  0  0  0  0  0  0  0  0  0
  147.0292  150.0545  131.6130 H   0  0  0  0  0  0  0  0  0  0  0  0
  149.9194  149.6758  133.0256 H   0  0  0  0  0  0  0  0  0  0  0  0
  149.0841  149.2789  131.4857 H   0  0  0  0  0  0  0  0  0  0  0  0
  150.4759  150.4146  131.4857 H   0  0  0  0  0  0  0  0  0  0  0  0
  147.5160  153.6922  132.0684 H   0  0  0  0  0  0  0  0  0  0  0  0
  147.9482  153.6326  133.8216 H   0  0  0  0  0  0  0  0  0  0  0  0
  150.1410  154.8950  132.6010 H   0  0  0  0  0  0  0  0  0  0  0  0
  150.2754  157.2464  131.9802 H   0  0  0  0  0  0  0  0  0  0  0  0
  149.2639  159.5460  132.0609 H   0  0  0  0  0  0  0  0  0  0  0  0
  146.8613  160.9522  132.6881 H   0  0  0  0  0  0  0  0  0  0  0  0
  142.1400  160.7920  133.4030 H   0  0  0  0  0  0  0  0  0  0  0  0
  142.7130  159.3010  132.5830 H   0  0  0  0  0  0  0  0  0  0  0  0
  145.2182  156.0463  135.9899 H   0  0  0  0  0  0  0  0  0  0  0  0
  143.8197  154.9293  135.7837 H   0  0  0  0  0  0  0  0  0  0  0  0
  149.9489  151.2758  137.0051 H   0  0  0  0  0  0  0  0  0  0  0  0
  148.6014  151.2276  135.8183 H   0  0  0  0  0  0  0  0  0  0  0  0
  149.7492  152.6093  135.8183 H   0  0  0  0  0  0  0  0  0  0  0  0
  149.0207  153.8498  139.0996 H   0  0  0  0  0  0  0  0  0  0  0  0
  150.0781  153.8815  137.6478 H   0  0  0  0  0  0  0  0  0  0  0  0
  148.5251  154.7843  137.6478 H   0  0  0  0  0  0  0  0  0  0  0  0
  148.1575  152.2094  139.5667 H   0  0  0  0  0  0  0  0  0  0  0  0
  146.9066  151.4122  138.5535 H   0  0  0  0  0  0  0  0  0  0  0  0
  148.5921  150.7912  138.5535 H   0  0  0  0  0  0  0  0  0  0  0  0
  146.5211  155.5432  133.3966 H   0  0  0  0  0  0  0  0  0  0  0  0
  1  2  1  0
  2  3  1  0
  2  4  1  0
  4  5  2  0
  4  6  1  0
  6  7  1  0
  7  8  1  0
  8  9  2  0
  9 10  1  0
 10 11  2  0
 11 12  1  0
 12 13  2  0
 13 14  1  0
 14 15  1  0
 14 16  2  0
 13 17  1  0
 17 18  1  0
 18 19  2  0
 18 20  1  0
 20 21  1  0
 21 22  1  0
 22 23  1  0
 23 24  2  0
 23 25  1  0
 25 26  1  0
 26 27  1  0
 26 28  1  0
 26 29  1  0
 17 30  1  0
 30 31  2  0
 31  8  1  0
 30 11  1  0
  1 32  1  0
  1 33  1  0
  1 34  1  0
  3 35  1  0
  3 36  1  0
  3 37  1  0
  6 38  1  0
  6 39  1  0
  7 40  1  0
  9 41  1  0
 10 42  1  0
 12 43  1  0
 15 44  1  0
 15 45  1  0
 21 46  1  0
 21 47  1  0
 27 48  1  0
 27 49  1  0
 27 50  1  0
 28 51  1  0
 28 52  1  0
 28 53  1  0
 29 54  1  0
 29 55  1  0
 29 56  1  0
 31 57  1  0
M  CHG  1  25  -1
M  END
>  <UniqueID>  (66) 
66

>  <SMILES>  (66) 
CN(C)C(=O)CNc1ccc2cc(C(N)=O)n(C(=O)OCOC(=O)[N-]C(C)(C)C)c2c1

>  <Energy>  (66) 
80.77152603305771

>  <Genealogy>  (66) 
CN(C)C(=O)CNc1ccc2cc(C(N)=O)n(C(=O)OCOC(=O)[N-]C(C)(C)C)c2c1 (protonated)
CN(C)C(=O)CNc1ccc2cc(C(N)=O)n(C(=O)OCOC(=O)[N-]C(C)(C)C)c2c1 (3D coordinates assigned)
CN(C)C(=O)CNc1ccc2cc(C(N)=O)n(C(=O)OCOC(=O)[N-]C(C)(C)C)c2c1 (optimized conformer: 80.77152603305771 kcal/mol)

>  <smiles>  (66) 
CN(C)C(=O)CNc1ccc2cc(C(N)=O)n(C(=O)OCOC(=O)NC(C)(C)C)c2c1

>  <score_type>  (66) 
oracle

>  <origin>  (66) 
adg

>  <m_score__min__energy>  (66) 
-8.1699999999999999

>  <m_primary>  (66) 
energy

$$$$
67:0
     RDKit          3D

 46 47  0  0  0  0  0  0  0  0999 V2000
  149.2650  153.3860  138.9710 C   0  0  0  0  0  0  0  0  0  0  0  0
  148.9820  154.1510  137.7660 N   0  0  0  0  0  0  0  0  0  0  0  0
  147.8990  153.8320  136.8850 C   0  0  0  0  0  0  0  0  0  0  0  0
  147.1380  152.8580  137.1360 O   0  0  0  0  0  0  0  0  0  0  0  0
  147.7010  154.6410  135.6440 C   0  0  0  0  0  0  0  0  0  0  0  0
  148.2990  153.9820  134.5300 O   0  0  0  0  0  0  0  0  0  0  0  0
  148.1100  154.4010  133.2110 C   0  0  0  0  0  0  0  0  0  0  0  0
  149.0750  154.8400  132.5300 O   0  0  0  0  0  0  0  0  0  0  0  0
  146.7360  154.3800  132.6330 C   0  0  0  0  0  0  0  0  0  0  0  0
  146.2920  155.7180  132.4500 O   0  0  0  0  0  0  0  0  0  0  0  0
  145.8510  156.5270  133.4990 C   0  0  0  0  0  0  0  0  0  0  0  0
  145.4320  155.9930  134.5610 O   0  0  0  0  0  0  0  0  0  0  0  0
  145.8420  157.9620  133.3490 N   0  0  0  0  0  0  0  0  0  0  0  0
  146.9080  158.7810  133.1100 C   0  0  0  0  0  0  0  0  0  0  0  0
  148.2840  158.3480  132.8160 C   0  0  0  0  0  0  0  0  0  0  0  0
  148.5330  157.2080  131.9930 N   0  0  0  0  0  0  0  0  0  0  0  0
  149.2530  159.0320  133.2400 O   0  0  0  0  0  0  0  0  0  0  0  0
  146.5450  160.1180  133.2270 C   0  0  0  0  0  0  0  0  0  0  0  0
  145.2040  160.1040  133.5180 C   0  0  0  0  0  0  0  0  0  0  0  0
  144.3260  161.1620  133.7160 C   0  0  0  0  0  0  0  0  0  0  0  0
  142.9790  160.8650  133.9730 C   0  0  0  0  0  0  0  0  0  0  0  0
  142.5200  159.5180  134.0240 C   0  0  0  0  0  0  0  0  0  0  0  0
  141.1210  159.2210  134.2730 N   0  0  0  0  0  0  0  0  0  0  0  0
  140.6390  158.9690  135.6380 C   0  0  0  0  0  0  0  0  0  0  0  0
  140.1650  159.1380  133.1620 C   0  0  0  0  0  0  0  0  0  0  0  0
  143.4550  158.4720  133.8160 C   0  0  0  0  0  0  0  0  0  0  0  0
  144.7990  158.7960  133.5820 C   0  0  0  0  0  0  0  0  0  0  0  0
  149.0383  153.9987  139.8560 H   0  0  0  0  0  0  0  0  0  0  0  0
  148.6430  152.4789  138.9840 H   0  0  0  0  0  0  0  0  0  0  0  0
  150.3277  153.1021  138.9840 H   0  0  0  0  0  0  0  0  0  0  0  0
  146.6239  154.7650  135.4583 H   0  0  0  0  0  0  0  0  0  0  0  0
  148.1733  155.6256  135.7764 H   0  0  0  0  0  0  0  0  0  0  0  0
  146.7513  153.8604  131.6636 H   0  0  0  0  0  0  0  0  0  0  0  0
  146.0534  153.8512  133.3145 H   0  0  0  0  0  0  0  0  0  0  0  0
  147.7500  156.7370  131.4900 H   0  0  0  0  0  0  0  0  0  0  0  0
  149.5110  156.8700  131.8490 H   0  0  0  0  0  0  0  0  0  0  0  0
  147.1939  160.9986  133.1111 H   0  0  0  0  0  0  0  0  0  0  0  0
  144.6769  162.2036  133.6725 H   0  0  0  0  0  0  0  0  0  0  0  0
  142.2659  161.6862  134.1378 H   0  0  0  0  0  0  0  0  0  0  0  0
  141.3725  159.3525  136.3625 H   0  0  0  0  0  0  0  0  0  0  0  0
  139.6757  159.4788  135.7867 H   0  0  0  0  0  0  0  0  0  0  0  0
  140.5080  157.8870  135.7867 H   0  0  0  0  0  0  0  0  0  0  0  0
  139.1443  159.0494  133.5624 H   0  0  0  0  0  0  0  0  0  0  0  0
  140.2395  160.0460  132.5456 H   0  0  0  0  0  0  0  0  0  0  0  0
  140.3948  158.2564  132.5456 H   0  0  0  0  0  0  0  0  0  0  0  0
  143.1303  157.4212  133.8379 H   0  0  0  0  0  0  0  0  0  0  0  0
  1  2  1  0
  2  3  1  0
  3  4  2  0
  3  5  1  0
  5  6  1  0
  6  7  1  0
  7  8  2  0
  7  9  1  0
  9 10  1  0
 10 11  1  0
 11 12  2  0
 11 13  1  0
 13 14  1  0
 14 15  1  0
 15 16  1  0
 15 17  2  0
 14 18  2  0
 18 19  1  0
 19 20  2  0
 20 21  1  0
 21 22  2  0
 22 23  1  0
 23 24  1  0
 23 25  1  0
 22 26  1  0
 26 27  2  0
 27 13  1  0
 27 19  1  0
  1 28  1  0
  1 29  1  0
  1 30  1  0
  5 31  1  0
  5 32  1  0
  9 33  1  0
  9 34  1  0
 16 35  1  0
 16 36  1  0
 18 37  1  0
 20 38  1  0
 21 39  1  0
 24 40  1  0
 24 41  1  0
 24 42  1  0
 25 43  1  0
 25 44  1  0
 25 45  1  0
 26 46  1  0
M  CHG  1   2  -1
M  END
>  <UniqueID>  (67) 
67

>  <SMILES>  (67) 
C[N-]C(=O)COC(=O)COC(=O)n1c(C(N)=O)cc2ccc(N(C)C)cc21

>  <Energy>  (67) 
78.29716125812419

>  <Genealogy>  (67) 
C[N-]C(=O)COC(=O)COC(=O)n1c(C(N)=O)cc2ccc(N(C)C)cc21 (protonated)
C[N-]C(=O)COC(=O)COC(=O)n1c(C(N)=O)cc2ccc(N(C)C)cc21 (3D coordinates assigned)
C[N-]C(=O)COC(=O)COC(=O)n1c(C(N)=O)cc2ccc(N(C)C)cc21 (optimized conformer: 78.29716125812419 kcal/mol)

>  <smiles>  (67) 
CNC(=O)COC(=O)COC(=O)n1c(C(N)=O)cc2ccc(N(C)C)cc21

>  <score_type>  (67) 
oracle

>  <origin>  (67) 
adg

>  <m_score__min__energy>  (67) 
-6.6600000000000001

>  <m_primary>  (67) 
energy

$$$$
68:0
     RDKit          3D

 38 39  0  0  0  0  0  0  0  0999 V2000
  140.9910  159.7330  136.0640 C   0  0  0  0  0  0  0  0  0  0  0  0
  141.2710  158.7260  135.0240 N   0  0  2  0  0  0  0  0  0  0  0  0
  140.0380  158.1560  134.4340 C   0  0  0  0  0  0  0  0  0  0  0  0
  139.7250  158.6920  133.0630 C   0  0  0  0  0  0  0  0  0  0  0  0
  138.6650  158.3520  132.4740 O   0  0  0  0  0  0  0  0  0  0  0  0
  140.6020  159.5740  132.4430 O   0  0  0  0  0  0  0  0  0  0  0  0
  142.1540  157.6890  135.5050 C   0  0  0  0  0  0  0  0  0  0  0  0
  141.8230  156.9730  136.4910 O   0  0  0  0  0  0  0  0  0  0  0  0
  143.3590  157.4580  134.8270 O   0  0  0  0  0  0  0  0  0  0  0  0
  143.7400  158.0680  133.6240 C   0  0  0  0  0  0  0  0  0  0  0  0
  142.9900  158.0240  132.6110 O   0  0  0  0  0  0  0  0  0  0  0  0
  145.0130  158.7270  133.5400 N   0  0  0  0  0  0  0  0  0  0  0  0
  145.2670  160.0660  133.5610 C   0  0  0  0  0  0  0  0  0  0  0  0
  144.2840  161.1350  133.8390 C   0  0  0  0  0  0  0  0  0  0  0  0
  142.8850  160.8600  133.8490 N   0  0  0  0  0  0  0  0  0  0  0  0
  144.6870  162.2950  134.1200 O   0  0  0  0  0  0  0  0  0  0  0  0
  146.6260  160.3100  133.3660 C   0  0  0  0  0  0  0  0  0  0  0  0
  147.2030  159.0680  133.2340 C   0  0  0  0  0  0  0  0  0  0  0  0
  148.5320  158.7170  133.0120 C   0  0  0  0  0  0  0  0  0  0  0  0
  148.8410  157.3520  132.8880 C   0  0  0  0  0  0  0  0  0  0  0  0
  147.8240  156.3700  132.9820 C   0  0  0  0  0  0  0  0  0  0  0  0
  148.1560  154.9130  132.8310 C   0  0  0  0  0  0  0  0  0  0  0  0
  149.4910  154.7700  132.5000 F   0  0  0  0  0  0  0  0  0  0  0  0
  147.9070  154.2530  134.0210 F   0  0  0  0  0  0  0  0  0  0  0  0
  146.4860  156.7640  133.2050 C   0  0  0  0  0  0  0  0  0  0  0  0
  146.2090  158.1290  133.3430 C   0  0  0  0  0  0  0  0  0  0  0  0
  141.1173  159.2787  137.0578 H   0  0  0  0  0  0  0  0  0  0  0  0
  141.6887  160.5764  135.9550 H   0  0  0  0  0  0  0  0  0  0  0  0
  139.9581  160.0952  135.9550 H   0  0  0  0  0  0  0  0  0  0  0  0
  141.7740  159.2270  134.2530 H   0  0  0  0  0  0  0  0  0  0  0  0
  140.1586  157.0650  134.3621 H   0  0  0  0  0  0  0  0  0  0  0  0
  139.2032  158.4411  135.0911 H   0  0  0  0  0  0  0  0  0  0  0  0
  142.5030  160.0040  133.3900 H   0  0  0  0  0  0  0  0  0  0  0  0
  147.1294  161.2872  133.3262 H   0  0  0  0  0  0  0  0  0  0  0  0
  149.3160  159.4848  132.9360 H   0  0  0  0  0  0  0  0  0  0  0  0
  149.8826  157.0427  132.7163 H   0  0  0  0  0  0  0  0  0  0  0  0
  147.5323  154.4825  132.0337 H   0  0  0  0  0  0  0  0  0  0  0  0
  145.6815  156.0165  133.2686 H   0  0  0  0  0  0  0  0  0  0  0  0
  1  2  1  0
  2  3  1  0
  3  4  1  0
  4  5  2  0
  4  6  1  0
  2  7  1  0
  7  8  2  0
  7  9  1  0
  9 10  1  0
 10 11  2  0
 10 12  1  0
 12 13  1  0
 13 14  1  0
 14 15  1  0
 14 16  2  0
 13 17  2  0
 17 18  1  0
 18 19  2  0
 19 20  1  0
 20 21  2  0
 21 22  1  0
 22 23  1  0
 22 24  1  0
 21 25  1  0
 25 26  2  0
 26 12  1  0
 26 18  1  0
  1 27  1  0
  1 28  1  0
  1 29  1  0
  2 30  1  6
  3 31  1  0
  3 32  1  0
 15 33  1  0
 17 34  1  0
 19 35  1  0
 20 36  1  0
 22 37  1  0
 25 38  1  0
M  CHG  3   2   1   6  -1  15  -1
M  END
>  <UniqueID>  (68) 
68

>  <SMILES>  (68) 
C[N@H+](CC(=O)[O-])C(=O)OC(=O)n1c(C([NH-])=O)cc2ccc(C(F)F)cc21

>  <Energy>  (68) 
81.45714388926287

>  <Genealogy>  (68) 
C[NH+](CC(=O)[O-])C(=O)OC(=O)n1c(C([NH-])=O)cc2ccc(C(F)F)cc21 (protonated)
C[N@H+](CC(=O)[O-])C(=O)OC(=O)n1c(C([NH-])=O)cc2ccc(C(F)F)cc21 (chirality)
C[N@H+](CC(=O)[O-])C(=O)OC(=O)n1c(C([NH-])=O)cc2ccc(C(F)F)cc21 (3D coordinates assigned)
C[N@H+](CC(=O)[O-])C(=O)OC(=O)n1c(C([NH-])=O)cc2ccc(C(F)F)cc21 (optimized conformer: 81.45714388926287 kcal/mol)

>  <smiles>  (68) 
CN(CC(=O)O)C(=O)OC(=O)n1c(C(N)=O)cc2ccc(C(F)F)cc21

>  <score_type>  (68) 
oracle

>  <origin>  (68) 
adg

>  <m_score__min__energy>  (68) 
-5.7000000000000002

>  <m_primary>  (68) 
energy

$$$$
69:0
     RDKit          3D

 36 37  0  0  0  0  0  0  0  0999 V2000
  142.3700  158.2690  134.5640 C   0  0  0  0  0  0  0  0  0  0  0  0
  143.6520  158.9220  134.1420 C   0  0  0  0  0  0  0  0  0  0  0  0
  143.7470  160.3360  134.0990 C   0  0  0  0  0  0  0  0  0  0  0  0
  144.9340  160.9600  133.6800 C   0  0  0  0  0  0  0  0  0  0  0  0
  145.9960  160.1480  133.2900 C   0  0  0  0  0  0  0  0  0  0  0  0
  147.2610  160.4840  132.8630 C   0  0  0  0  0  0  0  0  0  0  0  0
  147.9050  159.2700  132.6240 C   0  0  0  0  0  0  0  0  0  0  0  0
  149.2880  159.1530  132.1200 C   0  0  0  0  0  0  0  0  0  0  0  0
  149.8690  157.8630  131.9300 N   0  0  0  0  0  0  0  0  0  0  0  0
  149.9700  160.1800  131.8650 O   0  0  0  0  0  0  0  0  0  0  0  0
  147.0660  158.2290  132.8850 N   0  0  0  0  0  0  0  0  0  0  0  0
  147.3640  156.8280  132.8070 C   0  0  0  0  0  0  0  0  0  0  0  0
  147.3360  156.2590  131.6840 O   0  0  0  0  0  0  0  0  0  0  0  0
  147.7210  156.0730  134.0300 C   0  0  0  0  0  0  0  0  0  0  0  0
  148.2840  156.6920  134.9730 O   0  0  0  0  0  0  0  0  0  0  0  0
  147.4590  154.6600  134.1750 N   0  0  0  0  0  0  0  0  0  0  0  0
  148.2180  153.7170  133.3480 C   0  0  0  0  0  0  0  0  0  0  0  0
  146.5480  154.1390  135.2050 C   0  0  0  0  0  0  0  0  0  0  0  0
  147.2960  153.7950  136.4580 C   0  0  0  0  0  0  0  0  0  0  0  0
  148.1670  154.5800  136.9170 O   0  0  0  0  0  0  0  0  0  0  0  0
  146.9910  152.6290  137.1500 O   0  0  0  0  0  0  0  0  0  0  0  0
  145.9060  158.7810  133.2990 C   0  0  0  0  0  0  0  0  0  0  0  0
  144.7430  158.1310  133.7270 C   0  0  0  0  0  0  0  0  0  0  0  0
  142.3166  158.2418  135.6624 H   0  0  0  0  0  0  0  0  0  0  0  0
  141.5188  158.8434  134.1696 H   0  0  0  0  0  0  0  0  0  0  0  0
  142.3341  157.2428  134.1696 H   0  0  0  0  0  0  0  0  0  0  0  0
  142.8839  160.9498  134.3963 H   0  0  0  0  0  0  0  0  0  0  0  0
  145.0218  162.0563  133.6606 H   0  0  0  0  0  0  0  0  0  0  0  0
  147.6757  161.4950  132.7371 H   0  0  0  0  0  0  0  0  0  0  0  0
  149.3280  157.0940  131.4770 H   0  0  0  0  0  0  0  0  0  0  0  0
  148.7746  153.0254  133.9975 H   0  0  0  0  0  0  0  0  0  0  0  0
  147.5248  153.1459  132.7130 H   0  0  0  0  0  0  0  0  0  0  0  0
  148.9241  154.2722  132.7130 H   0  0  0  0  0  0  0  0  0  0  0  0
  145.7911  154.9031  135.4359 H   0  0  0  0  0  0  0  0  0  0  0  0
  146.0688  153.2265  134.8206 H   0  0  0  0  0  0  0  0  0  0  0  0
  144.6816  157.0328  133.7394 H   0  0  0  0  0  0  0  0  0  0  0  0
  1  2  1  0
  2  3  2  0
  3  4  1  0
  4  5  2  0
  5  6  1  0
  6  7  2  0
  7  8  1  0
  8  9  1  0
  8 10  2  0
  7 11  1  0
 11 12  1  0
 12 13  2  0
 12 14  1  0
 14 15  2  0
 14 16  1  0
 16 17  1  0
 16 18  1  0
 18 19  1  0
 19 20  2  0
 19 21  1  0
 11 22  1  0
 22 23  2  0
 23  2  1  0
 22  5  1  0
  1 24  1  0
  1 25  1  0
  1 26  1  0
  3 27  1  0
  4 28  1  0
  6 29  1  0
  9 30  1  0
 17 31  1  0
 17 32  1  0
 17 33  1  0
 18 34  1  0
 18 35  1  0
 23 36  1  0
M  CHG  2   9  -1  21  -1
M  END
>  <UniqueID>  (69) 
69

>  <SMILES>  (69) 
Cc1ccc2cc(C([NH-])=O)n(C(=O)C(=O)N(C)CC(=O)[O-])c2c1

>  <Energy>  (69) 
75.79487505379218

>  <Genealogy>  (69) 
Cc1ccc2cc(C([NH-])=O)n(C(=O)C(=O)N(C)CC(=O)[O-])c2c1 (protonated)
Cc1ccc2cc(C([NH-])=O)n(C(=O)C(=O)N(C)CC(=O)[O-])c2c1 (3D coordinates assigned)
Cc1ccc2cc(C([NH-])=O)n(C(=O)C(=O)N(C)CC(=O)[O-])c2c1 (optimized conformer: 75.79487505379218 kcal/mol)

>  <smiles>  (69) 
Cc1ccc2cc(C(N)=O)n(C(=O)C(=O)N(C)CC(=O)O)c2c1

>  <score_type>  (69) 
oracle

>  <origin>  (69) 
adg

>  <m_score__min__energy>  (69) 
-6.6100000000000003

>  <m_primary>  (69) 
energy

$$$$
70:0
     RDKit          3D

 45 46  0  0  0  0  0  0  0  0999 V2000
  137.5160  160.0990  130.8750 C   0  0  0  0  0  0  0  0  0  0  0  0
  138.7720  159.2430  130.7500 C   0  0  0  0  0  0  0  0  0  0  0  0
  139.4770  159.1250  132.0740 C   0  0  0  0  0  0  0  0  0  0  0  0
  140.1170  160.0730  132.5060 O   0  0  0  0  0  0  0  0  0  0  0  0
  139.3640  157.8690  132.8940 C   0  0  0  0  0  0  0  0  0  0  0  0
  138.7510  158.1500  134.1500 O   0  0  0  0  0  0  0  0  0  0  0  0
  139.4710  158.2550  135.3460 C   0  0  0  0  0  0  0  0  0  0  0  0
  138.9980  157.8120  136.4270 O   0  0  0  0  0  0  0  0  0  0  0  0
  140.7930  158.9500  135.3460 C   0  0  0  0  0  0  0  0  0  0  0  0
  141.8860  157.9720  135.0200 C   0  0  0  0  0  0  0  0  0  0  0  0
  141.7700  156.6170  135.4180 C   0  0  0  0  0  0  0  0  0  0  0  0
  142.8090  155.7050  135.1650 C   0  0  0  0  0  0  0  0  0  0  0  0
  143.9470  156.1750  134.5160 C   0  0  0  0  0  0  0  0  0  0  0  0
  145.1080  155.5170  134.1770 C   0  0  0  0  0  0  0  0  0  0  0  0
  145.9120  156.4780  133.5670 C   0  0  0  0  0  0  0  0  0  0  0  0
  147.2280  156.1830  132.9600 C   0  0  0  0  0  0  0  0  0  0  0  0
  147.7310  156.9820  131.8860 N   0  0  0  0  0  0  0  0  0  0  0  0
  147.9360  155.2430  133.4090 O   0  0  0  0  0  0  0  0  0  0  0  0
  145.2760  157.6830  133.5330 N   0  0  0  0  0  0  0  0  0  0  0  0
  145.7980  158.9340  133.0500 C   0  0  0  0  0  0  0  0  0  0  0  0
  145.0150  159.8180  132.6100 O   0  0  0  0  0  0  0  0  0  0  0  0
  147.1760  159.1680  133.0830 O   0  0  0  0  0  0  0  0  0  0  0  0
  147.7580  160.3940  132.6570 C   0  0  0  0  0  0  0  0  0  0  0  0
  148.6940  160.1380  131.5220 C   0  0  0  0  0  0  0  0  0  0  0  0
  148.9210  158.9590  131.1470 O   0  0  0  0  0  0  0  0  0  0  0  0
  149.2650  161.2020  130.8330 O   0  0  0  0  0  0  0  0  0  0  0  0
  144.0720  157.4820  134.1170 C   0  0  0  0  0  0  0  0  0  0  0  0
  143.0610  158.4160  134.3720 C   0  0  0  0  0  0  0  0  0  0  0  0
  137.2843  160.2569  131.9387 H   0  0  0  0  0  0  0  0  0  0  0  0
  137.6847  161.0709  130.3883 H   0  0  0  0  0  0  0  0  0  0  0  0
  136.6731  159.5866  130.3883 H   0  0  0  0  0  0  0  0  0  0  0  0
  138.4897  158.2385  130.4018 H   0  0  0  0  0  0  0  0  0  0  0  0
  139.4531  159.7222  130.0313 H   0  0  0  0  0  0  0  0  0  0  0  0
  138.7536  157.1338  132.3490 H   0  0  0  0  0  0  0  0  0  0  0  0
  140.3721  157.4659  133.0708 H   0  0  0  0  0  0  0  0  0  0  0  0
  140.7838  159.7510  134.5921 H   0  0  0  0  0  0  0  0  0  0  0  0
  140.9764  159.3785  136.3424 H   0  0  0  0  0  0  0  0  0  0  0  0
  140.8581  156.2757  135.9298 H   0  0  0  0  0  0  0  0  0  0  0  0
  142.7253  154.6516  135.4706 H   0  0  0  0  0  0  0  0  0  0  0  0
  145.3495  154.4580  134.3507 H   0  0  0  0  0  0  0  0  0  0  0  0
  147.1530  157.7370  131.4520 H   0  0  0  0  0  0  0  0  0  0  0  0
  148.6750  156.7840  131.4850 H   0  0  0  0  0  0  0  0  0  0  0  0
  146.9643  161.0812  132.3287 H   0  0  0  0  0  0  0  0  0  0  0  0
  148.3131  160.8442  133.4932 H   0  0  0  0  0  0  0  0  0  0  0  0
  143.1780  159.4688  134.0756 H   0  0  0  0  0  0  0  0  0  0  0  0
  1  2  1  0
  2  3  1  0
  3  4  2  0
  3  5  1  0
  5  6  1  0
  6  7  1  0
  7  8  2  0
  7  9  1  0
  9 10  1  0
 10 11  2  0
 11 12  1  0
 12 13  2  0
 13 14  1  0
 14 15  2  0
 15 16  1  0
 16 17  1  0
 16 18  2  0
 15 19  1  0
 19 20  1  0
 20 21  2  0
 20 22  1  0
 22 23  1  0
 23 24  1  0
 24 25  2  0
 24 26  1  0
 19 27  1  0
 27 28  2  0
 28 10  1  0
 27 13  1  0
  1 29  1  0
  1 30  1  0
  1 31  1  0
  2 32  1  0
  2 33  1  0
  5 34  1  0
  5 35  1  0
  9 36  1  0
  9 37  1  0
 11 38  1  0
 12 39  1  0
 14 40  1  0
 17 41  1  0
 17 42  1  0
 23 43  1  0
 23 44  1  0
 28 45  1  0
M  CHG  1  26  -1
M  END
>  <UniqueID>  (70) 
70

>  <SMILES>  (70) 
CCC(=O)COC(=O)Cc1ccc2cc(C(N)=O)n(C(=O)OCC(=O)[O-])c2c1

>  <Energy>  (70) 
71.45912680202285

>  <Genealogy>  (70) 
CCC(=O)COC(=O)Cc1ccc2cc(C(N)=O)n(C(=O)OCC(=O)[O-])c2c1 (protonated)
CCC(=O)COC(=O)Cc1ccc2cc(C(N)=O)n(C(=O)OCC(=O)[O-])c2c1 (3D coordinates assigned)
CCC(=O)COC(=O)Cc1ccc2cc(C(N)=O)n(C(=O)OCC(=O)[O-])c2c1 (optimized conformer: 71.45912680202285 kcal/mol)

>  <smiles>  (70) 
CCC(=O)COC(=O)Cc1ccc2cc(C(N)=O)n(C(=O)OCC(=O)O)c2c1

>  <score_type>  (70) 
oracle

>  <origin>  (70) 
adg

>  <m_score__min__energy>  (70) 
-7.29

>  <m_primary>  (70) 
energy

$$$$
71:0
     RDKit          3D

 56 58  0  0  0  0  0  0  0  0999 V2000
  141.7240  156.7750  136.2440 C   0  0  0  0  0  0  0  0  0  0  0  0
  140.8810  157.9710  136.1960 N   0  0  0  0  0  0  0  0  0  0  0  0
  140.6650  158.7520  137.4130 C   0  0  0  0  0  0  0  0  0  0  0  0
  140.0710  158.2460  135.0450 C   0  0  0  0  0  0  0  0  0  0  0  0
  138.8170  158.2620  135.1630 O   0  0  0  0  0  0  0  0  0  0  0  0
  140.6840  158.5460  133.6990 C   0  0  0  0  0  0  0  0  0  0  0  0
  142.1060  159.0530  133.6540 C   0  0  0  0  0  0  0  0  0  0  0  0
  142.3770  160.4380  133.7770 C   0  0  0  0  0  0  0  0  0  0  0  0
  143.7010  160.9120  133.7960 C   0  0  0  0  0  0  0  0  0  0  0  0
  144.7290  159.9780  133.7000 C   0  0  0  0  0  0  0  0  0  0  0  0
  146.0970  160.1550  133.7070 C   0  0  0  0  0  0  0  0  0  0  0  0
  146.6340  158.8710  133.6020 C   0  0  0  0  0  0  0  0  0  0  0  0
  148.0780  158.5610  133.6880 C   0  0  0  0  0  0  0  0  0  0  0  0
  148.5730  157.2670  133.3320 N   0  0  0  0  0  0  0  0  0  0  0  0
  148.8930  159.4470  134.0570 O   0  0  0  0  0  0  0  0  0  0  0  0
  145.6390  157.9430  133.5230 N   0  0  0  0  0  0  0  0  0  0  0  0
  145.7670  156.5220  133.3580 C   0  0  0  0  0  0  0  0  0  0  0  0
  146.5170  156.0730  132.4500 O   0  0  0  0  0  0  0  0  0  0  0  0
  145.0590  155.5950  134.2710 C   0  0  0  0  0  0  0  0  0  0  0  0
  143.8110  155.4590  134.1420 O   0  0  0  0  0  0  0  0  0  0  0  0
  145.7500  154.8440  135.2970 N   0  0  0  0  0  0  0  0  0  0  0  0
  144.9960  154.1280  136.3310 C   0  0  0  0  0  0  0  0  0  0  0  0
  147.1910  154.8090  135.3310 C   0  0  0  0  0  0  0  0  0  0  0  0
  147.8040  154.8170  136.4340 O   0  0  0  0  0  0  0  0  0  0  0  0
  147.9160  154.7550  134.1350 O   0  0  0  0  0  0  0  0  0  0  0  0
  148.3190  153.5320  133.5280 C   0  0  0  0  0  0  0  0  0  0  0  0
  149.4200  153.8010  132.5060 C   0  0  0  0  0  0  0  0  0  0  0  0
  149.5250  155.1740  132.2400 O   0  0  0  0  0  0  0  0  0  0  0  0
  144.4820  158.6350  133.5920 C   0  0  0  0  0  0  0  0  0  0  0  0
  143.1770  158.1360  133.5620 C   0  0  0  0  0  0  0  0  0  0  0  0
  139.7700  158.9030  132.5280 C   0  0  0  0  0  0  0  0  0  0  0  0
  140.3530  157.5060  132.6320 C   0  0  0  0  0  0  0  0  0  0  0  0
  141.9155  156.5033  137.2926 H   0  0  0  0  0  0  0  0  0  0  0  0
  141.2108  155.9441  135.7378 H   0  0  0  0  0  0  0  0  0  0  0  0
  142.6790  156.9790  135.7378 H   0  0  0  0  0  0  0  0  0  0  0  0
  140.8409  158.1159  138.2930 H   0  0  0  0  0  0  0  0  0  0  0  0
  141.3614  159.6033  137.4308 H   0  0  0  0  0  0  0  0  0  0  0  0
  139.6301  159.1245  137.4308 H   0  0  0  0  0  0  0  0  0  0  0  0
  141.5429  161.1504  133.8585 H   0  0  0  0  0  0  0  0  0  0  0  0
  143.9175  161.9869  133.8840 H   0  0  0  0  0  0  0  0  0  0  0  0
  146.6470  161.1049  133.7798 H   0  0  0  0  0  0  0  0  0  0  0  0
  147.9250  156.4710  133.1460 H   0  0  0  0  0  0  0  0  0  0  0  0
  149.6010  157.0940  133.2940 H   0  0  0  0  0  0  0  0  0  0  0  0
  145.3378  154.4525  137.3249 H   0  0  0  0  0  0  0  0  0  0  0  0
  143.9239  154.3485  136.2219 H   0  0  0  0  0  0  0  0  0  0  0  0
  145.1608  153.0459  136.2219 H   0  0  0  0  0  0  0  0  0  0  0  0
  148.6978  152.8477  134.3015 H   0  0  0  0  0  0  0  0  0  0  0  0
  147.4558  153.0762  133.0209 H   0  0  0  0  0  0  0  0  0  0  0  0
  150.3785  153.4359  132.9034 H   0  0  0  0  0  0  0  0  0  0  0  0
  149.1702  153.2778  131.5712 H   0  0  0  0  0  0  0  0  0  0  0  0
  148.5970  155.5250  132.2000 H   0  0  0  0  0  0  0  0  0  0  0  0
  142.9883  157.0563  133.4691 H   0  0  0  0  0  0  0  0  0  0  0  0
  138.6954  159.0642  132.6989 H   0  0  0  0  0  0  0  0  0  0  0  0
  139.7657  159.6876  131.7570 H   0  0  0  0  0  0  0  0  0  0  0  0
  139.7004  156.6553  132.8779 H   0  0  0  0  0  0  0  0  0  0  0  0
  140.9454  156.8605  131.9669 H   0  0  0  0  0  0  0  0  0  0  0  0
  1  2  1  0
  2  3  1  0
  2  4  1  0
  4  5  2  0
  4  6  1  0
  6  7  1  0
  7  8  2  0
  8  9  1  0
  9 10  2  0
 10 11  1  0
 11 12  2  0
 12 13  1  0
 13 14  1  0
 13 15  2  0
 12 16  1  0
 16 17  1  0
 17 18  2  0
 17 19  1  0
 19 20  2  0
 19 21  1  0
 21 22  1  0
 21 23  1  0
 23 24  2  0
 23 25  1  0
 25 26  1  0
 26 27  1  0
 27 28  1  0
 16 29  1  0
 29 30  2  0
  6 31  1  0
 31 32  1  0
 32  6  1  0
 30  7  1  0
 29 10  1  0
  1 33  1  0
  1 34  1  0
  1 35  1  0
  3 36  1  0
  3 37  1  0
  3 38  1  0
  8 39  1  0
  9 40  1  0
 11 41  1  0
 14 42  1  0
 14 43  1  0
 22 44  1  0
 22 45  1  0
 22 46  1  0
 26 47  1  0
 26 48  1  0
 27 49  1  0
 27 50  1  0
 28 51  1  0
 30 52  1  0
 31 53  1  0
 31 54  1  0
 32 55  1  0
 32 56  1  0
M  END
>  <UniqueID>  (71) 
71

>  <SMILES>  (71) 
CN(C)C(=O)C1(c2ccc3cc(C(N)=O)n(C(=O)C(=O)N(C)C(=O)OCCO)c3c2)CC1

>  <Energy>  (71) 
363.9225323651612

>  <Genealogy>  (71) 
CN(C)C(=O)C1(c2ccc3cc(C(N)=O)n(C(=O)C(=O)N(C)C(=O)OCCO)c3c2)CC1 (3D coordinates assigned)
CN(C)C(=O)C1(c2ccc3cc(C(N)=O)n(C(=O)C(=O)N(C)C(=O)OCCO)c3c2)CC1 (nonaromatic ring conformer: 363.9225323651612 kcal/mol)

>  <smiles>  (71) 
CN(C)C(=O)C1(c2ccc3cc(C(N)=O)n(C(=O)C(=O)N(C)C(=O)OCCO)c3c2)CC1

>  <score_type>  (71) 
oracle

>  <origin>  (71) 
adg

>  <m_score__min__energy>  (71) 
-7.6600000000000001

>  <m_primary>  (71) 
energy

$$$$
72:0
     RDKit          3D

 32 34  0  0  0  0  0  0  0  0999 V2000
  144.4890  162.9840  133.8950 C   0  0  0  0  0  0  0  0  0  0  0  0
  144.5750  161.4920  133.7770 C   0  0  0  0  0  0  0  0  0  0  0  0
  143.3930  160.7100  133.7820 C   0  0  0  0  0  0  0  0  0  0  0  0
  143.4630  159.3080  133.7190 C   0  0  0  0  0  0  0  0  0  0  0  0
  144.7230  158.7190  133.6560 C   0  0  0  0  0  0  0  0  0  0  0  0
  145.0800  157.3900  133.6210 C   0  0  0  0  0  0  0  0  0  0  0  0
  146.4740  157.3820  133.5890 C   0  0  0  0  0  0  0  0  0  0  0  0
  147.2830  156.1490  133.4940 C   0  0  0  0  0  0  0  0  0  0  0  0
  148.7000  156.2080  133.3440 N   0  0  0  0  0  0  0  0  0  0  0  0
  146.7130  155.0250  133.5140 O   0  0  0  0  0  0  0  0  0  0  0  0
  146.9580  158.6570  133.6050 N   0  0  0  0  0  0  0  0  0  0  0  0
  148.3300  159.0740  133.6500 C   0  0  0  0  0  0  0  0  0  0  0  0
  148.9800  158.9760  134.7250 O   0  0  0  0  0  0  0  0  0  0  0  0
  148.9850  159.6140  132.4520 C   0  0  0  0  0  0  0  0  0  0  0  0
  149.8950  158.9450  131.7190 N   0  0  0  0  0  0  0  0  0  0  0  0
  150.2450  159.7560  130.7330 N   0  0  0  0  0  0  0  0  0  0  0  0
  149.5380  160.8880  130.9070 C   0  0  0  0  0  0  0  0  0  0  0  0
  149.6070  162.0670  129.9990 C   0  0  0  0  0  0  0  0  0  0  0  0
  148.7560  160.8070  131.9570 O   0  0  0  0  0  0  0  0  0  0  0  0
  145.8750  159.4630  133.6500 C   0  0  0  0  0  0  0  0  0  0  0  0
  145.8360  160.8590  133.7320 C   0  0  0  0  0  0  0  0  0  0  0  0
  144.4727  163.2674  134.9577 H   0  0  0  0  0  0  0  0  0  0  0  0
  145.3623  163.4414  133.4069 H   0  0  0  0  0  0  0  0  0  0  0  0
  143.5690  163.3380  133.4069 H   0  0  0  0  0  0  0  0  0  0  0  0
  142.4121  161.2050  133.8357 H   0  0  0  0  0  0  0  0  0  0  0  0
  142.5500  158.6944  133.7194 H   0  0  0  0  0  0  0  0  0  0  0  0
  144.4081  156.5191  133.6188 H   0  0  0  0  0  0  0  0  0  0  0  0
  149.2400  157.0390  133.6730 H   0  0  0  0  0  0  0  0  0  0  0  0
  149.6609  162.9882  130.5977 H   0  0  0  0  0  0  0  0  0  0  0  0
  150.5021  161.9892  129.3644 H   0  0  0  0  0  0  0  0  0  0  0  0
  148.7089  162.0941  129.3644 H   0  0  0  0  0  0  0  0  0  0  0  0
  146.7643  161.4484  133.7607 H   0  0  0  0  0  0  0  0  0  0  0  0
  1  2  1  0
  2  3  2  0
  3  4  1  0
  4  5  2  0
  5  6  1  0
  6  7  2  0
  7  8  1  0
  8  9  1  0
  8 10  2  0
  7 11  1  0
 11 12  1  0
 12 13  2  0
 12 14  1  0
 14 15  2  0
 15 16  1  0
 16 17  2  0
 17 18  1  0
 17 19  1  0
 11 20  1  0
 20 21  2  0
 21  2  1  0
 20  5  1  0
 19 14  1  0
  1 22  1  0
  1 23  1  0
  1 24  1  0
  3 25  1  0
  4 26  1  0
  6 27  1  0
  9 28  1  0
 18 29  1  0
 18 30  1  0
 18 31  1  0
 21 32  1  0
M  CHG  1   9  -1
M  END
>  <UniqueID>  (72) 
72

>  <SMILES>  (72) 
Cc1ccc2cc(C([NH-])=O)n(C(=O)c3nnc(C)o3)c2c1

>  <Energy>  (72) 
105.32234529407019

>  <Genealogy>  (72) 
Cc1ccc2cc(C([NH-])=O)n(C(=O)c3nnc(C)o3)c2c1 (protonated)
Cc1ccc2cc(C([NH-])=O)n(C(=O)c3nnc(C)o3)c2c1 (3D coordinates assigned)
Cc1ccc2cc(C([NH-])=O)n(C(=O)c3nnc(C)o3)c2c1 (optimized conformer: 105.32234529407019 kcal/mol)

>  <smiles>  (72) 
Cc1ccc2cc(C(N)=O)n(C(=O)c3nnc(C)o3)c2c1

>  <score_type>  (72) 
oracle

>  <origin>  (72) 
adg

>  <m_score__min__energy>  (72) 
-6.9000000000000004

>  <m_primary>  (72) 
energy

$$$$
73:0
     RDKit          3D

 42 44  0  0  0  0  0  0  0  0999 V2000
  150.1200  150.8200  133.3060 C   0  0  0  0  0  0  0  0  0  0  0  0
  149.0190  150.6760  132.2440 C   0  0  0  0  0  0  0  0  0  0  0  0
  148.4680  149.2420  132.2550 C   0  0  0  0  0  0  0  0  0  0  0  0
  149.5910  151.0010  130.8550 C   0  0  0  0  0  0  0  0  0  0  0  0
  147.6790  151.8170  132.5970 S   0  0  0  0  0  0  0  0  0  0  0  0
  146.3650  151.6310  131.5640 O   0  0  0  0  0  0  0  0  0  0  0  0
  148.2020  153.4640  132.6400 N   0  0  0  0  0  0  0  0  0  0  0  0
  147.4240  154.5370  132.8440 C   0  0  0  0  0  0  0  0  0  0  0  0
  148.2680  155.6310  132.8000 C   0  0  0  0  0  0  0  0  0  0  0  0
  147.9130  157.0600  132.9720 C   0  0  0  0  0  0  0  0  0  0  0  0
  148.9100  158.0710  132.9260 C   0  0  0  0  0  0  0  0  0  0  0  0
  148.5710  159.4220  133.1010 C   0  0  0  0  0  0  0  0  0  0  0  0
  147.2330  159.7380  133.3120 C   0  0  0  0  0  0  0  0  0  0  0  0
  146.6370  160.9580  133.5370 C   0  0  0  0  0  0  0  0  0  0  0  0
  145.2810  160.6830  133.6930 C   0  0  0  0  0  0  0  0  0  0  0  0
  144.2560  161.7330  133.8720 C   0  0  0  0  0  0  0  0  0  0  0  0
  142.8700  161.4390  133.7250 N   0  0  0  0  0  0  0  0  0  0  0  0
  144.6120  162.9190  134.1080 O   0  0  0  0  0  0  0  0  0  0  0  0
  145.0470  159.3440  133.5780 N   0  0  0  0  0  0  0  0  0  0  0  0
  143.8040  158.6470  133.7580 C   0  0  0  0  0  0  0  0  0  0  0  0
  143.1940  158.7070  134.8580 O   0  0  0  0  0  0  0  0  0  0  0  0
  143.2750  157.8790  132.7280 O   0  0  0  0  0  0  0  0  0  0  0  0
  146.2530  158.7810  133.3420 C   0  0  0  0  0  0  0  0  0  0  0  0
  146.5640  157.4240  133.1900 C   0  0  0  0  0  0  0  0  0  0  0  0
  149.5220  155.1820  132.5680 N   0  0  0  0  0  0  0  0  0  0  0  0
  149.4500  153.8620  132.4750 N   0  0  0  0  0  0  0  0  0  0  0  0
  149.6720  150.7614  134.3089 H   0  0  0  0  0  0  0  0  0  0  0  0
  150.8546  150.0103  133.1847 H   0  0  0  0  0  0  0  0  0  0  0  0
  150.6216  151.7914  133.1847 H   0  0  0  0  0  0  0  0  0  0  0  0
  148.3392  148.9067  133.2947 H   0  0  0  0  0  0  0  0  0  0  0  0
  147.4968  149.2184  131.7391 H   0  0  0  0  0  0  0  0  0  0  0  0
  149.1735  148.5741  131.7391 H   0  0  0  0  0  0  0  0  0  0  0  0
  150.5424  151.5416  130.9676 H   0  0  0  0  0  0  0  0  0  0  0  0
  149.7637  150.0661  130.3017 H   0  0  0  0  0  0  0  0  0  0  0  0
  148.8763  151.6279  130.3017 H   0  0  0  0  0  0  0  0  0  0  0  0
  146.5630  152.2160  130.7910 H   0  0  0  0  0  0  0  0  0  0  0  0
  146.3369  154.5450  133.0119 H   0  0  0  0  0  0  0  0  0  0  0  0
  149.9596  157.7920  132.7513 H   0  0  0  0  0  0  0  0  0  0  0  0
  149.3407  160.2074  133.0721 H   0  0  0  0  0  0  0  0  0  0  0  0
  147.1277  161.9414  133.5837 H   0  0  0  0  0  0  0  0  0  0  0  0
  142.4330  160.6360  134.2310 H   0  0  0  0  0  0  0  0  0  0  0  0
  145.7761  156.6580  133.2391 H   0  0  0  0  0  0  0  0  0  0  0  0
  1  2  1  0
  2  3  1  0
  2  4  1  0
  2  5  1  0
  5  6  1  6
  5  7  1  0
  7  8  1  0
  8  9  2  0
  9 10  1  0
 10 11  2  0
 11 12  1  0
 12 13  2  0
 13 14  1  0
 14 15  2  0
 15 16  1  0
 16 17  1  0
 16 18  2  0
 15 19  1  0
 19 20  1  0
 20 21  2  0
 20 22  1  0
 19 23  1  0
 23 24  2  0
  9 25  1  0
 25 26  2  0
 26  7  1  0
 24 10  1  0
 23 13  1  0
  1 27  1  0
  1 28  1  0
  1 29  1  0
  3 30  1  0
  3 31  1  0
  3 32  1  0
  4 33  1  0
  4 34  1  0
  4 35  1  0
  6 36  1  0
  8 37  1  0
 11 38  1  0
 12 39  1  0
 14 40  1  0
 17 41  1  0
 24 42  1  0
M  CHG  3   5   1  17  -1  22  -1
M  END
>  <UniqueID>  (73) 
73

>  <SMILES>  (73) 
CC(C)(C)[S@+](O)n1cc(-c2ccc3cc(C([NH-])=O)n(C(=O)[O-])c3c2)nn1

>  <Energy>  (73) 
110.41988305932153

>  <Genealogy>  (73) 
CC(C)(C)[S+](O)n1cc(-c2ccc3cc(C([NH-])=O)n(C(=O)[O-])c3c2)nn1 (protonated)
CC(C)(C)[S@+](O)n1cc(-c2ccc3cc(C([NH-])=O)n(C(=O)[O-])c3c2)nn1 (chirality)
CC(C)(C)[S@+](O)n1cc(-c2ccc3cc(C([NH-])=O)n(C(=O)[O-])c3c2)nn1 (3D coordinates assigned)
CC(C)(C)[S@+](O)n1cc(-c2ccc3cc(C([NH-])=O)n(C(=O)[O-])c3c2)nn1 (optimized conformer: 110.41988305932153 kcal/mol)

>  <smiles>  (73) 
CC(C)(C)[S+]([O-])n1cc(-c2ccc3cc(C(N)=O)n(C(=O)O)c3c2)nn1

>  <score_type>  (73) 
oracle

>  <origin>  (73) 
adg

>  <m_score__min__energy>  (73) 
-8.3800000000000008

>  <m_primary>  (73) 
energy

$$$$
74:0
     RDKit          3D

 40 41  0  0  0  0  0  0  0  0999 V2000
  141.0480  158.9550  136.7470 C   0  0  0  0  0  0  0  0  0  0  0  0
  141.3770  158.7150  135.2810 C   0  0  1  0  0  0  0  0  0  0  0  0
  140.6520  159.6560  134.4910 O   0  0  0  0  0  0  0  0  0  0  0  0
  140.2090  159.4000  133.1920 C   0  0  0  0  0  0  0  0  0  0  0  0
  140.9970  159.4980  132.2110 O   0  0  0  0  0  0  0  0  0  0  0  0
  138.8750  159.0260  132.9940 O   0  0  0  0  0  0  0  0  0  0  0  0
  138.3580  158.6100  131.7320 C   0  0  0  0  0  0  0  0  0  0  0  0
  137.7630  159.7720  131.0040 C   0  0  0  0  0  0  0  0  0  0  0  0
  136.5320  159.7890  130.7400 O   0  0  0  0  0  0  0  0  0  0  0  0
  138.5590  160.8520  130.6440 O   0  0  0  0  0  0  0  0  0  0  0  0
  142.7800  158.9040  135.0900 O   0  0  0  0  0  0  0  0  0  0  0  0
  143.4810  158.4990  133.9490 C   0  0  0  0  0  0  0  0  0  0  0  0
  143.0000  157.6240  133.1780 O   0  0  0  0  0  0  0  0  0  0  0  0
  144.7810  159.0500  133.6820 N   0  0  0  0  0  0  0  0  0  0  0  0
  145.1460  160.3630  133.6930 C   0  0  0  0  0  0  0  0  0  0  0  0
  144.2330  161.5170  133.8120 C   0  0  0  0  0  0  0  0  0  0  0  0
  142.8280  161.3600  133.6400 N   0  0  0  0  0  0  0  0  0  0  0  0
  144.7040  162.6680  134.0190 O   0  0  0  0  0  0  0  0  0  0  0  0
  146.5190  160.4900  133.4900 C   0  0  0  0  0  0  0  0  0  0  0  0
  146.9880  159.2050  133.3460 C   0  0  0  0  0  0  0  0  0  0  0  0
  148.2810  158.7450  133.1240 C   0  0  0  0  0  0  0  0  0  0  0  0
  148.4810  157.3560  133.0400 C   0  0  0  0  0  0  0  0  0  0  0  0
  147.3980  156.4560  133.2090 C   0  0  0  0  0  0  0  0  0  0  0  0
  147.6180  154.9690  133.0880 C   0  0  0  0  0  0  0  0  0  0  0  0
  148.7000  154.7030  132.2660 F   0  0  0  0  0  0  0  0  0  0  0  0
  147.8660  154.4420  134.3410 F   0  0  0  0  0  0  0  0  0  0  0  0
  146.5030  154.3500  132.5510 F   0  0  0  0  0  0  0  0  0  0  0  0
  146.0930  156.9660  133.4090 C   0  0  0  0  0  0  0  0  0  0  0  0
  145.9200  158.3530  133.4680 C   0  0  0  0  0  0  0  0  0  0  0  0
  141.7760  158.4239  137.3779 H   0  0  0  0  0  0  0  0  0  0  0  0
  141.0944  160.0329  136.9615 H   0  0  0  0  0  0  0  0  0  0  0  0
  140.0358  158.5817  136.9615 H   0  0  0  0  0  0  0  0  0  0  0  0
  141.0996  157.6929  134.9839 H   0  0  0  0  0  0  0  0  0  0  0  0
  139.1733  158.1835  131.1291 H   0  0  0  0  0  0  0  0  0  0  0  0
  137.5758  157.8547  131.8983 H   0  0  0  0  0  0  0  0  0  0  0  0
  142.3950  160.4110  133.5820 H   0  0  0  0  0  0  0  0  0  0  0  0
  147.1038  161.4209  133.4528 H   0  0  0  0  0  0  0  0  0  0  0  0
  149.1217  159.4463  133.0173 H   0  0  0  0  0  0  0  0  0  0  0  0
  149.4888  156.9628  132.8409 H   0  0  0  0  0  0  0  0  0  0  0  0
  145.2341  156.2871  133.5156 H   0  0  0  0  0  0  0  0  0  0  0  0
  1  2  1  0
  2  3  1  0
  3  4  1  0
  4  5  2  0
  4  6  1  0
  6  7  1  0
  7  8  1  0
  8  9  2  0
  8 10  1  0
  2 11  1  0
 11 12  1  0
 12 13  2  0
 12 14  1  0
 14 15  1  0
 15 16  1  0
 16 17  1  0
 16 18  2  0
 15 19  2  0
 19 20  1  0
 20 21  2  0
 21 22  1  0
 22 23  2  0
 23 24  1  0
 24 25  1  0
 24 26  1  0
 24 27  1  0
 23 28  1  0
 28 29  2  0
 29 14  1  0
 29 20  1  0
  1 30  1  0
  1 31  1  0
  1 32  1  0
  2 33  1  6
  7 34  1  0
  7 35  1  0
 17 36  1  0
 19 37  1  0
 21 38  1  0
 22 39  1  0
 28 40  1  0
M  CHG  2  10  -1  17  -1
M  END
>  <UniqueID>  (74) 
74

>  <SMILES>  (74) 
C[C@@H](OC(=O)OCC(=O)[O-])OC(=O)n1c(C([NH-])=O)cc2ccc(C(F)(F)F)cc21

>  <Energy>  (74) 
73.33909207364471

>  <Genealogy>  (74) 
C[C@@H](OC(=O)OCC(=O)[O-])OC(=O)n1c(C([NH-])=O)cc2ccc(C(F)(F)F)cc21 (protonated)
C[C@@H](OC(=O)OCC(=O)[O-])OC(=O)n1c(C([NH-])=O)cc2ccc(C(F)(F)F)cc21 (3D coordinates assigned)
C[C@@H](OC(=O)OCC(=O)[O-])OC(=O)n1c(C([NH-])=O)cc2ccc(C(F)(F)F)cc21 (optimized conformer: 73.33909207364471 kcal/mol)

>  <smiles>  (74) 
C[C@@H](OC(=O)OCC(=O)O)OC(=O)n1c(C(N)=O)cc2ccc(C(F)(F)F)cc21

>  <score_type>  (74) 
oracle

>  <origin>  (74) 
adg

>  <m_score__min__energy>  (74) 
-6.0099999999999998

>  <m_primary>  (74) 
energy

$$$$
75:0
     RDKit          3D

 33 35  0  0  0  0  0  0  0  0999 V2000
  139.3340  146.7480  130.3000 N   0  0  0  0  0  0  0  0  0  0  0  0
  139.6140  147.7680  130.7710 C   0  0  0  0  0  0  0  0  0  0  0  0
  139.9670  149.0390  131.3400 C   0  0  0  0  0  0  0  0  0  0  0  0
  139.0750  150.0500  131.6790 C   0  0  0  0  0  0  0  0  0  0  0  0
  139.6650  151.1930  132.1270 N   0  0  0  0  0  0  0  0  0  0  0  0
  141.0130  151.0760  132.1730 C   0  0  0  0  0  0  0  0  0  0  0  0
  141.8940  152.1600  132.5080 N   0  0  0  0  0  0  0  0  0  0  0  0
  141.8030  152.8920  133.7360 C   0  0  0  0  0  0  0  0  0  0  0  0
  142.0820  152.2640  134.9790 C   0  0  0  0  0  0  0  0  0  0  0  0
  142.0610  153.0020  136.1730 C   0  0  0  0  0  0  0  0  0  0  0  0
  141.7740  154.3650  136.0950 C   0  0  0  0  0  0  0  0  0  0  0  0
  141.6710  155.3070  137.0970 C   0  0  0  0  0  0  0  0  0  0  0  0
  141.2940  156.4880  136.4550 C   0  0  0  0  0  0  0  0  0  0  0  0
  141.0480  157.7780  137.1430 C   0  0  0  0  0  0  0  0  0  0  0  0
  140.0220  158.6680  136.7050 N   0  0  0  0  0  0  0  0  0  0  0  0
  141.7460  158.1010  138.1400 O   0  0  0  0  0  0  0  0  0  0  0  0
  141.2060  156.2870  135.1100 N   0  0  0  0  0  0  0  0  0  0  0  0
  140.7500  157.2170  134.1100 C   0  0  0  0  0  0  0  0  0  0  0  0
  141.5380  158.0960  133.6690 O   0  0  0  0  0  0  0  0  0  0  0  0
  139.3910  157.1280  133.5660 C   0  0  0  0  0  0  0  0  0  0  0  0
  138.4830  157.8830  134.0000 O   0  0  0  0  0  0  0  0  0  0  0  0
  139.0890  156.1810  132.5940 O   0  0  0  0  0  0  0  0  0  0  0  0
  141.4980  154.9830  134.9050 C   0  0  0  0  0  0  0  0  0  0  0  0
  141.5100  154.2720  133.7000 C   0  0  0  0  0  0  0  0  0  0  0  0
  141.5400  149.5870  131.5860 S   0  0  0  0  0  0  0  0  0  0  0  0
  137.9843  149.9364  131.5927 H   0  0  0  0  0  0  0  0  0  0  0  0
  142.6410  152.4100  131.8240 H   0  0  0  0  0  0  0  0  0  0  0  0
  142.3167  151.1897  135.0063 H   0  0  0  0  0  0  0  0  0  0  0  0
  142.2647  152.5202  137.1407 H   0  0  0  0  0  0  0  0  0  0  0  0
  141.8481  155.1593  138.1726 H   0  0  0  0  0  0  0  0  0  0  0  0
  139.8380  159.5490  137.2330 H   0  0  0  0  0  0  0  0  0  0  0  0
  139.4320  158.4660  135.8700 H   0  0  0  0  0  0  0  0  0  0  0  0
  141.2960  154.7771  132.7465 H   0  0  0  0  0  0  0  0  0  0  0  0
  1  2  3  0
  2  3  1  0
  3  4  2  0
  4  5  1  0
  5  6  2  0
  6  7  1  0
  7  8  1  0
  8  9  2  0
  9 10  1  0
 10 11  2  0
 11 12  1  0
 12 13  2  0
 13 14  1  0
 14 15  1  0
 14 16  2  0
 13 17  1  0
 17 18  1  0
 18 19  2  0
 18 20  1  0
 20 21  2  0
 20 22  1  0
 17 23  1  0
 23 24  2  0
  6 25  1  0
 25  3  1  0
 24  8  1  0
 23 11  1  0
  4 26  1  0
  7 27  1  0
  9 28  1  0
 10 29  1  0
 12 30  1  0
 15 31  1  0
 15 32  1  0
 24 33  1  0
M  CHG  1  22  -1
M  END
>  <UniqueID>  (75) 
75

>  <SMILES>  (75) 
N#Cc1cnc(Nc2ccc3cc(C(N)=O)n(C(=O)C(=O)[O-])c3c2)s1

>  <Energy>  (75) 
109.55146115608439

>  <Genealogy>  (75) 
N#Cc1cnc(Nc2ccc3cc(C(N)=O)n(C(=O)C(=O)[O-])c3c2)s1 (protonated)
N#Cc1cnc(Nc2ccc3cc(C(N)=O)n(C(=O)C(=O)[O-])c3c2)s1 (3D coordinates assigned)
N#Cc1cnc(Nc2ccc3cc(C(N)=O)n(C(=O)C(=O)[O-])c3c2)s1 (optimized conformer: 109.55146115608439 kcal/mol)

>  <smiles>  (75) 
N#Cc1cnc(Nc2ccc3cc(C(N)=O)n(C(=O)C(=O)O)c3c2)s1

>  <score_type>  (75) 
oracle

>  <origin>  (75) 
adg

>  <m_score__min__energy>  (75) 
-7.8200000000000003

>  <m_primary>  (75) 
energy

$$$$
76:0
     RDKit          3D

 37 38  0  0  0  0  0  0  0  0999 V2000
  148.8940  160.8560  130.8420 C   0  0  0  0  0  0  0  0  0  0  0  0
  149.2380  159.3710  130.8940 C   0  0  1  0  0  0  0  0  0  0  0  0
  150.6000  159.2180  131.0950 F   0  0  0  0  0  0  0  0  0  0  0  0
  148.4700  158.6850  131.9950 C   0  0  0  0  0  0  0  0  0  0  0  0
  147.4920  159.3950  132.7370 C   0  0  0  0  0  0  0  0  0  0  0  0
  146.7400  158.7490  133.7330 C   0  0  0  0  0  0  0  0  0  0  0  0
  146.9830  157.3990  133.9630 C   0  0  0  0  0  0  0  0  0  0  0  0
  146.3790  156.5280  134.8390 C   0  0  0  0  0  0  0  0  0  0  0  0
  147.0010  155.3000  134.6280 C   0  0  0  0  0  0  0  0  0  0  0  0
  146.7100  154.0900  135.4250 C   0  0  0  0  0  0  0  0  0  0  0  0
  147.7800  153.3530  136.0120 N   0  0  0  0  0  0  0  0  0  0  0  0
  145.5280  153.6780  135.5600 O   0  0  0  0  0  0  0  0  0  0  0  0
  147.9480  155.4040  133.6530 N   0  0  0  0  0  0  0  0  0  0  0  0
  148.7430  154.3510  133.0870 C   0  0  0  0  0  0  0  0  0  0  0  0
  149.6220  154.6240  132.2250 O   0  0  0  0  0  0  0  0  0  0  0  0
  148.5160  153.0270  133.4870 O   0  0  0  0  0  0  0  0  0  0  0  0
  148.2220  151.9610  132.6250 C   0  0  0  0  0  0  0  0  0  0  0  0
  147.1850  151.9780  131.9070 O   0  0  0  0  0  0  0  0  0  0  0  0
  149.1130  150.7450  132.6190 C   0  0  0  0  0  0  0  0  0  0  0  0
  148.1170  149.2610  132.6390 Cl  0  0  0  0  0  0  0  0  0  0  0  0
  150.0940  150.7000  131.1220 Cl  0  0  0  0  0  0  0  0  0  0  0  0
  150.0320  150.7490  133.8500 C   0  0  0  0  0  0  0  0  0  0  0  0
  149.2940  150.9150  135.0330 O   0  0  0  0  0  0  0  0  0  0  0  0
  147.9270  156.6970  133.2570 C   0  0  0  0  0  0  0  0  0  0  0  0
  148.6780  157.3100  132.2470 C   0  0  0  0  0  0  0  0  0  0  0  0
  148.8033  161.2474  131.8660 H   0  0  0  0  0  0  0  0  0  0  0  0
  149.6903  161.3985  130.3112 H   0  0  0  0  0  0  0  0  0  0  0  0
  147.9403  160.9931  130.3112 H   0  0  0  0  0  0  0  0  0  0  0  0
  148.9558  158.9070  129.9374 H   0  0  0  0  0  0  0  0  0  0  0  0
  147.3204  160.4618  132.5309 H   0  0  0  0  0  0  0  0  0  0  0  0
  145.9817  159.2948  134.3135 H   0  0  0  0  0  0  0  0  0  0  0  0
  145.5748  156.7535  135.5548 H   0  0  0  0  0  0  0  0  0  0  0  0
  148.4910  152.8750  135.4160 H   0  0  0  0  0  0  0  0  0  0  0  0
  150.5742  149.7930  133.8963 H   0  0  0  0  0  0  0  0  0  0  0  0
  150.7357  151.5894  133.7571 H   0  0  0  0  0  0  0  0  0  0  0  0
  148.6920  151.6910  134.8920 H   0  0  0  0  0  0  0  0  0  0  0  0
  149.4123  156.7353  131.6635 H   0  0  0  0  0  0  0  0  0  0  0  0
  1  2  1  0
  2  3  1  0
  2  4  1  0
  4  5  2  0
  5  6  1  0
  6  7  2  0
  7  8  1  0
  8  9  2  0
  9 10  1  0
 10 11  1  0
 10 12  2  0
  9 13  1  0
 13 14  1  0
 14 15  2  0
 14 16  1  0
 16 17  1  0
 17 18  2  0
 17 19  1  0
 19 20  1  0
 19 21  1  0
 19 22  1  0
 22 23  1  0
 13 24  1  0
 24 25  2  0
 25  4  1  0
 24  7  1  0
  1 26  1  0
  1 27  1  0
  1 28  1  0
  2 29  1  6
  5 30  1  0
  6 31  1  0
  8 32  1  0
 11 33  1  0
 22 34  1  0
 22 35  1  0
 23 36  1  0
 25 37  1  0
M  CHG  1  11  -1
M  END
>  <UniqueID>  (76) 
76

>  <SMILES>  (76) 
C[C@@H](F)c1ccc2cc(C([NH-])=O)n(C(=O)OC(=O)C(Cl)(Cl)CO)c2c1

>  <Energy>  (76) 
72.48539314225502

>  <Genealogy>  (76) 
CC(F)c1ccc2cc(C([NH-])=O)n(C(=O)OC(=O)C(Cl)(Cl)CO)c2c1 (protonated)
C[C@@H](F)c1ccc2cc(C([NH-])=O)n(C(=O)OC(=O)C(Cl)(Cl)CO)c2c1 (chirality)
C[C@@H](F)c1ccc2cc(C([NH-])=O)n(C(=O)OC(=O)C(Cl)(Cl)CO)c2c1 (3D coordinates assigned)
C[C@@H](F)c1ccc2cc(C([NH-])=O)n(C(=O)OC(=O)C(Cl)(Cl)CO)c2c1 (optimized conformer: 72.48539314225502 kcal/mol)

>  <smiles>  (76) 
CC(F)c1ccc2cc(C(N)=O)n(C(=O)OC(=O)C(Cl)(Cl)CO)c2c1

>  <score_type>  (76) 
oracle

>  <origin>  (76) 
adg

>  <m_score__min__energy>  (76) 
-6.96

>  <m_primary>  (76) 
energy

$$$$
77:0
     RDKit          3D

 52 53  0  0  0  0  0  0  0  0999 V2000
  141.1790  154.5580  133.3550 C   0  0  0  0  0  0  0  0  0  0  0  0
  142.0010  153.3460  133.4490 N   0  0  0  0  0  0  0  0  0  0  0  0
  143.4670  153.4400  133.4050 C   0  0  0  0  0  0  0  0  0  0  0  0
  143.9090  154.6330  132.5590 C   0  0  0  0  0  0  0  0  0  0  0  0
  144.4620  155.6360  133.4030 O   0  0  0  0  0  0  0  0  0  0  0  0
  145.5790  156.3980  133.0480 C   0  0  0  0  0  0  0  0  0  0  0  0
  146.6070  155.8440  132.5710 O   0  0  0  0  0  0  0  0  0  0  0  0
  145.5500  157.8210  133.2260 N   0  0  0  0  0  0  0  0  0  0  0  0
  146.5750  158.7040  133.0710 C   0  0  0  0  0  0  0  0  0  0  0  0
  147.9870  158.3560  132.8170 C   0  0  0  0  0  0  0  0  0  0  0  0
  148.3670  157.5490  131.7020 N   0  0  0  0  0  0  0  0  0  0  0  0
  148.8700  158.7380  133.6280 O   0  0  0  0  0  0  0  0  0  0  0  0
  146.1250  160.0120  133.2390 C   0  0  0  0  0  0  0  0  0  0  0  0
  144.7820  159.9000  133.5150 C   0  0  0  0  0  0  0  0  0  0  0  0
  143.8340  160.8870  133.7680 C   0  0  0  0  0  0  0  0  0  0  0  0
  142.5050  160.4840  133.9890 C   0  0  0  0  0  0  0  0  0  0  0  0
  142.1410  159.1120  133.9250 C   0  0  0  0  0  0  0  0  0  0  0  0
  140.7210  158.6820  134.1930 C   0  0  0  0  0  0  0  0  0  0  0  0
  140.2610  159.2130  135.3860 F   0  0  0  0  0  0  0  0  0  0  0  0
  140.6730  157.3030  134.2660 F   0  0  0  0  0  0  0  0  0  0  0  0
  139.8850  159.1100  133.1740 F   0  0  0  0  0  0  0  0  0  0  0  0
  143.1390  158.1390  133.6860 C   0  0  0  0  0  0  0  0  0  0  0  0
  144.4590  158.5680  133.4970 C   0  0  0  0  0  0  0  0  0  0  0  0
  141.3630  152.0670  133.6250 C   0  0  0  0  0  0  0  0  0  0  0  0
  141.3540  151.5230  134.7610 O   0  0  0  0  0  0  0  0  0  0  0  0
  140.7580  151.4370  132.5250 O   0  0  0  0  0  0  0  0  0  0  0  0
  140.8060  150.0380  132.2120 C   0  0  0  0  0  0  0  0  0  0  0  0
  140.2200  149.2040  133.3680 C   0  0  0  0  0  0  0  0  0  0  0  0
  139.9410  149.8250  130.9600 C   0  0  0  0  0  0  0  0  0  0  0  0
  142.2500  149.5990  131.9020 C   0  0  0  0  0  0  0  0  0  0  0  0
  140.9363  154.9158  134.3665 H   0  0  0  0  0  0  0  0  0  0  0  0
  141.7356  155.3375  132.8140 H   0  0  0  0  0  0  0  0  0  0  0  0
  140.2489  154.3292  132.8140 H   0  0  0  0  0  0  0  0  0  0  0  0
  143.8515  153.5615  134.4284 H   0  0  0  0  0  0  0  0  0  0  0  0
  143.8659  152.5200  132.9528 H   0  0  0  0  0  0  0  0  0  0  0  0
  144.6678  154.3061  131.8328 H   0  0  0  0  0  0  0  0  0  0  0  0
  143.0404  155.0436  132.0233 H   0  0  0  0  0  0  0  0  0  0  0  0
  149.3780  157.3610  131.5120 H   0  0  0  0  0  0  0  0  0  0  0  0
  147.6530  157.0620  131.1170 H   0  0  0  0  0  0  0  0  0  0  0  0
  146.7170  160.9363  133.1665 H   0  0  0  0  0  0  0  0  0  0  0  0
  144.1157  161.9500  133.7943 H   0  0  0  0  0  0  0  0  0  0  0  0
  141.7381  161.2398  134.2141 H   0  0  0  0  0  0  0  0  0  0  0  0
  142.8845  157.0695  133.6494 H   0  0  0  0  0  0  0  0  0  0  0  0
  140.5278  149.6421  134.3289 H   0  0  0  0  0  0  0  0  0  0  0  0
  139.1221  149.2037  133.3001 H   0  0  0  0  0  0  0  0  0  0  0  0
  140.5919  148.1710  133.3001 H   0  0  0  0  0  0  0  0  0  0  0  0
  138.9141  149.5721  131.2625 H   0  0  0  0  0  0  0  0  0  0  0  0
  139.9301  150.7473  130.3606 H   0  0  0  0  0  0  0  0  0  0  0  0
  140.3596  149.0031  130.3606 H   0  0  0  0  0  0  0  0  0  0  0  0
  142.7933  149.4338  132.8441 H   0  0  0  0  0  0  0  0  0  0  0  0
  142.2326  148.6656  131.3203 H   0  0  0  0  0  0  0  0  0  0  0  0
  142.7551  150.3842  131.3203 H   0  0  0  0  0  0  0  0  0  0  0  0
  1  2  1  0
  2  3  1  0
  3  4  1  0
  4  5  1  0
  5  6  1  0
  6  7  2  0
  6  8  1  0
  8  9  1  0
  9 10  1  0
 10 11  1  0
 10 12  2  0
  9 13  2  0
 13 14  1  0
 14 15  2  0
 15 16  1  0
 16 17  2  0
 17 18  1  0
 18 19  1  0
 18 20  1  0
 18 21  1  0
 17 22  1  0
 22 23  2  0
  2 24  1  0
 24 25  2  0
 24 26  1  0
 26 27  1  0
 27 28  1  0
 27 29  1  0
 27 30  1  0
 23  8  1  0
 23 14  1  0
  1 31  1  0
  1 32  1  0
  1 33  1  0
  3 34  1  0
  3 35  1  0
  4 36  1  0
  4 37  1  0
 11 38  1  0
 11 39  1  0
 13 40  1  0
 15 41  1  0
 16 42  1  0
 22 43  1  0
 28 44  1  0
 28 45  1  0
 28 46  1  0
 29 47  1  0
 29 48  1  0
 29 49  1  0
 30 50  1  0
 30 51  1  0
 30 52  1  0
M  END
>  <UniqueID>  (77) 
77

>  <SMILES>  (77) 
CN(CCOC(=O)n1c(C(N)=O)cc2ccc(C(F)(F)F)cc21)C(=O)OC(C)(C)C

>  <Energy>  (77) 
77.80403884350571

>  <Genealogy>  (77) 
CN(CCOC(=O)n1c(C(N)=O)cc2ccc(C(F)(F)F)cc21)C(=O)OC(C)(C)C (3D coordinates assigned)
CN(CCOC(=O)n1c(C(N)=O)cc2ccc(C(F)(F)F)cc21)C(=O)OC(C)(C)C (optimized conformer: 77.80403884350571 kcal/mol)

>  <smiles>  (77) 
CN(CCOC(=O)n1c(C(N)=O)cc2ccc(C(F)(F)F)cc21)C(=O)OC(C)(C)C

>  <score_type>  (77) 
oracle

>  <origin>  (77) 
adg

>  <m_score__min__energy>  (77) 
-7.2199999999999998

>  <m_primary>  (77) 
energy

$$$$
78:0
     RDKit          3D

 38 39  0  0  0  0  0  0  0  0999 V2000
  141.5030  159.6210  132.7950 N   0  0  0  0  0  0  0  0  0  0  0  0
  142.5150  159.9530  133.7480 C   0  0  0  0  0  0  0  0  0  0  0  0
  142.1790  160.4420  134.8600 O   0  0  0  0  0  0  0  0  0  0  0  0
  143.9400  159.6680  133.4830 C   0  0  0  0  0  0  0  0  0  0  0  0
  144.9230  160.6520  133.4720 C   0  0  0  0  0  0  0  0  0  0  0  0
  146.1100  159.9800  133.2880 C   0  0  0  0  0  0  0  0  0  0  0  0
  147.4110  160.4700  133.2000 C   0  0  0  0  0  0  0  0  0  0  0  0
  148.4510  159.5500  132.9830 C   0  0  0  0  0  0  0  0  0  0  0  0
  148.1710  158.1700  132.8490 C   0  0  0  0  0  0  0  0  0  0  0  0
  149.2350  157.2430  132.6180 N   0  0  0  0  0  0  0  0  0  0  0  0
  146.8400  157.7070  132.9400 C   0  0  0  0  0  0  0  0  0  0  0  0
  145.8240  158.6430  133.1810 C   0  0  0  0  0  0  0  0  0  0  0  0
  144.4910  158.4340  133.2940 N   0  0  0  0  0  0  0  0  0  0  0  0
  143.7930  157.1860  133.1510 C   0  0  0  0  0  0  0  0  0  0  0  0
  144.3690  156.1010  133.4430 O   0  0  0  0  0  0  0  0  0  0  0  0
  142.4700  157.1790  132.7000 O   0  0  0  0  0  0  0  0  0  0  0  0
  141.4370  156.4470  133.3500 C   0  0  0  0  0  0  0  0  0  0  0  0
  140.9580  157.2250  134.5270 C   0  0  0  0  0  0  0  0  0  0  0  0
  140.1060  158.1400  134.3620 O   0  0  0  0  0  0  0  0  0  0  0  0
  141.4190  156.8960  135.8060 O   0  0  0  0  0  0  0  0  0  0  0  0
  140.6130  157.0070  136.9790 C   0  0  0  0  0  0  0  0  0  0  0  0
  141.0210  158.2360  137.7930 C   0  0  0  0  0  0  0  0  0  0  0  0
  141.0820  159.3670  136.9660 O   0  0  0  0  0  0  0  0  0  0  0  0
  141.7310  159.0610  131.9430 H   0  0  0  0  0  0  0  0  0  0  0  0
  140.5070  159.8730  132.9780 H   0  0  0  0  0  0  0  0  0  0  0  0
  144.7817  161.7369  133.5861 H   0  0  0  0  0  0  0  0  0  0  0  0
  147.6183  161.5459  133.2975 H   0  0  0  0  0  0  0  0  0  0  0  0
  149.4899  159.9055  132.9169 H   0  0  0  0  0  0  0  0  0  0  0  0
  149.2820  156.6920  131.7300 H   0  0  0  0  0  0  0  0  0  0  0  0
  149.9800  157.0950  133.3370 H   0  0  0  0  0  0  0  0  0  0  0  0
  146.6059  156.6384  132.8247 H   0  0  0  0  0  0  0  0  0  0  0  0
  140.6034  156.2854  132.6507 H   0  0  0  0  0  0  0  0  0  0  0  0
  141.8243  155.4723  133.6815 H   0  0  0  0  0  0  0  0  0  0  0  0
  139.5571  157.1011  136.6855 H   0  0  0  0  0  0  0  0  0  0  0  0
  140.7556  156.1075  137.5959 H   0  0  0  0  0  0  0  0  0  0  0  0
  140.2806  158.4071  138.5883 H   0  0  0  0  0  0  0  0  0  0  0  0
  142.0131  158.0606  138.2345 H   0  0  0  0  0  0  0  0  0  0  0  0
  141.1420  159.0340  136.0320 H   0  0  0  0  0  0  0  0  0  0  0  0
  1  2  1  0
  2  3  2  0
  2  4  1  0
  4  5  2  0
  5  6  1  0
  6  7  2  0
  7  8  1  0
  8  9  2  0
  9 10  1  0
  9 11  1  0
 11 12  2  0
 12 13  1  0
 13 14  1  0
 14 15  2  0
 14 16  1  0
 16 17  1  0
 17 18  1  0
 18 19  2  0
 18 20  1  0
 20 21  1  0
 21 22  1  0
 22 23  1  0
 13  4  1  0
 12  6  1  0
  1 24  1  0
  1 25  1  0
  5 26  1  0
  7 27  1  0
  8 28  1  0
 10 29  1  0
 10 30  1  0
 11 31  1  0
 17 32  1  0
 17 33  1  0
 21 34  1  0
 21 35  1  0
 22 36  1  0
 22 37  1  0
 23 38  1  0
M  END
>  <UniqueID>  (78) 
78

>  <SMILES>  (78) 
NC(=O)c1cc2ccc(N)cc2n1C(=O)OCC(=O)OCCO

>  <Energy>  (78) 
69.39600662914164

>  <Genealogy>  (78) 
NC(=O)c1cc2ccc(N)cc2n1C(=O)OCC(=O)OCCO (3D coordinates assigned)
NC(=O)c1cc2ccc(N)cc2n1C(=O)OCC(=O)OCCO (optimized conformer: 69.39600662914164 kcal/mol)

>  <smiles>  (78) 
NC(=O)c1cc2ccc(N)cc2n1C(=O)OCC(=O)OCCO

>  <score_type>  (78) 
oracle

>  <origin>  (78) 
adg

>  <m_score__min__energy>  (78) 
-5.4299999999999997

>  <m_primary>  (78) 
energy

$$$$
79:0
     RDKit          3D

 48 51  0  0  0  0  0  0  0  0999 V2000
  149.1780  156.7430  131.8280 H   0  0  0  0  0  0  0  0  0  0  0  0
  149.7830  157.5300  132.1510 N   0  0  0  0  0  0  0  0  0  0  0  0
  149.2400  158.8280  132.3760 C   0  0  0  0  0  0  0  0  0  0  0  0
  149.9570  159.8410  132.1600 O   0  0  0  0  0  0  0  0  0  0  0  0
  147.8440  159.0030  132.8300 C   0  0  0  0  0  0  0  0  0  0  0  0
  147.2130  160.2400  132.9310 C   0  0  0  0  0  0  0  0  0  0  0  0
  147.6493  161.2294  132.7293 H   0  0  0  0  0  0  0  0  0  0  0  0
  145.9270  159.9620  133.3370 C   0  0  0  0  0  0  0  0  0  0  0  0
  144.8640  160.8160  133.5960 C   0  0  0  0  0  0  0  0  0  0  0  0
  144.9717  161.9043  133.4776 H   0  0  0  0  0  0  0  0  0  0  0  0
  143.6480  160.2530  134.0130 C   0  0  0  0  0  0  0  0  0  0  0  0
  142.7911  160.9126  134.2144 H   0  0  0  0  0  0  0  0  0  0  0  0
  143.4980  158.8400  134.1820 C   0  0  0  0  0  0  0  0  0  0  0  0
  142.2240  158.2600  134.6090 N   0  0  0  0  0  0  0  0  0  0  0  0
  141.3510  159.0440  135.5100 C   0  0  0  0  0  0  0  0  0  0  0  0
  141.0599  159.9666  134.9864 H   0  0  0  0  0  0  0  0  0  0  0  0
  141.9357  159.2280  136.4234 H   0  0  0  0  0  0  0  0  0  0  0  0
  140.0700  158.3240  135.9560 C   0  0  0  0  0  0  0  0  0  0  0  0
  139.3215  159.0811  136.2329 H   0  0  0  0  0  0  0  0  0  0  0  0
  140.3366  157.6775  136.8051 H   0  0  0  0  0  0  0  0  0  0  0  0
  139.5000  157.4640  134.9150 N   0  0  0  0  0  0  0  0  0  0  0  0
  139.0040  158.2190  133.7520 C   0  0  0  0  0  0  0  0  0  0  0  0
  138.4308  159.0915  134.0986 H   0  0  0  0  0  0  0  0  0  0  0  0
  139.8560  158.5579  133.1443 H   0  0  0  0  0  0  0  0  0  0  0  0
  138.3547  157.5716  133.1443 H   0  0  0  0  0  0  0  0  0  0  0  0
  140.4670  156.4220  134.5510 C   0  0  0  0  0  0  0  0  0  0  0  0
  140.0132  155.7755  133.7854 H   0  0  0  0  0  0  0  0  0  0  0  0
  140.7106  155.8662  135.4684 H   0  0  0  0  0  0  0  0  0  0  0  0
  141.7820  156.9870  133.9960 C   0  0  0  0  0  0  0  0  0  0  0  0
  141.6527  157.1548  132.9166 H   0  0  0  0  0  0  0  0  0  0  0  0
  142.5594  156.2456  134.2327 H   0  0  0  0  0  0  0  0  0  0  0  0
  144.6250  158.0150  133.9070 C   0  0  0  0  0  0  0  0  0  0  0  0
  144.5604  156.9243  134.0339 H   0  0  0  0  0  0  0  0  0  0  0  0
  145.8140  158.6070  133.4740 C   0  0  0  0  0  0  0  0  0  0  0  0
  146.9800  158.0010  133.1580 N   0  0  0  0  0  0  0  0  0  0  0  0
  147.2610  156.5960  133.2540 C   0  0  0  0  0  0  0  0  0  0  0  0
  147.1960  155.8810  132.2180 O   0  0  0  0  0  0  0  0  0  0  0  0
  147.6460  155.9670  134.5320 C   0  0  0  0  0  0  0  0  0  0  0  0
  148.3695  156.4846  135.1791 H   0  0  0  0  0  0  0  0  0  0  0  0
  147.1500  154.7930  134.9340 C   0  0  0  0  0  0  0  0  0  0  0  0
  146.4378  154.2625  134.2849 H   0  0  0  0  0  0  0  0  0  0  0  0
  147.5300  154.1920  136.2190 C   0  0  0  0  0  0  0  0  0  0  0  0
  148.5090  154.6890  137.0010 N   0  0  0  0  0  0  0  0  0  0  0  0
  148.5230  153.8480  138.0520 C   0  0  0  0  0  0  0  0  0  0  0  0
  149.1963  153.9228  138.9186 H   0  0  0  0  0  0  0  0  0  0  0  0
  147.5620  152.8800  137.8710 C   0  0  0  0  0  0  0  0  0  0  0  0
  147.3352  152.0538  138.5609 H   0  0  0  0  0  0  0  0  0  0  0  0
  146.9660  153.1190  136.7300 O   0  0  0  0  0  0  0  0  0  0  0  0
  1  2  1  0
  2  3  1  0
  3  4  2  0
  3  5  1  0
  5  6  2  0
  6  7  1  0
  6  8  1  0
  8  9  2  0
  9 10  1  0
  9 11  1  0
 11 12  1  0
 11 13  2  0
 13 14  1  0
 14 15  1  0
 15 16  1  0
 15 17  1  0
 15 18  1  0
 18 19  1  0
 18 20  1  0
 18 21  1  0
 21 22  1  0
 22 23  1  0
 22 24  1  0
 22 25  1  0
 21 26  1  0
 26 27  1  0
 26 28  1  0
 26 29  1  0
 29 30  1  0
 29 31  1  0
 13 32  1  0
 32 33  1  0
 32 34  2  0
 34 35  1  0
 35 36  1  0
 36 37  2  0
 36 38  1  0
 38 39  1  0
 38 40  2  0
 40 41  1  0
 40 42  1  0
 42 43  2  0
 43 44  1  0
 44 45  1  0
 44 46  2  0
 46 47  1  0
 46 48  1  0
 35  5  1  0
 48 42  1  0
 34  8  1  0
 29 14  1  0
M  CHG  1   2  -1
M  END
>  <UniqueID>  (79) 
79

>  <SMILES>  (79) 
CN1CCN(c2ccc3cc(C([NH-])=O)n(C(=O)/C=C/c4ncco4)c3c2)CC1

>  <Energy>  (79) 
128.40884589340095

>  <Genealogy>  (79) 
CN1CCN(c2ccc3cc(C([NH-])=O)n(C(=O)/C=C/c4ncco4)c3c2)CC1 (protonated)
CN1CCN(c2ccc3cc(C([NH-])=O)n(C(=O)/C=C/c4ncco4)c3c2)CC1 (cis-trans isomerization)
CN1CCN(c2ccc3cc(C([NH-])=O)n(C(=O)/C=C/c4ncco4)c3c2)CC1 (3D coordinates assigned)
CN1CCN(c2ccc3cc(C([NH-])=O)n(C(=O)/C=C/c4ncco4)c3c2)CC1 (nonaromatic ring conformer: 128.40884589340095 kcal/mol)

>  <smiles>  (79) 
CN1CCN(c2ccc3cc(C(N)=O)n(C(=O)/C=C/c4ncco4)c3c2)CC1

>  <score_type>  (79) 
oracle

>  <origin>  (79) 
adg

>  <m_score__min__energy>  (79) 
-8.5

>  <m_primary>  (79) 
energy

$$$$
80:0
     RDKit          3D

 39 40  0  0  0  0  0  0  0  0999 V2000
  138.5338  160.9695  131.1331 H   0  0  0  0  0  0  0  0  0  0  0  0
  137.8840  160.0820  131.1410 C   0  0  0  0  0  0  0  0  0  0  0  0
  136.6280  160.1370  130.5490 O   0  0  0  0  0  0  0  0  0  0  0  0
  138.3020  158.9590  131.7170 C   0  0  0  0  0  0  0  0  0  0  0  0
  137.6378  158.0822  131.7213 H   0  0  0  0  0  0  0  0  0  0  0  0
  139.6520  158.8520  132.3610 C   0  0  0  0  0  0  0  0  0  0  0  0
  140.3117  159.6324  131.9538 H   0  0  0  0  0  0  0  0  0  0  0  0
  140.0723  157.8575  132.1505 H   0  0  0  0  0  0  0  0  0  0  0  0
  139.5390  159.0200  133.7720 O   0  0  0  0  0  0  0  0  0  0  0  0
  140.6350  159.0490  134.6400 C   0  0  0  0  0  0  0  0  0  0  0  0
  140.9790  160.1120  135.2230 O   0  0  0  0  0  0  0  0  0  0  0  0
  141.5400  157.5750  134.9190 S   0  0  0  0  0  0  0  0  0  0  0  0
  141.2370  157.0290  136.2860 O   0  0  0  0  0  0  0  0  0  0  0  0
  141.1650  156.5590  133.8780 O   0  0  0  0  0  0  0  0  0  0  0  0
  143.2320  157.9210  134.8030 N   0  0  0  0  0  0  0  0  0  0  0  0
  143.8850  158.1270  133.5500 C   0  0  0  0  0  0  0  0  0  0  0  0
  143.3450  157.7050  132.4920 O   0  0  0  0  0  0  0  0  0  0  0  0
  145.1500  158.8140  133.4860 N   0  0  0  0  0  0  0  0  0  0  0  0
  145.3750  160.1560  133.5830 C   0  0  0  0  0  0  0  0  0  0  0  0
  144.3610  161.1810  133.8690 C   0  0  0  0  0  0  0  0  0  0  0  0
  144.7210  162.3700  134.0800 O   0  0  0  0  0  0  0  0  0  0  0  0
  142.9840  160.8280  133.9850 N   0  0  0  0  0  0  0  0  0  0  0  0
  142.6830  159.8300  133.9130 H   0  0  0  0  0  0  0  0  0  0  0  0
  142.2650  161.5610  134.1760 H   0  0  0  0  0  0  0  0  0  0  0  0
  146.7070  160.4580  133.3210 C   0  0  0  0  0  0  0  0  0  0  0  0
  147.1760  161.4529  133.3065 H   0  0  0  0  0  0  0  0  0  0  0  0
  147.3120  159.2460  133.0840 C   0  0  0  0  0  0  0  0  0  0  0  0
  148.6430  158.9520  132.8020 C   0  0  0  0  0  0  0  0  0  0  0  0
  149.3945  159.7509  132.7180 H   0  0  0  0  0  0  0  0  0  0  0  0
  148.9970  157.6040  132.6280 C   0  0  0  0  0  0  0  0  0  0  0  0
  150.0412  157.3391  132.4058 H   0  0  0  0  0  0  0  0  0  0  0  0
  148.0220  156.5830  132.7360 C   0  0  0  0  0  0  0  0  0  0  0  0
  148.4190  155.1430  132.6070 C   0  0  0  0  0  0  0  0  0  0  0  0
  148.5398  154.7048  133.6087 H   0  0  0  0  0  0  0  0  0  0  0  0
  147.6384  154.5951  132.0588 H   0  0  0  0  0  0  0  0  0  0  0  0
  149.3701  155.0726  132.0588 H   0  0  0  0  0  0  0  0  0  0  0  0
  146.6850  156.9170  133.0360 C   0  0  0  0  0  0  0  0  0  0  0  0
  145.9202  156.1341  133.1465 H   0  0  0  0  0  0  0  0  0  0  0  0
  146.3540  158.2700  133.1900 C   0  0  0  0  0  0  0  0  0  0  0  0
  1  2  1  0
  2  3  1  0
  2  4  2  0
  4  5  1  0
  4  6  1  0
  6  7  1  0
  6  8  1  0
  6  9  1  0
  9 10  1  0
 10 11  2  0
 10 12  1  0
 12 13  2  0
 12 14  2  0
 12 15  1  0
 15 16  1  0
 16 17  2  0
 16 18  1  0
 18 19  1  0
 19 20  1  0
 20 21  2  0
 20 22  1  0
 22 23  1  0
 22 24  1  0
 19 25  2  0
 25 26  1  0
 25 27  1  0
 27 28  2  0
 28 29  1  0
 28 30  1  0
 30 31  1  0
 30 32  2  0
 32 33  1  0
 33 34  1  0
 33 35  1  0
 33 36  1  0
 32 37  1  0
 37 38  1  0
 37 39  2  0
 39 18  1  0
 39 27  1  0
M  CHG  2   3  -1  15  -1
M  END
>  <UniqueID>  (80) 
80

>  <SMILES>  (80) 
Cc1ccc2cc(C(N)=O)n(C(=O)[N-]S(=O)(=O)C(=O)OC/C=C/[O-])c2c1

>  <Energy>  (80) 
78.41285861888

>  <Genealogy>  (80) 
Cc1ccc2cc(C(N)=O)n(C(=O)[N-]S(=O)(=O)C(=O)OC/C=C/[O-])c2c1 (protonated)
Cc1ccc2cc(C(N)=O)n(C(=O)[N-]S(=O)(=O)C(=O)OC/C=C/[O-])c2c1 (cis-trans isomerization)
Cc1ccc2cc(C(N)=O)n(C(=O)[N-]S(=O)(=O)C(=O)OC/C=C/[O-])c2c1 (3D coordinates assigned)
Cc1ccc2cc(C(N)=O)n(C(=O)[N-]S(=O)(=O)C(=O)OC/C=C/[O-])c2c1 (optimized conformer: 78.41285861888 kcal/mol)

>  <smiles>  (80) 
Cc1ccc2cc(C(N)=O)n(C(=O)NS(=O)(=O)C(=O)OC/C=C/O)c2c1

>  <score_type>  (80) 
oracle

>  <origin>  (80) 
adg

>  <m_score__min__energy>  (80) 
-7.3399999999999999

>  <m_primary>  (80) 
energy

$$$$
81:0
     RDKit          3D

 45 47  0  0  0  0  0  0  0  0999 V2000
  143.9750  155.0700  132.2730 C   0  0  0  0  0  0  0  0  0  0  0  0
  144.2170  154.8090  133.7670 C   0  0  0  0  0  0  0  0  0  0  0  0
  144.6400  153.3390  133.9540 C   0  0  0  0  0  0  0  0  0  0  0  0
  142.9180  155.1050  134.5420 C   0  0  0  0  0  0  0  0  0  0  0  0
  145.2660  155.6910  134.1850 O   0  0  0  0  0  0  0  0  0  0  0  0
  146.0180  156.5440  133.3630 C   0  0  0  0  0  0  0  0  0  0  0  0
  146.7730  156.0780  132.4680 O   0  0  0  0  0  0  0  0  0  0  0  0
  145.9210  157.9650  133.5430 N   0  0  0  0  0  0  0  0  0  0  0  0
  146.9370  158.8720  133.5810 C   0  0  0  0  0  0  0  0  0  0  0  0
  148.3790  158.5530  133.5960 C   0  0  0  0  0  0  0  0  0  0  0  0
  148.9590  157.6940  132.6120 N   0  0  0  0  0  0  0  0  0  0  0  0
  149.1010  159.0030  134.5250 O   0  0  0  0  0  0  0  0  0  0  0  0
  146.4370  160.1680  133.6600 C   0  0  0  0  0  0  0  0  0  0  0  0
  145.0670  160.0280  133.6830 C   0  0  0  0  0  0  0  0  0  0  0  0
  144.0700  160.9970  133.7500 C   0  0  0  0  0  0  0  0  0  0  0  0
  142.7330  160.5680  133.7260 C   0  0  0  0  0  0  0  0  0  0  0  0
  142.4170  159.1900  133.6160 C   0  0  0  0  0  0  0  0  0  0  0  0
  141.0040  158.7410  133.5910 C   0  0  0  0  0  0  0  0  0  0  0  0
  140.3540  158.5830  132.3570 C   0  0  0  0  0  0  0  0  0  0  0  0
  139.0270  158.1550  132.3080 C   0  0  0  0  0  0  0  0  0  0  0  0
  138.3510  157.8890  133.4970 C   0  0  0  0  0  0  0  0  0  0  0  0
  138.9800  158.0570  134.6890 N   0  0  0  0  0  0  0  0  0  0  0  0
  140.2740  158.4710  134.7730 C   0  0  0  0  0  0  0  0  0  0  0  0
  140.8430  158.6720  136.0810 C   0  0  0  0  0  0  0  0  0  0  0  0
  141.3000  158.8340  137.1320 N   0  0  0  0  0  0  0  0  0  0  0  0
  143.4570  158.2360  133.5580 C   0  0  0  0  0  0  0  0  0  0  0  0
  144.7810  158.6900  133.6100 C   0  0  0  0  0  0  0  0  0  0  0  0
  143.2313  155.8721  132.1567 H   0  0  0  0  0  0  0  0  0  0  0  0
  144.9188  155.3731  131.7961 H   0  0  0  0  0  0  0  0  0  0  0  0
  143.6016  154.1518  131.7961 H   0  0  0  0  0  0  0  0  0  0  0  0
  144.7058  153.1102  135.0279 H   0  0  0  0  0  0  0  0  0  0  0  0
  143.8949  152.6804  133.4838 H   0  0  0  0  0  0  0  0  0  0  0  0
  145.6212  153.1771  133.4838 H   0  0  0  0  0  0  0  0  0  0  0  0
  143.1174  155.0596  135.6228 H   0  0  0  0  0  0  0  0  0  0  0  0
  142.5543  156.1090  134.2782 H   0  0  0  0  0  0  0  0  0  0  0  0
  142.1552  154.3576  134.2782 H   0  0  0  0  0  0  0  0  0  0  0  0
  149.9860  157.5140  132.6150 H   0  0  0  0  0  0  0  0  0  0  0  0
  148.3620  157.1670  131.9370 H   0  0  0  0  0  0  0  0  0  0  0  0
  147.0129  161.1045  133.6963 H   0  0  0  0  0  0  0  0  0  0  0  0
  144.3215  162.0656  133.8196 H   0  0  0  0  0  0  0  0  0  0  0  0
  141.9225  161.3086  133.7932 H   0  0  0  0  0  0  0  0  0  0  0  0
  140.8940  158.7979  131.4231 H   0  0  0  0  0  0  0  0  0  0  0  0
  138.5194  158.0288  131.3403 H   0  0  0  0  0  0  0  0  0  0  0  0
  137.3073  157.5427  133.4703 H   0  0  0  0  0  0  0  0  0  0  0  0
  143.2325  157.1624  133.4740 H   0  0  0  0  0  0  0  0  0  0  0  0
  1  2  1  0
  2  3  1  0
  2  4  1  0
  2  5  1  0
  5  6  1  0
  6  7  2  0
  6  8  1  0
  8  9  1  0
  9 10  1  0
 10 11  1  0
 10 12  2  0
  9 13  2  0
 13 14  1  0
 14 15  2  0
 15 16  1  0
 16 17  2  0
 17 18  1  0
 18 19  2  0
 19 20  1  0
 20 21  2  0
 21 22  1  0
 22 23  2  0
 23 24  1  0
 24 25  3  0
 17 26  1  0
 26 27  2  0
 27  8  1  0
 27 14  1  0
 23 18  1  0
  1 28  1  0
  1 29  1  0
  1 30  1  0
  3 31  1  0
  3 32  1  0
  3 33  1  0
  4 34  1  0
  4 35  1  0
  4 36  1  0
 11 37  1  0
 11 38  1  0
 13 39  1  0
 15 40  1  0
 16 41  1  0
 19 42  1  0
 20 43  1  0
 21 44  1  0
 26 45  1  0
M  END
>  <UniqueID>  (81) 
81

>  <SMILES>  (81) 
CC(C)(C)OC(=O)n1c(C(N)=O)cc2ccc(-c3cccnc3C#N)cc21

>  <Energy>  (81) 
88.65718310300774

>  <Genealogy>  (81) 
CC(C)(C)OC(=O)n1c(C(N)=O)cc2ccc(-c3cccnc3C#N)cc21 (3D coordinates assigned)
CC(C)(C)OC(=O)n1c(C(N)=O)cc2ccc(-c3cccnc3C#N)cc21 (optimized conformer: 88.65718310300774 kcal/mol)

>  <smiles>  (81) 
CC(C)(C)OC(=O)n1c(C(N)=O)cc2ccc(-c3cccnc3C#N)cc21

>  <score_type>  (81) 
oracle

>  <origin>  (81) 
adg

>  <m_score__min__energy>  (81) 
-8.7100000000000009

>  <m_primary>  (81) 
energy

$$$$
82:0
     RDKit          3D

 29 30  0  0  0  0  0  0  0  0999 V2000
  145.9420  162.7730  134.6290 N   0  0  0  0  0  0  0  0  0  0  0  0
  145.2260  161.6810  134.0580 C   0  0  0  0  0  0  0  0  0  0  0  0
  144.0040  161.8210  133.7870 O   0  0  0  0  0  0  0  0  0  0  0  0
  145.9300  160.4200  133.7500 C   0  0  0  0  0  0  0  0  0  0  0  0
  147.3070  160.3410  133.5500 C   0  0  0  0  0  0  0  0  0  0  0  0
  147.5510  159.0330  133.2000 C   0  0  0  0  0  0  0  0  0  0  0  0
  148.7500  158.3980  132.8930 C   0  0  0  0  0  0  0  0  0  0  0  0
  148.7100  157.0280  132.5880 C   0  0  0  0  0  0  0  0  0  0  0  0
  147.4830  156.3150  132.6070 C   0  0  0  0  0  0  0  0  0  0  0  0
  147.4510  154.9090  132.2790 N   0  0  0  0  0  0  0  0  0  0  0  0
  147.8550  154.0830  133.4280 C   0  0  0  0  0  0  0  0  0  0  0  0
  148.9500  153.1230  133.0630 C   0  0  0  0  0  0  0  0  0  0  0  0
  149.2420  152.1710  133.8340 O   0  0  0  0  0  0  0  0  0  0  0  0
  149.6190  153.2590  131.8530 O   0  0  0  0  0  0  0  0  0  0  0  0
  146.2840  156.9990  132.9190 C   0  0  0  0  0  0  0  0  0  0  0  0
  146.3510  158.3680  133.2010 C   0  0  0  0  0  0  0  0  0  0  0  0
  145.3450  159.2060  133.5400 N   0  0  0  0  0  0  0  0  0  0  0  0
  143.9630  158.8550  133.7140 C   0  0  0  0  0  0  0  0  0  0  0  0
  143.3620  159.1450  134.7820 O   0  0  0  0  0  0  0  0  0  0  0  0
  143.2670  158.2160  132.6950 O   0  0  0  0  0  0  0  0  0  0  0  0
  146.9540  162.6830  134.8750 H   0  0  0  0  0  0  0  0  0  0  0  0
  148.0428  161.1525  133.6507 H   0  0  0  0  0  0  0  0  0  0  0  0
  149.7002  158.9521  132.8893 H   0  0  0  0  0  0  0  0  0  0  0  0
  149.6408  156.5010  132.3313 H   0  0  0  0  0  0  0  0  0  0  0  0
  148.1130  154.7280  131.4870 H   0  0  0  0  0  0  0  0  0  0  0  0
  146.4970  154.6290  131.9530 H   0  0  0  0  0  0  0  0  0  0  0  0
  148.2122  154.7421  134.2330 H   0  0  0  0  0  0  0  0  0  0  0  0
  146.9818  153.4994  133.7551 H   0  0  0  0  0  0  0  0  0  0  0  0
  145.3215  156.4668  132.9394 H   0  0  0  0  0  0  0  0  0  0  0  0
  1  2  1  0
  2  3  2  0
  2  4  1  0
  4  5  2  0
  5  6  1  0
  6  7  2  0
  7  8  1  0
  8  9  2  0
  9 10  1  0
 10 11  1  0
 11 12  1  0
 12 13  2  0
 12 14  1  0
  9 15  1  0
 15 16  2  0
 16 17  1  0
 17 18  1  0
 18 19  2  0
 18 20  1  0
 17  4  1  0
 16  6  1  0
  1 21  1  0
  5 22  1  0
  7 23  1  0
  8 24  1  0
 10 25  1  0
 10 26  1  0
 11 27  1  0
 11 28  1  0
 15 29  1  0
M  CHG  4   1  -1  10   1  14  -1  20  -1
M  END
>  <UniqueID>  (82) 
82

>  <SMILES>  (82) 
[NH-]C(=O)c1cc2ccc([NH2+]CC(=O)[O-])cc2n1C(=O)[O-]

>  <Energy>  (82) 
69.32146547375744

>  <Genealogy>  (82) 
[NH-]C(=O)c1cc2ccc([NH2+]CC(=O)[O-])cc2n1C(=O)[O-] (protonated)
[NH-]C(=O)c1cc2ccc([NH2+]CC(=O)[O-])cc2n1C(=O)[O-] (3D coordinates assigned)
[NH-]C(=O)c1cc2ccc([NH2+]CC(=O)[O-])cc2n1C(=O)[O-] (optimized conformer: 69.32146547375744 kcal/mol)

>  <smiles>  (82) 
NC(=O)c1cc2ccc(NCC(=O)O)cc2n1C(=O)O

>  <score_type>  (82) 
oracle

>  <origin>  (82) 
adg

>  <m_score__min__energy>  (82) 
-5.8899999999999997

>  <m_primary>  (82) 
energy

$$$$
83:0
     RDKit          3D

 40 41  0  0  0  0  0  0  0  0999 V2000
  138.4550  159.6700  131.0540 C   0  0  0  0  0  0  0  0  0  0  0  0
  139.4540  160.1080  131.8250 C   0  0  0  0  0  0  0  0  0  0  0  0
  140.3160  159.1570  132.6000 C   0  0  0  0  0  0  0  0  0  0  0  0
  140.9860  159.8610  133.6410 O   0  0  0  0  0  0  0  0  0  0  0  0
  141.5450  159.2190  134.7490 C   0  0  0  0  0  0  0  0  0  0  0  0
  140.8130  158.8610  135.7140 O   0  0  0  0  0  0  0  0  0  0  0  0
  142.9250  158.9910  134.7650 O   0  0  0  0  0  0  0  0  0  0  0  0
  143.7100  158.6930  133.6430 C   0  0  0  0  0  0  0  0  0  0  0  0
  143.2380  158.0170  132.6880 O   0  0  0  0  0  0  0  0  0  0  0  0
  145.0690  159.1570  133.5840 N   0  0  0  0  0  0  0  0  0  0  0  0
  145.5090  160.4470  133.5920 C   0  0  0  0  0  0  0  0  0  0  0  0
  144.6760  161.6440  133.8280 C   0  0  0  0  0  0  0  0  0  0  0  0
  143.2600  161.6070  133.6430 N   0  0  0  0  0  0  0  0  0  0  0  0
  145.2150  162.6990  134.2540 O   0  0  0  0  0  0  0  0  0  0  0  0
  146.8860  160.5010  133.3970 C   0  0  0  0  0  0  0  0  0  0  0  0
  147.2870  159.1890  133.2820 C   0  0  0  0  0  0  0  0  0  0  0  0
  148.5560  158.6580  133.0660 C   0  0  0  0  0  0  0  0  0  0  0  0
  148.6760  157.2620  132.9540 C   0  0  0  0  0  0  0  0  0  0  0  0
  147.5320  156.4370  133.0480 C   0  0  0  0  0  0  0  0  0  0  0  0
  147.6620  155.0100  132.9240 C   0  0  0  0  0  0  0  0  0  0  0  0
  147.7600  153.8120  132.8220 C   0  0  0  0  0  0  0  0  0  0  0  0
  147.8880  152.3590  132.6970 C   0  0  0  0  0  0  0  0  0  0  0  0
  149.2650  152.0120  132.2330 C   0  0  0  0  0  0  0  0  0  0  0  0
  149.4590  150.9730  131.5480 O   0  0  0  0  0  0  0  0  0  0  0  0
  150.3430  152.8070  132.5990 O   0  0  0  0  0  0  0  0  0  0  0  0
  146.2610  157.0050  133.2640 C   0  0  0  0  0  0  0  0  0  0  0  0
  146.1720  158.3970  133.3960 C   0  0  0  0  0  0  0  0  0  0  0  0
  137.8364  160.3875  130.4950 H   0  0  0  0  0  0  0  0  0  0  0  0
  138.2509  158.5918  130.9781 H   0  0  0  0  0  0  0  0  0  0  0  0
  139.6483  161.1886  131.8927 H   0  0  0  0  0  0  0  0  0  0  0  0
  139.6881  158.3668  133.0374 H   0  0  0  0  0  0  0  0  0  0  0  0
  141.0594  158.7054  131.9266 H   0  0  0  0  0  0  0  0  0  0  0  0
  142.6920  162.4720  133.7800 H   0  0  0  0  0  0  0  0  0  0  0  0
  142.7640  160.7080  133.4570 H   0  0  0  0  0  0  0  0  0  0  0  0
  147.5185  161.3995  133.3458 H   0  0  0  0  0  0  0  0  0  0  0  0
  149.4375  159.3110  132.9855 H   0  0  0  0  0  0  0  0  0  0  0  0
  149.6653  156.8091  132.7923 H   0  0  0  0  0  0  0  0  0  0  0  0
  147.7029  151.8903  133.6748 H   0  0  0  0  0  0  0  0  0  0  0  0
  147.1538  151.9906  131.9654 H   0  0  0  0  0  0  0  0  0  0  0  0
  145.3630  156.3729  133.3273 H   0  0  0  0  0  0  0  0  0  0  0  0
  1  2  2  0
  2  3  1  0
  3  4  1  0
  4  5  1  0
  5  6  2  0
  5  7  1  0
  7  8  1  0
  8  9  2  0
  8 10  1  0
 10 11  1  0
 11 12  1  0
 12 13  1  0
 12 14  2  0
 11 15  2  0
 15 16  1  0
 16 17  2  0
 17 18  1  0
 18 19  2  0
 19 20  1  0
 20 21  3  0
 21 22  1  0
 22 23  1  0
 23 24  2  0
 23 25  1  0
 19 26  1  0
 26 27  2  0
 27 10  1  0
 27 16  1  0
  1 28  1  0
  1 29  1  0
  2 30  1  0
  3 31  1  0
  3 32  1  0
 13 33  1  0
 13 34  1  0
 15 35  1  0
 17 36  1  0
 18 37  1  0
 22 38  1  0
 22 39  1  0
 26 40  1  0
M  CHG  1  25  -1
M  END
>  <UniqueID>  (83) 
83

>  <SMILES>  (83) 
C=CCOC(=O)OC(=O)n1c(C(N)=O)cc2ccc(C#CCC(=O)[O-])cc21

>  <Energy>  (83) 
69.63012914545105

>  <Genealogy>  (83) 
C=CCOC(=O)OC(=O)n1c(C(N)=O)cc2ccc(C#CCC(=O)[O-])cc21 (protonated)
C=CCOC(=O)OC(=O)n1c(C(N)=O)cc2ccc(C#CCC(=O)[O-])cc21 (3D coordinates assigned)
C=CCOC(=O)OC(=O)n1c(C(N)=O)cc2ccc(C#CCC(=O)[O-])cc21 (optimized conformer: 69.63012914545105 kcal/mol)

>  <smiles>  (83) 
C=CCOC(=O)OC(=O)n1c(C(N)=O)cc2ccc(C#CCC(=O)O)cc21

>  <score_type>  (83) 
oracle

>  <origin>  (83) 
adg

>  <m_score__min__energy>  (83) 
-7.6299999999999999

>  <m_primary>  (83) 
energy

$$$$
84:0
     RDKit          3D

 30 31  0  0  0  0  0  0  0  0999 V2000
  138.4180  157.4840  133.6950 C   0  0  0  0  0  0  0  0  0  0  0  0
  139.4140  158.3130  133.3880 C   0  0  0  0  0  0  0  0  0  0  0  0
  139.3650  159.2140  131.6980 Br  0  0  0  0  0  0  0  0  0  0  0  0
  140.5580  158.5240  134.3040 C   0  0  0  0  0  0  0  0  0  0  0  0
  140.3750  159.0250  135.4460 O   0  0  0  0  0  0  0  0  0  0  0  0
  141.8790  158.1220  133.9220 N   0  0  0  0  0  0  0  0  0  0  0  0
  142.9510  158.9160  133.6460 C   0  0  0  0  0  0  0  0  0  0  0  0
  142.9760  160.3900  133.7430 C   0  0  0  0  0  0  0  0  0  0  0  0
  141.7520  161.1220  133.7600 N   0  0  0  0  0  0  0  0  0  0  0  0
  144.0690  161.0120  133.7960 O   0  0  0  0  0  0  0  0  0  0  0  0
  144.0530  158.1380  133.2910 C   0  0  0  0  0  0  0  0  0  0  0  0
  143.6180  156.8330  133.3670 C   0  0  0  0  0  0  0  0  0  0  0  0
  144.2930  155.6430  133.1110 C   0  0  0  0  0  0  0  0  0  0  0  0
  143.5830  154.4390  133.2550 C   0  0  0  0  0  0  0  0  0  0  0  0
  142.2220  154.4450  133.6590 C   0  0  0  0  0  0  0  0  0  0  0  0
  141.4610  153.1540  133.7680 C   0  0  0  0  0  0  0  0  0  0  0  0
  141.7380  152.5070  135.0880 C   0  0  0  0  0  0  0  0  0  0  0  0
  142.5730  153.0180  135.8810 O   0  0  0  0  0  0  0  0  0  0  0  0
  141.0390  151.3670  135.4640 O   0  0  0  0  0  0  0  0  0  0  0  0
  141.5690  155.6740  133.9020 C   0  0  0  0  0  0  0  0  0  0  0  0
  142.3030  156.8530  133.7550 C   0  0  0  0  0  0  0  0  0  0  0  0
  138.4210  156.9537  134.6587 H   0  0  0  0  0  0  0  0  0  0  0  0
  137.5923  157.3295  132.9849 H   0  0  0  0  0  0  0  0  0  0  0  0
  140.9580  160.8260  134.3700 H   0  0  0  0  0  0  0  0  0  0  0  0
  145.0561  158.4913  133.0101 H   0  0  0  0  0  0  0  0  0  0  0  0
  145.3497  155.6450  132.8054 H   0  0  0  0  0  0  0  0  0  0  0  0
  144.0867  153.4823  133.0527 H   0  0  0  0  0  0  0  0  0  0  0  0
  140.3835  153.3578  133.6811 H   0  0  0  0  0  0  0  0  0  0  0  0
  141.7790  152.4780  132.9606 H   0  0  0  0  0  0  0  0  0  0  0  0
  140.5103  155.7016  134.1992 H   0  0  0  0  0  0  0  0  0  0  0  0
  1  2  2  0
  2  3  1  0
  2  4  1  0
  4  5  2  0
  4  6  1  0
  6  7  1  0
  7  8  1  0
  8  9  1  0
  8 10  2  0
  7 11  2  0
 11 12  1  0
 12 13  2  0
 13 14  1  0
 14 15  2  0
 15 16  1  0
 16 17  1  0
 17 18  2  0
 17 19  1  0
 15 20  1  0
 20 21  2  0
 21  6  1  0
 21 12  1  0
  1 22  1  0
  1 23  1  0
  9 24  1  0
 11 25  1  0
 13 26  1  0
 14 27  1  0
 16 28  1  0
 16 29  1  0
 20 30  1  0
M  CHG  2   9  -1  19  -1
M  END
>  <UniqueID>  (84) 
84

>  <SMILES>  (84) 
C=C(Br)C(=O)n1c(C([NH-])=O)cc2ccc(CC(=O)[O-])cc21

>  <Energy>  (84) 
67.68148234123407

>  <Genealogy>  (84) 
C=C(Br)C(=O)n1c(C([NH-])=O)cc2ccc(CC(=O)[O-])cc21 (protonated)
C=C(Br)C(=O)n1c(C([NH-])=O)cc2ccc(CC(=O)[O-])cc21 (3D coordinates assigned)
C=C(Br)C(=O)n1c(C([NH-])=O)cc2ccc(CC(=O)[O-])cc21 (optimized conformer: 67.68148234123407 kcal/mol)

>  <smiles>  (84) 
C=C(Br)C(=O)n1c(C(N)=O)cc2ccc(CC(=O)O)cc21

>  <score_type>  (84) 
oracle

>  <origin>  (84) 
adg

>  <m_score__min__energy>  (84) 
-7.0999999999999996

>  <m_primary>  (84) 
energy

$$$$
85:0
     RDKit          3D

 32 33  0  0  0  0  0  0  0  0999 V2000
  148.2480  149.6380  132.6000 C   0  0  0  0  0  0  0  0  0  0  0  0
  147.9300  151.0050  132.3670 O   0  0  0  0  0  0  0  0  0  0  0  0
  148.9010  152.0080  132.3240 C   0  0  0  0  0  0  0  0  0  0  0  0
  150.0860  151.7630  132.6840 O   0  0  0  0  0  0  0  0  0  0  0  0
  148.5310  153.2820  131.8750 O   0  0  0  0  0  0  0  0  0  0  0  0
  148.9290  154.4910  132.4630 C   0  0  0  0  0  0  0  0  0  0  0  0
  150.1520  154.7830  132.5740 O   0  0  0  0  0  0  0  0  0  0  0  0
  147.9320  155.4000  132.9580 N   0  0  0  0  0  0  0  0  0  0  0  0
  146.7550  155.0940  133.5740 C   0  0  0  0  0  0  0  0  0  0  0  0
  146.3310  153.7390  133.9920 C   0  0  0  0  0  0  0  0  0  0  0  0
  146.2770  152.6670  133.0470 N   0  0  0  0  0  0  0  0  0  0  0  0
  145.9850  153.5220  135.1840 O   0  0  0  0  0  0  0  0  0  0  0  0
  146.0310  156.2520  133.8490 C   0  0  0  0  0  0  0  0  0  0  0  0
  146.8080  157.2870  133.3800 C   0  0  0  0  0  0  0  0  0  0  0  0
  146.5650  158.6580  133.3790 C   0  0  0  0  0  0  0  0  0  0  0  0
  147.5300  159.4970  132.7980 C   0  0  0  0  0  0  0  0  0  0  0  0
  148.7130  158.9560  132.2370 C   0  0  0  0  0  0  0  0  0  0  0  0
  149.7130  159.8580  131.5760 C   0  0  0  0  0  0  0  0  0  0  0  0
  149.2560  160.1180  129.8750 Cl  0  0  0  0  0  0  0  0  0  0  0  0
  148.9190  157.5590  132.2450 C   0  0  0  0  0  0  0  0  0  0  0  0
  147.9500  156.7470  132.8470 C   0  0  0  0  0  0  0  0  0  0  0  0
  148.2915  149.4511  133.6831 H   0  0  0  0  0  0  0  0  0  0  0  0
  147.4744  148.9995  132.1485 H   0  0  0  0  0  0  0  0  0  0  0  0
  149.2240  149.4065  132.1485 H   0  0  0  0  0  0  0  0  0  0  0  0
  146.6080  152.7910  132.0660 H   0  0  0  0  0  0  0  0  0  0  0  0
  145.9390  151.7240  133.3440 H   0  0  0  0  0  0  0  0  0  0  0  0
  145.0478  156.3240  134.3370 H   0  0  0  0  0  0  0  0  0  0  0  0
  145.6457  159.0713  133.8196 H   0  0  0  0  0  0  0  0  0  0  0  0
  147.3656  160.5845  132.7784 H   0  0  0  0  0  0  0  0  0  0  0  0
  149.7357  160.8248  132.1002 H   0  0  0  0  0  0  0  0  0  0  0  0
  150.7080  159.3910  131.6182 H   0  0  0  0  0  0  0  0  0  0  0  0
  149.8186  157.1195  131.7895 H   0  0  0  0  0  0  0  0  0  0  0  0
  1  2  1  0
  2  3  1  0
  3  4  2  0
  3  5  1  0
  5  6  1  0
  6  7  2  0
  6  8  1  0
  8  9  1  0
  9 10  1  0
 10 11  1  0
 10 12  2  0
  9 13  2  0
 13 14  1  0
 14 15  2  0
 15 16  1  0
 16 17  2  0
 17 18  1  0
 18 19  1  0
 17 20  1  0
 20 21  2  0
 21  8  1  0
 21 14  1  0
  1 22  1  0
  1 23  1  0
  1 24  1  0
 11 25  1  0
 11 26  1  0
 13 27  1  0
 15 28  1  0
 16 29  1  0
 18 30  1  0
 18 31  1  0
 20 32  1  0
M  END
>  <UniqueID>  (85) 
85

>  <SMILES>  (85) 
COC(=O)OC(=O)n1c(C(N)=O)cc2ccc(CCl)cc21

>  <Energy>  (85) 
68.82567760348367

>  <Genealogy>  (85) 
COC(=O)OC(=O)n1c(C(N)=O)cc2ccc(CCl)cc21 (3D coordinates assigned)
COC(=O)OC(=O)n1c(C(N)=O)cc2ccc(CCl)cc21 (optimized conformer: 68.82567760348367 kcal/mol)

>  <smiles>  (85) 
COC(=O)OC(=O)n1c(C(N)=O)cc2ccc(CCl)cc21

>  <score_type>  (85) 
oracle

>  <origin>  (85) 
adg

>  <m_score__min__energy>  (85) 
-6.3799999999999999

>  <m_primary>  (85) 
energy

$$$$
86:0
     RDKit          3D

 37 39  0  0  0  0  0  0  0  0999 V2000
  142.9530  160.9400  133.7100 N   0  0  0  0  0  0  0  0  0  0  0  0
  144.3570  161.1690  133.7980 C   0  0  0  0  0  0  0  0  0  0  0  0
  144.7730  162.3060  134.1460 O   0  0  0  0  0  0  0  0  0  0  0  0
  145.3250  160.0810  133.5480 C   0  0  0  0  0  0  0  0  0  0  0  0
  146.6860  160.3030  133.3600 C   0  0  0  0  0  0  0  0  0  0  0  0
  147.2480  159.0530  133.2400 C   0  0  0  0  0  0  0  0  0  0  0  0
  148.5710  158.6860  133.0250 C   0  0  0  0  0  0  0  0  0  0  0  0
  148.8650  157.3180  132.9070 C   0  0  0  0  0  0  0  0  0  0  0  0
  147.8360  156.3430  132.9950 C   0  0  0  0  0  0  0  0  0  0  0  0
  148.1560  154.8990  132.8550 C   0  0  0  0  0  0  0  0  0  0  0  0
  147.1570  153.9240  132.9870 C   0  0  0  0  0  0  0  0  0  0  0  0
  147.4900  152.5760  132.8520 C   0  0  0  0  0  0  0  0  0  0  0  0
  148.7750  152.2260  132.5930 N   0  0  0  0  0  0  0  0  0  0  0  0
  149.7320  153.1460  132.4650 N   0  0  0  0  0  0  0  0  0  0  0  0
  149.4660  154.4720  132.5880 C   0  0  0  0  0  0  0  0  0  0  0  0
  146.5020  156.7600  133.2140 C   0  0  0  0  0  0  0  0  0  0  0  0
  146.2410  158.1290  133.3500 C   0  0  0  0  0  0  0  0  0  0  0  0
  145.0510  158.7440  133.5380 N   0  0  0  0  0  0  0  0  0  0  0  0
  143.7670  158.1020  133.6170 C   0  0  0  0  0  0  0  0  0  0  0  0
  143.2730  157.5540  132.5950 O   0  0  0  0  0  0  0  0  0  0  0  0
  143.0920  158.0500  134.8440 O   0  0  0  0  0  0  0  0  0  0  0  0
  141.7420  157.6180  134.9850 C   0  0  0  0  0  0  0  0  0  0  0  0
  140.6050  158.8220  134.2340 P   0  0  2  0  0  0  0  0  0  0  0  0
  140.6260  160.1040  135.0370 O   0  0  0  0  0  0  0  0  0  0  0  0
  139.0400  158.1850  134.2470 O   0  0  0  0  0  0  0  0  0  0  0  0
  141.0600  159.1410  132.6360 O   0  0  0  0  0  0  0  0  0  0  0  0
  142.5430  160.0100  133.9500 H   0  0  0  0  0  0  0  0  0  0  0  0
  147.2031  161.2729  133.3165 H   0  0  0  0  0  0  0  0  0  0  0  0
  149.3641  159.4444  132.9495 H   0  0  0  0  0  0  0  0  0  0  0  0
  149.9047  156.9976  132.7445 H   0  0  0  0  0  0  0  0  0  0  0  0
  146.1182  154.2198  133.1955 H   0  0  0  0  0  0  0  0  0  0  0  0
  146.7155  151.8017  132.9549 H   0  0  0  0  0  0  0  0  0  0  0  0
  150.2750  155.2093  132.4787 H   0  0  0  0  0  0  0  0  0  0  0  0
  145.6868  156.0241  133.2762 H   0  0  0  0  0  0  0  0  0  0  0  0
  141.6195  156.6451  134.4866 H   0  0  0  0  0  0  0  0  0  0  0  0
  141.5077  157.5282  136.0560 H   0  0  0  0  0  0  0  0  0  0  0  0
  142.0310  159.3310  132.6800 H   0  0  0  0  0  0  0  0  0  0  0  0
  1  2  1  0
  2  3  2  0
  2  4  1  0
  4  5  2  0
  5  6  1  0
  6  7  2  0
  7  8  1  0
  8  9  2  0
  9 10  1  0
 10 11  2  0
 11 12  1  0
 12 13  2  0
 13 14  1  0
 14 15  2  0
  9 16  1  0
 16 17  2  0
 17 18  1  0
 18 19  1  0
 19 20  2  0
 19 21  1  0
 21 22  1  0
 22 23  1  0
 23 24  2  0
 23 25  1  6
 23 26  1  0
 18  4  1  0
 17  6  1  0
 15 10  1  0
  1 27  1  0
  5 28  1  0
  7 29  1  0
  8 30  1  0
 11 31  1  0
 12 32  1  0
 15 33  1  0
 16 34  1  0
 22 35  1  0
 22 36  1  0
 26 37  1  0
M  CHG  2   1  -1  25  -1
M  END
>  <UniqueID>  (86) 
86

>  <SMILES>  (86) 
[NH-]C(=O)c1cc2ccc(-c3ccnnc3)cc2n1C(=O)OC[P@](=O)([O-])O

>  <Energy>  (86) 
79.73643520706518

>  <Genealogy>  (86) 
[NH-]C(=O)c1cc2ccc(-c3ccnnc3)cc2n1C(=O)OCP(=O)([O-])O (protonated)
[NH-]C(=O)c1cc2ccc(-c3ccnnc3)cc2n1C(=O)OC[P@](=O)([O-])O (chirality)
[NH-]C(=O)c1cc2ccc(-c3ccnnc3)cc2n1C(=O)OC[P@](=O)([O-])O (3D coordinates assigned)
[NH-]C(=O)c1cc2ccc(-c3ccnnc3)cc2n1C(=O)OC[P@](=O)([O-])O (optimized conformer: 79.73643520706518 kcal/mol)

>  <smiles>  (86) 
NC(=O)c1cc2ccc(-c3ccnnc3)cc2n1C(=O)OCP(=O)(O)O

>  <score_type>  (86) 
oracle

>  <origin>  (86) 
adg

>  <m_score__min__energy>  (86) 
-6.7699999999999996

>  <m_primary>  (86) 
energy

$$$$
87:0
     RDKit          3D

 41 42  0  0  0  0  0  0  0  0999 V2000
  140.6190  156.5840  137.3640 C   0  0  0  0  0  0  0  0  0  0  0  0
  141.3420  157.9150  137.1990 C   0  0  0  0  0  0  0  0  0  0  0  0
  140.5530  158.8360  136.3250 C   0  0  0  0  0  0  0  0  0  0  0  0
  140.5850  160.0790  136.5370 O   0  0  0  0  0  0  0  0  0  0  0  0
  139.7570  158.2920  135.3090 O   0  0  0  0  0  0  0  0  0  0  0  0
  140.2350  157.7930  134.0900 C   0  0  0  0  0  0  0  0  0  0  0  0
  139.4460  157.5530  133.1360 O   0  0  0  0  0  0  0  0  0  0  0  0
  141.6460  157.5850  133.9180 N   0  0  0  0  0  0  0  0  0  0  0  0
  142.6310  158.5260  133.8550 C   0  0  0  0  0  0  0  0  0  0  0  0
  142.4330  159.9890  133.7940 C   0  0  0  0  0  0  0  0  0  0  0  0
  141.1260  160.5550  133.7780 N   0  0  0  0  0  0  0  0  0  0  0  0
  143.4350  160.7490  133.7060 O   0  0  0  0  0  0  0  0  0  0  0  0
  143.8800  157.9180  133.7620 C   0  0  0  0  0  0  0  0  0  0  0  0
  143.6290  156.5650  133.7620 C   0  0  0  0  0  0  0  0  0  0  0  0
  144.5080  155.4920  133.6850 C   0  0  0  0  0  0  0  0  0  0  0  0
  143.9740  154.1940  133.7220 C   0  0  0  0  0  0  0  0  0  0  0  0
  142.5710  153.9780  133.8600 C   0  0  0  0  0  0  0  0  0  0  0  0
  141.9450  152.5720  133.8830 C   0  0  0  0  0  0  0  0  0  0  0  0
  142.8980  151.4690  133.3700 C   0  0  0  0  0  0  0  0  0  0  0  0
  140.6920  152.5850  132.9810 C   0  0  0  0  0  0  0  0  0  0  0  0
  141.5690  152.2060  135.3080 C   0  0  0  0  0  0  0  0  0  0  0  0
  141.8340  152.9970  136.2530 O   0  0  0  0  0  0  0  0  0  0  0  0
  140.9840  150.9790  135.6010 O   0  0  0  0  0  0  0  0  0  0  0  0
  141.7150  155.1100  133.9210 C   0  0  0  0  0  0  0  0  0  0  0  0
  142.2750  156.3900  133.8580 C   0  0  0  0  0  0  0  0  0  0  0  0
  140.4986  156.3624  138.4347 H   0  0  0  0  0  0  0  0  0  0  0  0
  139.6290  156.6431  136.8882 H   0  0  0  0  0  0  0  0  0  0  0  0
  141.2074  155.7856  136.8882 H   0  0  0  0  0  0  0  0  0  0  0  0
  141.4748  158.3795  138.1873 H   0  0  0  0  0  0  0  0  0  0  0  0
  142.3204  157.7321  136.7306 H   0  0  0  0  0  0  0  0  0  0  0  0
  140.3660  160.1690  134.3800 H   0  0  0  0  0  0  0  0  0  0  0  0
  144.8599  158.4141  133.7014 H   0  0  0  0  0  0  0  0  0  0  0  0
  145.5924  155.6548  133.5975 H   0  0  0  0  0  0  0  0  0  0  0  0
  144.6491  153.3291  133.6432 H   0  0  0  0  0  0  0  0  0  0  0  0
  143.3492  150.9468  134.2266 H   0  0  0  0  0  0  0  0  0  0  0  0
  142.3320  150.7504  132.7591 H   0  0  0  0  0  0  0  0  0  0  0  0
  143.6912  151.9247  132.7591 H   0  0  0  0  0  0  0  0  0  0  0  0
  139.7886  152.5944  133.6085 H   0  0  0  0  0  0  0  0  0  0  0  0
  140.7067  153.4830  132.3459 H   0  0  0  0  0  0  0  0  0  0  0  0
  140.6880  151.6869  132.3459 H   0  0  0  0  0  0  0  0  0  0  0  0
  140.6267  154.9816  134.0165 H   0  0  0  0  0  0  0  0  0  0  0  0
  1  2  1  0
  2  3  1  0
  3  4  2  0
  3  5  1  0
  5  6  1  0
  6  7  2  0
  6  8  1  0
  8  9  1  0
  9 10  1  0
 10 11  1  0
 10 12  2  0
  9 13  2  0
 13 14  1  0
 14 15  2  0
 15 16  1  0
 16 17  2  0
 17 18  1  0
 18 19  1  0
 18 20  1  0
 18 21  1  0
 21 22  2  0
 21 23  1  0
 17 24  1  0
 24 25  2  0
 25  8  1  0
 25 14  1  0
  1 26  1  0
  1 27  1  0
  1 28  1  0
  2 29  1  0
  2 30  1  0
 11 31  1  0
 13 32  1  0
 15 33  1  0
 16 34  1  0
 19 35  1  0
 19 36  1  0
 19 37  1  0
 20 38  1  0
 20 39  1  0
 20 40  1  0
 24 41  1  0
M  CHG  2  11  -1  23  -1
M  END
>  <UniqueID>  (87) 
87

>  <SMILES>  (87) 
CCC(=O)OC(=O)n1c(C([NH-])=O)cc2ccc(C(C)(C)C(=O)[O-])cc21

>  <Energy>  (87) 
80.02259765563377

>  <Genealogy>  (87) 
CCC(=O)OC(=O)n1c(C([NH-])=O)cc2ccc(C(C)(C)C(=O)[O-])cc21 (protonated)
CCC(=O)OC(=O)n1c(C([NH-])=O)cc2ccc(C(C)(C)C(=O)[O-])cc21 (3D coordinates assigned)
CCC(=O)OC(=O)n1c(C([NH-])=O)cc2ccc(C(C)(C)C(=O)[O-])cc21 (optimized conformer: 80.02259765563377 kcal/mol)

>  <smiles>  (87) 
CCC(=O)OC(=O)n1c(C(N)=O)cc2ccc(C(C)(C)C(=O)O)cc21

>  <score_type>  (87) 
oracle

>  <origin>  (87) 
adg

>  <m_score__min__energy>  (87) 
-7.0800000000000001

>  <m_primary>  (87) 
energy

$$$$
88:0
     RDKit          3D

 33 34  0  0  0  0  0  0  0  0999 V2000
  148.7930  155.9010  133.0390 N   0  0  0  0  0  0  0  0  0  0  0  0
  148.7090  157.2800  132.6940 C   0  0  0  0  0  0  0  0  0  0  0  0
  149.6500  157.8140  132.0480 O   0  0  0  0  0  0  0  0  0  0  0  0
  147.5100  158.0760  133.0310 C   0  0  0  0  0  0  0  0  0  0  0  0
  147.5440  159.4480  133.2700 C   0  0  0  0  0  0  0  0  0  0  0  0
  146.2320  159.8180  133.4600 C   0  0  0  0  0  0  0  0  0  0  0  0
  145.6890  161.0620  133.7580 C   0  0  0  0  0  0  0  0  0  0  0  0
  144.3000  161.1480  133.9440 C   0  0  0  0  0  0  0  0  0  0  0  0
  143.4790  159.9970  133.8200 C   0  0  0  0  0  0  0  0  0  0  0  0
  141.9980  160.0900  134.0850 C   0  0  0  0  0  0  0  0  0  0  0  0
  141.3090  159.1430  133.3470 F   0  0  0  0  0  0  0  0  0  0  0  0
  141.7610  159.8730  135.4290 F   0  0  0  0  0  0  0  0  0  0  0  0
  141.5160  161.3410  133.7370 F   0  0  0  0  0  0  0  0  0  0  0  0
  144.0740  158.7450  133.5400 C   0  0  0  0  0  0  0  0  0  0  0  0
  145.4590  158.6930  133.3410 C   0  0  0  0  0  0  0  0  0  0  0  0
  146.2290  157.6130  133.0800 N   0  0  0  0  0  0  0  0  0  0  0  0
  145.7870  156.2500  132.9900 C   0  0  0  0  0  0  0  0  0  0  0  0
  146.3270  155.4640  132.1650 O   0  0  0  0  0  0  0  0  0  0  0  0
  144.7390  155.8080  133.8030 O   0  0  0  0  0  0  0  0  0  0  0  0
  144.6860  154.4910  134.3450 C   0  0  0  0  0  0  0  0  0  0  0  0
  145.2450  154.4790  135.6390 O   0  0  0  0  0  0  0  0  0  0  0  0
  146.9070  154.1090  135.5190 P   0  0  1  0  0  0  0  0  0  0  0  0
  147.7060  155.3790  135.7000 O   0  0  0  0  0  0  0  0  0  0  0  0
  147.3530  153.0060  136.7230 O   0  0  0  0  0  0  0  0  0  0  0  0
  147.2510  153.4500  133.9980 O   0  0  0  0  0  0  0  0  0  0  0  0
  148.0130  155.4240  133.5430 H   0  0  0  0  0  0  0  0  0  0  0  0
  148.4311  160.0977  133.3004 H   0  0  0  0  0  0  0  0  0  0  0  0
  146.3284  161.9528  133.8455 H   0  0  0  0  0  0  0  0  0  0  0  0
  143.8430  162.1182  134.1885 H   0  0  0  0  0  0  0  0  0  0  0  0
  143.4625  157.8326  133.4799 H   0  0  0  0  0  0  0  0  0  0  0  0
  143.6381  154.1608  134.3979 H   0  0  0  0  0  0  0  0  0  0  0  0
  145.2594  153.8110  133.6978 H   0  0  0  0  0  0  0  0  0  0  0  0
  147.5060  154.2260  133.4390 H   0  0  0  0  0  0  0  0  0  0  0  0
  1  2  1  0
  2  3  2  0
  2  4  1  0
  4  5  2  0
  5  6  1  0
  6  7  2  0
  7  8  1  0
  8  9  2  0
  9 10  1  0
 10 11  1  0
 10 12  1  0
 10 13  1  0
  9 14  1  0
 14 15  2  0
 15 16  1  0
 16 17  1  0
 17 18  2  0
 17 19  1  0
 19 20  1  0
 20 21  1  0
 21 22  1  0
 22 23  2  0
 22 24  1  1
 22 25  1  0
 16  4  1  0
 15  6  1  0
  1 26  1  0
  5 27  1  0
  7 28  1  0
  8 29  1  0
 14 30  1  0
 20 31  1  0
 20 32  1  0
 25 33  1  0
M  CHG  2   1  -1  24  -1
M  END
>  <UniqueID>  (88) 
88

>  <SMILES>  (88) 
[NH-]C(=O)c1cc2ccc(C(F)(F)F)cc2n1C(=O)OCO[P@@](=O)([O-])O

>  <Energy>  (88) 
69.67603180812071

>  <Genealogy>  (88) 
[NH-]C(=O)c1cc2ccc(C(F)(F)F)cc2n1C(=O)OCOP(=O)([O-])O (protonated)
[NH-]C(=O)c1cc2ccc(C(F)(F)F)cc2n1C(=O)OCO[P@@](=O)([O-])O (chirality)
[NH-]C(=O)c1cc2ccc(C(F)(F)F)cc2n1C(=O)OCO[P@@](=O)([O-])O (3D coordinates assigned)
[NH-]C(=O)c1cc2ccc(C(F)(F)F)cc2n1C(=O)OCO[P@@](=O)([O-])O (optimized conformer: 69.67603180812071 kcal/mol)

>  <smiles>  (88) 
NC(=O)c1cc2ccc(C(F)(F)F)cc2n1C(=O)OCOP(=O)(O)O

>  <score_type>  (88) 
oracle

>  <origin>  (88) 
adg

>  <m_score__min__energy>  (88) 
-5.5800000000000001

>  <m_primary>  (88) 
energy

$$$$
89:0
     RDKit          3D

 38 39  0  0  0  0  0  0  0  0999 V2000
  140.7130  156.7590  136.7030 C   0  0  0  0  0  0  0  0  0  0  0  0
  140.2590  158.1410  136.2200 C   0  0  1  0  0  0  0  0  0  0  0  0
  140.8350  159.2370  137.0790 C   0  0  0  0  0  0  0  0  0  0  0  0
  140.5960  160.4450  136.8020 O   0  0  0  0  0  0  0  0  0  0  0  0
  141.6830  158.9350  138.1400 O   0  0  0  0  0  0  0  0  0  0  0  0
  140.6220  158.3340  134.8050 N   0  0  0  0  0  0  0  0  0  0  0  0
  139.6960  157.9570  133.7340 C   0  0  0  0  0  0  0  0  0  0  0  0
  141.9250  158.8060  134.4280 C   0  0  0  0  0  0  0  0  0  0  0  0
  142.1190  160.1710  134.1080 C   0  0  0  0  0  0  0  0  0  0  0  0
  143.3890  160.6470  133.7460 C   0  0  0  0  0  0  0  0  0  0  0  0
  144.4440  159.7370  133.7230 C   0  0  0  0  0  0  0  0  0  0  0  0
  145.7620  159.9220  133.3740 C   0  0  0  0  0  0  0  0  0  0  0  0
  146.3580  158.6730  133.5130 C   0  0  0  0  0  0  0  0  0  0  0  0
  147.8000  158.4340  133.2910 C   0  0  0  0  0  0  0  0  0  0  0  0
  148.4850  157.3660  133.9510 N   0  0  0  0  0  0  0  0  0  0  0  0
  148.4500  159.2230  132.5520 O   0  0  0  0  0  0  0  0  0  0  0  0
  145.4460  157.7450  133.9210 N   0  0  0  0  0  0  0  0  0  0  0  0
  145.6440  156.3260  134.0670 C   0  0  0  0  0  0  0  0  0  0  0  0
  145.3210  155.5490  133.1250 O   0  0  0  0  0  0  0  0  0  0  0  0
  146.1860  155.8200  135.2560 O   0  0  0  0  0  0  0  0  0  0  0  0
  147.0820  154.7480  135.3380 C   0  0  0  0  0  0  0  0  0  0  0  0
  148.0880  154.6730  134.5830 O   0  0  0  0  0  0  0  0  0  0  0  0
  146.8650  153.7550  136.2830 O   0  0  0  0  0  0  0  0  0  0  0  0
  144.2770  158.4140  134.0500 C   0  0  0  0  0  0  0  0  0  0  0  0
  143.0180  157.9140  134.4030 C   0  0  0  0  0  0  0  0  0  0  0  0
  140.7196  156.7389  137.8028 H   0  0  0  0  0  0  0  0  0  0  0  0
  140.0193  155.9928  136.3264 H   0  0  0  0  0  0  0  0  0  0  0  0
  141.7259  156.5535  136.3264 H   0  0  0  0  0  0  0  0  0  0  0  0
  139.1638  158.1924  136.3090 H   0  0  0  0  0  0  0  0  0  0  0  0
  138.7621  157.5768  134.1737 H   0  0  0  0  0  0  0  0  0  0  0  0
  139.4767  158.8374  133.1121 H   0  0  0  0  0  0  0  0  0  0  0  0
  140.1540  157.1737  133.1121 H   0  0  0  0  0  0  0  0  0  0  0  0
  141.2666  160.8654  134.1433 H   0  0  0  0  0  0  0  0  0  0  0  0
  143.5464  161.7048  133.4886 H   0  0  0  0  0  0  0  0  0  0  0  0
  146.2421  160.8583  133.0533 H   0  0  0  0  0  0  0  0  0  0  0  0
  148.0200  156.8140  134.7060 H   0  0  0  0  0  0  0  0  0  0  0  0
  149.4950  157.1860  133.7450 H   0  0  0  0  0  0  0  0  0  0  0  0
  142.8841  156.8516  134.6548 H   0  0  0  0  0  0  0  0  0  0  0  0
  1  2  1  0
  2  3  1  0
  3  4  2  0
  3  5  1  0
  2  6  1  0
  6  7  1  0
  6  8  1  0
  8  9  2  0
  9 10  1  0
 10 11  2  0
 11 12  1  0
 12 13  2  0
 13 14  1  0
 14 15  1  0
 14 16  2  0
 13 17  1  0
 17 18  1  0
 18 19  2  0
 18 20  1  0
 20 21  1  0
 21 22  2  0
 21 23  1  0
 17 24  1  0
 24 25  2  0
 25  8  1  0
 24 11  1  0
  1 26  1  0
  1 27  1  0
  1 28  1  0
  2 29  1  6
  7 30  1  0
  7 31  1  0
  7 32  1  0
  9 33  1  0
 10 34  1  0
 12 35  1  0
 15 36  1  0
 15 37  1  0
 25 38  1  0
M  CHG  2   5  -1  23  -1
M  END
>  <UniqueID>  (89) 
89

>  <SMILES>  (89) 
C[C@@H](C(=O)[O-])N(C)c1ccc2cc(C(N)=O)n(C(=O)OC(=O)[O-])c2c1

>  <Energy>  (89) 
81.58402636457511

>  <Genealogy>  (89) 
CC(C(=O)[O-])N(C)c1ccc2cc(C(N)=O)n(C(=O)OC(=O)[O-])c2c1 (protonated)
C[C@@H](C(=O)[O-])N(C)c1ccc2cc(C(N)=O)n(C(=O)OC(=O)[O-])c2c1 (chirality)
C[C@@H](C(=O)[O-])N(C)c1ccc2cc(C(N)=O)n(C(=O)OC(=O)[O-])c2c1 (3D coordinates assigned)
C[C@@H](C(=O)[O-])N(C)c1ccc2cc(C(N)=O)n(C(=O)OC(=O)[O-])c2c1 (optimized conformer: 81.58402636457511 kcal/mol)

>  <smiles>  (89) 
CC(C(=O)O)N(C)c1ccc2cc(C(N)=O)n(C(=O)OC(=O)O)c2c1

>  <score_type>  (89) 
oracle

>  <origin>  (89) 
adg

>  <m_score__min__energy>  (89) 
-6.7800000000000002

>  <m_primary>  (89) 
energy

$$$$
90:0
     RDKit          3D

 38 39  0  0  0  0  0  0  0  0999 V2000
  147.6430  154.1760  134.8600 C   0  0  0  0  0  0  0  0  0  0  0  0
  147.4960  153.9500  133.5500 C   0  0  0  0  0  0  0  0  0  0  0  0
  148.6650  153.9050  132.6500 C   0  0  0  0  0  0  0  0  0  0  0  0
  149.4320  154.8950  132.5180 O   0  0  0  0  0  0  0  0  0  0  0  0
  146.1800  153.7890  132.9910 N   0  0  0  0  0  0  0  0  0  0  0  0
  145.7480  152.4380  132.6230 C   0  0  0  0  0  0  0  0  0  0  0  0
  145.2990  154.9340  132.8870 C   0  0  0  0  0  0  0  0  0  0  0  0
  144.7930  155.2220  131.7680 O   0  0  0  0  0  0  0  0  0  0  0  0
  144.9700  155.8050  134.0420 C   0  0  0  0  0  0  0  0  0  0  0  0
  144.7920  155.3190  135.1910 O   0  0  0  0  0  0  0  0  0  0  0  0
  144.8640  157.2250  133.8670 N   0  0  0  0  0  0  0  0  0  0  0  0
  145.8030  158.0650  133.3490 C   0  0  0  0  0  0  0  0  0  0  0  0
  147.1770  157.6690  132.9600 C   0  0  0  0  0  0  0  0  0  0  0  0
  147.4060  156.7790  131.8650 N   0  0  0  0  0  0  0  0  0  0  0  0
  148.1670  158.1260  133.5890 O   0  0  0  0  0  0  0  0  0  0  0  0
  145.3030  159.3660  133.2830 C   0  0  0  0  0  0  0  0  0  0  0  0
  144.0160  159.2880  133.7680 C   0  0  0  0  0  0  0  0  0  0  0  0
  143.0530  160.2820  133.9230 C   0  0  0  0  0  0  0  0  0  0  0  0
  141.7970  159.9080  134.4300 C   0  0  0  0  0  0  0  0  0  0  0  0
  141.5160  158.5530  134.7470 C   0  0  0  0  0  0  0  0  0  0  0  0
  140.1780  158.1710  135.3260 C   0  0  0  0  0  0  0  0  0  0  0  0
  139.8620  158.9830  136.4030 F   0  0  0  0  0  0  0  0  0  0  0  0
  139.1790  158.3030  134.3780 F   0  0  0  0  0  0  0  0  0  0  0  0
  140.2240  156.8570  135.7530 F   0  0  0  0  0  0  0  0  0  0  0  0
  142.5290  157.5790  134.5960 C   0  0  0  0  0  0  0  0  0  0  0  0
  143.7750  157.9840  134.1070 C   0  0  0  0  0  0  0  0  0  0  0  0
  146.7601  154.2060  135.5154 H   0  0  0  0  0  0  0  0  0  0  0  0
  148.6468  154.3318  135.2820 H   0  0  0  0  0  0  0  0  0  0  0  0
  148.8709  152.9859  132.0817 H   0  0  0  0  0  0  0  0  0  0  0  0
  145.5606  151.8519  133.5348 H   0  0  0  0  0  0  0  0  0  0  0  0
  144.8241  152.4975  132.0290 H   0  0  0  0  0  0  0  0  0  0  0  0
  146.5350  151.9504  132.0290 H   0  0  0  0  0  0  0  0  0  0  0  0
  148.3820  156.5370  131.5840 H   0  0  0  0  0  0  0  0  0  0  0  0
  146.6180  156.3220  131.3560 H   0  0  0  0  0  0  0  0  0  0  0  0
  145.8256  160.2635  132.9206 H   0  0  0  0  0  0  0  0  0  0  0  0
  143.2688  161.3273  133.6569 H   0  0  0  0  0  0  0  0  0  0  0  0
  141.0225  160.6740  134.5830 H   0  0  0  0  0  0  0  0  0  0  0  0
  142.3417  156.5270  134.8570 H   0  0  0  0  0  0  0  0  0  0  0  0
  1  2  2  0
  2  3  1  0
  3  4  2  0
  2  5  1  0
  5  6  1  0
  5  7  1  0
  7  8  2  0
  7  9  1  0
  9 10  2  0
  9 11  1  0
 11 12  1  0
 12 13  1  0
 13 14  1  0
 13 15  2  0
 12 16  2  0
 16 17  1  0
 17 18  2  0
 18 19  1  0
 19 20  2  0
 20 21  1  0
 21 22  1  0
 21 23  1  0
 21 24  1  0
 20 25  1  0
 25 26  2  0
 26 11  1  0
 26 17  1  0
  1 27  1  0
  1 28  1  0
  3 29  1  0
  6 30  1  0
  6 31  1  0
  6 32  1  0
 14 33  1  0
 14 34  1  0
 16 35  1  0
 18 36  1  0
 19 37  1  0
 25 38  1  0
M  END
>  <UniqueID>  (90) 
90

>  <SMILES>  (90) 
C=C(C=O)N(C)C(=O)C(=O)n1c(C(N)=O)cc2ccc(C(F)(F)F)cc21

>  <Energy>  (90) 
86.04235353442505

>  <Genealogy>  (90) 
C=C(C=O)N(C)C(=O)C(=O)n1c(C(N)=O)cc2ccc(C(F)(F)F)cc21 (3D coordinates assigned)
C=C(C=O)N(C)C(=O)C(=O)n1c(C(N)=O)cc2ccc(C(F)(F)F)cc21 (optimized conformer: 86.04235353442505 kcal/mol)

>  <smiles>  (90) 
C=C(C=O)N(C)C(=O)C(=O)n1c(C(N)=O)cc2ccc(C(F)(F)F)cc21

>  <score_type>  (90) 
oracle

>  <origin>  (90) 
adg

>  <m_score__min__energy>  (90) 
-6.29

>  <m_primary>  (90) 
energy

$$$$
91:0
     RDKit          3D

 38 40  0  0  0  0  0  0  0  0999 V2000
  139.0620  159.8990  131.4810 C   0  0  0  0  0  0  0  0  0  0  0  0
  139.4880  158.6340  132.1480 C   0  0  0  0  0  0  0  0  0  0  0  0
  138.7700  157.5370  132.1990 O   0  0  0  0  0  0  0  0  0  0  0  0
  139.4810  156.6740  132.8880 C   0  0  0  0  0  0  0  0  0  0  0  0
  139.1040  155.5000  133.1390 O   0  0  0  0  0  0  0  0  0  0  0  0
  140.6300  157.1700  133.2880 O   0  0  0  0  0  0  0  0  0  0  0  0
  140.6630  158.4030  132.8410 C   0  0  0  0  0  0  0  0  0  0  0  0
  141.7920  159.3620  133.0660 C   0  0  0  0  0  0  0  0  0  0  0  0
  142.9330  158.6770  133.5800 O   0  0  0  0  0  0  0  0  0  0  0  0
  144.2470  159.1040  133.3600 C   0  0  0  0  0  0  0  0  0  0  0  0
  144.4930  160.3230  133.1450 O   0  0  0  0  0  0  0  0  0  0  0  0
  145.3180  158.1470  133.3670 N   0  0  0  0  0  0  0  0  0  0  0  0
  145.2490  156.8300  133.7060 C   0  0  0  0  0  0  0  0  0  0  0  0
  144.0780  156.1480  134.2910 C   0  0  0  0  0  0  0  0  0  0  0  0
  142.8200  156.1220  133.6110 N   0  0  0  0  0  0  0  0  0  0  0  0
  144.1720  155.6260  135.4330 O   0  0  0  0  0  0  0  0  0  0  0  0
  146.4700  156.2000  133.4800 C   0  0  0  0  0  0  0  0  0  0  0  0
  147.3040  157.1860  133.0040 C   0  0  0  0  0  0  0  0  0  0  0  0
  148.6350  157.1140  132.6010 C   0  0  0  0  0  0  0  0  0  0  0  0
  149.2400  158.2850  132.1150 C   0  0  0  0  0  0  0  0  0  0  0  0
  148.5090  159.4970  132.0410 C   0  0  0  0  0  0  0  0  0  0  0  0
  149.1520  160.7290  131.4730 C   0  0  0  0  0  0  0  0  0  0  0  0
  149.5190  160.4750  129.7500 Cl  0  0  0  0  0  0  0  0  0  0  0  0
  147.1570  159.5290  132.4450 C   0  0  0  0  0  0  0  0  0  0  0  0
  146.5850  158.3520  132.9440 C   0  0  0  0  0  0  0  0  0  0  0  0
  138.8094  160.6492  132.2448 H   0  0  0  0  0  0  0  0  0  0  0  0
  139.8825  160.2768  130.8532 H   0  0  0  0  0  0  0  0  0  0  0  0
  138.1801  159.7035  130.8532 H   0  0  0  0  0  0  0  0  0  0  0  0
  142.0564  159.8406  132.1115 H   0  0  0  0  0  0  0  0  0  0  0  0
  141.4742  160.1218  133.7952 H   0  0  0  0  0  0  0  0  0  0  0  0
  142.0150  155.5980  134.0200 H   0  0  0  0  0  0  0  0  0  0  0  0
  142.6590  156.6910  132.7520 H   0  0  0  0  0  0  0  0  0  0  0  0
  146.7155  155.1407  133.6463 H   0  0  0  0  0  0  0  0  0  0  0  0
  149.1953  156.1693  132.6613 H   0  0  0  0  0  0  0  0  0  0  0  0
  150.2903  158.2611  131.7890 H   0  0  0  0  0  0  0  0  0  0  0  0
  148.4651  161.5816  131.5786 H   0  0  0  0  0  0  0  0  0  0  0  0
  150.0852  160.9365  132.0172 H   0  0  0  0  0  0  0  0  0  0  0  0
  146.5676  160.4547  132.3699 H   0  0  0  0  0  0  0  0  0  0  0  0
  1  2  1  0
  2  3  1  0
  3  4  1  0
  4  5  2  0
  4  6  1  0
  6  7  1  0
  7  8  1  0
  8  9  1  0
  9 10  1  0
 10 11  2  0
 10 12  1  0
 12 13  1  0
 13 14  1  0
 14 15  1  0
 14 16  2  0
 13 17  2  0
 17 18  1  0
 18 19  2  0
 19 20  1  0
 20 21  2  0
 21 22  1  0
 22 23  1  0
 21 24  1  0
 24 25  2  0
  7  2  2  0
 25 12  1  0
 25 18  1  0
  1 26  1  0
  1 27  1  0
  1 28  1  0
  8 29  1  0
  8 30  1  0
 15 31  1  0
 15 32  1  0
 17 33  1  0
 19 34  1  0
 20 35  1  0
 22 36  1  0
 22 37  1  0
 24 38  1  0
M  END
>  <UniqueID>  (91) 
91

>  <SMILES>  (91) 
Cc1oc(=O)oc1COC(=O)n1c(C(N)=O)cc2ccc(CCl)cc21

>  <Energy>  (91) 
107.14937767228048

>  <Genealogy>  (91) 
Cc1oc(=O)oc1COC(=O)n1c(C(N)=O)cc2ccc(CCl)cc21 (3D coordinates assigned)
Cc1oc(=O)oc1COC(=O)n1c(C(N)=O)cc2ccc(CCl)cc21 (optimized conformer: 107.14937767228048 kcal/mol)

>  <smiles>  (91) 
Cc1oc(=O)oc1COC(=O)n1c(C(N)=O)cc2ccc(CCl)cc21

>  <score_type>  (91) 
oracle

>  <origin>  (91) 
adg

>  <m_score__min__energy>  (91) 
-7.3799999999999999

>  <m_primary>  (91) 
energy

$$$$
92:0
     RDKit          3D

 37 39  0  0  0  0  0  0  0  0999 V2000
  139.6620  157.7290  135.4400 C   0  0  0  0  0  0  0  0  0  0  0  0
  140.0100  158.1740  134.0580 C   0  0  0  0  0  0  0  0  0  0  0  0
  139.5390  159.2550  133.4830 O   0  0  0  0  0  0  0  0  0  0  0  0
  140.0830  159.2910  132.2880 C   0  0  0  0  0  0  0  0  0  0  0  0
  139.8580  160.1990  131.4450 O   0  0  0  0  0  0  0  0  0  0  0  0
  140.8880  158.2770  132.0680 O   0  0  0  0  0  0  0  0  0  0  0  0
  140.8660  157.5550  133.1630 C   0  0  0  0  0  0  0  0  0  0  0  0
  141.6480  156.2940  133.3610 C   0  0  0  0  0  0  0  0  0  0  0  0
  143.0130  156.5990  133.6320 O   0  0  0  0  0  0  0  0  0  0  0  0
  143.4240  157.7770  134.2680 C   0  0  0  0  0  0  0  0  0  0  0  0
  142.7890  158.2180  135.2640 O   0  0  0  0  0  0  0  0  0  0  0  0
  144.5590  158.5000  133.7660 N   0  0  0  0  0  0  0  0  0  0  0  0
  144.6760  159.8460  133.5850 C   0  0  0  0  0  0  0  0  0  0  0  0
  143.5900  160.8370  133.7280 C   0  0  0  0  0  0  0  0  0  0  0  0
  142.2480  160.3960  133.9270 N   0  0  0  0  0  0  0  0  0  0  0  0
  143.8360  162.0720  133.7130 O   0  0  0  0  0  0  0  0  0  0  0  0
  145.9630  160.1710  133.1620 C   0  0  0  0  0  0  0  0  0  0  0  0
  146.6350  158.9730  133.0830 C   0  0  0  0  0  0  0  0  0  0  0  0
  147.9570  158.7090  132.7400 C   0  0  0  0  0  0  0  0  0  0  0  0
  148.3960  157.3760  132.7830 C   0  0  0  0  0  0  0  0  0  0  0  0
  147.5100  156.3310  133.1570 C   0  0  0  0  0  0  0  0  0  0  0  0
  148.0110  154.9130  133.2620 C   0  0  0  0  0  0  0  0  0  0  0  0
  149.2520  154.8230  132.6590 F   0  0  0  0  0  0  0  0  0  0  0  0
  147.1400  154.0390  132.6340 F   0  0  0  0  0  0  0  0  0  0  0  0
  148.1250  154.5320  134.5880 F   0  0  0  0  0  0  0  0  0  0  0  0
  146.1810  156.6450  133.5240 C   0  0  0  0  0  0  0  0  0  0  0  0
  145.7660  157.9800  133.4530 C   0  0  0  0  0  0  0  0  0  0  0  0
  140.1679  158.3759  136.1718 H   0  0  0  0  0  0  0  0  0  0  0  0
  138.5734  157.7949  135.5832 H   0  0  0  0  0  0  0  0  0  0  0  0
  139.9883  156.6883  135.5832 H   0  0  0  0  0  0  0  0  0  0  0  0
  141.2257  155.7338  134.2083 H   0  0  0  0  0  0  0  0  0  0  0  0
  141.5907  155.6885  132.4445 H   0  0  0  0  0  0  0  0  0  0  0  0
  141.9420  159.4490  133.6110 H   0  0  0  0  0  0  0  0  0  0  0  0
  146.3581  161.1730  132.9386 H   0  0  0  0  0  0  0  0  0  0  0  0
  148.6382  159.5204  132.4439 H   0  0  0  0  0  0  0  0  0  0  0  0
  149.4383  157.1383  132.5240 H   0  0  0  0  0  0  0  0  0  0  0  0
  145.4888  155.8579  133.8578 H   0  0  0  0  0  0  0  0  0  0  0  0
  1  2  1  0
  2  3  1  0
  3  4  1  0
  4  5  2  0
  4  6  1  0
  6  7  1  0
  7  8  1  0
  8  9  1  0
  9 10  1  0
 10 11  2  0
 10 12  1  0
 12 13  1  0
 13 14  1  0
 14 15  1  0
 14 16  2  0
 13 17  2  0
 17 18  1  0
 18 19  2  0
 19 20  1  0
 20 21  2  0
 21 22  1  0
 22 23  1  0
 22 24  1  0
 22 25  1  0
 21 26  1  0
 26 27  2  0
  7  2  2  0
 27 12  1  0
 27 18  1  0
  1 28  1  0
  1 29  1  0
  1 30  1  0
  8 31  1  0
  8 32  1  0
 15 33  1  0
 17 34  1  0
 19 35  1  0
 20 36  1  0
 26 37  1  0
M  CHG  1  15  -1
M  END
>  <UniqueID>  (92) 
92

>  <SMILES>  (92) 
Cc1oc(=O)oc1COC(=O)n1c(C([NH-])=O)cc2ccc(C(F)(F)F)cc21

>  <Energy>  (92) 
108.26921638842722

>  <Genealogy>  (92) 
Cc1oc(=O)oc1COC(=O)n1c(C([NH-])=O)cc2ccc(C(F)(F)F)cc21 (protonated)
Cc1oc(=O)oc1COC(=O)n1c(C([NH-])=O)cc2ccc(C(F)(F)F)cc21 (3D coordinates assigned)
Cc1oc(=O)oc1COC(=O)n1c(C([NH-])=O)cc2ccc(C(F)(F)F)cc21 (optimized conformer: 108.26921638842722 kcal/mol)

>  <smiles>  (92) 
Cc1oc(=O)oc1COC(=O)n1c(C(N)=O)cc2ccc(C(F)(F)F)cc21

>  <score_type>  (92) 
oracle

>  <origin>  (92) 
adg

>  <m_score__min__energy>  (92) 
-6.3600000000000003

>  <m_primary>  (92) 
energy

$$$$
93:0
     RDKit          3D

 54 56  0  0  0  0  0  0  0  0999 V2000
  149.3580  159.8540  129.9960 C   0  0  0  0  0  0  0  0  0  0  0  0
  148.8300  158.6930  130.6000 O   0  0  0  0  0  0  0  0  0  0  0  0
  149.4040  158.4920  131.8820 C   0  0  0  0  0  0  0  0  0  0  0  0
  149.1660  159.7200  132.7470 C   0  0  0  0  0  0  0  0  0  0  0  0
  147.6750  160.0340  132.9150 C   0  0  0  0  0  0  0  0  0  0  0  0
  146.7830  158.8540  133.0300 N   0  0  0  0  0  0  0  0  0  0  0  0
  145.3570  159.0770  133.2790 C   0  0  0  0  0  0  0  0  0  0  0  0
  144.8410  160.3910  133.5100 C   0  0  0  0  0  0  0  0  0  0  0  0
  143.4760  160.6110  133.7550 C   0  0  0  0  0  0  0  0  0  0  0  0
  142.6280  159.5140  133.7650 C   0  0  0  0  0  0  0  0  0  0  0  0
  141.2730  159.4450  134.0000 C   0  0  0  0  0  0  0  0  0  0  0  0
  140.9500  158.0930  133.9000 C   0  0  0  0  0  0  0  0  0  0  0  0
  139.5720  157.5620  133.9920 C   0  0  0  0  0  0  0  0  0  0  0  0
  139.0610  156.6790  132.9910 N   0  0  0  0  0  0  0  0  0  0  0  0
  138.8420  157.8640  134.9730 O   0  0  0  0  0  0  0  0  0  0  0  0
  142.0630  157.3580  133.6160 N   0  0  0  0  0  0  0  0  0  0  0  0
  142.1660  155.9320  133.4830 C   0  0  0  0  0  0  0  0  0  0  0  0
  141.1960  155.2760  133.0170 O   0  0  0  0  0  0  0  0  0  0  0  0
  143.3430  155.2880  133.8920 O   0  0  0  0  0  0  0  0  0  0  0  0
  144.0650  154.2860  133.1620 C   0  0  0  0  0  0  0  0  0  0  0  0
  143.2190  153.0070  133.0130 C   0  0  0  0  0  0  0  0  0  0  0  0
  144.3470  154.8620  131.7650 C   0  0  0  0  0  0  0  0  0  0  0  0
  145.4070  153.9750  133.8510 C   0  0  0  0  0  0  0  0  0  0  0  0
  143.0810  158.2450  133.5380 C   0  0  0  0  0  0  0  0  0  0  0  0
  144.4380  157.9880  133.3150 C   0  0  0  0  0  0  0  0  0  0  0  0
  147.2420  157.4760  132.7330 C   0  0  0  0  0  0  0  0  0  0  0  0
  148.7570  157.3070  132.5910 C   0  0  0  0  0  0  0  0  0  0  0  0
  149.6789  160.5597  130.7764 H   0  0  0  0  0  0  0  0  0  0  0  0
  150.2209  159.5818  129.3704 H   0  0  0  0  0  0  0  0  0  0  0  0
  148.5857  160.3254  129.3704 H   0  0  0  0  0  0  0  0  0  0  0  0
  150.4785  158.3044  131.7400 H   0  0  0  0  0  0  0  0  0  0  0  0
  149.6042  159.5432  133.7403 H   0  0  0  0  0  0  0  0  0  0  0  0
  149.6364  160.5796  132.2472 H   0  0  0  0  0  0  0  0  0  0  0  0
  147.5565  160.6385  133.8263 H   0  0  0  0  0  0  0  0  0  0  0  0
  147.3704  160.5545  131.9950 H   0  0  0  0  0  0  0  0  0  0  0  0
  145.5294  161.2489  133.4953 H   0  0  0  0  0  0  0  0  0  0  0  0
  143.0901  161.6254  133.9340 H   0  0  0  0  0  0  0  0  0  0  0  0
  140.5907  160.2794  134.2199 H   0  0  0  0  0  0  0  0  0  0  0  0
  139.6120  156.4500  132.1360 H   0  0  0  0  0  0  0  0  0  0  0  0
  138.1010  156.2780  133.0880 H   0  0  0  0  0  0  0  0  0  0  0  0
  142.9623  152.6190  134.0098 H   0  0  0  0  0  0  0  0  0  0  0  0
  142.2962  153.2399  132.4614 H   0  0  0  0  0  0  0  0  0  0  0  0
  143.7944  152.2489  132.4614 H   0  0  0  0  0  0  0  0  0  0  0  0
  144.8287  155.8459  131.8645 H   0  0  0  0  0  0  0  0  0  0  0  0
  145.0137  154.1812  131.2154 H   0  0  0  0  0  0  0  0  0  0  0  0
  143.4004  154.9711  131.2154 H   0  0  0  0  0  0  0  0  0  0  0  0
  145.2745  154.0057  134.9426 H   0  0  0  0  0  0  0  0  0  0  0  0
  145.7497  152.9736  133.5512 H   0  0  0  0  0  0  0  0  0  0  0  0
  146.1552  154.7236  133.5512 H   0  0  0  0  0  0  0  0  0  0  0  0
  144.7919  156.9568  133.1690 H   0  0  0  0  0  0  0  0  0  0  0  0
  146.9021  156.8214  133.5491 H   0  0  0  0  0  0  0  0  0  0  0  0
  146.8141  157.2176  131.7531 H   0  0  0  0  0  0  0  0  0  0  0  0
  149.1983  157.2100  133.5939 H   0  0  0  0  0  0  0  0  0  0  0  0
  148.9415  156.4082  131.9843 H   0  0  0  0  0  0  0  0  0  0  0  0
  1  2  1  0
  2  3  1  0
  3  4  1  0
  4  5  1  0
  5  6  1  0
  6  7  1  0
  7  8  2  0
  8  9  1  0
  9 10  2  0
 10 11  1  0
 11 12  2  0
 12 13  1  0
 13 14  1  0
 13 15  2  0
 12 16  1  0
 16 17  1  0
 17 18  2  0
 17 19  1  0
 19 20  1  0
 20 21  1  0
 20 22  1  0
 20 23  1  0
 16 24  1  0
 24 25  2  0
  6 26  1  0
 26 27  1  0
 27  3  1  0
 25  7  1  0
 24 10  1  0
  1 28  1  0
  1 29  1  0
  1 30  1  0
  3 31  1  0
  4 32  1  0
  4 33  1  0
  5 34  1  0
  5 35  1  0
  8 36  1  0
  9 37  1  0
 11 38  1  0
 14 39  1  0
 14 40  1  0
 21 41  1  0
 21 42  1  0
 21 43  1  0
 22 44  1  0
 22 45  1  0
 22 46  1  0
 23 47  1  0
 23 48  1  0
 23 49  1  0
 25 50  1  0
 26 51  1  0
 26 52  1  0
 27 53  1  0
 27 54  1  0
M  END
>  <UniqueID>  (93) 
93

>  <SMILES>  (93) 
COC1CCN(c2ccc3cc(C(N)=O)n(C(=O)OC(C)(C)C)c3c2)CC1

>  <Energy>  (93) 
96.51315674710591

>  <Genealogy>  (93) 
COC1CCN(c2ccc3cc(C(N)=O)n(C(=O)OC(C)(C)C)c3c2)CC1 (3D coordinates assigned)
COC1CCN(c2ccc3cc(C(N)=O)n(C(=O)OC(C)(C)C)c3c2)CC1 (nonaromatic ring conformer: 96.51315674710591 kcal/mol)

>  <smiles>  (93) 
COC1CCN(c2ccc3cc(C(N)=O)n(C(=O)OC(C)(C)C)c3c2)CC1

>  <score_type>  (93) 
oracle

>  <origin>  (93) 
adg

>  <m_score__min__energy>  (93) 
-8.1500000000000004

>  <m_primary>  (93) 
energy

$$$$
94:0
     RDKit          3D

 46 48  0  0  0  0  0  0  0  0999 V2000
  149.9050  158.1630  131.8580 C   0  0  0  0  0  0  0  0  0  0  0  0
  148.6940  157.6600  132.5160 N   0  0  0  0  0  0  0  0  0  0  0  0
  148.5810  156.2220  132.7960 C   0  0  0  0  0  0  0  0  0  0  0  0
  147.6220  158.5670  132.8820 C   0  0  0  0  0  0  0  0  0  0  0  0
  147.8720  159.9580  133.0450 C   0  0  0  0  0  0  0  0  0  0  0  0
  146.8400  160.8430  133.3990 C   0  0  0  0  0  0  0  0  0  0  0  0
  145.5640  160.3220  133.5760 C   0  0  0  0  0  0  0  0  0  0  0  0
  144.3930  160.9520  133.9290 C   0  0  0  0  0  0  0  0  0  0  0  0
  143.4280  159.9500  133.9550 C   0  0  0  0  0  0  0  0  0  0  0  0
  141.9930  160.2140  134.1920 C   0  0  0  0  0  0  0  0  0  0  0  0
  141.2650  159.4870  135.1780 N   0  0  0  0  0  0  0  0  0  0  0  0
  141.3880  161.0570  133.4760 O   0  0  0  0  0  0  0  0  0  0  0  0
  143.9820  158.7430  133.6440 N   0  0  0  0  0  0  0  0  0  0  0  0
  143.3450  157.4540  133.6290 C   0  0  0  0  0  0  0  0  0  0  0  0
  143.2760  156.7950  132.5550 O   0  0  0  0  0  0  0  0  0  0  0  0
  142.7730  156.9520  134.8010 O   0  0  0  0  0  0  0  0  0  0  0  0
  141.8150  155.9010  134.8110 C   0  0  0  0  0  0  0  0  0  0  0  0
  140.5050  156.4550  134.7720 O   0  0  0  0  0  0  0  0  0  0  0  0
  139.7050  156.4390  133.6240 C   0  0  0  0  0  0  0  0  0  0  0  0
  139.1040  155.3810  133.2880 O   0  0  0  0  0  0  0  0  0  0  0  0
  139.5610  157.6650  132.8100 C   0  0  0  0  0  0  0  0  0  0  0  0
  138.2960  158.2360  132.5980 C   0  0  0  0  0  0  0  0  0  0  0  0
  138.1710  159.3900  131.8230 C   0  0  0  0  0  0  0  0  0  0  0  0
  139.3110  159.9680  131.2640 C   0  0  0  0  0  0  0  0  0  0  0  0
  140.5320  159.4080  131.4730 N   0  0  0  0  0  0  0  0  0  0  0  0
  140.6800  158.2820  132.2240 C   0  0  0  0  0  0  0  0  0  0  0  0
  145.2900  158.9910  133.4100 C   0  0  0  0  0  0  0  0  0  0  0  0
  146.3040  158.0820  133.0820 C   0  0  0  0  0  0  0  0  0  0  0  0
  150.6372  158.4671  132.6205 H   0  0  0  0  0  0  0  0  0  0  0  0
  150.3374  157.3701  131.2301 H   0  0  0  0  0  0  0  0  0  0  0  0
  149.6484  159.0289  131.2301 H   0  0  0  0  0  0  0  0  0  0  0  0
  148.5683  156.0602  133.8840 H   0  0  0  0  0  0  0  0  0  0  0  0
  147.6497  155.8350  132.3568 H   0  0  0  0  0  0  0  0  0  0  0  0
  149.4404  155.6943  132.3568 H   0  0  0  0  0  0  0  0  0  0  0  0
  148.8895  160.3467  132.8914 H   0  0  0  0  0  0  0  0  0  0  0  0
  147.0363  161.9171  133.5322 H   0  0  0  0  0  0  0  0  0  0  0  0
  144.2500  162.0211  134.1449 H   0  0  0  0  0  0  0  0  0  0  0  0
  141.2510  158.4430  135.1740 H   0  0  0  0  0  0  0  0  0  0  0  0
  141.9674  155.2571  133.9323 H   0  0  0  0  0  0  0  0  0  0  0  0
  141.9342  155.3040  135.7272 H   0  0  0  0  0  0  0  0  0  0  0  0
  137.4027  157.7735  133.0431 H   0  0  0  0  0  0  0  0  0  0  0  0
  137.1816  159.8401  131.6543 H   0  0  0  0  0  0  0  0  0  0  0  0
  139.2218  160.8784  130.6531 H   0  0  0  0  0  0  0  0  0  0  0  0
  141.3760  159.8520  131.0480 H   0  0  0  0  0  0  0  0  0  0  0  0
  141.6816  157.8523  132.3732 H   0  0  0  0  0  0  0  0  0  0  0  0
  146.0819  157.0094  132.9811 H   0  0  0  0  0  0  0  0  0  0  0  0
  1  2  1  0
  2  3  1  0
  2  4  1  0
  4  5  2  0
  5  6  1  0
  6  7  2  0
  7  8  1  0
  8  9  2  0
  9 10  1  0
 10 11  1  0
 10 12  2  0
  9 13  1  0
 13 14  1  0
 14 15  2  0
 14 16  1  0
 16 17  1  0
 17 18  1  0
 18 19  1  0
 19 20  2  0
 19 21  1  0
 21 22  2  0
 22 23  1  0
 23 24  2  0
 24 25  1  0
 25 26  2  0
 13 27  1  0
 27 28  2  0
 28  4  1  0
 27  7  1  0
 26 21  1  0
  1 29  1  0
  1 30  1  0
  1 31  1  0
  3 32  1  0
  3 33  1  0
  3 34  1  0
  5 35  1  0
  6 36  1  0
  8 37  1  0
 11 38  1  0
 17 39  1  0
 17 40  1  0
 22 41  1  0
 23 42  1  0
 24 43  1  0
 25 44  1  0
 26 45  1  0
 28 46  1  0
M  CHG  2  11  -1  25   1
M  END
>  <UniqueID>  (94) 
94

>  <SMILES>  (94) 
CN(C)c1ccc2cc(C([NH-])=O)n(C(=O)OCOC(=O)c3ccc[nH+]c3)c2c1

>  <Energy>  (94) 
85.5851545836098

>  <Genealogy>  (94) 
CN(C)c1ccc2cc(C([NH-])=O)n(C(=O)OCOC(=O)c3ccc[nH+]c3)c2c1 (protonated)
CN(C)c1ccc2cc(C([NH-])=O)n(C(=O)OCOC(=O)c3ccc[nH+]c3)c2c1 (3D coordinates assigned)
CN(C)c1ccc2cc(C([NH-])=O)n(C(=O)OCOC(=O)c3ccc[nH+]c3)c2c1 (optimized conformer: 85.5851545836098 kcal/mol)

>  <smiles>  (94) 
CN(C)c1ccc2cc(C(N)=O)n(C(=O)OCOC(=O)c3cccnc3)c2c1

>  <score_type>  (94) 
oracle

>  <origin>  (94) 
adg

>  <m_score__min__energy>  (94) 
-6.6600000000000001

>  <m_primary>  (94) 
energy

$$$$
