0:0
     RDKit          3D

 47 48  0  0  0  0  0  0  0  0999 V2000
  144.9880  154.5870  135.6660 C   0  0  0  0  0  0  0  0  0  0  0  0
  145.9360  154.6680  134.5480 N   0  0  0  0  0  0  0  0  0  0  0  0
  147.3570  154.3820  134.7700 C   0  0  0  0  0  0  0  0  0  0  0  0
  145.4880  155.0040  133.2160 C   0  0  0  0  0  0  0  0  0  0  0  0
  146.3050  154.9440  132.2550 O   0  0  0  0  0  0  0  0  0  0  0  0
  144.0450  155.3550  132.9340 C   0  0  0  0  0  0  0  0  0  0  0  0
  143.7350  156.7850  133.2940 C   0  0  0  0  0  0  0  0  0  0  0  0
  142.4130  157.1690  133.6320 C   0  0  0  0  0  0  0  0  0  0  0  0
  142.1100  158.5080  133.9290 C   0  0  0  0  0  0  0  0  0  0  0  0
  143.1450  159.4370  133.8800 C   0  0  0  0  0  0  0  0  0  0  0  0
  143.1250  160.7970  134.0930 C   0  0  0  0  0  0  0  0  0  0  0  0
  144.4370  161.2230  133.8920 C   0  0  0  0  0  0  0  0  0  0  0  0
  144.8830  162.6160  134.1040 C   0  0  0  0  0  0  0  0  0  0  0  0
  145.9360  162.8900  135.0250 N   0  0  0  0  0  0  0  0  0  0  0  0
  144.3690  163.5640  133.4540 O   0  0  0  0  0  0  0  0  0  0  0  0
  145.2350  160.1680  133.5610 N   0  0  0  0  0  0  0  0  0  0  0  0
  146.6280  160.1860  133.2140 C   0  0  0  0  0  0  0  0  0  0  0  0
  147.3110  161.2230  133.4260 O   0  0  0  0  0  0  0  0  0  0  0  0
  147.2020  159.0550  132.6140 O   0  0  0  0  0  0  0  0  0  0  0  0
  148.4690  158.4670  132.9400 C   0  0  0  0  0  0  0  0  0  0  0  0
  148.4540  156.9530  132.6530 C   0  0  0  0  0  0  0  0  0  0  0  0
  148.8270  158.7390  134.4130 C   0  0  0  0  0  0  0  0  0  0  0  0
  149.5210  159.1330  132.0430 C   0  0  0  0  0  0  0  0  0  0  0  0
  144.4310  159.0830  133.5610 C   0  0  0  0  0  0  0  0  0  0  0  0
  144.7570  157.7590  133.2440 C   0  0  0  0  0  0  0  0  0  0  0  0
  145.5382  154.6340  136.6174 H   0  0  0  0  0  0  0  0  0  0  0  0
  144.2813  155.4280  135.6092 H   0  0  0  0  0  0  0  0  0  0  0  0
  144.4342  153.6383  135.6092 H   0  0  0  0  0  0  0  0  0  0  0  0
  147.5584  154.3415  135.8507 H   0  0  0  0  0  0  0  0  0  0  0  0
  147.6121  153.4145  134.3129 H   0  0  0  0  0  0  0  0  0  0  0  0
  147.9665  155.1755  134.3129 H   0  0  0  0  0  0  0  0  0  0  0  0
  143.8456  155.2066  131.8625 H   0  0  0  0  0  0  0  0  0  0  0  0
  143.4084  154.7023  133.5494 H   0  0  0  0  0  0  0  0  0  0  0  0
  141.6165  156.4109  133.6620 H   0  0  0  0  0  0  0  0  0  0  0  0
  141.0864  158.8128  134.1922 H   0  0  0  0  0  0  0  0  0  0  0  0
  142.2574  161.4164  134.3644 H   0  0  0  0  0  0  0  0  0  0  0  0
  146.9350  162.8570  134.7230 H   0  0  0  0  0  0  0  0  0  0  0  0
  148.4485  156.3996  133.6037 H   0  0  0  0  0  0  0  0  0  0  0  0
  147.5533  156.6982  132.0752 H   0  0  0  0  0  0  0  0  0  0  0  0
  149.3495  156.6804  132.0752 H   0  0  0  0  0  0  0  0  0  0  0  0
  148.1224  158.2037  135.0665 H   0  0  0  0  0  0  0  0  0  0  0  0
  149.8505  158.3887  134.6123 H   0  0  0  0  0  0  0  0  0  0  0  0
  148.7638  159.8189  134.6123 H   0  0  0  0  0  0  0  0  0  0  0  0
  150.2846  159.6164  132.6701 H   0  0  0  0  0  0  0  0  0  0  0  0
  149.9967  158.3711  131.4079 H   0  0  0  0  0  0  0  0  0  0  0  0
  149.0358  159.8889  131.4079 H   0  0  0  0  0  0  0  0  0  0  0  0
  145.7842  157.4837  132.9628 H   0  0  0  0  0  0  0  0  0  0  0  0
  1  2  1  0
  2  3  1  0
  2  4  1  0
  4  5  2  0
  4  6  1  0
  6  7  1  0
  7  8  2  0
  8  9  1  0
  9 10  2  0
 10 11  1  0
 11 12  2  0
 12 13  1  0
 13 14  1  0
 13 15  2  0
 12 16  1  0
 16 17  1  0
 17 18  2  0
 17 19  1  0
 19 20  1  0
 20 21  1  0
 20 22  1  0
 20 23  1  0
 16 24  1  0
 24 25  2  0
 25  7  1  0
 24 10  1  0
  1 26  1  0
  1 27  1  0
  1 28  1  0
  3 29  1  0
  3 30  1  0
  3 31  1  0
  6 32  1  0
  6 33  1  0
  8 34  1  0
  9 35  1  0
 11 36  1  0
 14 37  1  0
 21 38  1  0
 21 39  1  0
 21 40  1  0
 22 41  1  0
 22 42  1  0
 22 43  1  0
 23 44  1  0
 23 45  1  0
 23 46  1  0
 25 47  1  0
M  CHG  1  14  -1
M  END
>  <UniqueID>  (1) 
1

>  <SMILES>  (1) 
CN(C)C(=O)Cc1ccc2cc(C([NH-])=O)n(C(=O)OC(C)(C)C)c2c1

>  <Energy>  (1) 
77.70383878517461

>  <Genealogy>  (1) 
CN(C)C(=O)Cc1ccc2cc(C([NH-])=O)n(C(=O)OC(C)(C)C)c2c1 (protonated)
CN(C)C(=O)Cc1ccc2cc(C([NH-])=O)n(C(=O)OC(C)(C)C)c2c1 (3D coordinates assigned)
CN(C)C(=O)Cc1ccc2cc(C([NH-])=O)n(C(=O)OC(C)(C)C)c2c1 (optimized conformer: 77.70383878517461 kcal/mol)

>  <smiles>  (1) 
CN(C)C(=O)Cc1ccc2cc(C(N)=O)n(C(=O)OC(C)(C)C)c2c1

>  <score_type>  (1) 
oracle

>  <origin>  (1) 
adg

>  <m_score__min__energy>  (1) 
-7.46

>  <m_primary>  (1) 
energy

$$$$
1:0
     RDKit          3D

 51 54  0  0  0  0  0  0  0  0999 V2000
  138.3290  160.4740  130.6010 C   0  0  0  0  0  0  0  0  0  0  0  0
  138.8980  160.2430  131.8840 O   0  0  0  0  0  0  0  0  0  0  0  0
  139.2560  158.9670  132.3300 C   0  0  0  0  0  0  0  0  0  0  0  0
  139.0680  157.9520  131.6030 O   0  0  0  0  0  0  0  0  0  0  0  0
  139.8290  158.8030  133.7010 C   0  0  0  0  0  0  0  0  0  0  0  0
  141.3190  158.9980  133.6620 C   0  0  0  0  0  0  0  0  0  0  0  0
  141.8730  160.2890  133.8470 C   0  0  0  0  0  0  0  0  0  0  0  0
  143.2630  160.4840  133.7970 C   0  0  0  0  0  0  0  0  0  0  0  0
  144.0680  159.3780  133.5400 C   0  0  0  0  0  0  0  0  0  0  0  0
  145.4400  159.2810  133.4700 C   0  0  0  0  0  0  0  0  0  0  0  0
  145.7000  157.9410  133.1980 C   0  0  0  0  0  0  0  0  0  0  0  0
  147.0590  157.4050  132.9870 C   0  0  0  0  0  0  0  0  0  0  0  0
  147.3190  156.4190  131.9860 N   0  0  0  0  0  0  0  0  0  0  0  0
  148.0180  157.8650  133.6630 O   0  0  0  0  0  0  0  0  0  0  0  0
  144.5390  157.2320  133.1130 N   0  0  0  0  0  0  0  0  0  0  0  0
  144.3970  155.8080  132.9750 C   0  0  0  0  0  0  0  0  0  0  0  0
  144.7030  155.2440  131.8890 O   0  0  0  0  0  0  0  0  0  0  0  0
  143.9150  155.0520  134.0500 O   0  0  0  0  0  0  0  0  0  0  0  0
  143.2430  153.8060  133.8960 C   0  0  0  0  0  0  0  0  0  0  0  0
  141.8040  154.0320  133.5480 C   0  0  0  0  0  0  0  0  0  0  0  0
  141.1870  155.1770  133.7230 O   0  0  0  0  0  0  0  0  0  0  0  0
  139.9640  155.0020  133.2870 C   0  0  0  0  0  0  0  0  0  0  0  0
  139.0830  155.9010  133.2980 O   0  0  0  0  0  0  0  0  0  0  0  0
  139.7580  153.7880  132.8370 O   0  0  0  0  0  0  0  0  0  0  0  0
  140.8900  153.1390  132.9940 C   0  0  0  0  0  0  0  0  0  0  0  0
  141.0800  151.7260  132.6000 C   0  0  0  0  0  0  0  0  0  0  0  0
  142.3440  151.1110  132.6340 C   0  0  0  0  0  0  0  0  0  0  0  0
  142.4880  149.7700  132.2640 C   0  0  0  0  0  0  0  0  0  0  0  0
  141.3710  149.0270  131.8740 C   0  0  0  0  0  0  0  0  0  0  0  0
  140.1070  149.6210  131.8620 C   0  0  0  0  0  0  0  0  0  0  0  0
  139.9590  150.9620  132.2290 C   0  0  0  0  0  0  0  0  0  0  0  0
  143.5480  158.1270  133.3260 C   0  0  0  0  0  0  0  0  0  0  0  0
  142.1670  157.9000  133.3960 C   0  0  0  0  0  0  0  0  0  0  0  0
  137.3156  160.8854  130.7180 H   0  0  0  0  0  0  0  0  0  0  0  0
  138.9535  161.1898  130.0464 H   0  0  0  0  0  0  0  0  0  0  0  0
  138.2778  159.5254  130.0464 H   0  0  0  0  0  0  0  0  0  0  0  0
  139.3815  159.5488  134.3745 H   0  0  0  0  0  0  0  0  0  0  0  0
  139.6068  157.7895  134.0664 H   0  0  0  0  0  0  0  0  0  0  0  0
  141.2086  161.1460  134.0314 H   0  0  0  0  0  0  0  0  0  0  0  0
  143.7019  161.4800  133.9560 H   0  0  0  0  0  0  0  0  0  0  0  0
  146.1738  160.0899  133.6011 H   0  0  0  0  0  0  0  0  0  0  0  0
  146.5830  156.1360  131.3040 H   0  0  0  0  0  0  0  0  0  0  0  0
  148.2810  156.0290  131.8720 H   0  0  0  0  0  0  0  0  0  0  0  0
  143.7249  153.2306  133.0918 H   0  0  0  0  0  0  0  0  0  0  0  0
  143.2993  153.2492  134.8430 H   0  0  0  0  0  0  0  0  0  0  0  0
  143.2245  151.6878  132.9534 H   0  0  0  0  0  0  0  0  0  0  0  0
  143.4822  149.2996  132.2801 H   0  0  0  0  0  0  0  0  0  0  0  0
  141.4870  147.9744  131.5764 H   0  0  0  0  0  0  0  0  0  0  0  0
  139.2266  149.0330  131.5634 H   0  0  0  0  0  0  0  0  0  0  0  0
  138.9599  151.4222  132.2276 H   0  0  0  0  0  0  0  0  0  0  0  0
  141.7534  156.8916  133.2475 H   0  0  0  0  0  0  0  0  0  0  0  0
  1  2  1  0
  2  3  1  0
  3  4  2  0
  3  5  1  0
  5  6  1  0
  6  7  2  0
  7  8  1  0
  8  9  2  0
  9 10  1  0
 10 11  2  0
 11 12  1  0
 12 13  1  0
 12 14  2  0
 11 15  1  0
 15 16  1  0
 16 17  2  0
 16 18  1  0
 18 19  1  0
 19 20  1  0
 20 21  1  0
 21 22  1  0
 22 23  2  0
 22 24  1  0
 24 25  1  0
 25 26  1  0
 26 27  2  0
 27 28  1  0
 28 29  2  0
 29 30  1  0
 30 31  2  0
 15 32  1  0
 32 33  2  0
 33  6  1  0
 32  9  1  0
 25 20  2  0
 31 26  1  0
  1 34  1  0
  1 35  1  0
  1 36  1  0
  5 37  1  0
  5 38  1  0
  7 39  1  0
  8 40  1  0
 10 41  1  0
 13 42  1  0
 13 43  1  0
 19 44  1  0
 19 45  1  0
 27 46  1  0
 28 47  1  0
 29 48  1  0
 30 49  1  0
 31 50  1  0
 33 51  1  0
M  END
>  <UniqueID>  (2) 
2

>  <SMILES>  (2) 
COC(=O)Cc1ccc2cc(C(N)=O)n(C(=O)OCc3oc(=O)oc3-c3ccccc3)c2c1

>  <Energy>  (2) 
125.07133708902822

>  <Genealogy>  (2) 
COC(=O)Cc1ccc2cc(C(N)=O)n(C(=O)OCc3oc(=O)oc3-c3ccccc3)c2c1 (3D coordinates assigned)
COC(=O)Cc1ccc2cc(C(N)=O)n(C(=O)OCc3oc(=O)oc3-c3ccccc3)c2c1 (optimized conformer: 125.07133708902822 kcal/mol)

>  <smiles>  (2) 
COC(=O)Cc1ccc2cc(C(N)=O)n(C(=O)OCc3oc(=O)oc3-c3ccccc3)c2c1

>  <score_type>  (2) 
oracle

>  <origin>  (2) 
adg

>  <m_score__min__energy>  (2) 
-9.1199999999999992

>  <m_primary>  (2) 
energy

$$$$
2:0
     RDKit          3D

 43 44  0  0  0  0  0  0  0  0999 V2000
  138.3960  149.2160  130.8300 C   0  0  0  0  0  0  0  0  0  0  0  0
  139.0630  149.5870  132.0150 O   0  0  0  0  0  0  0  0  0  0  0  0
  140.2680  148.8600  132.1220 C   0  0  0  0  0  0  0  0  0  0  0  0
  141.3180  149.6910  132.8620 C   0  0  0  0  0  0  0  0  0  0  0  0
  140.8220  151.0430  133.1320 N   0  0  0  0  0  0  0  0  0  0  0  0
  141.6310  152.2360  133.1460 C   0  0  0  0  0  0  0  0  0  0  0  0
  143.0380  152.1950  132.9430 C   0  0  0  0  0  0  0  0  0  0  0  0
  143.8000  153.3760  132.9480 C   0  0  0  0  0  0  0  0  0  0  0  0
  143.1370  154.5810  133.1580 C   0  0  0  0  0  0  0  0  0  0  0  0
  143.6220  155.8700  133.1850 C   0  0  0  0  0  0  0  0  0  0  0  0
  142.5090  156.6780  133.4120 C   0  0  0  0  0  0  0  0  0  0  0  0
  142.5740  158.1490  133.5470 C   0  0  0  0  0  0  0  0  0  0  0  0
  141.5550  158.9840  133.0010 N   0  0  0  0  0  0  0  0  0  0  0  0
  143.5330  158.6760  134.1730 O   0  0  0  0  0  0  0  0  0  0  0  0
  141.3840  155.9170  133.5230 N   0  0  0  0  0  0  0  0  0  0  0  0
  140.0330  156.3690  133.6920 C   0  0  0  0  0  0  0  0  0  0  0  0
  139.1320  155.8750  132.9650 O   0  0  0  0  0  0  0  0  0  0  0  0
  139.7150  157.3890  134.7200 C   0  0  0  0  0  0  0  0  0  0  0  0
  138.8310  158.2470  134.4490 O   0  0  0  0  0  0  0  0  0  0  0  0
  140.3670  157.4390  136.0110 N   0  0  0  0  0  0  0  0  0  0  0  0
  140.2640  158.6690  136.8020 C   0  0  0  0  0  0  0  0  0  0  0  0
  141.0480  156.2710  136.5800 C   0  0  0  0  0  0  0  0  0  0  0  0
  141.7840  154.6380  133.3600 C   0  0  0  0  0  0  0  0  0  0  0  0
  140.9980  153.4830  133.3430 C   0  0  0  0  0  0  0  0  0  0  0  0
  137.4605  148.6957  131.0833 H   0  0  0  0  0  0  0  0  0  0  0  0
  138.1669  150.1163  130.2410 H   0  0  0  0  0  0  0  0  0  0  0  0
  139.0400  148.5465  130.2410 H   0  0  0  0  0  0  0  0  0  0  0  0
  140.0832  147.9287  132.6774 H   0  0  0  0  0  0  0  0  0  0  0  0
  140.6388  148.6261  131.1131 H   0  0  0  0  0  0  0  0  0  0  0  0
  141.5593  149.1991  133.8158 H   0  0  0  0  0  0  0  0  0  0  0  0
  142.2150  149.7663  132.2297 H   0  0  0  0  0  0  0  0  0  0  0  0
  139.8080  151.1320  133.3690 H   0  0  0  0  0  0  0  0  0  0  0  0
  143.5357  151.2277  132.7801 H   0  0  0  0  0  0  0  0  0  0  0  0
  144.8883  153.3484  132.7905 H   0  0  0  0  0  0  0  0  0  0  0  0
  144.6655  156.1930  133.0551 H   0  0  0  0  0  0  0  0  0  0  0  0
  140.5570  158.8640  133.2800 H   0  0  0  0  0  0  0  0  0  0  0  0
  140.2849  158.4190  137.8730 H   0  0  0  0  0  0  0  0  0  0  0  0
  141.1099  159.3304  136.5633 H   0  0  0  0  0  0  0  0  0  0  0  0
  139.3199  159.1805  136.5633 H   0  0  0  0  0  0  0  0  0  0  0  0
  141.0156  156.3266  137.6781 H   0  0  0  0  0  0  0  0  0  0  0  0
  140.5436  155.3529  136.2443 H   0  0  0  0  0  0  0  0  0  0  0  0
  142.0954  156.2577  136.2443 H   0  0  0  0  0  0  0  0  0  0  0  0
  139.9083  153.5437  133.4803 H   0  0  0  0  0  0  0  0  0  0  0  0
  1  2  1  0
  2  3  1  0
  3  4  1  0
  4  5  1  0
  5  6  1  0
  6  7  2  0
  7  8  1  0
  8  9  2  0
  9 10  1  0
 10 11  2  0
 11 12  1  0
 12 13  1  0
 12 14  2  0
 11 15  1  0
 15 16  1  0
 16 17  2  0
 16 18  1  0
 18 19  2  0
 18 20  1  0
 20 21  1  0
 20 22  1  0
 15 23  1  0
 23 24  2  0
 24  6  1  0
 23  9  1  0
  1 25  1  0
  1 26  1  0
  1 27  1  0
  3 28  1  0
  3 29  1  0
  4 30  1  0
  4 31  1  0
  5 32  1  0
  7 33  1  0
  8 34  1  0
 10 35  1  0
 13 36  1  0
 21 37  1  0
 21 38  1  0
 21 39  1  0
 22 40  1  0
 22 41  1  0
 22 42  1  0
 24 43  1  0
M  CHG  1  13  -1
M  END
>  <UniqueID>  (3) 
3

>  <SMILES>  (3) 
COCCNc1ccc2cc(C([NH-])=O)n(C(=O)C(=O)N(C)C)c2c1

>  <Energy>  (3) 
82.04583613841572

>  <Genealogy>  (3) 
COCCNc1ccc2cc(C([NH-])=O)n(C(=O)C(=O)N(C)C)c2c1 (protonated)
COCCNc1ccc2cc(C([NH-])=O)n(C(=O)C(=O)N(C)C)c2c1 (3D coordinates assigned)
COCCNc1ccc2cc(C([NH-])=O)n(C(=O)C(=O)N(C)C)c2c1 (optimized conformer: 82.04583613841572 kcal/mol)

>  <smiles>  (3) 
COCCNc1ccc2cc(C(N)=O)n(C(=O)C(=O)N(C)C)c2c1

>  <score_type>  (3) 
oracle

>  <origin>  (3) 
adg

>  <m_score__min__energy>  (3) 
-6.7599999999999998

>  <m_primary>  (3) 
energy

$$$$
3:0
     RDKit          3D

 54 56  0  0  0  0  0  0  0  0999 V2000
  144.2860  153.3950  137.0710 N   0  0  0  0  0  0  0  0  0  0  0  0
  142.9050  153.6410  137.3350 C   0  0  0  0  0  0  0  0  0  0  0  0
  142.2880  152.9000  138.1460 O   0  0  0  0  0  0  0  0  0  0  0  0
  142.2330  154.7880  136.6950 C   0  0  0  0  0  0  0  0  0  0  0  0
  141.9440  155.9790  137.3580 C   0  0  0  0  0  0  0  0  0  0  0  0
  141.2720  156.7540  136.4410 C   0  0  0  0  0  0  0  0  0  0  0  0
  140.7730  158.0470  136.5560 C   0  0  0  0  0  0  0  0  0  0  0  0
  140.1540  158.6190  135.4340 C   0  0  0  0  0  0  0  0  0  0  0  0
  140.0520  157.8920  134.2200 C   0  0  0  0  0  0  0  0  0  0  0  0
  139.4330  158.5330  133.0070 C   0  0  0  0  0  0  0  0  0  0  0  0
  140.4990  158.9900  132.0100 C   0  0  0  0  0  0  0  0  0  0  0  0
  141.7570  159.0720  132.6270 O   0  0  0  0  0  0  0  0  0  0  0  0
  140.5850  156.5880  134.1340 C   0  0  0  0  0  0  0  0  0  0  0  0
  141.1700  156.0330  135.2780 C   0  0  0  0  0  0  0  0  0  0  0  0
  141.7550  154.8230  135.4160 N   0  0  0  0  0  0  0  0  0  0  0  0
  141.9170  153.8330  134.3880 C   0  0  0  0  0  0  0  0  0  0  0  0
  140.9920  153.0020  134.1720 O   0  0  0  0  0  0  0  0  0  0  0  0
  143.1240  153.7910  133.6120 N   0  0  0  0  0  0  0  0  0  0  0  0
  143.5230  152.6710  132.8150 C   0  0  0  0  0  0  0  0  0  0  0  0
  142.7320  151.7070  132.6210 O   0  0  0  0  0  0  0  0  0  0  0  0
  144.8100  152.6480  132.2690 O   0  0  0  0  0  0  0  0  0  0  0  0
  145.9810  152.8040  133.0680 C   0  0  0  0  0  0  0  0  0  0  0  0
  145.6970  153.5870  134.2240 O   0  0  0  0  0  0  0  0  0  0  0  0
  145.6540  154.9870  134.2230 C   0  0  0  0  0  0  0  0  0  0  0  0
  145.1840  155.6080  135.2120 O   0  0  0  0  0  0  0  0  0  0  0  0
  146.2210  155.7720  133.0510 C   0  0  2  0  0  0  0  0  0  0  0  0
  147.7340  155.9430  133.1920 C   0  0  0  0  0  0  0  0  0  0  0  0
  147.9060  157.2720  133.9230 C   0  0  0  0  0  0  0  0  0  0  0  0
  146.5270  157.9350  133.9030 C   0  0  0  0  0  0  0  0  0  0  0  0
  145.6950  157.1480  132.9780 N   0  0  2  0  0  0  0  0  0  0  0  0
  144.2640  157.2490  133.2010 C   0  0  0  0  0  0  0  0  0  0  0  0
  143.7740  158.1300  133.9570 O   0  0  0  0  0  0  0  0  0  0  0  0
  143.4070  156.3810  132.5340 O   0  0  0  0  0  0  0  0  0  0  0  0
  144.7320  153.7280  136.1870 H   0  0  0  0  0  0  0  0  0  0  0  0
  142.1991  156.2436  138.3948 H   0  0  0  0  0  0  0  0  0  0  0  0
  140.8610  158.6054  137.4996 H   0  0  0  0  0  0  0  0  0  0  0  0
  139.7450  159.6382  135.4962 H   0  0  0  0  0  0  0  0  0  0  0  0
  138.7724  157.8038  132.5151 H   0  0  0  0  0  0  0  0  0  0  0  0
  138.8653  159.4163  133.3348 H   0  0  0  0  0  0  0  0  0  0  0  0
  140.5503  158.2686  131.1812 H   0  0  0  0  0  0  0  0  0  0  0  0
  140.2254  159.9869  131.6340 H   0  0  0  0  0  0  0  0  0  0  0  0
  142.2760  158.2840  132.3210 H   0  0  0  0  0  0  0  0  0  0  0  0
  140.5418  156.0221  133.1917 H   0  0  0  0  0  0  0  0  0  0  0  0
  143.7890  154.5940  133.6870 H   0  0  0  0  0  0  0  0  0  0  0  0
  146.3396  151.8126  133.3817 H   0  0  0  0  0  0  0  0  0  0  0  0
  146.7516  153.3158  132.4728 H   0  0  0  0  0  0  0  0  0  0  0  0
  145.9364  155.1933  132.1599 H   0  0  0  0  0  0  0  0  0  0  0  0
  148.1647  155.1185  133.7791 H   0  0  0  0  0  0  0  0  0  0  0  0
  148.2469  155.9332  132.2190 H   0  0  0  0  0  0  0  0  0  0  0  0
  148.2346  157.1007  134.9587 H   0  0  0  0  0  0  0  0  0  0  0  0
  148.6682  157.9041  133.4438 H   0  0  0  0  0  0  0  0  0  0  0  0
  146.0867  157.9255  134.9110 H   0  0  0  0  0  0  0  0  0  0  0  0
  146.5960  158.9841  133.5795 H   0  0  0  0  0  0  0  0  0  0  0  0
  145.8740  157.5070  132.0080 H   0  0  0  0  0  0  0  0  0  0  0  0
  1  2  1  0
  2  3  2  0
  2  4  1  0
  4  5  2  0
  5  6  1  0
  6  7  2  0
  7  8  1  0
  8  9  2  0
  9 10  1  0
 10 11  1  0
 11 12  1  0
  9 13  1  0
 13 14  2  0
 14 15  1  0
 15 16  1  0
 16 17  2  0
 16 18  1  0
 18 19  1  0
 19 20  2  0
 19 21  1  0
 21 22  1  0
 22 23  1  0
 23 24  1  0
 24 25  2  0
 24 26  1  0
 26 27  1  0
 27 28  1  0
 28 29  1  0
 29 30  1  0
 30 31  1  0
 31 32  2  0
 31 33  1  0
 15  4  1  0
 30 26  1  0
 14  6  1  0
  1 34  1  0
  5 35  1  0
  7 36  1  0
  8 37  1  0
 10 38  1  0
 10 39  1  0
 11 40  1  0
 11 41  1  0
 12 42  1  0
 13 43  1  0
 18 44  1  0
 22 45  1  0
 22 46  1  0
 26 47  1  6
 27 48  1  0
 27 49  1  0
 28 50  1  0
 28 51  1  0
 29 52  1  0
 29 53  1  0
 30 54  1  6
M  CHG  3   1  -1  30   1  33  -1
M  END
>  <UniqueID>  (4) 
4

>  <SMILES>  (4) 
[NH-]C(=O)c1cc2ccc(CCO)cc2n1C(=O)NC(=O)OCOC(=O)[C@@H]1CCC[N@@H+]1C(=O)[O-]

>  <Energy>  (4) 
99.51466286595505

>  <Genealogy>  (4) 
[NH-]C(=O)c1cc2ccc(CCO)cc2n1C(=O)NC(=O)OCOC(=O)C1CCC[NH+]1C(=O)[O-] (protonated)
[NH-]C(=O)c1cc2ccc(CCO)cc2n1C(=O)NC(=O)OCOC(=O)[C@@H]1CCC[N@@H+]1C(=O)[O-] (chirality)
[NH-]C(=O)c1cc2ccc(CCO)cc2n1C(=O)NC(=O)OCOC(=O)[C@@H]1CCC[N@@H+]1C(=O)[O-] (3D coordinates assigned)
[NH-]C(=O)c1cc2ccc(CCO)cc2n1C(=O)NC(=O)OCOC(=O)[C@@H]1CCC[N@@H+]1C(=O)[O-] (nonaromatic ring conformer: 99.51466286595505 kcal/mol)

>  <smiles>  (4) 
NC(=O)c1cc2ccc(CCO)cc2n1C(=O)NC(=O)OCOC(=O)C1CCCN1C(=O)O

>  <score_type>  (4) 
oracle

>  <origin>  (4) 
adg

>  <m_score__min__energy>  (4) 
-6.6900000000000004

>  <m_primary>  (4) 
energy

$$$$
4:0
     RDKit          3D

 49 50  0  0  0  0  0  0  0  0999 V2000
  149.0920  156.6840  131.7750 H   0  0  0  0  0  0  0  0  0  0  0  0
  149.6920  157.5100  131.9940 N   0  0  0  0  0  0  0  0  0  0  0  0
  149.1460  158.8270  132.0190 C   0  0  0  0  0  0  0  0  0  0  0  0
  149.8210  159.7820  131.5570 O   0  0  0  0  0  0  0  0  0  0  0  0
  147.8270  159.0620  132.6370 C   0  0  0  0  0  0  0  0  0  0  0  0
  147.3410  160.3350  132.9300 C   0  0  0  0  0  0  0  0  0  0  0  0
  147.8759  161.2914  132.8345 H   0  0  0  0  0  0  0  0  0  0  0  0
  146.0500  160.1410  133.3640 C   0  0  0  0  0  0  0  0  0  0  0  0
  145.0950  161.0680  133.7640 C   0  0  0  0  0  0  0  0  0  0  0  0
  145.3193  162.1448  133.7718 H   0  0  0  0  0  0  0  0  0  0  0  0
  143.8350  160.5890  134.1580 C   0  0  0  0  0  0  0  0  0  0  0  0
  143.0580  161.3007  134.4737 H   0  0  0  0  0  0  0  0  0  0  0  0
  143.5510  159.1960  134.1540 C   0  0  0  0  0  0  0  0  0  0  0  0
  142.2760  158.6690  134.5690 N   0  0  0  0  0  0  0  0  0  0  0  0
  142.2590  158.0910  135.4410 H   0  0  0  0  0  0  0  0  0  0  0  0
  140.9890  158.9490  133.9190 C   0  0  1  0  0  0  0  0  0  0  0  0
  140.9207  160.0286  133.7196 H   0  0  0  0  0  0  0  0  0  0  0  0
  140.9000  158.1790  132.5920 C   0  0  0  0  0  0  0  0  0  0  0  0
  140.7759  157.1057  132.7985 H   0  0  0  0  0  0  0  0  0  0  0  0
  140.0380  158.5432  132.0138 H   0  0  0  0  0  0  0  0  0  0  0  0
  141.8224  158.3369  132.0138 H   0  0  0  0  0  0  0  0  0  0  0  0
  139.8250  158.5460  134.8360 C   0  0  0  0  0  0  0  0  0  0  0  0
  138.9932  159.2517  134.6940 H   0  0  0  0  0  0  0  0  0  0  0  0
  139.5095  157.5246  134.5766 H   0  0  0  0  0  0  0  0  0  0  0  0
  140.2200  158.5660  136.1810 O   0  0  0  0  0  0  0  0  0  0  0  0
  139.4700  158.9640  136.6990 H   0  0  0  0  0  0  0  0  0  0  0  0
  144.5490  158.2920  133.7260 C   0  0  0  0  0  0  0  0  0  0  0  0
  144.3518  157.2101  133.7034 H   0  0  0  0  0  0  0  0  0  0  0  0
  145.7940  158.7980  133.3310 C   0  0  0  0  0  0  0  0  0  0  0  0
  146.8820  158.1140  132.9120 N   0  0  0  0  0  0  0  0  0  0  0  0
  146.9680  156.6840  132.7510 C   0  0  0  0  0  0  0  0  0  0  0  0
  146.9810  156.2000  131.5870 O   0  0  0  0  0  0  0  0  0  0  0  0
  147.1590  155.7580  133.8830 C   0  0  0  0  0  0  0  0  0  0  0  0
  146.9006  156.1553  134.8757 H   0  0  0  0  0  0  0  0  0  0  0  0
  147.6120  154.4800  133.8580 C   0  0  0  0  0  0  0  0  0  0  0  0
  147.7010  153.7810  135.1960 C   0  0  0  0  0  0  0  0  0  0  0  0
  147.6067  154.5218  136.0037 H   0  0  0  0  0  0  0  0  0  0  0  0
  146.8896  153.0429  135.2788 H   0  0  0  0  0  0  0  0  0  0  0  0
  148.6715  153.2698  135.2788 H   0  0  0  0  0  0  0  0  0  0  0  0
  148.1000  153.7810  132.6710 N   0  0  0  0  0  0  0  0  0  0  0  0
  147.6510  154.2280  131.8360 H   0  0  0  0  0  0  0  0  0  0  0  0
  149.5530  153.9360  132.4680 C   0  0  0  0  0  0  0  0  0  0  0  0
  150.0560  153.9897  133.4448 H   0  0  0  0  0  0  0  0  0  0  0  0
  149.9384  153.0739  131.9039 H   0  0  0  0  0  0  0  0  0  0  0  0
  149.7479  154.8600  131.9039 H   0  0  0  0  0  0  0  0  0  0  0  0
  147.6670  152.3740  132.6140 C   0  0  0  0  0  0  0  0  0  0  0  0
  147.5474  151.9855  133.6361 H   0  0  0  0  0  0  0  0  0  0  0  0
  146.7067  152.3072  132.0817 H   0  0  0  0  0  0  0  0  0  0  0  0
  148.4236  151.7788  132.0817 H   0  0  0  0  0  0  0  0  0  0  0  0
  1  2  1  0
  2  3  1  0
  3  4  2  0
  3  5  1  0
  5  6  2  0
  6  7  1  0
  6  8  1  0
  8  9  2  0
  9 10  1  0
  9 11  1  0
 11 12  1  0
 11 13  2  0
 13 14  1  0
 14 15  1  0
 14 16  1  0
 16 17  1  6
 16 18  1  0
 18 19  1  0
 18 20  1  0
 18 21  1  0
 16 22  1  0
 22 23  1  0
 22 24  1  0
 22 25  1  0
 25 26  1  0
 13 27  1  0
 27 28  1  0
 27 29  2  0
 29 30  1  0
 30 31  1  0
 31 32  2  0
 31 33  1  0
 33 34  1  0
 33 35  2  0
 35 36  1  0
 36 37  1  0
 36 38  1  0
 36 39  1  0
 35 40  1  0
 40 41  1  0
 40 42  1  0
 42 43  1  0
 42 44  1  0
 42 45  1  0
 40 46  1  0
 46 47  1  0
 46 48  1  0
 46 49  1  0
 30  5  1  0
 29  8  1  0
M  CHG  2   2  -1  40   1
M  END
>  <UniqueID>  (5) 
5

>  <SMILES>  (5) 
C/C(=C/C(=O)n1c(C([NH-])=O)cc2ccc(N[C@@H](C)CO)cc21)[NH+](C)C

>  <Energy>  (5) 
98.54407220530955

>  <Genealogy>  (5) 
CC(=CC(=O)n1c(C([NH-])=O)cc2ccc(NC(C)CO)cc21)[NH+](C)C (protonated)
CC(=CC(=O)n1c(C([NH-])=O)cc2ccc(N[C@@H](C)CO)cc21)[NH+](C)C (chirality)
C/C(=C/C(=O)n1c(C([NH-])=O)cc2ccc(N[C@@H](C)CO)cc21)[NH+](C)C (cis-trans isomerization)
C/C(=C/C(=O)n1c(C([NH-])=O)cc2ccc(N[C@@H](C)CO)cc21)[NH+](C)C (3D coordinates assigned)
C/C(=C/C(=O)n1c(C([NH-])=O)cc2ccc(N[C@@H](C)CO)cc21)[NH+](C)C (optimized conformer: 98.54407220530955 kcal/mol)

>  <smiles>  (5) 
CC(=CC(=O)n1c(C(N)=O)cc2ccc(NC(C)CO)cc21)N(C)C

>  <score_type>  (5) 
oracle

>  <origin>  (5) 
adg

>  <m_score__min__energy>  (5) 
-7.1799999999999997

>  <m_primary>  (5) 
energy

$$$$
6:0
     RDKit          3D

 35 36  0  0  0  0  0  0  0  0999 V2000
  147.2805  155.3315  136.9801 H   0  0  0  0  0  0  0  0  0  0  0  0
  147.2660  154.5010  136.2590 C   0  0  0  0  0  0  0  0  0  0  0  0
  147.0340  153.2040  136.7410 O   0  0  0  0  0  0  0  0  0  0  0  0
  147.7020  152.6200  137.8550 C   0  0  0  0  0  0  0  0  0  0  0  0
  147.2632  153.0036  138.7879 H   0  0  0  0  0  0  0  0  0  0  0  0
  147.5882  151.5265  137.8187 H   0  0  0  0  0  0  0  0  0  0  0  0
  148.7705  152.8788  137.8187 H   0  0  0  0  0  0  0  0  0  0  0  0
  147.4710  154.7790  134.9630 C   0  0  0  0  0  0  0  0  0  0  0  0
  147.4565  153.9562  134.2331 H   0  0  0  0  0  0  0  0  0  0  0  0
  147.7160  156.1570  134.4840 C   0  0  0  0  0  0  0  0  0  0  0  0
  148.4040  156.9560  135.1780 O   0  0  0  0  0  0  0  0  0  0  0  0
  147.1500  156.6210  133.2020 C   0  0  0  0  0  0  0  0  0  0  0  0
  147.2300  155.8920  132.1760 O   0  0  0  0  0  0  0  0  0  0  0  0
  146.4740  157.8860  133.1150 N   0  0  0  0  0  0  0  0  0  0  0  0
  147.0170  159.0890  132.7800 C   0  0  0  0  0  0  0  0  0  0  0  0
  148.3940  159.3090  132.2900 C   0  0  0  0  0  0  0  0  0  0  0  0
  148.5730  159.9400  131.2150 O   0  0  0  0  0  0  0  0  0  0  0  0
  149.5240  158.7780  132.9850 N   0  0  0  0  0  0  0  0  0  0  0  0
  150.4900  158.9960  132.6540 H   0  0  0  0  0  0  0  0  0  0  0  0
  149.4100  158.0910  133.7610 H   0  0  0  0  0  0  0  0  0  0  0  0
  146.0880  160.1120  132.9560 C   0  0  0  0  0  0  0  0  0  0  0  0
  146.2345  161.1859  132.7684 H   0  0  0  0  0  0  0  0  0  0  0  0
  144.9470  159.4920  133.4150 C   0  0  0  0  0  0  0  0  0  0  0  0
  143.7170  160.0330  133.7720 C   0  0  0  0  0  0  0  0  0  0  0  0
  143.5222  161.1113  133.6756 H   0  0  0  0  0  0  0  0  0  0  0  0
  142.7300  159.1590  134.2600 C   0  0  0  0  0  0  0  0  0  0  0  0
  141.7385  159.5535  134.5272 H   0  0  0  0  0  0  0  0  0  0  0  0
  142.9980  157.7730  134.4120 C   0  0  0  0  0  0  0  0  0  0  0  0
  141.9200  156.8410  134.9050 C   0  0  0  0  0  0  0  0  0  0  0  0
  142.5080  155.7470  135.5100 F   0  0  0  0  0  0  0  0  0  0  0  0
  141.1040  157.4810  135.8230 F   0  0  0  0  0  0  0  0  0  0  0  0
  141.1300  156.4080  133.8550 F   0  0  0  0  0  0  0  0  0  0  0  0
  144.2560  157.2600  134.0180 C   0  0  0  0  0  0  0  0  0  0  0  0
  144.4799  156.1868  134.1088 H   0  0  0  0  0  0  0  0  0  0  0  0
  145.2090  158.1500  133.5100 C   0  0  0  0  0  0  0  0  0  0  0  0
  1  2  1  0
  2  3  1  0
  3  4  1  0
  4  5  1  0
  4  6  1  0
  4  7  1  0
  2  8  2  0
  8  9  1  0
  8 10  1  0
 10 11  2  0
 10 12  1  0
 12 13  2  0
 12 14  1  0
 14 15  1  0
 15 16  1  0
 16 17  2  0
 16 18  1  0
 18 19  1  0
 18 20  1  0
 15 21  2  0
 21 22  1  0
 21 23  1  0
 23 24  2  0
 24 25  1  0
 24 26  1  0
 26 27  1  0
 26 28  2  0
 28 29  1  0
 29 30  1  0
 29 31  1  0
 29 32  1  0
 28 33  1  0
 33 34  1  0
 33 35  2  0
 35 14  1  0
 35 23  1  0
M  END
>  <UniqueID>  (6) 
6

>  <SMILES>  (6) 
CO/C=C/C(=O)C(=O)n1c(C(N)=O)cc2ccc(C(F)(F)F)cc21

>  <Energy>  (6) 
74.89145392049696

>  <Genealogy>  (6) 
CO/C=C/C(=O)C(=O)n1c(C(N)=O)cc2ccc(C(F)(F)F)cc21 (cis-trans isomerization)
CO/C=C/C(=O)C(=O)n1c(C(N)=O)cc2ccc(C(F)(F)F)cc21 (3D coordinates assigned)
CO/C=C/C(=O)C(=O)n1c(C(N)=O)cc2ccc(C(F)(F)F)cc21 (optimized conformer: 74.89145392049696 kcal/mol)

>  <smiles>  (6) 
COC=CC(=O)C(=O)n1c(C(N)=O)cc2ccc(C(F)(F)F)cc21

>  <score_type>  (6) 
oracle

>  <origin>  (6) 
adg

>  <m_score__min__energy>  (6) 
-6.7300000000000004

>  <m_primary>  (6) 
energy

$$$$
7:0
     RDKit          3D

 37 38  0  0  0  0  0  0  0  0999 V2000
  140.9920  159.2290  137.4940 C   0  0  0  0  0  0  0  0  0  0  0  0
  140.3360  158.0690  136.9990 O   0  0  0  0  0  0  0  0  0  0  0  0
  140.7440  156.7740  137.3360 C   0  0  0  0  0  0  0  0  0  0  0  0
  140.2390  156.1780  138.3270 O   0  0  0  0  0  0  0  0  0  0  0  0
  141.7990  156.0950  136.5230 C   0  0  0  0  0  0  0  0  0  0  0  0
  142.1910  156.9420  135.4000 N   0  0  0  0  0  0  0  0  0  0  0  0
  143.3300  156.6470  134.5770 C   0  0  0  0  0  0  0  0  0  0  0  0
  144.1140  155.7120  134.8970 O   0  0  0  0  0  0  0  0  0  0  0  0
  143.5950  157.4280  133.3570 C   0  0  0  0  0  0  0  0  0  0  0  0
  143.2130  156.9990  132.2360 O   0  0  0  0  0  0  0  0  0  0  0  0
  144.3310  158.6570  133.4270 N   0  0  0  0  0  0  0  0  0  0  0  0
  143.8580  159.9050  133.6990 C   0  0  0  0  0  0  0  0  0  0  0  0
  142.4400  160.2690  133.9040 C   0  0  0  0  0  0  0  0  0  0  0  0
  141.4770  159.2940  134.2980 N   0  0  0  0  0  0  0  0  0  0  0  0
  142.0670  161.4600  133.7130 O   0  0  0  0  0  0  0  0  0  0  0  0
  144.9070  160.8250  133.7240 C   0  0  0  0  0  0  0  0  0  0  0  0
  146.0430  160.0890  133.4580 C   0  0  0  0  0  0  0  0  0  0  0  0
  147.3730  160.4890  133.3710 C   0  0  0  0  0  0  0  0  0  0  0  0
  148.3400  159.5050  133.1000 C   0  0  0  0  0  0  0  0  0  0  0  0
  147.9620  158.1500  132.9270 C   0  0  0  0  0  0  0  0  0  0  0  0
  148.9980  157.1160  132.6030 C   0  0  0  0  0  0  0  0  0  0  0  0
  146.6010  157.7850  133.0030 C   0  0  0  0  0  0  0  0  0  0  0  0
  145.6640  158.7860  133.2780 C   0  0  0  0  0  0  0  0  0  0  0  0
  140.9834  159.2139  138.5939 H   0  0  0  0  0  0  0  0  0  0  0  0
  142.0319  159.2432  137.1356 H   0  0  0  0  0  0  0  0  0  0  0  0
  140.4683  160.1275  137.1356 H   0  0  0  0  0  0  0  0  0  0  0  0
  142.6774  155.9010  137.1561 H   0  0  0  0  0  0  0  0  0  0  0  0
  141.3994  155.1462  136.1355 H   0  0  0  0  0  0  0  0  0  0  0  0
  141.6120  157.7880  135.1960 H   0  0  0  0  0  0  0  0  0  0  0  0
  141.2600  159.1260  135.3050 H   0  0  0  0  0  0  0  0  0  0  0  0
  144.8419  161.9063  133.9150 H   0  0  0  0  0  0  0  0  0  0  0  0
  147.6588  161.5421  133.5099 H   0  0  0  0  0  0  0  0  0  0  0  0
  149.3997  159.7894  133.0215 H   0  0  0  0  0  0  0  0  0  0  0  0
  149.4100  156.7048  133.5363 H   0  0  0  0  0  0  0  0  0  0  0  0
  148.5376  156.3066  132.0175 H   0  0  0  0  0  0  0  0  0  0  0  0
  149.8065  157.5780  132.0175 H   0  0  0  0  0  0  0  0  0  0  0  0
  146.2859  156.7422  132.8502 H   0  0  0  0  0  0  0  0  0  0  0  0
  1  2  1  0
  2  3  1  0
  3  4  2  0
  3  5  1  0
  5  6  1  0
  6  7  1  0
  7  8  2  0
  7  9  1  0
  9 10  2  0
  9 11  1  0
 11 12  1  0
 12 13  1  0
 13 14  1  0
 13 15  2  0
 12 16  2  0
 16 17  1  0
 17 18  2  0
 18 19  1  0
 19 20  2  0
 20 21  1  0
 20 22  1  0
 22 23  2  0
 23 11  1  0
 23 17  1  0
  1 24  1  0
  1 25  1  0
  1 26  1  0
  5 27  1  0
  5 28  1  0
  6 29  1  0
 14 30  1  0
 16 31  1  0
 18 32  1  0
 19 33  1  0
 21 34  1  0
 21 35  1  0
 21 36  1  0
 22 37  1  0
M  CHG  1  14  -1
M  END
>  <UniqueID>  (7) 
7

>  <SMILES>  (7) 
COC(=O)CNC(=O)C(=O)n1c(C([NH-])=O)cc2ccc(C)cc21

>  <Energy>  (7) 
70.9925687931033

>  <Genealogy>  (7) 
COC(=O)CNC(=O)C(=O)n1c(C([NH-])=O)cc2ccc(C)cc21 (protonated)
COC(=O)CNC(=O)C(=O)n1c(C([NH-])=O)cc2ccc(C)cc21 (3D coordinates assigned)
COC(=O)CNC(=O)C(=O)n1c(C([NH-])=O)cc2ccc(C)cc21 (optimized conformer: 70.9925687931033 kcal/mol)

>  <smiles>  (7) 
COC(=O)CNC(=O)C(=O)n1c(C(N)=O)cc2ccc(C)cc21

>  <score_type>  (7) 
oracle

>  <origin>  (7) 
adg

>  <m_score__min__energy>  (7) 
-6.7400000000000002

>  <m_primary>  (7) 
energy

$$$$
8:0
     RDKit          3D

 37 38  0  0  0  0  0  0  0  0999 V2000
  140.4970  158.8900  133.5510 C   0  0  0  0  0  0  0  0  0  0  0  0
  141.9350  159.3100  133.6200 C   0  0  0  0  0  0  0  0  0  0  0  0
  142.2670  160.6820  133.7310 C   0  0  0  0  0  0  0  0  0  0  0  0
  143.6110  161.0910  133.7760 C   0  0  0  0  0  0  0  0  0  0  0  0
  144.5940  160.1110  133.6820 C   0  0  0  0  0  0  0  0  0  0  0  0
  145.9640  160.2280  133.7290 C   0  0  0  0  0  0  0  0  0  0  0  0
  146.4480  158.9290  133.5990 C   0  0  0  0  0  0  0  0  0  0  0  0
  147.8860  158.6000  133.5410 C   0  0  0  0  0  0  0  0  0  0  0  0
  148.4590  157.6350  134.4240 N   0  0  0  0  0  0  0  0  0  0  0  0
  148.6100  159.1400  132.6630 O   0  0  0  0  0  0  0  0  0  0  0  0
  145.4210  158.0400  133.4880 N   0  0  0  0  0  0  0  0  0  0  0  0
  145.5150  156.6070  133.4650 C   0  0  0  0  0  0  0  0  0  0  0  0
  144.8200  155.9460  132.6470 O   0  0  0  0  0  0  0  0  0  0  0  0
  146.3820  155.9590  134.3600 O   0  0  0  0  0  0  0  0  0  0  0  0
  146.3910  154.5610  134.6840 C   0  0  0  0  0  0  0  0  0  0  0  0
  144.9600  154.0730  134.9840 C   0  0  0  0  0  0  0  0  0  0  0  0
  147.0200  153.7450  133.5400 C   0  0  0  0  0  0  0  0  0  0  0  0
  147.2390  154.3830  135.9220 C   0  0  0  0  0  0  0  0  0  0  0  0
  148.0880  155.2550  136.2480 O   0  0  0  0  0  0  0  0  0  0  0  0
  147.0740  153.2630  136.7310 O   0  0  0  0  0  0  0  0  0  0  0  0
  144.2900  158.7800  133.5400 C   0  0  0  0  0  0  0  0  0  0  0  0
  142.9600  158.3440  133.5150 C   0  0  0  0  0  0  0  0  0  0  0  0
  140.0996  158.7739  134.5701 H   0  0  0  0  0  0  0  0  0  0  0  0
  139.9165  159.6561  133.0161 H   0  0  0  0  0  0  0  0  0  0  0  0
  140.4201  157.9319  133.0161 H   0  0  0  0  0  0  0  0  0  0  0  0
  141.4661  161.4343  133.7825 H   0  0  0  0  0  0  0  0  0  0  0  0
  143.8773  162.1530  133.8822 H   0  0  0  0  0  0  0  0  0  0  0  0
  146.5515  161.1507  133.8446 H   0  0  0  0  0  0  0  0  0  0  0  0
  147.8570  157.0500  135.0450 H   0  0  0  0  0  0  0  0  0  0  0  0
  149.4850  157.4500  134.4040 H   0  0  0  0  0  0  0  0  0  0  0  0
  144.8106  154.0221  136.0726 H   0  0  0  0  0  0  0  0  0  0  0  0
  144.2342  154.7744  134.5467 H   0  0  0  0  0  0  0  0  0  0  0  0
  144.8140  153.0743  134.5467 H   0  0  0  0  0  0  0  0  0  0  0  0
  147.6403  152.9403  133.9616 H   0  0  0  0  0  0  0  0  0  0  0  0
  146.2232  153.3075  132.9205 H   0  0  0  0  0  0  0  0  0  0  0  0
  147.6459  154.4041  132.9205 H   0  0  0  0  0  0  0  0  0  0  0  0
  142.7191  157.2753  133.4160 H   0  0  0  0  0  0  0  0  0  0  0  0
  1  2  1  0
  2  3  2  0
  3  4  1  0
  4  5  2  0
  5  6  1  0
  6  7  2  0
  7  8  1  0
  8  9  1  0
  8 10  2  0
  7 11  1  0
 11 12  1  0
 12 13  2  0
 12 14  1  0
 14 15  1  0
 15 16  1  0
 15 17  1  0
 15 18  1  0
 18 19  2  0
 18 20  1  0
 11 21  1  0
 21 22  2  0
 22  2  1  0
 21  5  1  0
  1 23  1  0
  1 24  1  0
  1 25  1  0
  3 26  1  0
  4 27  1  0
  6 28  1  0
  9 29  1  0
  9 30  1  0
 16 31  1  0
 16 32  1  0
 16 33  1  0
 17 34  1  0
 17 35  1  0
 17 36  1  0
 22 37  1  0
M  CHG  1  20  -1
M  END
>  <UniqueID>  (8) 
8

>  <SMILES>  (8) 
Cc1ccc2cc(C(N)=O)n(C(=O)OC(C)(C)C(=O)[O-])c2c1

>  <Energy>  (8) 
73.17718645629438

>  <Genealogy>  (8) 
Cc1ccc2cc(C(N)=O)n(C(=O)OC(C)(C)C(=O)[O-])c2c1 (protonated)
Cc1ccc2cc(C(N)=O)n(C(=O)OC(C)(C)C(=O)[O-])c2c1 (3D coordinates assigned)
Cc1ccc2cc(C(N)=O)n(C(=O)OC(C)(C)C(=O)[O-])c2c1 (optimized conformer: 73.17718645629438 kcal/mol)

>  <smiles>  (8) 
Cc1ccc2cc(C(N)=O)n(C(=O)OC(C)(C)C(=O)O)c2c1

>  <score_type>  (8) 
oracle

>  <origin>  (8) 
adg

>  <m_score__min__energy>  (8) 
-6.71

>  <m_primary>  (8) 
energy

$$$$
9:0
     RDKit          3D

 36 37  0  0  0  0  0  0  0  0999 V2000
  147.9310  154.1050  136.8830 C   0  0  0  0  0  0  0  0  0  0  0  0
  146.8900  153.4000  136.2210 O   0  0  0  0  0  0  0  0  0  0  0  0
  145.5430  153.7620  136.3240 C   0  0  0  0  0  0  0  0  0  0  0  0
  144.8680  153.3960  137.3250 O   0  0  0  0  0  0  0  0  0  0  0  0
  144.9190  154.5340  135.2790 N   0  0  0  0  0  0  0  0  0  0  0  0
  143.6390  155.1970  135.5450 C   0  0  0  0  0  0  0  0  0  0  0  0
  145.4680  154.5420  133.9460 C   0  0  0  0  0  0  0  0  0  0  0  0
  145.0800  153.6880  133.1030 O   0  0  0  0  0  0  0  0  0  0  0  0
  146.4610  155.5080  133.5610 N   0  0  0  0  0  0  0  0  0  0  0  0
  147.7480  155.2740  133.1810 C   0  0  0  0  0  0  0  0  0  0  0  0
  148.4260  153.9600  133.2190 C   0  0  0  0  0  0  0  0  0  0  0  0
  147.7470  152.7990  133.7000 N   0  0  0  0  0  0  0  0  0  0  0  0
  149.6120  153.8500  132.8080 O   0  0  0  0  0  0  0  0  0  0  0  0
  148.3700  156.4660  132.8130 C   0  0  0  0  0  0  0  0  0  0  0  0
  147.4170  157.4430  132.9870 C   0  0  0  0  0  0  0  0  0  0  0  0
  147.4920  158.8160  132.7740 C   0  0  0  0  0  0  0  0  0  0  0  0
  146.3410  159.5850  133.0200 C   0  0  0  0  0  0  0  0  0  0  0  0
  145.1360  158.9720  133.4510 C   0  0  0  0  0  0  0  0  0  0  0  0
  143.9190  159.8130  133.7420 C   0  0  0  0  0  0  0  0  0  0  0  0
  144.1570  161.1430  133.4360 F   0  0  0  0  0  0  0  0  0  0  0  0
  142.8590  159.3580  132.9810 F   0  0  0  0  0  0  0  0  0  0  0  0
  143.5830  159.7340  135.0800 F   0  0  0  0  0  0  0  0  0  0  0  0
  145.1100  157.5760  133.6790 C   0  0  0  0  0  0  0  0  0  0  0  0
  146.2750  156.8400  133.4410 C   0  0  0  0  0  0  0  0  0  0  0  0
  147.7996  154.0160  137.9715 H   0  0  0  0  0  0  0  0  0  0  0  0
  148.9033  153.6787  136.5950 H   0  0  0  0  0  0  0  0  0  0  0  0
  147.8960  155.1661  136.5950 H   0  0  0  0  0  0  0  0  0  0  0  0
  143.4859  155.2763  136.6314 H   0  0  0  0  0  0  0  0  0  0  0  0
  143.6484  156.2036  135.1016 H   0  0  0  0  0  0  0  0  0  0  0  0
  142.8222  154.6086  135.1016 H   0  0  0  0  0  0  0  0  0  0  0  0
  146.8030  152.8680  134.1380 H   0  0  0  0  0  0  0  0  0  0  0  0
  148.2140  151.8680  133.6730 H   0  0  0  0  0  0  0  0  0  0  0  0
  149.4031  156.5975  132.4588 H   0  0  0  0  0  0  0  0  0  0  0  0
  148.4232  159.2853  132.4239 H   0  0  0  0  0  0  0  0  0  0  0  0
  146.3750  160.6751  132.8766 H   0  0  0  0  0  0  0  0  0  0  0  0
  144.1946  157.0810  134.0353 H   0  0  0  0  0  0  0  0  0  0  0  0
  1  2  1  0
  2  3  1  0
  3  4  2  0
  3  5  1  0
  5  6  1  0
  5  7  1  0
  7  8  2  0
  7  9  1  0
  9 10  1  0
 10 11  1  0
 11 12  1  0
 11 13  2  0
 10 14  2  0
 14 15  1  0
 15 16  2  0
 16 17  1  0
 17 18  2  0
 18 19  1  0
 19 20  1  0
 19 21  1  0
 19 22  1  0
 18 23  1  0
 23 24  2  0
 24  9  1  0
 24 15  1  0
  1 25  1  0
  1 26  1  0
  1 27  1  0
  6 28  1  0
  6 29  1  0
  6 30  1  0
 12 31  1  0
 12 32  1  0
 14 33  1  0
 16 34  1  0
 17 35  1  0
 23 36  1  0
M  END
>  <UniqueID>  (9) 
9

>  <SMILES>  (9) 
COC(=O)N(C)C(=O)n1c(C(N)=O)cc2ccc(C(F)(F)F)cc21

>  <Energy>  (9) 
74.29498016075408

>  <Genealogy>  (9) 
COC(=O)N(C)C(=O)n1c(C(N)=O)cc2ccc(C(F)(F)F)cc21 (3D coordinates assigned)
COC(=O)N(C)C(=O)n1c(C(N)=O)cc2ccc(C(F)(F)F)cc21 (optimized conformer: 74.29498016075408 kcal/mol)

>  <smiles>  (9) 
COC(=O)N(C)C(=O)n1c(C(N)=O)cc2ccc(C(F)(F)F)cc21

>  <score_type>  (9) 
oracle

>  <origin>  (9) 
adg

>  <m_score__min__energy>  (9) 
-5.4800000000000004

>  <m_primary>  (9) 
energy

$$$$
10:0
     RDKit          3D

 35 36  0  0  0  0  0  0  0  0999 V2000
  150.6950  150.2650  130.3280 C   0  0  0  0  0  0  0  0  0  0  0  0
  149.7470  150.1930  131.4290 N   0  0  0  0  0  0  0  0  0  0  0  0
  148.9690  151.3150  131.8540 C   0  0  0  0  0  0  0  0  0  0  0  0
  147.7490  151.1760  132.1380 O   0  0  0  0  0  0  0  0  0  0  0  0
  149.6040  152.6630  131.9300 C   0  0  0  0  0  0  0  0  0  0  0  0
  148.7430  153.5420  132.6430 O   0  0  0  0  0  0  0  0  0  0  0  0
  148.8780  154.9320  132.6100 C   0  0  0  0  0  0  0  0  0  0  0  0
  149.9650  155.4550  132.2400 O   0  0  0  0  0  0  0  0  0  0  0  0
  147.7670  155.7660  132.9790 N   0  0  0  0  0  0  0  0  0  0  0  0
  146.6680  155.4180  133.7080 C   0  0  0  0  0  0  0  0  0  0  0  0
  146.3290  154.0470  134.1510 C   0  0  0  0  0  0  0  0  0  0  0  0
  146.4340  152.9420  133.2510 N   0  0  0  0  0  0  0  0  0  0  0  0
  145.9750  153.8360  135.3410 O   0  0  0  0  0  0  0  0  0  0  0  0
  145.8420  156.5240  133.9030 C   0  0  0  0  0  0  0  0  0  0  0  0
  146.4720  157.5660  133.2640 C   0  0  0  0  0  0  0  0  0  0  0  0
  146.0870  158.8970  133.1340 C   0  0  0  0  0  0  0  0  0  0  0  0
  146.9390  159.7640  132.4290 C   0  0  0  0  0  0  0  0  0  0  0  0
  148.1660  159.2960  131.8910 C   0  0  0  0  0  0  0  0  0  0  0  0
  149.0530  160.2260  131.1030 C   0  0  0  0  0  0  0  0  0  0  0  0
  148.9310  159.9850  129.7450 F   0  0  0  0  0  0  0  0  0  0  0  0
  148.7130  161.5460  131.3400 F   0  0  0  0  0  0  0  0  0  0  0  0
  150.3680  160.0260  131.4790 F   0  0  0  0  0  0  0  0  0  0  0  0
  148.5090  157.9300  132.0240 C   0  0  0  0  0  0  0  0  0  0  0  0
  147.6310  157.0850  132.7140 C   0  0  0  0  0  0  0  0  0  0  0  0
  151.7166  150.3426  130.7283 H   0  0  0  0  0  0  0  0  0  0  0  0
  150.6106  149.3579  129.7116 H   0  0  0  0  0  0  0  0  0  0  0  0
  150.4746  151.1490  129.7116 H   0  0  0  0  0  0  0  0  0  0  0  0
  150.5686  152.5871  132.4532 H   0  0  0  0  0  0  0  0  0  0  0  0
  149.7730  153.0515  130.9148 H   0  0  0  0  0  0  0  0  0  0  0  0
  146.2300  151.9740  133.5840 H   0  0  0  0  0  0  0  0  0  0  0  0
  146.6720  153.0840  132.2450 H   0  0  0  0  0  0  0  0  0  0  0  0
  144.8890  156.5563  134.4514 H   0  0  0  0  0  0  0  0  0  0  0  0
  145.1443  159.2594  133.5699 H   0  0  0  0  0  0  0  0  0  0  0  0
  146.6517  160.8170  132.2926 H   0  0  0  0  0  0  0  0  0  0  0  0
  149.4441  157.5405  131.5952 H   0  0  0  0  0  0  0  0  0  0  0  0
  1  2  1  0
  2  3  1  0
  3  4  2  0
  3  5  1  0
  5  6  1  0
  6  7  1  0
  7  8  2  0
  7  9  1  0
  9 10  1  0
 10 11  1  0
 11 12  1  0
 11 13  2  0
 10 14  2  0
 14 15  1  0
 15 16  2  0
 16 17  1  0
 17 18  2  0
 18 19  1  0
 19 20  1  0
 19 21  1  0
 19 22  1  0
 18 23  1  0
 23 24  2  0
 24  9  1  0
 24 15  1  0
  1 25  1  0
  1 26  1  0
  1 27  1  0
  5 28  1  0
  5 29  1  0
 12 30  1  0
 12 31  1  0
 14 32  1  0
 16 33  1  0
 17 34  1  0
 23 35  1  0
M  CHG  1   2  -1
M  END
>  <UniqueID>  (10) 
10

>  <SMILES>  (10) 
C[N-]C(=O)COC(=O)n1c(C(N)=O)cc2ccc(C(F)(F)F)cc21

>  <Energy>  (10) 
68.13386085943614

>  <Genealogy>  (10) 
C[N-]C(=O)COC(=O)n1c(C(N)=O)cc2ccc(C(F)(F)F)cc21 (protonated)
C[N-]C(=O)COC(=O)n1c(C(N)=O)cc2ccc(C(F)(F)F)cc21 (3D coordinates assigned)
C[N-]C(=O)COC(=O)n1c(C(N)=O)cc2ccc(C(F)(F)F)cc21 (optimized conformer: 68.13386085943614 kcal/mol)

>  <smiles>  (10) 
CNC(=O)COC(=O)n1c(C(N)=O)cc2ccc(C(F)(F)F)cc21

>  <score_type>  (10) 
oracle

>  <origin>  (10) 
adg

>  <m_score__min__energy>  (10) 
-6.0800000000000001

>  <m_primary>  (10) 
energy

$$$$
11:0
     RDKit          3D

 35 36  0  0  0  0  0  0  0  0999 V2000
  139.4600  160.0040  131.9690 C   0  0  0  0  0  0  0  0  0  0  0  0
  140.3910  160.0590  133.0440 O   0  0  0  0  0  0  0  0  0  0  0  0
  141.5430  159.2670  133.0840 C   0  0  0  0  0  0  0  0  0  0  0  0
  141.4710  158.0240  132.8780 O   0  0  0  0  0  0  0  0  0  0  0  0
  142.8480  159.8840  133.3690 C   0  0  0  0  0  0  0  0  0  0  0  0
  142.8910  161.0920  133.7270 O   0  0  0  0  0  0  0  0  0  0  0  0
  144.0570  159.1180  133.2330 N   0  0  0  0  0  0  0  0  0  0  0  0
  145.3690  159.6360  133.5050 C   0  0  0  0  0  0  0  0  0  0  0  0
  145.5140  160.7740  134.0300 O   0  0  0  0  0  0  0  0  0  0  0  0
  146.5300  158.8510  133.1870 N   0  0  0  0  0  0  0  0  0  0  0  0
  146.8280  157.5950  133.6260 C   0  0  0  0  0  0  0  0  0  0  0  0
  145.9320  156.7350  134.4330 C   0  0  0  0  0  0  0  0  0  0  0  0
  146.4640  155.7690  135.3400 N   0  0  0  0  0  0  0  0  0  0  0  0
  144.6810  156.8340  134.3100 O   0  0  0  0  0  0  0  0  0  0  0  0
  148.0720  157.1940  133.1410 C   0  0  0  0  0  0  0  0  0  0  0  0
  148.5320  158.2540  132.3920 C   0  0  0  0  0  0  0  0  0  0  0  0
  149.7230  158.4030  131.6870 C   0  0  0  0  0  0  0  0  0  0  0  0
  149.9460  159.6210  131.0230 C   0  0  0  0  0  0  0  0  0  0  0  0
  148.9920  160.6660  131.0930 C   0  0  0  0  0  0  0  0  0  0  0  0
  149.2310  161.9530  130.3600 C   0  0  0  0  0  0  0  0  0  0  0  0
  147.7890  160.4740  131.8060 C   0  0  0  0  0  0  0  0  0  0  0  0
  147.5830  159.2420  132.4390 C   0  0  0  0  0  0  0  0  0  0  0  0
  138.4381  159.9436  132.3716 H   0  0  0  0  0  0  0  0  0  0  0  0
  139.5582  160.9095  131.3522 H   0  0  0  0  0  0  0  0  0  0  0  0
  139.6641  159.1163  131.3522 H   0  0  0  0  0  0  0  0  0  0  0  0
  143.9880  158.1230  132.9260 H   0  0  0  0  0  0  0  0  0  0  0  0
  147.4890  155.6970  135.5200 H   0  0  0  0  0  0  0  0  0  0  0  0
  145.8210  155.1430  135.8740 H   0  0  0  0  0  0  0  0  0  0  0  0
  148.5788  156.2341  133.3190 H   0  0  0  0  0  0  0  0  0  0  0  0
  150.4661  157.5928  131.6509 H   0  0  0  0  0  0  0  0  0  0  0  0
  150.8699  159.7645  130.4434 H   0  0  0  0  0  0  0  0  0  0  0  0
  149.3819  162.7657  131.0857 H   0  0  0  0  0  0  0  0  0  0  0  0
  150.1262  161.8545  129.7284 H   0  0  0  0  0  0  0  0  0  0  0  0
  148.3601  162.1824  129.7284 H   0  0  0  0  0  0  0  0  0  0  0  0
  147.0332  161.2712  131.8629 H   0  0  0  0  0  0  0  0  0  0  0  0
  1  2  1  0
  2  3  1  0
  3  4  2  0
  3  5  1  0
  5  6  2  0
  5  7  1  0
  7  8  1  0
  8  9  2  0
  8 10  1  0
 10 11  1  0
 11 12  1  0
 12 13  1  0
 12 14  2  0
 11 15  2  0
 15 16  1  0
 16 17  2  0
 17 18  1  0
 18 19  2  0
 19 20  1  0
 19 21  1  0
 21 22  2  0
 22 10  1  0
 22 16  1  0
  1 23  1  0
  1 24  1  0
  1 25  1  0
  7 26  1  0
 13 27  1  0
 13 28  1  0
 15 29  1  0
 17 30  1  0
 18 31  1  0
 20 32  1  0
 20 33  1  0
 20 34  1  0
 21 35  1  0
M  END
>  <UniqueID>  (11) 
11

>  <SMILES>  (11) 
COC(=O)C(=O)NC(=O)n1c(C(N)=O)cc2ccc(C)cc21

>  <Energy>  (11) 
70.21028643621007

>  <Genealogy>  (11) 
COC(=O)C(=O)NC(=O)n1c(C(N)=O)cc2ccc(C)cc21 (3D coordinates assigned)
COC(=O)C(=O)NC(=O)n1c(C(N)=O)cc2ccc(C)cc21 (optimized conformer: 70.21028643621007 kcal/mol)

>  <smiles>  (11) 
COC(=O)C(=O)NC(=O)n1c(C(N)=O)cc2ccc(C)cc21

>  <score_type>  (11) 
oracle

>  <origin>  (11) 
adg

>  <m_score__min__energy>  (11) 
-6.7400000000000002

>  <m_primary>  (11) 
energy

$$$$
12:0
     RDKit          3D

 44 45  0  0  0  0  0  0  0  0999 V2000
  138.3620  149.5610  131.4610 C   0  0  0  0  0  0  0  0  0  0  0  0
  139.7800  149.1830  131.4200 N   0  0  0  0  0  0  0  0  0  0  0  0
  140.1530  147.8860  130.8400 C   0  0  0  0  0  0  0  0  0  0  0  0
  140.7980  150.0750  131.9450 C   0  0  0  0  0  0  0  0  0  0  0  0
  142.1210  149.6070  132.1870 C   0  0  0  0  0  0  0  0  0  0  0  0
  143.1100  150.4620  132.7020 C   0  0  0  0  0  0  0  0  0  0  0  0
  142.7630  151.7820  132.9600 C   0  0  0  0  0  0  0  0  0  0  0  0
  143.5180  152.8110  133.4750 C   0  0  0  0  0  0  0  0  0  0  0  0
  142.6630  153.9100  133.5230 C   0  0  0  0  0  0  0  0  0  0  0  0
  143.0970  155.2610  133.9320 C   0  0  0  0  0  0  0  0  0  0  0  0
  143.0720  156.3300  132.9890 N   0  0  0  0  0  0  0  0  0  0  0  0
  143.4550  155.4930  135.1170 O   0  0  0  0  0  0  0  0  0  0  0  0
  141.4230  153.5690  133.0650 N   0  0  0  0  0  0  0  0  0  0  0  0
  140.2480  154.3920  132.9960 C   0  0  0  0  0  0  0  0  0  0  0  0
  139.1070  153.8590  132.9260 O   0  0  0  0  0  0  0  0  0  0  0  0
  140.3780  155.7830  132.9780 O   0  0  0  0  0  0  0  0  0  0  0  0
  139.3350  156.6630  133.3830 C   0  0  0  0  0  0  0  0  0  0  0  0
  139.8010  157.4610  134.5740 C   0  0  0  0  0  0  0  0  0  0  0  0
  138.9980  158.2020  135.1230 O   0  0  0  0  0  0  0  0  0  0  0  0
  141.1600  157.3800  135.0790 N   0  0  0  0  0  0  0  0  0  0  0  0
  141.8680  158.6560  134.8970 C   0  0  0  0  0  0  0  0  0  0  0  0
  141.1760  156.9560  136.4870 C   0  0  0  0  0  0  0  0  0  0  0  0
  141.5050  152.2640  132.7210 C   0  0  0  0  0  0  0  0  0  0  0  0
  140.4920  151.4310  132.2290 C   0  0  0  0  0  0  0  0  0  0  0  0
  138.0358  149.6480  132.5079 H   0  0  0  0  0  0  0  0  0  0  0  0
  138.2252  150.5270  130.9529 H   0  0  0  0  0  0  0  0  0  0  0  0
  137.7625  148.7913  130.9529 H   0  0  0  0  0  0  0  0  0  0  0  0
  140.3593  147.1687  131.6480 H   0  0  0  0  0  0  0  0  0  0  0  0
  139.3264  147.5108  130.2188 H   0  0  0  0  0  0  0  0  0  0  0  0
  141.0527  148.0073  130.2188 H   0  0  0  0  0  0  0  0  0  0  0  0
  142.3728  148.5590  131.9672 H   0  0  0  0  0  0  0  0  0  0  0  0
  144.1294  150.0966  132.8952 H   0  0  0  0  0  0  0  0  0  0  0  0
  144.5732  152.7737  133.7835 H   0  0  0  0  0  0  0  0  0  0  0  0
  142.3590  156.3560  132.2260 H   0  0  0  0  0  0  0  0  0  0  0  0
  139.0862  157.3450  132.5566 H   0  0  0  0  0  0  0  0  0  0  0  0
  138.4413  156.0810  133.6522 H   0  0  0  0  0  0  0  0  0  0  0  0
  141.6780  156.6540  134.5280 H   0  0  0  0  0  0  0  0  0  0  0  0
  142.1068  159.0864  135.8807 H   0  0  0  0  0  0  0  0  0  0  0  0
  142.7987  158.4823  134.3371 H   0  0  0  0  0  0  0  0  0  0  0  0
  141.2280  159.3538  134.3371 H   0  0  0  0  0  0  0  0  0  0  0  0
  141.1426  157.8425  137.1373 H   0  0  0  0  0  0  0  0  0  0  0  0
  140.3012  156.3203  136.6885 H   0  0  0  0  0  0  0  0  0  0  0  0
  142.0962  156.3880  136.6885 H   0  0  0  0  0  0  0  0  0  0  0  0
  139.4767  151.8214  132.0656 H   0  0  0  0  0  0  0  0  0  0  0  0
  1  2  1  0
  2  3  1  0
  2  4  1  0
  4  5  2  0
  5  6  1  0
  6  7  2  0
  7  8  1  0
  8  9  2  0
  9 10  1  0
 10 11  1  0
 10 12  2  0
  9 13  1  0
 13 14  1  0
 14 15  2  0
 14 16  1  0
 16 17  1  0
 17 18  1  0
 18 19  2  0
 18 20  1  0
 20 21  1  0
 20 22  1  0
 13 23  1  0
 23 24  2  0
 24  4  1  0
 23  7  1  0
  1 25  1  0
  1 26  1  0
  1 27  1  0
  3 28  1  0
  3 29  1  0
  3 30  1  0
  5 31  1  0
  6 32  1  0
  8 33  1  0
 11 34  1  0
 17 35  1  0
 17 36  1  0
 20 37  1  0
 21 38  1  0
 21 39  1  0
 21 40  1  0
 22 41  1  0
 22 42  1  0
 22 43  1  0
 24 44  1  0
M  CHG  2  11  -1  20   1
M  END
>  <UniqueID>  (12) 
12

>  <SMILES>  (12) 
CN(C)c1ccc2cc(C([NH-])=O)n(C(=O)OCC(=O)[NH+](C)C)c2c1

>  <Energy>  (12) 
81.38692097714952

>  <Genealogy>  (12) 
CN(C)c1ccc2cc(C([NH-])=O)n(C(=O)OCC(=O)[NH+](C)C)c2c1 (protonated)
CN(C)c1ccc2cc(C([NH-])=O)n(C(=O)OCC(=O)[NH+](C)C)c2c1 (3D coordinates assigned)
CN(C)c1ccc2cc(C([NH-])=O)n(C(=O)OCC(=O)[NH+](C)C)c2c1 (optimized conformer: 81.38692097714952 kcal/mol)

>  <smiles>  (12) 
CN(C)C(=O)COC(=O)n1c(C(N)=O)cc2ccc(N(C)C)cc21

>  <score_type>  (12) 
oracle

>  <origin>  (12) 
adg

>  <m_score__min__energy>  (12) 
-5.3700000000000001

>  <m_primary>  (12) 
energy

$$$$
13:0
     RDKit          3D

 39 40  0  0  0  0  0  0  0  0999 V2000
  149.5690  161.8430  130.3520 C   0  0  0  0  0  0  0  0  0  0  0  0
  149.1430  160.5630  131.0080 C   0  0  0  0  0  0  0  0  0  0  0  0
  149.9850  159.4250  130.9530 C   0  0  0  0  0  0  0  0  0  0  0  0
  149.6220  158.2350  131.6050 C   0  0  0  0  0  0  0  0  0  0  0  0
  148.4190  158.2150  132.3040 C   0  0  0  0  0  0  0  0  0  0  0  0
  147.8430  157.2090  133.0460 C   0  0  0  0  0  0  0  0  0  0  0  0
  146.6540  157.7450  133.5350 C   0  0  0  0  0  0  0  0  0  0  0  0
  145.6720  156.9640  134.3170 C   0  0  0  0  0  0  0  0  0  0  0  0
  144.2790  157.0280  134.0190 N   0  0  0  0  0  0  0  0  0  0  0  0
  146.0730  156.1920  135.2280 O   0  0  0  0  0  0  0  0  0  0  0  0
  146.5060  159.0360  133.1230 N   0  0  0  0  0  0  0  0  0  0  0  0
  145.4620  159.9600  133.4680 C   0  0  0  0  0  0  0  0  0  0  0  0
  145.7350  160.9990  134.1300 O   0  0  0  0  0  0  0  0  0  0  0  0
  144.1510  159.7120  133.0500 O   0  0  0  0  0  0  0  0  0  0  0  0
  143.0110  160.2300  133.7310 C   0  0  0  0  0  0  0  0  0  0  0  0
  142.1310  159.1690  134.0960 O   0  0  0  0  0  0  0  0  0  0  0  0
  141.4880  158.3590  133.1550 C   0  0  0  0  0  0  0  0  0  0  0  0
  142.1590  157.6750  132.3320 O   0  0  0  0  0  0  0  0  0  0  0  0
  139.9870  158.3320  133.1120 C   0  0  2  0  0  0  0  0  0  0  0  0
  139.4620  156.9000  132.9720 C   0  0  0  0  0  0  0  0  0  0  0  0
  139.4900  159.1950  131.9880 C   0  0  0  0  0  0  0  0  0  0  0  0
  139.0620  158.6660  130.9270 O   0  0  0  0  0  0  0  0  0  0  0  0
  139.4830  160.5800  132.1130 O   0  0  0  0  0  0  0  0  0  0  0  0
  147.5930  159.3070  132.3660 C   0  0  0  0  0  0  0  0  0  0  0  0
  147.9380  160.5110  131.7420 C   0  0  0  0  0  0  0  0  0  0  0  0
  149.8163  162.5862  131.1243 H   0  0  0  0  0  0  0  0  0  0  0  0
  150.4537  161.6571  129.7253 H   0  0  0  0  0  0  0  0  0  0  0  0
  148.7493  162.2243  129.7253 H   0  0  0  0  0  0  0  0  0  0  0  0
  150.9315  159.4738  130.3947 H   0  0  0  0  0  0  0  0  0  0  0  0
  150.2688  157.3462  131.5643 H   0  0  0  0  0  0  0  0  0  0  0  0
  148.2378  156.1966  133.2166 H   0  0  0  0  0  0  0  0  0  0  0  0
  143.8450  157.9110  133.6670 H   0  0  0  0  0  0  0  0  0  0  0  0
  143.3389  160.7585  134.6383 H   0  0  0  0  0  0  0  0  0  0  0  0
  142.4790  160.9239  133.0636 H   0  0  0  0  0  0  0  0  0  0  0  0
  139.6054  158.7331  134.0625 H   0  0  0  0  0  0  0  0  0  0  0  0
  139.3037  156.4682  133.9712 H   0  0  0  0  0  0  0  0  0  0  0  0
  138.5094  156.9108  132.4221 H   0  0  0  0  0  0  0  0  0  0  0  0
  140.1959  156.2925  132.4221 H   0  0  0  0  0  0  0  0  0  0  0  0
  147.2872  161.3942  131.8213 H   0  0  0  0  0  0  0  0  0  0  0  0
  1  2  1  0
  2  3  2  0
  3  4  1  0
  4  5  2  0
  5  6  1  0
  6  7  2  0
  7  8  1  0
  8  9  1  0
  8 10  2  0
  7 11  1  0
 11 12  1  0
 12 13  2  0
 12 14  1  0
 14 15  1  0
 15 16  1  0
 16 17  1  0
 17 18  2  0
 17 19  1  0
 19 20  1  0
 19 21  1  0
 21 22  2  0
 21 23  1  0
 11 24  1  0
 24 25  2  0
 25  2  1  0
 24  5  1  0
  1 26  1  0
  1 27  1  0
  1 28  1  0
  3 29  1  0
  4 30  1  0
  6 31  1  0
  9 32  1  0
 15 33  1  0
 15 34  1  0
 19 35  1  1
 20 36  1  0
 20 37  1  0
 20 38  1  0
 25 39  1  0
M  CHG  2   9  -1  23  -1
M  END
>  <UniqueID>  (13) 
13

>  <SMILES>  (13) 
Cc1ccc2cc(C([NH-])=O)n(C(=O)OCOC(=O)[C@H](C)C(=O)[O-])c2c1

>  <Energy>  (13) 
70.52483067262052

>  <Genealogy>  (13) 
Cc1ccc2cc(C([NH-])=O)n(C(=O)OCOC(=O)C(C)C(=O)[O-])c2c1 (protonated)
Cc1ccc2cc(C([NH-])=O)n(C(=O)OCOC(=O)[C@H](C)C(=O)[O-])c2c1 (chirality)
Cc1ccc2cc(C([NH-])=O)n(C(=O)OCOC(=O)[C@H](C)C(=O)[O-])c2c1 (3D coordinates assigned)
Cc1ccc2cc(C([NH-])=O)n(C(=O)OCOC(=O)[C@H](C)C(=O)[O-])c2c1 (optimized conformer: 70.52483067262052 kcal/mol)

>  <smiles>  (13) 
Cc1ccc2cc(C(N)=O)n(C(=O)OCOC(=O)C(C)C(=O)O)c2c1

>  <score_type>  (13) 
oracle

>  <origin>  (13) 
adg

>  <m_score__min__energy>  (13) 
-6.7300000000000004

>  <m_primary>  (13) 
energy

$$$$
14:0
     RDKit          3D

 36 37  0  0  0  0  0  0  0  0999 V2000
  141.3330  158.9720  137.3680 C   0  0  0  0  0  0  0  0  0  0  0  0
  141.0080  159.7330  136.2110 O   0  0  0  0  0  0  0  0  0  0  0  0
  141.1990  159.2480  134.9140 C   0  0  0  0  0  0  0  0  0  0  0  0
  140.5640  159.7420  133.9410 O   0  0  0  0  0  0  0  0  0  0  0  0
  142.2060  158.1710  134.6730 C   0  0  0  0  0  0  0  0  0  0  0  0
  143.4930  158.7700  134.1820 C   0  0  0  0  0  0  0  0  0  0  0  0
  143.6230  160.1770  134.0630 C   0  0  0  0  0  0  0  0  0  0  0  0
  144.8350  160.7510  133.6480 C   0  0  0  0  0  0  0  0  0  0  0  0
  145.8970  159.8980  133.3630 C   0  0  0  0  0  0  0  0  0  0  0  0
  147.1860  160.1870  132.9770 C   0  0  0  0  0  0  0  0  0  0  0  0
  147.8220  158.9540  132.8570 C   0  0  0  0  0  0  0  0  0  0  0  0
  149.2140  158.7980  132.3810 C   0  0  0  0  0  0  0  0  0  0  0  0
  149.7800  157.5060  132.1790 N   0  0  0  0  0  0  0  0  0  0  0  0
  149.8990  159.8200  132.1120 O   0  0  0  0  0  0  0  0  0  0  0  0
  146.9630  157.9410  133.1640 N   0  0  0  0  0  0  0  0  0  0  0  0
  147.2520  156.5370  133.2460 C   0  0  0  0  0  0  0  0  0  0  0  0
  147.2750  155.8380  132.1970 O   0  0  0  0  0  0  0  0  0  0  0  0
  147.5270  155.9370  134.5170 N   0  0  0  0  0  0  0  0  0  0  0  0
  146.6720  154.9290  135.1330 C   0  0  0  0  0  0  0  0  0  0  0  0
  147.3900  154.2620  136.2620 C   0  0  0  0  0  0  0  0  0  0  0  0
  148.3790  154.8240  136.8030 O   0  0  0  0  0  0  0  0  0  0  0  0
  146.9500  153.0350  136.7400 O   0  0  0  0  0  0  0  0  0  0  0  0
  145.7880  158.5350  133.4680 C   0  0  0  0  0  0  0  0  0  0  0  0
  144.5970  157.9360  133.8970 C   0  0  0  0  0  0  0  0  0  0  0  0
  141.0855  159.5516  138.2695 H   0  0  0  0  0  0  0  0  0  0  0  0
  140.7564  158.0352  137.3646 H   0  0  0  0  0  0  0  0  0  0  0  0
  142.4084  158.7407  137.3646 H   0  0  0  0  0  0  0  0  0  0  0  0
  142.3915  157.6293  135.6122 H   0  0  0  0  0  0  0  0  0  0  0  0
  141.8176  157.4778  133.9123 H   0  0  0  0  0  0  0  0  0  0  0  0
  142.7658  160.8250  134.2982 H   0  0  0  0  0  0  0  0  0  0  0  0
  144.9420  161.8415  133.5510 H   0  0  0  0  0  0  0  0  0  0  0  0
  147.6217  161.1815  132.8006 H   0  0  0  0  0  0  0  0  0  0  0  0
  149.2050  156.7200  131.8000 H   0  0  0  0  0  0  0  0  0  0  0  0
  145.7605  155.4109  135.5164 H   0  0  0  0  0  0  0  0  0  0  0  0
  146.4086  154.1728  134.3789 H   0  0  0  0  0  0  0  0  0  0  0  0
  144.5231  156.8442  134.0091 H   0  0  0  0  0  0  0  0  0  0  0  0
  1  2  1  0
  2  3  1  0
  3  4  2  0
  3  5  1  0
  5  6  1  0
  6  7  2  0
  7  8  1  0
  8  9  2  0
  9 10  1  0
 10 11  2  0
 11 12  1  0
 12 13  1  0
 12 14  2  0
 11 15  1  0
 15 16  1  0
 16 17  2  0
 16 18  1  0
 18 19  1  0
 19 20  1  0
 20 21  2  0
 20 22  1  0
 15 23  1  0
 23 24  2  0
 24  6  1  0
 23  9  1  0
  1 25  1  0
  1 26  1  0
  1 27  1  0
  5 28  1  0
  5 29  1  0
  7 30  1  0
  8 31  1  0
 10 32  1  0
 13 33  1  0
 19 34  1  0
 19 35  1  0
 24 36  1  0
M  CHG  3  13  -1  18  -1  22  -1
M  END
>  <UniqueID>  (14) 
14

>  <SMILES>  (14) 
COC(=O)Cc1ccc2cc(C([NH-])=O)n(C(=O)[N-]CC(=O)[O-])c2c1

>  <Energy>  (14) 
68.54611374145195

>  <Genealogy>  (14) 
COC(=O)Cc1ccc2cc(C([NH-])=O)n(C(=O)[N-]CC(=O)[O-])c2c1 (protonated)
COC(=O)Cc1ccc2cc(C([NH-])=O)n(C(=O)[N-]CC(=O)[O-])c2c1 (3D coordinates assigned)
COC(=O)Cc1ccc2cc(C([NH-])=O)n(C(=O)[N-]CC(=O)[O-])c2c1 (optimized conformer: 68.54611374145195 kcal/mol)

>  <smiles>  (14) 
COC(=O)Cc1ccc2cc(C(N)=O)n(C(=O)NCC(=O)O)c2c1

>  <score_type>  (14) 
oracle

>  <origin>  (14) 
adg

>  <m_score__min__energy>  (14) 
-6.71

>  <m_primary>  (14) 
energy

$$$$
15:0
     RDKit          3D

 59 60  0  0  0  0  0  0  0  0999 V2000
  141.2580  152.2610  132.9510 C   0  0  0  0  0  0  0  0  0  0  0  0
  142.0500  152.2330  134.1150 O   0  0  0  0  0  0  0  0  0  0  0  0
  143.2100  153.4820  134.0100 P   0  0  0  0  0  0  0  0  0  0  0  0
  144.1510  153.4270  135.1940 O   0  0  0  0  0  0  0  0  0  0  0  0
  144.1090  153.3130  132.5700 O   0  0  0  0  0  0  0  0  0  0  0  0
  145.3190  152.6670  132.8790 C   0  0  0  0  0  0  0  0  0  0  0  0
  142.4450  155.0080  133.9920 O   0  0  0  0  0  0  0  0  0  0  0  0
  142.1020  155.3520  135.3150 C   0  0  0  0  0  0  0  0  0  0  0  0
  141.0170  156.4320  135.2760 C   0  0  0  0  0  0  0  0  0  0  0  0
  140.8960  157.3490  136.5330 C   0  0  0  0  0  0  0  0  0  0  0  0
  141.0880  156.5800  137.8600 C   0  0  0  0  0  0  0  0  0  0  0  0
  139.4690  157.9270  136.5390 C   0  0  0  0  0  0  0  0  0  0  0  0
  141.7750  158.4860  136.4370 O   0  0  0  0  0  0  0  0  0  0  0  0
  142.4110  159.0030  135.2960 C   0  0  0  0  0  0  0  0  0  0  0  0
  142.1110  160.1390  134.8300 O   0  0  0  0  0  0  0  0  0  0  0  0
  143.3840  158.2170  134.6680 O   0  0  0  0  0  0  0  0  0  0  0  0
  143.3890  157.9670  133.2650 C   0  0  0  0  0  0  0  0  0  0  0  0
  144.2320  158.9150  132.6210 O   0  0  0  0  0  0  0  0  0  0  0  0
  145.4370  159.3550  133.1780 C   0  0  0  0  0  0  0  0  0  0  0  0
  145.4550  160.3360  133.9700 O   0  0  0  0  0  0  0  0  0  0  0  0
  146.6610  158.6800  132.8470 N   0  0  0  0  0  0  0  0  0  0  0  0
  147.0660  157.4410  133.2490 C   0  0  0  0  0  0  0  0  0  0  0  0
  146.2640  156.4740  134.0220 C   0  0  0  0  0  0  0  0  0  0  0  0
  145.2880  155.6750  133.3520 N   0  0  0  0  0  0  0  0  0  0  0  0
  146.4090  156.3640  135.2690 O   0  0  0  0  0  0  0  0  0  0  0  0
  148.3550  157.1760  132.7950 C   0  0  0  0  0  0  0  0  0  0  0  0
  148.7330  158.3020  132.0990 C   0  0  0  0  0  0  0  0  0  0  0  0
  149.9440  158.6080  131.4890 C   0  0  0  0  0  0  0  0  0  0  0  0
  150.0950  159.8860  130.9260 C   0  0  0  0  0  0  0  0  0  0  0  0
  149.0480  160.8380  131.0070 C   0  0  0  0  0  0  0  0  0  0  0  0
  149.2340  162.2010  130.4190 C   0  0  0  0  0  0  0  0  0  0  0  0
  147.8230  160.4900  131.6180 C   0  0  0  0  0  0  0  0  0  0  0  0
  147.6940  159.1980  132.1490 C   0  0  0  0  0  0  0  0  0  0  0  0
  140.1950  152.2986  133.2316 H   0  0  0  0  0  0  0  0  0  0  0  0
  141.5119  153.1507  132.3561 H   0  0  0  0  0  0  0  0  0  0  0  0
  141.4484  151.3556  132.3561 H   0  0  0  0  0  0  0  0  0  0  0  0
  145.4335  152.6059  133.9713 H   0  0  0  0  0  0  0  0  0  0  0  0
  145.3121  151.6526  132.4537 H   0  0  0  0  0  0  0  0  0  0  0  0
  146.1581  153.2372  132.4537 H   0  0  0  0  0  0  0  0  0  0  0  0
  141.7218  154.4642  135.8416 H   0  0  0  0  0  0  0  0  0  0  0  0
  142.9882  155.7301  135.8457 H   0  0  0  0  0  0  0  0  0  0  0  0
  141.2213  157.0787  134.4100 H   0  0  0  0  0  0  0  0  0  0  0  0
  140.0648  155.8837  135.2252 H   0  0  0  0  0  0  0  0  0  0  0  0
  140.9179  157.2614  138.7066 H   0  0  0  0  0  0  0  0  0  0  0  0
  140.3700  155.7481  137.9089 H   0  0  0  0  0  0  0  0  0  0  0  0
  142.1128  156.1832  137.9089 H   0  0  0  0  0  0  0  0  0  0  0  0
  139.1329  158.0631  137.5775 H   0  0  0  0  0  0  0  0  0  0  0  0
  139.4645  158.8979  136.0219 H   0  0  0  0  0  0  0  0  0  0  0  0
  138.7901  157.2330  136.0219 H   0  0  0  0  0  0  0  0  0  0  0  0
  143.7656  156.9512  133.0742 H   0  0  0  0  0  0  0  0  0  0  0  0
  142.3658  158.0567  132.8713 H   0  0  0  0  0  0  0  0  0  0  0  0
  144.6530  155.0520  133.8860 H   0  0  0  0  0  0  0  0  0  0  0  0
  148.9453  156.2622  132.9576 H   0  0  0  0  0  0  0  0  0  0  0  0
  150.7598  157.8712  131.4484 H   0  0  0  0  0  0  0  0  0  0  0  0
  151.0341  160.1503  130.4178 H   0  0  0  0  0  0  0  0  0  0  0  0
  149.3347  162.9389  131.2285 H   0  0  0  0  0  0  0  0  0  0  0  0
  150.1419  162.2117  129.7981 H   0  0  0  0  0  0  0  0  0  0  0  0
  148.3621  162.4546  129.7981 H   0  0  0  0  0  0  0  0  0  0  0  0
  146.9943  161.2111  131.6758 H   0  0  0  0  0  0  0  0  0  0  0  0
  1  2  1  0
  2  3  1  0
  3  4  2  0
  3  5  1  0
  5  6  1  0
  3  7  1  0
  7  8  1  0
  8  9  1  0
  9 10  1  0
 10 11  1  0
 10 12  1  0
 10 13  1  0
 13 14  1  0
 14 15  2  0
 14 16  1  0
 16 17  1  0
 17 18  1  0
 18 19  1  0
 19 20  2  0
 19 21  1  0
 21 22  1  0
 22 23  1  0
 23 24  1  0
 23 25  2  0
 22 26  2  0
 26 27  1  0
 27 28  2  0
 28 29  1  0
 29 30  2  0
 30 31  1  0
 30 32  1  0
 32 33  2  0
 33 21  1  0
 33 27  1  0
  1 34  1  0
  1 35  1  0
  1 36  1  0
  6 37  1  0
  6 38  1  0
  6 39  1  0
  8 40  1  0
  8 41  1  0
  9 42  1  0
  9 43  1  0
 11 44  1  0
 11 45  1  0
 11 46  1  0
 12 47  1  0
 12 48  1  0
 12 49  1  0
 17 50  1  0
 17 51  1  0
 24 52  1  0
 26 53  1  0
 28 54  1  0
 29 55  1  0
 31 56  1  0
 31 57  1  0
 31 58  1  0
 32 59  1  0
M  CHG  1  24  -1
M  END
>  <UniqueID>  (15) 
15

>  <SMILES>  (15) 
COP(=O)(OC)OCCC(C)(C)OC(=O)OCOC(=O)n1c(C([NH-])=O)cc2ccc(C)cc21

>  <Energy>  (15) 
88.34588217940512

>  <Genealogy>  (15) 
COP(=O)(OC)OCCC(C)(C)OC(=O)OCOC(=O)n1c(C([NH-])=O)cc2ccc(C)cc21 (protonated)
COP(=O)(OC)OCCC(C)(C)OC(=O)OCOC(=O)n1c(C([NH-])=O)cc2ccc(C)cc21 (3D coordinates assigned)
COP(=O)(OC)OCCC(C)(C)OC(=O)OCOC(=O)n1c(C([NH-])=O)cc2ccc(C)cc21 (optimized conformer: 88.34588217940512 kcal/mol)

>  <smiles>  (15) 
COP(=O)(OC)OCCC(C)(C)OC(=O)OCOC(=O)n1c(C(N)=O)cc2ccc(C)cc21

>  <score_type>  (15) 
oracle

>  <origin>  (15) 
adg

>  <m_score__min__energy>  (15) 
-6.7999999999999998

>  <m_primary>  (15) 
energy

$$$$
16:0
     RDKit          3D

 42 43  0  0  0  0  0  0  0  0999 V2000
  139.6030  158.2020  135.9690 C   0  0  0  0  0  0  0  0  0  0  0  0
  140.3960  157.9520  134.6710 C   0  0  0  0  0  0  0  0  0  0  0  0
  139.8490  158.8750  133.5520 C   0  0  0  0  0  0  0  0  0  0  0  0
  140.7430  158.9380  132.4700 O   0  0  0  0  0  0  0  0  0  0  0  0
  140.2330  156.4700  134.2540 C   0  0  0  0  0  0  0  0  0  0  0  0
  140.7820  156.2350  132.9830 O   0  0  0  0  0  0  0  0  0  0  0  0
  141.8060  158.2590  134.9400 N   0  0  0  0  0  0  0  0  0  0  0  0
  142.9410  157.4680  134.5610 C   0  0  0  0  0  0  0  0  0  0  0  0
  143.3170  156.4990  135.2730 O   0  0  0  0  0  0  0  0  0  0  0  0
  143.6750  157.7970  133.3310 C   0  0  0  0  0  0  0  0  0  0  0  0
  143.1920  157.4740  132.2120 O   0  0  0  0  0  0  0  0  0  0  0  0
  144.9340  158.4850  133.3880 N   0  0  0  0  0  0  0  0  0  0  0  0
  145.1410  159.8260  133.5130 C   0  0  0  0  0  0  0  0  0  0  0  0
  144.0780  160.8350  133.7370 C   0  0  0  0  0  0  0  0  0  0  0  0
  142.7020  160.5160  133.5220 N   0  0  0  0  0  0  0  0  0  0  0  0
  144.3830  162.0000  134.1060 O   0  0  0  0  0  0  0  0  0  0  0  0
  146.5050  160.1130  133.4640 C   0  0  0  0  0  0  0  0  0  0  0  0
  147.1290  158.8970  133.2950 C   0  0  0  0  0  0  0  0  0  0  0  0
  148.4810  158.5930  133.1650 C   0  0  0  0  0  0  0  0  0  0  0  0
  148.8380  157.2470  132.9700 C   0  0  0  0  0  0  0  0  0  0  0  0
  147.8440  156.2380  132.9010 C   0  0  0  0  0  0  0  0  0  0  0  0
  148.2440  154.8100  132.6720 C   0  0  0  0  0  0  0  0  0  0  0  0
  148.0570  154.0800  133.8310 F   0  0  0  0  0  0  0  0  0  0  0  0
  149.5760  154.7530  132.3070 F   0  0  0  0  0  0  0  0  0  0  0  0
  146.4810  156.5870  133.0340 C   0  0  0  0  0  0  0  0  0  0  0  0
  146.1580  157.9320  133.2480 C   0  0  0  0  0  0  0  0  0  0  0  0
  140.2472  157.9989  136.8372 H   0  0  0  0  0  0  0  0  0  0  0  0
  139.2680  159.2493  135.9980 H   0  0  0  0  0  0  0  0  0  0  0  0
  138.7279  157.5362  135.9980 H   0  0  0  0  0  0  0  0  0  0  0  0
  138.8847  158.4804  133.1994 H   0  0  0  0  0  0  0  0  0  0  0  0
  139.7237  159.8877  133.9628 H   0  0  0  0  0  0  0  0  0  0  0  0
  141.4970  158.3290  132.6810 H   0  0  0  0  0  0  0  0  0  0  0  0
  140.7454  155.8323  134.9893 H   0  0  0  0  0  0  0  0  0  0  0  0
  139.1589  156.2354  134.2174 H   0  0  0  0  0  0  0  0  0  0  0  0
  141.4850  156.9220  132.8430 H   0  0  0  0  0  0  0  0  0  0  0  0
  141.9700  161.2500  133.6510 H   0  0  0  0  0  0  0  0  0  0  0  0
  142.3960  159.5490  133.2760 H   0  0  0  0  0  0  0  0  0  0  0  0
  146.9814  161.1013  133.5435 H   0  0  0  0  0  0  0  0  0  0  0  0
  149.2466  159.3814  133.2133 H   0  0  0  0  0  0  0  0  0  0  0  0
  149.8989  156.9740  132.8700 H   0  0  0  0  0  0  0  0  0  0  0  0
  147.6230  154.3873  131.8684 H   0  0  0  0  0  0  0  0  0  0  0  0
  145.6940  155.8211  132.9709 H   0  0  0  0  0  0  0  0  0  0  0  0
  1  2  1  0
  2  3  1  0
  3  4  1  0
  2  5  1  0
  5  6  1  0
  2  7  1  0
  7  8  1  0
  8  9  2  0
  8 10  1  0
 10 11  2  0
 10 12  1  0
 12 13  1  0
 13 14  1  0
 14 15  1  0
 14 16  2  0
 13 17  2  0
 17 18  1  0
 18 19  2  0
 19 20  1  0
 20 21  2  0
 21 22  1  0
 22 23  1  0
 22 24  1  0
 21 25  1  0
 25 26  2  0
 26 12  1  0
 26 18  1  0
  1 27  1  0
  1 28  1  0
  1 29  1  0
  3 30  1  0
  3 31  1  0
  4 32  1  0
  5 33  1  0
  5 34  1  0
  6 35  1  0
 15 36  1  0
 15 37  1  0
 17 38  1  0
 19 39  1  0
 20 40  1  0
 22 41  1  0
 25 42  1  0
M  CHG  1   7  -1
M  END
>  <UniqueID>  (16) 
16

>  <SMILES>  (16) 
CC(CO)(CO)[N-]C(=O)C(=O)n1c(C(N)=O)cc2ccc(C(F)F)cc21

>  <Energy>  (16) 
76.8484456672549

>  <Genealogy>  (16) 
CC(CO)(CO)[N-]C(=O)C(=O)n1c(C(N)=O)cc2ccc(C(F)F)cc21 (protonated)
CC(CO)(CO)[N-]C(=O)C(=O)n1c(C(N)=O)cc2ccc(C(F)F)cc21 (3D coordinates assigned)
CC(CO)(CO)[N-]C(=O)C(=O)n1c(C(N)=O)cc2ccc(C(F)F)cc21 (optimized conformer: 76.8484456672549 kcal/mol)

>  <smiles>  (16) 
CC(CO)(CO)NC(=O)C(=O)n1c(C(N)=O)cc2ccc(C(F)F)cc21

>  <score_type>  (16) 
oracle

>  <origin>  (16) 
adg

>  <m_score__min__energy>  (16) 
-6.0700000000000003

>  <m_primary>  (16) 
energy

$$$$
17:0
     RDKit          3D

 42 43  0  0  0  0  0  0  0  0999 V2000
  138.4080  160.2280  130.3490 C   0  0  0  0  0  0  0  0  0  0  0  0
  137.9160  159.3730  131.2490 C   0  0  0  0  0  0  0  0  0  0  0  0
  138.7570  158.2650  131.8160 C   0  0  0  0  0  0  0  0  0  0  0  0
  139.2240  158.6010  133.1210 O   0  0  0  0  0  0  0  0  0  0  0  0
  140.3900  159.3370  133.3520 C   0  0  0  0  0  0  0  0  0  0  0  0
  140.8850  160.0570  132.4400 O   0  0  0  0  0  0  0  0  0  0  0  0
  140.9950  159.2690  134.6100 O   0  0  0  0  0  0  0  0  0  0  0  0
  141.7520  158.1460  135.0610 C   0  0  2  0  0  0  0  0  0  0  0  0
  141.4880  157.8940  136.5420 C   0  0  0  0  0  0  0  0  0  0  0  0
  143.1400  158.4140  134.8830 O   0  0  0  0  0  0  0  0  0  0  0  0
  143.7670  158.3890  133.6340 C   0  0  0  0  0  0  0  0  0  0  0  0
  143.1970  157.8500  132.6450 O   0  0  0  0  0  0  0  0  0  0  0  0
  145.0560  159.0030  133.4720 N   0  0  0  0  0  0  0  0  0  0  0  0
  145.3820  160.3210  133.6020 C   0  0  0  0  0  0  0  0  0  0  0  0
  144.4330  161.4340  133.8090 C   0  0  0  0  0  0  0  0  0  0  0  0
  143.0300  161.1930  133.7340 N   0  0  0  0  0  0  0  0  0  0  0  0
  144.8450  162.5910  134.0880 O   0  0  0  0  0  0  0  0  0  0  0  0
  146.7520  160.5040  133.4300 C   0  0  0  0  0  0  0  0  0  0  0  0
  147.2600  159.2500  133.1800 C   0  0  0  0  0  0  0  0  0  0  0  0
  148.5710  158.8450  132.9440 C   0  0  0  0  0  0  0  0  0  0  0  0
  148.8120  157.4750  132.7420 C   0  0  0  0  0  0  0  0  0  0  0  0
  147.7460  156.5410  132.7860 C   0  0  0  0  0  0  0  0  0  0  0  0
  148.0110  155.0750  132.5890 C   0  0  0  0  0  0  0  0  0  0  0  0
  147.5230  154.3630  133.6680 F   0  0  0  0  0  0  0  0  0  0  0  0
  149.3720  154.8600  132.4770 F   0  0  0  0  0  0  0  0  0  0  0  0
  146.4300  156.9880  133.0320 C   0  0  0  0  0  0  0  0  0  0  0  0
  146.2170  158.3610  133.2100 C   0  0  0  0  0  0  0  0  0  0  0  0
  137.7722  161.0313  129.9485 H   0  0  0  0  0  0  0  0  0  0  0  0
  139.4492  160.1290  130.0081 H   0  0  0  0  0  0  0  0  0  0  0  0
  136.8733  159.4823  131.5820 H   0  0  0  0  0  0  0  0  0  0  0  0
  138.1531  157.3474  131.8742 H   0  0  0  0  0  0  0  0  0  0  0  0
  139.6259  158.1104  131.1594 H   0  0  0  0  0  0  0  0  0  0  0  0
  141.4556  157.2597  134.4808 H   0  0  0  0  0  0  0  0  0  0  0  0
  142.1529  158.5287  137.1462 H   0  0  0  0  0  0  0  0  0  0  0  0
  140.4402  158.1354  136.7740 H   0  0  0  0  0  0  0  0  0  0  0  0
  141.6805  156.8361  136.7740 H   0  0  0  0  0  0  0  0  0  0  0  0
  142.6530  160.2200  133.7050 H   0  0  0  0  0  0  0  0  0  0  0  0
  147.3097  161.4506  133.4828 H   0  0  0  0  0  0  0  0  0  0  0  0
  149.3933  159.5751  132.9165 H   0  0  0  0  0  0  0  0  0  0  0  0
  149.8364  157.1244  132.5481 H   0  0  0  0  0  0  0  0  0  0  0  0
  147.5081  154.7381  131.6705 H   0  0  0  0  0  0  0  0  0  0  0  0
  145.5929  156.2762  133.0826 H   0  0  0  0  0  0  0  0  0  0  0  0
  1  2  2  0
  2  3  1  0
  3  4  1  0
  4  5  1  0
  5  6  2  0
  5  7  1  0
  7  8  1  0
  8  9  1  0
  8 10  1  0
 10 11  1  0
 11 12  2  0
 11 13  1  0
 13 14  1  0
 14 15  1  0
 15 16  1  0
 15 17  2  0
 14 18  2  0
 18 19  1  0
 19 20  2  0
 20 21  1  0
 21 22  2  0
 22 23  1  0
 23 24  1  0
 23 25  1  0
 22 26  1  0
 26 27  2  0
 27 13  1  0
 27 19  1  0
  1 28  1  0
  1 29  1  0
  2 30  1  0
  3 31  1  0
  3 32  1  0
  8 33  1  6
  9 34  1  0
  9 35  1  0
  9 36  1  0
 16 37  1  0
 18 38  1  0
 20 39  1  0
 21 40  1  0
 23 41  1  0
 26 42  1  0
M  CHG  1  16  -1
M  END
>  <UniqueID>  (17) 
17

>  <SMILES>  (17) 
C=CCOC(=O)O[C@H](C)OC(=O)n1c(C([NH-])=O)cc2ccc(C(F)F)cc21

>  <Energy>  (17) 
70.62833708150602

>  <Genealogy>  (17) 
C=CCOC(=O)OC(C)OC(=O)n1c(C([NH-])=O)cc2ccc(C(F)F)cc21 (protonated)
C=CCOC(=O)O[C@H](C)OC(=O)n1c(C([NH-])=O)cc2ccc(C(F)F)cc21 (chirality)
C=CCOC(=O)O[C@H](C)OC(=O)n1c(C([NH-])=O)cc2ccc(C(F)F)cc21 (3D coordinates assigned)
C=CCOC(=O)O[C@H](C)OC(=O)n1c(C([NH-])=O)cc2ccc(C(F)F)cc21 (optimized conformer: 70.62833708150602 kcal/mol)

>  <smiles>  (17) 
C=CCOC(=O)OC(C)OC(=O)n1c(C(N)=O)cc2ccc(C(F)F)cc21

>  <score_type>  (17) 
oracle

>  <origin>  (17) 
adg

>  <m_score__min__energy>  (17) 
-6.2300000000000004

>  <m_primary>  (17) 
energy

$$$$
18:0
     RDKit          3D

 58 63  0  0  0  0  0  0  0  0999 V2000
  148.8860  150.1230  133.1220 N   0  0  0  0  0  0  0  0  0  0  0  0
  149.4660  151.2580  132.4820 C   0  0  0  0  0  0  0  0  0  0  0  0
  150.5680  151.1400  131.8840 O   0  0  0  0  0  0  0  0  0  0  0  0
  148.8370  152.5850  132.5850 C   0  0  0  0  0  0  0  0  0  0  0  0
  149.5710  153.7640  132.5980 C   0  0  0  0  0  0  0  0  0  0  0  0
  148.6420  154.7650  132.7470 C   0  0  0  0  0  0  0  0  0  0  0  0
  148.8300  156.1390  132.8430 C   0  0  0  0  0  0  0  0  0  0  0  0
  147.6970  156.9500  133.0070 C   0  0  0  0  0  0  0  0  0  0  0  0
  146.4010  156.3790  133.0780 C   0  0  0  0  0  0  0  0  0  0  0  0
  145.2080  157.2480  133.2450 C   0  0  0  0  0  0  0  0  0  0  0  0
  145.3500  158.5760  133.6720 C   0  0  0  0  0  0  0  0  0  0  0  0
  144.2280  159.3910  133.8470 C   0  0  0  0  0  0  0  0  0  0  0  0
  142.9340  158.8980  133.6010 C   0  0  0  0  0  0  0  0  0  0  0  0
  141.7550  159.7890  133.8030 C   0  0  0  0  0  0  0  0  0  0  0  0
  141.8570  161.0170  133.5360 O   0  0  0  0  0  0  0  0  0  0  0  0
  140.4210  159.2870  134.2870 C   0  0  0  0  0  0  0  0  0  0  0  0
  140.5820  158.4100  135.5280 C   0  0  2  0  0  0  0  0  0  0  0  0
  139.5430  158.2320  136.6460 C   0  0  0  0  0  0  0  0  0  0  0  0
  140.7920  157.3830  136.9160 C   0  0  2  0  0  0  0  0  0  0  0  0
  140.9710  156.5150  138.1190 C   0  0  0  0  0  0  0  0  0  0  0  0
  141.3330  156.9840  139.2690 N   0  0  0  0  0  0  0  0  0  0  0  0
  141.4050  155.8810  140.1600 C   0  0  0  0  0  0  0  0  0  0  0  0
  141.0870  154.7510  139.5500 C   0  0  0  0  0  0  0  0  0  0  0  0
  141.0590  153.4260  140.1830 C   0  0  0  0  0  0  0  0  0  0  0  0
  141.7670  153.1970  141.1990 O   0  0  0  0  0  0  0  0  0  0  0  0
  140.2550  152.4160  139.6690 O   0  0  0  0  0  0  0  0  0  0  0  0
  140.7630  155.0370  138.1240 C   0  0  0  0  0  0  0  0  0  0  0  0
  141.7100  158.5600  136.5610 C   0  0  0  0  0  0  0  0  0  0  0  0
  140.8090  156.8930  135.4630 C   0  0  0  0  0  0  0  0  0  0  0  0
  142.7960  157.5670  133.1640 C   0  0  0  0  0  0  0  0  0  0  0  0
  143.9190  156.7530  132.9890 C   0  0  0  0  0  0  0  0  0  0  0  0
  146.2520  154.9740  132.9830 C   0  0  0  0  0  0  0  0  0  0  0  0
  147.3990  154.1850  132.8020 C   0  0  0  0  0  0  0  0  0  0  0  0
  147.4970  152.8350  132.6900 N   0  0  0  0  0  0  0  0  0  0  0  0
  146.4180  151.8820  132.5530 C   0  0  0  0  0  0  0  0  0  0  0  0
  146.6440  150.7120  132.1460 O   0  0  0  0  0  0  0  0  0  0  0  0
  145.1020  152.2470  132.8140 O   0  0  0  0  0  0  0  0  0  0  0  0
  149.3420  149.1870  133.0490 H   0  0  0  0  0  0  0  0  0  0  0  0
  148.0360  150.2250  133.7230 H   0  0  0  0  0  0  0  0  0  0  0  0
  150.6619  153.8729  132.5083 H   0  0  0  0  0  0  0  0  0  0  0  0
  149.8375  156.5775  132.7919 H   0  0  0  0  0  0  0  0  0  0  0  0
  147.8154  158.0411  133.0813 H   0  0  0  0  0  0  0  0  0  0  0  0
  146.3535  158.9801  133.8711 H   0  0  0  0  0  0  0  0  0  0  0  0
  144.3587  160.4308  134.1813 H   0  0  0  0  0  0  0  0  0  0  0  0
  139.7817  160.1471  134.5351 H   0  0  0  0  0  0  0  0  0  0  0  0
  139.9637  158.6836  133.4890 H   0  0  0  0  0  0  0  0  0  0  0  0
  139.3365  159.0849  137.3092 H   0  0  0  0  0  0  0  0  0  0  0  0
  138.4790  157.9560  136.6040 H   0  0  0  0  0  0  0  0  0  0  0  0
  141.6885  155.9562  141.2202 H   0  0  0  0  0  0  0  0  0  0  0  0
  141.4500  154.5231  137.4355 H   0  0  0  0  0  0  0  0  0  0  0  0
  139.7693  154.7017  137.7921 H   0  0  0  0  0  0  0  0  0  0  0  0
  141.7055  159.4435  137.2163 H   0  0  0  0  0  0  0  0  0  0  0  0
  142.8015  158.6103  136.4344 H   0  0  0  0  0  0  0  0  0  0  0  0
  141.7576  156.5233  135.0466 H   0  0  0  0  0  0  0  0  0  0  0  0
  140.2342  156.0992  134.9635 H   0  0  0  0  0  0  0  0  0  0  0  0
  141.7938  157.1631  132.9580 H   0  0  0  0  0  0  0  0  0  0  0  0
  143.7918  155.7151  132.6476 H   0  0  0  0  0  0  0  0  0  0  0  0
  145.2569  154.5099  133.0497 H   0  0  0  0  0  0  0  0  0  0  0  0
  1  2  1  0
  2  3  2  0
  2  4  1  0
  4  5  2  0
  5  6  1  0
  6  7  2  0
  7  8  1  0
  8  9  2  0
  9 10  1  0
 10 11  2  0
 11 12  1  0
 12 13  2  0
 13 14  1  0
 14 15  2  0
 14 16  1  0
 17 16  1  6
 17 18  1  0
 18 19  1  0
 19 20  1  1
 20 21  2  0
 21 22  1  0
 22 23  2  0
 23 24  1  0
 24 25  2  0
 24 26  1  0
 23 27  1  0
 19 28  1  0
 19 29  1  0
 13 30  1  0
 30 31  2  0
  9 32  1  0
 32 33  2  0
 33 34  1  0
 34 35  1  0
 35 36  2  0
 35 37  1  0
 34  4  1  0
 33  6  1  0
 31 10  1  0
 28 17  1  0
 29 17  1  0
 27 20  1  0
  1 38  1  0
  1 39  1  0
  5 40  1  0
  7 41  1  0
  8 42  1  0
 11 43  1  0
 12 44  1  0
 16 45  1  0
 16 46  1  0
 18 47  1  0
 18 48  1  0
 22 49  1  0
 27 50  1  0
 27 51  1  0
 28 52  1  0
 28 53  1  0
 29 54  1  0
 29 55  1  0
 30 56  1  0
 31 57  1  0
 32 58  1  0
M  CHG  2  26  -1  37  -1
M  END
>  <UniqueID>  (18) 
18

>  <SMILES>  (18) 
NC(=O)c1cc2ccc(-c3ccc(C(=O)CC45CC(C6=NC=C(C(=O)[O-])C6)(C4)C5)cc3)cc2n1C(=O)[O-]

>  <Energy>  (18) 
415.9895978571211

>  <Genealogy>  (18) 
NC(=O)c1cc2ccc(-c3ccc(C(=O)CC45CC(C6=NC=C(C(=O)[O-])C6)(C4)C5)cc3)cc2n1C(=O)[O-] (protonated)
NC(=O)c1cc2ccc(-c3ccc(C(=O)CC45CC(C6=NC=C(C(=O)[O-])C6)(C4)C5)cc3)cc2n1C(=O)[O-] (3D coordinates assigned)
NC(=O)c1cc2ccc(-c3ccc(C(=O)CC45CC(C6=NC=C(C(=O)[O-])C6)(C4)C5)cc3)cc2n1C(=O)[O-] (nonaromatic ring conformer: 415.9895978571211 kcal/mol)

>  <smiles>  (18) 
NC(=O)c1cc2ccc(-c3ccc(C(=O)CC45CC(C6=NC=C(C(=O)O)C6)(C4)C5)cc3)cc2n1C(=O)O

>  <score_type>  (18) 
oracle

>  <origin>  (18) 
adg

>  <m_score__min__energy>  (18) 
-10.539999999999999

>  <m_primary>  (18) 
energy

$$$$
19:0
     RDKit          3D

 42 43  0  0  0  0  0  0  0  0999 V2000
  139.6720  157.3340  135.1580 C   0  0  0  0  0  0  0  0  0  0  0  0
  139.0820  157.1280  133.7610 C   0  0  1  0  0  0  0  0  0  0  0  0
  138.7710  158.4710  133.0520 C   0  0  0  0  0  0  0  0  0  0  0  0
  139.8810  158.9930  132.2180 N   0  0  2  0  0  0  0  0  0  0  0  0
  140.6320  160.0700  132.8880 C   0  0  0  0  0  0  0  0  0  0  0  0
  139.3480  159.4840  130.9690 C   0  0  0  0  0  0  0  0  0  0  0  0
  139.1440  158.6980  130.0020 O   0  0  0  0  0  0  0  0  0  0  0  0
  139.0670  160.8370  130.8160 O   0  0  0  0  0  0  0  0  0  0  0  0
  140.0300  156.3960  132.9830 O   0  0  0  0  0  0  0  0  0  0  0  0
  140.1510  155.0020  133.0140 C   0  0  0  0  0  0  0  0  0  0  0  0
  139.1230  154.2720  132.9780 O   0  0  0  0  0  0  0  0  0  0  0  0
  141.4560  154.4050  133.0620 N   0  0  0  0  0  0  0  0  0  0  0  0
  142.6460  155.0060  133.3490 C   0  0  0  0  0  0  0  0  0  0  0  0
  142.8620  156.4540  133.5450 C   0  0  0  0  0  0  0  0  0  0  0  0
  142.4460  157.3740  132.5380 N   0  0  0  0  0  0  0  0  0  0  0  0
  143.3780  156.8930  134.6050 O   0  0  0  0  0  0  0  0  0  0  0  0
  143.6750  154.0670  133.3580 C   0  0  0  0  0  0  0  0  0  0  0  0
  143.0760  152.8640  133.0580 C   0  0  0  0  0  0  0  0  0  0  0  0
  143.6280  151.5910  132.9570 C   0  0  0  0  0  0  0  0  0  0  0  0
  142.7640  150.5200  132.6690 C   0  0  0  0  0  0  0  0  0  0  0  0
  141.3740  150.7380  132.4790 C   0  0  0  0  0  0  0  0  0  0  0  0
  140.4490  149.5740  132.2340 C   0  0  0  0  0  0  0  0  0  0  0  0
  139.3430  149.9750  131.5040 F   0  0  0  0  0  0  0  0  0  0  0  0
  141.1250  148.5970  131.5280 F   0  0  0  0  0  0  0  0  0  0  0  0
  140.0070  149.0410  133.4320 F   0  0  0  0  0  0  0  0  0  0  0  0
  140.8510  152.0450  132.6150 C   0  0  0  0  0  0  0  0  0  0  0  0
  141.7370  153.0950  132.8830 C   0  0  0  0  0  0  0  0  0  0  0  0
  138.9196  157.0713  135.9162 H   0  0  0  0  0  0  0  0  0  0  0  0
  140.5563  156.6914  135.2810 H   0  0  0  0  0  0  0  0  0  0  0  0
  139.9642  158.3873  135.2810 H   0  0  0  0  0  0  0  0  0  0  0  0
  138.1326  156.5816  133.8609 H   0  0  0  0  0  0  0  0  0  0  0  0
  137.8938  158.3237  132.4048 H   0  0  0  0  0  0  0  0  0  0  0  0
  138.5976  159.2130  133.8454 H   0  0  0  0  0  0  0  0  0  0  0  0
  140.5460  158.2180  131.9890 H   0  0  0  0  0  0  0  0  0  0  0  0
  140.5492  159.9512  133.9784 H   0  0  0  0  0  0  0  0  0  0  0  0
  141.6903  160.0175  132.5928 H   0  0  0  0  0  0  0  0  0  0  0  0
  140.2169  161.0450  132.5928 H   0  0  0  0  0  0  0  0  0  0  0  0
  141.7030  157.1200  131.8520 H   0  0  0  0  0  0  0  0  0  0  0  0
  144.7407  154.2483  133.5617 H   0  0  0  0  0  0  0  0  0  0  0  0
  144.7066  151.4276  133.0980 H   0  0  0  0  0  0  0  0  0  0  0  0
  143.1699  149.5007  132.5899 H   0  0  0  0  0  0  0  0  0  0  0  0
  139.7719  152.2322  132.5125 H   0  0  0  0  0  0  0  0  0  0  0  0
  1  2  1  0
  2  3  1  0
  3  4  1  0
  4  5  1  0
  4  6  1  0
  6  7  2  0
  6  8  1  0
  2  9  1  0
  9 10  1  0
 10 11  2  0
 10 12  1  0
 12 13  1  0
 13 14  1  0
 14 15  1  0
 14 16  2  0
 13 17  2  0
 17 18  1  0
 18 19  2  0
 19 20  1  0
 20 21  2  0
 21 22  1  0
 22 23  1  0
 22 24  1  0
 22 25  1  0
 21 26  1  0
 26 27  2  0
 27 12  1  0
 27 18  1  0
  1 28  1  0
  1 29  1  0
  1 30  1  0
  2 31  1  1
  3 32  1  0
  3 33  1  0
  4 34  1  6
  5 35  1  0
  5 36  1  0
  5 37  1  0
 15 38  1  0
 17 39  1  0
 19 40  1  0
 20 41  1  0
 26 42  1  0
M  CHG  3   4   1   8  -1  15  -1
M  END
>  <UniqueID>  (19) 
19

>  <SMILES>  (19) 
C[C@@H](C[N@H+](C)C(=O)[O-])OC(=O)n1c(C([NH-])=O)cc2ccc(C(F)(F)F)cc21

>  <Energy>  (19) 
80.26607380530112

>  <Genealogy>  (19) 
CC(C[NH+](C)C(=O)[O-])OC(=O)n1c(C([NH-])=O)cc2ccc(C(F)(F)F)cc21 (protonated)
C[C@@H](C[N@H+](C)C(=O)[O-])OC(=O)n1c(C([NH-])=O)cc2ccc(C(F)(F)F)cc21 (chirality)
C[C@@H](C[N@H+](C)C(=O)[O-])OC(=O)n1c(C([NH-])=O)cc2ccc(C(F)(F)F)cc21 (3D coordinates assigned)
C[C@@H](C[N@H+](C)C(=O)[O-])OC(=O)n1c(C([NH-])=O)cc2ccc(C(F)(F)F)cc21 (optimized conformer: 80.26607380530112 kcal/mol)

>  <smiles>  (19) 
CC(CN(C)C(=O)O)OC(=O)n1c(C(N)=O)cc2ccc(C(F)(F)F)cc21

>  <score_type>  (19) 
oracle

>  <origin>  (19) 
adg

>  <m_score__min__energy>  (19) 
-5.0899999999999999

>  <m_primary>  (19) 
energy

$$$$
20:0
     RDKit          3D

 36 37  0  0  0  0  0  0  0  0999 V2000
  146.7700  154.0080  133.1070 C   0  0  0  0  0  0  0  0  0  0  0  0
  147.8660  154.9670  132.9260 N   0  0  0  0  0  0  0  0  0  0  0  0
  149.2070  154.4600  132.6080 C   0  0  0  0  0  0  0  0  0  0  0  0
  147.6300  156.3920  133.0600 C   0  0  0  0  0  0  0  0  0  0  0  0
  148.7110  157.3170  133.0020 C   0  0  0  0  0  0  0  0  0  0  0  0
  148.4920  158.6990  133.1170 C   0  0  0  0  0  0  0  0  0  0  0  0
  147.1870  159.1400  133.3000 C   0  0  0  0  0  0  0  0  0  0  0  0
  146.6960  160.4200  133.4150 C   0  0  0  0  0  0  0  0  0  0  0  0
  145.3180  160.2730  133.5660 C   0  0  0  0  0  0  0  0  0  0  0  0
  144.3920  161.4000  133.8140 C   0  0  0  0  0  0  0  0  0  0  0  0
  142.9790  161.2200  133.7050 N   0  0  0  0  0  0  0  0  0  0  0  0
  144.8440  162.5420  134.0940 O   0  0  0  0  0  0  0  0  0  0  0  0
  144.9730  158.9550  133.5450 N   0  0  0  0  0  0  0  0  0  0  0  0
  143.6490  158.4010  133.6000 C   0  0  0  0  0  0  0  0  0  0  0  0
  143.1700  157.8180  132.5880 O   0  0  0  0  0  0  0  0  0  0  0  0
  142.8970  158.5270  134.7760 O   0  0  0  0  0  0  0  0  0  0  0  0
  141.6150  159.0830  134.8550 C   0  0  0  0  0  0  0  0  0  0  0  0
  141.3780  160.0960  135.5680 O   0  0  0  0  0  0  0  0  0  0  0  0
  140.2850  158.3410  133.9200 S   0  0  0  0  0  0  0  0  0  0  0  0
  140.3090  159.6450  132.6960 C   0  0  0  0  0  0  0  0  0  0  0  0
  140.6180  160.8170  133.0310 O   0  0  0  0  0  0  0  0  0  0  0  0
  139.9820  159.3630  131.3760 O   0  0  0  0  0  0  0  0  0  0  0  0
  146.1300  158.2740  133.3800 C   0  0  0  0  0  0  0  0  0  0  0  0
  146.3150  156.8930  133.2470 C   0  0  0  0  0  0  0  0  0  0  0  0
  146.5924  153.8526  134.1814 H   0  0  0  0  0  0  0  0  0  0  0  0
  145.8566  154.4022  132.6376 H   0  0  0  0  0  0  0  0  0  0  0  0
  147.0395  153.0503  132.6376 H   0  0  0  0  0  0  0  0  0  0  0  0
  149.7519  154.2540  133.5411 H   0  0  0  0  0  0  0  0  0  0  0  0
  149.1192  153.5330  132.0224 H   0  0  0  0  0  0  0  0  0  0  0  0
  149.7544  155.2132  132.0224 H   0  0  0  0  0  0  0  0  0  0  0  0
  149.7360  156.9421  132.8646 H   0  0  0  0  0  0  0  0  0  0  0  0
  149.3285  159.4114  133.0638 H   0  0  0  0  0  0  0  0  0  0  0  0
  147.2685  161.3590  133.3926 H   0  0  0  0  0  0  0  0  0  0  0  0
  142.3350  162.0310  133.8450 H   0  0  0  0  0  0  0  0  0  0  0  0
  142.5630  160.2800  133.5270 H   0  0  0  0  0  0  0  0  0  0  0  0
  145.4558  156.2073  133.2867 H   0  0  0  0  0  0  0  0  0  0  0  0
  1  2  1  0
  2  3  1  0
  2  4  1  0
  4  5  2  0
  5  6  1  0
  6  7  2  0
  7  8  1  0
  8  9  2  0
  9 10  1  0
 10 11  1  0
 10 12  2  0
  9 13  1  0
 13 14  1  0
 14 15  2  0
 14 16  1  0
 16 17  1  0
 17 18  2  0
 17 19  1  0
 19 20  1  0
 20 21  2  0
 20 22  1  0
 13 23  1  0
 23 24  2  0
 24  4  1  0
 23  7  1  0
  1 25  1  0
  1 26  1  0
  1 27  1  0
  3 28  1  0
  3 29  1  0
  3 30  1  0
  5 31  1  0
  6 32  1  0
  8 33  1  0
 11 34  1  0
 11 35  1  0
 24 36  1  0
M  CHG  1  22  -1
M  END
>  <UniqueID>  (20) 
20

>  <SMILES>  (20) 
CN(C)c1ccc2cc(C(N)=O)n(C(=O)OC(=O)SC(=O)[O-])c2c1

>  <Energy>  (20) 
73.48319231008688

>  <Genealogy>  (20) 
CN(C)c1ccc2cc(C(N)=O)n(C(=O)OC(=O)SC(=O)[O-])c2c1 (protonated)
CN(C)c1ccc2cc(C(N)=O)n(C(=O)OC(=O)SC(=O)[O-])c2c1 (3D coordinates assigned)
CN(C)c1ccc2cc(C(N)=O)n(C(=O)OC(=O)SC(=O)[O-])c2c1 (optimized conformer: 73.48319231008688 kcal/mol)

>  <smiles>  (20) 
CN(C)c1ccc2cc(C(N)=O)n(C(=O)OC(=O)SC(=O)O)c2c1

>  <score_type>  (20) 
oracle

>  <origin>  (20) 
adg

>  <m_score__min__energy>  (20) 
-6.75

>  <m_primary>  (20) 
energy

$$$$
21:0
     RDKit          3D

 92 99  0  0  0  0  0  0  0  0999 V2000
  147.4890  153.6180  139.7880 C   0  0  0  0  0  0  0  0  0  0  0  0
  146.1090  152.9720  139.9720 C   0  0  1  0  0  0  0  0  0  0  0  0
  145.1320  153.8060  140.8350 C   0  0  0  0  0  0  0  0  0  0  0  0
  143.7340  153.6600  140.3510 N   0  0  0  0  0  0  0  0  0  0  0  0
  142.7730  154.4530  141.1790 C   0  0  0  0  0  0  0  0  0  0  0  0
  142.9330  155.9390  140.8070 C   0  0  0  0  0  0  0  0  0  0  0  0
  142.6050  156.1670  139.3180 C   0  0  0  0  0  0  0  0  0  0  0  0
  141.5630  155.2390  138.8390 N   0  0  0  0  0  0  0  0  0  0  0  0
  141.5050  154.8760  137.4360 C   0  0  0  0  0  0  0  0  0  0  0  0
  141.6660  155.8720  136.4300 C   0  0  0  0  0  0  0  0  0  0  0  0
  141.7160  155.5270  135.0680 C   0  0  0  0  0  0  0  0  0  0  0  0
  141.6230  154.1830  134.7270 C   0  0  0  0  0  0  0  0  0  0  0  0
  141.4380  153.2120  135.6820 C   0  0  0  0  0  0  0  0  0  0  0  0
  141.3620  153.5220  137.0360 C   0  0  0  0  0  0  0  0  0  0  0  0
  141.3840  151.9240  135.0040 C   0  0  0  0  0  0  0  0  0  0  0  0
  141.1650  150.8110  135.5580 O   0  0  0  0  0  0  0  0  0  0  0  0
  141.5800  152.1020  133.5950 N   0  0  0  0  0  0  0  0  0  0  0  0
  141.4040  151.1080  132.5310 C   0  0  2  0  0  0  0  0  0  0  0  0
  139.9810  150.5190  132.5940 C   0  0  0  0  0  0  0  0  0  0  0  0
  139.7910  149.3870  131.5780 C   0  0  0  0  0  0  0  0  0  0  0  0
  140.8370  148.3270  131.7730 C   0  0  0  0  0  0  0  0  0  0  0  0
  140.5870  147.1320  131.4670 O   0  0  0  0  0  0  0  0  0  0  0  0
  142.1330  148.6780  132.2600 N   0  0  0  0  0  0  0  0  0  0  0  0
  142.4480  150.0210  132.6360 C   0  0  0  0  0  0  0  0  0  0  0  0
  143.6230  150.3030  132.9910 O   0  0  0  0  0  0  0  0  0  0  0  0
  141.7020  153.5200  133.4300 C   0  0  0  0  0  0  0  0  0  0  0  0
  141.8600  154.0930  132.3190 O   0  0  0  0  0  0  0  0  0  0  0  0
  140.5750  154.7490  139.8180 C   0  0  0  0  0  0  0  0  0  0  0  0
  141.2640  154.0830  141.0330 C   0  0  0  0  0  0  0  0  0  0  0  0
  143.4160  152.2420  140.0610 C   0  0  0  0  0  0  0  0  0  0  0  0
  144.2730  151.7450  138.8760 C   0  0  0  0  0  0  0  0  0  0  0  0
  145.4450  152.6140  138.7060 N   0  0  0  0  0  0  0  0  0  0  0  0
  145.5290  153.4110  137.5040 C   0  0  0  0  0  0  0  0  0  0  0  0
  146.7660  153.7560  136.9380 C   0  0  0  0  0  0  0  0  0  0  0  0
  146.8070  154.5480  135.7920 C   0  0  0  0  0  0  0  0  0  0  0  0
  145.6210  155.0360  135.2240 C   0  0  0  0  0  0  0  0  0  0  0  0
  145.6730  155.8850  134.0050 C   0  0  0  0  0  0  0  0  0  0  0  0
  145.8150  155.3480  132.8730 O   0  0  0  0  0  0  0  0  0  0  0  0
  145.6000  157.3170  134.0870 N   0  0  0  0  0  0  0  0  0  0  0  0
  146.6420  158.1940  134.0660 C   0  0  0  0  0  0  0  0  0  0  0  0
  148.0790  157.8360  134.0990 C   0  0  0  0  0  0  0  0  0  0  0  0
  148.5880  156.7020  133.3940 N   0  0  0  0  0  0  0  0  0  0  0  0
  148.8710  158.5330  134.7900 O   0  0  0  0  0  0  0  0  0  0  0  0
  146.1790  159.5030  133.9480 C   0  0  0  0  0  0  0  0  0  0  0  0
  144.8090  159.3980  133.8830 C   0  0  0  0  0  0  0  0  0  0  0  0
  143.8430  160.3860  133.7260 C   0  0  0  0  0  0  0  0  0  0  0  0
  142.5010  159.9840  133.6220 C   0  0  0  0  0  0  0  0  0  0  0  0
  142.1520  158.6070  133.6440 C   0  0  0  0  0  0  0  0  0  0  0  0
  140.7050  158.1910  133.5540 C   0  0  0  0  0  0  0  0  0  0  0  0
  139.9650  159.1330  132.8590 F   0  0  0  0  0  0  0  0  0  0  0  0
  140.1880  158.0640  134.8300 F   0  0  0  0  0  0  0  0  0  0  0  0
  140.5840  156.9810  132.8950 F   0  0  0  0  0  0  0  0  0  0  0  0
  143.1610  157.6350  133.8240 C   0  0  0  0  0  0  0  0  0  0  0  0
  144.4860  158.0690  133.9530 C   0  0  0  0  0  0  0  0  0  0  0  0
  144.4060  154.7260  135.8610 C   0  0  0  0  0  0  0  0  0  0  0  0
  144.3920  153.9280  136.9630 N   0  0  0  0  0  0  0  0  0  0  0  0
  147.9313  153.8250  140.7736 H   0  0  0  0  0  0  0  0  0  0  0  0
  148.1432  152.9325  139.2292 H   0  0  0  0  0  0  0  0  0  0  0  0
  147.3816  154.5594  139.2292 H   0  0  0  0  0  0  0  0  0  0  0  0
  146.3451  152.0457  140.5163 H   0  0  0  0  0  0  0  0  0  0  0  0
  145.1892  153.4609  141.8779 H   0  0  0  0  0  0  0  0  0  0  0  0
  145.4184  154.8656  140.7627 H   0  0  0  0  0  0  0  0  0  0  0  0
  143.0322  154.2209  142.2225 H   0  0  0  0  0  0  0  0  0  0  0  0
  142.2494  156.5411  141.4235 H   0  0  0  0  0  0  0  0  0  0  0  0
  143.9756  156.2386  140.9891 H   0  0  0  0  0  0  0  0  0  0  0  0
  142.2504  157.1998  139.1855 H   0  0  0  0  0  0  0  0  0  0  0  0
  143.5196  155.9855  138.7344 H   0  0  0  0  0  0  0  0  0  0  0  0
  141.7526  156.9285  136.7238 H   0  0  0  0  0  0  0  0  0  0  0  0
  141.8258  156.3000  134.2932 H   0  0  0  0  0  0  0  0  0  0  0  0
  141.1941  152.7321  137.7829 H   0  0  0  0  0  0  0  0  0  0  0  0
  141.5348  151.6020  131.5569 H   0  0  0  0  0  0  0  0  0  0  0  0
  139.8029  150.1242  133.6051 H   0  0  0  0  0  0  0  0  0  0  0  0
  139.2670  151.3202  132.3525 H   0  0  0  0  0  0  0  0  0  0  0  0
  138.7943  148.9418  131.7136 H   0  0  0  0  0  0  0  0  0  0  0  0
  139.8860  149.7993  130.5627 H   0  0  0  0  0  0  0  0  0  0  0  0
  139.9700  155.5973  140.1706 H   0  0  0  0  0  0  0  0  0  0  0  0
  139.9430  153.9964  139.3239 H   0  0  0  0  0  0  0  0  0  0  0  0
  140.7389  154.3992  141.9464 H   0  0  0  0  0  0  0  0  0  0  0  0
  141.2135  152.9956  140.8750 H   0  0  0  0  0  0  0  0  0  0  0  0
  143.6317  151.6304  140.9495 H   0  0  0  0  0  0  0  0  0  0  0  0
  142.3509  152.1548  139.8005 H   0  0  0  0  0  0  0  0  0  0  0  0
  144.6078  150.7162  139.0745 H   0  0  0  0  0  0  0  0  0  0  0  0
  143.6685  151.7692  137.9573 H   0  0  0  0  0  0  0  0  0  0  0  0
  147.7007  153.4022  137.3976 H   0  0  0  0  0  0  0  0  0  0  0  0
  147.7751  154.7919  135.3302 H   0  0  0  0  0  0  0  0  0  0  0  0
  147.9520  156.0090  132.9440 H   0  0  0  0  0  0  0  0  0  0  0  0
  149.6140  156.5140  133.3820 H   0  0  0  0  0  0  0  0  0  0  0  0
  146.7804  160.4234  133.9141 H   0  0  0  0  0  0  0  0  0  0  0  0
  144.1212  161.4494  133.6845 H   0  0  0  0  0  0  0  0  0  0  0  0
  141.7117  160.7437  133.5224 H   0  0  0  0  0  0  0  0  0  0  0  0
  142.9121  156.5642  133.8619 H   0  0  0  0  0  0  0  0  0  0  0  0
  143.4624  155.1307  135.4663 H   0  0  0  0  0  0  0  0  0  0  0  0
  1  2  1  0
  2  3  1  0
  3  4  1  0
  4  5  1  0
  5  6  1  0
  6  7  1  0
  7  8  1  0
  8  9  1  0
  9 10  2  0
 10 11  1  0
 11 12  2  0
 12 13  1  0
 13 14  2  0
 13 15  1  0
 15 16  2  0
 15 17  1  0
 17 18  1  0
 18 19  1  0
 19 20  1  0
 20 21  1  0
 21 22  2  0
 21 23  1  0
 23 24  1  0
 24 25  2  0
 17 26  1  0
 26 27  2  0
  8 28  1  0
 28 29  1  0
  4 30  1  0
 30 31  1  0
 31 32  1  0
 32 33  1  0
 33 34  2  0
 34 35  1  0
 35 36  2  0
 36 37  1  0
 37 38  2  0
 37 39  1  0
 39 40  1  0
 40 41  1  0
 41 42  1  0
 41 43  2  0
 40 44  2  0
 44 45  1  0
 45 46  2  0
 46 47  1  0
 47 48  2  0
 48 49  1  0
 49 50  1  0
 49 51  1  0
 49 52  1  0
 48 53  1  0
 53 54  2  0
 36 55  1  0
 55 56  2  0
 32  2  1  0
 56 33  1  0
 29  5  1  0
 54 39  1  0
 14  9  1  0
 24 18  1  0
 54 45  1  0
 26 12  1  0
  1 57  1  0
  1 58  1  0
  1 59  1  0
  2 60  1  1
  3 61  1  0
  3 62  1  0
  5 63  1  0
  6 64  1  0
  6 65  1  0
  7 66  1  0
  7 67  1  0
 10 68  1  0
 11 69  1  0
 14 70  1  0
 18 71  1  6
 19 72  1  0
 19 73  1  0
 20 74  1  0
 20 75  1  0
 28 76  1  0
 28 77  1  0
 29 78  1  0
 29 79  1  0
 30 80  1  0
 30 81  1  0
 31 82  1  0
 31 83  1  0
 34 84  1  0
 35 85  1  0
 42 86  1  0
 42 87  1  0
 44 88  1  0
 46 89  1  0
 47 90  1  0
 53 91  1  0
 55 92  1  0
M  CHG  1  23  -1
M  END
>  <UniqueID>  (21) 
21

>  <SMILES>  (21) 
C[C@H]1CN(C2CCN(c3ccc4c(c3)C(=O)N([C@@H]3CCC(=O)[N-]C3=O)C4=O)CC2)CCN1c1ccc(C(=O)n2c(C(N)=O)cc3ccc(C(F)(F)F)cc32)cn1

>  <Energy>  (21) 
203.1815483042551

>  <Genealogy>  (21) 
C[C@H]1CN(C2CCN(c3ccc4c(c3)C(=O)N(C3CCC(=O)[N-]C3=O)C4=O)CC2)CCN1c1ccc(C(=O)n2c(C(N)=O)cc3ccc(C(F)(F)F)cc32)cn1 (protonated)
C[C@H]1CN(C2CCN(c3ccc4c(c3)C(=O)N([C@@H]3CCC(=O)[N-]C3=O)C4=O)CC2)CCN1c1ccc(C(=O)n2c(C(N)=O)cc3ccc(C(F)(F)F)cc32)cn1 (chirality)
C[C@H]1CN(C2CCN(c3ccc4c(c3)C(=O)N([C@@H]3CCC(=O)[N-]C3=O)C4=O)CC2)CCN1c1ccc(C(=O)n2c(C(N)=O)cc3ccc(C(F)(F)F)cc32)cn1 (3D coordinates assigned)
C[C@H]1CN(C2CCN(c3ccc4c(c3)C(=O)N([C@@H]3CCC(=O)[N-]C3=O)C4=O)CC2)CCN1c1ccc(C(=O)n2c(C(N)=O)cc3ccc(C(F)(F)F)cc32)cn1 (nonaromatic ring conformer: 203.1815483042551 kcal/mol)

>  <smiles>  (21) 
C[C@H]1CN(C2CCN(c3ccc4c(c3)C(=O)N(C3CCC(=O)NC3=O)C4=O)CC2)CCN1c1ccc(C(=O)n2c(C(N)=O)cc3ccc(C(F)(F)F)cc32)cn1

>  <score_type>  (21) 
oracle

>  <origin>  (21) 
adg

>  <m_score__min__energy>  (21) 
-11.85

>  <m_primary>  (21) 
energy

$$$$
22:0
     RDKit          3D

 65 66  0  0  0  0  0  0  0  0999 V2000
  148.1160  153.6560  136.6780 C   0  0  0  0  0  0  0  0  0  0  0  0
  147.0880  154.4840  135.9150 C   0  0  0  0  0  0  0  0  0  0  0  0
  147.6250  155.7590  135.5630 O   0  0  0  0  0  0  0  0  0  0  0  0
  147.1600  156.5150  134.4810 C   0  0  0  0  0  0  0  0  0  0  0  0
  146.0410  157.0960  134.5350 O   0  0  0  0  0  0  0  0  0  0  0  0
  147.9700  156.6180  133.2640 C   0  0  0  0  0  0  0  0  0  0  0  0
  148.6640  157.6520  133.0620 O   0  0  0  0  0  0  0  0  0  0  0  0
  147.9560  155.5620  132.3450 O   0  0  0  0  0  0  0  0  0  0  0  0
  148.4450  154.2710  132.5890 C   0  0  0  0  0  0  0  0  0  0  0  0
  149.6340  154.0970  132.9700 O   0  0  0  0  0  0  0  0  0  0  0  0
  147.5600  153.1440  132.4600 N   0  0  0  0  0  0  0  0  0  0  0  0
  147.8850  151.8480  132.1840 C   0  0  0  0  0  0  0  0  0  0  0  0
  149.2190  151.3490  131.7920 C   0  0  0  0  0  0  0  0  0  0  0  0
  150.3680  151.6230  132.5900 N   0  0  0  0  0  0  0  0  0  0  0  0
  149.3550  150.7190  130.7090 O   0  0  0  0  0  0  0  0  0  0  0  0
  146.7540  151.0360  132.2350 C   0  0  0  0  0  0  0  0  0  0  0  0
  145.7110  151.8800  132.5390 C   0  0  0  0  0  0  0  0  0  0  0  0
  144.3550  151.6060  132.7090 C   0  0  0  0  0  0  0  0  0  0  0  0
  143.5020  152.6760  133.0330 C   0  0  0  0  0  0  0  0  0  0  0  0
  144.0220  153.9810  133.1890 C   0  0  0  0  0  0  0  0  0  0  0  0
  143.1500  155.0770  133.5110 C   0  0  0  0  0  0  0  0  0  0  0  0
  142.4490  156.0200  133.7720 C   0  0  0  0  0  0  0  0  0  0  0  0
  141.3470  157.4170  134.1430 Si  0  0  0  0  0  4  0  0  0  0  0  0
  142.1100  158.9820  133.3830 C   0  0  0  0  0  0  0  0  0  0  0  0
  143.6250  159.0200  133.6050 C   0  0  0  0  0  0  0  0  0  0  0  0
  141.4620  160.2430  133.9640 C   0  0  0  0  0  0  0  0  0  0  0  0
  139.6140  157.0570  133.4420 C   0  0  0  0  0  0  0  0  0  0  0  0
  139.4860  155.6040  132.9720 C   0  0  0  0  0  0  0  0  0  0  0  0
  139.2430  158.0240  132.3130 C   0  0  0  0  0  0  0  0  0  0  0  0
  141.2570  157.5750  136.0300 C   0  0  0  0  0  0  0  0  0  0  0  0
  139.8780  158.0590  136.4820 C   0  0  0  0  0  0  0  0  0  0  0  0
  141.6170  156.2540  136.7160 C   0  0  0  0  0  0  0  0  0  0  0  0
  145.3980  154.2230  133.0190 C   0  0  0  0  0  0  0  0  0  0  0  0
  146.2230  153.1460  132.6720 C   0  0  0  0  0  0  0  0  0  0  0  0
  147.9590  153.7824  137.7594 H   0  0  0  0  0  0  0  0  0  0  0  0
  148.0019  152.5946  136.4126 H   0  0  0  0  0  0  0  0  0  0  0  0
  149.1287  153.9936  136.4126 H   0  0  0  0  0  0  0  0  0  0  0  0
  146.8015  153.9477  134.9983 H   0  0  0  0  0  0  0  0  0  0  0  0
  146.2096  154.6368  136.5593 H   0  0  0  0  0  0  0  0  0  0  0  0
  150.9490  152.4720  132.4180 H   0  0  0  0  0  0  0  0  0  0  0  0
  146.7053  149.9499  132.0676 H   0  0  0  0  0  0  0  0  0  0  0  0
  143.9641  150.5843  132.5933 H   0  0  0  0  0  0  0  0  0  0  0  0
  142.4249  152.4965  133.1657 H   0  0  0  0  0  0  0  0  0  0  0  0
  141.9172  158.9538  132.3004 H   0  0  0  0  0  0  0  0  0  0  0  0
  143.8374  159.0253  134.6843 H   0  0  0  0  0  0  0  0  0  0  0  0
  144.0853  158.1331  133.1451 H   0  0  0  0  0  0  0  0  0  0  0  0
  144.0403  159.9289  133.1451 H   0  0  0  0  0  0  0  0  0  0  0  0
  141.4867  160.1950  135.0627 H   0  0  0  0  0  0  0  0  0  0  0  0
  142.0159  161.1302  133.6232 H   0  0  0  0  0  0  0  0  0  0  0  0
  140.4182  160.3092  133.6232 H   0  0  0  0  0  0  0  0  0  0  0  0
  138.9013  157.2129  134.2653 H   0  0  0  0  0  0  0  0  0  0  0  0
  139.4275  154.9395  133.8467 H   0  0  0  0  0  0  0  0  0  0  0  0
  138.5746  155.4936  132.3660 H   0  0  0  0  0  0  0  0  0  0  0  0
  140.3640  155.3360  132.3660 H   0  0  0  0  0  0  0  0  0  0  0  0
  138.8805  158.9689  132.7439 H   0  0  0  0  0  0  0  0  0  0  0  0
  140.1296  158.2204  131.6923 H   0  0  0  0  0  0  0  0  0  0  0  0
  138.4525  157.5769  131.6923 H   0  0  0  0  0  0  0  0  0  0  0  0
  141.9985  158.3293  136.3319 H   0  0  0  0  0  0  0  0  0  0  0  0
  139.8366  158.0735  137.5811 H   0  0  0  0  0  0  0  0  0  0  0  0
  139.7004  159.0732  136.0949 H   0  0  0  0  0  0  0  0  0  0  0  0
  139.1055  157.3783  136.0949 H   0  0  0  0  0  0  0  0  0  0  0  0
  141.5810  156.3859  137.8075 H   0  0  0  0  0  0  0  0  0  0  0  0
  140.8977  155.4774  136.4166 H   0  0  0  0  0  0  0  0  0  0  0  0
  142.6308  155.9498  136.4166 H   0  0  0  0  0  0  0  0  0  0  0  0
  145.8146  155.2319  133.1552 H   0  0  0  0  0  0  0  0  0  0  0  0
  1  2  1  0
  2  3  1  0
  3  4  1  0
  4  5  2  0
  4  6  1  0
  6  7  2  0
  6  8  1  0
  8  9  1  0
  9 10  2  0
  9 11  1  0
 11 12  1  0
 12 13  1  0
 13 14  1  0
 13 15  2  0
 12 16  2  0
 16 17  1  0
 17 18  2  0
 18 19  1  0
 19 20  2  0
 20 21  1  0
 21 22  3  0
 22 23  1  0
 23 24  1  0
 24 25  1  0
 24 26  1  0
 23 27  1  0
 27 28  1  0
 27 29  1  0
 23 30  1  0
 30 31  1  0
 30 32  1  0
 20 33  1  0
 33 34  2  0
 34 11  1  0
 34 17  1  0
  1 35  1  0
  1 36  1  0
  1 37  1  0
  2 38  1  0
  2 39  1  0
 14 40  1  0
 16 41  1  0
 18 42  1  0
 19 43  1  0
 24 44  1  0
 25 45  1  0
 25 46  1  0
 25 47  1  0
 26 48  1  0
 26 49  1  0
 26 50  1  0
 27 51  1  0
 28 52  1  0
 28 53  1  0
 28 54  1  0
 29 55  1  0
 29 56  1  0
 29 57  1  0
 30 58  1  0
 31 59  1  0
 31 60  1  0
 31 61  1  0
 32 62  1  0
 32 63  1  0
 32 64  1  0
 33 65  1  0
M  CHG  1  14  -1
M  END
>  <UniqueID>  (22) 
22

>  <SMILES>  (22) 
CCOC(=O)C(=O)OC(=O)n1c(C([NH-])=O)cc2ccc(C#C[Si](C(C)C)(C(C)C)C(C)C)cc21

>  <Energy>  (22) 
69.06517423925142

>  <Genealogy>  (22) 
CCOC(=O)C(=O)OC(=O)n1c(C([NH-])=O)cc2ccc(C#C[Si](C(C)C)(C(C)C)C(C)C)cc21 (protonated)
CCOC(=O)C(=O)OC(=O)n1c(C([NH-])=O)cc2ccc(C#C[Si](C(C)C)(C(C)C)C(C)C)cc21 (3D coordinates assigned)
CCOC(=O)C(=O)OC(=O)n1c(C([NH-])=O)cc2ccc(C#C[Si](C(C)C)(C(C)C)C(C)C)cc21 (optimized conformer: 69.06517423925142 kcal/mol)

>  <smiles>  (22) 
CCOC(=O)C(=O)OC(=O)n1c(C(N)=O)cc2ccc(C#C[Si](C(C)C)(C(C)C)C(C)C)cc21

>  <score_type>  (22) 
oracle

>  <origin>  (22) 
adg

>  <m_score__min__energy>  (22) 
-9.2699999999999996

>  <m_primary>  (22) 
energy

$$$$
23:0
     RDKit          3D

 40 41  0  0  0  0  0  0  0  0999 V2000
  146.9912  160.9098  131.1436 H   0  0  0  0  0  0  0  0  0  0  0  0
  147.3480  160.1090  131.8080 C   0  0  0  0  0  0  0  0  0  0  0  0
  146.4060  159.6310  132.8420 C   0  0  0  0  0  0  0  0  0  0  0  0
  146.8060  159.5730  134.0360 O   0  0  0  0  0  0  0  0  0  0  0  0
  145.0860  159.2880  132.5170 O   0  0  0  0  0  0  0  0  0  0  0  0
  144.0050  159.2900  133.4090 C   0  0  0  0  0  0  0  0  0  0  0  0
  143.8670  160.2170  134.2540 O   0  0  0  0  0  0  0  0  0  0  0  0
  143.0530  158.2160  133.3650 N   0  0  0  0  0  0  0  0  0  0  0  0
  143.2400  156.9210  133.7470 C   0  0  0  0  0  0  0  0  0  0  0  0
  144.5250  156.3150  134.1510 C   0  0  0  0  0  0  0  0  0  0  0  0
  144.6340  155.0590  134.1810 O   0  0  0  0  0  0  0  0  0  0  0  0
  145.6660  157.1220  134.4440 N   0  0  0  0  0  0  0  0  0  0  0  0
  146.5520  156.6780  134.7730 H   0  0  0  0  0  0  0  0  0  0  0  0
  145.6620  158.1490  134.2570 H   0  0  0  0  0  0  0  0  0  0  0  0
  142.0510  156.2030  133.6520 C   0  0  0  0  0  0  0  0  0  0  0  0
  141.8887  155.1440  133.9015 H   0  0  0  0  0  0  0  0  0  0  0  0
  141.1220  157.1020  133.1790 C   0  0  0  0  0  0  0  0  0  0  0  0
  139.7680  156.9280  132.9080 C   0  0  0  0  0  0  0  0  0  0  0  0
  139.2838  155.9494  133.0418 H   0  0  0  0  0  0  0  0  0  0  0  0
  139.0390  158.0420  132.4580 C   0  0  0  0  0  0  0  0  0  0  0  0
  137.9679  157.9365  132.2310 H   0  0  0  0  0  0  0  0  0  0  0  0
  139.6700  159.2990  132.2940 C   0  0  0  0  0  0  0  0  0  0  0  0
  138.8690  160.4940  131.8510 C   0  0  0  0  0  0  0  0  0  0  0  0
  139.5494  161.3414  131.6807 H   0  0  0  0  0  0  0  0  0  0  0  0
  138.1397  160.7411  132.6365 H   0  0  0  0  0  0  0  0  0  0  0  0
  138.1150  160.1910  130.5610 C   0  0  0  0  0  0  0  0  0  0  0  0
  137.1195  159.7909  130.8035 H   0  0  0  0  0  0  0  0  0  0  0  0
  138.0059  161.1151  129.9744 H   0  0  0  0  0  0  0  0  0  0  0  0
  138.6757  159.4484  129.9744 H   0  0  0  0  0  0  0  0  0  0  0  0
  141.0410  159.4420  132.6000 C   0  0  0  0  0  0  0  0  0  0  0  0
  141.5389  160.4190  132.5128 H   0  0  0  0  0  0  0  0  0  0  0  0
  141.7510  158.3100  133.0170 C   0  0  0  0  0  0  0  0  0  0  0  0
  148.6000  159.6600  131.6000 C   0  0  0  0  0  0  0  0  0  0  0  0
  149.3290  160.2410  130.5040 N   0  0  0  0  0  0  0  0  0  0  0  0
  149.4510  161.4920  130.3100 C   0  0  0  0  0  0  0  0  0  0  0  0
  149.5690  162.7090  130.1200 O   0  0  0  0  0  0  0  0  0  0  0  0
  149.2280  158.5920  132.4690 C   0  0  0  0  0  0  0  0  0  0  0  0
  149.0783  158.8466  133.5286 H   0  0  0  0  0  0  0  0  0  0  0  0
  148.7569  157.6213  132.2550 H   0  0  0  0  0  0  0  0  0  0  0  0
  150.3053  158.5318  132.2550 H   0  0  0  0  0  0  0  0  0  0  0  0
  1  2  1  0
  2  3  1  0
  3  4  2  0
  3  5  1  0
  5  6  1  0
  6  7  2  0
  6  8  1  0
  8  9  1  0
  9 10  1  0
 10 11  2  0
 10 12  1  0
 12 13  1  0
 12 14  1  0
  9 15  2  0
 15 16  1  0
 15 17  1  0
 17 18  2  0
 18 19  1  0
 18 20  1  0
 20 21  1  0
 20 22  2  0
 22 23  1  0
 23 24  1  0
 23 25  1  0
 23 26  1  0
 26 27  1  0
 26 28  1  0
 26 29  1  0
 22 30  1  0
 30 31  1  0
 30 32  2  0
  2 33  2  0
 33 34  1  0
 34 35  2  0
 35 36  2  0
 33 37  1  0
 37 38  1  0
 37 39  1  0
 37 40  1  0
 32  8  1  0
 32 17  1  0
M  END
>  <UniqueID>  (23) 
23

>  <SMILES>  (23) 
CCc1ccc2cc(C(N)=O)n(C(=O)OC(=O)/C=C(\C)N=C=O)c2c1

>  <Energy>  (23) 
78.4543854381796

>  <Genealogy>  (23) 
CCc1ccc2cc(C(N)=O)n(C(=O)OC(=O)/C=C(\C)N=C=O)c2c1 (cis-trans isomerization)
CCc1ccc2cc(C(N)=O)n(C(=O)OC(=O)/C=C(\C)N=C=O)c2c1 (3D coordinates assigned)
CCc1ccc2cc(C(N)=O)n(C(=O)OC(=O)/C=C(\C)N=C=O)c2c1 (optimized conformer: 78.4543854381796 kcal/mol)

>  <smiles>  (23) 
CCc1ccc2cc(C(N)=O)n(C(=O)OC(=O)/C=C(\C)N=C=O)c2c1

>  <score_type>  (23) 
oracle

>  <origin>  (23) 
adg

>  <m_score__min__energy>  (23) 
-8.2899999999999991

>  <m_primary>  (23) 
energy

$$$$
24:0
     RDKit          3D

 34 35  0  0  0  0  0  0  0  0999 V2000
  146.1330  162.5010  134.4800 C   0  0  0  0  0  0  0  0  0  0  0  0
  144.7350  162.3940  134.0550 N   0  0  0  0  0  0  0  0  0  0  0  0
  143.9710  163.5860  133.6790 C   0  0  0  0  0  0  0  0  0  0  0  0
  144.1120  161.0980  134.0050 C   0  0  0  0  0  0  0  0  0  0  0  0
  142.9120  160.9920  133.6290 O   0  0  0  0  0  0  0  0  0  0  0  0
  144.8490  159.9640  134.3760 O   0  0  0  0  0  0  0  0  0  0  0  0
  145.0580  158.8360  133.5710 C   0  0  0  0  0  0  0  0  0  0  0  0
  144.0890  158.2480  133.0180 O   0  0  0  0  0  0  0  0  0  0  0  0
  146.3920  158.3330  133.3930 N   0  0  0  0  0  0  0  0  0  0  0  0
  146.9040  157.1540  133.8490 C   0  0  0  0  0  0  0  0  0  0  0  0
  146.2290  156.2150  134.7690 C   0  0  0  0  0  0  0  0  0  0  0  0
  144.8060  156.1300  134.7790 N   0  0  0  0  0  0  0  0  0  0  0  0
  146.8980  155.4550  135.5190 O   0  0  0  0  0  0  0  0  0  0  0  0
  148.2080  156.9770  133.3930 C   0  0  0  0  0  0  0  0  0  0  0  0
  148.4870  158.0960  132.6420 C   0  0  0  0  0  0  0  0  0  0  0  0
  149.6400  158.4390  131.9420 C   0  0  0  0  0  0  0  0  0  0  0  0
  149.6390  159.6470  131.2240 C   0  0  0  0  0  0  0  0  0  0  0  0
  148.4920  160.4780  131.2140 C   0  0  0  0  0  0  0  0  0  0  0  0
  148.5010  161.6990  130.4700 N   0  0  0  0  0  0  0  0  0  0  0  0
  147.3410  160.0980  131.9350 C   0  0  0  0  0  0  0  0  0  0  0  0
  147.3740  158.8980  132.6560 C   0  0  0  0  0  0  0  0  0  0  0  0
  146.1829  162.5048  135.5789 H   0  0  0  0  0  0  0  0  0  0  0  0
  146.7014  161.6437  134.0901 H   0  0  0  0  0  0  0  0  0  0  0  0
  146.5643  163.4348  134.0901 H   0  0  0  0  0  0  0  0  0  0  0  0
  143.6361  164.1085  134.5872 H   0  0  0  0  0  0  0  0  0  0  0  0
  144.6077  164.2570  133.0837 H   0  0  0  0  0  0  0  0  0  0  0  0
  143.0954  163.2877  133.0837 H   0  0  0  0  0  0  0  0  0  0  0  0
  144.2170  156.9910  134.7710 H   0  0  0  0  0  0  0  0  0  0  0  0
  148.8736  156.1239  133.5911 H   0  0  0  0  0  0  0  0  0  0  0  0
  150.5244  157.7850  131.9505 H   0  0  0  0  0  0  0  0  0  0  0  0
  150.5367  159.9498  130.6650 H   0  0  0  0  0  0  0  0  0  0  0  0
  148.8890  161.7310  129.5010 H   0  0  0  0  0  0  0  0  0  0  0  0
  148.1170  162.5790  130.8820 H   0  0  0  0  0  0  0  0  0  0  0  0
  146.4397  160.7286  131.9311 H   0  0  0  0  0  0  0  0  0  0  0  0
  1  2  1  0
  2  3  1  0
  2  4  1  0
  4  5  2  0
  4  6  1  0
  6  7  1  0
  7  8  2  0
  7  9  1  0
  9 10  1  0
 10 11  1  0
 11 12  1  0
 11 13  2  0
 10 14  2  0
 14 15  1  0
 15 16  2  0
 16 17  1  0
 17 18  2  0
 18 19  1  0
 18 20  1  0
 20 21  2  0
 21  9  1  0
 21 15  1  0
  1 22  1  0
  1 23  1  0
  1 24  1  0
  3 25  1  0
  3 26  1  0
  3 27  1  0
 12 28  1  0
 14 29  1  0
 16 30  1  0
 17 31  1  0
 19 32  1  0
 19 33  1  0
 20 34  1  0
M  CHG  1  12  -1
M  END
>  <UniqueID>  (24) 
24

>  <SMILES>  (24) 
CN(C)C(=O)OC(=O)n1c(C([NH-])=O)cc2ccc(N)cc21

>  <Energy>  (24) 
69.29502602334539

>  <Genealogy>  (24) 
CN(C)C(=O)OC(=O)n1c(C([NH-])=O)cc2ccc(N)cc21 (protonated)
CN(C)C(=O)OC(=O)n1c(C([NH-])=O)cc2ccc(N)cc21 (3D coordinates assigned)
CN(C)C(=O)OC(=O)n1c(C([NH-])=O)cc2ccc(N)cc21 (optimized conformer: 69.29502602334539 kcal/mol)

>  <smiles>  (24) 
CN(C)C(=O)OC(=O)n1c(C(N)=O)cc2ccc(N)cc21

>  <score_type>  (24) 
oracle

>  <origin>  (24) 
adg

>  <m_score__min__energy>  (24) 
-6.46

>  <m_primary>  (24) 
energy

$$$$
25:0
     RDKit          3D

 34 35  0  0  0  0  0  0  0  0999 V2000
  148.4840  160.7050  131.1160 C   0  0  0  0  0  0  0  0  0  0  0  0
  149.6360  159.7280  131.2830 C   0  0  0  0  0  0  0  0  0  0  0  0
  149.2070  158.6160  132.0620 O   0  0  0  0  0  0  0  0  0  0  0  0
  148.4750  158.7600  133.2460 C   0  0  0  0  0  0  0  0  0  0  0  0
  148.9930  159.3280  134.2460 O   0  0  0  0  0  0  0  0  0  0  0  0
  147.1310  158.2580  133.3170 N   0  0  0  0  0  0  0  0  0  0  0  0
  146.7400  156.9530  133.3680 C   0  0  0  0  0  0  0  0  0  0  0  0
  147.6200  155.7800  133.1950 C   0  0  0  0  0  0  0  0  0  0  0  0
  148.8210  155.8630  132.4240 N   0  0  0  0  0  0  0  0  0  0  0  0
  147.2800  154.6730  133.6910 O   0  0  0  0  0  0  0  0  0  0  0  0
  145.3660  156.8570  133.5700 C   0  0  0  0  0  0  0  0  0  0  0  0
  144.9170  158.1560  133.6290 C   0  0  0  0  0  0  0  0  0  0  0  0
  143.6290  158.6470  133.8270 C   0  0  0  0  0  0  0  0  0  0  0  0
  143.4570  160.0410  133.8800 C   0  0  0  0  0  0  0  0  0  0  0  0
  144.5680  160.9110  133.7540 C   0  0  0  0  0  0  0  0  0  0  0  0
  144.3670  162.4000  133.7890 C   0  0  0  0  0  0  0  0  0  0  0  0
  145.5080  163.0540  134.5000 C   0  0  0  0  0  0  0  0  0  0  0  0
  145.4470  163.2620  135.7400 O   0  0  0  0  0  0  0  0  0  0  0  0
  146.6230  163.4740  133.7860 O   0  0  0  0  0  0  0  0  0  0  0  0
  145.8590  160.3750  133.5460 C   0  0  0  0  0  0  0  0  0  0  0  0
  146.0000  158.9840  133.4760 C   0  0  0  0  0  0  0  0  0  0  0  0
  148.1191  161.0144  132.1065 H   0  0  0  0  0  0  0  0  0  0  0  0
  148.8304  161.5888  130.5603 H   0  0  0  0  0  0  0  0  0  0  0  0
  147.6686  160.2189  130.5603 H   0  0  0  0  0  0  0  0  0  0  0  0
  149.9655  159.3773  130.2938 H   0  0  0  0  0  0  0  0  0  0  0  0
  150.4720  160.2307  131.7914 H   0  0  0  0  0  0  0  0  0  0  0  0
  149.0440  156.7150  131.8660 H   0  0  0  0  0  0  0  0  0  0  0  0
  149.4560  155.0380  132.3560 H   0  0  0  0  0  0  0  0  0  0  0  0
  144.7673  155.9388  133.6626 H   0  0  0  0  0  0  0  0  0  0  0  0
  142.7730  157.9652  133.9384 H   0  0  0  0  0  0  0  0  0  0  0  0
  142.4499  160.4605  134.0207 H   0  0  0  0  0  0  0  0  0  0  0  0
  144.3110  162.7842  132.7598 H   0  0  0  0  0  0  0  0  0  0  0  0
  143.4322  162.6254  134.3231 H   0  0  0  0  0  0  0  0  0  0  0  0
  146.7325  161.0353  133.4416 H   0  0  0  0  0  0  0  0  0  0  0  0
  1  2  1  0
  2  3  1  0
  3  4  1  0
  4  5  2  0
  4  6  1  0
  6  7  1  0
  7  8  1  0
  8  9  1  0
  8 10  2  0
  7 11  2  0
 11 12  1  0
 12 13  2  0
 13 14  1  0
 14 15  2  0
 15 16  1  0
 16 17  1  0
 17 18  2  0
 17 19  1  0
 15 20  1  0
 20 21  2  0
 21  6  1  0
 21 12  1  0
  1 22  1  0
  1 23  1  0
  1 24  1  0
  2 25  1  0
  2 26  1  0
  9 27  1  0
  9 28  1  0
 11 29  1  0
 13 30  1  0
 14 31  1  0
 16 32  1  0
 16 33  1  0
 20 34  1  0
M  CHG  1  19  -1
M  END
>  <UniqueID>  (25) 
25

>  <SMILES>  (25) 
CCOC(=O)n1c(C(N)=O)cc2ccc(CC(=O)[O-])cc21

>  <Energy>  (25) 
66.64581659552431

>  <Genealogy>  (25) 
CCOC(=O)n1c(C(N)=O)cc2ccc(CC(=O)[O-])cc21 (protonated)
CCOC(=O)n1c(C(N)=O)cc2ccc(CC(=O)[O-])cc21 (3D coordinates assigned)
CCOC(=O)n1c(C(N)=O)cc2ccc(CC(=O)[O-])cc21 (optimized conformer: 66.64581659552431 kcal/mol)

>  <smiles>  (25) 
CCOC(=O)n1c(C(N)=O)cc2ccc(CC(=O)O)cc21

>  <score_type>  (25) 
oracle

>  <origin>  (25) 
adg

>  <m_score__min__energy>  (25) 
-6.8200000000000003

>  <m_primary>  (25) 
energy

$$$$
26:0
     RDKit          3D

 44 45  0  0  0  0  0  0  0  0999 V2000
  144.0570  154.3070  132.1810 C   0  0  0  0  0  0  0  0  0  0  0  0
  145.3230  154.8890  131.8930 O   0  0  0  0  0  0  0  0  0  0  0  0
  146.3490  154.9690  132.8410 C   0  0  0  0  0  0  0  0  0  0  0  0
  146.0730  155.0800  134.0690 O   0  0  0  0  0  0  0  0  0  0  0  0
  147.7240  154.9380  132.4040 N   0  0  2  0  0  0  0  0  0  0  0  0
  148.3910  153.7510  132.9670 C   0  0  0  0  0  0  0  0  0  0  0  0
  148.3960  156.2000  132.7910 C   0  0  0  0  0  0  0  0  0  0  0  0
  147.7260  157.4390  132.1630 C   0  0  0  0  0  0  0  0  0  0  0  0
  147.4850  158.4760  133.1840 N   0  0  0  0  0  0  0  0  0  0  0  0
  148.6190  159.0190  133.9400 C   0  0  0  0  0  0  0  0  0  0  0  0
  146.1470  158.9570  133.4630 C   0  0  0  0  0  0  0  0  0  0  0  0
  145.8760  160.3530  133.4720 C   0  0  0  0  0  0  0  0  0  0  0  0
  144.5850  160.8360  133.7420 C   0  0  0  0  0  0  0  0  0  0  0  0
  143.5830  159.9100  134.0080 C   0  0  0  0  0  0  0  0  0  0  0  0
  142.2490  160.1030  134.2770 C   0  0  0  0  0  0  0  0  0  0  0  0
  141.7180  158.8280  134.4540 C   0  0  0  0  0  0  0  0  0  0  0  0
  140.3180  158.5800  134.8520 C   0  0  0  0  0  0  0  0  0  0  0  0
  139.9710  158.3540  136.2160 N   0  0  0  0  0  0  0  0  0  0  0  0
  139.4060  158.6160  133.9820 O   0  0  0  0  0  0  0  0  0  0  0  0
  142.6860  157.8820  134.2900 N   0  0  0  0  0  0  0  0  0  0  0  0
  142.5270  156.4530  134.3030 C   0  0  0  0  0  0  0  0  0  0  0  0
  141.6420  155.9060  133.5950 O   0  0  0  0  0  0  0  0  0  0  0  0
  143.3310  155.6660  135.1180 O   0  0  0  0  0  0  0  0  0  0  0  0
  143.8220  158.5610  134.0210 C   0  0  0  0  0  0  0  0  0  0  0  0
  145.0930  158.0500  133.7330 C   0  0  0  0  0  0  0  0  0  0  0  0
  143.9215  154.2447  133.2708 H   0  0  0  0  0  0  0  0  0  0  0  0
  143.2602  154.9292  131.7474 H   0  0  0  0  0  0  0  0  0  0  0  0
  144.0105  153.2971  131.7474 H   0  0  0  0  0  0  0  0  0  0  0  0
  147.7280  154.8530  131.3590 H   0  0  0  0  0  0  0  0  0  0  0  0
  148.3629  153.8011  134.0655 H   0  0  0  0  0  0  0  0  0  0  0  0
  147.8711  152.8429  132.6279 H   0  0  0  0  0  0  0  0  0  0  0  0
  149.4371  153.7229  132.6279 H   0  0  0  0  0  0  0  0  0  0  0  0
  148.3620  156.2969  133.8862 H   0  0  0  0  0  0  0  0  0  0  0  0
  149.4314  156.1555  132.4224 H   0  0  0  0  0  0  0  0  0  0  0  0
  148.3835  157.8477  131.3815 H   0  0  0  0  0  0  0  0  0  0  0  0
  146.7605  157.1376  131.7307 H   0  0  0  0  0  0  0  0  0  0  0  0
  148.4204  158.9239  135.0177 H   0  0  0  0  0  0  0  0  0  0  0  0
  149.5313  158.4600  133.6846 H   0  0  0  0  0  0  0  0  0  0  0  0
  148.7555  160.0802  133.6846 H   0  0  0  0  0  0  0  0  0  0  0  0
  146.6888  161.0645  133.2646 H   0  0  0  0  0  0  0  0  0  0  0  0
  144.3731  161.9154  133.7429 H   0  0  0  0  0  0  0  0  0  0  0  0
  141.7139  161.0621  134.3393 H   0  0  0  0  0  0  0  0  0  0  0  0
  139.4640  159.0790  136.7690 H   0  0  0  0  0  0  0  0  0  0  0  0
  145.2700  156.9645  133.7167 H   0  0  0  0  0  0  0  0  0  0  0  0
  1  2  1  0
  2  3  1  0
  3  4  2  0
  3  5  1  0
  5  6  1  0
  5  7  1  0
  7  8  1  0
  8  9  1  0
  9 10  1  0
  9 11  1  0
 11 12  2  0
 12 13  1  0
 13 14  2  0
 14 15  1  0
 15 16  2  0
 16 17  1  0
 17 18  1  0
 17 19  2  0
 16 20  1  0
 20 21  1  0
 21 22  2  0
 21 23  1  0
 20 24  1  0
 24 25  2  0
 25 11  1  0
 24 14  1  0
  1 26  1  0
  1 27  1  0
  1 28  1  0
  5 29  1  6
  6 30  1  0
  6 31  1  0
  6 32  1  0
  7 33  1  0
  7 34  1  0
  8 35  1  0
  8 36  1  0
 10 37  1  0
 10 38  1  0
 10 39  1  0
 12 40  1  0
 13 41  1  0
 15 42  1  0
 18 43  1  0
 25 44  1  0
M  CHG  3   5   1  18  -1  23  -1
M  END
>  <UniqueID>  (26) 
26

>  <SMILES>  (26) 
COC(=O)[N@H+](C)CCN(C)c1ccc2cc(C([NH-])=O)n(C(=O)[O-])c2c1

>  <Energy>  (26) 
84.70816157835704

>  <Genealogy>  (26) 
COC(=O)[NH+](C)CCN(C)c1ccc2cc(C([NH-])=O)n(C(=O)[O-])c2c1 (protonated)
COC(=O)[N@H+](C)CCN(C)c1ccc2cc(C([NH-])=O)n(C(=O)[O-])c2c1 (chirality)
COC(=O)[N@H+](C)CCN(C)c1ccc2cc(C([NH-])=O)n(C(=O)[O-])c2c1 (3D coordinates assigned)
COC(=O)[N@H+](C)CCN(C)c1ccc2cc(C([NH-])=O)n(C(=O)[O-])c2c1 (optimized conformer: 84.70816157835704 kcal/mol)

>  <smiles>  (26) 
COC(=O)N(C)CCN(C)c1ccc2cc(C(N)=O)n(C(=O)O)c2c1

>  <score_type>  (26) 
oracle

>  <origin>  (26) 
adg

>  <m_score__min__energy>  (26) 
-5.8600000000000003

>  <m_primary>  (26) 
energy

$$$$
27:0
     RDKit          3D

 33 35  0  0  0  0  0  0  0  0999 V2000
  144.0820  154.6920  129.6190 N   0  0  0  0  0  0  0  0  0  0  0  0
  144.3550  154.4680  130.7200 C   0  0  0  0  0  0  0  0  0  0  0  0
  144.6960  154.1890  132.0920 C   0  0  0  0  0  0  0  0  0  0  0  0
  145.9320  153.8310  132.4890 N   0  0  0  0  0  0  0  0  0  0  0  0
  145.8490  153.6890  133.8260 C   0  0  0  0  0  0  0  0  0  0  0  0
  144.5570  153.9640  134.2220 C   0  0  0  0  0  0  0  0  0  0  0  0
  143.8330  154.2670  133.1280 N   0  0  0  0  0  0  0  0  0  0  0  0
  142.4340  154.6950  133.1050 C   0  0  0  0  0  0  0  0  0  0  0  0
  142.3430  156.1730  133.3640 C   0  0  0  0  0  0  0  0  0  0  0  0
  141.0920  156.7750  133.6490 C   0  0  0  0  0  0  0  0  0  0  0  0
  140.9970  158.1590  133.8670 C   0  0  0  0  0  0  0  0  0  0  0  0
  142.1630  158.9150  133.7790 C   0  0  0  0  0  0  0  0  0  0  0  0
  142.3580  160.2630  133.9630 C   0  0  0  0  0  0  0  0  0  0  0  0
  143.7190  160.4720  133.7550 C   0  0  0  0  0  0  0  0  0  0  0  0
  144.3460  161.8100  133.7680 C   0  0  0  0  0  0  0  0  0  0  0  0
  145.7200  161.9720  134.1060 N   0  0  0  0  0  0  0  0  0  0  0  0
  143.6710  162.8190  133.4260 O   0  0  0  0  0  0  0  0  0  0  0  0
  144.3440  159.2970  133.4620 N   0  0  0  0  0  0  0  0  0  0  0  0
  145.7510  159.0730  133.2750 C   0  0  0  0  0  0  0  0  0  0  0  0
  146.4010  159.7670  132.4490 O   0  0  0  0  0  0  0  0  0  0  0  0
  146.4020  158.0700  133.9820 O   0  0  0  0  0  0  0  0  0  0  0  0
  143.3760  158.3520  133.4780 C   0  0  0  0  0  0  0  0  0  0  0  0
  143.5040  156.9730  133.2760 C   0  0  0  0  0  0  0  0  0  0  0  0
  146.7790  153.7020  131.8940 H   0  0  0  0  0  0  0  0  0  0  0  0
  146.6756  153.4011  134.4922 H   0  0  0  0  0  0  0  0  0  0  0  0
  144.1818  153.9399  135.2557 H   0  0  0  0  0  0  0  0  0  0  0  0
  142.0009  154.4708  132.1190 H   0  0  0  0  0  0  0  0  0  0  0  0
  141.8794  154.1569  133.8878 H   0  0  0  0  0  0  0  0  0  0  0  0
  140.1868  156.1521  133.6999 H   0  0  0  0  0  0  0  0  0  0  0  0
  140.0313  158.6313  134.1001 H   0  0  0  0  0  0  0  0  0  0  0  0
  141.5996  161.0171  134.2201 H   0  0  0  0  0  0  0  0  0  0  0  0
  146.4730  161.7050  133.4340 H   0  0  0  0  0  0  0  0  0  0  0  0
  144.4833  156.5237  133.0544 H   0  0  0  0  0  0  0  0  0  0  0  0
  1  2  3  0
  2  3  1  0
  3  4  2  0
  4  5  1  0
  5  6  2  0
  6  7  1  0
  7  8  1  0
  8  9  1  0
  9 10  2  0
 10 11  1  0
 11 12  2  0
 12 13  1  0
 13 14  2  0
 14 15  1  0
 15 16  1  0
 15 17  2  0
 14 18  1  0
 18 19  1  0
 19 20  2  0
 19 21  1  0
 18 22  1  0
 22 23  2  0
  7  3  1  0
 23  9  1  0
 22 12  1  0
  4 24  1  0
  5 25  1  0
  6 26  1  0
  8 27  1  0
  8 28  1  0
 10 29  1  0
 11 30  1  0
 13 31  1  0
 16 32  1  0
 23 33  1  0
M  CHG  3   4   1  16  -1  21  -1
M  END
>  <UniqueID>  (27) 
27

>  <SMILES>  (27) 
N#Cc1[nH+]ccn1Cc1ccc2cc(C([NH-])=O)n(C(=O)[O-])c2c1

>  <Energy>  (27) 
103.65221583013513

>  <Genealogy>  (27) 
N#Cc1[nH+]ccn1Cc1ccc2cc(C([NH-])=O)n(C(=O)[O-])c2c1 (protonated)
N#Cc1[nH+]ccn1Cc1ccc2cc(C([NH-])=O)n(C(=O)[O-])c2c1 (3D coordinates assigned)
N#Cc1[nH+]ccn1Cc1ccc2cc(C([NH-])=O)n(C(=O)[O-])c2c1 (optimized conformer: 103.65221583013513 kcal/mol)

>  <smiles>  (27) 
N#Cc1nccn1Cc1ccc2cc(C(N)=O)n(C(=O)O)c2c1

>  <score_type>  (27) 
oracle

>  <origin>  (27) 
adg

>  <m_score__min__energy>  (27) 
-6.6699999999999999

>  <m_primary>  (27) 
energy

$$$$
28:0
     RDKit          3D

 37 38  0  0  0  0  0  0  0  0999 V2000
  147.6040  154.6450  132.9910 C   0  0  0  0  0  0  0  0  0  0  0  0
  147.3860  156.1290  133.0140 C   0  0  0  0  0  0  0  0  0  0  0  0
  148.4750  157.0090  132.7980 C   0  0  0  0  0  0  0  0  0  0  0  0
  148.2940  158.4010  132.8660 C   0  0  0  0  0  0  0  0  0  0  0  0
  147.0190  158.8800  133.1530 C   0  0  0  0  0  0  0  0  0  0  0  0
  146.5710  160.1720  133.3120 C   0  0  0  0  0  0  0  0  0  0  0  0
  145.2150  160.0600  133.6150 C   0  0  0  0  0  0  0  0  0  0  0  0
  144.3200  161.2210  133.8060 C   0  0  0  0  0  0  0  0  0  0  0  0
  144.8450  162.5090  134.1170 N   0  0  0  0  0  0  0  0  0  0  0  0
  143.0730  161.0670  133.7280 O   0  0  0  0  0  0  0  0  0  0  0  0
  144.8430  158.7500  133.6450 N   0  0  0  0  0  0  0  0  0  0  0  0
  143.5590  158.2070  133.9880 C   0  0  0  0  0  0  0  0  0  0  0  0
  143.4730  157.3580  134.9150 O   0  0  0  0  0  0  0  0  0  0  0  0
  142.3880  158.6220  133.2650 N   0  0  0  0  0  0  0  0  0  0  0  0
  141.0310  158.1060  133.5210 C   0  0  0  0  0  0  0  0  0  0  0  0
  141.0290  156.5720  133.3590 C   0  0  0  0  0  0  0  0  0  0  0  0
  140.6210  158.4530  134.9640 C   0  0  0  0  0  0  0  0  0  0  0  0
  140.0410  158.7600  132.5810 C   0  0  0  0  0  0  0  0  0  0  0  0
  138.8070  158.5180  132.6720 O   0  0  0  0  0  0  0  0  0  0  0  0
  140.4790  159.7050  131.6600 O   0  0  0  0  0  0  0  0  0  0  0  0
  145.9560  158.0410  133.3600 C   0  0  0  0  0  0  0  0  0  0  0  0
  146.1100  156.6500  133.3200 C   0  0  0  0  0  0  0  0  0  0  0  0
  147.6596  154.2665  134.0223 H   0  0  0  0  0  0  0  0  0  0  0  0
  146.7675  154.1596  132.4669 H   0  0  0  0  0  0  0  0  0  0  0  0
  148.5447  154.4207  132.4669 H   0  0  0  0  0  0  0  0  0  0  0  0
  149.4711  156.5991  132.5751 H   0  0  0  0  0  0  0  0  0  0  0  0
  149.1341  159.0908  132.6976 H   0  0  0  0  0  0  0  0  0  0  0  0
  147.1588  161.0971  133.2195 H   0  0  0  0  0  0  0  0  0  0  0  0
  145.7520  162.8310  133.7110 H   0  0  0  0  0  0  0  0  0  0  0  0
  142.5200  159.3600  132.5360 H   0  0  0  0  0  0  0  0  0  0  0  0
  141.0284  156.0985  134.3518 H   0  0  0  0  0  0  0  0  0  0  0  0
  140.1305  156.2630  132.8048 H   0  0  0  0  0  0  0  0  0  0  0  0
  141.9267  156.2607  132.8048 H   0  0  0  0  0  0  0  0  0  0  0  0
  141.2653  157.9077  135.6694 H   0  0  0  0  0  0  0  0  0  0  0  0
  140.7326  159.5352  135.1267 H   0  0  0  0  0  0  0  0  0  0  0  0
  139.5722  158.1640  135.1267 H   0  0  0  0  0  0  0  0  0  0  0  0
  145.2601  155.9814  133.5215 H   0  0  0  0  0  0  0  0  0  0  0  0
  1  2  1  0
  2  3  2  0
  3  4  1  0
  4  5  2  0
  5  6  1  0
  6  7  2  0
  7  8  1  0
  8  9  1  0
  8 10  2  0
  7 11  1  0
 11 12  1  0
 12 13  2  0
 12 14  1  0
 14 15  1  0
 15 16  1  0
 15 17  1  0
 15 18  1  0
 18 19  2  0
 18 20  1  0
 11 21  1  0
 21 22  2  0
 22  2  1  0
 21  5  1  0
  1 23  1  0
  1 24  1  0
  1 25  1  0
  3 26  1  0
  4 27  1  0
  6 28  1  0
  9 29  1  0
 14 30  1  0
 16 31  1  0
 16 32  1  0
 16 33  1  0
 17 34  1  0
 17 35  1  0
 17 36  1  0
 22 37  1  0
M  CHG  2   9  -1  20  -1
M  END
>  <UniqueID>  (28) 
28

>  <SMILES>  (28) 
Cc1ccc2cc(C([NH-])=O)n(C(=O)NC(C)(C)C(=O)[O-])c2c1

>  <Energy>  (28) 
72.93993274882556

>  <Genealogy>  (28) 
Cc1ccc2cc(C([NH-])=O)n(C(=O)NC(C)(C)C(=O)[O-])c2c1 (protonated)
Cc1ccc2cc(C([NH-])=O)n(C(=O)NC(C)(C)C(=O)[O-])c2c1 (3D coordinates assigned)
Cc1ccc2cc(C([NH-])=O)n(C(=O)NC(C)(C)C(=O)[O-])c2c1 (optimized conformer: 72.93993274882556 kcal/mol)

>  <smiles>  (28) 
Cc1ccc2cc(C(N)=O)n(C(=O)NC(C)(C)C(=O)O)c2c1

>  <score_type>  (28) 
oracle

>  <origin>  (28) 
adg

>  <m_score__min__energy>  (28) 
-6.9800000000000004

>  <m_primary>  (28) 
energy

$$$$
29:0
     RDKit          3D

 38 39  0  0  0  0  0  0  0  0999 V2000
  143.1800  156.0120  135.2690 C   0  0  0  0  0  0  0  0  0  0  0  0
  142.6940  157.2350  134.6190 N   0  0  0  0  0  0  0  0  0  0  0  0
  141.6460  158.0010  135.2410 C   0  0  0  0  0  0  0  0  0  0  0  0
  141.5110  157.9880  136.4960 O   0  0  0  0  0  0  0  0  0  0  0  0
  140.7900  158.7840  134.4560 O   0  0  0  0  0  0  0  0  0  0  0  0
  139.6500  158.2480  133.7930 C   0  0  0  0  0  0  0  0  0  0  0  0
  139.3370  159.0810  132.5960 C   0  0  0  0  0  0  0  0  0  0  0  0
  138.3110  158.8350  131.9070 O   0  0  0  0  0  0  0  0  0  0  0  0
  140.1720  160.1320  132.2380 O   0  0  0  0  0  0  0  0  0  0  0  0
  143.3280  157.7040  133.4130 C   0  0  0  0  0  0  0  0  0  0  0  0
  142.7790  157.5110  132.2950 O   0  0  0  0  0  0  0  0  0  0  0  0
  144.5900  158.3880  133.4690 N   0  0  0  0  0  0  0  0  0  0  0  0
  144.8080  159.7200  133.6500 C   0  0  0  0  0  0  0  0  0  0  0  0
  143.7510  160.7560  133.7040 C   0  0  0  0  0  0  0  0  0  0  0  0
  142.4080  160.4570  133.3160 N   0  0  0  0  0  0  0  0  0  0  0  0
  144.0250  161.9160  134.1110 O   0  0  0  0  0  0  0  0  0  0  0  0
  146.1760  159.9830  133.7050 C   0  0  0  0  0  0  0  0  0  0  0  0
  146.7900  158.7590  133.5630 C   0  0  0  0  0  0  0  0  0  0  0  0
  148.1420  158.4280  133.5490 C   0  0  0  0  0  0  0  0  0  0  0  0
  148.4880  157.0730  133.4080 C   0  0  0  0  0  0  0  0  0  0  0  0
  147.4840  156.0740  133.3110 C   0  0  0  0  0  0  0  0  0  0  0  0
  147.8700  154.6290  133.1260 C   0  0  0  0  0  0  0  0  0  0  0  0
  148.9480  154.5530  132.2630 F   0  0  0  0  0  0  0  0  0  0  0  0
  146.8180  153.9030  132.5960 F   0  0  0  0  0  0  0  0  0  0  0  0
  148.2220  154.0610  134.3370 F   0  0  0  0  0  0  0  0  0  0  0  0
  146.1230  156.4550  133.3050 C   0  0  0  0  0  0  0  0  0  0  0  0
  145.8100  157.8130  133.4260 C   0  0  0  0  0  0  0  0  0  0  0  0
  143.1318  156.1333  136.3612 H   0  0  0  0  0  0  0  0  0  0  0  0
  142.5515  155.1614  134.9664 H   0  0  0  0  0  0  0  0  0  0  0  0
  144.2209  155.8247  134.9664 H   0  0  0  0  0  0  0  0  0  0  0  0
  139.8607  157.2156  133.4770 H   0  0  0  0  0  0  0  0  0  0  0  0
  138.7900  158.2518  134.4789 H   0  0  0  0  0  0  0  0  0  0  0  0
  141.6670  161.1880  133.3930 H   0  0  0  0  0  0  0  0  0  0  0  0
  142.1500  159.5290  132.9150 H   0  0  0  0  0  0  0  0  0  0  0  0
  146.6619  160.9613  133.8345 H   0  0  0  0  0  0  0  0  0  0  0  0
  148.9162  159.2034  133.6454 H   0  0  0  0  0  0  0  0  0  0  0  0
  149.5486  156.7834  133.3724 H   0  0  0  0  0  0  0  0  0  0  0  0
  145.3281  155.7009  133.2074 H   0  0  0  0  0  0  0  0  0  0  0  0
  1  2  1  0
  2  3  1  0
  3  4  2  0
  3  5  1  0
  5  6  1  0
  6  7  1  0
  7  8  2  0
  7  9  1  0
  2 10  1  0
 10 11  2  0
 10 12  1  0
 12 13  1  0
 13 14  1  0
 14 15  1  0
 14 16  2  0
 13 17  2  0
 17 18  1  0
 18 19  2  0
 19 20  1  0
 20 21  2  0
 21 22  1  0
 22 23  1  0
 22 24  1  0
 22 25  1  0
 21 26  1  0
 26 27  2  0
 27 12  1  0
 27 18  1  0
  1 28  1  0
  1 29  1  0
  1 30  1  0
  6 31  1  0
  6 32  1  0
 15 33  1  0
 15 34  1  0
 17 35  1  0
 19 36  1  0
 20 37  1  0
 26 38  1  0
M  CHG  1   9  -1
M  END
>  <UniqueID>  (29) 
29

>  <SMILES>  (29) 
CN(C(=O)OCC(=O)[O-])C(=O)n1c(C(N)=O)cc2ccc(C(F)(F)F)cc21

>  <Energy>  (29) 
75.76494577653912

>  <Genealogy>  (29) 
CN(C(=O)OCC(=O)[O-])C(=O)n1c(C(N)=O)cc2ccc(C(F)(F)F)cc21 (protonated)
CN(C(=O)OCC(=O)[O-])C(=O)n1c(C(N)=O)cc2ccc(C(F)(F)F)cc21 (3D coordinates assigned)
CN(C(=O)OCC(=O)[O-])C(=O)n1c(C(N)=O)cc2ccc(C(F)(F)F)cc21 (optimized conformer: 75.76494577653912 kcal/mol)

>  <smiles>  (29) 
CN(C(=O)OCC(=O)O)C(=O)n1c(C(N)=O)cc2ccc(C(F)(F)F)cc21

>  <score_type>  (29) 
oracle

>  <origin>  (29) 
adg

>  <m_score__min__energy>  (29) 
-6.1200000000000001

>  <m_primary>  (29) 
energy

$$$$
30:0
     RDKit          3D

 41 43  0  0  0  0  0  0  0  0999 V2000
  142.8520  157.8270  134.6920 N   0  0  0  0  0  0  0  0  0  0  0  0
  143.0770  157.1740  133.4440 C   0  0  0  0  0  0  0  0  0  0  0  0
  143.4250  157.8570  132.4460 O   0  0  0  0  0  0  0  0  0  0  0  0
  142.8790  155.7140  133.3310 C   0  0  0  0  0  0  0  0  0  0  0  0
  143.9050  154.8100  133.0570 C   0  0  0  0  0  0  0  0  0  0  0  0
  143.3150  153.5660  133.0910 C   0  0  0  0  0  0  0  0  0  0  0  0
  143.8650  152.3040  132.8880 C   0  0  0  0  0  0  0  0  0  0  0  0
  143.0090  151.1910  132.9700 C   0  0  0  0  0  0  0  0  0  0  0  0
  141.6270  151.3620  133.2300 C   0  0  0  0  0  0  0  0  0  0  0  0
  140.7180  150.1700  133.3380 C   0  0  0  0  0  0  0  0  0  0  0  0
  140.2930  149.7470  132.0080 N   0  0  0  0  0  0  0  0  0  0  0  0
  140.9480  148.8910  131.2030 C   0  0  0  0  0  0  0  0  0  0  0  0
  140.1880  148.6940  130.0710 C   0  0  0  0  0  0  0  0  0  0  0  0
  139.0610  149.4700  130.2650 C   0  0  0  0  0  0  0  0  0  0  0  0
  139.1430  150.0970  131.4540 N   0  0  0  0  0  0  0  0  0  0  0  0
  141.1060  152.6570  133.4340 C   0  0  0  0  0  0  0  0  0  0  0  0
  141.9860  153.7430  133.3730 C   0  0  0  0  0  0  0  0  0  0  0  0
  141.7040  155.0530  133.5310 N   0  0  0  0  0  0  0  0  0  0  0  0
  140.4140  155.6160  133.8090 C   0  0  0  0  0  0  0  0  0  0  0  0
  139.4050  155.2190  133.1670 O   0  0  0  0  0  0  0  0  0  0  0  0
  140.2520  156.6390  134.8510 C   0  0  0  0  0  0  0  0  0  0  0  0
  140.6020  156.3890  136.0370 O   0  0  0  0  0  0  0  0  0  0  0  0
  139.7050  157.8840  134.5190 O   0  0  0  0  0  0  0  0  0  0  0  0
  138.8520  158.0870  133.3940 C   0  0  0  0  0  0  0  0  0  0  0  0
  139.6480  158.4920  132.1880 C   0  0  0  0  0  0  0  0  0  0  0  0
  141.0490  158.7450  132.2970 N   0  0  0  0  0  0  0  0  0  0  0  0
  139.0720  158.6340  131.0770 O   0  0  0  0  0  0  0  0  0  0  0  0
  141.8910  157.9070  135.0910 H   0  0  0  0  0  0  0  0  0  0  0  0
  144.9615  155.0415  132.8563 H   0  0  0  0  0  0  0  0  0  0  0  0
  144.9361  152.1807  132.6701 H   0  0  0  0  0  0  0  0  0  0  0  0
  143.4163  150.1787  132.8310 H   0  0  0  0  0  0  0  0  0  0  0  0
  141.2552  149.3450  133.8287 H   0  0  0  0  0  0  0  0  0  0  0  0
  139.8327  150.4425  133.9313 H   0  0  0  0  0  0  0  0  0  0  0  0
  141.9234  148.4277  131.4127 H   0  0  0  0  0  0  0  0  0  0  0  0
  140.4256  148.0595  129.2045 H   0  0  0  0  0  0  0  0  0  0  0  0
  138.2247  149.5615  129.5564 H   0  0  0  0  0  0  0  0  0  0  0  0
  140.0354  152.8090  133.6359 H   0  0  0  0  0  0  0  0  0  0  0  0
  138.3156  157.1520  133.1747 H   0  0  0  0  0  0  0  0  0  0  0  0
  138.1394  158.8904  133.6322 H   0  0  0  0  0  0  0  0  0  0  0  0
  141.5990  159.0270  131.4560 H   0  0  0  0  0  0  0  0  0  0  0  0
  141.5390  158.6450  133.2130 H   0  0  0  0  0  0  0  0  0  0  0  0
  1  2  1  0
  2  3  2  0
  2  4  1  0
  4  5  2  0
  5  6  1  0
  6  7  2  0
  7  8  1  0
  8  9  2  0
  9 10  1  0
 10 11  1  0
 11 12  1  0
 12 13  2  0
 13 14  1  0
 14 15  2  0
  9 16  1  0
 16 17  2  0
 17 18  1  0
 18 19  1  0
 19 20  2  0
 19 21  1  0
 21 22  2  0
 21 23  1  0
 23 24  1  0
 24 25  1  0
 25 26  1  0
 25 27  2  0
 18  4  1  0
 17  6  1  0
 15 11  1  0
  1 28  1  0
  5 29  1  0
  7 30  1  0
  8 31  1  0
 10 32  1  0
 10 33  1  0
 12 34  1  0
 13 35  1  0
 14 36  1  0
 16 37  1  0
 24 38  1  0
 24 39  1  0
 26 40  1  0
 26 41  1  0
M  CHG  1   1  -1
M  END
>  <UniqueID>  (30) 
30

>  <SMILES>  (30) 
[NH-]C(=O)c1cc2ccc(Cn3cccn3)cc2n1C(=O)C(=O)OCC(N)=O

>  <Energy>  (30) 
104.33150734752118

>  <Genealogy>  (30) 
[NH-]C(=O)c1cc2ccc(Cn3cccn3)cc2n1C(=O)C(=O)OCC(N)=O (protonated)
[NH-]C(=O)c1cc2ccc(Cn3cccn3)cc2n1C(=O)C(=O)OCC(N)=O (3D coordinates assigned)
[NH-]C(=O)c1cc2ccc(Cn3cccn3)cc2n1C(=O)C(=O)OCC(N)=O (optimized conformer: 104.33150734752118 kcal/mol)

>  <smiles>  (30) 
NC(=O)COC(=O)C(=O)n1c(C(N)=O)cc2ccc(Cn3cccn3)cc21

>  <score_type>  (30) 
oracle

>  <origin>  (30) 
adg

>  <m_score__min__energy>  (30) 
-6.9299999999999997

>  <m_primary>  (30) 
energy

$$$$
31:0
     RDKit          3D

 52 53  0  0  0  0  0  0  0  0999 V2000
  149.9110  158.5620  131.8130 C   0  0  0  0  0  0  0  0  0  0  0  0
  149.1270  159.6760  131.1670 C   0  0  0  0  0  0  0  0  0  0  0  0
  149.4760  160.1000  129.7650 C   0  0  0  0  0  0  0  0  0  0  0  0
  148.0800  160.2730  131.7700 C   0  0  0  0  0  0  0  0  0  0  0  0
  147.5860  159.9730  133.1310 C   0  0  0  0  0  0  0  0  0  0  0  0
  148.3730  160.1320  134.1030 O   0  0  0  0  0  0  0  0  0  0  0  0
  146.2720  159.4410  133.3740 N   0  0  0  0  0  0  0  0  0  0  0  0
  145.1740  160.1220  133.8090 C   0  0  0  0  0  0  0  0  0  0  0  0
  145.0850  161.5930  133.9500 C   0  0  0  0  0  0  0  0  0  0  0  0
  146.2160  162.3630  134.3670 N   0  0  0  0  0  0  0  0  0  0  0  0
  143.9970  162.1850  133.7180 O   0  0  0  0  0  0  0  0  0  0  0  0
  144.1150  159.2420  134.0330 C   0  0  0  0  0  0  0  0  0  0  0  0
  144.6080  157.9920  133.7300 C   0  0  0  0  0  0  0  0  0  0  0  0
  143.9870  156.7480  133.7730 C   0  0  0  0  0  0  0  0  0  0  0  0
  144.7410  155.6220  133.4000 C   0  0  0  0  0  0  0  0  0  0  0  0
  146.0920  155.7520  132.9940 C   0  0  0  0  0  0  0  0  0  0  0  0
  146.8190  154.5740  132.5890 N   0  0  0  0  0  0  0  0  0  0  0  0
  147.7790  153.8640  133.4350 C   0  0  0  0  0  0  0  0  0  0  0  0
  148.9590  153.4210  132.6260 C   0  0  0  0  0  0  0  0  0  0  0  0
  150.0010  154.1280  132.6040 O   0  0  0  0  0  0  0  0  0  0  0  0
  148.8720  152.2310  131.8850 O   0  0  0  0  0  0  0  0  0  0  0  0
  149.3420  150.9400  132.3000 C   0  0  0  0  0  0  0  0  0  0  0  0
  148.1290  149.9980  132.3230 C   0  0  0  0  0  0  0  0  0  0  0  0
  149.9410  151.0120  133.7200 C   0  0  0  0  0  0  0  0  0  0  0  0
  150.3810  150.3930  131.3000 C   0  0  0  0  0  0  0  0  0  0  0  0
  146.6950  157.0340  132.9900 C   0  0  0  0  0  0  0  0  0  0  0  0
  145.9130  158.1390  133.3440 C   0  0  0  0  0  0  0  0  0  0  0  0
  149.8459  158.6545  132.9072 H   0  0  0  0  0  0  0  0  0  0  0  0
  149.4951  157.5925  131.5016 H   0  0  0  0  0  0  0  0  0  0  0  0
  150.9640  158.6263  131.5016 H   0  0  0  0  0  0  0  0  0  0  0  0
  150.1747  160.9488  129.8018 H   0  0  0  0  0  0  0  0  0  0  0  0
  149.9476  159.2597  129.2345 H   0  0  0  0  0  0  0  0  0  0  0  0
  148.5607  160.4012  129.2345 H   0  0  0  0  0  0  0  0  0  0  0  0
  147.5476  161.0496  131.2013 H   0  0  0  0  0  0  0  0  0  0  0  0
  146.1220  163.3930  134.5100 H   0  0  0  0  0  0  0  0  0  0  0  0
  147.1530  161.9260  134.5040 H   0  0  0  0  0  0  0  0  0  0  0  0
  143.1013  159.4931  134.3784 H   0  0  0  0  0  0  0  0  0  0  0  0
  142.9381  156.6486  134.0892 H   0  0  0  0  0  0  0  0  0  0  0  0
  144.2755  154.6256  133.4237 H   0  0  0  0  0  0  0  0  0  0  0  0
  146.7240  154.2470  131.5990 H   0  0  0  0  0  0  0  0  0  0  0  0
  148.1206  154.5345  134.2373 H   0  0  0  0  0  0  0  0  0  0  0  0
  147.2888  152.9786  133.8660 H   0  0  0  0  0  0  0  0  0  0  0  0
  147.8517  149.7827  133.3655 H   0  0  0  0  0  0  0  0  0  0  0  0
  147.2824  150.4777  131.8100 H   0  0  0  0  0  0  0  0  0  0  0  0
  148.3842  149.0590  131.8100 H   0  0  0  0  0  0  0  0  0  0  0  0
  149.1357  150.9152  134.4630 H   0  0  0  0  0  0  0  0  0  0  0  0
  150.6644  150.1943  133.8547 H   0  0  0  0  0  0  0  0  0  0  0  0
  150.4500  151.9778  133.8547 H   0  0  0  0  0  0  0  0  0  0  0  0
  151.2230  149.9497  131.8518 H   0  0  0  0  0  0  0  0  0  0  0  0
  149.9121  149.6249  130.6675 H   0  0  0  0  0  0  0  0  0  0  0  0
  150.7489  151.2143  130.6675 H   0  0  0  0  0  0  0  0  0  0  0  0
  147.7529  157.1578  132.7151 H   0  0  0  0  0  0  0  0  0  0  0  0
  1  2  1  0
  2  3  1  0
  2  4  2  3
  4  5  1  0
  5  6  2  0
  5  7  1  0
  7  8  1  0
  8  9  1  0
  9 10  1  0
  9 11  2  0
  8 12  2  0
 12 13  1  0
 13 14  2  0
 14 15  1  0
 15 16  2  0
 16 17  1  0
 17 18  1  0
 18 19  1  0
 19 20  2  0
 19 21  1  0
 21 22  1  0
 22 23  1  0
 22 24  1  0
 22 25  1  0
 16 26  1  0
 26 27  2  0
 27  7  1  0
 27 13  1  0
  1 28  1  0
  1 29  1  0
  1 30  1  0
  3 31  1  0
  3 32  1  0
  3 33  1  0
  4 34  1  0
 10 35  1  0
 10 36  1  0
 12 37  1  0
 14 38  1  0
 15 39  1  0
 17 40  1  0
 18 41  1  0
 18 42  1  0
 23 43  1  0
 23 44  1  0
 23 45  1  0
 24 46  1  0
 24 47  1  0
 24 48  1  0
 25 49  1  0
 25 50  1  0
 25 51  1  0
 26 52  1  0
M  END
>  <UniqueID>  (31) 
31

>  <SMILES>  (31) 
CC(C)=CC(=O)n1c(C(N)=O)cc2ccc(NCC(=O)OC(C)(C)C)cc21

>  <Energy>  (31) 
82.83912344699253

>  <Genealogy>  (31) 
CC(C)=CC(=O)n1c(C(N)=O)cc2ccc(NCC(=O)OC(C)(C)C)cc21 (3D coordinates assigned)
CC(C)=CC(=O)n1c(C(N)=O)cc2ccc(NCC(=O)OC(C)(C)C)cc21 (optimized conformer: 82.83912344699253 kcal/mol)

>  <smiles>  (31) 
CC(C)=CC(=O)n1c(C(N)=O)cc2ccc(NCC(=O)OC(C)(C)C)cc21

>  <score_type>  (31) 
oracle

>  <origin>  (31) 
adg

>  <m_score__min__energy>  (31) 
-8.9700000000000006

>  <m_primary>  (31) 
energy

$$$$
32:0
     RDKit          3D

 34 36  0  0  0  0  0  0  0  0999 V2000
  143.2930  153.5870  135.1470 N   0  0  0  0  0  0  0  0  0  0  0  0
  142.3130  154.3740  135.8190 C   0  0  0  0  0  0  0  0  0  0  0  0
  142.0700  154.1490  137.0350 O   0  0  0  0  0  0  0  0  0  0  0  0
  141.6250  155.4840  135.1280 C   0  0  0  0  0  0  0  0  0  0  0  0
  141.7420  156.8160  135.5170 C   0  0  0  0  0  0  0  0  0  0  0  0
  141.0280  157.5320  134.5830 C   0  0  0  0  0  0  0  0  0  0  0  0
  140.7900  158.9000  134.4980 C   0  0  0  0  0  0  0  0  0  0  0  0
  139.9790  159.3630  133.4480 C   0  0  0  0  0  0  0  0  0  0  0  0
  139.4320  158.4590  132.5000 C   0  0  0  0  0  0  0  0  0  0  0  0
  138.5130  158.9610  131.4160 C   0  0  0  0  0  0  0  0  0  0  0  0
  138.7380  158.2820  130.2310 F   0  0  0  0  0  0  0  0  0  0  0  0
  137.2010  158.7660  131.8060 F   0  0  0  0  0  0  0  0  0  0  0  0
  138.7190  160.3110  131.1870 F   0  0  0  0  0  0  0  0  0  0  0  0
  139.6790  157.0730  132.6370 C   0  0  0  0  0  0  0  0  0  0  0  0
  140.5060  156.6420  133.6810 C   0  0  0  0  0  0  0  0  0  0  0  0
  140.8610  155.3770  134.0040 N   0  0  0  0  0  0  0  0  0  0  0  0
  140.4220  154.1740  133.3550 C   0  0  0  0  0  0  0  0  0  0  0  0
  139.2220  154.0660  132.9810 O   0  0  0  0  0  0  0  0  0  0  0  0
  141.3320  153.1270  133.1560 O   0  0  0  0  0  0  0  0  0  0  0  0
  141.1580  151.8110  133.6020 C   0  0  0  0  0  0  0  0  0  0  0  0
  141.3510  151.5010  134.8090 O   0  0  0  0  0  0  0  0  0  0  0  0
  140.7430  150.7820  132.6430 C   0  0  0  0  0  0  0  0  0  0  0  0
  139.5320  150.7330  131.9620 C   0  0  0  0  0  0  0  0  0  0  0  0
  139.4250  149.6300  131.1070 C   0  0  0  0  0  0  0  0  0  0  0  0
  140.5460  148.8100  131.1110 C   0  0  0  0  0  0  0  0  0  0  0  0
  141.6710  149.4580  132.1790 S   0  0  0  0  0  0  0  0  0  0  0  0
  143.0140  152.8240  134.4930 H   0  0  0  0  0  0  0  0  0  0  0  0
  142.2886  157.2117  136.3857 H   0  0  0  0  0  0  0  0  0  0  0  0
  141.2232  159.5975  135.2300 H   0  0  0  0  0  0  0  0  0  0  0  0
  139.7655  160.4385  133.3596 H   0  0  0  0  0  0  0  0  0  0  0  0
  139.2314  156.3502  131.9390 H   0  0  0  0  0  0  0  0  0  0  0  0
  138.7383  151.4849  132.0829 H   0  0  0  0  0  0  0  0  0  0  0  0
  138.5364  149.4312  130.4898 H   0  0  0  0  0  0  0  0  0  0  0  0
  140.6756  147.8933  130.5169 H   0  0  0  0  0  0  0  0  0  0  0  0
  1  2  1  0
  2  3  2  0
  2  4  1  0
  4  5  2  0
  5  6  1  0
  6  7  2  0
  7  8  1  0
  8  9  2  0
  9 10  1  0
 10 11  1  0
 10 12  1  0
 10 13  1  0
  9 14  1  0
 14 15  2  0
 15 16  1  0
 16 17  1  0
 17 18  2  0
 17 19  1  0
 19 20  1  0
 20 21  2  0
 20 22  1  0
 22 23  2  0
 23 24  1  0
 24 25  2  0
 25 26  1  0
 16  4  1  0
 26 22  1  0
 15  6  1  0
  1 27  1  0
  5 28  1  0
  7 29  1  0
  8 30  1  0
 14 31  1  0
 23 32  1  0
 24 33  1  0
 25 34  1  0
M  CHG  1   1  -1
M  END
>  <UniqueID>  (32) 
32

>  <SMILES>  (32) 
[NH-]C(=O)c1cc2ccc(C(F)(F)F)cc2n1C(=O)OC(=O)c1cccs1

>  <Energy>  (32) 
102.27291297470504

>  <Genealogy>  (32) 
[NH-]C(=O)c1cc2ccc(C(F)(F)F)cc2n1C(=O)OC(=O)c1cccs1 (protonated)
[NH-]C(=O)c1cc2ccc(C(F)(F)F)cc2n1C(=O)OC(=O)c1cccs1 (3D coordinates assigned)
[NH-]C(=O)c1cc2ccc(C(F)(F)F)cc2n1C(=O)OC(=O)c1cccs1 (optimized conformer: 102.27291297470504 kcal/mol)

>  <smiles>  (32) 
NC(=O)c1cc2ccc(C(F)(F)F)cc2n1C(=O)OC(=O)c1cccs1

>  <score_type>  (32) 
oracle

>  <origin>  (32) 
adg

>  <m_score__min__energy>  (32) 
-7.3499999999999996

>  <m_primary>  (32) 
energy

$$$$
33:0
     RDKit          3D

 43 44  0  0  0  0  0  0  0  0999 V2000
  149.2380  159.5040  129.6740 C   0  0  0  0  0  0  0  0  0  0  0  0
  148.9440  160.6360  130.6210 C   0  0  0  0  0  0  0  0  0  0  0  0
  149.5980  161.9750  130.4310 C   0  0  0  0  0  0  0  0  0  0  0  0
  148.0950  160.4600  131.6410 C   0  0  0  0  0  0  0  0  0  0  0  0
  147.4720  159.2250  131.8430 O   0  0  0  0  0  0  0  0  0  0  0  0
  147.2330  158.6830  133.1090 C   0  0  0  0  0  0  0  0  0  0  0  0
  148.1030  158.7730  134.0190 O   0  0  0  0  0  0  0  0  0  0  0  0
  145.9950  158.0020  133.3670 N   0  0  0  0  0  0  0  0  0  0  0  0
  144.7710  158.5570  133.5970 C   0  0  0  0  0  0  0  0  0  0  0  0
  144.4960  159.9960  133.7930 C   0  0  0  0  0  0  0  0  0  0  0  0
  145.5600  160.9410  133.6940 N   0  0  0  0  0  0  0  0  0  0  0  0
  143.3250  160.4040  134.0080 O   0  0  0  0  0  0  0  0  0  0  0  0
  143.7960  157.5670  133.7040 C   0  0  0  0  0  0  0  0  0  0  0  0
  144.4650  156.3770  133.5360 C   0  0  0  0  0  0  0  0  0  0  0  0
  143.9820  155.0720  133.5290 C   0  0  0  0  0  0  0  0  0  0  0  0
  144.8960  154.0320  133.2940 C   0  0  0  0  0  0  0  0  0  0  0  0
  146.2680  154.3100  133.0650 C   0  0  0  0  0  0  0  0  0  0  0  0
  147.1910  153.2330  132.7930 N   0  0  0  0  0  0  0  0  0  0  0  0
  148.5940  153.6820  132.8760 C   0  0  0  0  0  0  0  0  0  0  0  0
  149.6080  152.5680  132.5590 C   0  0  0  0  0  0  0  0  0  0  0  0
  149.0120  151.2050  132.7370 C   0  0  0  0  0  0  0  0  0  0  0  0
  149.5940  150.3470  133.4510 O   0  0  0  0  0  0  0  0  0  0  0  0
  147.8050  150.8890  132.1270 O   0  0  0  0  0  0  0  0  0  0  0  0
  146.7200  155.6500  133.0830 C   0  0  0  0  0  0  0  0  0  0  0  0
  145.7900  156.6640  133.3340 C   0  0  0  0  0  0  0  0  0  0  0  0
  149.4737  158.5965  130.2493 H   0  0  0  0  0  0  0  0  0  0  0  0
  148.3583  159.3182  129.0403 H   0  0  0  0  0  0  0  0  0  0  0  0
  150.0969  159.7698  129.0403 H   0  0  0  0  0  0  0  0  0  0  0  0
  149.8152  162.4197  131.4134 H   0  0  0  0  0  0  0  0  0  0  0  0
  150.5359  161.8487  129.8702 H   0  0  0  0  0  0  0  0  0  0  0  0
  148.9218  162.6371  129.8702 H   0  0  0  0  0  0  0  0  0  0  0  0
  147.8858  161.2946  132.3263 H   0  0  0  0  0  0  0  0  0  0  0  0
  146.2830  160.8570  132.9470 H   0  0  0  0  0  0  0  0  0  0  0  0
  142.7200  157.7074  133.8845 H   0  0  0  0  0  0  0  0  0  0  0  0
  142.9164  154.8614  133.7023 H   0  0  0  0  0  0  0  0  0  0  0  0
  144.5439  152.9899  133.2874 H   0  0  0  0  0  0  0  0  0  0  0  0
  147.0130  152.8790  131.8240 H   0  0  0  0  0  0  0  0  0  0  0  0
  147.0260  152.4290  133.4420 H   0  0  0  0  0  0  0  0  0  0  0  0
  148.7412  154.5029  132.1588 H   0  0  0  0  0  0  0  0  0  0  0  0
  148.7737  154.0016  133.9131 H   0  0  0  0  0  0  0  0  0  0  0  0
  149.9422  152.6770  131.5167 H   0  0  0  0  0  0  0  0  0  0  0  0
  150.4521  152.6656  133.2575 H   0  0  0  0  0  0  0  0  0  0  0  0
  147.7786  155.8892  132.9037 H   0  0  0  0  0  0  0  0  0  0  0  0
  1  2  1  0
  2  3  1  0
  2  4  2  3
  4  5  1  0
  5  6  1  0
  6  7  2  0
  6  8  1  0
  8  9  1  0
  9 10  1  0
 10 11  1  0
 10 12  2  0
  9 13  2  0
 13 14  1  0
 14 15  2  0
 15 16  1  0
 16 17  2  0
 17 18  1  0
 18 19  1  0
 19 20  1  0
 20 21  1  0
 21 22  2  0
 21 23  1  0
 17 24  1  0
 24 25  2  0
 25  8  1  0
 25 14  1  0
  1 26  1  0
  1 27  1  0
  1 28  1  0
  3 29  1  0
  3 30  1  0
  3 31  1  0
  4 32  1  0
 11 33  1  0
 13 34  1  0
 15 35  1  0
 16 36  1  0
 18 37  1  0
 18 38  1  0
 19 39  1  0
 19 40  1  0
 20 41  1  0
 20 42  1  0
 24 43  1  0
M  CHG  3  11  -1  18   1  23  -1
M  END
>  <UniqueID>  (33) 
33

>  <SMILES>  (33) 
CC(C)=COC(=O)n1c(C([NH-])=O)cc2ccc([NH2+]CCC(=O)[O-])cc21

>  <Energy>  (33) 
74.78088393121824

>  <Genealogy>  (33) 
CC(C)=COC(=O)n1c(C([NH-])=O)cc2ccc([NH2+]CCC(=O)[O-])cc21 (protonated)
CC(C)=COC(=O)n1c(C([NH-])=O)cc2ccc([NH2+]CCC(=O)[O-])cc21 (3D coordinates assigned)
CC(C)=COC(=O)n1c(C([NH-])=O)cc2ccc([NH2+]CCC(=O)[O-])cc21 (optimized conformer: 74.78088393121824 kcal/mol)

>  <smiles>  (33) 
CC(C)=COC(=O)n1c(C(N)=O)cc2ccc(NCCC(=O)O)cc21

>  <score_type>  (33) 
oracle

>  <origin>  (33) 
adg

>  <m_score__min__energy>  (33) 
-7.0899999999999999

>  <m_primary>  (33) 
energy

$$$$
34:0
     RDKit          3D

 36 37  0  0  0  0  0  0  0  0999 V2000
  139.2600  155.3820  132.9800 C   0  0  0  0  0  0  0  0  0  0  0  0
  140.6750  155.5890  133.3130 N   0  0  0  0  0  0  0  0  0  0  0  0
  141.5400  154.4160  133.4900 C   0  0  0  0  0  0  0  0  0  0  0  0
  141.2100  156.9290  133.4640 C   0  0  0  0  0  0  0  0  0  0  0  0
  140.3410  158.0560  133.5240 C   0  0  0  0  0  0  0  0  0  0  0  0
  140.8500  159.3580  133.6560 C   0  0  0  0  0  0  0  0  0  0  0  0
  142.2280  159.5170  133.7400 C   0  0  0  0  0  0  0  0  0  0  0  0
  142.9790  160.6640  133.8390 C   0  0  0  0  0  0  0  0  0  0  0  0
  144.3020  160.2340  133.8720 C   0  0  0  0  0  0  0  0  0  0  0  0
  145.4500  161.1480  134.0330 C   0  0  0  0  0  0  0  0  0  0  0  0
  146.6940  160.8990  133.3750 N   0  0  0  0  0  0  0  0  0  0  0  0
  145.3500  162.1360  134.8090 O   0  0  0  0  0  0  0  0  0  0  0  0
  144.3690  158.8750  133.7830 N   0  0  0  0  0  0  0  0  0  0  0  0
  145.5490  158.0620  133.6770 C   0  0  0  0  0  0  0  0  0  0  0  0
  145.7200  157.1020  134.4760 O   0  0  0  0  0  0  0  0  0  0  0  0
  146.4990  158.3470  132.6850 O   0  0  0  0  0  0  0  0  0  0  0  0
  147.8490  157.9800  132.7310 C   0  0  0  0  0  0  0  0  0  0  0  0
  148.1910  156.7660  132.6730 O   0  0  0  0  0  0  0  0  0  0  0  0
  148.8100  158.9920  132.8430 O   0  0  0  0  0  0  0  0  0  0  0  0
  149.1340  159.9090  131.8350 C   0  0  0  0  0  0  0  0  0  0  0  0
  148.4210  160.9260  131.6200 O   0  0  0  0  0  0  0  0  0  0  0  0
  150.2630  159.6930  131.0580 O   0  0  0  0  0  0  0  0  0  0  0  0
  143.0870  158.4510  133.7070 C   0  0  0  0  0  0  0  0  0  0  0  0
  142.6100  157.1440  133.5490 C   0  0  0  0  0  0  0  0  0  0  0  0
  138.6739  155.2963  133.9069 H   0  0  0  0  0  0  0  0  0  0  0  0
  138.8930  156.2360  132.3918 H   0  0  0  0  0  0  0  0  0  0  0  0
  139.1530  154.4586  132.3918 H   0  0  0  0  0  0  0  0  0  0  0  0
  141.6818  154.2237  134.5637 H   0  0  0  0  0  0  0  0  0  0  0  0
  141.0703  153.5397  133.0194 H   0  0  0  0  0  0  0  0  0  0  0  0
  142.5160  154.6058  133.0194 H   0  0  0  0  0  0  0  0  0  0  0  0
  139.2531  157.9039  133.4660 H   0  0  0  0  0  0  0  0  0  0  0  0
  140.1771  160.2274  133.6919 H   0  0  0  0  0  0  0  0  0  0  0  0
  142.6125  161.7002  133.8828 H   0  0  0  0  0  0  0  0  0  0  0  0
  146.8650  160.0040  132.8660 H   0  0  0  0  0  0  0  0  0  0  0  0
  147.4810  161.5790  133.4690 H   0  0  0  0  0  0  0  0  0  0  0  0
  143.3097  156.2971  133.4917 H   0  0  0  0  0  0  0  0  0  0  0  0
  1  2  1  0
  2  3  1  0
  2  4  1  0
  4  5  2  0
  5  6  1  0
  6  7  2  0
  7  8  1  0
  8  9  2  0
  9 10  1  0
 10 11  1  0
 10 12  2  0
  9 13  1  0
 13 14  1  0
 14 15  2  0
 14 16  1  0
 16 17  1  0
 17 18  2  0
 17 19  1  0
 19 20  1  0
 20 21  2  0
 20 22  1  0
 13 23  1  0
 23 24  2  0
 24  4  1  0
 23  7  1  0
  1 25  1  0
  1 26  1  0
  1 27  1  0
  3 28  1  0
  3 29  1  0
  3 30  1  0
  5 31  1  0
  6 32  1  0
  8 33  1  0
 11 34  1  0
 11 35  1  0
 24 36  1  0
M  CHG  1  22  -1
M  END
>  <UniqueID>  (34) 
34

>  <SMILES>  (34) 
CN(C)c1ccc2cc(C(N)=O)n(C(=O)OC(=O)OC(=O)[O-])c2c1

>  <Energy>  (34) 
79.19295707294661

>  <Genealogy>  (34) 
CN(C)c1ccc2cc(C(N)=O)n(C(=O)OC(=O)OC(=O)[O-])c2c1 (protonated)
CN(C)c1ccc2cc(C(N)=O)n(C(=O)OC(=O)OC(=O)[O-])c2c1 (3D coordinates assigned)
CN(C)c1ccc2cc(C(N)=O)n(C(=O)OC(=O)OC(=O)[O-])c2c1 (optimized conformer: 79.19295707294661 kcal/mol)

>  <smiles>  (34) 
CN(C)c1ccc2cc(C(N)=O)n(C(=O)OC(=O)OC(=O)O)c2c1

>  <score_type>  (34) 
oracle

>  <origin>  (34) 
adg

>  <m_score__min__energy>  (34) 
-6.2400000000000002

>  <m_primary>  (34) 
energy

$$$$
35:0
     RDKit          3D

 39 40  0  0  0  0  0  0  0  0999 V2000
  148.8550  150.3570  132.0670 C   0  0  0  0  0  0  0  0  0  0  0  0
  148.7640  151.2720  133.2190 N   0  0  1  0  0  0  0  0  0  0  0  0
  149.6370  150.8410  134.3340 C   0  0  0  0  0  0  0  0  0  0  0  0
  149.2440  151.4890  135.6300 C   0  0  0  0  0  0  0  0  0  0  0  0
  149.6130  150.9910  136.7270 O   0  0  0  0  0  0  0  0  0  0  0  0
  148.4450  152.6260  135.6250 O   0  0  0  0  0  0  0  0  0  0  0  0
  149.1190  152.6080  132.7930 C   0  0  0  0  0  0  0  0  0  0  0  0
  150.0400  152.7740  131.9430 O   0  0  0  0  0  0  0  0  0  0  0  0
  148.3850  153.7390  133.2920 N   0  0  0  0  0  0  0  0  0  0  0  0
  148.6750  155.1020  132.9420 C   0  0  0  0  0  0  0  0  0  0  0  0
  149.7300  155.3930  132.3160 O   0  0  0  0  0  0  0  0  0  0  0  0
  147.7580  156.1450  133.3090 N   0  0  0  0  0  0  0  0  0  0  0  0
  146.7400  156.0820  134.2120 C   0  0  0  0  0  0  0  0  0  0  0  0
  146.2930  154.8710  134.9310 C   0  0  0  0  0  0  0  0  0  0  0  0
  146.0000  153.6800  134.2030 N   0  0  0  0  0  0  0  0  0  0  0  0
  146.1910  154.8670  136.1860 O   0  0  0  0  0  0  0  0  0  0  0  0
  146.1130  157.3220  134.3240 C   0  0  0  0  0  0  0  0  0  0  0  0
  146.7840  158.1510  133.4550 C   0  0  0  0  0  0  0  0  0  0  0  0
  146.5850  159.4970  133.1650 C   0  0  0  0  0  0  0  0  0  0  0  0
  147.4460  160.1060  132.2360 C   0  0  0  0  0  0  0  0  0  0  0  0
  148.5040  159.3730  131.6370 C   0  0  0  0  0  0  0  0  0  0  0  0
  149.3970  160.0290  130.6160 C   0  0  0  0  0  0  0  0  0  0  0  0
  150.7140  159.6430  130.7960 F   0  0  0  0  0  0  0  0  0  0  0  0
  149.3310  161.4080  130.7220 F   0  0  0  0  0  0  0  0  0  0  0  0
  148.9890  159.6560  129.3490 F   0  0  0  0  0  0  0  0  0  0  0  0
  148.6600  158.0020  131.9440 C   0  0  0  0  0  0  0  0  0  0  0  0
  147.7740  157.4170  132.8560 C   0  0  0  0  0  0  0  0  0  0  0  0
  148.9578  149.3228  132.4274 H   0  0  0  0  0  0  0  0  0  0  0  0
  147.9438  150.4438  131.4569 H   0  0  0  0  0  0  0  0  0  0  0  0
  149.7313  150.6215  131.4569 H   0  0  0  0  0  0  0  0  0  0  0  0
  147.7710  151.2780  133.5550 H   0  0  0  0  0  0  0  0  0  0  0  0
  149.5615  149.7491  134.4442 H   0  0  0  0  0  0  0  0  0  0  0  0
  150.6681  151.1433  134.0985 H   0  0  0  0  0  0  0  0  0  0  0  0
  147.5820  153.5660  133.9360 H   0  0  0  0  0  0  0  0  0  0  0  0
  146.5840  152.8230  134.3200 H   0  0  0  0  0  0  0  0  0  0  0  0
  145.2619  157.5825  134.9704 H   0  0  0  0  0  0  0  0  0  0  0  0
  145.7781  160.0674  133.6482 H   0  0  0  0  0  0  0  0  0  0  0  0
  147.2984  161.1631  131.9699 H   0  0  0  0  0  0  0  0  0  0  0  0
  149.4596  157.4084  131.4768 H   0  0  0  0  0  0  0  0  0  0  0  0
  1  2  1  0
  2  3  1  0
  3  4  1  0
  4  5  2  0
  4  6  1  0
  2  7  1  0
  7  8  2  0
  7  9  1  0
  9 10  1  0
 10 11  2  0
 10 12  1  0
 12 13  1  0
 13 14  1  0
 14 15  1  0
 14 16  2  0
 13 17  2  0
 17 18  1  0
 18 19  2  0
 19 20  1  0
 20 21  2  0
 21 22  1  0
 22 23  1  0
 22 24  1  0
 22 25  1  0
 21 26  1  0
 26 27  2  0
 27 12  1  0
 27 18  1  0
  1 28  1  0
  1 29  1  0
  1 30  1  0
  2 31  1  1
  3 32  1  0
  3 33  1  0
  9 34  1  0
 15 35  1  0
 17 36  1  0
 19 37  1  0
 20 38  1  0
 26 39  1  0
M  CHG  3   2   1   6  -1  15  -1
M  END
>  <UniqueID>  (35) 
35

>  <SMILES>  (35) 
C[NH+](CC(=O)[O-])C(=O)NC(=O)n1c(C([NH-])=O)cc2ccc(C(F)(F)F)cc21

>  <Energy>  (35) 
80.2999091288138

>  <Genealogy>  (35) 
C[NH+](CC(=O)[O-])C(=O)NC(=O)n1c(C([NH-])=O)cc2ccc(C(F)(F)F)cc21 (protonated)
C[NH+](CC(=O)[O-])C(=O)NC(=O)n1c(C([NH-])=O)cc2ccc(C(F)(F)F)cc21 (3D coordinates assigned)
C[NH+](CC(=O)[O-])C(=O)NC(=O)n1c(C([NH-])=O)cc2ccc(C(F)(F)F)cc21 (optimized conformer: 80.2999091288138 kcal/mol)

>  <smiles>  (35) 
CN(CC(=O)O)C(=O)NC(=O)n1c(C(N)=O)cc2ccc(C(F)(F)F)cc21

>  <score_type>  (35) 
oracle

>  <origin>  (35) 
adg

>  <m_score__min__energy>  (35) 
-7.04

>  <m_primary>  (35) 
energy

$$$$
36:0
     RDKit          3D

 54 57  0  0  0  0  0  0  0  0999 V2000
  139.6960  155.9610  133.3080 C   0  0  0  0  0  0  0  0  0  0  0  0
  140.6680  156.6710  133.3450 C   0  0  0  0  0  0  0  0  0  0  0  0
  141.8300  157.5210  133.3890 C   0  0  0  0  0  0  0  0  0  0  0  0
  141.6760  158.9270  133.3990 C   0  0  0  0  0  0  0  0  0  0  0  0
  142.8050  159.7670  133.4410 C   0  0  0  0  0  0  0  0  0  0  0  0
  144.0610  159.1690  133.4690 C   0  0  0  0  0  0  0  0  0  0  0  0
  145.3170  159.7340  133.5100 C   0  0  0  0  0  0  0  0  0  0  0  0
  146.2100  158.6600  133.5130 C   0  0  0  0  0  0  0  0  0  0  0  0
  147.6860  158.7800  133.5870 C   0  0  0  0  0  0  0  0  0  0  0  0
  148.4770  157.8140  134.2770 N   0  0  0  0  0  0  0  0  0  0  0  0
  148.2660  159.7430  133.0210 O   0  0  0  0  0  0  0  0  0  0  0  0
  145.5230  157.4850  133.4830 N   0  0  0  0  0  0  0  0  0  0  0  0
  146.0510  156.1540  133.4410 C   0  0  0  0  0  0  0  0  0  0  0  0
  146.4180  155.6770  132.3340 O   0  0  0  0  0  0  0  0  0  0  0  0
  146.0560  155.3220  134.6650 C   0  0  0  0  0  0  0  0  0  0  0  0
  147.1450  155.1670  135.2840 O   0  0  0  0  0  0  0  0  0  0  0  0
  144.8580  154.7380  135.2180 N   0  0  0  0  0  0  0  0  0  0  0  0
  144.0460  153.7410  134.5890 C   0  0  0  0  0  0  0  0  0  0  0  0
  142.7470  153.5150  135.0650 C   0  0  0  0  0  0  0  0  0  0  0  0
  141.9330  152.5610  134.4470 C   0  0  0  0  0  0  0  0  0  0  0  0
  142.4220  151.7930  133.3730 C   0  0  0  0  0  0  0  0  0  0  0  0
  141.5760  150.8190  132.7360 N   0  0  0  0  0  0  0  0  0  0  0  0
  140.1510  151.1250  132.5380 C   0  0  0  0  0  0  0  0  0  0  0  0
  139.5400  150.3710  131.3300 C   0  0  0  0  0  0  0  0  0  0  0  0
  140.3400  149.2060  130.8780 N   0  0  0  0  0  0  0  0  0  0  0  0
  139.4920  148.2620  130.1330 C   0  0  0  0  0  0  0  0  0  0  0  0
  140.9990  148.5290  132.0060 C   0  0  0  0  0  0  0  0  0  0  0  0
  142.0850  149.4510  132.5610 C   0  0  0  0  0  0  0  0  0  0  0  0
  143.7420  151.9890  132.9280 C   0  0  0  0  0  0  0  0  0  0  0  0
  144.5490  152.9590  133.5320 C   0  0  0  0  0  0  0  0  0  0  0  0
  144.2160  157.8090  133.4570 C   0  0  0  0  0  0  0  0  0  0  0  0
  143.1170  156.9470  133.4140 C   0  0  0  0  0  0  0  0  0  0  0  0
  138.8082  155.3125  133.2742 H   0  0  0  0  0  0  0  0  0  0  0  0
  140.6680  159.3668  133.3738 H   0  0  0  0  0  0  0  0  0  0  0  0
  142.6975  160.8617  133.4513 H   0  0  0  0  0  0  0  0  0  0  0  0
  145.5644  160.8055  133.5351 H   0  0  0  0  0  0  0  0  0  0  0  0
  148.0440  157.0500  134.8440 H   0  0  0  0  0  0  0  0  0  0  0  0
  149.5170  157.8670  134.2540 H   0  0  0  0  0  0  0  0  0  0  0  0
  142.3683  154.0879  135.9243 H   0  0  0  0  0  0  0  0  0  0  0  0
  140.9031  152.4093  134.8024 H   0  0  0  0  0  0  0  0  0  0  0  0
  139.6002  150.8394  133.4463 H   0  0  0  0  0  0  0  0  0  0  0  0
  140.0677  152.2027  132.3338 H   0  0  0  0  0  0  0  0  0  0  0  0
  138.5395  150.0137  131.6154 H   0  0  0  0  0  0  0  0  0  0  0  0
  139.5126  151.0826  130.4916 H   0  0  0  0  0  0  0  0  0  0  0  0
  138.9298  147.6362  130.8417 H   0  0  0  0  0  0  0  0  0  0  0  0
  138.7880  148.8223  129.5002 H   0  0  0  0  0  0  0  0  0  0  0  0
  140.1243  147.6219  129.5002 H   0  0  0  0  0  0  0  0  0  0  0  0
  140.2598  148.3124  132.7913 H   0  0  0  0  0  0  0  0  0  0  0  0
  141.4463  147.5829  131.6671 H   0  0  0  0  0  0  0  0  0  0  0  0
  142.4214  149.0651  133.5346 H   0  0  0  0  0  0  0  0  0  0  0  0
  142.9213  149.4770  131.8468 H   0  0  0  0  0  0  0  0  0  0  0  0
  144.1402  151.3787  132.1040 H   0  0  0  0  0  0  0  0  0  0  0  0
  145.5799  153.1112  133.1799 H   0  0  0  0  0  0  0  0  0  0  0  0
  143.2520  155.8554  133.4001 H   0  0  0  0  0  0  0  0  0  0  0  0
  1  2  3  0
  2  3  1  0
  3  4  2  0
  4  5  1  0
  5  6  2  0
  6  7  1  0
  7  8  2  0
  8  9  1  0
  9 10  1  0
  9 11  2  0
  8 12  1  0
 12 13  1  0
 13 14  2  0
 13 15  1  0
 15 16  2  0
 15 17  1  0
 17 18  1  0
 18 19  2  0
 19 20  1  0
 20 21  2  0
 21 22  1  0
 22 23  1  0
 23 24  1  0
 24 25  1  0
 25 26  1  0
 25 27  1  0
 27 28  1  0
 21 29  1  0
 29 30  2  0
 12 31  1  0
 31 32  2  0
 32  3  1  0
 31  6  1  0
 30 18  1  0
 28 22  1  0
  1 33  1  0
  4 34  1  0
  5 35  1  0
  7 36  1  0
 10 37  1  0
 10 38  1  0
 19 39  1  0
 20 40  1  0
 23 41  1  0
 23 42  1  0
 24 43  1  0
 24 44  1  0
 26 45  1  0
 26 46  1  0
 26 47  1  0
 27 48  1  0
 27 49  1  0
 28 50  1  0
 28 51  1  0
 29 52  1  0
 30 53  1  0
 32 54  1  0
M  CHG  1  17  -1
M  END
>  <UniqueID>  (36) 
36

>  <SMILES>  (36) 
C#Cc1ccc2cc(C(N)=O)n(C(=O)C(=O)[N-]c3ccc(N4CCN(C)CC4)cc3)c2c1

>  <Energy>  (36) 
112.30487350122279

>  <Genealogy>  (36) 
C#Cc1ccc2cc(C(N)=O)n(C(=O)C(=O)[N-]c3ccc(N4CCN(C)CC4)cc3)c2c1 (protonated)
C#Cc1ccc2cc(C(N)=O)n(C(=O)C(=O)[N-]c3ccc(N4CCN(C)CC4)cc3)c2c1 (3D coordinates assigned)
C#Cc1ccc2cc(C(N)=O)n(C(=O)C(=O)[N-]c3ccc(N4CCN(C)CC4)cc3)c2c1 (nonaromatic ring conformer: 112.30487350122279 kcal/mol)

>  <smiles>  (36) 
C#Cc1ccc2cc(C(N)=O)n(C(=O)C(=O)Nc3ccc(N4CCN(C)CC4)cc3)c2c1

>  <score_type>  (36) 
oracle

>  <origin>  (36) 
adg

>  <m_score__min__energy>  (36) 
-10.56

>  <m_primary>  (36) 
energy

$$$$
37:0
     RDKit          3D

 49 50  0  0  0  0  0  0  0  0999 V2000
  140.1560  157.2460  133.5620 C   0  0  0  0  0  0  0  0  0  0  0  0
  140.5420  158.3380  134.5680 C   0  0  1  0  0  0  0  0  0  0  0  0
  140.4030  157.8240  136.0150 C   0  0  0  0  0  0  0  0  0  0  0  0
  140.6630  158.9080  137.0210 C   0  0  0  0  0  0  0  0  0  0  0  0
  141.7630  159.0190  137.5410 O   0  0  0  0  0  0  0  0  0  0  0  0
  141.9430  158.8570  134.2870 C   0  0  0  0  0  0  0  0  0  0  0  0
  142.1720  160.2350  134.0280 C   0  0  0  0  0  0  0  0  0  0  0  0
  143.4640  160.7070  133.7440 C   0  0  0  0  0  0  0  0  0  0  0  0
  144.5070  159.7870  133.7310 C   0  0  0  0  0  0  0  0  0  0  0  0
  145.8420  159.9690  133.4500 C   0  0  0  0  0  0  0  0  0  0  0  0
  146.4170  158.7080  133.5670 C   0  0  0  0  0  0  0  0  0  0  0  0
  147.8630  158.4560  133.4030 C   0  0  0  0  0  0  0  0  0  0  0  0
  148.4770  157.2860  133.9460 N   0  0  0  0  0  0  0  0  0  0  0  0
  148.5790  159.3150  132.8230 O   0  0  0  0  0  0  0  0  0  0  0  0
  145.4770  157.7770  133.8940 N   0  0  0  0  0  0  0  0  0  0  0  0
  145.6510  156.3540  133.9960 C   0  0  0  0  0  0  0  0  0  0  0  0
  145.3960  155.6210  133.0010 O   0  0  0  0  0  0  0  0  0  0  0  0
  146.0990  155.7960  135.2010 O   0  0  0  0  0  0  0  0  0  0  0  0
  146.8600  154.6260  135.3150 C   0  0  0  0  0  0  0  0  0  0  0  0
  146.5420  153.7280  136.1420 O   0  0  0  0  0  0  0  0  0  0  0  0
  147.9840  154.4820  134.4910 O   0  0  0  0  0  0  0  0  0  0  0  0
  148.1470  153.5240  133.4340 C   0  0  0  0  0  0  0  0  0  0  0  0
  149.0160  152.3400  133.9010 C   0  0  0  0  0  0  0  0  0  0  0  0
  148.8650  154.2400  132.2790 C   0  0  0  0  0  0  0  0  0  0  0  0
  146.7760  153.0280  132.9350 C   0  0  0  0  0  0  0  0  0  0  0  0
  144.3110  158.4550  133.9950 C   0  0  0  0  0  0  0  0  0  0  0  0
  143.0310  157.9540  134.2590 C   0  0  0  0  0  0  0  0  0  0  0  0
  139.8371  156.3438  134.1045 H   0  0  0  0  0  0  0  0  0  0  0  0
  139.3303  157.6049  132.9301 H   0  0  0  0  0  0  0  0  0  0  0  0
  141.0239  157.0063  132.9301 H   0  0  0  0  0  0  0  0  0  0  0  0
  139.8466  159.1821  134.4506 H   0  0  0  0  0  0  0  0  0  0  0  0
  139.3819  157.4415  136.1601 H   0  0  0  0  0  0  0  0  0  0  0  0
  141.1490  157.0303  136.1683 H   0  0  0  0  0  0  0  0  0  0  0  0
  139.8577  159.6068  137.2916 H   0  0  0  0  0  0  0  0  0  0  0  0
  141.3280  160.9401  134.0501 H   0  0  0  0  0  0  0  0  0  0  0  0
  143.6455  161.7722  133.5381 H   0  0  0  0  0  0  0  0  0  0  0  0
  146.3466  160.9109  133.1886 H   0  0  0  0  0  0  0  0  0  0  0  0
  149.4920  157.1050  133.7860 H   0  0  0  0  0  0  0  0  0  0  0  0
  147.9490  156.6420  134.5760 H   0  0  0  0  0  0  0  0  0  0  0  0
  149.0368  152.3116  135.0004 H   0  0  0  0  0  0  0  0  0  0  0  0
  148.5917  151.4002  133.5179 H   0  0  0  0  0  0  0  0  0  0  0  0
  150.0398  152.4630  133.5179 H   0  0  0  0  0  0  0  0  0  0  0  0
  149.5882  154.9611  132.6877 H   0  0  0  0  0  0  0  0  0  0  0  0
  149.3946  153.4997  131.6614 H   0  0  0  0  0  0  0  0  0  0  0  0
  148.1262  154.7716  131.6614 H   0  0  0  0  0  0  0  0  0  0  0  0
  146.1340  152.7957  133.7975 H   0  0  0  0  0  0  0  0  0  0  0  0
  146.3021  153.8117  132.3257 H   0  0  0  0  0  0  0  0  0  0  0  0
  146.9132  152.1225  132.3257 H   0  0  0  0  0  0  0  0  0  0  0  0
  142.8746  156.8805  134.4409 H   0  0  0  0  0  0  0  0  0  0  0  0
  1  2  1  0
  2  3  1  0
  3  4  1  0
  4  5  2  0
  2  6  1  0
  6  7  2  0
  7  8  1  0
  8  9  2  0
  9 10  1  0
 10 11  2  0
 11 12  1  0
 12 13  1  0
 12 14  2  0
 11 15  1  0
 15 16  1  0
 16 17  2  0
 16 18  1  0
 18 19  1  0
 19 20  2  0
 19 21  1  0
 21 22  1  0
 22 23  1  0
 22 24  1  0
 22 25  1  0
 15 26  1  0
 26 27  2  0
 27  6  1  0
 26  9  1  0
  1 28  1  0
  1 29  1  0
  1 30  1  0
  2 31  1  1
  3 32  1  0
  3 33  1  0
  4 34  1  0
  7 35  1  0
  8 36  1  0
 10 37  1  0
 13 38  1  0
 13 39  1  0
 23 40  1  0
 23 41  1  0
 23 42  1  0
 24 43  1  0
 24 44  1  0
 24 45  1  0
 25 46  1  0
 25 47  1  0
 25 48  1  0
 27 49  1  0
M  END
>  <UniqueID>  (37) 
37

>  <SMILES>  (37) 
C[C@@H](CC=O)c1ccc2cc(C(N)=O)n(C(=O)OC(=O)OC(C)(C)C)c2c1

>  <Energy>  (37) 
80.24632793491136

>  <Genealogy>  (37) 
C[C@@H](CC=O)c1ccc2cc(C(N)=O)n(C(=O)OC(=O)OC(C)(C)C)c2c1 (chirality)
C[C@@H](CC=O)c1ccc2cc(C(N)=O)n(C(=O)OC(=O)OC(C)(C)C)c2c1 (3D coordinates assigned)
C[C@@H](CC=O)c1ccc2cc(C(N)=O)n(C(=O)OC(=O)OC(C)(C)C)c2c1 (optimized conformer: 80.24632793491136 kcal/mol)

>  <smiles>  (37) 
CC(CC=O)c1ccc2cc(C(N)=O)n(C(=O)OC(=O)OC(C)(C)C)c2c1

>  <score_type>  (37) 
oracle

>  <origin>  (37) 
adg

>  <m_score__min__energy>  (37) 
-7.7699999999999996

>  <m_primary>  (37) 
energy

$$$$
38:0
     RDKit          3D

 29 30  0  0  0  0  0  0  0  0999 V2000
  148.8890  160.7940  131.1050 C   0  0  0  0  0  0  0  0  0  0  0  0
  149.2340  159.0130  131.2100 S   0  0  0  0  0  0  0  0  0  0  0  0
  148.6060  158.8500  132.8860 C   0  0  0  0  0  0  0  0  0  0  0  0
  149.2370  159.4070  133.8240 O   0  0  0  0  0  0  0  0  0  0  0  0
  147.4180  158.0880  133.1720 N   0  0  0  0  0  0  0  0  0  0  0  0
  146.1560  158.5730  133.3590 C   0  0  0  0  0  0  0  0  0  0  0  0
  145.7660  159.9970  133.3930 C   0  0  0  0  0  0  0  0  0  0  0  0
  146.7040  161.0190  133.7300 N   0  0  0  0  0  0  0  0  0  0  0  0
  144.5660  160.3130  133.1680 O   0  0  0  0  0  0  0  0  0  0  0  0
  145.2430  157.5340  133.5060 C   0  0  0  0  0  0  0  0  0  0  0  0
  145.9850  156.3820  133.4030 C   0  0  0  0  0  0  0  0  0  0  0  0
  145.5740  155.0530  133.4490 C   0  0  0  0  0  0  0  0  0  0  0  0
  146.5420  154.0560  133.2480 C   0  0  0  0  0  0  0  0  0  0  0  0
  147.8890  154.4000  132.9670 C   0  0  0  0  0  0  0  0  0  0  0  0
  148.9250  153.3220  132.7730 C   0  0  0  0  0  0  0  0  0  0  0  0
  149.1870  152.6730  133.9670 F   0  0  0  0  0  0  0  0  0  0  0  0
  148.4850  152.3820  131.8580 F   0  0  0  0  0  0  0  0  0  0  0  0
  150.0930  153.8940  132.3070 F   0  0  0  0  0  0  0  0  0  0  0  0
  148.2700  155.7630  132.9460 C   0  0  0  0  0  0  0  0  0  0  0  0
  147.2930  156.7390  133.1900 C   0  0  0  0  0  0  0  0  0  0  0  0
  148.8080  161.2122  132.1192 H   0  0  0  0  0  0  0  0  0  0  0  0
  149.7068  161.2948  130.5661 H   0  0  0  0  0  0  0  0  0  0  0  0
  147.9433  160.9532  130.5661 H   0  0  0  0  0  0  0  0  0  0  0  0
  146.4190  162.0220  133.6980 H   0  0  0  0  0  0  0  0  0  0  0  0
  147.6460  160.7800  134.1050 H   0  0  0  0  0  0  0  0  0  0  0  0
  144.1584  157.6168  133.6698 H   0  0  0  0  0  0  0  0  0  0  0  0
  144.5222  154.7916  133.6372 H   0  0  0  0  0  0  0  0  0  0  0  0
  146.2525  152.9965  133.3091 H   0  0  0  0  0  0  0  0  0  0  0  0
  149.3119  156.0510  132.7423 H   0  0  0  0  0  0  0  0  0  0  0  0
  1  2  1  0
  2  3  1  0
  3  4  2  0
  3  5  1  0
  5  6  1  0
  6  7  1  0
  7  8  1  0
  7  9  2  0
  6 10  2  0
 10 11  1  0
 11 12  2  0
 12 13  1  0
 13 14  2  0
 14 15  1  0
 15 16  1  0
 15 17  1  0
 15 18  1  0
 14 19  1  0
 19 20  2  0
 20  5  1  0
 20 11  1  0
  1 21  1  0
  1 22  1  0
  1 23  1  0
  8 24  1  0
  8 25  1  0
 10 26  1  0
 12 27  1  0
 13 28  1  0
 19 29  1  0
M  END
>  <UniqueID>  (38) 
38

>  <SMILES>  (38) 
CSC(=O)n1c(C(N)=O)cc2ccc(C(F)(F)F)cc21

>  <Energy>  (38) 
66.87896844073205

>  <Genealogy>  (38) 
CSC(=O)n1c(C(N)=O)cc2ccc(C(F)(F)F)cc21 (3D coordinates assigned)
CSC(=O)n1c(C(N)=O)cc2ccc(C(F)(F)F)cc21 (optimized conformer: 66.87896844073205 kcal/mol)

>  <smiles>  (38) 
CSC(=O)n1c(C(N)=O)cc2ccc(C(F)(F)F)cc21

>  <score_type>  (38) 
oracle

>  <origin>  (38) 
adg

>  <m_score__min__energy>  (38) 
-6.6299999999999999

>  <m_primary>  (38) 
energy

$$$$
39:0
     RDKit          3D

 58 60  0  0  0  0  0  0  0  0999 V2000
  141.3610  156.3650  136.8470 C   0  0  0  0  0  0  0  0  0  0  0  0
  142.2000  155.6970  135.7640 C   0  0  0  0  0  0  0  0  0  0  0  0
  141.4120  155.4600  134.6000 O   0  0  0  0  0  0  0  0  0  0  0  0
  141.3310  154.2130  133.9690 C   0  0  0  0  0  0  0  0  0  0  0  0
  140.5140  154.0220  133.0270 O   0  0  0  0  0  0  0  0  0  0  0  0
  142.2230  153.1270  134.4030 C   0  0  0  0  0  0  0  0  0  0  0  0
  142.2650  152.8100  135.6220 O   0  0  0  0  0  0  0  0  0  0  0  0
  143.0530  152.3670  133.4160 C   0  0  0  0  0  0  0  0  0  0  0  0
  144.4260  152.6920  133.6090 O   0  0  0  0  0  0  0  0  0  0  0  0
  145.3660  152.6480  132.5770 C   0  0  0  0  0  0  0  0  0  0  0  0
  145.1450  151.9700  131.5370 O   0  0  0  0  0  0  0  0  0  0  0  0
  146.6040  153.3570  132.7170 N   0  0  0  0  0  0  0  0  0  0  0  0
  147.8680  152.8510  132.6920 C   0  0  0  0  0  0  0  0  0  0  0  0
  148.2420  151.4570  132.3710 C   0  0  0  0  0  0  0  0  0  0  0  0
  147.2500  150.4450  132.2250 N   0  0  0  0  0  0  0  0  0  0  0  0
  149.4520  151.1620  132.1890 O   0  0  0  0  0  0  0  0  0  0  0  0
  148.8000  153.8630  132.9240 C   0  0  0  0  0  0  0  0  0  0  0  0
  148.0600  155.0110  133.0840 C   0  0  0  0  0  0  0  0  0  0  0  0
  148.4730  156.3140  133.3420 C   0  0  0  0  0  0  0  0  0  0  0  0
  147.4860  157.3040  133.4730 C   0  0  0  0  0  0  0  0  0  0  0  0
  146.1060  156.9850  133.3480 C   0  0  0  0  0  0  0  0  0  0  0  0
  145.0820  158.0550  133.4690 C   0  0  0  0  0  0  0  0  0  0  0  0
  145.3080  159.4350  133.4740 C   0  0  0  0  0  0  0  0  0  0  0  0
  144.1490  160.2000  133.6630 C   0  0  0  0  0  0  0  0  0  0  0  0
  142.9950  159.4330  133.7970 C   0  0  0  0  0  0  0  0  0  0  0  0
  141.6240  159.9290  134.0130 C   0  0  0  0  0  0  0  0  0  0  0  0
  141.2230  160.9320  133.3620 O   0  0  0  0  0  0  0  0  0  0  0  0
  140.6950  159.2820  135.0010 C   0  0  0  0  0  0  0  0  0  0  0  0
  139.8900  158.1870  134.3530 C   0  0  0  0  0  0  0  0  0  0  0  0
  139.1250  157.5190  135.0360 O   0  0  0  0  0  0  0  0  0  0  0  0
  140.0350  157.8840  132.8810 C   0  0  2  0  0  0  0  0  0  0  0  0
  138.9150  158.5620  132.0810 C   0  0  0  0  0  0  0  0  0  0  0  0
  140.0350  156.4340  132.6700 N   0  0  0  0  0  0  0  0  0  0  0  0
  143.4270  157.8110  133.6880 S   0  0  0  0  0  0  0  0  0  0  0  0
  145.7320  155.6430  133.0910 C   0  0  0  0  0  0  0  0  0  0  0  0
  146.7390  154.6810  132.9530 C   0  0  0  0  0  0  0  0  0  0  0  0
  141.7357  156.0667  137.8373 H   0  0  0  0  0  0  0  0  0  0  0  0
  141.4303  157.4578  136.7427 H   0  0  0  0  0  0  0  0  0  0  0  0
  140.3115  156.0526  136.7427 H   0  0  0  0  0  0  0  0  0  0  0  0
  143.0437  156.3528  135.5031 H   0  0  0  0  0  0  0  0  0  0  0  0
  142.5728  154.7346  136.1444 H   0  0  0  0  0  0  0  0  0  0  0  0
  142.9060  151.2872  133.5661 H   0  0  0  0  0  0  0  0  0  0  0  0
  142.7499  152.6367  132.3935 H   0  0  0  0  0  0  0  0  0  0  0  0
  146.5870  150.4550  131.4170 H   0  0  0  0  0  0  0  0  0  0  0  0
  149.8946  153.7637  132.9693 H   0  0  0  0  0  0  0  0  0  0  0  0
  149.5403  156.5613  133.4404 H   0  0  0  0  0  0  0  0  0  0  0  0
  147.7851  158.3430  133.6756 H   0  0  0  0  0  0  0  0  0  0  0  0
  146.3053  159.8799  133.3416 H   0  0  0  0  0  0  0  0  0  0  0  0
  144.1510  161.2993  133.7017 H   0  0  0  0  0  0  0  0  0  0  0  0
  141.2870  158.8538  135.8233 H   0  0  0  0  0  0  0  0  0  0  0  0
  140.0016  160.0469  135.3806 H   0  0  0  0  0  0  0  0  0  0  0  0
  140.9936  158.2867  132.5218 H   0  0  0  0  0  0  0  0  0  0  0  0
  138.1847  159.0040  132.7748 H   0  0  0  0  0  0  0  0  0  0  0  0
  139.3437  159.3523  131.4473 H   0  0  0  0  0  0  0  0  0  0  0  0
  138.4135  157.8157  131.4473 H   0  0  0  0  0  0  0  0  0  0  0  0
  139.6270  155.9750  133.5160 H   0  0  0  0  0  0  0  0  0  0  0  0
  141.0220  156.0950  132.5790 H   0  0  0  0  0  0  0  0  0  0  0  0
  144.6720  155.3629  133.0018 H   0  0  0  0  0  0  0  0  0  0  0  0
  1  2  1  0
  2  3  1  0
  3  4  1  0
  4  5  2  0
  4  6  1  0
  6  7  2  0
  6  8  1  0
  8  9  1  0
  9 10  1  0
 10 11  2  0
 10 12  1  0
 12 13  1  0
 13 14  1  0
 14 15  1  0
 14 16  2  0
 13 17  2  0
 17 18  1  0
 18 19  2  0
 19 20  1  0
 20 21  2  0
 21 22  1  0
 22 23  2  0
 23 24  1  0
 24 25  2  0
 25 26  1  0
 26 27  2  0
 26 28  1  0
 28 29  1  0
 29 30  2  0
 29 31  1  0
 31 32  1  0
 31 33  1  0
 25 34  1  0
 21 35  1  0
 35 36  2  0
 36 12  1  0
 36 18  1  0
 34 22  1  0
  1 37  1  0
  1 38  1  0
  1 39  1  0
  2 40  1  0
  2 41  1  0
  8 42  1  0
  8 43  1  0
 15 44  1  0
 17 45  1  0
 19 46  1  0
 20 47  1  0
 23 48  1  0
 24 49  1  0
 28 50  1  0
 28 51  1  0
 31 52  1  6
 32 53  1  0
 32 54  1  0
 32 55  1  0
 33 56  1  0
 33 57  1  0
 35 58  1  0
M  CHG  1  15  -1
M  END
>  <UniqueID>  (39) 
39

>  <SMILES>  (39) 
CCOC(=O)C(=O)COC(=O)n1c(C([NH-])=O)cc2ccc(-c3ccc(C(=O)CC(=O)[C@H](C)N)s3)cc21

>  <Energy>  (39) 
110.89988015569051

>  <Genealogy>  (39) 
CCOC(=O)C(=O)COC(=O)n1c(C([NH-])=O)cc2ccc(-c3ccc(C(=O)CC(=O)[C@H](C)N)s3)cc21 (protonated)
CCOC(=O)C(=O)COC(=O)n1c(C([NH-])=O)cc2ccc(-c3ccc(C(=O)CC(=O)[C@H](C)N)s3)cc21 (3D coordinates assigned)
CCOC(=O)C(=O)COC(=O)n1c(C([NH-])=O)cc2ccc(-c3ccc(C(=O)CC(=O)[C@H](C)N)s3)cc21 (optimized conformer: 110.89988015569051 kcal/mol)

>  <smiles>  (39) 
CCOC(=O)C(=O)COC(=O)n1c(C(N)=O)cc2ccc(-c3ccc(C(=O)CC(=O)[C@H](C)N)s3)cc21

>  <score_type>  (39) 
oracle

>  <origin>  (39) 
adg

>  <m_score__min__energy>  (39) 
-10.16

>  <m_primary>  (39) 
energy

$$$$
40:0
     RDKit          3D

 39 41  0  0  0  0  0  0  0  0999 V2000
  149.5440  162.3530  130.3310 C   0  0  0  0  0  0  0  0  0  0  0  0
  149.2620  160.9830  130.8720 C   0  0  0  0  0  0  0  0  0  0  0  0
  150.1930  159.9330  130.6670 C   0  0  0  0  0  0  0  0  0  0  0  0
  149.9620  158.6570  131.2090 C   0  0  0  0  0  0  0  0  0  0  0  0
  148.8000  158.4640  131.9520 C   0  0  0  0  0  0  0  0  0  0  0  0
  148.3460  157.3470  132.6150 C   0  0  0  0  0  0  0  0  0  0  0  0
  147.1460  157.7320  133.2110 C   0  0  0  0  0  0  0  0  0  0  0  0
  146.2900  156.8170  133.9970 C   0  0  0  0  0  0  0  0  0  0  0  0
  145.2150  156.1100  133.3850 N   0  0  0  0  0  0  0  0  0  0  0  0
  146.5290  156.6350  135.2200 O   0  0  0  0  0  0  0  0  0  0  0  0
  146.8700  159.0350  132.9250 N   0  0  0  0  0  0  0  0  0  0  0  0
  145.7750  159.8270  133.4090 C   0  0  0  0  0  0  0  0  0  0  0  0
  145.9890  161.0020  133.8100 O   0  0  0  0  0  0  0  0  0  0  0  0
  144.4090  159.2730  133.4460 C   0  0  0  0  0  0  0  0  0  0  0  0
  144.0780  158.3810  132.6180 O   0  0  0  0  0  0  0  0  0  0  0  0
  143.4610  159.7300  134.4230 N   0  0  0  0  0  0  0  0  0  0  0  0
  142.1000  159.1870  134.4760 C   0  0  2  0  0  0  0  0  0  0  0  0
  141.1610  159.9910  135.3750 C   0  0  0  0  0  0  0  0  0  0  0  0
  141.0520  158.7960  136.3180 C   0  0  1  0  0  0  0  0  0  0  0  0
  139.7610  158.2490  136.3310 O   0  0  0  0  0  0  0  0  0  0  0  0
  141.9900  157.9940  135.4240 C   0  0  0  0  0  0  0  0  0  0  0  0
  147.8920  159.4700  132.1570 C   0  0  0  0  0  0  0  0  0  0  0  0
  148.1030  160.7550  131.6460 C   0  0  0  0  0  0  0  0  0  0  0  0
  149.6884  163.0544  131.1660 H   0  0  0  0  0  0  0  0  0  0  0  0
  150.4549  162.3236  129.7151 H   0  0  0  0  0  0  0  0  0  0  0  0
  148.6955  162.6858  129.7151 H   0  0  0  0  0  0  0  0  0  0  0  0
  151.1037  160.1189  130.0788 H   0  0  0  0  0  0  0  0  0  0  0  0
  150.6770  157.8361  131.0512 H   0  0  0  0  0  0  0  0  0  0  0  0
  148.8279  156.3594  132.6643 H   0  0  0  0  0  0  0  0  0  0  0  0
  144.8760  156.3680  132.4310 H   0  0  0  0  0  0  0  0  0  0  0  0
  143.7370  160.5000  135.0730 H   0  0  0  0  0  0  0  0  0  0  0  0
  141.8788  159.0814  133.4037 H   0  0  0  0  0  0  0  0  0  0  0  0
  140.2122  160.2743  134.8959 H   0  0  0  0  0  0  0  0  0  0  0  0
  141.4611  160.9783  135.7560 H   0  0  0  0  0  0  0  0  0  0  0  0
  141.2619  158.9158  137.3911 H   0  0  0  0  0  0  0  0  0  0  0  0
  139.1960  158.8990  136.8250 H   0  0  0  0  0  0  0  0  0  0  0  0
  141.5290  157.1027  134.9735 H   0  0  0  0  0  0  0  0  0  0  0  0
  142.8946  157.5271  135.8407 H   0  0  0  0  0  0  0  0  0  0  0  0
  147.3857  161.5657  131.8417 H   0  0  0  0  0  0  0  0  0  0  0  0
  1  2  1  0
  2  3  2  0
  3  4  1  0
  4  5  2  0
  5  6  1  0
  6  7  2  0
  7  8  1  0
  8  9  1  0
  8 10  2  0
  7 11  1  0
 11 12  1  0
 12 13  2  0
 12 14  1  0
 14 15  2  0
 14 16  1  0
 16 17  1  0
 17 18  1  0
 18 19  1  0
 19 20  1  0
 19 21  1  0
 11 22  1  0
 22 23  2  0
 23  2  1  0
 22  5  1  0
 21 17  1  0
  1 24  1  0
  1 25  1  0
  1 26  1  0
  3 27  1  0
  4 28  1  0
  6 29  1  0
  9 30  1  0
 16 31  1  0
 17 32  1  6
 18 33  1  0
 18 34  1  0
 19 35  1  1
 20 36  1  0
 21 37  1  0
 21 38  1  0
 23 39  1  0
M  CHG  1   9  -1
M  END
>  <UniqueID>  (40) 
40

>  <SMILES>  (40) 
Cc1ccc2cc(C([NH-])=O)n(C(=O)C(=O)NC3CC(O)C3)c2c1

>  <Energy>  (40) 
137.45201416388664

>  <Genealogy>  (40) 
Cc1ccc2cc(C([NH-])=O)n(C(=O)C(=O)NC3CC(O)C3)c2c1 (protonated)
Cc1ccc2cc(C([NH-])=O)n(C(=O)C(=O)NC3CC(O)C3)c2c1 (3D coordinates assigned)
Cc1ccc2cc(C([NH-])=O)n(C(=O)C(=O)NC3CC(O)C3)c2c1 (nonaromatic ring conformer: 137.45201416388664 kcal/mol)

>  <smiles>  (40) 
Cc1ccc2cc(C(N)=O)n(C(=O)C(=O)NC3CC(O)C3)c2c1

>  <score_type>  (40) 
oracle

>  <origin>  (40) 
adg

>  <m_score__min__energy>  (40) 
-7.9800000000000004

>  <m_primary>  (40) 
energy

$$$$
41:0
     RDKit          3D

 44 45  0  0  0  0  0  0  0  0999 V2000
  148.0790  153.8070  140.0930 C   0  0  0  0  0  0  0  0  0  0  0  0
  149.0730  152.9630  139.4110 N   0  0  0  0  0  0  0  0  0  0  0  0
  150.3150  153.7330  139.2200 C   0  0  0  0  0  0  0  0  0  0  0  0
  148.5380  152.4900  138.1170 C   0  0  0  0  0  0  0  0  0  0  0  0
  147.1630  153.1080  137.8370 C   0  0  0  0  0  0  0  0  0  0  0  0
  147.0130  153.3920  136.4130 N   0  0  0  0  0  0  0  0  0  0  0  0
  147.5280  154.5720  135.7870 C   0  0  0  0  0  0  0  0  0  0  0  0
  148.3160  155.3320  136.4150 O   0  0  0  0  0  0  0  0  0  0  0  0
  147.1440  154.8930  134.4050 C   0  0  0  0  0  0  0  0  0  0  0  0
  147.5260  154.1480  133.4640 O   0  0  0  0  0  0  0  0  0  0  0  0
  146.3380  156.0470  134.1150 N   0  0  0  0  0  0  0  0  0  0  0  0
  145.0310  156.2470  134.4420 C   0  0  0  0  0  0  0  0  0  0  0  0
  144.1470  155.2420  135.0760 C   0  0  0  0  0  0  0  0  0  0  0  0
  144.4980  154.6380  136.3230 N   0  0  0  0  0  0  0  0  0  0  0  0
  143.0630  154.9170  134.5230 O   0  0  0  0  0  0  0  0  0  0  0  0
  144.6200  157.5190  134.0410 C   0  0  0  0  0  0  0  0  0  0  0  0
  145.7290  158.0970  133.4650 C   0  0  0  0  0  0  0  0  0  0  0  0
  145.8970  159.3670  132.9190 C   0  0  0  0  0  0  0  0  0  0  0  0
  147.1700  159.7110  132.4320 C   0  0  0  0  0  0  0  0  0  0  0  0
  148.2430  158.7870  132.4990 C   0  0  0  0  0  0  0  0  0  0  0  0
  149.6110  159.1840  132.0210 C   0  0  0  0  0  0  0  0  0  0  0  0
  149.5030  159.9820  130.7620 C   0  0  0  0  0  0  0  0  0  0  0  0
  149.3930  159.4030  129.6500 O   0  0  0  0  0  0  0  0  0  0  0  0
  149.5750  161.3690  130.8110 O   0  0  0  0  0  0  0  0  0  0  0  0
  148.0370  157.5120  133.0710 C   0  0  0  0  0  0  0  0  0  0  0  0
  146.7540  157.1900  133.5270 C   0  0  0  0  0  0  0  0  0  0  0  0
  148.1977  153.7062  141.1819 H   0  0  0  0  0  0  0  0  0  0  0  0
  148.2295  154.8575  139.8034 H   0  0  0  0  0  0  0  0  0  0  0  0
  147.0668  153.4882  139.8034 H   0  0  0  0  0  0  0  0  0  0  0  0
  150.7382  153.9954  140.2008 H   0  0  0  0  0  0  0  0  0  0  0  0
  151.0401  153.1258  138.6583 H   0  0  0  0  0  0  0  0  0  0  0  0
  150.0936  154.6525  138.6583 H   0  0  0  0  0  0  0  0  0  0  0  0
  149.2324  152.7765  137.3134 H   0  0  0  0  0  0  0  0  0  0  0  0
  148.4307  151.3961  138.1588 H   0  0  0  0  0  0  0  0  0  0  0  0
  146.3784  152.4037  138.1507 H   0  0  0  0  0  0  0  0  0  0  0  0
  147.0735  154.0489  138.3998 H   0  0  0  0  0  0  0  0  0  0  0  0
  143.8530  153.9510  136.7700 H   0  0  0  0  0  0  0  0  0  0  0  0
  145.4150  154.8280  136.7820 H   0  0  0  0  0  0  0  0  0  0  0  0
  143.6216  157.9652  134.1599 H   0  0  0  0  0  0  0  0  0  0  0  0
  145.0597  160.0788  132.8703 H   0  0  0  0  0  0  0  0  0  0  0  0
  147.3351  160.7068  131.9947 H   0  0  0  0  0  0  0  0  0  0  0  0
  150.1052  159.7900  132.7947 H   0  0  0  0  0  0  0  0  0  0  0  0
  150.2008  158.2768  131.8230 H   0  0  0  0  0  0  0  0  0  0  0  0
  148.8636  156.7911  133.1557 H   0  0  0  0  0  0  0  0  0  0  0  0
  1  2  1  0
  2  3  1  0
  2  4  1  0
  4  5  1  0
  5  6  1  0
  6  7  1  0
  7  8  2  0
  7  9  1  0
  9 10  2  0
  9 11  1  0
 11 12  1  0
 12 13  1  0
 13 14  1  0
 13 15  2  0
 12 16  2  0
 16 17  1  0
 17 18  2  0
 18 19  1  0
 19 20  2  0
 20 21  1  0
 21 22  1  0
 22 23  2  0
 22 24  1  0
 20 25  1  0
 25 26  2  0
 26 11  1  0
 26 17  1  0
  1 27  1  0
  1 28  1  0
  1 29  1  0
  3 30  1  0
  3 31  1  0
  3 32  1  0
  4 33  1  0
  4 34  1  0
  5 35  1  0
  5 36  1  0
 14 37  1  0
 14 38  1  0
 16 39  1  0
 18 40  1  0
 19 41  1  0
 21 42  1  0
 21 43  1  0
 25 44  1  0
M  CHG  2   6  -1  24  -1
M  END
>  <UniqueID>  (41) 
41

>  <SMILES>  (41) 
CN(C)CC[N-]C(=O)C(=O)n1c(C(N)=O)cc2ccc(CC(=O)[O-])cc21

>  <Energy>  (41) 
77.47150712658978

>  <Genealogy>  (41) 
CN(C)CC[N-]C(=O)C(=O)n1c(C(N)=O)cc2ccc(CC(=O)[O-])cc21 (protonated)
CN(C)CC[N-]C(=O)C(=O)n1c(C(N)=O)cc2ccc(CC(=O)[O-])cc21 (3D coordinates assigned)
CN(C)CC[N-]C(=O)C(=O)n1c(C(N)=O)cc2ccc(CC(=O)[O-])cc21 (optimized conformer: 77.47150712658978 kcal/mol)

>  <smiles>  (41) 
CN(C)CCNC(=O)C(=O)n1c(C(N)=O)cc2ccc(CC(=O)O)cc21

>  <score_type>  (41) 
oracle

>  <origin>  (41) 
adg

>  <m_score__min__energy>  (41) 
-7.3499999999999996

>  <m_primary>  (41) 
energy

$$$$
42:0
     RDKit          3D

 37 38  0  0  0  0  0  0  0  0999 V2000
  140.4360  155.8190  133.4120 C   0  0  0  0  0  0  0  0  0  0  0  0
  140.2470  157.2690  133.2780 N   0  0  0  0  0  0  0  0  0  0  0  0
  138.9240  157.8600  133.4950 C   0  0  0  0  0  0  0  0  0  0  0  0
  141.3500  158.1320  132.9280 C   0  0  0  0  0  0  0  0  0  0  0  0
  141.1300  159.3380  132.6310 O   0  0  0  0  0  0  0  0  0  0  0  0
  142.7790  157.6610  132.9780 C   0  0  0  0  0  0  0  0  0  0  0  0
  143.5520  158.4580  133.9860 C   0  0  0  0  0  0  0  0  0  0  0  0
  143.0630  158.6770  135.1260 O   0  0  0  0  0  0  0  0  0  0  0  0
  144.8310  159.0090  133.6450 N   0  0  0  0  0  0  0  0  0  0  0  0
  145.1970  160.3190  133.6220 C   0  0  0  0  0  0  0  0  0  0  0  0
  144.2870  161.4670  133.8130 C   0  0  0  0  0  0  0  0  0  0  0  0
  142.8780  161.2850  133.6940 N   0  0  0  0  0  0  0  0  0  0  0  0
  144.7410  162.6050  134.1030 O   0  0  0  0  0  0  0  0  0  0  0  0
  146.5600  160.4380  133.3570 C   0  0  0  0  0  0  0  0  0  0  0  0
  147.0190  159.1450  133.2210 C   0  0  0  0  0  0  0  0  0  0  0  0
  148.3040  158.6660  132.9890 C   0  0  0  0  0  0  0  0  0  0  0  0
  148.4890  157.2730  132.9400 C   0  0  0  0  0  0  0  0  0  0  0  0
  147.3920  156.3870  133.1050 C   0  0  0  0  0  0  0  0  0  0  0  0
  147.6140  154.8970  133.1160 C   0  0  0  0  0  0  0  0  0  0  0  0
  148.7070  154.5620  132.3350 F   0  0  0  0  0  0  0  0  0  0  0  0
  147.8420  154.4800  134.4130 F   0  0  0  0  0  0  0  0  0  0  0  0
  146.5070  154.2330  132.6160 F   0  0  0  0  0  0  0  0  0  0  0  0
  146.1040  156.9160  133.3560 C   0  0  0  0  0  0  0  0  0  0  0  0
  145.9520  158.3050  133.3970 C   0  0  0  0  0  0  0  0  0  0  0  0
  140.4710  155.5508  134.4782 H   0  0  0  0  0  0  0  0  0  0  0  0
  139.5987  155.2939  132.9291 H   0  0  0  0  0  0  0  0  0  0  0  0
  141.3799  155.5261  132.9291 H   0  0  0  0  0  0  0  0  0  0  0  0
  138.7332  157.9453  134.5750 H   0  0  0  0  0  0  0  0  0  0  0  0
  138.8891  158.8593  133.0365 H   0  0  0  0  0  0  0  0  0  0  0  0
  138.1565  157.2192  133.0365 H   0  0  0  0  0  0  0  0  0  0  0  0
  142.8016  156.5981  133.2605 H   0  0  0  0  0  0  0  0  0  0  0  0
  143.2363  157.7959  131.9867 H   0  0  0  0  0  0  0  0  0  0  0  0
  142.4230  160.3960  133.9990 H   0  0  0  0  0  0  0  0  0  0  0  0
  147.1450  161.3658  133.2740 H   0  0  0  0  0  0  0  0  0  0  0  0
  149.1494  159.3556  132.8482 H   0  0  0  0  0  0  0  0  0  0  0  0
  149.4964  156.8645  132.7717 H   0  0  0  0  0  0  0  0  0  0  0  0
  145.2429  156.2503  133.5151 H   0  0  0  0  0  0  0  0  0  0  0  0
  1  2  1  0
  2  3  1  0
  2  4  1  0
  4  5  2  0
  4  6  1  0
  6  7  1  0
  7  8  2  0
  7  9  1  0
  9 10  1  0
 10 11  1  0
 11 12  1  0
 11 13  2  0
 10 14  2  0
 14 15  1  0
 15 16  2  0
 16 17  1  0
 17 18  2  0
 18 19  1  0
 19 20  1  0
 19 21  1  0
 19 22  1  0
 18 23  1  0
 23 24  2  0
 24  9  1  0
 24 15  1  0
  1 25  1  0
  1 26  1  0
  1 27  1  0
  3 28  1  0
  3 29  1  0
  3 30  1  0
  6 31  1  0
  6 32  1  0
 12 33  1  0
 14 34  1  0
 16 35  1  0
 17 36  1  0
 23 37  1  0
M  CHG  1  12  -1
M  END
>  <UniqueID>  (42) 
42

>  <SMILES>  (42) 
CN(C)C(=O)CC(=O)n1c(C([NH-])=O)cc2ccc(C(F)(F)F)cc21

>  <Energy>  (42) 
71.91869257450881

>  <Genealogy>  (42) 
CN(C)C(=O)CC(=O)n1c(C([NH-])=O)cc2ccc(C(F)(F)F)cc21 (protonated)
CN(C)C(=O)CC(=O)n1c(C([NH-])=O)cc2ccc(C(F)(F)F)cc21 (3D coordinates assigned)
CN(C)C(=O)CC(=O)n1c(C([NH-])=O)cc2ccc(C(F)(F)F)cc21 (optimized conformer: 71.91869257450881 kcal/mol)

>  <smiles>  (42) 
CN(C)C(=O)CC(=O)n1c(C(N)=O)cc2ccc(C(F)(F)F)cc21

>  <score_type>  (42) 
oracle

>  <origin>  (42) 
adg

>  <m_score__min__energy>  (42) 
-6.54

>  <m_primary>  (42) 
energy

$$$$
43:0
     RDKit          3D

 59 60  0  0  0  0  0  0  0  0999 V2000
  147.5760  154.3630  136.0280 C   0  0  0  0  0  0  0  0  0  0  0  0
  147.0220  154.7800  134.7360 N   0  0  0  0  0  0  0  0  0  0  0  0
  147.1020  153.8820  133.5720 C   0  0  0  0  0  0  0  0  0  0  0  0
  145.8720  153.9870  132.6310 C   0  0  0  0  0  0  0  0  0  0  0  0
  144.5500  153.6420  133.2190 N   0  0  2  0  0  0  0  0  0  0  0  0
  144.2900  152.1930  133.2410 C   0  0  0  0  0  0  0  0  0  0  0  0
  143.4630  154.3720  132.6120 C   0  0  0  0  0  0  0  0  0  0  0  0
  143.6250  155.5670  132.2350 O   0  0  0  0  0  0  0  0  0  0  0  0
  142.2210  153.7530  132.4350 O   0  0  0  0  0  0  0  0  0  0  0  0
  141.0770  154.1290  133.1480 C   0  0  0  0  0  0  0  0  0  0  0  0
  139.9880  153.5370  132.9350 O   0  0  0  0  0  0  0  0  0  0  0  0
  141.1540  155.1330  134.1720 N   0  0  0  0  0  0  0  0  0  0  0  0
  141.8330  155.0520  135.3510 C   0  0  0  0  0  0  0  0  0  0  0  0
  142.5430  153.8590  135.8540 C   0  0  0  0  0  0  0  0  0  0  0  0
  143.9730  153.8110  135.8260 N   0  0  0  0  0  0  0  0  0  0  0  0
  141.9010  152.8670  136.2860 O   0  0  0  0  0  0  0  0  0  0  0  0
  141.8250  156.2830  136.0010 C   0  0  0  0  0  0  0  0  0  0  0  0
  141.1350  157.1310  135.1610 C   0  0  0  0  0  0  0  0  0  0  0  0
  140.9110  158.5000  135.2620 C   0  0  0  0  0  0  0  0  0  0  0  0
  140.2700  159.1450  134.1900 C   0  0  0  0  0  0  0  0  0  0  0  0
  139.8800  158.4200  133.0350 C   0  0  0  0  0  0  0  0  0  0  0  0
  139.1930  159.1340  131.9020 C   0  0  0  0  0  0  0  0  0  0  0  0
  139.9130  158.9820  130.7300 F   0  0  0  0  0  0  0  0  0  0  0  0
  139.1000  160.4810  132.2030 F   0  0  0  0  0  0  0  0  0  0  0  0
  137.9200  158.6300  131.6910 F   0  0  0  0  0  0  0  0  0  0  0  0
  140.1080  157.0230  132.9790 C   0  0  0  0  0  0  0  0  0  0  0  0
  140.7450  156.4110  134.0620 C   0  0  0  0  0  0  0  0  0  0  0  0
  146.3180  156.0330  134.6630 C   0  0  0  0  0  0  0  0  0  0  0  0
  145.0590  156.0500  134.6250 O   0  0  0  0  0  0  0  0  0  0  0  0
  147.0450  157.2330  134.6210 O   0  0  0  0  0  0  0  0  0  0  0  0
  147.3560  157.9880  133.4420 C   0  0  0  0  0  0  0  0  0  0  0  0
  146.0900  158.7640  133.0550 C   0  0  0  0  0  0  0  0  0  0  0  0
  147.7450  157.0570  132.2790 C   0  0  0  0  0  0  0  0  0  0  0  0
  148.4910  158.9880  133.7310 C   0  0  0  0  0  0  0  0  0  0  0  0
  146.9844  154.8083  136.8415 H   0  0  0  0  0  0  0  0  0  0  0  0
  147.5395  153.2664  136.1059 H   0  0  0  0  0  0  0  0  0  0  0  0
  148.6197  154.7015  136.1059 H   0  0  0  0  0  0  0  0  0  0  0  0
  148.0046  154.1355  132.9967 H   0  0  0  0  0  0  0  0  0  0  0  0
  147.1317  152.8517  133.9563 H   0  0  0  0  0  0  0  0  0  0  0  0
  145.8158  155.0247  132.2703 H   0  0  0  0  0  0  0  0  0  0  0  0
  146.0439  153.2364  131.8455 H   0  0  0  0  0  0  0  0  0  0  0  0
  144.5890  153.9450  134.2230 H   0  0  0  0  0  0  0  0  0  0  0  0
  144.2280  151.8474  134.2835 H   0  0  0  0  0  0  0  0  0  0  0  0
  143.3398  151.9831  132.7280 H   0  0  0  0  0  0  0  0  0  0  0  0
  145.1079  151.6659  132.7280 H   0  0  0  0  0  0  0  0  0  0  0  0
  144.5230  154.5690  135.3620 H   0  0  0  0  0  0  0  0  0  0  0  0
  142.2730  156.5268  136.9756 H   0  0  0  0  0  0  0  0  0  0  0  0
  141.2260  159.0612  136.1541 H   0  0  0  0  0  0  0  0  0  0  0  0
  140.0685  160.2249  134.2476 H   0  0  0  0  0  0  0  0  0  0  0  0
  139.7916  156.4347  132.1051 H   0  0  0  0  0  0  0  0  0  0  0  0
  145.5645  159.0861  133.9661 H   0  0  0  0  0  0  0  0  0  0  0  0
  146.3683  159.6468  132.4607 H   0  0  0  0  0  0  0  0  0  0  0  0
  145.4296  158.1153  132.4607 H   0  0  0  0  0  0  0  0  0  0  0  0
  148.1396  156.1125  132.6817 H   0  0  0  0  0  0  0  0  0  0  0  0
  146.8579  156.8504  131.6622 H   0  0  0  0  0  0  0  0  0  0  0  0
  148.5153  157.5430  131.6622 H   0  0  0  0  0  0  0  0  0  0  0  0
  148.6152  159.0974  134.8185 H   0  0  0  0  0  0  0  0  0  0  0  0
  149.4280  158.6165  133.2905 H   0  0  0  0  0  0  0  0  0  0  0  0
  148.2405  159.9643  133.2905 H   0  0  0  0  0  0  0  0  0  0  0  0
  1  2  1  0
  2  3  1  0
  3  4  1  0
  4  5  1  0
  5  6  1  0
  5  7  1  0
  7  8  2  0
  7  9  1  0
  9 10  1  0
 10 11  2  0
 10 12  1  0
 12 13  1  0
 13 14  1  0
 14 15  1  0
 14 16  2  0
 13 17  2  0
 17 18  1  0
 18 19  2  0
 19 20  1  0
 20 21  2  0
 21 22  1  0
 22 23  1  0
 22 24  1  0
 22 25  1  0
 21 26  1  0
 26 27  2  0
  2 28  1  0
 28 29  2  0
 28 30  1  0
 30 31  1  0
 31 32  1  0
 31 33  1  0
 31 34  1  0
 27 12  1  0
 27 18  1  0
  1 35  1  0
  1 36  1  0
  1 37  1  0
  3 38  1  0
  3 39  1  0
  4 40  1  0
  4 41  1  0
  5 42  1  1
  6 43  1  0
  6 44  1  0
  6 45  1  0
 15 46  1  0
 17 47  1  0
 19 48  1  0
 20 49  1  0
 26 50  1  0
 32 51  1  0
 32 52  1  0
 32 53  1  0
 33 54  1  0
 33 55  1  0
 33 56  1  0
 34 57  1  0
 34 58  1  0
 34 59  1  0
M  CHG  2   5   1  15  -1
M  END
>  <UniqueID>  (43) 
43

>  <SMILES>  (43) 
CN(CC[N@H+](C)C(=O)OC(=O)n1c(C([NH-])=O)cc2ccc(C(F)(F)F)cc21)C(=O)OC(C)(C)C

>  <Energy>  (43) 
96.9905821048786

>  <Genealogy>  (43) 
CN(CC[NH+](C)C(=O)OC(=O)n1c(C([NH-])=O)cc2ccc(C(F)(F)F)cc21)C(=O)OC(C)(C)C (protonated)
CN(CC[N@H+](C)C(=O)OC(=O)n1c(C([NH-])=O)cc2ccc(C(F)(F)F)cc21)C(=O)OC(C)(C)C (chirality)
CN(CC[N@H+](C)C(=O)OC(=O)n1c(C([NH-])=O)cc2ccc(C(F)(F)F)cc21)C(=O)OC(C)(C)C (3D coordinates assigned)
CN(CC[N@H+](C)C(=O)OC(=O)n1c(C([NH-])=O)cc2ccc(C(F)(F)F)cc21)C(=O)OC(C)(C)C (optimized conformer: 96.9905821048786 kcal/mol)

>  <smiles>  (43) 
CN(CCN(C)C(=O)OC(C)(C)C)C(=O)OC(=O)n1c(C(N)=O)cc2ccc(C(F)(F)F)cc21

>  <score_type>  (43) 
oracle

>  <origin>  (43) 
adg

>  <m_score__min__energy>  (43) 
-7.0899999999999999

>  <m_primary>  (43) 
energy

$$$$
44:0
     RDKit          3D

 43 44  0  0  0  0  0  0  0  0999 V2000
  148.8630  161.8160  130.7200 C   0  0  0  0  0  0  0  0  0  0  0  0
  149.2220  160.3960  130.8040 N   0  0  0  0  0  0  0  0  0  0  0  0
  149.9700  159.7670  129.7090 C   0  0  0  0  0  0  0  0  0  0  0  0
  148.8540  159.6530  131.9900 C   0  0  0  0  0  0  0  0  0  0  0  0
  148.2840  160.2520  132.9430 O   0  0  0  0  0  0  0  0  0  0  0  0
  149.1250  158.1760  132.1440 C   0  0  0  0  0  0  0  0  0  0  0  0
  147.8540  157.3890  132.5060 C   0  0  0  0  0  0  0  0  0  0  0  0
  147.4450  157.5310  133.9810 C   0  0  0  0  0  0  0  0  0  0  0  0
  146.0780  157.0650  134.2180 N   0  0  0  0  0  0  0  0  0  0  0  0
  144.8870  157.8240  133.9270 C   0  0  0  0  0  0  0  0  0  0  0  0
  144.9270  159.2270  133.7050 C   0  0  0  0  0  0  0  0  0  0  0  0
  143.7520  159.9440  133.4240 C   0  0  0  0  0  0  0  0  0  0  0  0
  142.5540  159.2380  133.3690 C   0  0  0  0  0  0  0  0  0  0  0  0
  141.2750  159.6860  133.1370 C   0  0  0  0  0  0  0  0  0  0  0  0
  140.4680  158.5520  133.2060 C   0  0  0  0  0  0  0  0  0  0  0  0
  139.0160  158.5560  132.9240 C   0  0  0  0  0  0  0  0  0  0  0  0
  138.1840  157.4790  133.3580 N   0  0  0  0  0  0  0  0  0  0  0  0
  138.4910  159.5310  132.3230 O   0  0  0  0  0  0  0  0  0  0  0  0
  141.2200  157.4470  133.4750 N   0  0  0  0  0  0  0  0  0  0  0  0
  140.7540  156.1030  133.6870 C   0  0  0  0  0  0  0  0  0  0  0  0
  140.9930  155.5090  134.7720 O   0  0  0  0  0  0  0  0  0  0  0  0
  140.0200  155.4500  132.7050 O   0  0  0  0  0  0  0  0  0  0  0  0
  142.4950  157.8850  133.5720 C   0  0  0  0  0  0  0  0  0  0  0  0
  143.6480  157.1500  133.8750 C   0  0  0  0  0  0  0  0  0  0  0  0
  148.7587  162.2285  131.7344 H   0  0  0  0  0  0  0  0  0  0  0  0
  149.6513  162.3622  130.1813 H   0  0  0  0  0  0  0  0  0  0  0  0
  147.9098  161.9220  130.1813 H   0  0  0  0  0  0  0  0  0  0  0  0
  150.7491  159.1119  130.1260 H   0  0  0  0  0  0  0  0  0  0  0  0
  149.2827  159.1714  129.0902 H   0  0  0  0  0  0  0  0  0  0  0  0
  150.4388  160.5463  129.0902 H   0  0  0  0  0  0  0  0  0  0  0  0
  149.5243  157.7879  131.1954 H   0  0  0  0  0  0  0  0  0  0  0  0
  149.8475  158.0479  132.9635 H   0  0  0  0  0  0  0  0  0  0  0  0
  147.0276  157.7544  131.8787 H   0  0  0  0  0  0  0  0  0  0  0  0
  148.0711  156.3249  132.3311 H   0  0  0  0  0  0  0  0  0  0  0  0
  148.1347  156.9379  134.5995 H   0  0  0  0  0  0  0  0  0  0  0  0
  147.4910  158.5978  134.2453 H   0  0  0  0  0  0  0  0  0  0  0  0
  145.9650  156.1170  134.6410 H   0  0  0  0  0  0  0  0  0  0  0  0
  145.8892  159.7578  133.7537 H   0  0  0  0  0  0  0  0  0  0  0  0
  143.7781  161.0303  133.2527 H   0  0  0  0  0  0  0  0  0  0  0  0
  140.9564  160.7201  132.9389 H   0  0  0  0  0  0  0  0  0  0  0  0
  137.1550  157.5110  133.1890 H   0  0  0  0  0  0  0  0  0  0  0  0
  138.5890  156.6300  133.8120 H   0  0  0  0  0  0  0  0  0  0  0  0
  143.5891  156.0688  134.0686 H   0  0  0  0  0  0  0  0  0  0  0  0
  1  2  1  0
  2  3  1  0
  2  4  1  0
  4  5  2  0
  4  6  1  0
  6  7  1  0
  7  8  1  0
  8  9  1  0
  9 10  1  0
 10 11  2  0
 11 12  1  0
 12 13  2  0
 13 14  1  0
 14 15  2  0
 15 16  1  0
 16 17  1  0
 16 18  2  0
 15 19  1  0
 19 20  1  0
 20 21  2  0
 20 22  1  0
 19 23  1  0
 23 24  2  0
 24 10  1  0
 23 13  1  0
  1 25  1  0
  1 26  1  0
  1 27  1  0
  3 28  1  0
  3 29  1  0
  3 30  1  0
  6 31  1  0
  6 32  1  0
  7 33  1  0
  7 34  1  0
  8 35  1  0
  8 36  1  0
  9 37  1  0
 11 38  1  0
 12 39  1  0
 14 40  1  0
 17 41  1  0
 17 42  1  0
 24 43  1  0
M  CHG  1  22  -1
M  END
>  <UniqueID>  (44) 
44

>  <SMILES>  (44) 
CN(C)C(=O)CCCNc1ccc2cc(C(N)=O)n(C(=O)[O-])c2c1

>  <Energy>  (44) 
74.48758487078291

>  <Genealogy>  (44) 
CN(C)C(=O)CCCNc1ccc2cc(C(N)=O)n(C(=O)[O-])c2c1 (protonated)
CN(C)C(=O)CCCNc1ccc2cc(C(N)=O)n(C(=O)[O-])c2c1 (3D coordinates assigned)
CN(C)C(=O)CCCNc1ccc2cc(C(N)=O)n(C(=O)[O-])c2c1 (optimized conformer: 74.48758487078291 kcal/mol)

>  <smiles>  (44) 
CN(C)C(=O)CCCNc1ccc2cc(C(N)=O)n(C(=O)O)c2c1

>  <score_type>  (44) 
oracle

>  <origin>  (44) 
adg

>  <m_score__min__energy>  (44) 
-7.1699999999999999

>  <m_primary>  (44) 
energy

$$$$
45:0
     RDKit          3D

 31 32  0  0  0  0  0  0  0  0999 V2000
  147.9240  160.4890  130.9290 C   0  0  0  0  0  0  0  0  0  0  0  0
  148.7460  159.7410  131.8840 N   0  0  0  0  0  0  0  0  0  0  0  0
  149.9860  159.1500  131.4460 C   0  0  0  0  0  0  0  0  0  0  0  0
  150.7340  159.7630  130.6370 O   0  0  0  0  0  0  0  0  0  0  0  0
  150.3660  157.8880  131.8870 O   0  0  0  0  0  0  0  0  0  0  0  0
  148.2210  159.4550  133.1950 C   0  0  0  0  0  0  0  0  0  0  0  0
  148.8350  159.8620  134.2190 O   0  0  0  0  0  0  0  0  0  0  0  0
  147.0300  158.6670  133.3550 N   0  0  0  0  0  0  0  0  0  0  0  0
  145.7740  159.1050  133.6560 C   0  0  0  0  0  0  0  0  0  0  0  0
  145.3430  160.5160  133.7340 C   0  0  0  0  0  0  0  0  0  0  0  0
  146.2600  161.5460  134.0960 N   0  0  0  0  0  0  0  0  0  0  0  0
  144.1570  160.8230  133.4400 O   0  0  0  0  0  0  0  0  0  0  0  0
  144.9090  158.0230  133.8200 C   0  0  0  0  0  0  0  0  0  0  0  0
  145.6800  156.9030  133.6070 C   0  0  0  0  0  0  0  0  0  0  0  0
  145.3350  155.5550  133.6560 C   0  0  0  0  0  0  0  0  0  0  0  0
  146.3470  154.6090  133.4200 C   0  0  0  0  0  0  0  0  0  0  0  0
  147.6750  155.0220  133.1490 C   0  0  0  0  0  0  0  0  0  0  0  0
  148.7440  153.9940  132.9130 C   0  0  0  0  0  0  0  0  0  0  0  0
  149.8090  154.5730  132.2460 F   0  0  0  0  0  0  0  0  0  0  0  0
  148.2350  152.9600  132.1500 F   0  0  0  0  0  0  0  0  0  0  0  0
  147.9870  156.4000  133.1120 C   0  0  0  0  0  0  0  0  0  0  0  0
  146.9560  157.3190  133.3320 C   0  0  0  0  0  0  0  0  0  0  0  0
  147.2184  161.1311  131.4766 H   0  0  0  0  0  0  0  0  0  0  0  0
  148.5727  161.1130  130.2967 H   0  0  0  0  0  0  0  0  0  0  0  0
  147.3638  159.7844  130.2967 H   0  0  0  0  0  0  0  0  0  0  0  0
  147.2510  161.3230  134.3360 H   0  0  0  0  0  0  0  0  0  0  0  0
  143.8377  158.0576  134.0672 H   0  0  0  0  0  0  0  0  0  0  0  0
  144.3034  155.2406  133.8725 H   0  0  0  0  0  0  0  0  0  0  0  0
  146.1055  153.5361  133.4459 H   0  0  0  0  0  0  0  0  0  0  0  0
  149.0869  153.6019  133.8818 H   0  0  0  0  0  0  0  0  0  0  0  0
  149.0142  156.7408  132.9152 H   0  0  0  0  0  0  0  0  0  0  0  0
  1  2  1  0
  2  3  1  0
  3  4  2  0
  3  5  1  0
  2  6  1  0
  6  7  2  0
  6  8  1  0
  8  9  1  0
  9 10  1  0
 10 11  1  0
 10 12  2  0
  9 13  2  0
 13 14  1  0
 14 15  2  0
 15 16  1  0
 16 17  2  0
 17 18  1  0
 18 19  1  0
 18 20  1  0
 17 21  1  0
 21 22  2  0
 22  8  1  0
 22 14  1  0
  1 23  1  0
  1 24  1  0
  1 25  1  0
 11 26  1  0
 13 27  1  0
 15 28  1  0
 16 29  1  0
 18 30  1  0
 21 31  1  0
M  CHG  2   5  -1  11  -1
M  END
>  <UniqueID>  (45) 
45

>  <SMILES>  (45) 
CN(C(=O)[O-])C(=O)n1c(C([NH-])=O)cc2ccc(C(F)F)cc21

>  <Energy>  (45) 
71.97048294173118

>  <Genealogy>  (45) 
CN(C(=O)[O-])C(=O)n1c(C([NH-])=O)cc2ccc(C(F)F)cc21 (protonated)
CN(C(=O)[O-])C(=O)n1c(C([NH-])=O)cc2ccc(C(F)F)cc21 (3D coordinates assigned)
CN(C(=O)[O-])C(=O)n1c(C([NH-])=O)cc2ccc(C(F)F)cc21 (optimized conformer: 71.97048294173118 kcal/mol)

>  <smiles>  (45) 
CN(C(=O)O)C(=O)n1c(C(N)=O)cc2ccc(C(F)F)cc21

>  <score_type>  (45) 
oracle

>  <origin>  (45) 
adg

>  <m_score__min__energy>  (45) 
-5.5499999999999998

>  <m_primary>  (45) 
energy

$$$$
46:0
     RDKit          3D

 41 43  0  0  0  0  0  0  0  0999 V2000
  140.8730  159.0430  135.5100 C   0  0  0  0  0  0  0  0  0  0  0  0
  141.4780  158.7200  134.2090 N   0  0  0  0  0  0  0  0  0  0  0  0
  142.8220  159.1710  133.9410 C   0  0  0  0  0  0  0  0  0  0  0  0
  143.1400  160.5540  134.0000 C   0  0  0  0  0  0  0  0  0  0  0  0
  144.4500  161.0020  133.7600 C   0  0  0  0  0  0  0  0  0  0  0  0
  145.4200  160.0510  133.4600 C   0  0  0  0  0  0  0  0  0  0  0  0
  146.7660  160.2030  133.2140 C   0  0  0  0  0  0  0  0  0  0  0  0
  147.2460  158.9150  132.9880 C   0  0  0  0  0  0  0  0  0  0  0  0
  148.6490  158.6200  132.6270 C   0  0  0  0  0  0  0  0  0  0  0  0
  148.9910  157.4730  131.8490 N   0  0  0  0  0  0  0  0  0  0  0  0
  149.5580  159.4190  132.9790 O   0  0  0  0  0  0  0  0  0  0  0  0
  146.2410  158.0030  133.1040 N   0  0  0  0  0  0  0  0  0  0  0  0
  146.3350  156.5700  133.0580 C   0  0  0  0  0  0  0  0  0  0  0  0
  146.7060  156.0020  131.9950 O   0  0  0  0  0  0  0  0  0  0  0  0
  145.9240  155.7350  134.2300 C   0  0  0  0  0  0  0  0  0  0  0  0
  147.3680  155.2540  135.1530 Cl  0  0  0  0  0  0  0  0  0  0  0  0
  145.1300  158.7140  133.3880 C   0  0  0  0  0  0  0  0  0  0  0  0
  143.8390  158.2370  133.6370 C   0  0  0  0  0  0  0  0  0  0  0  0
  140.6940  158.0680  133.1390 C   0  0  2  0  0  0  0  0  0  0  0  0
  140.2310  159.0630  132.0970 C   0  0  0  0  0  0  0  0  0  0  0  0
  138.7170  158.9490  132.1260 C   0  0  0  0  0  0  0  0  0  0  0  0
  138.3300  158.2950  133.3100 O   0  0  0  0  0  0  0  0  0  0  0  0
  139.4000  157.4550  133.6660 C   0  0  0  0  0  0  0  0  0  0  0  0
  141.5315  158.6914  136.3180 H   0  0  0  0  0  0  0  0  0  0  0  0
  140.7405  160.1319  135.5925 H   0  0  0  0  0  0  0  0  0  0  0  0
  139.8945  158.5473  135.5925 H   0  0  0  0  0  0  0  0  0  0  0  0
  142.3512  161.2833  134.2365 H   0  0  0  0  0  0  0  0  0  0  0  0
  144.7009  162.0719  133.8078 H   0  0  0  0  0  0  0  0  0  0  0  0
  147.3399  161.1413  133.1991 H   0  0  0  0  0  0  0  0  0  0  0  0
  148.2570  156.8940  131.3860 H   0  0  0  0  0  0  0  0  0  0  0  0
  149.9930  157.2540  131.6540 H   0  0  0  0  0  0  0  0  0  0  0  0
  145.2524  156.3177  134.8776 H   0  0  0  0  0  0  0  0  0  0  0  0
  145.4009  154.8355  133.8733 H   0  0  0  0  0  0  0  0  0  0  0  0
  143.6199  157.1598  133.5972 H   0  0  0  0  0  0  0  0  0  0  0  0
  141.3734  157.3088  132.7242 H   0  0  0  0  0  0  0  0  0  0  0  0
  140.5513  160.0819  132.3600 H   0  0  0  0  0  0  0  0  0  0  0  0
  140.6516  158.8592  131.1012 H   0  0  0  0  0  0  0  0  0  0  0  0
  138.2708  159.9540  132.0970 H   0  0  0  0  0  0  0  0  0  0  0  0
  138.3705  158.3751  131.2539 H   0  0  0  0  0  0  0  0  0  0  0  0
  139.4517  157.3641  134.7610 H   0  0  0  0  0  0  0  0  0  0  0  0
  139.2535  156.4546  133.2328 H   0  0  0  0  0  0  0  0  0  0  0  0
  1  2  1  0
  2  3  1  0
  3  4  2  0
  4  5  1  0
  5  6  2  0
  6  7  1  0
  7  8  2  0
  8  9  1  0
  9 10  1  0
  9 11  2  0
  8 12  1  0
 12 13  1  0
 13 14  2  0
 13 15  1  0
 15 16  1  0
 12 17  1  0
 17 18  2  0
  2 19  1  0
 19 20  1  0
 20 21  1  0
 21 22  1  0
 22 23  1  0
 18  3  1  0
 23 19  1  0
 17  6  1  0
  1 24  1  0
  1 25  1  0
  1 26  1  0
  4 27  1  0
  5 28  1  0
  7 29  1  0
 10 30  1  0
 10 31  1  0
 15 32  1  0
 15 33  1  0
 18 34  1  0
 19 35  1  6
 20 36  1  0
 20 37  1  0
 21 38  1  0
 21 39  1  0
 23 40  1  0
 23 41  1  0
M  END
>  <UniqueID>  (46) 
46

>  <SMILES>  (46) 
CN(c1ccc2cc(C(N)=O)n(C(=O)CCl)c2c1)[C@@H]1CCOC1

>  <Energy>  (46) 
85.82714859850671

>  <Genealogy>  (46) 
CN(c1ccc2cc(C(N)=O)n(C(=O)CCl)c2c1)[C@@H]1CCOC1 (chirality)
CN(c1ccc2cc(C(N)=O)n(C(=O)CCl)c2c1)[C@@H]1CCOC1 (3D coordinates assigned)
CN(c1ccc2cc(C(N)=O)n(C(=O)CCl)c2c1)[C@@H]1CCOC1 (nonaromatic ring conformer: 85.82714859850671 kcal/mol)

>  <smiles>  (46) 
CN(c1ccc2cc(C(N)=O)n(C(=O)CCl)c2c1)C1CCOC1

>  <score_type>  (46) 
oracle

>  <origin>  (46) 
adg

>  <m_score__min__energy>  (46) 
-7.4100000000000001

>  <m_primary>  (46) 
energy

$$$$
47:0
     RDKit          3D

 49 52  0  0  0  0  0  0  0  0999 V2000
  148.6200  158.8910  134.4570 N   0  0  0  0  0  0  0  0  0  0  0  0
  147.8660  159.5440  133.4370 C   0  0  0  0  0  0  0  0  0  0  0  0
  148.4720  160.1000  132.4830 O   0  0  0  0  0  0  0  0  0  0  0  0
  146.3940  159.6000  133.5330 C   0  0  0  0  0  0  0  0  0  0  0  0
  145.6770  160.7870  133.6710 C   0  0  0  0  0  0  0  0  0  0  0  0
  144.3510  160.4200  133.6390 C   0  0  0  0  0  0  0  0  0  0  0  0
  143.2040  161.1980  133.7580 C   0  0  0  0  0  0  0  0  0  0  0  0
  141.9600  160.5460  133.7290 C   0  0  0  0  0  0  0  0  0  0  0  0
  141.8870  159.1390  133.5770 C   0  0  0  0  0  0  0  0  0  0  0  0
  140.5540  158.4450  133.6100 C   0  0  0  0  0  0  0  0  0  0  0  0
  139.7770  158.8100  132.4300 N   0  0  0  0  0  0  0  0  0  0  0  0
  138.4440  158.9900  132.3830 C   0  0  0  0  0  0  0  0  0  0  0  0
  138.1060  159.4110  131.1100 C   0  0  0  0  0  0  0  0  0  0  0  0
  139.3050  159.4780  130.4240 C   0  0  0  0  0  0  0  0  0  0  0  0
  140.2990  159.1130  131.2540 N   0  0  0  0  0  0  0  0  0  0  0  0
  143.0720  158.3810  133.4720 C   0  0  0  0  0  0  0  0  0  0  0  0
  144.2980  159.0580  133.4890 C   0  0  0  0  0  0  0  0  0  0  0  0
  145.5440  158.5390  133.4250 N   0  0  0  0  0  0  0  0  0  0  0  0
  145.8840  157.1450  133.3530 C   0  0  0  0  0  0  0  0  0  0  0  0
  144.9760  156.2890  133.1770 O   0  0  0  0  0  0  0  0  0  0  0  0
  147.2220  156.7530  133.5030 O   0  0  0  0  0  0  0  0  0  0  0  0
  147.6930  155.8560  134.4710 C   0  0  0  0  0  0  0  0  0  0  0  0
  148.1270  156.2670  135.5820 O   0  0  0  0  0  0  0  0  0  0  0  0
  147.6700  154.4880  134.1820 O   0  0  0  0  0  0  0  0  0  0  0  0
  147.1330  153.9500  132.9750 C   0  0  0  0  0  0  0  0  0  0  0  0
  147.8800  152.7020  132.5770 C   0  0  0  0  0  0  0  0  0  0  0  0
  149.2870  152.7110  132.5400 C   0  0  0  0  0  0  0  0  0  0  0  0
  149.9770  153.8380  132.8480 F   0  0  0  0  0  0  0  0  0  0  0  0
  149.9890  151.5550  132.1880 C   0  0  0  0  0  0  0  0  0  0  0  0
  149.2990  150.3820  131.8720 C   0  0  0  0  0  0  0  0  0  0  0  0
  147.9030  150.3620  131.9090 C   0  0  0  0  0  0  0  0  0  0  0  0
  147.1910  151.5140  132.2590 C   0  0  0  0  0  0  0  0  0  0  0  0
  145.8360  151.4660  132.2910 F   0  0  0  0  0  0  0  0  0  0  0  0
  148.8880  157.8850  134.3640 H   0  0  0  0  0  0  0  0  0  0  0  0
  146.0847  161.8026  133.7820 H   0  0  0  0  0  0  0  0  0  0  0  0
  143.2691  162.2902  133.8713 H   0  0  0  0  0  0  0  0  0  0  0  0
  141.0345  161.1328  133.8251 H   0  0  0  0  0  0  0  0  0  0  0  0
  140.7095  157.3561  133.6223 H   0  0  0  0  0  0  0  0  0  0  0  0
  140.0073  158.7518  134.5139 H   0  0  0  0  0  0  0  0  0  0  0  0
  137.7430  158.8296  133.2154 H   0  0  0  0  0  0  0  0  0  0  0  0
  137.1014  159.6424  130.7262 H   0  0  0  0  0  0  0  0  0  0  0  0
  139.4260  159.7799  129.3732 H   0  0  0  0  0  0  0  0  0  0  0  0
  141.3180  159.0850  131.0230 H   0  0  0  0  0  0  0  0  0  0  0  0
  143.0342  157.2856  133.3791 H   0  0  0  0  0  0  0  0  0  0  0  0
  146.0720  153.7037  133.1286 H   0  0  0  0  0  0  0  0  0  0  0  0
  147.2358  154.6976  132.1747 H   0  0  0  0  0  0  0  0  0  0  0  0
  151.0885  151.5687  132.1597 H   0  0  0  0  0  0  0  0  0  0  0  0
  149.8551  149.4745  131.5941 H   0  0  0  0  0  0  0  0  0  0  0  0
  147.3615  149.4369  131.6620 H   0  0  0  0  0  0  0  0  0  0  0  0
  1  2  1  0
  2  3  2  0
  2  4  1  0
  4  5  2  0
  5  6  1  0
  6  7  2  0
  7  8  1  0
  8  9  2  0
  9 10  1  0
 10 11  1  0
 11 12  1  0
 12 13  2  0
 13 14  1  0
 14 15  2  0
  9 16  1  0
 16 17  2  0
 17 18  1  0
 18 19  1  0
 19 20  2  0
 19 21  1  0
 21 22  1  0
 22 23  2  0
 22 24  1  0
 24 25  1  0
 25 26  1  0
 26 27  2  0
 27 28  1  0
 27 29  1  0
 29 30  2  0
 30 31  1  0
 31 32  2  0
 32 33  1  0
 18  4  1  0
 32 26  1  0
 17  6  1  0
 15 11  1  0
  1 34  1  0
  5 35  1  0
  7 36  1  0
  8 37  1  0
 10 38  1  0
 10 39  1  0
 12 40  1  0
 13 41  1  0
 14 42  1  0
 15 43  1  0
 16 44  1  0
 25 45  1  0
 25 46  1  0
 29 47  1  0
 30 48  1  0
 31 49  1  0
M  CHG  2   1  -1  15   1
M  END
>  <UniqueID>  (47) 
47

>  <SMILES>  (47) 
[NH-]C(=O)c1cc2ccc(Cn3ccc[nH+]3)cc2n1C(=O)OC(=O)OCc1c(F)cccc1F

>  <Energy>  (47) 
120.74540471510416

>  <Genealogy>  (47) 
[NH-]C(=O)c1cc2ccc(Cn3ccc[nH+]3)cc2n1C(=O)OC(=O)OCc1c(F)cccc1F (protonated)
[NH-]C(=O)c1cc2ccc(Cn3ccc[nH+]3)cc2n1C(=O)OC(=O)OCc1c(F)cccc1F (3D coordinates assigned)
[NH-]C(=O)c1cc2ccc(Cn3ccc[nH+]3)cc2n1C(=O)OC(=O)OCc1c(F)cccc1F (optimized conformer: 120.74540471510416 kcal/mol)

>  <smiles>  (47) 
NC(=O)c1cc2ccc(Cn3cccn3)cc2n1C(=O)OC(=O)OCc1c(F)cccc1F

>  <score_type>  (47) 
oracle

>  <origin>  (47) 
adg

>  <m_score__min__energy>  (47) 
-8.8399999999999999

>  <m_primary>  (47) 
energy

$$$$
48:0
     RDKit          3D

 52 54  0  0  0  0  0  0  0  0999 V2000
  138.5360  158.3810  131.4210 C   0  0  0  0  0  0  0  0  0  0  0  0
  139.1310  159.5480  132.2270 C   0  0  0  0  0  0  0  0  0  0  0  0
  139.0400  160.8530  131.4190 C   0  0  0  0  0  0  0  0  0  0  0  0
  140.5880  159.2680  132.6980 C   0  0  2  0  0  0  0  0  0  0  0  0
  141.2430  158.2520  131.8650 N   0  0  0  0  0  0  0  0  0  0  0  0
  140.6070  158.8610  134.1490 C   0  0  0  0  0  0  0  0  0  0  0  0
  140.6210  159.7340  135.0590 O   0  0  0  0  0  0  0  0  0  0  0  0
  140.6550  157.5030  134.4660 O   0  0  0  0  0  0  0  0  0  0  0  0
  139.6930  156.5640  133.9980 C   0  0  0  0  0  0  0  0  0  0  0  0
  140.2930  155.7440  133.0030 O   0  0  0  0  0  0  0  0  0  0  0  0
  140.2120  154.3480  133.0290 C   0  0  0  0  0  0  0  0  0  0  0  0
  139.1070  153.7590  132.8700 O   0  0  0  0  0  0  0  0  0  0  0  0
  141.3980  153.5780  133.2430 N   0  0  0  0  0  0  0  0  0  0  0  0
  142.6090  154.0160  133.6790 C   0  0  0  0  0  0  0  0  0  0  0  0
  142.9090  155.3820  134.1640 C   0  0  0  0  0  0  0  0  0  0  0  0
  142.7170  156.5220  133.3230 N   0  0  0  0  0  0  0  0  0  0  0  0
  143.3210  155.5470  135.3430 O   0  0  0  0  0  0  0  0  0  0  0  0
  143.5580  153.0010  133.5770 C   0  0  0  0  0  0  0  0  0  0  0  0
  142.8770  151.9180  133.0570 C   0  0  0  0  0  0  0  0  0  0  0  0
  143.3390  150.6580  132.6850 C   0  0  0  0  0  0  0  0  0  0  0  0
  142.4270  149.7720  132.0810 C   0  0  0  0  0  0  0  0  0  0  0  0
  141.0780  150.1560  131.8510 C   0  0  0  0  0  0  0  0  0  0  0  0
  140.1370  149.2310  131.1690 C   0  0  0  0  0  0  0  0  0  0  0  0
  138.9150  149.6980  130.6520 C   0  0  0  0  0  0  0  0  0  0  0  0
  138.0710  148.8470  130.0040 N   0  0  0  0  0  0  0  0  0  0  0  0
  138.3670  147.5310  129.8450 C   0  0  0  0  0  0  0  0  0  0  0  0
  139.5610  147.0180  130.3500 C   0  0  0  0  0  0  0  0  0  0  0  0
  139.8580  145.7040  130.2000 F   0  0  0  0  0  0  0  0  0  0  0  0
  140.4500  147.8710  131.0100 C   0  0  0  0  0  0  0  0  0  0  0  0
  140.6500  151.4460  132.2510 C   0  0  0  0  0  0  0  0  0  0  0  0
  141.5760  152.2980  132.8630 C   0  0  0  0  0  0  0  0  0  0  0  0
  138.1473  157.6186  132.1121 H   0  0  0  0  0  0  0  0  0  0  0  0
  137.7174  158.7528  130.7872 H   0  0  0  0  0  0  0  0  0  0  0  0
  139.3177  157.9369  130.7872 H   0  0  0  0  0  0  0  0  0  0  0  0
  138.5307  159.6582  133.1422 H   0  0  0  0  0  0  0  0  0  0  0  0
  138.9804  161.7079  132.1087 H   0  0  0  0  0  0  0  0  0  0  0  0
  139.9332  160.9548  130.7851 H   0  0  0  0  0  0  0  0  0  0  0  0
  138.1413  160.8299  130.7851 H   0  0  0  0  0  0  0  0  0  0  0  0
  141.1580  160.2023  132.5872 H   0  0  0  0  0  0  0  0  0  0  0  0
  142.2770  158.4110  131.8970 H   0  0  0  0  0  0  0  0  0  0  0  0
  141.0980  157.3120  132.3110 H   0  0  0  0  0  0  0  0  0  0  0  0
  139.3512  155.9377  134.8352 H   0  0  0  0  0  0  0  0  0  0  0  0
  138.8308  157.0967  133.5705 H   0  0  0  0  0  0  0  0  0  0  0  0
  142.9640  157.4740  133.6730 H   0  0  0  0  0  0  0  0  0  0  0  0
  142.2480  156.4420  132.3950 H   0  0  0  0  0  0  0  0  0  0  0  0
  144.6219  153.0515  133.8518 H   0  0  0  0  0  0  0  0  0  0  0  0
  144.3848  150.3641  132.8579 H   0  0  0  0  0  0  0  0  0  0  0  0
  142.7632  148.7680  131.7827 H   0  0  0  0  0  0  0  0  0  0  0  0
  138.6392  150.7561  130.7715 H   0  0  0  0  0  0  0  0  0  0  0  0
  137.6642  146.8694  129.3174 H   0  0  0  0  0  0  0  0  0  0  0  0
  141.3973  147.4762  131.4059 H   0  0  0  0  0  0  0  0  0  0  0  0
  139.6123  151.7707  132.0841 H   0  0  0  0  0  0  0  0  0  0  0  0
  1  2  1  0
  2  3  1  0
  2  4  1  0
  4  5  1  0
  4  6  1  0
  6  7  2  0
  6  8  1  0
  8  9  1  0
  9 10  1  0
 10 11  1  0
 11 12  2  0
 11 13  1  0
 13 14  1  0
 14 15  1  0
 15 16  1  0
 15 17  2  0
 14 18  2  0
 18 19  1  0
 19 20  2  0
 20 21  1  0
 21 22  2  0
 22 23  1  0
 23 24  2  0
 24 25  1  0
 25 26  2  0
 26 27  1  0
 27 28  1  0
 27 29  2  0
 22 30  1  0
 30 31  2  0
 31 13  1  0
 31 19  1  0
 29 23  1  0
  1 32  1  0
  1 33  1  0
  1 34  1  0
  2 35  1  0
  3 36  1  0
  3 37  1  0
  3 38  1  0
  4 39  1  1
  5 40  1  0
  5 41  1  0
  9 42  1  0
  9 43  1  0
 16 44  1  0
 16 45  1  0
 18 46  1  0
 20 47  1  0
 21 48  1  0
 24 49  1  0
 26 50  1  0
 29 51  1  0
 30 52  1  0
M  END
>  <UniqueID>  (48) 
48

>  <SMILES>  (48) 
CC(C)[C@H](N)C(=O)OCOC(=O)n1c(C(N)=O)cc2ccc(-c3cncc(F)c3)cc21

>  <Energy>  (48) 
93.37234304439498

>  <Genealogy>  (48) 
CC(C)[C@H](N)C(=O)OCOC(=O)n1c(C(N)=O)cc2ccc(-c3cncc(F)c3)cc21 (chirality)
CC(C)[C@H](N)C(=O)OCOC(=O)n1c(C(N)=O)cc2ccc(-c3cncc(F)c3)cc21 (3D coordinates assigned)
CC(C)[C@H](N)C(=O)OCOC(=O)n1c(C(N)=O)cc2ccc(-c3cncc(F)c3)cc21 (optimized conformer: 93.37234304439498 kcal/mol)

>  <smiles>  (48) 
CC(C)C(N)C(=O)OCOC(=O)n1c(C(N)=O)cc2ccc(-c3cncc(F)c3)cc21

>  <score_type>  (48) 
oracle

>  <origin>  (48) 
adg

>  <m_score__min__energy>  (48) 
-9

>  <m_primary>  (48) 
energy

$$$$
49:0
     RDKit          3D

 41 42  0  0  0  0  0  0  0  0999 V2000
  147.6420  154.9600  133.0050 C   0  0  0  0  0  0  0  0  0  0  0  0
  147.3900  156.4370  133.0650 C   0  0  0  0  0  0  0  0  0  0  0  0
  148.4730  157.3460  132.9770 C   0  0  0  0  0  0  0  0  0  0  0  0
  148.2540  158.7310  133.0800 C   0  0  0  0  0  0  0  0  0  0  0  0
  146.9490  159.1730  133.2740 C   0  0  0  0  0  0  0  0  0  0  0  0
  146.4590  160.4480  133.4330 C   0  0  0  0  0  0  0  0  0  0  0  0
  145.0850  160.2990  133.6080 C   0  0  0  0  0  0  0  0  0  0  0  0
  144.1510  161.4380  133.7320 C   0  0  0  0  0  0  0  0  0  0  0  0
  142.7460  161.2170  133.6280 N   0  0  0  0  0  0  0  0  0  0  0  0
  144.5770  162.6000  133.9630 O   0  0  0  0  0  0  0  0  0  0  0  0
  144.7390  158.9810  133.5660 N   0  0  0  0  0  0  0  0  0  0  0  0
  143.4400  158.3970  133.7490 C   0  0  0  0  0  0  0  0  0  0  0  0
  142.6750  158.2440  132.7590 O   0  0  0  0  0  0  0  0  0  0  0  0
  143.0270  158.0360  135.0380 O   0  0  0  0  0  0  0  0  0  0  0  0
  141.7670  157.5180  135.3680 C   0  0  0  0  0  0  0  0  0  0  0  0
  141.6470  156.3800  135.8970 O   0  0  0  0  0  0  0  0  0  0  0  0
  140.5370  158.3460  135.0960 C   0  0  1  0  0  0  0  0  0  0  0  0
  140.9530  159.6760  134.6400 N   0  0  0  0  0  0  0  0  0  0  0  0
  139.6320  157.6550  134.0340 C   0  0  0  0  0  0  0  0  0  0  0  0
  139.1700  158.6500  132.9550 C   0  0  0  0  0  0  0  0  0  0  0  0
  140.3470  156.4740  133.3560 C   0  0  0  0  0  0  0  0  0  0  0  0
  145.8910  158.3040  133.3580 C   0  0  0  0  0  0  0  0  0  0  0  0
  146.0830  156.9200  133.2800 C   0  0  0  0  0  0  0  0  0  0  0  0
  147.7106  154.5580  134.0266 H   0  0  0  0  0  0  0  0  0  0  0  0
  146.8148  154.4682  132.4722 H   0  0  0  0  0  0  0  0  0  0  0  0
  148.5855  154.7704  132.4722 H   0  0  0  0  0  0  0  0  0  0  0  0
  149.4939  156.9650  132.8268 H   0  0  0  0  0  0  0  0  0  0  0  0
  149.0890  159.4436  133.0094 H   0  0  0  0  0  0  0  0  0  0  0  0
  147.0312  161.3874  133.4239 H   0  0  0  0  0  0  0  0  0  0  0  0
  142.3620  160.2540  133.5100 H   0  0  0  0  0  0  0  0  0  0  0  0
  139.9477  158.4437  136.0197 H   0  0  0  0  0  0  0  0  0  0  0  0
  141.2130  159.6200  133.6260 H   0  0  0  0  0  0  0  0  0  0  0  0
  141.8420  159.9330  135.1270 H   0  0  0  0  0  0  0  0  0  0  0  0
  138.7534  157.2750  134.5758 H   0  0  0  0  0  0  0  0  0  0  0  0
  138.7536  159.5467  133.4373 H   0  0  0  0  0  0  0  0  0  0  0  0
  140.0277  158.9355  132.3282 H   0  0  0  0  0  0  0  0  0  0  0  0
  138.3984  158.1790  132.3282 H   0  0  0  0  0  0  0  0  0  0  0  0
  140.7542  155.8014  134.1253 H   0  0  0  0  0  0  0  0  0  0  0  0
  139.6308  155.9228  132.7289 H   0  0  0  0  0  0  0  0  0  0  0  0
  141.1674  156.8531  132.7289 H   0  0  0  0  0  0  0  0  0  0  0  0
  145.2355  156.2264  133.3838 H   0  0  0  0  0  0  0  0  0  0  0  0
  1  2  1  0
  2  3  2  0
  3  4  1  0
  4  5  2  0
  5  6  1  0
  6  7  2  0
  7  8  1  0
  8  9  1  0
  8 10  2  0
  7 11  1  0
 11 12  1  0
 12 13  2  0
 12 14  1  0
 14 15  1  0
 15 16  2  0
 15 17  1  0
 17 18  1  0
 17 19  1  0
 19 20  1  0
 19 21  1  0
 11 22  1  0
 22 23  2  0
 23  2  1  0
 22  5  1  0
  1 24  1  0
  1 25  1  0
  1 26  1  0
  3 27  1  0
  4 28  1  0
  6 29  1  0
  9 30  1  0
 17 31  1  1
 18 32  1  0
 18 33  1  0
 19 34  1  0
 20 35  1  0
 20 36  1  0
 20 37  1  0
 21 38  1  0
 21 39  1  0
 21 40  1  0
 23 41  1  0
M  CHG  1   9  -1
M  END
>  <UniqueID>  (49) 
49

>  <SMILES>  (49) 
Cc1ccc2cc(C([NH-])=O)n(C(=O)OC(=O)[C@@H](N)C(C)C)c2c1

>  <Energy>  (49) 
74.1804488839023

>  <Genealogy>  (49) 
Cc1ccc2cc(C([NH-])=O)n(C(=O)OC(=O)C(N)C(C)C)c2c1 (protonated)
Cc1ccc2cc(C([NH-])=O)n(C(=O)OC(=O)[C@@H](N)C(C)C)c2c1 (chirality)
Cc1ccc2cc(C([NH-])=O)n(C(=O)OC(=O)[C@@H](N)C(C)C)c2c1 (3D coordinates assigned)
Cc1ccc2cc(C([NH-])=O)n(C(=O)OC(=O)[C@@H](N)C(C)C)c2c1 (optimized conformer: 74.1804488839023 kcal/mol)

>  <smiles>  (49) 
Cc1ccc2cc(C(N)=O)n(C(=O)OC(=O)C(N)C(C)C)c2c1

>  <score_type>  (49) 
oracle

>  <origin>  (49) 
adg

>  <m_score__min__energy>  (49) 
-6.9800000000000004

>  <m_primary>  (49) 
energy

$$$$
50:0
     RDKit          3D

 37 39  0  0  0  0  0  0  0  0999 V2000
  138.3160  157.2850  133.5010 N   0  0  0  0  0  0  0  0  0  0  0  0
  139.1630  157.9590  134.4320 C   0  0  0  0  0  0  0  0  0  0  0  0
  138.7210  158.2400  135.5780 O   0  0  0  0  0  0  0  0  0  0  0  0
  140.5680  158.2700  134.1010 C   0  0  0  0  0  0  0  0  0  0  0  0
  141.0980  159.5560  134.1510 C   0  0  0  0  0  0  0  0  0  0  0  0
  142.4310  159.4100  133.8440 C   0  0  0  0  0  0  0  0  0  0  0  0
  143.4310  160.3700  133.7360 C   0  0  0  0  0  0  0  0  0  0  0  0
  144.7180  159.9440  133.3660 C   0  0  0  0  0  0  0  0  0  0  0  0
  144.9810  158.5720  133.1030 C   0  0  0  0  0  0  0  0  0  0  0  0
  146.2900  158.1140  132.7120 N   0  0  0  0  0  0  0  0  0  0  0  0
  147.5340  158.5020  133.3810 C   0  0  0  0  0  0  0  0  0  0  0  0
  148.7350  158.0090  132.6170 C   0  0  0  0  0  0  0  0  0  0  0  0
  148.9980  156.7770  132.5970 O   0  0  0  0  0  0  0  0  0  0  0  0
  149.5540  158.9020  131.8550 N   0  0  0  0  0  0  0  0  0  0  0  0
  149.2220  160.3010  131.6200 C   0  0  0  0  0  0  0  0  0  0  0  0
  148.1050  160.4800  130.6100 C   0  0  0  0  0  0  0  0  0  0  0  0
  149.5450  160.7740  130.2150 C   0  0  0  0  0  0  0  0  0  0  0  0
  143.9350  157.6310  133.2220 C   0  0  0  0  0  0  0  0  0  0  0  0
  142.6670  158.0800  133.6120 C   0  0  0  0  0  0  0  0  0  0  0  0
  141.5290  157.3650  133.7640 N   0  0  0  0  0  0  0  0  0  0  0  0
  141.3470  155.9630  133.4940 C   0  0  0  0  0  0  0  0  0  0  0  0
  140.3020  155.5520  132.9260 O   0  0  0  0  0  0  0  0  0  0  0  0
  142.3240  155.0460  133.8630 O   0  0  0  0  0  0  0  0  0  0  0  0
  138.6970  156.8940  132.6110 H   0  0  0  0  0  0  0  0  0  0  0  0
  137.3150  157.1050  133.7380 H   0  0  0  0  0  0  0  0  0  0  0  0
  140.5651  160.4892  134.3857 H   0  0  0  0  0  0  0  0  0  0  0  0
  143.2209  161.4314  133.9343 H   0  0  0  0  0  0  0  0  0  0  0  0
  145.5307  160.6802  133.2789 H   0  0  0  0  0  0  0  0  0  0  0  0
  146.3700  157.4690  131.8930 H   0  0  0  0  0  0  0  0  0  0  0  0
  147.5777  159.5989  133.4509 H   0  0  0  0  0  0  0  0  0  0  0  0
  147.5476  158.0507  134.3841 H   0  0  0  0  0  0  0  0  0  0  0  0
  149.4313  160.6764  132.6325 H   0  0  0  0  0  0  0  0  0  0  0  0
  147.5900  159.5999  130.1974 H   0  0  0  0  0  0  0  0  0  0  0  0
  147.1607  161.0436  130.5856 H   0  0  0  0  0  0  0  0  0  0  0  0
  150.0715  160.1065  129.5170 H   0  0  0  0  0  0  0  0  0  0  0  0
  150.0739  161.6382  129.7867 H   0  0  0  0  0  0  0  0  0  0  0  0
  144.1126  156.5658  133.0124 H   0  0  0  0  0  0  0  0  0  0  0  0
  1  2  1  0
  2  3  2  0
  2  4  1  0
  4  5  2  0
  5  6  1  0
  6  7  2  0
  7  8  1  0
  8  9  2  0
  9 10  1  0
 10 11  1  0
 11 12  1  0
 12 13  2  0
 12 14  1  0
 14 15  1  0
 15 16  1  0
 16 17  1  0
  9 18  1  0
 18 19  2  0
 19 20  1  0
 20 21  1  0
 21 22  2  0
 21 23  1  0
 20  4  1  0
 19  6  1  0
 17 15  1  0
  1 24  1  0
  1 25  1  0
  5 26  1  0
  7 27  1  0
  8 28  1  0
 10 29  1  0
 11 30  1  0
 11 31  1  0
 15 32  1  0
 16 33  1  0
 16 34  1  0
 17 35  1  0
 17 36  1  0
 18 37  1  0
M  CHG  2  14  -1  23  -1
M  END
>  <UniqueID>  (50) 
50

>  <SMILES>  (50) 
NC(=O)c1cc2ccc(NCC(=O)[N-]C3CC3)cc2n1C(=O)[O-]

>  <Energy>  (50) 
340.2356806619568

>  <Genealogy>  (50) 
NC(=O)c1cc2ccc(NCC(=O)[N-]C3CC3)cc2n1C(=O)[O-] (protonated)
NC(=O)c1cc2ccc(NCC(=O)[N-]C3CC3)cc2n1C(=O)[O-] (3D coordinates assigned)
NC(=O)c1cc2ccc(NCC(=O)[N-]C3CC3)cc2n1C(=O)[O-] (nonaromatic ring conformer: 340.2356806619568 kcal/mol)

>  <smiles>  (50) 
NC(=O)c1cc2ccc(NCC(=O)NC3CC3)cc2n1C(=O)O

>  <score_type>  (50) 
oracle

>  <origin>  (50) 
adg

>  <m_score__min__energy>  (50) 
-7.1699999999999999

>  <m_primary>  (50) 
energy

$$$$
51:0
     RDKit          3D

 40 41  0  0  0  0  0  0  0  0999 V2000
  139.4770  149.4340  130.4650 C   0  0  0  0  0  0  0  0  0  0  0  0
  139.1310  149.8970  131.8700 C   0  0  0  0  0  0  0  0  0  0  0  0
  139.8400  151.0960  132.1630 O   0  0  0  0  0  0  0  0  0  0  0  0
  141.1670  151.1000  132.6030 C   0  0  0  0  0  0  0  0  0  0  0  0
  141.8400  150.0340  132.6290 O   0  0  0  0  0  0  0  0  0  0  0  0
  141.8070  152.3900  133.0110 C   0  0  0  0  0  0  0  0  0  0  0  0
  140.8500  153.4890  132.9080 N   0  0  0  0  0  0  0  0  0  0  0  0
  141.1200  154.7900  133.4530 C   0  0  0  0  0  0  0  0  0  0  0  0
  142.2620  155.0520  133.9220 O   0  0  0  0  0  0  0  0  0  0  0  0
  140.0750  155.8280  133.4730 C   0  0  0  0  0  0  0  0  0  0  0  0
  138.9390  155.5840  132.9840 O   0  0  0  0  0  0  0  0  0  0  0  0
  140.3340  157.1180  134.0490 N   0  0  0  0  0  0  0  0  0  0  0  0
  140.2110  158.3350  133.4490 C   0  0  0  0  0  0  0  0  0  0  0  0
  139.8780  158.5660  132.0280 C   0  0  0  0  0  0  0  0  0  0  0  0
  138.7340  157.9350  131.4550 N   0  0  0  0  0  0  0  0  0  0  0  0
  140.5800  159.3320  131.3160 O   0  0  0  0  0  0  0  0  0  0  0  0
  140.4960  159.3550  134.3550 C   0  0  0  0  0  0  0  0  0  0  0  0
  140.7950  158.7190  135.5390 C   0  0  0  0  0  0  0  0  0  0  0  0
  141.1320  159.2490  136.7810 C   0  0  0  0  0  0  0  0  0  0  0  0
  141.3580  158.3540  137.8400 C   0  0  0  0  0  0  0  0  0  0  0  0
  141.2390  156.9550  137.6420 C   0  0  0  0  0  0  0  0  0  0  0  0
  141.4630  156.0030  138.7820 C   0  0  0  0  0  0  0  0  0  0  0  0
  141.8560  156.7080  139.9050 F   0  0  0  0  0  0  0  0  0  0  0  0
  140.2960  155.3160  139.0570 F   0  0  0  0  0  0  0  0  0  0  0  0
  140.8860  156.4540  136.3690 C   0  0  0  0  0  0  0  0  0  0  0  0
  140.6860  157.3690  135.3280 C   0  0  0  0  0  0  0  0  0  0  0  0
  140.1347  148.5540  130.5205 H   0  0  0  0  0  0  0  0  0  0  0  0
  138.5540  149.1687  129.9286 H   0  0  0  0  0  0  0  0  0  0  0  0
  139.9929  150.2440  129.9286 H   0  0  0  0  0  0  0  0  0  0  0  0
  138.0493  150.0848  131.9381 H   0  0  0  0  0  0  0  0  0  0  0  0
  139.4143  149.1178  132.5928 H   0  0  0  0  0  0  0  0  0  0  0  0
  142.1548  152.3088  134.0514 H   0  0  0  0  0  0  0  0  0  0  0  0
  142.6568  152.5934  132.3428 H   0  0  0  0  0  0  0  0  0  0  0  0
  139.9290  153.3010  132.4530 H   0  0  0  0  0  0  0  0  0  0  0  0
  138.1080  157.3320  132.0320 H   0  0  0  0  0  0  0  0  0  0  0  0
  140.4845  160.4383  134.1645 H   0  0  0  0  0  0  0  0  0  0  0  0
  141.2188  160.3355  136.9289 H   0  0  0  0  0  0  0  0  0  0  0  0
  141.6300  158.7423  138.8326 H   0  0  0  0  0  0  0  0  0  0  0  0
  142.2494  155.2865  138.5026 H   0  0  0  0  0  0  0  0  0  0  0  0
  140.7712  155.3731  136.2000 H   0  0  0  0  0  0  0  0  0  0  0  0
  1  2  1  0
  2  3  1  0
  3  4  1  0
  4  5  2  0
  4  6  1  0
  6  7  1  0
  7  8  1  0
  8  9  2  0
  8 10  1  0
 10 11  2  0
 10 12  1  0
 12 13  1  0
 13 14  1  0
 14 15  1  0
 14 16  2  0
 13 17  2  0
 17 18  1  0
 18 19  2  0
 19 20  1  0
 20 21  2  0
 21 22  1  0
 22 23  1  0
 22 24  1  0
 21 25  1  0
 25 26  2  0
 26 12  1  0
 26 18  1  0
  1 27  1  0
  1 28  1  0
  1 29  1  0
  2 30  1  0
  2 31  1  0
  6 32  1  0
  6 33  1  0
  7 34  1  0
 15 35  1  0
 17 36  1  0
 19 37  1  0
 20 38  1  0
 22 39  1  0
 25 40  1  0
M  CHG  1  15  -1
M  END
>  <UniqueID>  (51) 
51

>  <SMILES>  (51) 
CCOC(=O)CNC(=O)C(=O)n1c(C([NH-])=O)cc2ccc(C(F)F)cc21

>  <Energy>  (51) 
68.83505120604967

>  <Genealogy>  (51) 
CCOC(=O)CNC(=O)C(=O)n1c(C([NH-])=O)cc2ccc(C(F)F)cc21 (protonated)
CCOC(=O)CNC(=O)C(=O)n1c(C([NH-])=O)cc2ccc(C(F)F)cc21 (3D coordinates assigned)
CCOC(=O)CNC(=O)C(=O)n1c(C([NH-])=O)cc2ccc(C(F)F)cc21 (optimized conformer: 68.83505120604967 kcal/mol)

>  <smiles>  (51) 
CCOC(=O)CNC(=O)C(=O)n1c(C(N)=O)cc2ccc(C(F)F)cc21

>  <score_type>  (51) 
oracle

>  <origin>  (51) 
adg

>  <m_score__min__energy>  (51) 
-6.2199999999999998

>  <m_primary>  (51) 
energy

$$$$
52:0
     RDKit          3D

 46 47  0  0  0  0  0  0  0  0999 V2000
  137.4170  160.0730  130.7270 C   0  0  0  0  0  0  0  0  0  0  0  0
  138.4780  159.1020  131.2540 C   0  0  0  0  0  0  0  0  0  0  0  0
  139.8290  159.3830  130.5990 C   0  0  0  0  0  0  0  0  0  0  0  0
  138.6180  159.2370  132.6690 O   0  0  0  0  0  0  0  0  0  0  0  0
  139.4930  158.4660  133.4410 C   0  0  0  0  0  0  0  0  0  0  0  0
  139.2180  157.2700  133.7290 O   0  0  0  0  0  0  0  0  0  0  0  0
  140.7630  159.0750  133.9420 C   0  0  0  0  0  0  0  0  0  0  0  0
  141.8560  158.7480  133.0870 O   0  0  0  0  0  0  0  0  0  0  0  0
  143.1870  159.0720  133.3780 C   0  0  0  0  0  0  0  0  0  0  0  0
  143.5010  160.2560  133.6790 O   0  0  0  0  0  0  0  0  0  0  0  0
  144.1920  158.0430  133.3480 N   0  0  0  0  0  0  0  0  0  0  0  0
  144.0410  156.7380  133.7070 C   0  0  0  0  0  0  0  0  0  0  0  0
  142.7630  156.0710  134.0160 C   0  0  0  0  0  0  0  0  0  0  0  0
  141.6300  156.2190  133.1590 N   0  0  0  0  0  0  0  0  0  0  0  0
  142.6840  155.3140  135.0210 O   0  0  0  0  0  0  0  0  0  0  0  0
  145.2650  156.0760  133.7010 C   0  0  0  0  0  0  0  0  0  0  0  0
  146.1840  157.0210  133.3110 C   0  0  0  0  0  0  0  0  0  0  0  0
  147.5620  156.9130  133.1590 C   0  0  0  0  0  0  0  0  0  0  0  0
  148.2750  158.0640  132.7850 C   0  0  0  0  0  0  0  0  0  0  0  0
  147.6020  159.2920  132.5720 C   0  0  0  0  0  0  0  0  0  0  0  0
  148.3830  160.5290  132.2060 C   0  0  0  0  0  0  0  0  0  0  0  0
  149.7000  160.1820  131.5020 C   0  0  0  0  0  0  0  0  0  0  0  0
  149.5390  160.1490  130.0130 C   0  0  0  0  0  0  0  0  0  0  0  0
  150.5520  160.1130  129.2660 O   0  0  0  0  0  0  0  0  0  0  0  0
  148.2680  160.1220  129.4530 O   0  0  0  0  0  0  0  0  0  0  0  0
  146.2030  159.3680  132.7510 C   0  0  0  0  0  0  0  0  0  0  0  0
  145.5140  158.2010  133.1050 C   0  0  0  0  0  0  0  0  0  0  0  0
  136.8998  160.5463  131.5746 H   0  0  0  0  0  0  0  0  0  0  0  0
  137.9010  160.8476  130.1140 H   0  0  0  0  0  0  0  0  0  0  0  0
  136.6883  159.5224  130.1140 H   0  0  0  0  0  0  0  0  0  0  0  0
  138.1533  158.0798  131.0099 H   0  0  0  0  0  0  0  0  0  0  0  0
  140.5887  159.5410  131.3787 H   0  0  0  0  0  0  0  0  0  0  0  0
  140.1185  158.5258  129.9733 H   0  0  0  0  0  0  0  0  0  0  0  0
  139.7527  160.2845  129.9733 H   0  0  0  0  0  0  0  0  0  0  0  0
  140.6484  160.1684  133.9779 H   0  0  0  0  0  0  0  0  0  0  0  0
  140.9712  158.6773  134.9462 H   0  0  0  0  0  0  0  0  0  0  0  0
  141.7120  156.7040  132.2390 H   0  0  0  0  0  0  0  0  0  0  0  0
  140.7240  155.7660  133.4040 H   0  0  0  0  0  0  0  0  0  0  0  0
  145.4561  155.0227  133.9540 H   0  0  0  0  0  0  0  0  0  0  0  0
  148.0777  155.9559  133.3264 H   0  0  0  0  0  0  0  0  0  0  0  0
  149.3662  158.0112  132.6563 H   0  0  0  0  0  0  0  0  0  0  0  0
  147.7725  161.1498  131.5338 H   0  0  0  0  0  0  0  0  0  0  0  0
  148.6227  161.0695  133.1336 H   0  0  0  0  0  0  0  0  0  0  0  0
  150.4540  160.9393  131.7625 H   0  0  0  0  0  0  0  0  0  0  0  0
  150.0147  159.1822  131.8356 H   0  0  0  0  0  0  0  0  0  0  0  0
  145.6681  160.3196  132.6158 H   0  0  0  0  0  0  0  0  0  0  0  0
  1  2  1  0
  2  3  1  0
  2  4  1  0
  4  5  1  0
  5  6  2  0
  5  7  1  0
  7  8  1  0
  8  9  1  0
  9 10  2  0
  9 11  1  0
 11 12  1  0
 12 13  1  0
 13 14  1  0
 13 15  2  0
 12 16  2  0
 16 17  1  0
 17 18  2  0
 18 19  1  0
 19 20  2  0
 20 21  1  0
 21 22  1  0
 22 23  1  0
 23 24  2  0
 23 25  1  0
 20 26  1  0
 26 27  2  0
 27 11  1  0
 27 17  1  0
  1 28  1  0
  1 29  1  0
  1 30  1  0
  2 31  1  0
  3 32  1  0
  3 33  1  0
  3 34  1  0
  7 35  1  0
  7 36  1  0
 14 37  1  0
 14 38  1  0
 16 39  1  0
 18 40  1  0
 19 41  1  0
 21 42  1  0
 21 43  1  0
 22 44  1  0
 22 45  1  0
 26 46  1  0
M  CHG  1  25  -1
M  END
>  <UniqueID>  (52) 
52

>  <SMILES>  (52) 
CC(C)OC(=O)COC(=O)n1c(C(N)=O)cc2ccc(CCC(=O)[O-])cc21

>  <Energy>  (52) 
72.95784938715937

>  <Genealogy>  (52) 
CC(C)OC(=O)COC(=O)n1c(C(N)=O)cc2ccc(CCC(=O)[O-])cc21 (protonated)
CC(C)OC(=O)COC(=O)n1c(C(N)=O)cc2ccc(CCC(=O)[O-])cc21 (3D coordinates assigned)
CC(C)OC(=O)COC(=O)n1c(C(N)=O)cc2ccc(CCC(=O)[O-])cc21 (optimized conformer: 72.95784938715937 kcal/mol)

>  <smiles>  (52) 
CC(C)OC(=O)COC(=O)n1c(C(N)=O)cc2ccc(CCC(=O)O)cc21

>  <score_type>  (52) 
oracle

>  <origin>  (52) 
adg

>  <m_score__min__energy>  (52) 
-7.5099999999999998

>  <m_primary>  (52) 
energy

$$$$
53:0
     RDKit          3D

 77 81  0  0  0  0  0  0  0  0999 V2000
  150.3560  159.8890  129.7850 C   0  0  0  0  0  0  0  0  0  0  0  0
  149.4520  160.0090  130.9340 N   0  0  0  0  0  0  0  0  0  0  0  0
  148.5210  161.1420  131.0170 C   0  0  0  0  0  0  0  0  0  0  0  0
  149.5150  159.0080  131.9760 C   0  0  0  0  0  0  0  0  0  0  0  0
  150.3210  158.0410  131.8610 O   0  0  0  0  0  0  0  0  0  0  0  0
  148.7210  159.1270  133.2560 C   0  0  0  0  0  0  0  0  0  0  0  0
  148.6160  157.8310  133.9270 N   0  0  0  0  0  0  0  0  0  0  0  0
  147.9910  156.6980  133.3140 C   0  0  0  0  0  0  0  0  0  0  0  0
  147.7400  156.6950  132.0770 O   0  0  0  0  0  0  0  0  0  0  0  0
  147.6510  155.5250  134.1190 C   0  0  0  0  0  0  0  0  0  0  0  0
  147.8500  155.5380  135.3660 O   0  0  0  0  0  0  0  0  0  0  0  0
  147.1120  154.3470  133.4980 N   0  0  0  0  0  0  0  0  0  0  0  0
  147.7970  153.3100  132.9390 C   0  0  0  0  0  0  0  0  0  0  0  0
  149.2600  153.2470  132.7560 C   0  0  0  0  0  0  0  0  0  0  0  0
  149.9690  154.3950  132.2750 N   0  0  0  0  0  0  0  0  0  0  0  0
  149.9020  152.1980  133.0390 O   0  0  0  0  0  0  0  0  0  0  0  0
  146.9180  152.3140  132.5220 C   0  0  0  0  0  0  0  0  0  0  0  0
  145.6630  152.7700  132.8590 C   0  0  0  0  0  0  0  0  0  0  0  0
  144.4200  152.1630  132.7110 C   0  0  0  0  0  0  0  0  0  0  0  0
  143.2910  152.8510  133.1930 C   0  0  0  0  0  0  0  0  0  0  0  0
  143.4300  154.1230  133.8080 C   0  0  0  0  0  0  0  0  0  0  0  0
  142.2750  154.8120  134.3030 N   0  0  0  0  0  0  0  0  0  0  0  0
  142.3570  155.3600  135.6680 C   0  0  0  0  0  0  0  0  0  0  0  0
  141.0180  155.9000  136.1730 C   0  0  0  0  0  0  0  0  0  0  0  0
  140.3430  156.7870  135.1050 C   0  0  0  0  0  0  0  0  0  0  0  0
  141.2310  157.9060  134.6540 N   0  0  0  0  0  0  0  0  0  0  0  0
  140.6090  158.7370  133.5880 C   0  0  0  0  0  0  0  0  0  0  0  0
  141.3590  160.0710  133.3620 C   0  0  0  0  0  0  0  0  0  0  0  0
  142.7540  160.0270  133.8550 N   0  0  0  0  0  0  0  0  0  0  0  0
  143.5990  159.0840  133.0760 C   0  0  0  0  0  0  0  0  0  0  0  0
  144.0460  157.8610  133.8830 C   0  0  0  0  0  0  0  0  0  0  0  0
  145.4980  158.2870  133.7390 C   0  0  0  0  0  0  0  0  0  0  0  0
  145.0640  159.5220  132.9710 C   0  0  0  0  0  0  0  0  0  0  0  0
  142.7700  159.7350  135.3130 C   0  0  0  0  0  0  0  0  0  0  0  0
  141.6390  158.7880  135.7680 C   0  0  0  0  0  0  0  0  0  0  0  0
  139.9810  155.8150  133.9590 C   0  0  0  0  0  0  0  0  0  0  0  0
  141.2240  155.1630  133.3280 C   0  0  0  0  0  0  0  0  0  0  0  0
  144.7050  154.7110  133.9330 C   0  0  0  0  0  0  0  0  0  0  0  0
  145.8070  154.0040  133.4420 C   0  0  0  0  0  0  0  0  0  0  0  0
  151.3872  159.7521  130.1425 H   0  0  0  0  0  0  0  0  0  0  0  0
  150.0612  159.0221  129.1754 H   0  0  0  0  0  0  0  0  0  0  0  0
  150.2975  160.8028  129.1754 H   0  0  0  0  0  0  0  0  0  0  0  0
  148.3258  161.3796  132.0732 H   0  0  0  0  0  0  0  0  0  0  0  0
  148.9639  162.0177  130.5200 H   0  0  0  0  0  0  0  0  0  0  0  0
  147.5761  160.8773  130.5200 H   0  0  0  0  0  0  0  0  0  0  0  0
  149.2230  159.8401  133.9264 H   0  0  0  0  0  0  0  0  0  0  0  0
  147.7082  159.4789  133.0102 H   0  0  0  0  0  0  0  0  0  0  0  0
  148.8680  157.7780  134.9410 H   0  0  0  0  0  0  0  0  0  0  0  0
  149.4640  155.2680  132.0130 H   0  0  0  0  0  0  0  0  0  0  0  0
  147.1720  151.3645  132.0282 H   0  0  0  0  0  0  0  0  0  0  0  0
  144.3228  151.1772  132.2327 H   0  0  0  0  0  0  0  0  0  0  0  0
  142.2929  152.3997  133.0924 H   0  0  0  0  0  0  0  0  0  0  0  0
  142.6926  154.5623  136.3471 H   0  0  0  0  0  0  0  0  0  0  0  0
  143.0650  156.2015  135.6443 H   0  0  0  0  0  0  0  0  0  0  0  0
  140.3553  155.0547  136.4102 H   0  0  0  0  0  0  0  0  0  0  0  0
  141.2009  156.5088  137.0707 H   0  0  0  0  0  0  0  0  0  0  0  0
  139.4517  157.2982  135.4977 H   0  0  0  0  0  0  0  0  0  0  0  0
  140.6141  158.1660  132.6478 H   0  0  0  0  0  0  0  0  0  0  0  0
  139.5852  158.9798  133.9088 H   0  0  0  0  0  0  0  0  0  0  0  0
  141.3724  160.2900  132.2841 H   0  0  0  0  0  0  0  0  0  0  0  0
  140.8292  160.8524  133.9266 H   0  0  0  0  0  0  0  0  0  0  0  0
  142.9766  158.9724  132.1759 H   0  0  0  0  0  0  0  0  0  0  0  0
  143.6826  157.8522  134.9212 H   0  0  0  0  0  0  0  0  0  0  0  0
  143.7319  156.8515  133.5791 H   0  0  0  0  0  0  0  0  0  0  0  0
  145.9980  158.5056  134.6941 H   0  0  0  0  0  0  0  0  0  0  0  0
  146.2390  157.5973  133.3086 H   0  0  0  0  0  0  0  0  0  0  0  0
  145.2859  160.4693  133.4842 H   0  0  0  0  0  0  0  0  0  0  0  0
  145.5056  159.7468  131.9889 H   0  0  0  0  0  0  0  0  0  0  0  0
  143.7347  159.2695  135.5635 H   0  0  0  0  0  0  0  0  0  0  0  0
  142.6180  160.6916  135.8344 H   0  0  0  0  0  0  0  0  0  0  0  0
  141.9963  158.1722  136.6066 H   0  0  0  0  0  0  0  0  0  0  0  0
  140.7739  159.3891  136.0846 H   0  0  0  0  0  0  0  0  0  0  0  0
  139.3315  155.0228  134.3597 H   0  0  0  0  0  0  0  0  0  0  0  0
  139.4723  156.3953  133.1751 H   0  0  0  0  0  0  0  0  0  0  0  0
  140.9089  154.2438  132.8124 H   0  0  0  0  0  0  0  0  0  0  0  0
  141.6597  155.9040  132.6416 H   0  0  0  0  0  0  0  0  0  0  0  0
  144.8295  155.6976  134.4032 H   0  0  0  0  0  0  0  0  0  0  0  0
  1  2  1  0
  2  3  1  0
  2  4  1  0
  4  5  2  0
  4  6  1  0
  6  7  1  0
  7  8  1  0
  8  9  2  0
  8 10  1  0
 10 11  2  0
 10 12  1  0
 12 13  1  0
 13 14  1  0
 14 15  1  0
 14 16  2  0
 13 17  2  0
 17 18  1  0
 18 19  2  0
 19 20  1  0
 20 21  2  0
 21 22  1  0
 22 23  1  0
 23 24  1  0
 24 25  1  0
 25 26  1  0
 26 27  1  0
 27 28  1  0
 28 29  1  0
 29 30  1  0
 30 31  1  0
 31 32  1  0
 32 33  1  0
 29 34  1  0
 34 35  1  0
 25 36  1  0
 36 37  1  0
 21 38  1  0
 38 39  2  0
 39 12  1  0
 39 18  1  0
 37 22  1  0
 35 26  1  0
 33 30  1  0
  1 40  1  0
  1 41  1  0
  1 42  1  0
  3 43  1  0
  3 44  1  0
  3 45  1  0
  6 46  1  0
  6 47  1  0
  7 48  1  0
 15 49  1  0
 17 50  1  0
 19 51  1  0
 20 52  1  0
 23 53  1  0
 23 54  1  0
 24 55  1  0
 24 56  1  0
 25 57  1  0
 27 58  1  0
 27 59  1  0
 28 60  1  0
 28 61  1  0
 30 62  1  0
 31 63  1  0
 31 64  1  0
 32 65  1  0
 32 66  1  0
 33 67  1  0
 33 68  1  0
 34 69  1  0
 34 70  1  0
 35 71  1  0
 35 72  1  0
 36 73  1  0
 36 74  1  0
 37 75  1  0
 37 76  1  0
 38 77  1  0
M  CHG  1  15  -1
M  END
>  <UniqueID>  (53) 
53

>  <SMILES>  (53) 
CN(C)C(=O)CNC(=O)C(=O)n1c(C([NH-])=O)cc2ccc(N3CCC(N4CCN(C5CCC5)CC4)CC3)cc21

>  <Energy>  (53) 
204.0118390598739

>  <Genealogy>  (53) 
CN(C)C(=O)CNC(=O)C(=O)n1c(C([NH-])=O)cc2ccc(N3CCC(N4CCN(C5CCC5)CC4)CC3)cc21 (protonated)
CN(C)C(=O)CNC(=O)C(=O)n1c(C([NH-])=O)cc2ccc(N3CCC(N4CCN(C5CCC5)CC4)CC3)cc21 (3D coordinates assigned)
CN(C)C(=O)CNC(=O)C(=O)n1c(C([NH-])=O)cc2ccc(N3CCC(N4CCN(C5CCC5)CC4)CC3)cc21 (nonaromatic ring conformer: 204.0118390598739 kcal/mol)

>  <smiles>  (53) 
CN(C)C(=O)CNC(=O)C(=O)n1c(C(N)=O)cc2ccc(N3CCC(N4CCN(C5CCC5)CC4)CC3)cc21

>  <score_type>  (53) 
oracle

>  <origin>  (53) 
adg

>  <m_score__min__energy>  (53) 
-10.41

>  <m_primary>  (53) 
energy

$$$$
54:0
     RDKit          3D

 37 39  0  0  0  0  0  0  0  0999 V2000
  145.7190  162.6700  134.5030 N   0  0  0  0  0  0  0  0  0  0  0  0
  145.0860  161.5060  133.9770 C   0  0  0  0  0  0  0  0  0  0  0  0
  143.8600  161.5460  133.6950 O   0  0  0  0  0  0  0  0  0  0  0  0
  145.8790  160.2830  133.7360 C   0  0  0  0  0  0  0  0  0  0  0  0
  147.2520  160.2870  133.4980 C   0  0  0  0  0  0  0  0  0  0  0  0
  147.5810  158.9770  133.2320 C   0  0  0  0  0  0  0  0  0  0  0  0
  148.8140  158.4050  132.9330 C   0  0  0  0  0  0  0  0  0  0  0  0
  148.8620  157.0160  132.7230 C   0  0  0  0  0  0  0  0  0  0  0  0
  147.6860  156.2300  132.8200 C   0  0  0  0  0  0  0  0  0  0  0  0
  147.7440  154.7440  132.6070 C   0  0  0  0  0  0  0  0  0  0  0  0
  149.0540  154.3560  132.3880 F   0  0  0  0  0  0  0  0  0  0  0  0
  147.2560  154.0930  133.7250 F   0  0  0  0  0  0  0  0  0  0  0  0
  146.4530  156.8470  133.1260 C   0  0  0  0  0  0  0  0  0  0  0  0
  146.4340  158.2320  133.3160 C   0  0  0  0  0  0  0  0  0  0  0  0
  145.3810  159.0180  133.6300 N   0  0  0  0  0  0  0  0  0  0  0  0
  144.0330  158.5790  133.8590 C   0  0  0  0  0  0  0  0  0  0  0  0
  143.8000  157.7460  134.7760 O   0  0  0  0  0  0  0  0  0  0  0  0
  142.9590  159.1240  133.0770 N   0  0  0  0  0  0  0  0  0  0  0  0
  141.6010  158.6630  133.1420 C   0  0  0  0  0  0  0  0  0  0  0  0
  141.2870  157.6960  133.8900 O   0  0  0  0  0  0  0  0  0  0  0  0
  140.5980  159.2980  132.3400 N   0  0  0  0  0  0  0  0  0  0  0  0
  139.1980  158.8890  132.4020 C   0  0  0  0  0  0  0  0  0  0  0  0
  138.6920  158.2850  131.1030 C   0  0  0  0  0  0  0  0  0  0  0  0
  138.2800  159.6940  131.4980 C   0  0  0  0  0  0  0  0  0  0  0  0
  146.7590  162.7300  134.5750 H   0  0  0  0  0  0  0  0  0  0  0  0
  147.9294  161.1534  133.5184 H   0  0  0  0  0  0  0  0  0  0  0  0
  149.7228  159.0208  132.8632 H   0  0  0  0  0  0  0  0  0  0  0  0
  149.8209  156.5343  132.4812 H   0  0  0  0  0  0  0  0  0  0  0  0
  147.1309  154.4813  131.7323 H   0  0  0  0  0  0  0  0  0  0  0  0
  145.5312  156.2531  133.2126 H   0  0  0  0  0  0  0  0  0  0  0  0
  143.1800  159.9070  132.4210 H   0  0  0  0  0  0  0  0  0  0  0  0
  140.8570  160.1350  131.7710 H   0  0  0  0  0  0  0  0  0  0  0  0
  139.1826  158.5960  133.4621 H   0  0  0  0  0  0  0  0  0  0  0  0
  139.3841  158.1296  130.2623 H   0  0  0  0  0  0  0  0  0  0  0  0
  138.1544  157.3649  130.8304 H   0  0  0  0  0  0  0  0  0  0  0  0
  138.6740  160.5582  130.9431 H   0  0  0  0  0  0  0  0  0  0  0  0
  137.3207  160.2159  131.6296 H   0  0  0  0  0  0  0  0  0  0  0  0
  1  2  1  0
  2  3  2  0
  2  4  1  0
  4  5  2  0
  5  6  1  0
  6  7  2  0
  7  8  1  0
  8  9  2  0
  9 10  1  0
 10 11  1  0
 10 12  1  0
  9 13  1  0
 13 14  2  0
 14 15  1  0
 15 16  1  0
 16 17  2  0
 16 18  1  0
 18 19  1  0
 19 20  2  0
 19 21  1  0
 21 22  1  0
 22 23  1  0
 23 24  1  0
 15  4  1  0
 24 22  1  0
 14  6  1  0
  1 25  1  0
  5 26  1  0
  7 27  1  0
  8 28  1  0
 10 29  1  0
 13 30  1  0
 18 31  1  0
 21 32  1  0
 22 33  1  0
 23 34  1  0
 23 35  1  0
 24 36  1  0
 24 37  1  0
M  CHG  1   1  -1
M  END
>  <UniqueID>  (54) 
54

>  <SMILES>  (54) 
[NH-]C(=O)c1cc2ccc(C(F)F)cc2n1C(=O)NC(=O)NC1CC1

>  <Energy>  (54) 
339.1573183922122

>  <Genealogy>  (54) 
[NH-]C(=O)c1cc2ccc(C(F)F)cc2n1C(=O)NC(=O)NC1CC1 (protonated)
[NH-]C(=O)c1cc2ccc(C(F)F)cc2n1C(=O)NC(=O)NC1CC1 (3D coordinates assigned)
[NH-]C(=O)c1cc2ccc(C(F)F)cc2n1C(=O)NC(=O)NC1CC1 (nonaromatic ring conformer: 339.1573183922122 kcal/mol)

>  <smiles>  (54) 
NC(=O)c1cc2ccc(C(F)F)cc2n1C(=O)NC(=O)NC1CC1

>  <score_type>  (54) 
oracle

>  <origin>  (54) 
adg

>  <m_score__min__energy>  (54) 
-7.9900000000000002

>  <m_primary>  (54) 
energy

$$$$
55:0
     RDKit          3D

 47 48  0  0  0  0  0  0  0  0999 V2000
  139.1180  158.0580  135.7810 N   0  0  0  0  0  0  0  0  0  0  0  0
  139.2960  157.7120  134.4090 C   0  0  0  0  0  0  0  0  0  0  0  0
  138.4180  158.0420  133.5710 O   0  0  0  0  0  0  0  0  0  0  0  0
  140.5120  156.9830  133.9880 C   0  0  0  0  0  0  0  0  0  0  0  0
  140.5970  155.5920  133.9270 C   0  0  0  0  0  0  0  0  0  0  0  0
  141.8880  155.3210  133.5350 C   0  0  0  0  0  0  0  0  0  0  0  0
  142.5140  154.1020  133.2970 C   0  0  0  0  0  0  0  0  0  0  0  0
  143.8550  154.1200  132.8750 C   0  0  0  0  0  0  0  0  0  0  0  0
  144.5400  155.3500  132.6860 C   0  0  0  0  0  0  0  0  0  0  0  0
  145.9200  155.3580  132.2610 N   0  0  0  0  0  0  0  0  0  0  0  0
  146.8540  155.4500  133.4010 C   0  0  0  0  0  0  0  0  0  0  0  0
  147.5500  156.8280  133.5420 C   0  0  0  0  0  0  0  0  0  0  0  0
  147.6160  157.6040  132.2940 N   0  0  0  0  0  0  0  0  0  0  0  0
  148.9870  158.0010  131.9470 C   0  0  0  0  0  0  0  0  0  0  0  0
  149.2640  159.4280  132.4300 C   0  0  0  0  0  0  0  0  0  0  0  0
  148.5280  160.4420  131.6010 C   0  0  0  0  0  0  0  0  0  0  0  0
  147.4440  160.1690  131.1100 O   0  0  0  0  0  0  0  0  0  0  0  0
  143.8610  156.5690  132.9230 C   0  0  0  0  0  0  0  0  0  0  0  0
  142.5360  156.5180  133.3720 C   0  0  0  0  0  0  0  0  0  0  0  0
  141.7070  157.5470  133.6540 N   0  0  0  0  0  0  0  0  0  0  0  0
  142.0120  158.9470  133.5520 C   0  0  0  0  0  0  0  0  0  0  0  0
  141.4770  159.6320  132.6360 O   0  0  0  0  0  0  0  0  0  0  0  0
  142.9450  159.5900  134.5010 C   0  0  0  0  0  0  0  0  0  0  0  0
  142.8320  159.3700  135.7390 O   0  0  0  0  0  0  0  0  0  0  0  0
  144.0480  160.4870  134.0170 C   0  0  0  0  0  0  0  0  0  0  0  0
  145.1710  159.6890  133.4300 C   0  0  0  0  0  0  0  0  0  0  0  0
  144.9850  159.0280  132.3730 O   0  0  0  0  0  0  0  0  0  0  0  0
  146.3890  159.5880  134.0950 O   0  0  0  0  0  0  0  0  0  0  0  0
  139.0710  159.0600  136.0800 H   0  0  0  0  0  0  0  0  0  0  0  0
  139.8006  154.8655  134.1459 H   0  0  0  0  0  0  0  0  0  0  0  0
  141.9761  153.1524  133.4348 H   0  0  0  0  0  0  0  0  0  0  0  0
  144.3795  153.1711  132.6891 H   0  0  0  0  0  0  0  0  0  0  0  0
  146.1440  154.5210  131.6760 H   0  0  0  0  0  0  0  0  0  0  0  0
  146.0710  156.1930  131.6470 H   0  0  0  0  0  0  0  0  0  0  0  0
  146.2912  155.2515  134.3251 H   0  0  0  0  0  0  0  0  0  0  0  0
  147.6486  154.7114  133.2193 H   0  0  0  0  0  0  0  0  0  0  0  0
  146.9961  157.4191  134.2862 H   0  0  0  0  0  0  0  0  0  0  0  0
  148.5888  156.6267  133.8428 H   0  0  0  0  0  0  0  0  0  0  0  0
  147.0180  158.4560  132.3610 H   0  0  0  0  0  0  0  0  0  0  0  0
  149.6972  157.3111  132.4263 H   0  0  0  0  0  0  0  0  0  0  0  0
  149.1054  157.9632  130.8540 H   0  0  0  0  0  0  0  0  0  0  0  0
  148.9408  159.5200  133.4774 H   0  0  0  0  0  0  0  0  0  0  0  0
  150.3427  159.6215  132.3348 H   0  0  0  0  0  0  0  0  0  0  0  0
  148.9684  161.4363  131.4354 H   0  0  0  0  0  0  0  0  0  0  0  0
  144.3627  157.5340  132.7582 H   0  0  0  0  0  0  0  0  0  0  0  0
  143.6488  161.1653  133.2485 H   0  0  0  0  0  0  0  0  0  0  0  0
  144.4351  161.0592  134.8730 H   0  0  0  0  0  0  0  0  0  0  0  0
  1  2  1  0
  2  3  2  0
  2  4  1  0
  4  5  2  0
  5  6  1  0
  6  7  2  0
  7  8  1  0
  8  9  2  0
  9 10  1  0
 10 11  1  0
 11 12  1  0
 12 13  1  0
 13 14  1  0
 14 15  1  0
 15 16  1  0
 16 17  2  0
  9 18  1  0
 18 19  2  0
 19 20  1  0
 20 21  1  0
 21 22  2  0
 21 23  1  0
 23 24  2  0
 23 25  1  0
 25 26  1  0
 26 27  2  0
 26 28  1  0
 20  4  1  0
 19  6  1  0
  1 29  1  0
  5 30  1  0
  7 31  1  0
  8 32  1  0
 10 33  1  0
 10 34  1  0
 11 35  1  0
 11 36  1  0
 12 37  1  0
 12 38  1  0
 13 39  1  0
 14 40  1  0
 14 41  1  0
 15 42  1  0
 15 43  1  0
 16 44  1  0
 18 45  1  0
 25 46  1  0
 25 47  1  0
M  CHG  3   1  -1  10   1  28  -1
M  END
>  <UniqueID>  (55) 
55

>  <SMILES>  (55) 
[NH-]C(=O)c1cc2ccc([NH2+]CCNCCC=O)cc2n1C(=O)C(=O)CC(=O)[O-]

>  <Energy>  (55) 
82.34581627931188

>  <Genealogy>  (55) 
[NH-]C(=O)c1cc2ccc([NH2+]CCNCCC=O)cc2n1C(=O)C(=O)CC(=O)[O-] (protonated)
[NH-]C(=O)c1cc2ccc([NH2+]CCNCCC=O)cc2n1C(=O)C(=O)CC(=O)[O-] (3D coordinates assigned)
[NH-]C(=O)c1cc2ccc([NH2+]CCNCCC=O)cc2n1C(=O)C(=O)CC(=O)[O-] (optimized conformer: 82.34581627931188 kcal/mol)

>  <smiles>  (55) 
NC(=O)c1cc2ccc(NCCNCCC=O)cc2n1C(=O)C(=O)CC(=O)O

>  <score_type>  (55) 
oracle

>  <origin>  (55) 
adg

>  <m_score__min__energy>  (55) 
-6.79

>  <m_primary>  (55) 
energy

$$$$
56:0
     RDKit          3D

 49 50  0  0  0  0  0  0  0  0999 V2000
  149.7600  151.0000  131.4460 C   0  0  0  0  0  0  0  0  0  0  0  0
  149.5890  151.7310  132.7680 C   0  0  0  0  0  0  0  0  0  0  0  0
  148.6980  152.8270  132.5920 O   0  0  0  0  0  0  0  0  0  0  0  0
  149.1230  154.1570  132.6090 C   0  0  0  0  0  0  0  0  0  0  0  0
  150.2980  154.4650  132.2690 O   0  0  0  0  0  0  0  0  0  0  0  0
  148.1450  155.2350  132.9750 C   0  0  0  0  0  0  0  0  0  0  0  0
  148.7010  156.5750  132.7280 N   0  0  0  0  0  0  0  0  0  0  0  0
  147.7270  157.6060  133.0040 C   0  0  0  0  0  0  0  0  0  0  0  0
  148.1370  158.9590  133.1440 C   0  0  0  0  0  0  0  0  0  0  0  0
  147.1920  159.9750  133.3630 C   0  0  0  0  0  0  0  0  0  0  0  0
  145.8500  159.6140  133.4320 C   0  0  0  0  0  0  0  0  0  0  0  0
  144.7330  160.3900  133.6450 C   0  0  0  0  0  0  0  0  0  0  0  0
  143.6560  159.5060  133.6110 C   0  0  0  0  0  0  0  0  0  0  0  0
  142.2450  159.9400  133.7040 C   0  0  0  0  0  0  0  0  0  0  0  0
  141.3530  159.7880  132.6040 N   0  0  0  0  0  0  0  0  0  0  0  0
  141.8310  160.4900  134.7600 O   0  0  0  0  0  0  0  0  0  0  0  0
  144.0920  158.2330  133.3960 N   0  0  0  0  0  0  0  0  0  0  0  0
  143.3190  157.0260  133.3450 C   0  0  0  0  0  0  0  0  0  0  0  0
  143.8160  155.9460  133.7660 O   0  0  0  0  0  0  0  0  0  0  0  0
  142.0270  157.0620  132.7980 O   0  0  0  0  0  0  0  0  0  0  0  0
  140.8200  156.6110  133.4290 C   0  0  0  0  0  0  0  0  0  0  0  0
  139.5910  157.2540  132.7590 C   0  0  0  0  0  0  0  0  0  0  0  0
  140.8790  157.0650  134.8950 C   0  0  0  0  0  0  0  0  0  0  0  0
  140.7230  155.0750  133.3850 C   0  0  0  0  0  0  0  0  0  0  0  0
  145.4360  158.3170  133.2850 C   0  0  0  0  0  0  0  0  0  0  0  0
  146.3540  157.2810  133.0810 C   0  0  0  0  0  0  0  0  0  0  0  0
  150.0066  149.9456  131.6393 H   0  0  0  0  0  0  0  0  0  0  0  0
  148.8240  151.0582  130.8711 H   0  0  0  0  0  0  0  0  0  0  0  0
  150.5731  151.4673  130.8711 H   0  0  0  0  0  0  0  0  0  0  0  0
  149.1770  151.0403  133.5184 H   0  0  0  0  0  0  0  0  0  0  0  0
  150.5658  152.1036  133.1101 H   0  0  0  0  0  0  0  0  0  0  0  0
  147.2332  155.1098  132.3725 H   0  0  0  0  0  0  0  0  0  0  0  0
  147.9207  155.1472  134.0483 H   0  0  0  0  0  0  0  0  0  0  0  0
  149.0400  156.6410  131.7400 H   0  0  0  0  0  0  0  0  0  0  0  0
  149.5320  156.7140  133.3500 H   0  0  0  0  0  0  0  0  0  0  0  0
  149.2052  159.2136  133.0803 H   0  0  0  0  0  0  0  0  0  0  0  0
  147.5034  161.0239  133.4765 H   0  0  0  0  0  0  0  0  0  0  0  0
  144.6979  161.4774  133.8076 H   0  0  0  0  0  0  0  0  0  0  0  0
  141.4780  159.0170  131.9120 H   0  0  0  0  0  0  0  0  0  0  0  0
  138.8988  157.6162  133.5334 H   0  0  0  0  0  0  0  0  0  0  0  0
  139.9147  158.0983  132.1326 H   0  0  0  0  0  0  0  0  0  0  0  0
  139.0819  156.5067  132.1326 H   0  0  0  0  0  0  0  0  0  0  0  0
  140.7655  156.1917  135.5542 H   0  0  0  0  0  0  0  0  0  0  0  0
  141.8475  157.5485  135.0904 H   0  0  0  0  0  0  0  0  0  0  0  0
  140.0662  157.7800  135.0904 H   0  0  0  0  0  0  0  0  0  0  0  0
  140.6980  154.6796  134.4112 H   0  0  0  0  0  0  0  0  0  0  0  0
  139.8045  154.7806  132.8562 H   0  0  0  0  0  0  0  0  0  0  0  0
  141.5972  154.6674  132.8562 H   0  0  0  0  0  0  0  0  0  0  0  0
  146.0152  156.2391  132.9829 H   0  0  0  0  0  0  0  0  0  0  0  0
  1  2  1  0
  2  3  1  0
  3  4  1  0
  4  5  2  0
  4  6  1  0
  6  7  1  0
  7  8  1  0
  8  9  2  0
  9 10  1  0
 10 11  2  0
 11 12  1  0
 12 13  2  0
 13 14  1  0
 14 15  1  0
 14 16  2  0
 13 17  1  0
 17 18  1  0
 18 19  2  0
 18 20  1  0
 20 21  1  0
 21 22  1  0
 21 23  1  0
 21 24  1  0
 17 25  1  0
 25 26  2  0
 26  8  1  0
 25 11  1  0
  1 27  1  0
  1 28  1  0
  1 29  1  0
  2 30  1  0
  2 31  1  0
  6 32  1  0
  6 33  1  0
  7 34  1  0
  7 35  1  0
  9 36  1  0
 10 37  1  0
 12 38  1  0
 15 39  1  0
 22 40  1  0
 22 41  1  0
 22 42  1  0
 23 43  1  0
 23 44  1  0
 23 45  1  0
 24 46  1  0
 24 47  1  0
 24 48  1  0
 26 49  1  0
M  CHG  2   7   1  15  -1
M  END
>  <UniqueID>  (56) 
56

>  <SMILES>  (56) 
CCOC(=O)C[NH2+]c1ccc2cc(C([NH-])=O)n(C(=O)OC(C)(C)C)c2c1

>  <Energy>  (56) 
76.59830829365023

>  <Genealogy>  (56) 
CCOC(=O)C[NH2+]c1ccc2cc(C([NH-])=O)n(C(=O)OC(C)(C)C)c2c1 (protonated)
CCOC(=O)C[NH2+]c1ccc2cc(C([NH-])=O)n(C(=O)OC(C)(C)C)c2c1 (3D coordinates assigned)
CCOC(=O)C[NH2+]c1ccc2cc(C([NH-])=O)n(C(=O)OC(C)(C)C)c2c1 (optimized conformer: 76.59830829365023 kcal/mol)

>  <smiles>  (56) 
CCOC(=O)CNc1ccc2cc(C(N)=O)n(C(=O)OC(C)(C)C)c2c1

>  <score_type>  (56) 
oracle

>  <origin>  (56) 
adg

>  <m_score__min__energy>  (56) 
-7.1299999999999999

>  <m_primary>  (56) 
energy

$$$$
57:0
     RDKit          3D

 44 46  0  0  0  0  0  0  0  0999 V2000
  149.7060  154.4350  132.2590 N   0  0  0  0  0  0  0  0  0  0  0  0
  148.7910  154.4220  132.9650 C   0  0  0  0  0  0  0  0  0  0  0  0
  147.6360  154.4060  133.8620 C   0  0  0  0  0  0  0  0  0  0  0  0
  147.0160  155.6870  133.8500 O   0  0  0  0  0  0  0  0  0  0  0  0
  146.9590  156.4870  132.7050 C   0  0  0  0  0  0  0  0  0  0  0  0
  147.0050  155.9620  131.5590 O   0  0  0  0  0  0  0  0  0  0  0  0
  146.8120  157.9100  132.8360 N   0  0  0  0  0  0  0  0  0  0  0  0
  147.7700  158.8660  132.6750 C   0  0  0  0  0  0  0  0  0  0  0  0
  149.1410  158.6440  132.1700 C   0  0  0  0  0  0  0  0  0  0  0  0
  149.6740  157.3220  132.1220 N   0  0  0  0  0  0  0  0  0  0  0  0
  149.8630  159.6120  131.8140 O   0  0  0  0  0  0  0  0  0  0  0  0
  147.2580  160.1280  132.9760 C   0  0  0  0  0  0  0  0  0  0  0  0
  145.9440  159.9140  133.3230 C   0  0  0  0  0  0  0  0  0  0  0  0
  144.9680  160.8190  133.7290 C   0  0  0  0  0  0  0  0  0  0  0  0
  143.6980  160.3150  134.0560 C   0  0  0  0  0  0  0  0  0  0  0  0
  143.4310  158.9260  133.9780 C   0  0  0  0  0  0  0  0  0  0  0  0
  142.1280  158.4210  134.3200 N   0  0  0  0  0  0  0  0  0  0  0  0
  141.0830  158.4350  133.2800 C   0  0  0  0  0  0  0  0  0  0  0  0
  139.7510  159.0220  133.7650 C   0  0  0  0  0  0  0  0  0  0  0  0
  139.0010  158.0920  134.7370 C   0  0  0  0  0  0  0  0  0  0  0  0
  139.3560  158.2830  136.1560 N   0  0  0  0  0  0  0  0  0  0  0  0
  140.6980  158.8610  136.3540 C   0  0  0  0  0  0  0  0  0  0  0  0
  141.8470  158.0390  135.7140 C   0  0  0  0  0  0  0  0  0  0  0  0
  144.4470  158.0380  133.5640 C   0  0  0  0  0  0  0  0  0  0  0  0
  145.6980  158.5690  133.2290 C   0  0  0  0  0  0  0  0  0  0  0  0
  146.9169  153.6461  133.5223 H   0  0  0  0  0  0  0  0  0  0  0  0
  147.9649  154.1643  134.8835 H   0  0  0  0  0  0  0  0  0  0  0  0
  149.0850  156.5170  131.8080 H   0  0  0  0  0  0  0  0  0  0  0  0
  147.7912  161.0896  132.9430 H   0  0  0  0  0  0  0  0  0  0  0  0
  145.1842  161.8957  133.7920 H   0  0  0  0  0  0  0  0  0  0  0  0
  142.9035  161.0054  134.3756 H   0  0  0  0  0  0  0  0  0  0  0  0
  141.4420  159.0375  132.4326 H   0  0  0  0  0  0  0  0  0  0  0  0
  140.8934  157.3896  132.9949 H   0  0  0  0  0  0  0  0  0  0  0  0
  139.9535  159.9742  134.2771 H   0  0  0  0  0  0  0  0  0  0  0  0
  139.1108  159.1588  132.8810 H   0  0  0  0  0  0  0  0  0  0  0  0
  137.9220  158.2740  134.6244 H   0  0  0  0  0  0  0  0  0  0  0  0
  139.2908  157.0636  134.4756 H   0  0  0  0  0  0  0  0  0  0  0  0
  138.6620  158.9530  136.5610 H   0  0  0  0  0  0  0  0  0  0  0  0
  139.2480  157.3910  136.6910 H   0  0  0  0  0  0  0  0  0  0  0  0
  140.7078  159.8685  135.9127 H   0  0  0  0  0  0  0  0  0  0  0  0
  140.8814  158.8679  137.4386 H   0  0  0  0  0  0  0  0  0  0  0  0
  142.7595  158.1920  136.3090 H   0  0  0  0  0  0  0  0  0  0  0  0
  141.5299  156.9857  135.7063 H   0  0  0  0  0  0  0  0  0  0  0  0
  144.2603  156.9555  133.5061 H   0  0  0  0  0  0  0  0  0  0  0  0
  1  2  3  0
  2  3  1  0
  3  4  1  0
  4  5  1  0
  5  6  2  0
  5  7  1  0
  7  8  1  0
  8  9  1  0
  9 10  1  0
  9 11  2  0
  8 12  2  0
 12 13  1  0
 13 14  2  0
 14 15  1  0
 15 16  2  0
 16 17  1  0
 17 18  1  0
 18 19  1  0
 19 20  1  0
 20 21  1  0
 21 22  1  0
 22 23  1  0
 16 24  1  0
 24 25  2  0
 25  7  1  0
 25 13  1  0
 23 17  1  0
  3 26  1  0
  3 27  1  0
 10 28  1  0
 12 29  1  0
 14 30  1  0
 15 31  1  0
 18 32  1  0
 18 33  1  0
 19 34  1  0
 19 35  1  0
 20 36  1  0
 20 37  1  0
 21 38  1  0
 21 39  1  0
 22 40  1  0
 22 41  1  0
 23 42  1  0
 23 43  1  0
 24 44  1  0
M  CHG  2  10  -1  21   1
M  END
>  <UniqueID>  (57) 
57

>  <SMILES>  (57) 
N#CCOC(=O)n1c(C([NH-])=O)cc2ccc(N3CCC[NH2+]CC3)cc21

>  <Energy>  (57) 
93.14646883666263

>  <Genealogy>  (57) 
N#CCOC(=O)n1c(C([NH-])=O)cc2ccc(N3CCC[NH2+]CC3)cc21 (protonated)
N#CCOC(=O)n1c(C([NH-])=O)cc2ccc(N3CCC[NH2+]CC3)cc21 (3D coordinates assigned)
N#CCOC(=O)n1c(C([NH-])=O)cc2ccc(N3CCC[NH2+]CC3)cc21 (nonaromatic ring conformer: 93.14646883666263 kcal/mol)

>  <smiles>  (57) 
N#CCOC(=O)n1c(C(N)=O)cc2ccc(N3CCCNCC3)cc21

>  <score_type>  (57) 
oracle

>  <origin>  (57) 
adg

>  <m_score__min__energy>  (57) 
-5.4400000000000004

>  <m_primary>  (57) 
energy

$$$$
58:0
     RDKit          3D

 49 51  0  0  0  0  0  0  0  0999 V2000
  149.5970  161.0740  129.7490 C   0  0  0  0  0  0  0  0  0  0  0  0
  149.4010  159.4510  130.5490 S   0  0  0  0  0  0  0  0  0  0  0  0
  148.1470  160.0360  131.6820 C   0  0  0  0  0  0  0  0  0  0  0  0
  148.1930  161.2240  132.0990 O   0  0  0  0  0  0  0  0  0  0  0  0
  147.1470  159.1510  132.0990 O   0  0  0  0  0  0  0  0  0  0  0  0
  146.6660  159.0300  133.4080 C   0  0  0  0  0  0  0  0  0  0  0  0
  147.4700  158.8290  134.3580 O   0  0  0  0  0  0  0  0  0  0  0  0
  145.2540  159.1820  133.6710 N   0  0  0  0  0  0  0  0  0  0  0  0
  144.5710  160.3430  133.8950 C   0  0  0  0  0  0  0  0  0  0  0  0
  145.1660  161.6800  134.0610 C   0  0  0  0  0  0  0  0  0  0  0  0
  146.5820  161.8500  134.0870 N   0  0  0  0  0  0  0  0  0  0  0  0
  144.4150  162.6720  134.2600 O   0  0  0  0  0  0  0  0  0  0  0  0
  143.2010  160.1170  133.9350 C   0  0  0  0  0  0  0  0  0  0  0  0
  143.0530  158.7630  133.7570 C   0  0  0  0  0  0  0  0  0  0  0  0
  141.8980  157.9910  133.7350 C   0  0  0  0  0  0  0  0  0  0  0  0
  142.0310  156.6050  133.5530 C   0  0  0  0  0  0  0  0  0  0  0  0
  143.3130  156.0090  133.4040 C   0  0  0  0  0  0  0  0  0  0  0  0
  143.4430  154.5780  133.2230 N   0  0  0  0  0  0  0  0  0  0  0  0
  144.3250  153.9600  132.2490 C   0  0  0  0  0  0  0  0  0  0  0  0
  144.3280  152.4820  132.5940 C   0  0  0  0  0  0  0  0  0  0  0  0
  143.0150  152.2180  133.3680 C   0  0  2  0  0  0  0  0  0  0  0  0
  141.8690  151.7700  132.5210 N   0  0  0  0  0  0  0  0  0  0  0  0
  140.6230  152.4300  132.9660 C   0  0  0  0  0  0  0  0  0  0  0  0
  141.6490  150.3100  132.5590 C   0  0  0  0  0  0  0  0  0  0  0  0
  142.7030  153.5890  133.9970 C   0  0  0  0  0  0  0  0  0  0  0  0
  144.4620  156.8350  133.4420 C   0  0  0  0  0  0  0  0  0  0  0  0
  144.3010  158.2180  133.6040 C   0  0  0  0  0  0  0  0  0  0  0  0
  149.6911  161.8535  130.5194 H   0  0  0  0  0  0  0  0  0  0  0  0
  150.5008  161.0670  129.1221 H   0  0  0  0  0  0  0  0  0  0  0  0
  148.7175  161.2824  129.1221 H   0  0  0  0  0  0  0  0  0  0  0  0
  147.2200  161.0240  134.0470 H   0  0  0  0  0  0  0  0  0  0  0  0
  146.9960  162.8030  134.1990 H   0  0  0  0  0  0  0  0  0  0  0  0
  142.4051  160.8626  134.0785 H   0  0  0  0  0  0  0  0  0  0  0  0
  140.9070  158.4527  133.8568 H   0  0  0  0  0  0  0  0  0  0  0  0
  141.1316  155.9723  133.5253 H   0  0  0  0  0  0  0  0  0  0  0  0
  143.9436  154.1170  131.2293 H   0  0  0  0  0  0  0  0  0  0  0  0
  145.3367  154.3908  132.2797 H   0  0  0  0  0  0  0  0  0  0  0  0
  144.3584  151.8761  131.6764 H   0  0  0  0  0  0  0  0  0  0  0  0
  145.2091  152.2119  133.1946 H   0  0  0  0  0  0  0  0  0  0  0  0
  143.1462  151.3925  134.0831 H   0  0  0  0  0  0  0  0  0  0  0  0
  140.5898  152.4476  134.0654 H   0  0  0  0  0  0  0  0  0  0  0  0
  140.5965  153.4604  132.5819 H   0  0  0  0  0  0  0  0  0  0  0  0
  139.7557  151.8730  132.5819 H   0  0  0  0  0  0  0  0  0  0  0  0
  141.5984  149.9739  133.6052 H   0  0  0  0  0  0  0  0  0  0  0  0
  140.7043  150.0682  132.0501 H   0  0  0  0  0  0  0  0  0  0  0  0
  142.4805  149.8005  132.0501 H   0  0  0  0  0  0  0  0  0  0  0  0
  141.6237  153.7948  133.9436 H   0  0  0  0  0  0  0  0  0  0  0  0
  142.9939  153.6153  135.0575 H   0  0  0  0  0  0  0  0  0  0  0  0
  145.4668  156.3978  133.3458 H   0  0  0  0  0  0  0  0  0  0  0  0
  1  2  1  0
  2  3  1  0
  3  4  2  0
  3  5  1  0
  5  6  1  0
  6  7  2  0
  6  8  1  0
  8  9  1  0
  9 10  1  0
 10 11  1  0
 10 12  2  0
  9 13  2  0
 13 14  1  0
 14 15  2  0
 15 16  1  0
 16 17  2  0
 17 18  1  0
 18 19  1  0
 19 20  1  0
 20 21  1  0
 21 22  1  0
 22 23  1  0
 22 24  1  0
 21 25  1  0
 17 26  1  0
 26 27  2  0
 27  8  1  0
 27 14  1  0
 25 18  1  0
  1 28  1  0
  1 29  1  0
  1 30  1  0
 11 31  1  0
 11 32  1  0
 13 33  1  0
 15 34  1  0
 16 35  1  0
 19 36  1  0
 19 37  1  0
 20 38  1  0
 20 39  1  0
 21 40  1  1
 23 41  1  0
 23 42  1  0
 23 43  1  0
 24 44  1  0
 24 45  1  0
 24 46  1  0
 25 47  1  0
 25 48  1  0
 26 49  1  0
M  END
>  <UniqueID>  (58) 
58

>  <SMILES>  (58) 
CSC(=O)OC(=O)n1c(C(N)=O)cc2ccc(N3CC[C@H](N(C)C)C3)cc21

>  <Energy>  (58) 
98.13248237215595

>  <Genealogy>  (58) 
CSC(=O)OC(=O)n1c(C(N)=O)cc2ccc(N3CC[C@H](N(C)C)C3)cc21 (3D coordinates assigned)
CSC(=O)OC(=O)n1c(C(N)=O)cc2ccc(N3CC[C@H](N(C)C)C3)cc21 (nonaromatic ring conformer: 98.13248237215595 kcal/mol)

>  <smiles>  (58) 
CSC(=O)OC(=O)n1c(C(N)=O)cc2ccc(N3CC[C@H](N(C)C)C3)cc21

>  <score_type>  (58) 
oracle

>  <origin>  (58) 
adg

>  <m_score__min__energy>  (58) 
-8.2300000000000004

>  <m_primary>  (58) 
energy

$$$$
59:0
     RDKit          3D

 40 42  0  0  0  0  0  0  0  0999 V2000
  140.2490  155.2180  133.4300 C   0  0  0  0  0  0  0  0  0  0  0  0
  141.2330  155.7870  134.1350 C   0  0  0  0  0  0  0  0  0  0  0  0
  141.3830  155.4540  135.5950 C   0  0  0  0  0  0  0  0  0  0  0  0
  142.2160  156.6860  133.4800 C   0  0  0  0  0  0  0  0  0  0  0  0
  143.0130  156.2390  132.6090 O   0  0  0  0  0  0  0  0  0  0  0  0
  142.2870  158.0710  133.8390 N   0  0  0  0  0  0  0  0  0  0  0  0
  141.2950  158.8560  134.3430 C   0  0  0  0  0  0  0  0  0  0  0  0
  139.9210  158.4120  134.6640 C   0  0  0  0  0  0  0  0  0  0  0  0
  139.5100  158.2110  136.0150 N   0  0  0  0  0  0  0  0  0  0  0  0
  139.0960  158.2170  133.7320 O   0  0  0  0  0  0  0  0  0  0  0  0
  141.7640  160.1540  134.5520 C   0  0  0  0  0  0  0  0  0  0  0  0
  143.0830  160.1340  134.1530 C   0  0  0  0  0  0  0  0  0  0  0  0
  144.0320  161.1500  134.1350 C   0  0  0  0  0  0  0  0  0  0  0  0
  145.3190  160.8420  133.6570 C   0  0  0  0  0  0  0  0  0  0  0  0
  145.6340  159.5310  133.2060 C   0  0  0  0  0  0  0  0  0  0  0  0
  146.9950  159.2160  132.7000 C   0  0  0  0  0  0  0  0  0  0  0  0
  147.6540  158.0410  133.1080 C   0  0  0  0  0  0  0  0  0  0  0  0
  148.9340  157.7480  132.6350 C   0  0  0  0  0  0  0  0  0  0  0  0
  149.5720  158.6180  131.7490 C   0  0  0  0  0  0  0  0  0  0  0  0
  148.9330  159.7980  131.3240 C   0  0  0  0  0  0  0  0  0  0  0  0
  149.6040  160.7210  130.3810 C   0  0  0  0  0  0  0  0  0  0  0  0
  149.5480  161.9670  130.5550 O   0  0  0  0  0  0  0  0  0  0  0  0
  150.3080  160.2240  129.2880 O   0  0  0  0  0  0  0  0  0  0  0  0
  147.6430  160.0870  131.8050 C   0  0  0  0  0  0  0  0  0  0  0  0
  144.6370  158.5270  133.2440 C   0  0  0  0  0  0  0  0  0  0  0  0
  143.3710  158.8640  133.7270 C   0  0  0  0  0  0  0  0  0  0  0  0
  140.1299  155.4540  132.3622 H   0  0  0  0  0  0  0  0  0  0  0  0
  139.5588  154.5140  133.9180 H   0  0  0  0  0  0  0  0  0  0  0  0
  141.0064  156.2902  136.2024 H   0  0  0  0  0  0  0  0  0  0  0  0
  140.8072  154.5453  135.8249 H   0  0  0  0  0  0  0  0  0  0  0  0
  142.4450  155.2831  135.8249 H   0  0  0  0  0  0  0  0  0  0  0  0
  139.4370  159.0130  136.6790 H   0  0  0  0  0  0  0  0  0  0  0  0
  141.2006  161.0107  134.9504 H   0  0  0  0  0  0  0  0  0  0  0  0
  143.7843  162.1634  134.4837 H   0  0  0  0  0  0  0  0  0  0  0  0
  146.0910  161.6252  133.6319 H   0  0  0  0  0  0  0  0  0  0  0  0
  147.1570  157.3493  133.8041 H   0  0  0  0  0  0  0  0  0  0  0  0
  149.4418  156.8285  132.9614 H   0  0  0  0  0  0  0  0  0  0  0  0
  150.5807  158.3798  131.3806 H   0  0  0  0  0  0  0  0  0  0  0  0
  147.1345  161.0057  131.4772 H   0  0  0  0  0  0  0  0  0  0  0  0
  144.8545  157.5048  132.9009 H   0  0  0  0  0  0  0  0  0  0  0  0
  1  2  2  0
  2  3  1  0
  2  4  1  0
  4  5  2  0
  4  6  1  0
  6  7  1  0
  7  8  1  0
  8  9  1  0
  8 10  2  0
  7 11  2  0
 11 12  1  0
 12 13  2  0
 13 14  1  0
 14 15  2  0
 15 16  1  0
 16 17  2  0
 17 18  1  0
 18 19  2  0
 19 20  1  0
 20 21  1  0
 21 22  2  0
 21 23  1  0
 20 24  2  0
 15 25  1  0
 25 26  2  0
 26  6  1  0
 26 12  1  0
 24 16  1  0
  1 27  1  0
  1 28  1  0
  3 29  1  0
  3 30  1  0
  3 31  1  0
  9 32  1  0
 11 33  1  0
 13 34  1  0
 14 35  1  0
 17 36  1  0
 18 37  1  0
 19 38  1  0
 24 39  1  0
 25 40  1  0
M  CHG  2   9  -1  23  -1
M  END
>  <UniqueID>  (59) 
59

>  <SMILES>  (59) 
C=C(C)C(=O)n1c(C([NH-])=O)cc2ccc(-c3cccc(C(=O)[O-])c3)cc21

>  <Energy>  (59) 
87.11776136304134

>  <Genealogy>  (59) 
C=C(C)C(=O)n1c(C([NH-])=O)cc2ccc(-c3cccc(C(=O)[O-])c3)cc21 (protonated)
C=C(C)C(=O)n1c(C([NH-])=O)cc2ccc(-c3cccc(C(=O)[O-])c3)cc21 (3D coordinates assigned)
C=C(C)C(=O)n1c(C([NH-])=O)cc2ccc(-c3cccc(C(=O)[O-])c3)cc21 (optimized conformer: 87.11776136304134 kcal/mol)

>  <smiles>  (59) 
C=C(C)C(=O)n1c(C(N)=O)cc2ccc(-c3cccc(C(=O)O)c3)cc21

>  <score_type>  (59) 
oracle

>  <origin>  (59) 
adg

>  <m_score__min__energy>  (59) 
-9.1199999999999992

>  <m_primary>  (59) 
energy

$$$$
60:0
     RDKit          3D

 32 33  0  0  0  0  0  0  0  0999 V2000
  142.9410  161.5730  133.7330 N   0  0  0  0  0  0  0  0  0  0  0  0
  144.3620  161.5910  133.8550 C   0  0  0  0  0  0  0  0  0  0  0  0
  144.9320  162.6520  134.1470 O   0  0  0  0  0  0  0  0  0  0  0  0
  145.2170  160.3510  133.6670 C   0  0  0  0  0  0  0  0  0  0  0  0
  146.5590  160.4810  133.3610 C   0  0  0  0  0  0  0  0  0  0  0  0
  147.0500  159.2130  133.2810 C   0  0  0  0  0  0  0  0  0  0  0  0
  148.3490  158.7890  132.9910 C   0  0  0  0  0  0  0  0  0  0  0  0
  148.6040  157.4070  132.9650 C   0  0  0  0  0  0  0  0  0  0  0  0
  147.5790  156.4820  133.2500 C   0  0  0  0  0  0  0  0  0  0  0  0
  147.8480  155.0060  133.2080 C   0  0  0  0  0  0  0  0  0  0  0  0
  148.0030  154.5310  134.4950 F   0  0  0  0  0  0  0  0  0  0  0  0
  146.7900  154.3370  132.6010 F   0  0  0  0  0  0  0  0  0  0  0  0
  148.9950  154.7420  132.4830 F   0  0  0  0  0  0  0  0  0  0  0  0
  146.2640  156.9420  133.5160 C   0  0  0  0  0  0  0  0  0  0  0  0
  146.0310  158.3470  133.5330 C   0  0  0  0  0  0  0  0  0  0  0  0
  144.8620  159.0210  133.7830 N   0  0  0  0  0  0  0  0  0  0  0  0
  143.5860  158.3980  134.0970 C   0  0  0  0  0  0  0  0  0  0  0  0
  142.8530  158.8750  135.0140 O   0  0  0  0  0  0  0  0  0  0  0  0
  143.1640  157.3010  133.4170 O   0  0  0  0  0  0  0  0  0  0  0  0
  141.8260  157.1060  133.0070 C   0  0  0  0  0  0  0  0  0  0  0  0
  141.0730  158.7680  132.6800 P   0  0  0  0  0  0  0  0  0  0  0  0
  139.2350  158.6270  132.8350 C   0  0  0  0  0  0  0  0  0  0  0  0
  138.7440  157.7410  133.5640 O   0  0  0  0  0  0  0  0  0  0  0  0
  138.4160  159.5250  132.1810 O   0  0  0  0  0  0  0  0  0  0  0  0
  142.3830  160.8110  134.1850 H   0  0  0  0  0  0  0  0  0  0  0  0
  147.1165  161.4175  133.2124 H   0  0  0  0  0  0  0  0  0  0  0  0
  149.1495  159.5159  132.7888 H   0  0  0  0  0  0  0  0  0  0  0  0
  149.6130  157.0437  132.7199 H   0  0  0  0  0  0  0  0  0  0  0  0
  145.4452  156.2320  133.7043 H   0  0  0  0  0  0  0  0  0  0  0  0
  141.8022  156.4993  132.0897 H   0  0  0  0  0  0  0  0  0  0  0  0
  141.2610  156.5802  133.7908 H   0  0  0  0  0  0  0  0  0  0  0  0
  141.6570  159.8390  133.4550 H   0  0  0  0  0  0  0  0  0  0  0  0
  1  2  1  0
  2  3  2  0
  2  4  1  0
  4  5  2  0
  5  6  1  0
  6  7  2  0
  7  8  1  0
  8  9  2  0
  9 10  1  0
 10 11  1  0
 10 12  1  0
 10 13  1  0
  9 14  1  0
 14 15  2  0
 15 16  1  0
 16 17  1  0
 17 18  2  0
 17 19  1  0
 19 20  1  0
 20 21  1  0
 21 22  1  0
 22 23  2  0
 22 24  1  0
 16  4  1  0
 15  6  1  0
  1 25  1  0
  5 26  1  0
  7 27  1  0
  8 28  1  0
 14 29  1  0
 20 30  1  0
 20 31  1  0
 21 32  1  0
M  CHG  2   1  -1  24  -1
M  END
>  <UniqueID>  (60) 
60

>  <SMILES>  (60) 
[NH-]C(=O)c1cc2ccc(C(F)(F)F)cc2n1C(=O)OC[P@@H]C(=O)[O-]

>  <Energy>  (60) 
104.26304119114496

>  <Genealogy>  (60) 
[NH-]C(=O)c1cc2ccc(C(F)(F)F)cc2n1C(=O)OCPC(=O)[O-] (protonated)
[NH-]C(=O)c1cc2ccc(C(F)(F)F)cc2n1C(=O)OC[P@@H]C(=O)[O-] (chirality)
[NH-]C(=O)c1cc2ccc(C(F)(F)F)cc2n1C(=O)OC[P@@H]C(=O)[O-] (3D coordinates assigned)
[NH-]C(=O)c1cc2ccc(C(F)(F)F)cc2n1C(=O)OC[P@@H]C(=O)[O-] (optimized conformer: 104.26304119114496 kcal/mol)

>  <smiles>  (60) 
NC(=O)c1cc2ccc(C(F)(F)F)cc2n1C(=O)OCPC(=O)O

>  <score_type>  (60) 
oracle

>  <origin>  (60) 
adg

>  <m_score__min__energy>  (60) 
-6.2400000000000002

>  <m_primary>  (60) 
energy

$$$$
61:0
     RDKit          3D

 44 45  0  0  0  0  0  0  0  0999 V2000
  139.7430  158.8970  132.6990 C   0  0  0  0  0  0  0  0  0  0  0  0
  140.6210  158.7960  133.8710 N   0  0  0  0  0  0  0  0  0  0  0  0
  140.0800  158.2430  135.1190 C   0  0  0  0  0  0  0  0  0  0  0  0
  142.0040  159.2310  133.7970 C   0  0  0  0  0  0  0  0  0  0  0  0
  142.3320  160.6150  133.7980 C   0  0  0  0  0  0  0  0  0  0  0  0
  143.6680  161.0440  133.7400 C   0  0  0  0  0  0  0  0  0  0  0  0
  144.6620  160.0760  133.6590 C   0  0  0  0  0  0  0  0  0  0  0  0
  146.0300  160.2150  133.6470 C   0  0  0  0  0  0  0  0  0  0  0  0
  146.5320  158.9180  133.5970 C   0  0  0  0  0  0  0  0  0  0  0  0
  147.9810  158.6100  133.6020 C   0  0  0  0  0  0  0  0  0  0  0  0
  148.4700  157.2870  133.8210 N   0  0  0  0  0  0  0  0  0  0  0  0
  148.8040  159.5350  133.3660 O   0  0  0  0  0  0  0  0  0  0  0  0
  145.5140  158.0100  133.5750 N   0  0  0  0  0  0  0  0  0  0  0  0
  145.6260  156.5760  133.6200 C   0  0  0  0  0  0  0  0  0  0  0  0
  146.2540  155.9760  132.7060 O   0  0  0  0  0  0  0  0  0  0  0  0
  145.0110  155.7650  134.7290 C   0  0  0  0  0  0  0  0  0  0  0  0
  145.5400  154.4390  134.7770 O   0  0  0  0  0  0  0  0  0  0  0  0
  146.8200  154.1310  135.2430 C   0  0  0  0  0  0  0  0  0  0  0  0
  146.9850  153.6600  136.4010 O   0  0  0  0  0  0  0  0  0  0  0  0
  147.9160  154.3620  134.4070 O   0  0  0  0  0  0  0  0  0  0  0  0
  148.4830  153.3640  133.5590 C   0  0  0  0  0  0  0  0  0  0  0  0
  149.4620  153.9920  132.5670 C   0  0  0  0  0  0  0  0  0  0  0  0
  149.2870  155.3810  132.5280 O   0  0  0  0  0  0  0  0  0  0  0  0
  144.3750  158.7380  133.6290 C   0  0  0  0  0  0  0  0  0  0  0  0
  143.0550  158.2810  133.7260 C   0  0  0  0  0  0  0  0  0  0  0  0
  138.7011  159.0169  133.0307 H   0  0  0  0  0  0  0  0  0  0  0  0
  140.0376  159.7672  132.0940 H   0  0  0  0  0  0  0  0  0  0  0  0
  139.8323  157.9827  132.0940 H   0  0  0  0  0  0  0  0  0  0  0  0
  140.5613  158.7350  135.9771 H   0  0  0  0  0  0  0  0  0  0  0  0
  138.9947  158.4179  135.1574 H   0  0  0  0  0  0  0  0  0  0  0  0
  140.2787  157.1618  135.1574 H   0  0  0  0  0  0  0  0  0  0  0  0
  141.5257  161.3618  133.8450 H   0  0  0  0  0  0  0  0  0  0  0  0
  143.9203  162.1145  133.7582 H   0  0  0  0  0  0  0  0  0  0  0  0
  146.6053  161.1522  133.6717 H   0  0  0  0  0  0  0  0  0  0  0  0
  147.8330  156.4630  133.8390 H   0  0  0  0  0  0  0  0  0  0  0  0
  149.4990  157.1140  133.8730 H   0  0  0  0  0  0  0  0  0  0  0  0
  145.2137  156.2635  135.6884 H   0  0  0  0  0  0  0  0  0  0  0  0
  143.9298  155.6936  134.5393 H   0  0  0  0  0  0  0  0  0  0  0  0
  149.0172  152.6265  134.1761 H   0  0  0  0  0  0  0  0  0  0  0  0
  147.6736  152.8756  132.9967 H   0  0  0  0  0  0  0  0  0  0  0  0
  150.4919  153.7642  132.8793 H   0  0  0  0  0  0  0  0  0  0  0  0
  149.2729  153.5782  131.5655 H   0  0  0  0  0  0  0  0  0  0  0  0
  148.3140  155.5490  132.6380 H   0  0  0  0  0  0  0  0  0  0  0  0
  142.8366  157.2031  133.7468 H   0  0  0  0  0  0  0  0  0  0  0  0
  1  2  1  0
  2  3  1  0
  2  4  1  0
  4  5  2  0
  5  6  1  0
  6  7  2  0
  7  8  1  0
  8  9  2  0
  9 10  1  0
 10 11  1  0
 10 12  2  0
  9 13  1  0
 13 14  1  0
 14 15  2  0
 14 16  1  0
 16 17  1  0
 17 18  1  0
 18 19  2  0
 18 20  1  0
 20 21  1  0
 21 22  1  0
 22 23  1  0
 13 24  1  0
 24 25  2  0
 25  4  1  0
 24  7  1  0
  1 26  1  0
  1 27  1  0
  1 28  1  0
  3 29  1  0
  3 30  1  0
  3 31  1  0
  5 32  1  0
  6 33  1  0
  8 34  1  0
 11 35  1  0
 11 36  1  0
 16 37  1  0
 16 38  1  0
 21 39  1  0
 21 40  1  0
 22 41  1  0
 22 42  1  0
 23 43  1  0
 25 44  1  0
M  END
>  <UniqueID>  (61) 
61

>  <SMILES>  (61) 
CN(C)c1ccc2cc(C(N)=O)n(C(=O)COC(=O)OCCO)c2c1

>  <Energy>  (61) 
79.68853032871233

>  <Genealogy>  (61) 
CN(C)c1ccc2cc(C(N)=O)n(C(=O)COC(=O)OCCO)c2c1 (3D coordinates assigned)
CN(C)c1ccc2cc(C(N)=O)n(C(=O)COC(=O)OCCO)c2c1 (optimized conformer: 79.68853032871233 kcal/mol)

>  <smiles>  (61) 
CN(C)c1ccc2cc(C(N)=O)n(C(=O)COC(=O)OCCO)c2c1

>  <score_type>  (61) 
oracle

>  <origin>  (61) 
adg

>  <m_score__min__energy>  (61) 
-5.71

>  <m_primary>  (61) 
energy

$$$$
62:0
     RDKit          3D

 33 34  0  0  0  0  0  0  0  0999 V2000
  146.6080  160.6290  133.0260 N   0  0  0  0  0  0  0  0  0  0  0  0
  145.7730  159.5700  133.5000 C   0  0  0  0  0  0  0  0  0  0  0  0
  144.6780  159.8580  134.0530 O   0  0  0  0  0  0  0  0  0  0  0  0
  146.1700  158.1530  133.3330 C   0  0  0  0  0  0  0  0  0  0  0  0
  145.2870  157.0740  133.3770 C   0  0  0  0  0  0  0  0  0  0  0  0
  146.0720  155.9540  133.2310 C   0  0  0  0  0  0  0  0  0  0  0  0
  145.7150  154.6080  133.1970 C   0  0  0  0  0  0  0  0  0  0  0  0
  146.7360  153.6610  133.0100 C   0  0  0  0  0  0  0  0  0  0  0  0
  148.0830  154.0700  132.8340 C   0  0  0  0  0  0  0  0  0  0  0  0
  149.1750  153.0440  132.6710 C   0  0  0  0  0  0  0  0  0  0  0  0
  150.3600  153.6470  132.2880 F   0  0  0  0  0  0  0  0  0  0  0  0
  148.8300  152.1150  131.7030 F   0  0  0  0  0  0  0  0  0  0  0  0
  149.3690  152.3910  133.8740 F   0  0  0  0  0  0  0  0  0  0  0  0
  148.4050  155.4460  132.8980 C   0  0  0  0  0  0  0  0  0  0  0  0
  147.3720  156.3650  133.1050 C   0  0  0  0  0  0  0  0  0  0  0  0
  147.4500  157.7110  133.1720 N   0  0  0  0  0  0  0  0  0  0  0  0
  148.6330  158.5120  133.0350 C   0  0  0  0  0  0  0  0  0  0  0  0
  148.9280  159.3400  133.9390 O   0  0  0  0  0  0  0  0  0  0  0  0
  149.5900  158.2660  131.8970 C   0  0  0  0  0  0  0  0  0  0  0  0
  149.1500  158.9250  130.5810 C   0  0  0  0  0  0  0  0  0  0  0  0
  148.5450  160.2760  130.8090 C   0  0  0  0  0  0  0  0  0  0  0  0
  147.3700  160.5160  130.4240 O   0  0  0  0  0  0  0  0  0  0  0  0
  149.2630  161.2570  131.4820 O   0  0  0  0  0  0  0  0  0  0  0  0
  147.5520  160.4410  132.6250 H   0  0  0  0  0  0  0  0  0  0  0  0
  146.2960  161.6210  133.1200 H   0  0  0  0  0  0  0  0  0  0  0  0
  144.1947  157.1110  133.5019 H   0  0  0  0  0  0  0  0  0  0  0  0
  144.6665  154.2962  133.3129 H   0  0  0  0  0  0  0  0  0  0  0  0
  146.4879  152.5894  132.9999 H   0  0  0  0  0  0  0  0  0  0  0  0
  149.4454  155.7855  132.7873 H   0  0  0  0  0  0  0  0  0  0  0  0
  150.5753  158.6674  132.1763 H   0  0  0  0  0  0  0  0  0  0  0  0
  149.6191  157.1801  131.7242 H   0  0  0  0  0  0  0  0  0  0  0  0
  150.0276  159.0340  129.9268 H   0  0  0  0  0  0  0  0  0  0  0  0
  148.3869  158.2833  130.1164 H   0  0  0  0  0  0  0  0  0  0  0  0
  1  2  1  0
  2  3  2  0
  2  4  1  0
  4  5  2  0
  5  6  1  0
  6  7  2  0
  7  8  1  0
  8  9  2  0
  9 10  1  0
 10 11  1  0
 10 12  1  0
 10 13  1  0
  9 14  1  0
 14 15  2  0
 15 16  1  0
 16 17  1  0
 17 18  2  0
 17 19  1  0
 19 20  1  0
 20 21  1  0
 21 22  2  0
 21 23  1  0
 16  4  1  0
 15  6  1  0
  1 24  1  0
  1 25  1  0
  5 26  1  0
  7 27  1  0
  8 28  1  0
 14 29  1  0
 19 30  1  0
 19 31  1  0
 20 32  1  0
 20 33  1  0
M  CHG  1  23  -1
M  END
>  <UniqueID>  (62) 
62

>  <SMILES>  (62) 
NC(=O)c1cc2ccc(C(F)(F)F)cc2n1C(=O)CCC(=O)[O-]

>  <Energy>  (62) 
70.64723463453683

>  <Genealogy>  (62) 
NC(=O)c1cc2ccc(C(F)(F)F)cc2n1C(=O)CCC(=O)[O-] (protonated)
NC(=O)c1cc2ccc(C(F)(F)F)cc2n1C(=O)CCC(=O)[O-] (3D coordinates assigned)
NC(=O)c1cc2ccc(C(F)(F)F)cc2n1C(=O)CCC(=O)[O-] (optimized conformer: 70.64723463453683 kcal/mol)

>  <smiles>  (62) 
NC(=O)c1cc2ccc(C(F)(F)F)cc2n1C(=O)CCC(=O)O

>  <score_type>  (62) 
oracle

>  <origin>  (62) 
adg

>  <m_score__min__energy>  (62) 
-6.4500000000000002

>  <m_primary>  (62) 
energy

$$$$
63:0
     RDKit          3D

 37 39  0  0  0  0  0  0  0  0999 V2000
  149.8440  157.2100  132.2080 N   0  0  0  0  0  0  0  0  0  0  0  0
  149.2930  158.5230  132.2240 C   0  0  0  0  0  0  0  0  0  0  0  0
  150.0040  159.4910  131.8500 O   0  0  0  0  0  0  0  0  0  0  0  0
  147.8980  158.7340  132.6680 C   0  0  0  0  0  0  0  0  0  0  0  0
  147.3520  159.9810  132.9740 C   0  0  0  0  0  0  0  0  0  0  0  0
  146.0480  159.7270  133.3480 C   0  0  0  0  0  0  0  0  0  0  0  0
  145.0430  160.5980  133.7610 C   0  0  0  0  0  0  0  0  0  0  0  0
  143.7930  160.0480  134.1010 C   0  0  0  0  0  0  0  0  0  0  0  0
  143.5740  158.6450  134.0400 C   0  0  0  0  0  0  0  0  0  0  0  0
  142.2200  158.0740  134.3810 C   0  0  0  0  0  0  0  0  0  0  0  0
  142.3420  156.7590  134.8020 F   0  0  0  0  0  0  0  0  0  0  0  0
  141.6480  158.8220  135.3970 F   0  0  0  0  0  0  0  0  0  0  0  0
  141.3840  158.1040  133.2770 F   0  0  0  0  0  0  0  0  0  0  0  0
  144.6140  157.7980  133.5860 C   0  0  0  0  0  0  0  0  0  0  0  0
  145.8440  158.3740  133.2570 C   0  0  0  0  0  0  0  0  0  0  0  0
  146.9660  157.7550  132.8420 N   0  0  0  0  0  0  0  0  0  0  0  0
  147.1210  156.3480  132.6190 C   0  0  0  0  0  0  0  0  0  0  0  0
  146.6890  155.8380  131.5520 O   0  0  0  0  0  0  0  0  0  0  0  0
  147.7400  155.4990  133.6530 C   0  0  0  0  0  0  0  0  0  0  0  0
  148.7680  154.8320  133.3570 O   0  0  0  0  0  0  0  0  0  0  0  0
  147.2070  155.4360  134.9900 N   0  0  0  0  0  0  0  0  0  0  0  0
  145.7610  155.2850  135.2170 C   0  0  0  0  0  0  0  0  0  0  0  0
  145.4940  153.9480  135.8490 C   0  0  0  0  0  0  0  0  0  0  0  0
  144.3670  153.4030  135.7240 O   0  0  0  0  0  0  0  0  0  0  0  0
  146.5130  153.3060  136.6230 N   0  0  0  0  0  0  0  0  0  0  0  0
  147.8030  153.9020  136.7790 C   0  0  0  0  0  0  0  0  0  0  0  0
  148.6670  153.3370  137.4990 O   0  0  0  0  0  0  0  0  0  0  0  0
  148.1020  155.2290  136.1370 C   0  0  0  0  0  0  0  0  0  0  0  0
  149.2750  156.3900  131.8970 H   0  0  0  0  0  0  0  0  0  0  0  0
  147.8541  160.9586  132.9271 H   0  0  0  0  0  0  0  0  0  0  0  0
  145.2206  161.6820  133.8196 H   0  0  0  0  0  0  0  0  0  0  0  0
  142.9754  160.7121  134.4179 H   0  0  0  0  0  0  0  0  0  0  0  0
  144.4575  156.7130  133.4945 H   0  0  0  0  0  0  0  0  0  0  0  0
  145.4086  156.0843  135.8855 H   0  0  0  0  0  0  0  0  0  0  0  0
  145.2285  155.3514  134.2568 H   0  0  0  0  0  0  0  0  0  0  0  0
  147.9479  156.0336  136.8711 H   0  0  0  0  0  0  0  0  0  0  0  0
  149.1463  155.2399  135.7914 H   0  0  0  0  0  0  0  0  0  0  0  0
  1  2  1  0
  2  3  2  0
  2  4  1  0
  4  5  2  0
  5  6  1  0
  6  7  2  0
  7  8  1  0
  8  9  2  0
  9 10  1  0
 10 11  1  0
 10 12  1  0
 10 13  1  0
  9 14  1  0
 14 15  2  0
 15 16  1  0
 16 17  1  0
 17 18  2  0
 17 19  1  0
 19 20  2  0
 19 21  1  0
 21 22  1  0
 22 23  1  0
 23 24  2  0
 23 25  1  0
 25 26  1  0
 26 27  2  0
 26 28  1  0
 16  4  1  0
 28 21  1  0
 15  6  1  0
  1 29  1  0
  5 30  1  0
  7 31  1  0
  8 32  1  0
 14 33  1  0
 22 34  1  0
 22 35  1  0
 28 36  1  0
 28 37  1  0
M  CHG  2   1  -1  25  -1
M  END
>  <UniqueID>  (63) 
63

>  <SMILES>  (63) 
[NH-]C(=O)c1cc2ccc(C(F)(F)F)cc2n1C(=O)C(=O)N1CC(=O)[N-]C(=O)C1

>  <Energy>  (63) 
83.43124129734198

>  <Genealogy>  (63) 
[NH-]C(=O)c1cc2ccc(C(F)(F)F)cc2n1C(=O)C(=O)N1CC(=O)[N-]C(=O)C1 (protonated)
[NH-]C(=O)c1cc2ccc(C(F)(F)F)cc2n1C(=O)C(=O)N1CC(=O)[N-]C(=O)C1 (3D coordinates assigned)
[NH-]C(=O)c1cc2ccc(C(F)(F)F)cc2n1C(=O)C(=O)N1CC(=O)[N-]C(=O)C1 (nonaromatic ring conformer: 83.43124129734198 kcal/mol)

>  <smiles>  (63) 
NC(=O)c1cc2ccc(C(F)(F)F)cc2n1C(=O)C(=O)N1CC(=O)NC(=O)C1

>  <score_type>  (63) 
oracle

>  <origin>  (63) 
adg

>  <m_score__min__energy>  (63) 
-7.4100000000000001

>  <m_primary>  (63) 
energy

$$$$
64:0
     RDKit          3D

 45 47  0  0  0  0  0  0  0  0999 V2000
  142.8820  156.3000  133.3390 N   0  0  0  0  0  0  0  0  0  0  0  0
  142.9700  155.1230  134.1370 C   0  0  0  0  0  0  0  0  0  0  0  0
  143.3840  155.2120  135.3230 O   0  0  0  0  0  0  0  0  0  0  0  0
  142.6130  153.8110  133.5560 C   0  0  0  0  0  0  0  0  0  0  0  0
  143.4980  152.7360  133.4890 C   0  0  0  0  0  0  0  0  0  0  0  0
  142.7640  151.6910  132.9750 C   0  0  0  0  0  0  0  0  0  0  0  0
  143.1440  150.3820  132.7010 C   0  0  0  0  0  0  0  0  0  0  0  0
  142.1810  149.5170  132.1560 C   0  0  0  0  0  0  0  0  0  0  0  0
  140.8690  149.9790  131.8710 C   0  0  0  0  0  0  0  0  0  0  0  0
  139.8340  149.0310  131.3200 C   0  0  0  0  0  0  0  0  0  0  0  0
  140.3420  147.7460  131.2370 F   0  0  0  0  0  0  0  0  0  0  0  0
  139.4620  149.4500  130.0570 F   0  0  0  0  0  0  0  0  0  0  0  0
  138.7150  149.0020  132.1340 F   0  0  0  0  0  0  0  0  0  0  0  0
  140.5160  151.3120  132.1860 C   0  0  0  0  0  0  0  0  0  0  0  0
  141.4920  152.1450  132.7450 C   0  0  0  0  0  0  0  0  0  0  0  0
  141.3830  153.4470  133.0940 N   0  0  0  0  0  0  0  0  0  0  0  0
  140.2160  154.2700  132.9460 C   0  0  0  0  0  0  0  0  0  0  0  0
  139.0690  153.7470  132.9790 O   0  0  0  0  0  0  0  0  0  0  0  0
  140.3580  155.6530  132.7890 O   0  0  0  0  0  0  0  0  0  0  0  0
  139.3010  156.5840  133.0230 C   0  0  0  0  0  0  0  0  0  0  0  0
  139.5960  157.4650  134.2210 C   0  0  0  0  0  0  0  0  0  0  0  0
  138.7120  158.2060  134.6340 O   0  0  0  0  0  0  0  0  0  0  0  0
  140.8710  157.4270  134.9250 N   0  0  0  0  0  0  0  0  0  0  0  0
  140.7820  156.7820  136.2650 C   0  0  0  0  0  0  0  0  0  0  0  0
  140.8450  157.7820  137.4320 C   0  0  0  0  0  0  0  0  0  0  0  0
  140.2140  159.0410  137.0490 N   0  0  0  0  0  0  0  0  0  0  0  0
  141.0030  159.7180  136.0120 C   0  0  0  0  0  0  0  0  0  0  0  0
  141.5420  158.7470  134.9360 C   0  0  0  0  0  0  0  0  0  0  0  0
  142.3980  156.2880  132.4140 H   0  0  0  0  0  0  0  0  0  0  0  0
  144.5576  152.7251  133.7841 H   0  0  0  0  0  0  0  0  0  0  0  0
  144.1675  150.0344  132.9048 H   0  0  0  0  0  0  0  0  0  0  0  0
  142.4462  148.4700  131.9476 H   0  0  0  0  0  0  0  0  0  0  0  0
  139.4987  151.6850  131.9962 H   0  0  0  0  0  0  0  0  0  0  0  0
  139.1795  157.2189  132.1330 H   0  0  0  0  0  0  0  0  0  0  0  0
  138.3799  156.0184  133.2272 H   0  0  0  0  0  0  0  0  0  0  0  0
  141.4970  156.8060  134.3550 H   0  0  0  0  0  0  0  0  0  0  0  0
  139.8294  156.2353  136.3258 H   0  0  0  0  0  0  0  0  0  0  0  0
  141.6519  156.1158  136.3621 H   0  0  0  0  0  0  0  0  0  0  0  0
  140.3182  157.3607  138.3009 H   0  0  0  0  0  0  0  0  0  0  0  0
  141.8981  157.9706  137.6878 H   0  0  0  0  0  0  0  0  0  0  0  0
  140.1820  159.6610  137.8920 H   0  0  0  0  0  0  0  0  0  0  0  0
  140.3663  160.4683  135.5204 H   0  0  0  0  0  0  0  0  0  0  0  0
  141.8714  160.1784  136.5059 H   0  0  0  0  0  0  0  0  0  0  0  0
  141.4042  159.2132  133.9493 H   0  0  0  0  0  0  0  0  0  0  0  0
  142.6002  158.5639  135.1742 H   0  0  0  0  0  0  0  0  0  0  0  0
  1  2  1  0
  2  3  2  0
  2  4  1  0
  4  5  2  0
  5  6  1  0
  6  7  2  0
  7  8  1  0
  8  9  2  0
  9 10  1  0
 10 11  1  0
 10 12  1  0
 10 13  1  0
  9 14  1  0
 14 15  2  0
 15 16  1  0
 16 17  1  0
 17 18  2  0
 17 19  1  0
 19 20  1  0
 20 21  1  0
 21 22  2  0
 21 23  1  0
 23 24  1  0
 24 25  1  0
 25 26  1  0
 26 27  1  0
 27 28  1  0
 16  4  1  0
 28 23  1  0
 15  6  1  0
  1 29  1  0
  5 30  1  0
  7 31  1  0
  8 32  1  0
 14 33  1  0
 20 34  1  0
 20 35  1  0
 23 36  1  0
 24 37  1  0
 24 38  1  0
 25 39  1  0
 25 40  1  0
 26 41  1  0
 27 42  1  0
 27 43  1  0
 28 44  1  0
 28 45  1  0
M  CHG  2   1  -1  23   1
M  END
>  <UniqueID>  (64) 
64

>  <SMILES>  (64) 
[NH-]C(=O)c1cc2ccc(C(F)(F)F)cc2n1C(=O)OCC(=O)[NH+]1CCNCC1

>  <Energy>  (64) 
98.37702345085341

>  <Genealogy>  (64) 
[NH-]C(=O)c1cc2ccc(C(F)(F)F)cc2n1C(=O)OCC(=O)[NH+]1CCNCC1 (protonated)
[NH-]C(=O)c1cc2ccc(C(F)(F)F)cc2n1C(=O)OCC(=O)[NH+]1CCNCC1 (3D coordinates assigned)
[NH-]C(=O)c1cc2ccc(C(F)(F)F)cc2n1C(=O)OCC(=O)[NH+]1CCNCC1 (nonaromatic ring conformer: 98.37702345085341 kcal/mol)

>  <smiles>  (64) 
NC(=O)c1cc2ccc(C(F)(F)F)cc2n1C(=O)OCC(=O)N1CCNCC1

>  <score_type>  (64) 
oracle

>  <origin>  (64) 
adg

>  <m_score__min__energy>  (64) 
-7.3099999999999996

>  <m_primary>  (64) 
energy

$$$$
65:0
     RDKit          3D

 38 40  0  0  0  0  0  0  0  0999 V2000
  145.0820  154.7940  131.9810 C   0  0  0  0  0  0  0  0  0  0  0  0
  146.1320  155.6420  132.4290 O   0  0  0  0  0  0  0  0  0  0  0  0
  146.0120  156.4610  133.5550 C   0  0  0  0  0  0  0  0  0  0  0  0
  146.0400  155.9570  134.7120 O   0  0  0  0  0  0  0  0  0  0  0  0
  145.8540  157.8810  133.3950 N   0  0  0  0  0  0  0  0  0  0  0  0
  146.8160  158.7930  133.0800 C   0  0  0  0  0  0  0  0  0  0  0  0
  148.2000  158.4840  132.6690 C   0  0  0  0  0  0  0  0  0  0  0  0
  148.4980  157.3280  131.8820 N   0  0  0  0  0  0  0  0  0  0  0  0
  149.1280  159.2800  132.9700 O   0  0  0  0  0  0  0  0  0  0  0  0
  146.3100  160.0870  133.1470 C   0  0  0  0  0  0  0  0  0  0  0  0
  144.9890  159.9410  133.5040 C   0  0  0  0  0  0  0  0  0  0  0  0
  144.0130  160.9070  133.7300 C   0  0  0  0  0  0  0  0  0  0  0  0
  142.7380  160.4740  134.1300 C   0  0  0  0  0  0  0  0  0  0  0  0
  142.4640  159.0950  134.3050 C   0  0  0  0  0  0  0  0  0  0  0  0
  141.1230  158.6530  134.7430 C   0  0  0  0  0  0  0  0  0  0  0  0
  140.0530  158.2580  133.9540 C   0  0  0  0  0  0  0  0  0  0  0  0
  140.0090  158.1920  132.4610 C   0  0  0  0  0  0  0  0  0  0  0  0
  139.0090  157.9370  134.7410 N   0  0  0  0  0  0  0  0  0  0  0  0
  139.3680  158.1030  136.0060 N   0  0  0  0  0  0  0  0  0  0  0  0
  140.6410  158.5400  136.0360 C   0  0  0  0  0  0  0  0  0  0  0  0
  141.3780  158.8380  137.3020 C   0  0  0  0  0  0  0  0  0  0  0  0
  143.4820  158.1440  134.0680 C   0  0  0  0  0  0  0  0  0  0  0  0
  144.7380  158.6010  133.6510 C   0  0  0  0  0  0  0  0  0  0  0  0
  144.5571  154.3701  132.8498 H   0  0  0  0  0  0  0  0  0  0  0  0
  144.3741  155.3767  131.3733 H   0  0  0  0  0  0  0  0  0  0  0  0
  145.5027  153.9793  131.3733 H   0  0  0  0  0  0  0  0  0  0  0  0
  149.4870  157.1040  131.6350 H   0  0  0  0  0  0  0  0  0  0  0  0
  147.7360  156.7440  131.4730 H   0  0  0  0  0  0  0  0  0  0  0  0
  146.8501  161.0260  132.9556 H   0  0  0  0  0  0  0  0  0  0  0  0
  144.2333  161.9768  133.5994 H   0  0  0  0  0  0  0  0  0  0  0  0
  141.9437  161.2136  134.3093 H   0  0  0  0  0  0  0  0  0  0  0  0
  139.4238  157.3141  132.1499 H   0  0  0  0  0  0  0  0  0  0  0  0
  139.5381  159.1048  132.0673 H   0  0  0  0  0  0  0  0  0  0  0  0
  141.0328  158.1085  132.0673 H   0  0  0  0  0  0  0  0  0  0  0  0
  140.7445  158.5819  138.1640 H   0  0  0  0  0  0  0  0  0  0  0  0
  142.3026  158.2431  137.3368 H   0  0  0  0  0  0  0  0  0  0  0  0
  141.6292  159.9084  137.3368 H   0  0  0  0  0  0  0  0  0  0  0  0
  143.2920  157.0696  134.2079 H   0  0  0  0  0  0  0  0  0  0  0  0
  1  2  1  0
  2  3  1  0
  3  4  2  0
  3  5  1  0
  5  6  1  0
  6  7  1  0
  7  8  1  0
  7  9  2  0
  6 10  2  0
 10 11  1  0
 11 12  2  0
 12 13  1  0
 13 14  2  0
 14 15  1  0
 15 16  1  0
 16 17  1  0
 16 18  2  0
 18 19  1  0
 19 20  1  0
 20 21  1  0
 14 22  1  0
 22 23  2  0
 23  5  1  0
 23 11  1  0
 20 15  2  0
  1 24  1  0
  1 25  1  0
  1 26  1  0
  8 27  1  0
  8 28  1  0
 10 29  1  0
 12 30  1  0
 13 31  1  0
 17 32  1  0
 17 33  1  0
 17 34  1  0
 21 35  1  0
 21 36  1  0
 21 37  1  0
 22 38  1  0
M  CHG  1  19  -1
M  END
>  <UniqueID>  (65) 
65

>  <SMILES>  (65) 
COC(=O)n1c(C(N)=O)cc2ccc(-c3c(C)n[n-]c3C)cc21

>  <Energy>  (65) 
110.10920092320491

>  <Genealogy>  (65) 
COC(=O)n1c(C(N)=O)cc2ccc(-c3c(C)n[n-]c3C)cc21 (protonated)
COC(=O)n1c(C(N)=O)cc2ccc(-c3c(C)n[n-]c3C)cc21 (3D coordinates assigned)
COC(=O)n1c(C(N)=O)cc2ccc(-c3c(C)n[n-]c3C)cc21 (optimized conformer: 110.10920092320491 kcal/mol)

>  <smiles>  (65) 
COC(=O)n1c(C(N)=O)cc2ccc(-c3c(C)n[nH]c3C)cc21

>  <score_type>  (65) 
oracle

>  <origin>  (65) 
adg

>  <m_score__min__energy>  (65) 
-7.4699999999999998

>  <m_primary>  (65) 
energy

$$$$
66:0
     RDKit          3D

 38 40  0  0  0  0  0  0  0  0999 V2000
  141.0760  156.3870  133.9130 C   0  0  0  0  0  0  0  0  0  0  0  0
  141.2800  157.8020  134.2470 N   0  0  0  0  0  0  0  0  0  0  0  0
  140.1720  158.5420  134.8710 C   0  0  0  0  0  0  0  0  0  0  0  0
  140.2500  158.4540  136.3640 C   0  0  0  0  0  0  0  0  0  0  0  0
  139.6680  157.5180  136.9740 O   0  0  0  0  0  0  0  0  0  0  0  0
  141.0020  159.3760  137.0820 O   0  0  0  0  0  0  0  0  0  0  0  0
  142.5600  158.4390  133.9880 C   0  0  0  0  0  0  0  0  0  0  0  0
  142.6830  159.8560  133.9910 C   0  0  0  0  0  0  0  0  0  0  0  0
  143.9160  160.4780  133.7330 C   0  0  0  0  0  0  0  0  0  0  0  0
  145.0170  159.6670  133.4830 C   0  0  0  0  0  0  0  0  0  0  0  0
  146.3150  160.0060  133.1810 C   0  0  0  0  0  0  0  0  0  0  0  0
  146.9850  158.7960  133.0210 C   0  0  0  0  0  0  0  0  0  0  0  0
  148.4390  158.6990  132.7710 C   0  0  0  0  0  0  0  0  0  0  0  0
  148.9650  157.7300  131.8670 N   0  0  0  0  0  0  0  0  0  0  0  0
  149.2310  159.4490  133.3990 O   0  0  0  0  0  0  0  0  0  0  0  0
  146.1310  157.7500  133.2080 N   0  0  0  0  0  0  0  0  0  0  0  0
  146.4020  156.3480  133.0560 C   0  0  0  0  0  0  0  0  0  0  0  0
  145.5840  155.6160  132.4340 O   0  0  0  0  0  0  0  0  0  0  0  0
  147.5820  155.8150  133.5920 O   0  0  0  0  0  0  0  0  0  0  0  0
  148.3090  154.7420  133.0570 C   0  0  0  0  0  0  0  0  0  0  0  0
  147.9270  153.4150  132.9810 C   0  0  0  0  0  0  0  0  0  0  0  0
  149.0150  152.7990  132.4030 C   0  0  0  0  0  0  0  0  0  0  0  0
  149.9380  153.7050  132.1740 O   0  0  0  0  0  0  0  0  0  0  0  0
  149.5500  154.8860  132.5590 N   0  0  0  0  0  0  0  0  0  0  0  0
  144.9310  158.3010  133.4950 C   0  0  0  0  0  0  0  0  0  0  0  0
  143.7120  157.6540  133.7270 C   0  0  0  0  0  0  0  0  0  0  0  0
  140.9914  155.8001  134.8395 H   0  0  0  0  0  0  0  0  0  0  0  0
  140.1529  156.2785  133.3246 H   0  0  0  0  0  0  0  0  0  0  0  0
  141.9308  156.0222  133.3246 H   0  0  0  0  0  0  0  0  0  0  0  0
  140.2276  159.5981  134.5683 H   0  0  0  0  0  0  0  0  0  0  0  0
  139.2209  158.0993  134.5402 H   0  0  0  0  0  0  0  0  0  0  0  0
  141.7979  160.4752  134.1988 H   0  0  0  0  0  0  0  0  0  0  0  0
  144.0075  161.5742  133.7289 H   0  0  0  0  0  0  0  0  0  0  0  0
  146.7349  161.0183  133.0860 H   0  0  0  0  0  0  0  0  0  0  0  0
  148.6380  156.7390  131.8920 H   0  0  0  0  0  0  0  0  0  0  0  0
  146.9795  152.9597  133.3051 H   0  0  0  0  0  0  0  0  0  0  0  0
  149.0972  151.7267  132.1717 H   0  0  0  0  0  0  0  0  0  0  0  0
  143.6484  156.5560  133.7073 H   0  0  0  0  0  0  0  0  0  0  0  0
  1  2  1  0
  2  3  1  0
  3  4  1  0
  4  5  2  0
  4  6  1  0
  2  7  1  0
  7  8  2  0
  8  9  1  0
  9 10  2  0
 10 11  1  0
 11 12  2  0
 12 13  1  0
 13 14  1  0
 13 15  2  0
 12 16  1  0
 16 17  1  0
 17 18  2  0
 17 19  1  0
 19 20  1  0
 20 21  1  0
 21 22  2  0
 22 23  1  0
 23 24  1  0
 16 25  1  0
 25 26  2  0
 26  7  1  0
 25 10  1  0
 24 20  2  0
  1 27  1  0
  1 28  1  0
  1 29  1  0
  3 30  1  0
  3 31  1  0
  8 32  1  0
  9 33  1  0
 11 34  1  0
 14 35  1  0
 21 36  1  0
 22 37  1  0
 26 38  1  0
M  CHG  2   6  -1  14  -1
M  END
>  <UniqueID>  (66) 
66

>  <SMILES>  (66) 
CN(CC(=O)[O-])c1ccc2cc(C([NH-])=O)n(C(=O)Oc3ccon3)c2c1

>  <Energy>  (66) 
114.35764946864367

>  <Genealogy>  (66) 
CN(CC(=O)[O-])c1ccc2cc(C([NH-])=O)n(C(=O)Oc3ccon3)c2c1 (protonated)
CN(CC(=O)[O-])c1ccc2cc(C([NH-])=O)n(C(=O)Oc3ccon3)c2c1 (3D coordinates assigned)
CN(CC(=O)[O-])c1ccc2cc(C([NH-])=O)n(C(=O)Oc3ccon3)c2c1 (optimized conformer: 114.35764946864367 kcal/mol)

>  <smiles>  (66) 
CN(CC(=O)O)c1ccc2cc(C(N)=O)n(C(=O)Oc3ccon3)c2c1

>  <score_type>  (66) 
oracle

>  <origin>  (66) 
adg

>  <m_score__min__energy>  (66) 
-7.1399999999999997

>  <m_primary>  (66) 
energy

$$$$
67:0
     RDKit          3D

 48 49  0  0  0  0  0  0  0  0999 V2000
  139.1470  157.8560  133.9900 C   0  0  0  0  0  0  0  0  0  0  0  0
  139.9920  157.9620  132.7840 N   0  0  1  0  0  0  0  0  0  0  0  0
  139.8870  159.3240  132.2030 C   0  0  0  0  0  0  0  0  0  0  0  0
  138.8900  159.4150  131.0380 C   0  0  0  0  0  0  0  0  0  0  0  0
  138.3810  158.1460  130.7330 O   0  0  0  0  0  0  0  0  0  0  0  0
  141.3830  157.4810  133.0220 C   0  0  0  0  0  0  0  0  0  0  0  0
  142.1130  158.0570  134.2600 C   0  0  0  0  0  0  0  0  0  0  0  0
  143.4370  158.6990  133.9390 C   0  0  0  0  0  0  0  0  0  0  0  0
  143.5840  160.1080  134.0120 C   0  0  0  0  0  0  0  0  0  0  0  0
  144.8150  160.7160  133.7130 C   0  0  0  0  0  0  0  0  0  0  0  0
  145.8740  159.8950  133.3370 C   0  0  0  0  0  0  0  0  0  0  0  0
  147.1670  160.2170  132.9950 C   0  0  0  0  0  0  0  0  0  0  0  0
  147.7840  159.0040  132.6950 C   0  0  0  0  0  0  0  0  0  0  0  0
  149.1660  158.9010  132.1810 C   0  0  0  0  0  0  0  0  0  0  0  0
  149.7130  157.6220  131.8650 N   0  0  0  0  0  0  0  0  0  0  0  0
  149.8850  159.9270  132.0500 O   0  0  0  0  0  0  0  0  0  0  0  0
  146.9090  157.9700  132.8580 N   0  0  0  0  0  0  0  0  0  0  0  0
  147.1440  156.5670  132.6630 C   0  0  0  0  0  0  0  0  0  0  0  0
  146.9840  156.0500  131.5240 O   0  0  0  0  0  0  0  0  0  0  0  0
  147.5800  155.7860  133.7380 O   0  0  0  0  0  0  0  0  0  0  0  0
  147.5390  154.3640  133.7300 C   0  0  0  0  0  0  0  0  0  0  0  0
  148.6280  153.8330  132.8040 C   0  0  0  0  0  0  0  0  0  0  0  0
  149.5440  154.8480  132.4980 O   0  0  0  0  0  0  0  0  0  0  0  0
  145.7460  158.5330  133.2520 C   0  0  0  0  0  0  0  0  0  0  0  0
  144.5430  157.8980  133.5760 C   0  0  0  0  0  0  0  0  0  0  0  0
  139.7777  157.9351  134.8877 H   0  0  0  0  0  0  0  0  0  0  0  0
  138.4051  158.6681  133.9904 H   0  0  0  0  0  0  0  0  0  0  0  0
  138.6286  156.8858  133.9904 H   0  0  0  0  0  0  0  0  0  0  0  0
  139.5700  157.2970  132.0930 H   0  0  0  0  0  0  0  0  0  0  0  0
  139.5632  160.0165  132.9940 H   0  0  0  0  0  0  0  0  0  0  0  0
  140.8783  159.5838  131.8032 H   0  0  0  0  0  0  0  0  0  0  0  0
  138.0608  160.0800  131.3212 H   0  0  0  0  0  0  0  0  0  0  0  0
  139.4085  159.8143  130.1539 H   0  0  0  0  0  0  0  0  0  0  0  0
  137.6680  158.2900  130.0580 H   0  0  0  0  0  0  0  0  0  0  0  0
  141.3431  156.3877  133.1367 H   0  0  0  0  0  0  0  0  0  0  0  0
  141.9630  157.8297  132.1548 H   0  0  0  0  0  0  0  0  0  0  0  0
  141.4639  158.8138  134.7247 H   0  0  0  0  0  0  0  0  0  0  0  0
  142.3208  157.2115  134.9323 H   0  0  0  0  0  0  0  0  0  0  0  0
  142.7260  160.7307  134.3055 H   0  0  0  0  0  0  0  0  0  0  0  0
  144.9379  161.8074  133.7742 H   0  0  0  0  0  0  0  0  0  0  0  0
  147.6183  161.2197  132.9647 H   0  0  0  0  0  0  0  0  0  0  0  0
  149.0920  156.8030  131.6810 H   0  0  0  0  0  0  0  0  0  0  0  0
  147.7070  153.9859  134.7492 H   0  0  0  0  0  0  0  0  0  0  0  0
  146.5550  154.0260  133.3730 H   0  0  0  0  0  0  0  0  0  0  0  0
  149.1557  153.0059  133.3014 H   0  0  0  0  0  0  0  0  0  0  0  0
  148.1634  153.4777  131.8724 H   0  0  0  0  0  0  0  0  0  0  0  0
  149.0190  155.6020  132.1220 H   0  0  0  0  0  0  0  0  0  0  0  0
  144.4597  156.8015  133.5490 H   0  0  0  0  0  0  0  0  0  0  0  0
  1  2  1  0
  2  3  1  0
  3  4  1  0
  4  5  1  0
  2  6  1  0
  6  7  1  0
  7  8  1  0
  8  9  2  0
  9 10  1  0
 10 11  2  0
 11 12  1  0
 12 13  2  0
 13 14  1  0
 14 15  1  0
 14 16  2  0
 13 17  1  0
 17 18  1  0
 18 19  2  0
 18 20  1  0
 20 21  1  0
 21 22  1  0
 22 23  1  0
 17 24  1  0
 24 25  2  0
 25  8  1  0
 24 11  1  0
  1 26  1  0
  1 27  1  0
  1 28  1  0
  2 29  1  6
  3 30  1  0
  3 31  1  0
  4 32  1  0
  4 33  1  0
  5 34  1  0
  6 35  1  0
  6 36  1  0
  7 37  1  0
  7 38  1  0
  9 39  1  0
 10 40  1  0
 12 41  1  0
 15 42  1  0
 21 43  1  0
 21 44  1  0
 22 45  1  0
 22 46  1  0
 23 47  1  0
 25 48  1  0
M  CHG  2   2   1  15  -1
M  END
>  <UniqueID>  (67) 
67

>  <SMILES>  (67) 
C[N@@H+](CCO)CCc1ccc2cc(C([NH-])=O)n(C(=O)OCCO)c2c1

>  <Energy>  (67) 
83.95065042302569

>  <Genealogy>  (67) 
C[NH+](CCO)CCc1ccc2cc(C([NH-])=O)n(C(=O)OCCO)c2c1 (protonated)
C[N@@H+](CCO)CCc1ccc2cc(C([NH-])=O)n(C(=O)OCCO)c2c1 (chirality)
C[N@@H+](CCO)CCc1ccc2cc(C([NH-])=O)n(C(=O)OCCO)c2c1 (3D coordinates assigned)
C[N@@H+](CCO)CCc1ccc2cc(C([NH-])=O)n(C(=O)OCCO)c2c1 (optimized conformer: 83.95065042302569 kcal/mol)

>  <smiles>  (67) 
CN(CCO)CCc1ccc2cc(C(N)=O)n(C(=O)OCCO)c2c1

>  <score_type>  (67) 
oracle

>  <origin>  (67) 
adg

>  <m_score__min__energy>  (67) 
-5.2699999999999996

>  <m_primary>  (67) 
energy

$$$$
68:0
     RDKit          3D

 31 32  0  0  0  0  0  0  0  0999 V2000
  144.3700  154.2110  131.7020 C   0  0  0  0  0  0  0  0  0  0  0  0
  144.5340  155.0740  132.7050 C   0  0  0  0  0  0  0  0  0  0  0  0
  143.2740  156.2670  133.0020 Cl  0  0  0  0  0  0  0  0  0  0  0  0
  145.7570  155.0730  133.5380 C   0  0  0  0  0  0  0  0  0  0  0  0
  145.7800  154.4380  134.6270 O   0  0  0  0  0  0  0  0  0  0  0  0
  146.9370  155.7660  133.1050 N   0  0  0  0  0  0  0  0  0  0  0  0
  148.1650  155.2300  132.8580 C   0  0  0  0  0  0  0  0  0  0  0  0
  148.4910  153.7880  132.8490 C   0  0  0  0  0  0  0  0  0  0  0  0
  147.8160  152.8670  133.7080 N   0  0  0  0  0  0  0  0  0  0  0  0
  149.3540  153.3570  132.0400 O   0  0  0  0  0  0  0  0  0  0  0  0
  149.0960  156.2350  132.6090 C   0  0  0  0  0  0  0  0  0  0  0  0
  148.3940  157.4150  132.7130 C   0  0  0  0  0  0  0  0  0  0  0  0
  148.8290  158.7300  132.5850 C   0  0  0  0  0  0  0  0  0  0  0  0
  147.8910  159.7560  132.7940 C   0  0  0  0  0  0  0  0  0  0  0  0
  146.5490  159.4570  133.1360 C   0  0  0  0  0  0  0  0  0  0  0  0
  145.6240  160.5380  133.3540 N   0  0  0  0  0  0  0  0  0  0  0  0
  144.3590  160.3850  134.0660 C   0  0  0  0  0  0  0  0  0  0  0  0
  146.1480  158.1040  133.2620 C   0  0  0  0  0  0  0  0  0  0  0  0
  147.0960  157.1040  133.0220 C   0  0  0  0  0  0  0  0  0  0  0  0
  145.1421  153.4554  131.4948 H   0  0  0  0  0  0  0  0  0  0  0  0
  143.4626  154.2546  131.0817 H   0  0  0  0  0  0  0  0  0  0  0  0
  148.1030  151.8640  133.7250 H   0  0  0  0  0  0  0  0  0  0  0  0
  146.9680  153.1500  134.2470 H   0  0  0  0  0  0  0  0  0  0  0  0
  150.1645  156.1124  132.3784 H   0  0  0  0  0  0  0  0  0  0  0  0
  149.8737  158.9598  132.3284 H   0  0  0  0  0  0  0  0  0  0  0  0
  148.2033  160.8056  132.6906 H   0  0  0  0  0  0  0  0  0  0  0  0
  145.8640  161.4890  132.9940 H   0  0  0  0  0  0  0  0  0  0  0  0
  144.5434  160.4073  135.1502 H   0  0  0  0  0  0  0  0  0  0  0  0
  143.6823  161.2078  133.7922 H   0  0  0  0  0  0  0  0  0  0  0  0
  143.8980  159.4245  133.7922 H   0  0  0  0  0  0  0  0  0  0  0  0
  145.1159  157.8462  133.5418 H   0  0  0  0  0  0  0  0  0  0  0  0
  1  2  2  0
  2  3  1  0
  2  4  1  0
  4  5  2  0
  4  6  1  0
  6  7  1  0
  7  8  1  0
  8  9  1  0
  8 10  2  0
  7 11  2  0
 11 12  1  0
 12 13  2  0
 13 14  1  0
 14 15  2  0
 15 16  1  0
 16 17  1  0
 15 18  1  0
 18 19  2  0
 19  6  1  0
 19 12  1  0
  1 20  1  0
  1 21  1  0
  9 22  1  0
  9 23  1  0
 11 24  1  0
 13 25  1  0
 14 26  1  0
 16 27  1  0
 17 28  1  0
 17 29  1  0
 17 30  1  0
 18 31  1  0
M  END
>  <UniqueID>  (68) 
68

>  <SMILES>  (68) 
C=C(Cl)C(=O)n1c(C(N)=O)cc2ccc(NC)cc21

>  <Energy>  (68) 
69.52393087044939

>  <Genealogy>  (68) 
C=C(Cl)C(=O)n1c(C(N)=O)cc2ccc(NC)cc21 (3D coordinates assigned)
C=C(Cl)C(=O)n1c(C(N)=O)cc2ccc(NC)cc21 (optimized conformer: 69.52393087044939 kcal/mol)

>  <smiles>  (68) 
C=C(Cl)C(=O)n1c(C(N)=O)cc2ccc(NC)cc21

>  <score_type>  (68) 
oracle

>  <origin>  (68) 
adg

>  <m_score__min__energy>  (68) 
-6.7599999999999998

>  <m_primary>  (68) 
energy

$$$$
69:0
     RDKit          3D

 39 41  0  0  0  0  0  0  0  0999 V2000
  142.8930  161.0570  133.5070 N   0  0  0  0  0  0  0  0  0  0  0  0
  144.2840  161.2500  133.7510 C   0  0  0  0  0  0  0  0  0  0  0  0
  144.6980  162.3880  134.0980 O   0  0  0  0  0  0  0  0  0  0  0  0
  145.2160  160.1080  133.6340 C   0  0  0  0  0  0  0  0  0  0  0  0
  146.5880  160.2540  133.4380 C   0  0  0  0  0  0  0  0  0  0  0  0
  147.0750  158.9760  133.2950 C   0  0  0  0  0  0  0  0  0  0  0  0
  148.3750  158.5330  133.0850 C   0  0  0  0  0  0  0  0  0  0  0  0
  148.5960  157.1480  133.0020 C   0  0  0  0  0  0  0  0  0  0  0  0
  147.5200  156.2290  133.1350 C   0  0  0  0  0  0  0  0  0  0  0  0
  147.7670  154.7660  133.0560 C   0  0  0  0  0  0  0  0  0  0  0  0
  146.9150  153.7390  133.4440 C   0  0  0  0  0  0  0  0  0  0  0  0
  147.5130  152.5630  133.1910 N   0  0  0  0  0  0  0  0  0  0  0  0
  148.7060  152.7950  132.6690 N   0  0  0  0  0  0  0  0  0  0  0  0
  149.6210  151.7540  132.2070 C   0  0  0  0  0  0  0  0  0  0  0  0
  148.8960  150.7700  131.2880 C   0  0  0  0  0  0  0  0  0  0  0  0
  147.6620  150.3930  131.8400 O   0  0  0  0  0  0  0  0  0  0  0  0
  148.8960  154.1240  132.5630 C   0  0  0  0  0  0  0  0  0  0  0  0
  146.2110  156.7240  133.3490 C   0  0  0  0  0  0  0  0  0  0  0  0
  146.0190  158.1100  133.4090 C   0  0  0  0  0  0  0  0  0  0  0  0
  144.8700  158.7890  133.6200 N   0  0  0  0  0  0  0  0  0  0  0  0
  143.5720  158.2140  133.8420 C   0  0  0  0  0  0  0  0  0  0  0  0
  143.2980  157.7040  134.9630 O   0  0  0  0  0  0  0  0  0  0  0  0
  142.6330  158.2090  132.8020 O   0  0  0  0  0  0  0  0  0  0  0  0
  141.2660  158.4710  132.9530 C   0  0  0  0  0  0  0  0  0  0  0  0
  140.6980  159.4070  132.3280 O   0  0  0  0  0  0  0  0  0  0  0  0
  142.5650  160.3760  132.7860 H   0  0  0  0  0  0  0  0  0  0  0  0
  147.1603  161.1928  133.4047 H   0  0  0  0  0  0  0  0  0  0  0  0
  149.2070  159.2459  132.9866 H   0  0  0  0  0  0  0  0  0  0  0  0
  149.6149  156.7700  132.8319 H   0  0  0  0  0  0  0  0  0  0  0  0
  145.9157  153.8678  133.8855 H   0  0  0  0  0  0  0  0  0  0  0  0
  147.1100  151.6140  133.3640 H   0  0  0  0  0  0  0  0  0  0  0  0
  150.4503  152.2204  131.6550 H   0  0  0  0  0  0  0  0  0  0  0  0
  150.0057  151.2066  133.0801 H   0  0  0  0  0  0  0  0  0  0  0  0
  148.7243  151.2470  130.3118 H   0  0  0  0  0  0  0  0  0  0  0  0
  149.5196  149.8717  131.1693 H   0  0  0  0  0  0  0  0  0  0  0  0
  147.0160  150.3500  131.0870 H   0  0  0  0  0  0  0  0  0  0  0  0
  149.7914  154.6166  132.1560 H   0  0  0  0  0  0  0  0  0  0  0  0
  145.3622  156.0342  133.4658 H   0  0  0  0  0  0  0  0  0  0  0  0
  140.6723  157.8440  133.6345 H   0  0  0  0  0  0  0  0  0  0  0  0
  1  2  1  0
  2  3  2  0
  2  4  1  0
  4  5  2  0
  5  6  1  0
  6  7  2  0
  7  8  1  0
  8  9  2  0
  9 10  1  0
 10 11  1  0
 11 12  2  0
 12 13  1  0
 13 14  1  0
 14 15  1  0
 15 16  1  0
 13 17  1  0
  9 18  1  0
 18 19  2  0
 19 20  1  0
 20 21  1  0
 21 22  2  0
 21 23  1  0
 23 24  1  0
 24 25  2  0
 20  4  1  0
 19  6  1  0
 17 10  2  0
  1 26  1  0
  5 27  1  0
  7 28  1  0
  8 29  1  0
 11 30  1  0
 12 31  1  0
 14 32  1  0
 14 33  1  0
 15 34  1  0
 15 35  1  0
 16 36  1  0
 17 37  1  0
 18 38  1  0
 24 39  1  0
M  CHG  2   1  -1  12   1
M  END
>  <UniqueID>  (69) 
69

>  <SMILES>  (69) 
[NH-]C(=O)c1cc2ccc(-c3c[nH+]n(CCO)c3)cc2n1C(=O)OC=O

>  <Energy>  (69) 
110.4779048112671

>  <Genealogy>  (69) 
[NH-]C(=O)c1cc2ccc(-c3c[nH+]n(CCO)c3)cc2n1C(=O)OC=O (protonated)
[NH-]C(=O)c1cc2ccc(-c3c[nH+]n(CCO)c3)cc2n1C(=O)OC=O (3D coordinates assigned)
[NH-]C(=O)c1cc2ccc(-c3c[nH+]n(CCO)c3)cc2n1C(=O)OC=O (optimized conformer: 110.4779048112671 kcal/mol)

>  <smiles>  (69) 
NC(=O)c1cc2ccc(-c3cnn(CCO)c3)cc2n1C(=O)OC=O

>  <score_type>  (69) 
oracle

>  <origin>  (69) 
adg

>  <m_score__min__energy>  (69) 
-7

>  <m_primary>  (69) 
energy

$$$$
70:0
     RDKit          3D

 41 42  0  0  0  0  0  0  0  0999 V2000
  141.8230  159.1040  134.7350 C   0  0  0  0  0  0  0  0  0  0  0  0
  143.2490  159.3190  134.3250 C   0  0  0  0  0  0  0  0  0  0  0  0
  143.7350  160.6320  134.1120 C   0  0  0  0  0  0  0  0  0  0  0  0
  145.0540  160.8440  133.6780 C   0  0  0  0  0  0  0  0  0  0  0  0
  145.8590  159.7290  133.4630 C   0  0  0  0  0  0  0  0  0  0  0  0
  147.1540  159.6480  133.0080 C   0  0  0  0  0  0  0  0  0  0  0  0
  147.4450  158.2870  132.9640 C   0  0  0  0  0  0  0  0  0  0  0  0
  148.7670  157.7500  132.5840 C   0  0  0  0  0  0  0  0  0  0  0  0
  149.0260  156.3450  132.5980 N   0  0  0  0  0  0  0  0  0  0  0  0
  149.6980  158.5470  132.2960 O   0  0  0  0  0  0  0  0  0  0  0  0
  146.3680  157.5520  133.3620 N   0  0  0  0  0  0  0  0  0  0  0  0
  146.2330  156.1220  133.3500 C   0  0  0  0  0  0  0  0  0  0  0  0
  145.6820  155.5510  132.3690 O   0  0  0  0  0  0  0  0  0  0  0  0
  146.7150  155.3680  134.4250 O   0  0  0  0  0  0  0  0  0  0  0  0
  147.0010  153.9770  134.3250 C   0  0  0  0  0  0  0  0  0  0  0  0
  148.3940  153.7900  134.0940 O   0  0  0  0  0  0  0  0  0  0  0  0
  148.8950  153.2120  132.9250 C   0  0  0  0  0  0  0  0  0  0  0  0
  149.3070  153.9380  131.9780 O   0  0  0  0  0  0  0  0  0  0  0  0
  148.9510  151.7150  132.8100 C   0  0  0  0  0  0  0  0  0  0  0  0
  149.6520  151.1090  134.0300 C   0  0  0  0  0  0  0  0  0  0  0  0
  149.6510  151.2990  131.5120 C   0  0  0  0  0  0  0  0  0  0  0  0
  145.4040  158.4500  133.6680 C   0  0  0  0  0  0  0  0  0  0  0  0
  144.0880  158.2100  134.0800 C   0  0  0  0  0  0  0  0  0  0  0  0
  141.7547  159.0937  135.8328 H   0  0  0  0  0  0  0  0  0  0  0  0
  141.2001  159.9184  134.3365 H   0  0  0  0  0  0  0  0  0  0  0  0
  141.4679  158.1422  134.3365 H   0  0  0  0  0  0  0  0  0  0  0  0
  143.0738  161.4933  134.2880 H   0  0  0  0  0  0  0  0  0  0  0  0
  145.4393  161.8610  133.5129 H   0  0  0  0  0  0  0  0  0  0  0  0
  147.8188  160.4812  132.7365 H   0  0  0  0  0  0  0  0  0  0  0  0
  148.3340  155.6710  132.9950 H   0  0  0  0  0  0  0  0  0  0  0  0
  149.9530  155.9810  132.2860 H   0  0  0  0  0  0  0  0  0  0  0  0
  146.7150  153.4764  135.2618 H   0  0  0  0  0  0  0  0  0  0  0  0
  146.4314  153.5466  133.4881 H   0  0  0  0  0  0  0  0  0  0  0  0
  147.9216  151.3285  132.7797 H   0  0  0  0  0  0  0  0  0  0  0  0
  149.1950  151.5041  134.9493 H   0  0  0  0  0  0  0  0  0  0  0  0
  149.5448  150.0144  134.0084 H   0  0  0  0  0  0  0  0  0  0  0  0
  150.7195  151.3733  134.0084 H   0  0  0  0  0  0  0  0  0  0  0  0
  150.5737  150.7506  131.7525 H   0  0  0  0  0  0  0  0  0  0  0  0
  148.9820  150.6518  130.9258 H   0  0  0  0  0  0  0  0  0  0  0  0
  149.8997  152.1960  130.9258 H   0  0  0  0  0  0  0  0  0  0  0  0
  143.7165  157.1828  134.2097 H   0  0  0  0  0  0  0  0  0  0  0  0
  1  2  1  0
  2  3  2  0
  3  4  1  0
  4  5  2  0
  5  6  1  0
  6  7  2  0
  7  8  1  0
  8  9  1  0
  8 10  2  0
  7 11  1  0
 11 12  1  0
 12 13  2  0
 12 14  1  0
 14 15  1  0
 15 16  1  0
 16 17  1  0
 17 18  2  0
 17 19  1  0
 19 20  1  0
 19 21  1  0
 11 22  1  0
 22 23  2  0
 23  2  1  0
 22  5  1  0
  1 24  1  0
  1 25  1  0
  1 26  1  0
  3 27  1  0
  4 28  1  0
  6 29  1  0
  9 30  1  0
  9 31  1  0
 15 32  1  0
 15 33  1  0
 19 34  1  0
 20 35  1  0
 20 36  1  0
 20 37  1  0
 21 38  1  0
 21 39  1  0
 21 40  1  0
 23 41  1  0
M  END
>  <UniqueID>  (70) 
70

>  <SMILES>  (70) 
Cc1ccc2cc(C(N)=O)n(C(=O)OCOC(=O)C(C)C)c2c1

>  <Energy>  (70) 
70.86145161371125

>  <Genealogy>  (70) 
Cc1ccc2cc(C(N)=O)n(C(=O)OCOC(=O)C(C)C)c2c1 (3D coordinates assigned)
Cc1ccc2cc(C(N)=O)n(C(=O)OCOC(=O)C(C)C)c2c1 (optimized conformer: 70.86145161371125 kcal/mol)

>  <smiles>  (70) 
Cc1ccc2cc(C(N)=O)n(C(=O)OCOC(=O)C(C)C)c2c1

>  <score_type>  (70) 
oracle

>  <origin>  (70) 
adg

>  <m_score__min__energy>  (70) 
-6.4699999999999998

>  <m_primary>  (70) 
energy

$$$$
71:0
     RDKit          3D

 51 53  0  0  0  0  0  0  0  0999 V2000
  138.7490  157.9090  134.4410 C   0  0  0  0  0  0  0  0  0  0  0  0
  138.7270  157.5310  133.0200 N   0  0  0  0  0  0  0  0  0  0  0  0
  138.5810  158.7380  132.1880 C   0  0  0  0  0  0  0  0  0  0  0  0
  139.9490  156.7790  132.6540 C   0  0  0  0  0  0  0  0  0  0  0  0
  139.9590  155.4010  133.3340 C   0  0  0  0  0  0  0  0  0  0  0  0
  141.3550  154.7630  133.3430 C   0  0  0  0  0  0  0  0  0  0  0  0
  141.3660  153.5480  134.0900 O   0  0  0  0  0  0  0  0  0  0  0  0
  141.8510  153.4530  135.3990 C   0  0  0  0  0  0  0  0  0  0  0  0
  141.7040  152.3890  136.0610 O   0  0  0  0  0  0  0  0  0  0  0  0
  142.5460  154.6010  135.9970 C   0  0  0  0  0  0  0  0  0  0  0  0
  143.8060  154.6410  135.9750 O   0  0  0  0  0  0  0  0  0  0  0  0
  141.8120  155.6790  136.5990 N   0  0  0  0  0  0  0  0  0  0  0  0
  141.1450  155.6720  137.7870 C   0  0  0  0  0  0  0  0  0  0  0  0
  140.9250  154.4920  138.6520 C   0  0  0  0  0  0  0  0  0  0  0  0
  141.8570  153.4140  138.6750 N   0  0  0  0  0  0  0  0  0  0  0  0
  139.8840  154.4210  139.3570 O   0  0  0  0  0  0  0  0  0  0  0  0
  140.6350  156.9390  138.0670 C   0  0  0  0  0  0  0  0  0  0  0  0
  141.0160  157.7300  137.0060 C   0  0  0  0  0  0  0  0  0  0  0  0
  140.7860  159.0810  136.7630 C   0  0  0  0  0  0  0  0  0  0  0  0
  141.3190  159.6390  135.5890 C   0  0  0  0  0  0  0  0  0  0  0  0
  142.0850  158.8470  134.6980 C   0  0  0  0  0  0  0  0  0  0  0  0
  142.6140  159.4380  133.4210 C   0  0  0  0  0  0  0  0  0  0  0  0
  143.9810  159.9080  133.6220 N   0  0  0  0  0  0  0  0  0  0  0  0
  145.1120  159.2760  133.2700 C   0  0  0  0  0  0  0  0  0  0  0  0
  146.1680  160.1100  133.5600 C   0  0  0  0  0  0  0  0  0  0  0  0
  145.7030  161.2660  134.0770 N   0  0  0  0  0  0  0  0  0  0  0  0
  144.3630  161.1090  134.0950 C   0  0  0  0  0  0  0  0  0  0  0  0
  142.2910  157.4790  134.9740 C   0  0  0  0  0  0  0  0  0  0  0  0
  141.7290  156.9450  136.1380 C   0  0  0  0  0  0  0  0  0  0  0  0
  138.6963  157.0028  135.0623 H   0  0  0  0  0  0  0  0  0  0  0  0
  139.6802  158.4513  134.6618 H   0  0  0  0  0  0  0  0  0  0  0  0
  137.8869  158.5556  134.6618 H   0  0  0  0  0  0  0  0  0  0  0  0
  138.4743  159.6199  132.8368 H   0  0  0  0  0  0  0  0  0  0  0  0
  139.4715  158.8555  131.5530 H   0  0  0  0  0  0  0  0  0  0  0  0
  137.6882  158.6398  131.5530 H   0  0  0  0  0  0  0  0  0  0  0  0
  139.9773  156.6440  131.5627 H   0  0  0  0  0  0  0  0  0  0  0  0
  140.8292  157.3469  132.9897 H   0  0  0  0  0  0  0  0  0  0  0  0
  139.6171  155.5173  134.3730 H   0  0  0  0  0  0  0  0  0  0  0  0
  139.2918  154.7398  132.7617 H   0  0  0  0  0  0  0  0  0  0  0  0
  141.6577  154.5493  132.3073 H   0  0  0  0  0  0  0  0  0  0  0  0
  142.0550  155.4673  133.8163 H   0  0  0  0  0  0  0  0  0  0  0  0
  142.5020  153.2440  137.8720 H   0  0  0  0  0  0  0  0  0  0  0  0
  140.0517  157.2426  138.9488 H   0  0  0  0  0  0  0  0  0  0  0  0
  140.2048  159.6930  137.4684 H   0  0  0  0  0  0  0  0  0  0  0  0
  141.1402  160.6998  135.3595 H   0  0  0  0  0  0  0  0  0  0  0  0
  142.6038  158.6713  132.6322 H   0  0  0  0  0  0  0  0  0  0  0  0
  141.9791  160.2854  133.1230 H   0  0  0  0  0  0  0  0  0  0  0  0
  145.1823  158.2709  132.8286 H   0  0  0  0  0  0  0  0  0  0  0  0
  147.2289  159.8705  133.3953 H   0  0  0  0  0  0  0  0  0  0  0  0
  143.6618  161.8760  134.4556 H   0  0  0  0  0  0  0  0  0  0  0  0
  142.8788  156.8482  134.2909 H   0  0  0  0  0  0  0  0  0  0  0  0
  1  2  1  0
  2  3  1  0
  2  4  1  0
  4  5  1  0
  5  6  1  0
  6  7  1  0
  7  8  1  0
  8  9  2  0
  8 10  1  0
 10 11  2  0
 10 12  1  0
 12 13  1  0
 13 14  1  0
 14 15  1  0
 14 16  2  0
 13 17  2  0
 17 18  1  0
 18 19  2  0
 19 20  1  0
 20 21  2  0
 21 22  1  0
 22 23  1  0
 23 24  1  0
 24 25  2  0
 25 26  1  0
 26 27  2  0
 21 28  1  0
 28 29  2  0
 29 12  1  0
 29 18  1  0
 27 23  1  0
  1 30  1  0
  1 31  1  0
  1 32  1  0
  3 33  1  0
  3 34  1  0
  3 35  1  0
  4 36  1  0
  4 37  1  0
  5 38  1  0
  5 39  1  0
  6 40  1  0
  6 41  1  0
 15 42  1  0
 17 43  1  0
 19 44  1  0
 20 45  1  0
 22 46  1  0
 22 47  1  0
 24 48  1  0
 25 49  1  0
 27 50  1  0
 28 51  1  0
M  CHG  1  15  -1
M  END
>  <UniqueID>  (71) 
71

>  <SMILES>  (71) 
CN(C)CCCOC(=O)C(=O)n1c(C([NH-])=O)cc2ccc(Cn3ccnc3)cc21

>  <Energy>  (71) 
112.09411883280963

>  <Genealogy>  (71) 
CN(C)CCCOC(=O)C(=O)n1c(C([NH-])=O)cc2ccc(Cn3ccnc3)cc21 (protonated)
CN(C)CCCOC(=O)C(=O)n1c(C([NH-])=O)cc2ccc(Cn3ccnc3)cc21 (3D coordinates assigned)
CN(C)CCCOC(=O)C(=O)n1c(C([NH-])=O)cc2ccc(Cn3ccnc3)cc21 (optimized conformer: 112.09411883280963 kcal/mol)

>  <smiles>  (71) 
CN(C)CCCOC(=O)C(=O)n1c(C(N)=O)cc2ccc(Cn3ccnc3)cc21

>  <score_type>  (71) 
oracle

>  <origin>  (71) 
adg

>  <m_score__min__energy>  (71) 
-7.3300000000000001

>  <m_primary>  (71) 
energy

$$$$
72:0
     RDKit          3D

 39 40  0  0  0  0  0  0  0  0999 V2000
  143.4260  155.7200  134.9540 C   0  0  0  0  0  0  0  0  0  0  0  0
  143.2660  157.0330  134.7970 C   0  0  0  0  0  0  0  0  0  0  0  0
  143.7130  157.7550  133.5910 C   0  0  0  0  0  0  0  0  0  0  0  0
  142.9390  157.8240  132.6000 O   0  0  0  0  0  0  0  0  0  0  0  0
  145.0100  158.3700  133.5160 N   0  0  0  0  0  0  0  0  0  0  0  0
  145.2970  159.7010  133.5100 C   0  0  0  0  0  0  0  0  0  0  0  0
  144.3190  160.7940  133.6880 C   0  0  0  0  0  0  0  0  0  0  0  0
  142.9410  160.5700  133.4000 N   0  0  0  0  0  0  0  0  0  0  0  0
  144.6900  161.9330  134.0790 O   0  0  0  0  0  0  0  0  0  0  0  0
  146.6680  159.9010  133.3530 C   0  0  0  0  0  0  0  0  0  0  0  0
  147.2110  158.6390  133.2550 C   0  0  0  0  0  0  0  0  0  0  0  0
  148.5290  158.2430  133.0720 C   0  0  0  0  0  0  0  0  0  0  0  0
  148.7990  156.8680  132.9830 C   0  0  0  0  0  0  0  0  0  0  0  0
  147.7540  155.9000  133.0680 C   0  0  0  0  0  0  0  0  0  0  0  0
  148.0430  154.4760  132.9720 N   0  0  0  0  0  0  0  0  0  0  0  0
  149.2310  153.9840  132.2540 C   0  0  0  0  0  0  0  0  0  0  0  0
  149.5050  152.5180  132.5920 C   0  0  0  0  0  0  0  0  0  0  0  0
  147.1570  153.4710  133.5840 C   0  0  0  0  0  0  0  0  0  0  0  0
  145.9810  153.1470  132.6640 C   0  0  0  0  0  0  0  0  0  0  0  0
  146.4230  156.3610  133.2500 C   0  0  0  0  0  0  0  0  0  0  0  0
  146.1900  157.7350  133.3520 C   0  0  0  0  0  0  0  0  0  0  0  0
  143.0745  155.2292  135.8735 H   0  0  0  0  0  0  0  0  0  0  0  0
  143.9096  155.1265  134.1641 H   0  0  0  0  0  0  0  0  0  0  0  0
  142.7794  157.6037  135.6017 H   0  0  0  0  0  0  0  0  0  0  0  0
  142.6520  159.9720  132.5930 H   0  0  0  0  0  0  0  0  0  0  0  0
  147.2021  160.8619  133.3154 H   0  0  0  0  0  0  0  0  0  0  0  0
  149.3380  158.9847  132.9989 H   0  0  0  0  0  0  0  0  0  0  0  0
  149.8367  156.5302  132.8450 H   0  0  0  0  0  0  0  0  0  0  0  0
  149.0620  154.0784  131.1712 H   0  0  0  0  0  0  0  0  0  0  0  0
  150.1005  154.5838  132.5611 H   0  0  0  0  0  0  0  0  0  0  0  0
  149.5286  152.3918  133.6845 H   0  0  0  0  0  0  0  0  0  0  0  0
  148.7089  151.8888  132.1673 H   0  0  0  0  0  0  0  0  0  0  0  0
  150.4746  152.2188  132.1673 H   0  0  0  0  0  0  0  0  0  0  0  0
  147.7311  152.5517  133.7717 H   0  0  0  0  0  0  0  0  0  0  0  0
  146.7632  153.8780  134.5270 H   0  0  0  0  0  0  0  0  0  0  0  0
  145.0967  152.9034  133.2712 H   0  0  0  0  0  0  0  0  0  0  0  0
  145.7613  154.0181  132.0292 H   0  0  0  0  0  0  0  0  0  0  0  0
  146.2384  152.2863  132.0292 H   0  0  0  0  0  0  0  0  0  0  0  0
  145.5882  155.6472  133.3098 H   0  0  0  0  0  0  0  0  0  0  0  0
  1  2  2  0
  2  3  1  0
  3  4  2  0
  3  5  1  0
  5  6  1  0
  6  7  1  0
  7  8  1  0
  7  9  2  0
  6 10  2  0
 10 11  1  0
 11 12  2  0
 12 13  1  0
 13 14  2  0
 14 15  1  0
 15 16  1  0
 16 17  1  0
 15 18  1  0
 18 19  1  0
 14 20  1  0
 20 21  2  0
 21  5  1  0
 21 11  1  0
  1 22  1  0
  1 23  1  0
  2 24  1  0
  8 25  1  0
 10 26  1  0
 12 27  1  0
 13 28  1  0
 16 29  1  0
 16 30  1  0
 17 31  1  0
 17 32  1  0
 17 33  1  0
 18 34  1  0
 18 35  1  0
 19 36  1  0
 19 37  1  0
 19 38  1  0
 20 39  1  0
M  CHG  1   8  -1
M  END
>  <UniqueID>  (72) 
72

>  <SMILES>  (72) 
C=CC(=O)n1c(C([NH-])=O)cc2ccc(N(CC)CC)cc21

>  <Energy>  (72) 
75.55998540571962

>  <Genealogy>  (72) 
C=CC(=O)n1c(C([NH-])=O)cc2ccc(N(CC)CC)cc21 (protonated)
C=CC(=O)n1c(C([NH-])=O)cc2ccc(N(CC)CC)cc21 (3D coordinates assigned)
C=CC(=O)n1c(C([NH-])=O)cc2ccc(N(CC)CC)cc21 (optimized conformer: 75.55998540571962 kcal/mol)

>  <smiles>  (72) 
C=CC(=O)n1c(C(N)=O)cc2ccc(N(CC)CC)cc21

>  <score_type>  (72) 
oracle

>  <origin>  (72) 
adg

>  <m_score__min__energy>  (72) 
-6.2699999999999996

>  <m_primary>  (72) 
energy

$$$$
73:0
     RDKit          3D

 47 50  0  0  0  0  0  0  0  0999 V2000
  142.4880  156.7870  139.4410 N   0  0  0  0  0  0  0  0  0  0  0  0
  141.7410  157.0680  138.2590 C   0  0  0  0  0  0  0  0  0  0  0  0
  141.0100  158.0930  138.2200 O   0  0  0  0  0  0  0  0  0  0  0  0
  141.8660  156.1810  137.0830 C   0  0  0  0  0  0  0  0  0  0  0  0
  142.0960  156.6470  135.7910 C   0  0  0  0  0  0  0  0  0  0  0  0
  142.0550  155.5310  134.9870 C   0  0  0  0  0  0  0  0  0  0  0  0
  142.2260  155.4120  133.6130 C   0  0  0  0  0  0  0  0  0  0  0  0
  142.1560  154.1280  133.0480 C   0  0  0  0  0  0  0  0  0  0  0  0
  141.9250  152.9840  133.8590 C   0  0  0  0  0  0  0  0  0  0  0  0
  141.8630  151.6290  133.2530 C   0  0  0  0  0  0  0  0  0  0  0  0
  142.9060  150.7310  133.0840 C   0  0  0  0  0  0  0  0  0  0  0  0
  142.4340  149.6330  132.4680 N   0  0  0  0  0  0  0  0  0  0  0  0
  141.1320  149.7780  132.2610 N   0  0  0  0  0  0  0  0  0  0  0  0
  140.3040  148.8430  131.4830 C   0  0  1  0  0  0  0  0  0  0  0  0
  138.8350  149.2140  131.4970 C   0  0  0  0  0  0  0  0  0  0  0  0
  138.2970  148.6730  130.1820 C   0  0  0  0  0  0  0  0  0  0  0  0
  139.4280  148.4620  129.2710 N   0  0  0  0  0  0  0  0  0  0  0  0
  140.6370  148.8520  129.9960 C   0  0  0  0  0  0  0  0  0  0  0  0
  140.7570  150.9970  132.7030 C   0  0  0  0  0  0  0  0  0  0  0  0
  141.7560  153.1520  135.2550 C   0  0  0  0  0  0  0  0  0  0  0  0
  141.8130  154.4460  135.7870 C   0  0  0  0  0  0  0  0  0  0  0  0
  141.6970  154.8270  137.0790 N   0  0  0  0  0  0  0  0  0  0  0  0
  141.4960  153.9600  138.2060 C   0  0  0  0  0  0  0  0  0  0  0  0
  142.0910  154.1930  139.2930 O   0  0  0  0  0  0  0  0  0  0  0  0
  140.6580  152.8450  138.0830 O   0  0  0  0  0  0  0  0  0  0  0  0
  141.1170  151.5020  138.2110 C   0  0  0  0  0  0  0  0  0  0  0  0
  140.2800  150.5850  137.3780 C   0  0  0  0  0  0  0  0  0  0  0  0
  139.2770  150.0150  137.8800 O   0  0  0  0  0  0  0  0  0  0  0  0
  140.6240  150.3370  136.0540 O   0  0  0  0  0  0  0  0  0  0  0  0
  143.2240  156.0470  139.4460 H   0  0  0  0  0  0  0  0  0  0  0  0
  142.2730  157.6869  135.4792 H   0  0  0  0  0  0  0  0  0  0  0  0
  142.4107  156.2971  132.9865 H   0  0  0  0  0  0  0  0  0  0  0  0
  142.2818  154.0061  131.9620 H   0  0  0  0  0  0  0  0  0  0  0  0
  143.9471  150.8905  133.4013 H   0  0  0  0  0  0  0  0  0  0  0  0
  143.0050  148.8110  132.1700 H   0  0  0  0  0  0  0  0  0  0  0  0
  140.5098  147.8742  131.9616 H   0  0  0  0  0  0  0  0  0  0  0  0
  138.3229  148.7446  132.3499 H   0  0  0  0  0  0  0  0  0  0  0  0
  138.6767  150.2976  131.6012 H   0  0  0  0  0  0  0  0  0  0  0  0
  137.7780  147.7191  130.3572 H   0  0  0  0  0  0  0  0  0  0  0  0
  137.5853  149.3872  129.7422 H   0  0  0  0  0  0  0  0  0  0  0  0
  139.4920  147.4380  129.0570 H   0  0  0  0  0  0  0  0  0  0  0  0
  141.4464  148.1366  129.7883 H   0  0  0  0  0  0  0  0  0  0  0  0
  140.9718  149.8512  129.6806 H   0  0  0  0  0  0  0  0  0  0  0  0
  139.7433  151.4191  132.6380 H   0  0  0  0  0  0  0  0  0  0  0  0
  141.5835  152.2838  135.9080 H   0  0  0  0  0  0  0  0  0  0  0  0
  142.1631  151.4427  137.8761 H   0  0  0  0  0  0  0  0  0  0  0  0
  141.0405  151.1971  139.2651 H   0  0  0  0  0  0  0  0  0  0  0  0
  1  2  1  0
  2  3  2  0
  2  4  1  0
  4  5  2  0
  5  6  1  0
  6  7  2  0
  7  8  1  0
  8  9  2  0
  9 10  1  0
 10 11  1  0
 11 12  2  0
 12 13  1  0
 13 14  1  0
 14 15  1  0
 15 16  1  0
 16 17  1  0
 17 18  1  0
 13 19  1  0
  9 20  1  0
 20 21  2  0
 21 22  1  0
 22 23  1  0
 23 24  2  0
 23 25  1  0
 25 26  1  0
 26 27  1  0
 27 28  2  0
 27 29  1  0
 22  4  1  0
 21  6  1  0
 19 10  2  0
 18 14  1  0
  1 30  1  0
  5 31  1  0
  7 32  1  0
  8 33  1  0
 11 34  1  0
 12 35  1  0
 14 36  1  1
 15 37  1  0
 15 38  1  0
 16 39  1  0
 16 40  1  0
 17 41  1  0
 18 42  1  0
 18 43  1  0
 19 44  1  0
 20 45  1  0
 26 46  1  0
 26 47  1  0
M  CHG  3   1  -1  12   1  29  -1
M  END
>  <UniqueID>  (73) 
73

>  <SMILES>  (73) 
[NH-]C(=O)c1cc2ccc(-c3c[nH+]n([C@H]4CCNC4)c3)cc2n1C(=O)OCC(=O)[O-]

>  <Energy>  (73) 
121.11255774599061

>  <Genealogy>  (73) 
[NH-]C(=O)c1cc2ccc(-c3c[nH+]n(C4CCNC4)c3)cc2n1C(=O)OCC(=O)[O-] (protonated)
[NH-]C(=O)c1cc2ccc(-c3c[nH+]n([C@H]4CCNC4)c3)cc2n1C(=O)OCC(=O)[O-] (chirality)
[NH-]C(=O)c1cc2ccc(-c3c[nH+]n([C@H]4CCNC4)c3)cc2n1C(=O)OCC(=O)[O-] (3D coordinates assigned)
[NH-]C(=O)c1cc2ccc(-c3c[nH+]n([C@H]4CCNC4)c3)cc2n1C(=O)OCC(=O)[O-] (nonaromatic ring conformer: 121.11255774599061 kcal/mol)

>  <smiles>  (73) 
NC(=O)c1cc2ccc(-c3cnn(C4CCNC4)c3)cc2n1C(=O)OCC(=O)O

>  <score_type>  (73) 
oracle

>  <origin>  (73) 
adg

>  <m_score__min__energy>  (73) 
-8.6500000000000004

>  <m_primary>  (73) 
energy

$$$$
74:0
     RDKit          3D

 42 44  0  0  0  0  0  0  0  0999 V2000
  143.3650  155.1080  133.0430 N   0  0  0  0  0  0  0  0  0  0  0  0
  143.6950  153.8030  133.5230 C   0  0  0  0  0  0  0  0  0  0  0  0
  144.6930  153.6620  134.2780 O   0  0  0  0  0  0  0  0  0  0  0  0
  142.8580  152.6350  133.1710 C   0  0  0  0  0  0  0  0  0  0  0  0
  143.3690  151.3650  132.9050 C   0  0  0  0  0  0  0  0  0  0  0  0
  142.2870  150.6100  132.5140 C   0  0  0  0  0  0  0  0  0  0  0  0
  142.2200  149.2770  132.1210 C   0  0  0  0  0  0  0  0  0  0  0  0
  140.9620  148.7530  131.7760 C   0  0  0  0  0  0  0  0  0  0  0  0
  139.8010  149.5610  131.8540 C   0  0  0  0  0  0  0  0  0  0  0  0
  138.4670  149.0010  131.4560 C   0  0  0  0  0  0  0  0  0  0  0  0
  138.6530  147.9220  130.6120 F   0  0  0  0  0  0  0  0  0  0  0  0
  139.9090  150.9110  132.2470 C   0  0  0  0  0  0  0  0  0  0  0  0
  141.1770  151.4130  132.5580 C   0  0  0  0  0  0  0  0  0  0  0  0
  141.5120  152.6610  132.9590 N   0  0  0  0  0  0  0  0  0  0  0  0
  140.6150  153.7690  133.1320 C   0  0  0  0  0  0  0  0  0  0  0  0
  139.4670  153.7330  132.6090 O   0  0  0  0  0  0  0  0  0  0  0  0
  141.0290  154.8800  133.8770 O   0  0  0  0  0  0  0  0  0  0  0  0
  140.4750  156.1650  133.7910 C   0  0  0  0  0  0  0  0  0  0  0  0
  139.8410  156.5280  132.7630 O   0  0  0  0  0  0  0  0  0  0  0  0
  140.5790  157.1190  134.9550 C   0  0  2  0  0  0  0  0  0  0  0  0
  139.6900  158.3640  134.8440 C   0  0  0  0  0  0  0  0  0  0  0  0
  140.9310  159.2650  134.8690 C   0  0  2  0  0  0  0  0  0  0  0  0
  141.1280  160.1170  133.6390 C   0  0  0  0  0  0  0  0  0  0  0  0
  142.1360  160.8680  133.5640 O   0  0  0  0  0  0  0  0  0  0  0  0
  140.2420  160.0630  132.5680 O   0  0  0  0  0  0  0  0  0  0  0  0
  141.8300  158.0180  135.0000 C   0  0  2  0  0  0  0  0  0  0  0  0
  142.8890  157.7930  133.9380 C   0  0  0  0  0  0  0  0  0  0  0  0
  144.1040  157.8820  134.2530 O   0  0  0  0  0  0  0  0  0  0  0  0
  142.5540  157.4740  132.6280 O   0  0  0  0  0  0  0  0  0  0  0  0
  142.5820  155.2570  132.3710 H   0  0  0  0  0  0  0  0  0  0  0  0
  143.9390  155.9320  133.3310 H   0  0  0  0  0  0  0  0  0  0  0  0
  144.4153  151.0364  132.9898 H   0  0  0  0  0  0  0  0  0  0  0  0
  143.1243  148.6519  132.0814 H   0  0  0  0  0  0  0  0  0  0  0  0
  140.8785  147.7079  131.4430 H   0  0  0  0  0  0  0  0  0  0  0  0
  137.9237  148.6740  132.3548 H   0  0  0  0  0  0  0  0  0  0  0  0
  137.8842  149.7762  130.9369 H   0  0  0  0  0  0  0  0  0  0  0  0
  139.0181  151.5534  132.3075 H   0  0  0  0  0  0  0  0  0  0  0  0
  140.4198  156.3752  135.7496 H   0  0  0  0  0  0  0  0  0  0  0  0
  139.1144  158.4209  133.9084 H   0  0  0  0  0  0  0  0  0  0  0  0
  138.8735  158.5268  135.5629 H   0  0  0  0  0  0  0  0  0  0  0  0
  141.0251  160.0804  135.6013 H   0  0  0  0  0  0  0  0  0  0  0  0
  142.5429  157.9396  135.8340 H   0  0  0  0  0  0  0  0  0  0  0  0
  1  2  1  0
  2  3  2  0
  2  4  1  0
  4  5  2  0
  5  6  1  0
  6  7  2  0
  7  8  1  0
  8  9  2  0
  9 10  1  0
 10 11  1  0
  9 12  1  0
 12 13  2  0
 13 14  1  0
 14 15  1  0
 15 16  2  0
 15 17  1  0
 17 18  1  0
 18 19  2  0
 18 20  1  0
 20 21  1  0
 21 22  1  0
 22 23  1  0
 23 24  2  0
 23 25  1  0
 22 26  1  0
 26 27  1  0
 27 28  2  0
 27 29  1  0
 14  4  1  0
 26 20  1  0
 13  6  1  0
  1 30  1  0
  1 31  1  0
  5 32  1  0
  7 33  1  0
  8 34  1  0
 10 35  1  0
 10 36  1  0
 12 37  1  0
 20 38  1  1
 21 39  1  0
 21 40  1  0
 22 41  1  1
 26 42  1  1
M  CHG  2  25  -1  29  -1
M  END
>  <UniqueID>  (74) 
74

>  <SMILES>  (74) 
NC(=O)c1cc2ccc(CF)cc2n1C(=O)OC(=O)[C@@H]1C[C@H](C(=O)[O-])C1C(=O)[O-]

>  <Energy>  (74) 
150.59140344321514

>  <Genealogy>  (74) 
NC(=O)c1cc2ccc(CF)cc2n1C(=O)OC(=O)C1CC(C(=O)[O-])C1C(=O)[O-] (protonated)
NC(=O)c1cc2ccc(CF)cc2n1C(=O)OC(=O)[C@@H]1C[C@H](C(=O)[O-])C1C(=O)[O-] (chirality)
NC(=O)c1cc2ccc(CF)cc2n1C(=O)OC(=O)[C@@H]1C[C@H](C(=O)[O-])C1C(=O)[O-] (3D coordinates assigned)
NC(=O)c1cc2ccc(CF)cc2n1C(=O)OC(=O)[C@@H]1C[C@H](C(=O)[O-])C1C(=O)[O-] (nonaromatic ring conformer: 150.59140344321514 kcal/mol)

>  <smiles>  (74) 
NC(=O)c1cc2ccc(CF)cc2n1C(=O)OC(=O)C1CC(C(=O)O)C1C(=O)O

>  <score_type>  (74) 
oracle

>  <origin>  (74) 
adg

>  <m_score__min__energy>  (74) 
-7.7000000000000002

>  <m_primary>  (74) 
energy

$$$$
75:0
     RDKit          3D

 96103  0  0  0  0  0  0  0  0999 V2000
  133.5430  159.3380  124.9730 C   0  0  0  0  0  0  0  0  0  0  0  0
  134.0480  160.3390  125.9190 N   0  0  0  0  0  0  0  0  0  0  0  0
  134.3540  161.6730  125.4750 C   0  0  0  0  0  0  0  0  0  0  0  0
  134.2390  161.9810  124.2580 O   0  0  0  0  0  0  0  0  0  0  0  0
  134.7650  162.7210  126.4620 C   0  0  0  0  0  0  0  0  0  0  0  0
  135.6320  162.1110  127.5590 C   0  0  0  0  0  0  0  0  0  0  0  0
  134.8990  160.9660  128.2640 C   0  0  2  0  0  0  0  0  0  0  0  0
  135.7790  160.3340  129.2560 N   0  0  0  0  0  0  0  0  0  0  0  0
  135.4040  159.7000  130.4940 C   0  0  0  0  0  0  0  0  0  0  0  0
  134.2230  159.6100  130.9270 O   0  0  0  0  0  0  0  0  0  0  0  0
  136.5910  159.2440  131.2020 C   0  0  0  0  0  0  0  0  0  0  0  0
  136.7140  158.5790  132.4070 C   0  0  0  0  0  0  0  0  0  0  0  0
  138.0070  158.2690  132.8600 C   0  0  0  0  0  0  0  0  0  0  0  0
  138.1400  157.6350  134.0540 F   0  0  0  0  0  0  0  0  0  0  0  0
  139.1500  158.6080  132.0910 C   0  0  0  0  0  0  0  0  0  0  0  0
  140.5240  158.3210  132.6590 C   0  0  0  0  0  0  0  0  0  0  0  0
  141.0220  159.3830  133.6170 C   0  0  0  0  0  0  0  0  0  0  0  0
  142.2410  159.6490  132.8300 N   0  0  0  0  0  0  0  0  0  0  0  0
  143.4670  159.1750  133.5220 C   0  0  2  0  0  0  0  0  0  0  0  0
  144.6020  160.2280  133.3950 C   0  0  0  0  0  0  0  0  0  0  0  0
  145.9220  159.6420  133.9030 C   0  0  0  0  0  0  0  0  0  0  0  0
  146.3980  158.4110  133.0850 C   0  0  1  0  0  0  0  0  0  0  0  0
  146.9660  157.3670  133.9550 N   0  0  0  0  0  0  0  0  0  0  0  0
  147.0360  155.9810  133.5780 C   0  0  0  0  0  0  0  0  0  0  0  0
  146.8610  155.6260  132.3720 O   0  0  0  0  0  0  0  0  0  0  0  0
  147.3730  154.9510  134.5880 C   0  0  0  0  0  0  0  0  0  0  0  0
  148.1930  153.8610  134.2520 C   0  0  0  0  0  0  0  0  0  0  0  0
  148.4840  152.8770  135.2030 C   0  0  0  0  0  0  0  0  0  0  0  0
  147.9610  152.9710  136.5130 C   0  0  0  0  0  0  0  0  0  0  0  0
  148.2990  151.9570  137.5470 C   0  0  0  0  0  0  0  0  0  0  0  0
  148.9090  152.3490  138.7720 C   0  0  0  0  0  0  0  0  0  0  0  0
  149.1680  151.4080  139.7810 C   0  0  0  0  0  0  0  0  0  0  0  0
  148.8260  150.0790  139.5460 C   0  0  0  0  0  0  0  0  0  0  0  0
  148.9090  148.9860  140.3730 C   0  0  0  0  0  0  0  0  0  0  0  0
  148.4170  147.9180  139.6340 C   0  0  0  0  0  0  0  0  0  0  0  0
  148.3720  146.5390  140.1520 C   0  0  0  0  0  0  0  0  0  0  0  0
  149.0670  145.4790  139.5180 N   0  0  0  0  0  0  0  0  0  0  0  0
  147.7010  146.2980  141.1930 O   0  0  0  0  0  0  0  0  0  0  0  0
  148.0180  148.3390  138.3980 N   0  0  0  0  0  0  0  0  0  0  0  0
  147.3640  147.5860  137.3600 C   0  0  0  0  0  0  0  0  0  0  0  0
  146.1080  147.5740  137.2800 O   0  0  0  0  0  0  0  0  0  0  0  0
  148.1320  146.8640  136.4430 O   0  0  0  0  0  0  0  0  0  0  0  0
  148.6210  147.3730  135.1980 C   0  0  0  0  0  0  0  0  0  0  0  0
  147.7120  146.5860  133.8920 Cl  0  0  0  0  0  0  0  0  0  0  0  0
  150.3480  146.9520  135.0110 Cl  0  0  0  0  0  0  0  0  0  0  0  0
  148.4000  148.8560  135.0690 C   0  0  0  0  0  0  0  0  0  0  0  0
  148.0000  149.5310  136.0570 O   0  0  0  0  0  0  0  0  0  0  0  0
  148.7230  149.5050  133.8910 O   0  0  0  0  0  0  0  0  0  0  0  0
  148.2760  149.6650  138.3630 C   0  0  0  0  0  0  0  0  0  0  0  0
  147.9920  150.5830  137.3400 C   0  0  0  0  0  0  0  0  0  0  0  0
  147.1300  154.0640  136.8400 C   0  0  0  0  0  0  0  0  0  0  0  0
  146.8280  155.0320  135.8820 C   0  0  0  0  0  0  0  0  0  0  0  0
  145.2580  157.8260  132.2050 C   0  0  0  0  0  0  0  0  0  0  0  0
  143.9080  157.7890  132.9510 C   0  0  0  0  0  0  0  0  0  0  0  0
  141.7560  158.6690  131.8390 C   0  0  0  0  0  0  0  0  0  0  0  0
  138.9820  159.3280  130.8850 C   0  0  0  0  0  0  0  0  0  0  0  0
  137.6910  159.6120  130.4580 C   0  0  0  0  0  0  0  0  0  0  0  0
  137.2060  160.2900  129.2560 C   0  0  0  0  0  0  0  0  0  0  0  0
  137.9280  160.7550  128.3330 O   0  0  0  0  0  0  0  0  0  0  0  0
  134.3880  159.9500  127.2720 C   0  0  0  0  0  0  0  0  0  0  0  0
  134.1740  158.7690  127.6680 O   0  0  0  0  0  0  0  0  0  0  0  0
  133.1155  158.4907  125.5292 H   0  0  0  0  0  0  0  0  0  0  0  0
  132.7655  159.7909  124.3402 H   0  0  0  0  0  0  0  0  0  0  0  0
  134.3693  158.9818  124.3402 H   0  0  0  0  0  0  0  0  0  0  0  0
  135.3368  163.5037  125.9419 H   0  0  0  0  0  0  0  0  0  0  0  0
  133.8625  163.1518  126.9201 H   0  0  0  0  0  0  0  0  0  0  0  0
  136.5589  161.7232  127.1112 H   0  0  0  0  0  0  0  0  0  0  0  0
  135.8596  162.8910  128.3005 H   0  0  0  0  0  0  0  0  0  0  0  0
  134.0267  161.3860  128.7862 H   0  0  0  0  0  0  0  0  0  0  0  0
  135.8262  158.3008  132.9938 H   0  0  0  0  0  0  0  0  0  0  0  0
  140.3075  157.2752  132.9223 H   0  0  0  0  0  0  0  0  0  0  0  0
  140.3522  160.2526  133.6893 H   0  0  0  0  0  0  0  0  0  0  0  0
  141.1296  159.1225  134.6803 H   0  0  0  0  0  0  0  0  0  0  0  0
  143.2472  159.0462  134.5921 H   0  0  0  0  0  0  0  0  0  0  0  0
  144.7143  160.5165  132.3395 H   0  0  0  0  0  0  0  0  0  0  0  0
  144.3437  161.1106  133.9986 H   0  0  0  0  0  0  0  0  0  0  0  0
  146.6961  160.4213  133.8449 H   0  0  0  0  0  0  0  0  0  0  0  0
  145.7541  159.3037  134.9361 H   0  0  0  0  0  0  0  0  0  0  0  0
  147.1940  158.7667  132.4143 H   0  0  0  0  0  0  0  0  0  0  0  0
  147.0820  157.5900  134.9780 H   0  0  0  0  0  0  0  0  0  0  0  0
  148.6082  153.7808  133.2365 H   0  0  0  0  0  0  0  0  0  0  0  0
  149.1237  152.0249  134.9297 H   0  0  0  0  0  0  0  0  0  0  0  0
  149.1810  153.4031  138.9300 H   0  0  0  0  0  0  0  0  0  0  0  0
  149.6290  151.7126  140.7322 H   0  0  0  0  0  0  0  0  0  0  0  0
  149.2866  148.9614  141.4059 H   0  0  0  0  0  0  0  0  0  0  0  0
  150.0480  145.5960  139.2100 H   0  0  0  0  0  0  0  0  0  0  0  0
  147.5402  150.2464  136.3952 H   0  0  0  0  0  0  0  0  0  0  0  0
  146.7181  154.1530  137.8561 H   0  0  0  0  0  0  0  0  0  0  0  0
  146.1582  155.8653  136.1407 H   0  0  0  0  0  0  0  0  0  0  0  0
  145.1489  158.4498  131.3055 H   0  0  0  0  0  0  0  0  0  0  0  0
  145.5287  156.7922  131.9442 H   0  0  0  0  0  0  0  0  0  0  0  0
  143.1343  157.4396  132.2515 H   0  0  0  0  0  0  0  0  0  0  0  0
  144.0340  157.1132  133.8097 H   0  0  0  0  0  0  0  0  0  0  0  0
  141.5182  159.1168  130.8629 H   0  0  0  0  0  0  0  0  0  0  0  0
  142.4290  157.8568  131.5271 H   0  0  0  0  0  0  0  0  0  0  0  0
  139.8534  159.6554  130.2989 H   0  0  0  0  0  0  0  0  0  0  0  0
  1  2  1  0
  2  3  1  0
  3  4  2  0
  3  5  1  0
  5  6  1  0
  6  7  1  0
  7  8  1  0
  8  9  1  0
  9 10  2  0
  9 11  1  0
 11 12  2  0
 12 13  1  0
 13 14  1  0
 13 15  2  0
 15 16  1  0
 16 17  1  0
 17 18  1  0
 18 19  1  0
 19 20  1  0
 20 21  1  0
 21 22  1  0
 22 23  1  0
 23 24  1  0
 24 25  2  0
 24 26  1  0
 26 27  2  0
 27 28  1  0
 28 29  2  0
 29 30  1  0
 30 31  2  0
 31 32  1  0
 32 33  2  0
 33 34  1  0
 34 35  2  0
 35 36  1  0
 36 37  1  0
 36 38  2  0
 35 39  1  0
 39 40  1  0
 40 41  2  0
 40 42  1  0
 42 43  1  0
 43 44  1  0
 43 45  1  0
 43 46  1  0
 46 47  2  0
 46 48  1  0
 39 49  1  0
 49 50  2  0
 29 51  1  0
 51 52  2  0
 22 53  1  0
 53 54  1  0
 18 55  1  0
 15 56  1  0
 56 57  2  0
 57 58  1  0
 58 59  2  0
  7 60  1  0
 60 61  2  0
 60  2  1  0
 58  8  1  0
 57 11  1  0
 55 16  1  0
 54 19  1  0
 52 26  1  0
 50 30  1  0
 49 33  1  0
  1 62  1  0
  1 63  1  0
  1 64  1  0
  5 65  1  0
  5 66  1  0
  6 67  1  0
  6 68  1  0
  7 69  1  1
 12 70  1  0
 16 71  1  0
 17 72  1  0
 17 73  1  0
 19 74  1  1
 20 75  1  0
 20 76  1  0
 21 77  1  0
 21 78  1  0
 22 79  1  6
 23 80  1  0
 27 81  1  0
 28 82  1  0
 31 83  1  0
 32 84  1  0
 34 85  1  0
 37 86  1  0
 50 87  1  0
 51 88  1  0
 52 89  1  0
 53 90  1  0
 53 91  1  0
 54 92  1  0
 54 93  1  0
 55 94  1  0
 55 95  1  0
 56 96  1  0
M  CHG  2  37  -1  48  -1
M  END
>  <UniqueID>  (75) 
75

>  <SMILES>  (75) 
CN1C(=O)CC[C@H](N2C(=O)c3cc(F)c(C4CN(C5CCC(NC(=O)c6ccc(-c7ccc8cc(C([NH-])=O)n(C(=O)OC(Cl)(Cl)C(=O)[O-])c8c7)cc6)CC5)C4)cc3C2=O)C1=O

>  <Energy>  (75) 
267.4195050475498

>  <Genealogy>  (75) 
CN1C(=O)CCC(N2C(=O)c3cc(F)c(C4CN(C5CCC(NC(=O)c6ccc(-c7ccc8cc(C([NH-])=O)n(C(=O)OC(Cl)(Cl)C(=O)[O-])c8c7)cc6)CC5)C4)cc3C2=O)C1=O (protonated)
CN1C(=O)CC[C@H](N2C(=O)c3cc(F)c(C4CN(C5CCC(NC(=O)c6ccc(-c7ccc8cc(C([NH-])=O)n(C(=O)OC(Cl)(Cl)C(=O)[O-])c8c7)cc6)CC5)C4)cc3C2=O)C1=O (chirality)
CN1C(=O)CC[C@H](N2C(=O)c3cc(F)c(C4CN(C5CCC(NC(=O)c6ccc(-c7ccc8cc(C([NH-])=O)n(C(=O)OC(Cl)(Cl)C(=O)[O-])c8c7)cc6)CC5)C4)cc3C2=O)C1=O (3D coordinates assigned)
CN1C(=O)CC[C@H](N2C(=O)c3cc(F)c(C4CN(C5CCC(NC(=O)c6ccc(-c7ccc8cc(C([NH-])=O)n(C(=O)OC(Cl)(Cl)C(=O)[O-])c8c7)cc6)CC5)C4)cc3C2=O)C1=O (nonaromatic ring conformer: 267.4195050475498 kcal/mol)

>  <smiles>  (75) 
CN1C(=O)CCC(N2C(=O)c3cc(F)c(C4CN(C5CCC(NC(=O)c6ccc(-c7ccc8cc(C(N)=O)n(C(=O)OC(Cl)(Cl)C(=O)O)c8c7)cc6)CC5)C4)cc3C2=O)C1=O

>  <score_type>  (75) 
oracle

>  <origin>  (75) 
adg

>  <m_score__min__energy>  (75) 
174.97

>  <m_primary>  (75) 
energy

$$$$
76:0
     RDKit          3D

 39 41  0  0  0  0  0  0  0  0999 V2000
  149.5960  161.3500  130.3440 C   0  0  0  0  0  0  0  0  0  0  0  0
  148.5490  161.2540  131.3560 N   0  0  0  0  0  0  0  0  0  0  0  0
  148.1320  160.0120  131.9530 C   0  0  0  0  0  0  0  0  0  0  0  0
  149.0600  158.9470  132.0480 C   0  0  0  0  0  0  0  0  0  0  0  0
  148.6950  157.7210  132.6290 C   0  0  0  0  0  0  0  0  0  0  0  0
  147.3930  157.5850  133.1000 C   0  0  0  0  0  0  0  0  0  0  0  0
  146.7840  156.5170  133.7170 C   0  0  0  0  0  0  0  0  0  0  0  0
  145.4790  156.9330  133.9740 C   0  0  0  0  0  0  0  0  0  0  0  0
  144.4340  156.0550  134.5470 C   0  0  0  0  0  0  0  0  0  0  0  0
  143.2940  156.6110  135.2040 N   0  0  0  0  0  0  0  0  0  0  0  0
  144.5580  154.8030  134.4880 O   0  0  0  0  0  0  0  0  0  0  0  0
  145.2900  158.2110  133.5380 N   0  0  0  0  0  0  0  0  0  0  0  0
  144.1060  159.0160  133.6580 C   0  0  0  0  0  0  0  0  0  0  0  0
  144.1900  160.1930  134.1030 O   0  0  0  0  0  0  0  0  0  0  0  0
  142.8720  158.4900  133.2520 O   0  0  0  0  0  0  0  0  0  0  0  0
  141.6250  158.8280  133.7970 C   0  0  0  0  0  0  0  0  0  0  0  0
  141.4590  158.8640  135.0480 O   0  0  0  0  0  0  0  0  0  0  0  0
  140.5000  159.1460  132.8920 C   0  0  0  0  0  0  0  0  0  0  0  0
  139.7570  158.1170  132.2890 C   0  0  0  0  0  0  0  0  0  0  0  0
  138.7030  158.4260  131.4280 C   0  0  0  0  0  0  0  0  0  0  0  0
  138.3950  159.7640  131.1750 C   0  0  0  0  0  0  0  0  0  0  0  0
  139.1200  160.7510  131.7640 N   0  0  0  0  0  0  0  0  0  0  0  0
  140.1520  160.4780  132.6060 C   0  0  0  0  0  0  0  0  0  0  0  0
  146.4730  158.5960  133.0040 C   0  0  0  0  0  0  0  0  0  0  0  0
  146.8160  159.8350  132.4500 C   0  0  0  0  0  0  0  0  0  0  0  0
  150.5753  161.4398  130.8369 H   0  0  0  0  0  0  0  0  0  0  0  0
  149.5830  160.4469  129.7161 H   0  0  0  0  0  0  0  0  0  0  0  0
  149.4189  162.2357  129.7161 H   0  0  0  0  0  0  0  0  0  0  0  0
  148.0960  162.1430  131.6700 H   0  0  0  0  0  0  0  0  0  0  0  0
  150.0811  159.0813  131.6615 H   0  0  0  0  0  0  0  0  0  0  0  0
  149.4163  156.8943  132.7090 H   0  0  0  0  0  0  0  0  0  0  0  0
  147.2321  155.5414  133.9567 H   0  0  0  0  0  0  0  0  0  0  0  0
  143.1290  157.6410  135.2270 H   0  0  0  0  0  0  0  0  0  0  0  0
  142.5830  155.9820  135.6400 H   0  0  0  0  0  0  0  0  0  0  0  0
  140.0066  157.0659  132.4960 H   0  0  0  0  0  0  0  0  0  0  0  0
  138.1204  157.6228  130.9531 H   0  0  0  0  0  0  0  0  0  0  0  0
  137.5656  160.0193  130.4990 H   0  0  0  0  0  0  0  0  0  0  0  0
  140.7170  161.3025  133.0654 H   0  0  0  0  0  0  0  0  0  0  0  0
  146.0815  160.6524  132.4014 H   0  0  0  0  0  0  0  0  0  0  0  0
  1  2  1  0
  2  3  1  0
  3  4  2  0
  4  5  1  0
  5  6  2  0
  6  7  1  0
  7  8  2  0
  8  9  1  0
  9 10  1  0
  9 11  2  0
  8 12  1  0
 12 13  1  0
 13 14  2  0
 13 15  1  0
 15 16  1  0
 16 17  2  0
 16 18  1  0
 18 19  2  0
 19 20  1  0
 20 21  2  0
 21 22  1  0
 22 23  2  0
 12 24  1  0
 24 25  2  0
 25  3  1  0
 24  6  1  0
 23 18  1  0
  1 26  1  0
  1 27  1  0
  1 28  1  0
  2 29  1  0
  4 30  1  0
  5 31  1  0
  7 32  1  0
 10 33  1  0
 10 34  1  0
 19 35  1  0
 20 36  1  0
 21 37  1  0
 23 38  1  0
 25 39  1  0
M  END
>  <UniqueID>  (76) 
76

>  <SMILES>  (76) 
CNc1ccc2cc(C(N)=O)n(C(=O)OC(=O)c3cccnc3)c2c1

>  <Energy>  (76) 
80.28182710846337

>  <Genealogy>  (76) 
CNc1ccc2cc(C(N)=O)n(C(=O)OC(=O)c3cccnc3)c2c1 (3D coordinates assigned)
CNc1ccc2cc(C(N)=O)n(C(=O)OC(=O)c3cccnc3)c2c1 (optimized conformer: 80.28182710846337 kcal/mol)

>  <smiles>  (76) 
CNc1ccc2cc(C(N)=O)n(C(=O)OC(=O)c3cccnc3)c2c1

>  <score_type>  (76) 
oracle

>  <origin>  (76) 
adg

>  <m_score__min__energy>  (76) 
-8.1400000000000006

>  <m_primary>  (76) 
energy

$$$$
77:0
     RDKit          3D

 44 45  0  0  0  0  0  0  0  0999 V2000
  144.5760  160.8930  133.7870 C   0  0  0  0  0  0  0  0  0  0  0  0
  145.7620  160.0080  133.5500 C   0  0  0  0  0  0  0  0  0  0  0  0
  147.0470  160.5780  133.3710 C   0  0  0  0  0  0  0  0  0  0  0  0
  148.1590  159.7630  133.1040 C   0  0  0  0  0  0  0  0  0  0  0  0
  147.9560  158.3890  133.0140 C   0  0  0  0  0  0  0  0  0  0  0  0
  148.8460  157.3840  132.7190 C   0  0  0  0  0  0  0  0  0  0  0  0
  148.0960  156.2120  132.7330 C   0  0  0  0  0  0  0  0  0  0  0  0
  148.6790  154.8720  132.5170 C   0  0  0  0  0  0  0  0  0  0  0  0
  147.8510  153.7360  132.2700 N   0  0  0  0  0  0  0  0  0  0  0  0
  149.9260  154.7170  132.6130 O   0  0  0  0  0  0  0  0  0  0  0  0
  146.7890  156.4780  133.0110 N   0  0  0  0  0  0  0  0  0  0  0  0
  145.6880  155.5560  132.9600 C   0  0  0  0  0  0  0  0  0  0  0  0
  145.1800  155.2310  131.8510 O   0  0  0  0  0  0  0  0  0  0  0  0
  145.1930  155.0070  134.1460 O   0  0  0  0  0  0  0  0  0  0  0  0
  145.5860  153.7290  134.6370 C   0  0  0  0  0  0  0  0  0  0  0  0
  144.7330  152.7310  134.0880 O   0  0  0  0  0  0  0  0  0  0  0  0
  145.0840  151.9760  132.9650 C   0  0  0  0  0  0  0  0  0  0  0  0
  144.1890  151.4740  132.2300 O   0  0  0  0  0  0  0  0  0  0  0  0
  146.4360  151.7800  132.6760 O   0  0  0  0  0  0  0  0  0  0  0  0
  146.9740  150.5450  132.2050 C   0  0  0  0  0  0  0  0  0  0  0  0
  148.0150  150.7950  131.2610 O   0  0  0  0  0  0  0  0  0  0  0  0
  149.3340  151.1040  131.6150 C   0  0  0  0  0  0  0  0  0  0  0  0
  149.9710  152.0060  131.0040 O   0  0  0  0  0  0  0  0  0  0  0  0
  149.9810  150.3700  132.7470 C   0  0  0  0  0  0  0  0  0  0  0  0
  149.6800  151.0320  134.0540 C   0  0  0  0  0  0  0  0  0  0  0  0
  150.0360  150.4890  135.1340 O   0  0  0  0  0  0  0  0  0  0  0  0
  148.9640  152.2220  134.0850 O   0  0  0  0  0  0  0  0  0  0  0  0
  146.7190  157.8200  133.1850 C   0  0  0  0  0  0  0  0  0  0  0  0
  145.5900  158.6120  133.4320 C   0  0  0  0  0  0  0  0  0  0  0  0
  144.4173  161.0114  134.8690 H   0  0  0  0  0  0  0  0  0  0  0  0
  144.7573  161.8784  133.3330 H   0  0  0  0  0  0  0  0  0  0  0  0
  143.6830  160.4388  133.3330 H   0  0  0  0  0  0  0  0  0  0  0  0
  147.1745  161.6683  133.4418 H   0  0  0  0  0  0  0  0  0  0  0  0
  149.1606  160.1976  132.9700 H   0  0  0  0  0  0  0  0  0  0  0  0
  149.9222  157.4847  132.5152 H   0  0  0  0  0  0  0  0  0  0  0  0
  148.2820  152.8040  132.0790 H   0  0  0  0  0  0  0  0  0  0  0  0
  146.8130  153.7970  132.3510 H   0  0  0  0  0  0  0  0  0  0  0  0
  146.6261  153.5261  134.3420 H   0  0  0  0  0  0  0  0  0  0  0  0
  145.5089  153.7164  135.7342 H   0  0  0  0  0  0  0  0  0  0  0  0
  147.3812  149.9773  133.0547 H   0  0  0  0  0  0  0  0  0  0  0  0
  146.1759  149.9656  131.7178 H   0  0  0  0  0  0  0  0  0  0  0  0
  149.6017  149.3377  132.7704 H   0  0  0  0  0  0  0  0  0  0  0  0
  151.0701  150.3759  132.5927 H   0  0  0  0  0  0  0  0  0  0  0  0
  144.5935  158.1569  133.5316 H   0  0  0  0  0  0  0  0  0  0  0  0
  1  2  1  0
  2  3  2  0
  3  4  1  0
  4  5  2  0
  5  6  1  0
  6  7  2  0
  7  8  1  0
  8  9  1  0
  8 10  2  0
  7 11  1  0
 11 12  1  0
 12 13  2  0
 12 14  1  0
 14 15  1  0
 15 16  1  0
 16 17  1  0
 17 18  2  0
 17 19  1  0
 19 20  1  0
 20 21  1  0
 21 22  1  0
 22 23  2  0
 22 24  1  0
 24 25  1  0
 25 26  2  0
 25 27  1  0
 11 28  1  0
 28 29  2  0
 29  2  1  0
 28  5  1  0
  1 30  1  0
  1 31  1  0
  1 32  1  0
  3 33  1  0
  4 34  1  0
  6 35  1  0
  9 36  1  0
  9 37  1  0
 15 38  1  0
 15 39  1  0
 20 40  1  0
 20 41  1  0
 24 42  1  0
 24 43  1  0
 29 44  1  0
M  CHG  1  27  -1
M  END
>  <UniqueID>  (77) 
77

>  <SMILES>  (77) 
Cc1ccc2cc(C(N)=O)n(C(=O)OCOC(=O)OCOC(=O)CC(=O)[O-])c2c1

>  <Energy>  (77) 
75.85747043672204

>  <Genealogy>  (77) 
Cc1ccc2cc(C(N)=O)n(C(=O)OCOC(=O)OCOC(=O)CC(=O)[O-])c2c1 (protonated)
Cc1ccc2cc(C(N)=O)n(C(=O)OCOC(=O)OCOC(=O)CC(=O)[O-])c2c1 (3D coordinates assigned)
Cc1ccc2cc(C(N)=O)n(C(=O)OCOC(=O)OCOC(=O)CC(=O)[O-])c2c1 (optimized conformer: 75.85747043672204 kcal/mol)

>  <smiles>  (77) 
Cc1ccc2cc(C(N)=O)n(C(=O)OCOC(=O)OCOC(=O)CC(=O)O)c2c1

>  <score_type>  (77) 
oracle

>  <origin>  (77) 
adg

>  <m_score__min__energy>  (77) 
-5.7800000000000002

>  <m_primary>  (77) 
energy

$$$$
78:0
     RDKit          3D

 47 48  0  0  0  0  0  0  0  0999 V2000
  139.3390  155.9830  132.9610 C   0  0  0  0  0  0  0  0  0  0  0  0
  140.4450  156.5560  133.8670 C   0  0  1  0  0  0  0  0  0  0  0  0
  141.7610  155.9780  133.4030 C   0  0  0  0  0  0  0  0  0  0  0  0
  141.8660  154.7350  133.2230 O   0  0  0  0  0  0  0  0  0  0  0  0
  142.8370  156.8400  133.1560 O   0  0  0  0  0  0  0  0  0  0  0  0
  143.4340  157.6800  134.1050 C   0  0  0  0  0  0  0  0  0  0  0  0
  142.9590  157.7780  135.2700 O   0  0  0  0  0  0  0  0  0  0  0  0
  144.6160  158.4140  133.7530 N   0  0  0  0  0  0  0  0  0  0  0  0
  144.7670  159.7670  133.6640 C   0  0  0  0  0  0  0  0  0  0  0  0
  143.6880  160.7710  133.7620 C   0  0  0  0  0  0  0  0  0  0  0  0
  142.3210  160.3760  133.8240 N   0  0  0  0  0  0  0  0  0  0  0  0
  143.9760  161.9990  133.7400 O   0  0  0  0  0  0  0  0  0  0  0  0
  146.0900  160.0910  133.3720 C   0  0  0  0  0  0  0  0  0  0  0  0
  146.7480  158.8870  133.2730 C   0  0  0  0  0  0  0  0  0  0  0  0
  148.0830  158.6190  133.0020 C   0  0  0  0  0  0  0  0  0  0  0  0
  148.4960  157.2770  132.9800 C   0  0  0  0  0  0  0  0  0  0  0  0
  147.5780  156.2190  133.2370 C   0  0  0  0  0  0  0  0  0  0  0  0
  148.0160  154.8350  133.2190 N   0  0  0  0  0  0  0  0  0  0  0  0
  147.1840  153.7800  133.8120 C   0  0  0  0  0  0  0  0  0  0  0  0
  149.3000  154.4650  132.6080 C   0  0  0  0  0  0  0  0  0  0  0  0
  146.2240  156.5450  133.5130 C   0  0  0  0  0  0  0  0  0  0  0  0
  145.8380  157.8910  133.5060 C   0  0  0  0  0  0  0  0  0  0  0  0
  140.4750  158.0490  133.8530 N   0  0  0  0  0  0  0  0  0  0  0  0
  139.7610  158.6010  132.6830 C   0  0  0  0  0  0  0  0  0  0  0  0
  139.8670  158.6040  135.0820 C   0  0  0  0  0  0  0  0  0  0  0  0
  138.5341  155.5660  133.5840 H   0  0  0  0  0  0  0  0  0  0  0  0
  138.9334  156.7844  132.3260 H   0  0  0  0  0  0  0  0  0  0  0  0
  139.7597  155.1894  132.3260 H   0  0  0  0  0  0  0  0  0  0  0  0
  140.2450  156.2732  134.9111 H   0  0  0  0  0  0  0  0  0  0  0  0
  142.0440  159.4680  134.2590 H   0  0  0  0  0  0  0  0  0  0  0  0
  146.5179  161.0966  133.2470 H   0  0  0  0  0  0  0  0  0  0  0  0
  148.7964  159.4340  132.8101 H   0  0  0  0  0  0  0  0  0  0  0  0
  149.5472  157.0388  132.7604 H   0  0  0  0  0  0  0  0  0  0  0  0
  147.2356  153.8454  134.9088 H   0  0  0  0  0  0  0  0  0  0  0  0
  146.1414  153.9084  133.4857 H   0  0  0  0  0  0  0  0  0  0  0  0
  147.5519  152.7960  133.4857 H   0  0  0  0  0  0  0  0  0  0  0  0
  150.0348  154.2532  133.3987 H   0  0  0  0  0  0  0  0  0  0  0  0
  149.1645  153.5693  131.9839 H   0  0  0  0  0  0  0  0  0  0  0  0
  149.6619  155.2954  131.9839 H   0  0  0  0  0  0  0  0  0  0  0  0
  145.4908  155.7538  133.7286 H   0  0  0  0  0  0  0  0  0  0  0  0
  141.4690  158.3790  133.8060 H   0  0  0  0  0  0  0  0  0  0  0  0
  138.9342  159.2402  133.0261 H   0  0  0  0  0  0  0  0  0  0  0  0
  140.4580  159.1974  132.0760 H   0  0  0  0  0  0  0  0  0  0  0  0
  139.3593  157.7763  132.0760 H   0  0  0  0  0  0  0  0  0  0  0  0
  140.3527  158.1607  135.9638 H   0  0  0  0  0  0  0  0  0  0  0  0
  140.0036  159.6954  135.0981 H   0  0  0  0  0  0  0  0  0  0  0  0
  138.7926  158.3687  135.0981 H   0  0  0  0  0  0  0  0  0  0  0  0
  1  2  1  0
  2  3  1  0
  3  4  2  0
  3  5  1  0
  5  6  1  0
  6  7  2  0
  6  8  1  0
  8  9  1  0
  9 10  1  0
 10 11  1  0
 10 12  2  0
  9 13  2  0
 13 14  1  0
 14 15  2  0
 15 16  1  0
 16 17  2  0
 17 18  1  0
 18 19  1  0
 18 20  1  0
 17 21  1  0
 21 22  2  0
  2 23  1  0
 23 24  1  0
 23 25  1  0
 22  8  1  0
 22 14  1  0
  1 26  1  0
  1 27  1  0
  1 28  1  0
  2 29  1  1
 11 30  1  0
 13 31  1  0
 15 32  1  0
 16 33  1  0
 19 34  1  0
 19 35  1  0
 19 36  1  0
 20 37  1  0
 20 38  1  0
 20 39  1  0
 21 40  1  0
 23 41  1  0
 24 42  1  0
 24 43  1  0
 24 44  1  0
 25 45  1  0
 25 46  1  0
 25 47  1  0
M  CHG  2  11  -1  23   1
M  END
>  <UniqueID>  (78) 
78

>  <SMILES>  (78) 
C[C@@H](C(=O)OC(=O)n1c(C([NH-])=O)cc2ccc(N(C)C)cc21)[NH+](C)C

>  <Energy>  (78) 
88.71780100181587

>  <Genealogy>  (78) 
CC(C(=O)OC(=O)n1c(C([NH-])=O)cc2ccc(N(C)C)cc21)[NH+](C)C (protonated)
C[C@@H](C(=O)OC(=O)n1c(C([NH-])=O)cc2ccc(N(C)C)cc21)[NH+](C)C (chirality)
C[C@@H](C(=O)OC(=O)n1c(C([NH-])=O)cc2ccc(N(C)C)cc21)[NH+](C)C (3D coordinates assigned)
C[C@@H](C(=O)OC(=O)n1c(C([NH-])=O)cc2ccc(N(C)C)cc21)[NH+](C)C (optimized conformer: 88.71780100181587 kcal/mol)

>  <smiles>  (78) 
CC(C(=O)OC(=O)n1c(C(N)=O)cc2ccc(N(C)C)cc21)N(C)C

>  <score_type>  (78) 
oracle

>  <origin>  (78) 
adg

>  <m_score__min__energy>  (78) 
-6.1200000000000001

>  <m_primary>  (78) 
energy

$$$$
79:0
     RDKit          3D

 49 50  0  0  0  0  0  0  0  0999 V2000
  141.2410  159.1080  136.0660 C   0  0  0  0  0  0  0  0  0  0  0  0
  141.7870  159.0280  134.8520 C   0  0  0  0  0  0  0  0  0  0  0  0
  143.1380  158.6710  134.7620 O   0  0  0  0  0  0  0  0  0  0  0  0
  143.8250  158.4360  133.5630 C   0  0  0  0  0  0  0  0  0  0  0  0
  143.2530  157.8480  132.6050 O   0  0  0  0  0  0  0  0  0  0  0  0
  145.2130  158.7930  133.4580 N   0  0  0  0  0  0  0  0  0  0  0  0
  145.7700  160.0340  133.5550 C   0  0  0  0  0  0  0  0  0  0  0  0
  145.0670  161.2770  133.9360 C   0  0  0  0  0  0  0  0  0  0  0  0
  143.6600  161.4110  133.7580 N   0  0  0  0  0  0  0  0  0  0  0  0
  145.7120  162.2160  134.4750 O   0  0  0  0  0  0  0  0  0  0  0  0
  147.1420  159.9740  133.3260 C   0  0  0  0  0  0  0  0  0  0  0  0
  147.4160  158.6460  133.0940 C   0  0  0  0  0  0  0  0  0  0  0  0
  148.6260  158.0200  132.8150 C   0  0  0  0  0  0  0  0  0  0  0  0
  148.6170  156.6310  132.6110 C   0  0  0  0  0  0  0  0  0  0  0  0
  147.4040  155.8950  132.6780 C   0  0  0  0  0  0  0  0  0  0  0  0
  147.4120  154.4640  132.4940 N   0  0  0  0  0  0  0  0  0  0  0  0
  147.8730  153.7550  133.7020 C   0  0  0  0  0  0  0  0  0  0  0  0
  148.8160  152.5750  133.3890 C   0  0  0  0  0  0  0  0  0  0  0  0
  148.6790  152.1130  131.9910 N   0  0  0  0  0  0  0  0  0  0  0  0
  149.9290  151.4830  131.5340 C   0  0  0  0  0  0  0  0  0  0  0  0
  147.5660  151.1580  131.8460 C   0  0  0  0  0  0  0  0  0  0  0  0
  146.1920  156.5740  132.9440 C   0  0  0  0  0  0  0  0  0  0  0  0
  146.2360  157.9540  133.1750 C   0  0  0  0  0  0  0  0  0  0  0  0
  140.9950  159.3590  133.6450 C   0  0  0  0  0  0  0  0  0  0  0  0
  140.9980  160.5350  133.1840 O   0  0  0  0  0  0  0  0  0  0  0  0
  140.2640  158.3560  133.0030 O   0  0  0  0  0  0  0  0  0  0  0  0
  139.3200  158.6320  131.9760 C   0  0  0  0  0  0  0  0  0  0  0  0
  140.1823  159.3856  136.1757 H   0  0  0  0  0  0  0  0  0  0  0  0
  141.8493  158.8964  136.9577 H   0  0  0  0  0  0  0  0  0  0  0  0
  143.0440  160.5710  133.6930 H   0  0  0  0  0  0  0  0  0  0  0  0
  147.8556  160.8111  133.3298 H   0  0  0  0  0  0  0  0  0  0  0  0
  149.5616  158.5955  132.7560 H   0  0  0  0  0  0  0  0  0  0  0  0
  149.5600  156.1067  132.3968 H   0  0  0  0  0  0  0  0  0  0  0  0
  148.0630  154.2370  131.7070 H   0  0  0  0  0  0  0  0  0  0  0  0
  146.4640  154.1170  132.2150 H   0  0  0  0  0  0  0  0  0  0  0  0
  148.4081  154.4697  134.3445 H   0  0  0  0  0  0  0  0  0  0  0  0
  146.9831  153.3406  134.1984 H   0  0  0  0  0  0  0  0  0  0  0  0
  149.8546  152.8960  133.5569 H   0  0  0  0  0  0  0  0  0  0  0  0
  148.5462  151.7392  134.0513 H   0  0  0  0  0  0  0  0  0  0  0  0
  150.5277  151.1813  132.4061 H   0  0  0  0  0  0  0  0  0  0  0  0
  149.6923  150.5965  130.9273 H   0  0  0  0  0  0  0  0  0  0  0  0
  150.5008  152.2006  130.9273 H   0  0  0  0  0  0  0  0  0  0  0  0
  147.2116  150.8540  132.8420 H   0  0  0  0  0  0  0  0  0  0  0  0
  146.7429  151.6352  131.2939 H   0  0  0  0  0  0  0  0  0  0  0  0
  147.9127  150.2720  131.2939 H   0  0  0  0  0  0  0  0  0  0  0  0
  145.2363  156.0299  132.9688 H   0  0  0  0  0  0  0  0  0  0  0  0
  138.3577  158.9134  132.4285 H   0  0  0  0  0  0  0  0  0  0  0  0
  139.6881  159.4601  131.3525 H   0  0  0  0  0  0  0  0  0  0  0  0
  139.1840  157.7360  131.3525 H   0  0  0  0  0  0  0  0  0  0  0  0
  1  2  2  0
  2  3  1  0
  3  4  1  0
  4  5  2  0
  4  6  1  0
  6  7  1  0
  7  8  1  0
  8  9  1  0
  8 10  2  0
  7 11  2  0
 11 12  1  0
 12 13  2  0
 13 14  1  0
 14 15  2  0
 15 16  1  0
 16 17  1  0
 17 18  1  0
 18 19  1  0
 19 20  1  0
 19 21  1  0
 15 22  1  0
 22 23  2  0
  2 24  1  0
 24 25  2  0
 24 26  1  0
 26 27  1  0
 23  6  1  0
 23 12  1  0
  1 28  1  0
  1 29  1  0
  9 30  1  0
 11 31  1  0
 13 32  1  0
 14 33  1  0
 16 34  1  0
 16 35  1  0
 17 36  1  0
 17 37  1  0
 18 38  1  0
 18 39  1  0
 20 40  1  0
 20 41  1  0
 20 42  1  0
 21 43  1  0
 21 44  1  0
 21 45  1  0
 22 46  1  0
 27 47  1  0
 27 48  1  0
 27 49  1  0
M  CHG  2   9  -1  16   1
M  END
>  <UniqueID>  (79) 
79

>  <SMILES>  (79) 
C=C(OC(=O)n1c(C([NH-])=O)cc2ccc([NH2+]CCN(C)C)cc21)C(=O)OC

>  <Energy>  (79) 
87.44811870542698

>  <Genealogy>  (79) 
C=C(OC(=O)n1c(C([NH-])=O)cc2ccc([NH2+]CCN(C)C)cc21)C(=O)OC (protonated)
C=C(OC(=O)n1c(C([NH-])=O)cc2ccc([NH2+]CCN(C)C)cc21)C(=O)OC (3D coordinates assigned)
C=C(OC(=O)n1c(C([NH-])=O)cc2ccc([NH2+]CCN(C)C)cc21)C(=O)OC (optimized conformer: 87.44811870542698 kcal/mol)

>  <smiles>  (79) 
C=C(OC(=O)n1c(C(N)=O)cc2ccc(NCCN(C)C)cc21)C(=O)OC

>  <score_type>  (79) 
oracle

>  <origin>  (79) 
adg

>  <m_score__min__energy>  (79) 
-6.5199999999999996

>  <m_primary>  (79) 
energy

$$$$
80:0
     RDKit          3D

 49 51  0  0  0  0  0  0  0  0999 V2000
  141.4590  152.9550  132.6240 C   0  0  0  0  0  0  0  0  0  0  0  0
  141.6790  153.4840  133.9760 N   0  0  0  0  0  0  0  0  0  0  0  0
  142.2910  152.6210  134.9950 C   0  0  0  0  0  0  0  0  0  0  0  0
  141.2890  154.8280  134.3560 C   0  0  0  0  0  0  0  0  0  0  0  0
  141.3830  155.1710  135.5670 O   0  0  0  0  0  0  0  0  0  0  0  0
  140.7800  155.8400  133.3940 C   0  0  0  0  0  0  0  0  0  0  0  0
  139.8250  155.5820  132.6160 O   0  0  0  0  0  0  0  0  0  0  0  0
  141.3500  157.1580  133.3750 N   0  0  0  0  0  0  0  0  0  0  0  0
  140.7150  158.3490  133.1930 C   0  0  0  0  0  0  0  0  0  0  0  0
  139.2530  158.5450  133.0910 C   0  0  0  0  0  0  0  0  0  0  0  0
  138.3460  157.6320  133.7040 N   0  0  0  0  0  0  0  0  0  0  0  0
  138.7980  159.5480  132.4790 O   0  0  0  0  0  0  0  0  0  0  0  0
  141.6390  159.3930  133.1730 C   0  0  0  0  0  0  0  0  0  0  0  0
  142.8670  158.7970  133.3600 C   0  0  0  0  0  0  0  0  0  0  0  0
  144.1380  159.3580  133.4160 C   0  0  0  0  0  0  0  0  0  0  0  0
  145.2320  158.4930  133.5970 C   0  0  0  0  0  0  0  0  0  0  0  0
  145.0390  157.0920  133.7220 C   0  0  0  0  0  0  0  0  0  0  0  0
  146.1700  156.2140  133.8850 N   0  0  0  0  0  0  0  0  0  0  0  0
  147.5420  156.7340  133.8510 C   0  0  0  0  0  0  0  0  0  0  0  0
  148.4240  155.8970  132.9000 C   0  0  0  0  0  0  0  0  0  0  0  0
  147.8980  154.5260  132.6640 N   0  0  0  0  0  0  0  0  0  0  0  0
  148.9810  153.6290  132.2280 C   0  0  0  0  0  0  0  0  0  0  0  0
  147.2310  153.9800  133.8640 C   0  0  0  0  0  0  0  0  0  0  0  0
  145.9630  154.7890  134.1760 C   0  0  0  0  0  0  0  0  0  0  0  0
  143.7290  156.5630  133.6530 C   0  0  0  0  0  0  0  0  0  0  0  0
  142.6620  157.4480  133.4810 C   0  0  0  0  0  0  0  0  0  0  0  0
  141.0374  151.9412  132.6910 H   0  0  0  0  0  0  0  0  0  0  0  0
  140.7581  153.6086  132.0841 H   0  0  0  0  0  0  0  0  0  0  0  0
  142.4167  152.9189  132.0841 H   0  0  0  0  0  0  0  0  0  0  0  0
  142.0276  152.9924  135.9963 H   0  0  0  0  0  0  0  0  0  0  0  0
  141.9192  151.5926  134.8759 H   0  0  0  0  0  0  0  0  0  0  0  0
  143.3845  152.6317  134.8759 H   0  0  0  0  0  0  0  0  0  0  0  0
  138.0900  156.7340  133.2390 H   0  0  0  0  0  0  0  0  0  0  0  0
  141.4316  160.4647  133.0369 H   0  0  0  0  0  0  0  0  0  0  0  0
  144.2833  160.4443  133.3217 H   0  0  0  0  0  0  0  0  0  0  0  0
  146.2501  158.9071  133.6423 H   0  0  0  0  0  0  0  0  0  0  0  0
  147.5236  157.7767  133.5010 H   0  0  0  0  0  0  0  0  0  0  0  0
  147.9651  156.6768  134.8648 H   0  0  0  0  0  0  0  0  0  0  0  0
  148.4871  156.4180  131.9332 H   0  0  0  0  0  0  0  0  0  0  0  0
  149.4088  155.7903  133.3783 H   0  0  0  0  0  0  0  0  0  0  0  0
  147.1980  154.5680  131.8840 H   0  0  0  0  0  0  0  0  0  0  0  0
  149.4872  153.2097  133.1100 H   0  0  0  0  0  0  0  0  0  0  0  0
  148.5596  152.8119  131.6241 H   0  0  0  0  0  0  0  0  0  0  0  0
  149.7054  154.1953  131.6241 H   0  0  0  0  0  0  0  0  0  0  0  0
  146.9575  152.9301  133.6825 H   0  0  0  0  0  0  0  0  0  0  0  0
  147.9193  154.0444  134.7197 H   0  0  0  0  0  0  0  0  0  0  0  0
  145.1335  154.4117  133.5599 H   0  0  0  0  0  0  0  0  0  0  0  0
  145.7270  154.6775  135.2446 H   0  0  0  0  0  0  0  0  0  0  0  0
  143.5545  155.4799  133.7329 H   0  0  0  0  0  0  0  0  0  0  0  0
  1  2  1  0
  2  3  1  0
  2  4  1  0
  4  5  2  0
  4  6  1  0
  6  7  2  0
  6  8  1  0
  8  9  1  0
  9 10  1  0
 10 11  1  0
 10 12  2  0
  9 13  2  0
 13 14  1  0
 14 15  2  0
 15 16  1  0
 16 17  2  0
 17 18  1  0
 18 19  1  0
 19 20  1  0
 20 21  1  0
 21 22  1  0
 21 23  1  0
 23 24  1  0
 17 25  1  0
 25 26  2  0
 26  8  1  0
 26 14  1  0
 24 18  1  0
  1 27  1  0
  1 28  1  0
  1 29  1  0
  3 30  1  0
  3 31  1  0
  3 32  1  0
 11 33  1  0
 13 34  1  0
 15 35  1  0
 16 36  1  0
 19 37  1  0
 19 38  1  0
 20 39  1  0
 20 40  1  0
 21 41  1  0
 22 42  1  0
 22 43  1  0
 22 44  1  0
 23 45  1  0
 23 46  1  0
 24 47  1  0
 24 48  1  0
 25 49  1  0
M  CHG  2  11  -1  21   1
M  END
>  <UniqueID>  (80) 
80

>  <SMILES>  (80) 
CN(C)C(=O)C(=O)n1c(C([NH-])=O)cc2ccc(N3CC[NH+](C)CC3)cc21

>  <Energy>  (80) 
99.76086276531478

>  <Genealogy>  (80) 
CN(C)C(=O)C(=O)n1c(C([NH-])=O)cc2ccc(N3CC[NH+](C)CC3)cc21 (protonated)
CN(C)C(=O)C(=O)n1c(C([NH-])=O)cc2ccc(N3CC[NH+](C)CC3)cc21 (3D coordinates assigned)
CN(C)C(=O)C(=O)n1c(C([NH-])=O)cc2ccc(N3CC[NH+](C)CC3)cc21 (nonaromatic ring conformer: 99.76086276531478 kcal/mol)

>  <smiles>  (80) 
CN1CCN(c2ccc3cc(C(N)=O)n(C(=O)C(=O)N(C)C)c3c2)CC1

>  <score_type>  (80) 
oracle

>  <origin>  (80) 
adg

>  <m_score__min__energy>  (80) 
-6.9800000000000004

>  <m_primary>  (80) 
energy

$$$$
81:0
     RDKit          3D

 36 37  0  0  0  0  0  0  0  0999 V2000
  149.2170  159.3560  132.6530 C   0  0  0  0  0  0  0  0  0  0  0  0
  147.8950  158.7350  132.9930 C   0  0  0  0  0  0  0  0  0  0  0  0
  146.6910  159.4130  132.6810 C   0  0  0  0  0  0  0  0  0  0  0  0
  145.4470  158.8520  133.0180 C   0  0  0  0  0  0  0  0  0  0  0  0
  145.4410  157.6280  133.6800 C   0  0  0  0  0  0  0  0  0  0  0  0
  144.3840  156.8570  134.1060 C   0  0  0  0  0  0  0  0  0  0  0  0
  144.9590  155.7390  134.7080 C   0  0  0  0  0  0  0  0  0  0  0  0
  144.1710  154.6930  135.3930 C   0  0  0  0  0  0  0  0  0  0  0  0
  144.5930  154.1540  136.6430 N   0  0  0  0  0  0  0  0  0  0  0  0
  143.0840  154.3000  134.8890 O   0  0  0  0  0  0  0  0  0  0  0  0
  146.3200  155.8110  134.6460 N   0  0  0  0  0  0  0  0  0  0  0  0
  147.2760  154.8350  135.0870 C   0  0  0  0  0  0  0  0  0  0  0  0
  147.8860  154.1270  134.2400 O   0  0  0  0  0  0  0  0  0  0  0  0
  147.5420  154.7040  136.4560 O   0  0  0  0  0  0  0  0  0  0  0  0
  147.7190  153.4910  137.1310 C   0  0  0  0  0  0  0  0  0  0  0  0
  146.7430  152.7340  137.3830 O   0  0  0  0  0  0  0  0  0  0  0  0
  149.0860  153.1150  137.6070 C   0  0  0  0  0  0  0  0  0  0  0  0
  149.6980  154.2130  138.2580 O   0  0  0  0  0  0  0  0  0  0  0  0
  149.6830  154.0470  139.6630 C   0  0  0  0  0  0  0  0  0  0  0  0
  148.5960  154.8730  140.2780 C   0  0  0  0  0  0  0  0  0  0  0  0
  148.8740  155.9510  140.8670 O   0  0  0  0  0  0  0  0  0  0  0  0
  147.2720  154.4660  140.1760 O   0  0  0  0  0  0  0  0  0  0  0  0
  146.5980  156.9750  134.0180 C   0  0  0  0  0  0  0  0  0  0  0  0
  147.8510  157.5030  133.6790 C   0  0  0  0  0  0  0  0  0  0  0  0
  149.7530  159.6078  133.5800 H   0  0  0  0  0  0  0  0  0  0  0  0
  149.8157  158.6449  132.0648 H   0  0  0  0  0  0  0  0  0  0  0  0
  149.0520  160.2708  132.0648 H   0  0  0  0  0  0  0  0  0  0  0  0
  146.7299  160.3867  132.1707 H   0  0  0  0  0  0  0  0  0  0  0  0
  144.5070  159.3648  132.7662 H   0  0  0  0  0  0  0  0  0  0  0  0
  143.3119  157.0765  133.9950 H   0  0  0  0  0  0  0  0  0  0  0  0
  145.4750  154.4810  137.0980 H   0  0  0  0  0  0  0  0  0  0  0  0
  149.0065  152.2737  138.3112 H   0  0  0  0  0  0  0  0  0  0  0  0
  149.6994  152.8246  136.7413 H   0  0  0  0  0  0  0  0  0  0  0  0
  149.5101  152.9869  139.9003 H   0  0  0  0  0  0  0  0  0  0  0  0
  150.6512  154.3741  140.0698 H   0  0  0  0  0  0  0  0  0  0  0  0
  148.7770  156.9703  133.9412 H   0  0  0  0  0  0  0  0  0  0  0  0
  1  2  1  0
  2  3  2  0
  3  4  1  0
  4  5  2  0
  5  6  1  0
  6  7  2  0
  7  8  1  0
  8  9  1  0
  8 10  2  0
  7 11  1  0
 11 12  1  0
 12 13  2  0
 12 14  1  0
 14 15  1  0
 15 16  2  0
 15 17  1  0
 17 18  1  0
 18 19  1  0
 19 20  1  0
 20 21  2  0
 20 22  1  0
 11 23  1  0
 23 24  2  0
 24  2  1  0
 23  5  1  0
  1 25  1  0
  1 26  1  0
  1 27  1  0
  3 28  1  0
  4 29  1  0
  6 30  1  0
  9 31  1  0
 17 32  1  0
 17 33  1  0
 19 34  1  0
 19 35  1  0
 24 36  1  0
M  CHG  2   9  -1  22  -1
M  END
>  <UniqueID>  (81) 
81

>  <SMILES>  (81) 
Cc1ccc2cc(C([NH-])=O)n(C(=O)OC(=O)COCC(=O)[O-])c2c1

>  <Energy>  (81) 
76.77094387624003

>  <Genealogy>  (81) 
Cc1ccc2cc(C([NH-])=O)n(C(=O)OC(=O)COCC(=O)[O-])c2c1 (protonated)
Cc1ccc2cc(C([NH-])=O)n(C(=O)OC(=O)COCC(=O)[O-])c2c1 (3D coordinates assigned)
Cc1ccc2cc(C([NH-])=O)n(C(=O)OC(=O)COCC(=O)[O-])c2c1 (optimized conformer: 76.77094387624003 kcal/mol)

>  <smiles>  (81) 
Cc1ccc2cc(C(N)=O)n(C(=O)OC(=O)COCC(=O)O)c2c1

>  <score_type>  (81) 
oracle

>  <origin>  (81) 
adg

>  <m_score__min__energy>  (81) 
-6.4199999999999999

>  <m_primary>  (81) 
energy

$$$$
82:0
     RDKit          3D

 35 36  0  0  0  0  0  0  0  0999 V2000
  140.3200  157.9570  133.1750 C   0  0  0  0  0  0  0  0  0  0  0  0
  141.1550  158.3960  134.2990 N   0  0  0  0  0  0  0  0  0  0  0  0
  140.6230  158.2880  135.6630 C   0  0  0  0  0  0  0  0  0  0  0  0
  142.4860  158.9240  134.0660 C   0  0  0  0  0  0  0  0  0  0  0  0
  142.7150  160.3280  134.0290 C   0  0  0  0  0  0  0  0  0  0  0  0
  143.9990  160.8480  133.7960 C   0  0  0  0  0  0  0  0  0  0  0  0
  145.0440  159.9500  133.6170 C   0  0  0  0  0  0  0  0  0  0  0  0
  146.3730  160.1840  133.3480 C   0  0  0  0  0  0  0  0  0  0  0  0
  146.9560  158.9240  133.2470 C   0  0  0  0  0  0  0  0  0  0  0  0
  148.4020  158.7120  133.0220 C   0  0  0  0  0  0  0  0  0  0  0  0
  148.8830  158.1700  131.7950 N   0  0  0  0  0  0  0  0  0  0  0  0
  149.2220  158.9780  133.9410 O   0  0  0  0  0  0  0  0  0  0  0  0
  146.0260  157.9480  133.4540 N   0  0  0  0  0  0  0  0  0  0  0  0
  146.2130  156.5250  133.3400 C   0  0  0  0  0  0  0  0  0  0  0  0
  147.1600  156.0830  132.6390 O   0  0  0  0  0  0  0  0  0  0  0  0
  145.2650  155.5540  133.9300 C   0  0  0  0  0  0  0  0  0  0  0  0
  145.4840  154.7940  135.0130 C   0  0  0  0  0  0  0  0  0  0  0  0
  146.7760  154.6200  135.6990 C   0  0  0  0  0  0  0  0  0  0  0  0
  147.6880  155.4820  135.6050 O   0  0  0  0  0  0  0  0  0  0  0  0
  147.0250  153.4400  136.3880 O   0  0  0  0  0  0  0  0  0  0  0  0
  144.8570  158.5950  133.6680 C   0  0  0  0  0  0  0  0  0  0  0  0
  143.5850  158.0490  133.8680 C   0  0  0  0  0  0  0  0  0  0  0  0
  139.4082  157.4776  133.5609 H   0  0  0  0  0  0  0  0  0  0  0  0
  140.0450  158.8271  132.5608 H   0  0  0  0  0  0  0  0  0  0  0  0
  140.8809  157.2372  132.5608 H   0  0  0  0  0  0  0  0  0  0  0  0
  141.4344  158.4527  136.3872 H   0  0  0  0  0  0  0  0  0  0  0  0
  139.8393  159.0454  135.8119 H   0  0  0  0  0  0  0  0  0  0  0  0
  140.1967  157.2850  135.8119 H   0  0  0  0  0  0  0  0  0  0  0  0
  141.8725  161.0177  134.1855 H   0  0  0  0  0  0  0  0  0  0  0  0
  144.1719  161.9336  133.7565 H   0  0  0  0  0  0  0  0  0  0  0  0
  146.8692  161.1594  133.2365 H   0  0  0  0  0  0  0  0  0  0  0  0
  148.5840  157.2240  131.4720 H   0  0  0  0  0  0  0  0  0  0  0  0
  144.2893  155.4454  133.4338 H   0  0  0  0  0  0  0  0  0  0  0  0
  144.6209  154.2516  135.4264 H   0  0  0  0  0  0  0  0  0  0  0  0
  143.4391  156.9587  133.8717 H   0  0  0  0  0  0  0  0  0  0  0  0
  1  2  1  0
  2  3  1  0
  2  4  1  0
  4  5  2  0
  5  6  1  0
  6  7  2  0
  7  8  1  0
  8  9  2  0
  9 10  1  0
 10 11  1  0
 10 12  2  0
  9 13  1  0
 13 14  1  0
 14 15  2  0
 14 16  1  0
 16 17  2  3
 17 18  1  0
 18 19  2  0
 18 20  1  0
 13 21  1  0
 21 22  2  0
 22  4  1  0
 21  7  1  0
  1 23  1  0
  1 24  1  0
  1 25  1  0
  3 26  1  0
  3 27  1  0
  3 28  1  0
  5 29  1  0
  6 30  1  0
  8 31  1  0
 11 32  1  0
 16 33  1  0
 17 34  1  0
 22 35  1  0
M  CHG  2  11  -1  20  -1
M  END
>  <UniqueID>  (82) 
82

>  <SMILES>  (82) 
CN(C)c1ccc2cc(C([NH-])=O)n(C(=O)C=CC(=O)[O-])c2c1

>  <Energy>  (82) 
81.276152950408

>  <Genealogy>  (82) 
CN(C)c1ccc2cc(C([NH-])=O)n(C(=O)C=CC(=O)[O-])c2c1 (protonated)
CN(C)c1ccc2cc(C([NH-])=O)n(C(=O)C=CC(=O)[O-])c2c1 (3D coordinates assigned)
CN(C)c1ccc2cc(C([NH-])=O)n(C(=O)C=CC(=O)[O-])c2c1 (optimized conformer: 81.276152950408 kcal/mol)

>  <smiles>  (82) 
CN(C)c1ccc2cc(C(N)=O)n(C(=O)C=CC(=O)O)c2c1

>  <score_type>  (82) 
oracle

>  <origin>  (82) 
adg

>  <m_score__min__energy>  (82) 
-6.6100000000000003

>  <m_primary>  (82) 
energy

$$$$
83:0
     RDKit          3D

 34 35  0  0  0  0  0  0  0  0999 V2000
  146.1440  152.4160  133.9230 H   0  0  0  0  0  0  0  0  0  0  0  0
  145.8350  153.3330  134.3170 N   0  0  0  0  0  0  0  0  0  0  0  0
  146.7690  154.2240  134.9240 C   0  0  0  0  0  0  0  0  0  0  0  0
  147.3360  153.8860  135.9960 O   0  0  0  0  0  0  0  0  0  0  0  0
  147.0750  155.5190  134.2790 C   0  0  0  0  0  0  0  0  0  0  0  0
  146.4150  156.7090  134.5810 C   0  0  0  0  0  0  0  0  0  0  0  0
  145.6296  156.8630  135.3356 H   0  0  0  0  0  0  0  0  0  0  0  0
  146.9550  157.6510  133.7340 C   0  0  0  0  0  0  0  0  0  0  0  0
  146.6890  159.0120  133.6230 C   0  0  0  0  0  0  0  0  0  0  0  0
  145.9241  159.4928  134.2505 H   0  0  0  0  0  0  0  0  0  0  0  0
  147.4270  159.7540  132.6850 C   0  0  0  0  0  0  0  0  0  0  0  0
  147.2437  160.8335  132.5794 H   0  0  0  0  0  0  0  0  0  0  0  0
  148.4070  159.1250  131.8720 C   0  0  0  0  0  0  0  0  0  0  0  0
  149.2370  159.9230  130.9000 C   0  0  0  0  0  0  0  0  0  0  0  0
  148.8690  159.5940  129.6090 F   0  0  0  0  0  0  0  0  0  0  0  0
  149.0270  161.2770  131.0990 F   0  0  0  0  0  0  0  0  0  0  0  0
  150.5880  159.6650  131.0610 F   0  0  0  0  0  0  0  0  0  0  0  0
  148.6620  157.7430  132.0330 C   0  0  0  0  0  0  0  0  0  0  0  0
  149.4404  157.2414  131.4393 H   0  0  0  0  0  0  0  0  0  0  0  0
  147.9010  157.0290  132.9650 C   0  0  0  0  0  0  0  0  0  0  0  0
  147.9860  155.7190  133.2860 N   0  0  0  0  0  0  0  0  0  0  0  0
  148.9010  154.7620  132.7280 C   0  0  0  0  0  0  0  0  0  0  0  0
  149.9900  155.1590  132.2320 O   0  0  0  0  0  0  0  0  0  0  0  0
  148.5600  153.3250  132.7330 C   0  0  0  0  0  0  0  0  0  0  0  0
  147.5156  153.0279  132.9090 H   0  0  0  0  0  0  0  0  0  0  0  0
  149.4770  152.3720  132.5310 C   0  0  0  0  0  0  0  0  0  0  0  0
  150.5233  152.6653  132.3600 H   0  0  0  0  0  0  0  0  0  0  0  0
  149.1270  150.9450  132.5310 C   0  0  0  0  0  0  0  0  0  0  0  0
  148.7260  150.4100  131.4610 O   0  0  0  0  0  0  0  0  0  0  0  0
  149.2390  150.1860  133.7030 O   0  0  0  0  0  0  0  0  0  0  0  0
  149.6460  150.7480  134.9440 C   0  0  0  0  0  0  0  0  0  0  0  0
  149.2200  150.1598  135.7702 H   0  0  0  0  0  0  0  0  0  0  0  0
  150.7438  150.7327  135.0110 H   0  0  0  0  0  0  0  0  0  0  0  0
  149.2890  151.7863  135.0110 H   0  0  0  0  0  0  0  0  0  0  0  0
  1  2  1  0
  2  3  1  0
  3  4  2  0
  3  5  1  0
  5  6  2  0
  6  7  1  0
  6  8  1  0
  8  9  2  0
  9 10  1  0
  9 11  1  0
 11 12  1  0
 11 13  2  0
 13 14  1  0
 14 15  1  0
 14 16  1  0
 14 17  1  0
 13 18  1  0
 18 19  1  0
 18 20  2  0
 20 21  1  0
 21 22  1  0
 22 23  2  0
 22 24  1  0
 24 25  1  0
 24 26  2  0
 26 27  1  0
 26 28  1  0
 28 29  2  0
 28 30  1  0
 30 31  1  0
 31 32  1  0
 31 33  1  0
 31 34  1  0
 21  5  1  0
 20  8  1  0
M  CHG  1   2  -1
M  END
>  <UniqueID>  (83) 
83

>  <SMILES>  (83) 
COC(=O)/C=C/C(=O)n1c(C([NH-])=O)cc2ccc(C(F)(F)F)cc21

>  <Energy>  (83) 
69.94059935968545

>  <Genealogy>  (83) 
COC(=O)C=CC(=O)n1c(C([NH-])=O)cc2ccc(C(F)(F)F)cc21 (protonated)
COC(=O)/C=C/C(=O)n1c(C([NH-])=O)cc2ccc(C(F)(F)F)cc21 (cis-trans isomerization)
COC(=O)/C=C/C(=O)n1c(C([NH-])=O)cc2ccc(C(F)(F)F)cc21 (3D coordinates assigned)
COC(=O)/C=C/C(=O)n1c(C([NH-])=O)cc2ccc(C(F)(F)F)cc21 (optimized conformer: 69.94059935968545 kcal/mol)

>  <smiles>  (83) 
COC(=O)C=CC(=O)n1c(C(N)=O)cc2ccc(C(F)(F)F)cc21

>  <score_type>  (83) 
oracle

>  <origin>  (83) 
adg

>  <m_score__min__energy>  (83) 
-6.5

>  <m_primary>  (83) 
energy

$$$$
84:0
     RDKit          3D

 39 40  0  0  0  0  0  0  0  0999 V2000
  140.1190  155.9890  133.5580 C   0  0  0  0  0  0  0  0  0  0  0  0
  141.3920  155.1270  133.4750 C   0  0  0  0  0  0  0  0  0  0  0  0
  141.0180  153.6410  133.3710 C   0  0  0  0  0  0  0  0  0  0  0  0
  142.3850  155.3830  134.6450 C   0  0  1  0  0  0  0  0  0  0  0  0
  142.9830  156.7210  134.5460 N   0  0  0  0  0  0  0  0  0  0  0  0
  143.9290  157.0650  133.5230 C   0  0  0  0  0  0  0  0  0  0  0  0
  144.2200  156.2330  132.6230 O   0  0  0  0  0  0  0  0  0  0  0  0
  144.5580  158.3560  133.5300 N   0  0  0  0  0  0  0  0  0  0  0  0
  143.9690  159.5710  133.7230 C   0  0  0  0  0  0  0  0  0  0  0  0
  142.5550  159.8000  134.0840 C   0  0  0  0  0  0  0  0  0  0  0  0
  141.6430  160.2930  133.1050 N   0  0  0  0  0  0  0  0  0  0  0  0
  142.1470  159.5930  135.2570 O   0  0  0  0  0  0  0  0  0  0  0  0
  144.9090  160.5920  133.5990 C   0  0  0  0  0  0  0  0  0  0  0  0
  146.1010  159.9610  133.3240 C   0  0  0  0  0  0  0  0  0  0  0  0
  147.3670  160.4950  133.0920 C   0  0  0  0  0  0  0  0  0  0  0  0
  148.4130  159.6040  132.8020 C   0  0  0  0  0  0  0  0  0  0  0  0
  148.1770  158.2090  132.7420 C   0  0  0  0  0  0  0  0  0  0  0  0
  149.2480  157.3140  132.4340 N   0  0  0  0  0  0  0  0  0  0  0  0
  146.8820  157.7030  132.9810 C   0  0  0  0  0  0  0  0  0  0  0  0
  145.8610  158.6120  133.2880 C   0  0  0  0  0  0  0  0  0  0  0  0
  141.7340  155.2020  135.9940 C   0  0  0  0  0  0  0  0  0  0  0  0
  141.3850  156.2090  136.6660 O   0  0  0  0  0  0  0  0  0  0  0  0
  141.5390  153.9290  136.5170 O   0  0  0  0  0  0  0  0  0  0  0  0
  139.8621  156.1629  134.6133 H   0  0  0  0  0  0  0  0  0  0  0  0
  140.2963  156.9536  133.0600 H   0  0  0  0  0  0  0  0  0  0  0  0
  139.2891  155.4663  133.0600 H   0  0  0  0  0  0  0  0  0  0  0  0
  141.9265  155.4277  132.5618 H   0  0  0  0  0  0  0  0  0  0  0  0
  140.9116  153.2181  134.3809 H   0  0  0  0  0  0  0  0  0  0  0  0
  140.0663  153.5395  132.8288 H   0  0  0  0  0  0  0  0  0  0  0  0
  141.8083  153.1011  132.8288 H   0  0  0  0  0  0  0  0  0  0  0  0
  143.1817  154.6299  134.5552 H   0  0  0  0  0  0  0  0  0  0  0  0
  142.6580  157.4860  135.1790 H   0  0  0  0  0  0  0  0  0  0  0  0
  141.7870  160.0990  132.0890 H   0  0  0  0  0  0  0  0  0  0  0  0
  144.7353  161.6735  133.6996 H   0  0  0  0  0  0  0  0  0  0  0  0
  147.5415  161.5802  133.1347 H   0  0  0  0  0  0  0  0  0  0  0  0
  149.4255  159.9935  132.6197 H   0  0  0  0  0  0  0  0  0  0  0  0
  149.9780  157.0880  133.1470 H   0  0  0  0  0  0  0  0  0  0  0  0
  149.3190  156.8700  131.4920 H   0  0  0  0  0  0  0  0  0  0  0  0
  146.6792  156.6232  132.9277 H   0  0  0  0  0  0  0  0  0  0  0  0
  1  2  1  0
  2  3  1  0
  2  4  1  0
  4  5  1  0
  5  6  1  0
  6  7  2  0
  6  8  1  0
  8  9  1  0
  9 10  1  0
 10 11  1  0
 10 12  2  0
  9 13  2  0
 13 14  1  0
 14 15  2  0
 15 16  1  0
 16 17  2  0
 17 18  1  0
 17 19  1  0
 19 20  2  0
  4 21  1  0
 21 22  2  0
 21 23  1  0
 20  8  1  0
 20 14  1  0
  1 24  1  0
  1 25  1  0
  1 26  1  0
  2 27  1  0
  3 28  1  0
  3 29  1  0
  3 30  1  0
  4 31  1  6
  5 32  1  0
 11 33  1  0
 13 34  1  0
 15 35  1  0
 16 36  1  0
 18 37  1  0
 18 38  1  0
 19 39  1  0
M  CHG  2  11  -1  23  -1
M  END
>  <UniqueID>  (84) 
84

>  <SMILES>  (84) 
CC(C)[C@@H](NC(=O)n1c(C([NH-])=O)cc2ccc(N)cc21)C(=O)[O-]

>  <Energy>  (84) 
71.9444190462494

>  <Genealogy>  (84) 
CC(C)C(NC(=O)n1c(C([NH-])=O)cc2ccc(N)cc21)C(=O)[O-] (protonated)
CC(C)[C@@H](NC(=O)n1c(C([NH-])=O)cc2ccc(N)cc21)C(=O)[O-] (chirality)
CC(C)[C@@H](NC(=O)n1c(C([NH-])=O)cc2ccc(N)cc21)C(=O)[O-] (3D coordinates assigned)
CC(C)[C@@H](NC(=O)n1c(C([NH-])=O)cc2ccc(N)cc21)C(=O)[O-] (optimized conformer: 71.9444190462494 kcal/mol)

>  <smiles>  (84) 
CC(C)C(NC(=O)n1c(C(N)=O)cc2ccc(N)cc21)C(=O)O

>  <score_type>  (84) 
oracle

>  <origin>  (84) 
adg

>  <m_score__min__energy>  (84) 
-7.1500000000000004

>  <m_primary>  (84) 
energy

$$$$
85:0
     RDKit          3D

 39 40  0  0  0  0  0  0  0  0999 V2000
  146.5120  153.8870  132.9970 C   0  0  0  0  0  0  0  0  0  0  0  0
  147.3670  155.0770  132.9010 N   0  0  0  0  0  0  0  0  0  0  0  0
  148.7960  154.9030  132.6130 C   0  0  0  0  0  0  0  0  0  0  0  0
  146.8070  156.4030  133.0890 C   0  0  0  0  0  0  0  0  0  0  0  0
  147.6500  157.5520  133.1110 C   0  0  0  0  0  0  0  0  0  0  0  0
  147.1180  158.8380  133.3030 C   0  0  0  0  0  0  0  0  0  0  0  0
  145.7440  158.9600  133.4620 C   0  0  0  0  0  0  0  0  0  0  0  0
  144.9730  160.0780  133.6920 C   0  0  0  0  0  0  0  0  0  0  0  0
  143.6640  159.6110  133.7860 C   0  0  0  0  0  0  0  0  0  0  0  0
  142.4930  160.4940  133.9670 C   0  0  0  0  0  0  0  0  0  0  0  0
  141.3950  160.1010  134.7870 N   0  0  0  0  0  0  0  0  0  0  0  0
  142.4440  161.5980  133.3620 O   0  0  0  0  0  0  0  0  0  0  0  0
  143.6280  158.2580  133.6230 N   0  0  0  0  0  0  0  0  0  0  0  0
  142.4900  157.3880  133.7170 C   0  0  0  0  0  0  0  0  0  0  0  0
  142.6400  156.2140  134.1520 O   0  0  0  0  0  0  0  0  0  0  0  0
  141.1940  157.8580  133.3130 N   0  0  0  0  0  0  0  0  0  0  0  0
  140.0230  157.0350  133.2440 C   0  0  0  0  0  0  0  0  0  0  0  0
  140.0870  155.8020  133.5030 O   0  0  0  0  0  0  0  0  0  0  0  0
  138.8050  157.6180  132.8750 O   0  0  0  0  0  0  0  0  0  0  0  0
  138.5840  158.2360  131.6100 C   0  0  0  0  0  0  0  0  0  0  0  0
  139.5490  159.3600  131.4030 C   0  0  0  0  0  0  0  0  0  0  0  0
  140.2290  159.4280  130.3450 O   0  0  0  0  0  0  0  0  0  0  0  0
  139.6900  160.3410  132.3760 O   0  0  0  0  0  0  0  0  0  0  0  0
  144.9100  157.8760  133.4270 C   0  0  0  0  0  0  0  0  0  0  0  0
  145.4100  156.5810  133.2600 C   0  0  0  0  0  0  0  0  0  0  0  0
  146.3381  153.6449  134.0558 H   0  0  0  0  0  0  0  0  0  0  0  0
  145.5493  154.0864  132.5035 H   0  0  0  0  0  0  0  0  0  0  0  0
  147.0081  153.0383  132.5035 H   0  0  0  0  0  0  0  0  0  0  0  0
  149.3549  154.8350  133.5580 H   0  0  0  0  0  0  0  0  0  0  0  0
  148.9434  153.9803  132.0326 H   0  0  0  0  0  0  0  0  0  0  0  0
  149.1605  155.7634  132.0326 H   0  0  0  0  0  0  0  0  0  0  0  0
  148.7348  157.4299  132.9754 H   0  0  0  0  0  0  0  0  0  0  0  0
  147.7711  159.7228  133.3267 H   0  0  0  0  0  0  0  0  0  0  0  0
  145.3178  161.1187  133.7823 H   0  0  0  0  0  0  0  0  0  0  0  0
  140.4610  159.8900  134.3690 H   0  0  0  0  0  0  0  0  0  0  0  0
  141.0930  158.8670  133.0610 H   0  0  0  0  0  0  0  0  0  0  0  0
  138.7204  157.4898  130.8133 H   0  0  0  0  0  0  0  0  0  0  0  0
  137.5595  158.6356  131.5823 H   0  0  0  0  0  0  0  0  0  0  0  0
  144.7317  155.7150  133.2612 H   0  0  0  0  0  0  0  0  0  0  0  0
  1  2  1  0
  2  3  1  0
  2  4  1  0
  4  5  2  0
  5  6  1  0
  6  7  2  0
  7  8  1  0
  8  9  2  0
  9 10  1  0
 10 11  1  0
 10 12  2  0
  9 13  1  0
 13 14  1  0
 14 15  2  0
 14 16  1  0
 16 17  1  0
 17 18  2  0
 17 19  1  0
 19 20  1  0
 20 21  1  0
 21 22  2  0
 21 23  1  0
 13 24  1  0
 24 25  2  0
 25  4  1  0
 24  7  1  0
  1 26  1  0
  1 27  1  0
  1 28  1  0
  3 29  1  0
  3 30  1  0
  3 31  1  0
  5 32  1  0
  6 33  1  0
  8 34  1  0
 11 35  1  0
 16 36  1  0
 20 37  1  0
 20 38  1  0
 25 39  1  0
M  CHG  2  11  -1  23  -1
M  END
>  <UniqueID>  (85) 
85

>  <SMILES>  (85) 
CN(C)c1ccc2cc(C([NH-])=O)n(C(=O)NC(=O)OCC(=O)[O-])c2c1

>  <Energy>  (85) 
77.3790512642544

>  <Genealogy>  (85) 
CN(C)c1ccc2cc(C([NH-])=O)n(C(=O)NC(=O)OCC(=O)[O-])c2c1 (protonated)
CN(C)c1ccc2cc(C([NH-])=O)n(C(=O)NC(=O)OCC(=O)[O-])c2c1 (3D coordinates assigned)
CN(C)c1ccc2cc(C([NH-])=O)n(C(=O)NC(=O)OCC(=O)[O-])c2c1 (optimized conformer: 77.3790512642544 kcal/mol)

>  <smiles>  (85) 
CN(C)c1ccc2cc(C(N)=O)n(C(=O)NC(=O)OCC(=O)O)c2c1

>  <score_type>  (85) 
oracle

>  <origin>  (85) 
adg

>  <m_score__min__energy>  (85) 
-6.54

>  <m_primary>  (85) 
energy

$$$$
86:0
     RDKit          3D

 32 34  0  0  0  0  0  0  0  0999 V2000
  147.3900  160.8610  132.6120 N   0  0  0  0  0  0  0  0  0  0  0  0
  148.0950  159.6210  132.5490 C   0  0  0  0  0  0  0  0  0  0  0  0
  149.1600  159.5490  131.8800 O   0  0  0  0  0  0  0  0  0  0  0  0
  147.5630  158.4060  133.1980 C   0  0  0  0  0  0  0  0  0  0  0  0
  148.3580  157.3240  133.5650 C   0  0  0  0  0  0  0  0  0  0  0  0
  147.4860  156.3890  134.0720 C   0  0  0  0  0  0  0  0  0  0  0  0
  147.7400  155.1310  134.6060 C   0  0  0  0  0  0  0  0  0  0  0  0
  146.6530  154.3920  135.0990 C   0  0  0  0  0  0  0  0  0  0  0  0
  145.3350  154.9180  135.0580 C   0  0  0  0  0  0  0  0  0  0  0  0
  144.2100  154.1200  135.6080 C   0  0  0  0  0  0  0  0  0  0  0  0
  143.3610  153.3590  134.7850 C   0  0  0  0  0  0  0  0  0  0  0  0
  142.3500  152.6440  135.3420 N   0  0  0  0  0  0  0  0  0  0  0  0
  142.1330  152.6390  136.6840 C   0  0  0  0  0  0  0  0  0  0  0  0
  141.0210  151.8460  137.2350 C   0  0  0  0  0  0  0  0  0  0  0  0
  140.4340  152.2060  138.2910 O   0  0  0  0  0  0  0  0  0  0  0  0
  140.6070  150.6890  136.5870 O   0  0  0  0  0  0  0  0  0  0  0  0
  142.9830  153.3870  137.5090 C   0  0  0  0  0  0  0  0  0  0  0  0
  143.9950  154.1020  136.9530 N   0  0  0  0  0  0  0  0  0  0  0  0
  145.1230  156.2100  134.5170 C   0  0  0  0  0  0  0  0  0  0  0  0
  146.2220  156.9150  134.0100 C   0  0  0  0  0  0  0  0  0  0  0  0
  146.2510  158.1580  133.4780 N   0  0  0  0  0  0  0  0  0  0  0  0
  145.1440  159.0650  133.3500 C   0  0  0  0  0  0  0  0  0  0  0  0
  144.1430  158.7510  132.6530 O   0  0  0  0  0  0  0  0  0  0  0  0
  145.1630  160.2960  133.9920 O   0  0  0  0  0  0  0  0  0  0  0  0
  147.8010  161.7190  132.1800 H   0  0  0  0  0  0  0  0  0  0  0  0
  146.4260  160.9140  133.0090 H   0  0  0  0  0  0  0  0  0  0  0  0
  149.4503  157.2356  133.4699 H   0  0  0  0  0  0  0  0  0  0  0  0
  148.7624  154.7266  134.6412 H   0  0  0  0  0  0  0  0  0  0  0  0
  146.8248  153.3916  135.5229 H   0  0  0  0  0  0  0  0  0  0  0  0
  143.5150  153.3430  133.6960 H   0  0  0  0  0  0  0  0  0  0  0  0
  142.8320  153.3951  138.5986 H   0  0  0  0  0  0  0  0  0  0  0  0
  144.1154  156.6508  134.4955 H   0  0  0  0  0  0  0  0  0  0  0  0
  1  2  1  0
  2  3  2  0
  2  4  1  0
  4  5  2  0
  5  6  1  0
  6  7  2  0
  7  8  1  0
  8  9  2  0
  9 10  1  0
 10 11  2  0
 11 12  1  0
 12 13  2  0
 13 14  1  0
 14 15  2  0
 14 16  1  0
 13 17  1  0
 17 18  2  0
  9 19  1  0
 19 20  2  0
 20 21  1  0
 21 22  1  0
 22 23  2  0
 22 24  1  0
 21  4  1  0
 20  6  1  0
 18 10  1  0
  1 25  1  0
  1 26  1  0
  5 27  1  0
  7 28  1  0
  8 29  1  0
 11 30  1  0
 17 31  1  0
 19 32  1  0
M  CHG  2  16  -1  24  -1
M  END
>  <UniqueID>  (86) 
86

>  <SMILES>  (86) 
NC(=O)c1cc2ccc(-c3cnc(C(=O)[O-])cn3)cc2n1C(=O)[O-]

>  <Energy>  (86) 
80.660934616047

>  <Genealogy>  (86) 
NC(=O)c1cc2ccc(-c3cnc(C(=O)[O-])cn3)cc2n1C(=O)[O-] (protonated)
NC(=O)c1cc2ccc(-c3cnc(C(=O)[O-])cn3)cc2n1C(=O)[O-] (3D coordinates assigned)
NC(=O)c1cc2ccc(-c3cnc(C(=O)[O-])cn3)cc2n1C(=O)[O-] (optimized conformer: 80.660934616047 kcal/mol)

>  <smiles>  (86) 
NC(=O)c1cc2ccc(-c3cnc(C(=O)O)cn3)cc2n1C(=O)O

>  <score_type>  (86) 
oracle

>  <origin>  (86) 
adg

>  <m_score__min__energy>  (86) 
-7.0499999999999998

>  <m_primary>  (86) 
energy

$$$$
87:0
     RDKit          3D

 35 36  0  0  0  0  0  0  0  0999 V2000
  149.6030  162.2520  130.2020 C   0  0  0  0  0  0  0  0  0  0  0  0
  149.3010  160.9500  130.8810 C   0  0  0  0  0  0  0  0  0  0  0  0
  150.2320  159.8840  130.8160 C   0  0  0  0  0  0  0  0  0  0  0  0
  149.9840  158.6750  131.4880 C   0  0  0  0  0  0  0  0  0  0  0  0
  148.8050  158.5660  132.2200 C   0  0  0  0  0  0  0  0  0  0  0  0
  148.3340  157.5260  132.9870 C   0  0  0  0  0  0  0  0  0  0  0  0
  147.1170  157.9690  133.5040 C   0  0  0  0  0  0  0  0  0  0  0  0
  146.2260  157.1220  134.3220 C   0  0  0  0  0  0  0  0  0  0  0  0
  144.8330  157.0290  134.0340 N   0  0  0  0  0  0  0  0  0  0  0  0
  146.7090  156.4310  135.2590 O   0  0  0  0  0  0  0  0  0  0  0  0
  146.8520  159.2380  133.0790 N   0  0  0  0  0  0  0  0  0  0  0  0
  145.7490  160.0800  133.4490 C   0  0  0  0  0  0  0  0  0  0  0  0
  145.9620  161.1430  134.0930 O   0  0  0  0  0  0  0  0  0  0  0  0
  144.4500  159.7200  133.0660 O   0  0  0  0  0  0  0  0  0  0  0  0
  143.2840  160.0410  133.7730 C   0  0  0  0  0  0  0  0  0  0  0  0
  142.7130  161.1550  133.6140 O   0  0  0  0  0  0  0  0  0  0  0  0
  142.7560  159.0950  134.6570 O   0  0  0  0  0  0  0  0  0  0  0  0
  141.6460  158.2520  134.3460 C   0  0  0  0  0  0  0  0  0  0  0  0
  141.6030  157.9380  132.8490 C   0  0  0  0  0  0  0  0  0  0  0  0
  142.8630  157.5440  132.3810 O   0  0  0  0  0  0  0  0  0  0  0  0
  147.8930  159.5870  132.2910 C   0  0  0  0  0  0  0  0  0  0  0  0
  148.1240  160.8090  131.6460 C   0  0  0  0  0  0  0  0  0  0  0  0
  149.7830  163.0280  130.9605 H   0  0  0  0  0  0  0  0  0  0  0  0
  150.4987  162.1387  129.5736 H   0  0  0  0  0  0  0  0  0  0  0  0
  148.7489  162.5446  129.5736 H   0  0  0  0  0  0  0  0  0  0  0  0
  151.1577  160.0039  130.2340 H   0  0  0  0  0  0  0  0  0  0  0  0
  150.6992  157.8408  131.4372 H   0  0  0  0  0  0  0  0  0  0  0  0
  148.8152  156.5515  133.1566 H   0  0  0  0  0  0  0  0  0  0  0  0
  144.2140  157.8680  134.1020 H   0  0  0  0  0  0  0  0  0  0  0  0
  141.7389  157.3115  134.9089 H   0  0  0  0  0  0  0  0  0  0  0  0
  140.7186  158.7748  134.6228 H   0  0  0  0  0  0  0  0  0  0  0  0
  140.8837  157.1247  132.6728 H   0  0  0  0  0  0  0  0  0  0  0  0
  141.2979  158.8468  132.3096 H   0  0  0  0  0  0  0  0  0  0  0  0
  143.5160  157.7770  133.0910 H   0  0  0  0  0  0  0  0  0  0  0  0
  147.4058  161.6376  131.7338 H   0  0  0  0  0  0  0  0  0  0  0  0
  1  2  1  0
  2  3  2  0
  3  4  1  0
  4  5  2  0
  5  6  1  0
  6  7  2  0
  7  8  1  0
  8  9  1  0
  8 10  2  0
  7 11  1  0
 11 12  1  0
 12 13  2  0
 12 14  1  0
 14 15  1  0
 15 16  2  0
 15 17  1  0
 17 18  1  0
 18 19  1  0
 19 20  1  0
 11 21  1  0
 21 22  2  0
 22  2  1  0
 21  5  1  0
  1 23  1  0
  1 24  1  0
  1 25  1  0
  3 26  1  0
  4 27  1  0
  6 28  1  0
  9 29  1  0
 18 30  1  0
 18 31  1  0
 19 32  1  0
 19 33  1  0
 20 34  1  0
 22 35  1  0
M  CHG  1   9  -1
M  END
>  <UniqueID>  (87) 
87

>  <SMILES>  (87) 
Cc1ccc2cc(C([NH-])=O)n(C(=O)OC(=O)OCCO)c2c1

>  <Energy>  (87) 
72.00772498696516

>  <Genealogy>  (87) 
Cc1ccc2cc(C([NH-])=O)n(C(=O)OC(=O)OCCO)c2c1 (protonated)
Cc1ccc2cc(C([NH-])=O)n(C(=O)OC(=O)OCCO)c2c1 (3D coordinates assigned)
Cc1ccc2cc(C([NH-])=O)n(C(=O)OC(=O)OCCO)c2c1 (optimized conformer: 72.00772498696516 kcal/mol)

>  <smiles>  (87) 
Cc1ccc2cc(C(N)=O)n(C(=O)OC(=O)OCCO)c2c1

>  <score_type>  (87) 
oracle

>  <origin>  (87) 
adg

>  <m_score__min__energy>  (87) 
-5.29

>  <m_primary>  (87) 
energy

$$$$
88:0
     RDKit          3D

 38 39  0  0  0  0  0  0  0  0999 V2000
  147.7830  153.0070  133.8660 N   0  0  0  0  0  0  0  0  0  0  0  0
  148.3520  153.9640  132.9720 C   0  0  0  0  0  0  0  0  0  0  0  0
  149.2600  153.6020  132.1760 O   0  0  0  0  0  0  0  0  0  0  0  0
  147.9420  155.3810  133.0060 C   0  0  0  0  0  0  0  0  0  0  0  0
  148.8360  156.4400  132.8780 C   0  0  0  0  0  0  0  0  0  0  0  0
  148.0770  157.5780  133.0320 C   0  0  0  0  0  0  0  0  0  0  0  0
  148.4540  158.9170  132.9860 C   0  0  0  0  0  0  0  0  0  0  0  0
  147.4530  159.8890  133.1390 C   0  0  0  0  0  0  0  0  0  0  0  0
  146.1000  159.5100  133.3280 C   0  0  0  0  0  0  0  0  0  0  0  0
  145.0280  160.5540  133.4550 C   0  0  0  0  0  0  0  0  0  0  0  0
  145.4750  161.5940  134.2480 F   0  0  0  0  0  0  0  0  0  0  0  0
  143.9010  159.9930  134.0280 F   0  0  0  0  0  0  0  0  0  0  0  0
  145.7540  158.1400  133.3570 C   0  0  0  0  0  0  0  0  0  0  0  0
  146.7760  157.1910  133.2280 C   0  0  0  0  0  0  0  0  0  0  0  0
  146.6750  155.8420  133.2120 N   0  0  0  0  0  0  0  0  0  0  0  0
  145.4650  155.0710  133.2940 C   0  0  0  0  0  0  0  0  0  0  0  0
  144.5940  155.1670  132.3860 O   0  0  0  0  0  0  0  0  0  0  0  0
  145.2540  154.2220  134.3840 O   0  0  0  0  0  0  0  0  0  0  0  0
  145.3870  154.6520  135.7340 C   0  0  0  0  0  0  0  0  0  0  0  0
  146.7400  155.0200  135.9880 O   0  0  0  0  0  0  0  0  0  0  0  0
  147.6150  154.2220  136.7290 C   0  0  0  0  0  0  0  0  0  0  0  0
  147.4600  152.9700  136.7750 O   0  0  0  0  0  0  0  0  0  0  0  0
  148.6670  154.8300  137.4190 O   0  0  0  0  0  0  0  0  0  0  0  0
  149.4680  154.1320  138.3660 C   0  0  0  0  0  0  0  0  0  0  0  0
  148.7230  154.0140  139.6520 C   0  0  0  0  0  0  0  0  0  0  0  0
  149.2780  153.5140  140.6660 O   0  0  0  0  0  0  0  0  0  0  0  0
  147.4020  154.4370  139.7300 O   0  0  0  0  0  0  0  0  0  0  0  0
  147.1600  153.3040  134.6500 H   0  0  0  0  0  0  0  0  0  0  0  0
  148.0570  152.0010  133.8000 H   0  0  0  0  0  0  0  0  0  0  0  0
  149.9187  156.3803  132.6931 H   0  0  0  0  0  0  0  0  0  0  0  0
  149.5048  159.2049  132.8343 H   0  0  0  0  0  0  0  0  0  0  0  0
  147.7210  160.9555  133.1120 H   0  0  0  0  0  0  0  0  0  0  0  0
  144.7817  160.9397  132.4547 H   0  0  0  0  0  0  0  0  0  0  0  0
  144.7066  157.8264  133.4780 H   0  0  0  0  0  0  0  0  0  0  0  0
  144.7330  155.5192  135.9080 H   0  0  0  0  0  0  0  0  0  0  0  0
  145.0990  153.8320  136.4083 H   0  0  0  0  0  0  0  0  0  0  0  0
  149.6990  153.1274  137.9820 H   0  0  0  0  0  0  0  0  0  0  0  0
  150.4049  154.6837  138.5329 H   0  0  0  0  0  0  0  0  0  0  0  0
  1  2  1  0
  2  3  2  0
  2  4  1  0
  4  5  2  0
  5  6  1  0
  6  7  2  0
  7  8  1  0
  8  9  2  0
  9 10  1  0
 10 11  1  0
 10 12  1  0
  9 13  1  0
 13 14  2  0
 14 15  1  0
 15 16  1  0
 16 17  2  0
 16 18  1  0
 18 19  1  0
 19 20  1  0
 20 21  1  0
 21 22  2  0
 21 23  1  0
 23 24  1  0
 24 25  1  0
 25 26  2  0
 25 27  1  0
 15  4  1  0
 14  6  1  0
  1 28  1  0
  1 29  1  0
  5 30  1  0
  7 31  1  0
  8 32  1  0
 10 33  1  0
 13 34  1  0
 19 35  1  0
 19 36  1  0
 24 37  1  0
 24 38  1  0
M  CHG  1  27  -1
M  END
>  <UniqueID>  (88) 
88

>  <SMILES>  (88) 
NC(=O)c1cc2ccc(C(F)F)cc2n1C(=O)OCOC(=O)OCC(=O)[O-]

>  <Energy>  (88) 
70.6778194626879

>  <Genealogy>  (88) 
NC(=O)c1cc2ccc(C(F)F)cc2n1C(=O)OCOC(=O)OCC(=O)[O-] (protonated)
NC(=O)c1cc2ccc(C(F)F)cc2n1C(=O)OCOC(=O)OCC(=O)[O-] (3D coordinates assigned)
NC(=O)c1cc2ccc(C(F)F)cc2n1C(=O)OCOC(=O)OCC(=O)[O-] (optimized conformer: 70.6778194626879 kcal/mol)

>  <smiles>  (88) 
NC(=O)c1cc2ccc(C(F)F)cc2n1C(=O)OCOC(=O)OCC(=O)O

>  <score_type>  (88) 
oracle

>  <origin>  (88) 
adg

>  <m_score__min__energy>  (88) 
-6.0300000000000002

>  <m_primary>  (88) 
energy

$$$$
89:0
     RDKit          3D

 32 33  0  0  0  0  0  0  0  0999 V2000
  144.6430  154.8500  135.1840 C   0  0  0  0  0  0  0  0  0  0  0  0
  145.7900  155.2300  134.6170 C   0  0  0  0  0  0  0  0  0  0  0  0
  145.7890  156.1560  133.4590 C   0  0  0  0  0  0  0  0  0  0  0  0
  145.9500  155.7030  132.2920 O   0  0  0  0  0  0  0  0  0  0  0  0
  145.6270  157.5700  133.6420 N   0  0  0  0  0  0  0  0  0  0  0  0
  146.5950  158.5260  133.5980 C   0  0  0  0  0  0  0  0  0  0  0  0
  148.0490  158.2790  133.4970 C   0  0  0  0  0  0  0  0  0  0  0  0
  148.5850  156.9550  133.5330 N   0  0  0  0  0  0  0  0  0  0  0  0
  148.8370  159.2590  133.4170 O   0  0  0  0  0  0  0  0  0  0  0  0
  146.0300  159.7980  133.6590 C   0  0  0  0  0  0  0  0  0  0  0  0
  144.6720  159.5880  133.7400 C   0  0  0  0  0  0  0  0  0  0  0  0
  143.6240  160.5030  133.7820 C   0  0  0  0  0  0  0  0  0  0  0  0
  142.3110  160.0020  133.8000 C   0  0  0  0  0  0  0  0  0  0  0  0
  142.0680  158.6020  133.7790 C   0  0  0  0  0  0  0  0  0  0  0  0
  140.6550  158.0780  133.7360 C   0  0  0  0  0  0  0  0  0  0  0  0
  139.9490  158.5860  134.8100 F   0  0  0  0  0  0  0  0  0  0  0  0
  140.6450  156.6960  133.8000 F   0  0  0  0  0  0  0  0  0  0  0  0
  140.0290  158.4610  132.5630 F   0  0  0  0  0  0  0  0  0  0  0  0
  143.1600  157.7080  133.7040 C   0  0  0  0  0  0  0  0  0  0  0  0
  144.4540  158.2350  133.7170 C   0  0  0  0  0  0  0  0  0  0  0  0
  147.3390  154.6100  135.2970 P   0  0  0  0  0  0  0  0  0  0  0  0
  148.1040  155.7260  135.9720 O   0  0  0  0  0  0  0  0  0  0  0  0
  148.2870  153.9750  134.0470 O   0  0  0  0  0  0  0  0  0  0  0  0
  147.0180  153.3890  136.4210 O   0  0  0  0  0  0  0  0  0  0  0  0
  144.6552  154.1626  136.0427 H   0  0  0  0  0  0  0  0  0  0  0  0
  143.6855  155.2242  134.7926 H   0  0  0  0  0  0  0  0  0  0  0  0
  147.9940  156.1360  133.7960 H   0  0  0  0  0  0  0  0  0  0  0  0
  149.6090  156.8030  133.3970 H   0  0  0  0  0  0  0  0  0  0  0  0
  146.5565  160.7637  133.6453 H   0  0  0  0  0  0  0  0  0  0  0  0
  143.8176  161.5857  133.8005 H   0  0  0  0  0  0  0  0  0  0  0  0
  141.4623  160.7011  133.8307 H   0  0  0  0  0  0  0  0  0  0  0  0
  142.9951  156.6225  133.6369 H   0  0  0  0  0  0  0  0  0  0  0  0
  1  2  2  0
  2  3  1  0
  3  4  2  0
  3  5  1  0
  5  6  1  0
  6  7  1  0
  7  8  1  0
  7  9  2  0
  6 10  2  0
 10 11  1  0
 11 12  2  0
 12 13  1  0
 13 14  2  0
 14 15  1  0
 15 16  1  0
 15 17  1  0
 15 18  1  0
 14 19  1  0
 19 20  2  0
  2 21  1  0
 21 22  2  0
 21 23  1  0
 21 24  1  0
 20  5  1  0
 20 11  1  0
  1 25  1  0
  1 26  1  0
  8 27  1  0
  8 28  1  0
 10 29  1  0
 12 30  1  0
 13 31  1  0
 19 32  1  0
M  CHG  2  23  -1  24  -1
M  END
>  <UniqueID>  (89) 
89

>  <SMILES>  (89) 
C=C(C(=O)n1c(C(N)=O)cc2ccc(C(F)(F)F)cc21)P(=O)([O-])[O-]

>  <Energy>  (89) 
70.55614619066678

>  <Genealogy>  (89) 
C=C(C(=O)n1c(C(N)=O)cc2ccc(C(F)(F)F)cc21)P(=O)([O-])[O-] (protonated)
C=C(C(=O)n1c(C(N)=O)cc2ccc(C(F)(F)F)cc21)P(=O)([O-])[O-] (3D coordinates assigned)
C=C(C(=O)n1c(C(N)=O)cc2ccc(C(F)(F)F)cc21)P(=O)([O-])[O-] (optimized conformer: 70.55614619066678 kcal/mol)

>  <smiles>  (89) 
C=C(C(=O)n1c(C(N)=O)cc2ccc(C(F)(F)F)cc21)P(=O)(O)O

>  <score_type>  (89) 
oracle

>  <origin>  (89) 
adg

>  <m_score__min__energy>  (89) 
-6.0499999999999998

>  <m_primary>  (89) 
energy

$$$$
90:0
     RDKit          3D

 33 34  0  0  0  0  0  0  0  0999 V2000
  141.7750  160.1160  134.1790 C   0  0  0  0  0  0  0  0  0  0  0  0
  143.2470  160.0430  133.9030 C   0  0  0  0  0  0  0  0  0  0  0  0
  144.0360  161.2180  133.9530 C   0  0  0  0  0  0  0  0  0  0  0  0
  145.4250  161.1570  133.7440 C   0  0  0  0  0  0  0  0  0  0  0  0
  145.9920  159.9100  133.4950 C   0  0  0  0  0  0  0  0  0  0  0  0
  147.3070  159.5620  133.2900 C   0  0  0  0  0  0  0  0  0  0  0  0
  147.3000  158.1800  133.1120 C   0  0  0  0  0  0  0  0  0  0  0  0
  148.5080  157.3960  132.7770 C   0  0  0  0  0  0  0  0  0  0  0  0
  148.5860  156.0220  133.1450 N   0  0  0  0  0  0  0  0  0  0  0  0
  149.4890  157.9390  132.2030 O   0  0  0  0  0  0  0  0  0  0  0  0
  146.0310  157.6910  133.2110 N   0  0  0  0  0  0  0  0  0  0  0  0
  145.6140  156.3170  133.1630 C   0  0  0  0  0  0  0  0  0  0  0  0
  146.0780  155.5490  132.2780 O   0  0  0  0  0  0  0  0  0  0  0  0
  144.6750  155.8440  134.0860 O   0  0  0  0  0  0  0  0  0  0  0  0
  144.5730  154.4710  134.4450 C   0  0  0  0  0  0  0  0  0  0  0  0
  145.1270  154.3010  135.7270 O   0  0  0  0  0  0  0  0  0  0  0  0
  146.8140  154.1120  135.5640 P   0  0  1  0  0  0  0  0  0  0  0  0
  147.5060  155.4410  135.7740 O   0  0  0  0  0  0  0  0  0  0  0  0
  147.3570  153.0170  136.7320 O   0  0  0  0  0  0  0  0  0  0  0  0
  147.1930  153.5120  134.0260 O   0  0  0  0  0  0  0  0  0  0  0  0
  145.2410  158.7630  133.4420 C   0  0  0  0  0  0  0  0  0  0  0  0
  143.8590  158.7940  133.6630 C   0  0  0  0  0  0  0  0  0  0  0  0
  141.6057  160.1244  135.2659 H   0  0  0  0  0  0  0  0  0  0  0  0
  141.3642  161.0356  133.7368 H   0  0  0  0  0  0  0  0  0  0  0  0
  141.2752  159.2415  133.7368 H   0  0  0  0  0  0  0  0  0  0  0  0
  143.5577  162.1873  134.1572 H   0  0  0  0  0  0  0  0  0  0  0  0
  146.0441  162.0656  133.7762 H   0  0  0  0  0  0  0  0  0  0  0  0
  148.1789  160.2324  133.2707 H   0  0  0  0  0  0  0  0  0  0  0  0
  147.7910  155.5500  133.6300 H   0  0  0  0  0  0  0  0  0  0  0  0
  143.5156  154.1679  134.4548 H   0  0  0  0  0  0  0  0  0  0  0  0
  145.1143  153.8502  133.7159 H   0  0  0  0  0  0  0  0  0  0  0  0
  147.3580  154.3170  133.4740 H   0  0  0  0  0  0  0  0  0  0  0  0
  143.2650  157.8683  133.6499 H   0  0  0  0  0  0  0  0  0  0  0  0
  1  2  1  0
  2  3  2  0
  3  4  1  0
  4  5  2  0
  5  6  1  0
  6  7  2  0
  7  8  1  0
  8  9  1  0
  8 10  2  0
  7 11  1  0
 11 12  1  0
 12 13  2  0
 12 14  1  0
 14 15  1  0
 15 16  1  0
 16 17  1  0
 17 18  2  0
 17 19  1  1
 17 20  1  0
 11 21  1  0
 21 22  2  0
 22  2  1  0
 21  5  1  0
  1 23  1  0
  1 24  1  0
  1 25  1  0
  3 26  1  0
  4 27  1  0
  6 28  1  0
  9 29  1  0
 15 30  1  0
 15 31  1  0
 20 32  1  0
 22 33  1  0
M  CHG  2   9  -1  19  -1
M  END
>  <UniqueID>  (90) 
90

>  <SMILES>  (90) 
Cc1ccc2cc(C([NH-])=O)n(C(=O)OCO[P@@](=O)([O-])O)c2c1

>  <Energy>  (90) 
67.42544718847834

>  <Genealogy>  (90) 
Cc1ccc2cc(C([NH-])=O)n(C(=O)OCOP(=O)([O-])O)c2c1 (protonated)
Cc1ccc2cc(C([NH-])=O)n(C(=O)OCO[P@@](=O)([O-])O)c2c1 (chirality)
Cc1ccc2cc(C([NH-])=O)n(C(=O)OCO[P@@](=O)([O-])O)c2c1 (3D coordinates assigned)
Cc1ccc2cc(C([NH-])=O)n(C(=O)OCO[P@@](=O)([O-])O)c2c1 (optimized conformer: 67.42544718847834 kcal/mol)

>  <smiles>  (90) 
Cc1ccc2cc(C(N)=O)n(C(=O)OCOP(=O)(O)O)c2c1

>  <score_type>  (90) 
oracle

>  <origin>  (90) 
adg

>  <m_score__min__energy>  (90) 
-5.2999999999999998

>  <m_primary>  (90) 
energy

$$$$
91:0
     RDKit          3D

 28 29  0  0  0  0  0  0  0  0999 V2000
  149.3810  158.9770  133.3090 N   0  0  0  0  0  0  0  0  0  0  0  0
  148.2900  159.6990  132.7350 C   0  0  0  0  0  0  0  0  0  0  0  0
  148.5140  160.5150  131.8030 O   0  0  0  0  0  0  0  0  0  0  0  0
  146.9000  159.4570  133.1710 C   0  0  0  0  0  0  0  0  0  0  0  0
  145.9610  160.4730  133.3270 C   0  0  0  0  0  0  0  0  0  0  0  0
  144.7940  159.8360  133.6780 C   0  0  0  0  0  0  0  0  0  0  0  0
  143.5430  160.3670  133.9770 C   0  0  0  0  0  0  0  0  0  0  0  0
  142.5230  159.4780  134.3540 C   0  0  0  0  0  0  0  0  0  0  0  0
  142.7710  158.0850  134.4280 C   0  0  0  0  0  0  0  0  0  0  0  0
  141.6850  157.1500  134.8820 C   0  0  0  0  0  0  0  0  0  0  0  0
  140.7540  157.8870  136.2590 P   0  0  0  0  0  0  0  0  0  0  0  0
  139.5420  158.6130  135.7260 O   0  0  0  0  0  0  0  0  0  0  0  0
  140.2590  156.6730  137.3280 O   0  0  0  0  0  0  0  0  0  0  0  0
  141.7470  158.9830  137.0790 O   0  0  0  0  0  0  0  0  0  0  0  0
  144.0560  157.5830  134.1280 C   0  0  0  0  0  0  0  0  0  0  0  0
  145.0500  158.4890  133.7340 C   0  0  0  0  0  0  0  0  0  0  0  0
  146.3430  158.2390  133.4270 N   0  0  0  0  0  0  0  0  0  0  0  0
  147.0100  156.9680  133.4860 C   0  0  0  0  0  0  0  0  0  0  0  0
  146.7810  156.0880  132.6140 O   0  0  0  0  0  0  0  0  0  0  0  0
  147.9180  156.6950  134.5020 O   0  0  0  0  0  0  0  0  0  0  0  0
  150.3610  159.1880  133.0150 H   0  0  0  0  0  0  0  0  0  0  0  0
  149.2160  158.1770  133.9580 H   0  0  0  0  0  0  0  0  0  0  0  0
  146.1188  161.5539  133.1972 H   0  0  0  0  0  0  0  0  0  0  0  0
  143.3585  161.4499  133.9199 H   0  0  0  0  0  0  0  0  0  0  0  0
  141.5224  159.8669  134.5940 H   0  0  0  0  0  0  0  0  0  0  0  0
  140.9999  156.9551  134.0438 H   0  0  0  0  0  0  0  0  0  0  0  0
  142.1417  156.2087  135.2216 H   0  0  0  0  0  0  0  0  0  0  0  0
  144.2718  156.5069  134.2017 H   0  0  0  0  0  0  0  0  0  0  0  0
  1  2  1  0
  2  3  2  0
  2  4  1  0
  4  5  2  0
  5  6  1  0
  6  7  2  0
  7  8  1  0
  8  9  2  0
  9 10  1  0
 10 11  1  0
 11 12  2  0
 11 13  1  0
 11 14  1  0
  9 15  1  0
 15 16  2  0
 16 17  1  0
 17 18  1  0
 18 19  2  0
 18 20  1  0
 17  4  1  0
 16  6  1  0
  1 21  1  0
  1 22  1  0
  5 23  1  0
  7 24  1  0
  8 25  1  0
 10 26  1  0
 10 27  1  0
 15 28  1  0
M  CHG  3  13  -1  14  -1  20  -1
M  END
>  <UniqueID>  (91) 
91

>  <SMILES>  (91) 
NC(=O)c1cc2ccc(CP(=O)([O-])[O-])cc2n1C(=O)[O-]

>  <Energy>  (91) 
63.75136281639692

>  <Genealogy>  (91) 
NC(=O)c1cc2ccc(CP(=O)([O-])[O-])cc2n1C(=O)[O-] (protonated)
NC(=O)c1cc2ccc(CP(=O)([O-])[O-])cc2n1C(=O)[O-] (3D coordinates assigned)
NC(=O)c1cc2ccc(CP(=O)([O-])[O-])cc2n1C(=O)[O-] (optimized conformer: 63.75136281639692 kcal/mol)

>  <smiles>  (91) 
NC(=O)c1cc2ccc(CP(=O)(O)O)cc2n1C(=O)O

>  <score_type>  (91) 
oracle

>  <origin>  (91) 
adg

>  <m_score__min__energy>  (91) 
-6.2699999999999996

>  <m_primary>  (91) 
energy

$$$$
92:0
     RDKit          3D

 45 47  0  0  0  0  0  0  0  0999 V2000
  142.6350  160.4870  134.4740 N   0  0  0  0  0  0  0  0  0  0  0  0
  143.9590  160.7060  133.9920 C   0  0  0  0  0  0  0  0  0  0  0  0
  144.3650  161.8840  133.8170 O   0  0  0  0  0  0  0  0  0  0  0  0
  144.8470  159.5540  133.7320 C   0  0  0  0  0  0  0  0  0  0  0  0
  146.2270  159.6600  133.5700 C   0  0  0  0  0  0  0  0  0  0  0  0
  146.6640  158.3820  133.3020 C   0  0  0  0  0  0  0  0  0  0  0  0
  147.9520  157.8980  133.1010 C   0  0  0  0  0  0  0  0  0  0  0  0
  148.1140  156.5140  132.9120 C   0  0  0  0  0  0  0  0  0  0  0  0
  146.9940  155.6410  132.9320 C   0  0  0  0  0  0  0  0  0  0  0  0
  147.1770  154.1760  132.7770 C   0  0  0  0  0  0  0  0  0  0  0  0
  146.0640  153.3300  132.6160 C   0  0  0  0  0  0  0  0  0  0  0  0
  146.2400  151.9530  132.4520 C   0  0  0  0  0  0  0  0  0  0  0  0
  147.5240  151.4040  132.4460 C   0  0  0  0  0  0  0  0  0  0  0  0
  147.6820  150.0660  132.2850 F   0  0  0  0  0  0  0  0  0  0  0  0
  148.6400  152.2340  132.6040 C   0  0  0  0  0  0  0  0  0  0  0  0
  150.2590  151.5550  132.6000 Cl  0  0  0  0  0  0  0  0  0  0  0  0
  148.4670  153.6130  132.7700 C   0  0  0  0  0  0  0  0  0  0  0  0
  145.7000  156.1780  133.1270 C   0  0  0  0  0  0  0  0  0  0  0  0
  145.5700  157.5590  133.3030 C   0  0  0  0  0  0  0  0  0  0  0  0
  144.4470  158.2620  133.5650 N   0  0  0  0  0  0  0  0  0  0  0  0
  143.1340  157.7170  133.7460 C   0  0  0  0  0  0  0  0  0  0  0  0
  142.7490  157.3810  134.8990 O   0  0  0  0  0  0  0  0  0  0  0  0
  142.2700  157.6110  132.6500 O   0  0  0  0  0  0  0  0  0  0  0  0
  141.1710  158.4940  132.4340 C   0  0  0  0  0  0  0  0  0  0  0  0
  140.1360  158.3300  133.5050 C   0  0  0  0  0  0  0  0  0  0  0  0
  139.0160  157.8280  133.2150 O   0  0  0  0  0  0  0  0  0  0  0  0
  140.4040  158.7690  134.8060 O   0  0  0  0  0  0  0  0  0  0  0  0
  139.8020  158.1790  135.9550 C   0  0  0  0  0  0  0  0  0  0  0  0
  140.6680  158.4330  137.1820 C   0  0  0  0  0  0  0  0  0  0  0  0
  141.8460  159.0890  136.8030 O   0  0  0  0  0  0  0  0  0  0  0  0
  142.3030  159.5250  134.7110 H   0  0  0  0  0  0  0  0  0  0  0  0
  146.8381  160.5719  133.6412 H   0  0  0  0  0  0  0  0  0  0  0  0
  148.8175  158.5768  133.0902 H   0  0  0  0  0  0  0  0  0  0  0  0
  149.1206  156.1025  132.7466 H   0  0  0  0  0  0  0  0  0  0  0  0
  145.0494  153.7549  132.6192 H   0  0  0  0  0  0  0  0  0  0  0  0
  145.3640  151.2995  132.3272 H   0  0  0  0  0  0  0  0  0  0  0  0
  149.3462  154.2619  132.8960 H   0  0  0  0  0  0  0  0  0  0  0  0
  144.8158  155.5238  133.1399 H   0  0  0  0  0  0  0  0  0  0  0  0
  141.5358  159.5317  132.4413 H   0  0  0  0  0  0  0  0  0  0  0  0
  140.7132  158.2550  131.4628 H   0  0  0  0  0  0  0  0  0  0  0  0
  138.8071  158.6208  136.1130 H   0  0  0  0  0  0  0  0  0  0  0  0
  139.7065  157.0946  135.7973 H   0  0  0  0  0  0  0  0  0  0  0  0
  140.1144  159.0600  137.8964 H   0  0  0  0  0  0  0  0  0  0  0  0
  140.9225  157.4718  137.6526 H   0  0  0  0  0  0  0  0  0  0  0  0
  141.8530  159.0930  135.8100 H   0  0  0  0  0  0  0  0  0  0  0  0
  1  2  1  0
  2  3  2  0
  2  4  1  0
  4  5  2  0
  5  6  1  0
  6  7  2  0
  7  8  1  0
  8  9  2  0
  9 10  1  0
 10 11  2  0
 11 12  1  0
 12 13  2  0
 13 14  1  0
 13 15  1  0
 15 16  1  0
 15 17  2  0
  9 18  1  0
 18 19  2  0
 19 20  1  0
 20 21  1  0
 21 22  2  0
 21 23  1  0
 23 24  1  0
 24 25  1  0
 25 26  2  0
 25 27  1  0
 27 28  1  0
 28 29  1  0
 29 30  1  0
 20  4  1  0
 19  6  1  0
 17 10  1  0
  1 31  1  0
  5 32  1  0
  7 33  1  0
  8 34  1  0
 11 35  1  0
 12 36  1  0
 17 37  1  0
 18 38  1  0
 24 39  1  0
 24 40  1  0
 28 41  1  0
 28 42  1  0
 29 43  1  0
 29 44  1  0
 30 45  1  0
M  CHG  1   1  -1
M  END
>  <UniqueID>  (92) 
92

>  <SMILES>  (92) 
[NH-]C(=O)c1cc2ccc(-c3ccc(F)c(Cl)c3)cc2n1C(=O)OCC(=O)OCCO

>  <Energy>  (92) 
82.38067950015939

>  <Genealogy>  (92) 
[NH-]C(=O)c1cc2ccc(-c3ccc(F)c(Cl)c3)cc2n1C(=O)OCC(=O)OCCO (protonated)
[NH-]C(=O)c1cc2ccc(-c3ccc(F)c(Cl)c3)cc2n1C(=O)OCC(=O)OCCO (3D coordinates assigned)
[NH-]C(=O)c1cc2ccc(-c3ccc(F)c(Cl)c3)cc2n1C(=O)OCC(=O)OCCO (optimized conformer: 82.38067950015939 kcal/mol)

>  <smiles>  (92) 
NC(=O)c1cc2ccc(-c3ccc(F)c(Cl)c3)cc2n1C(=O)OCC(=O)OCCO

>  <score_type>  (92) 
oracle

>  <origin>  (92) 
adg

>  <m_score__min__energy>  (92) 
-7.3399999999999999

>  <m_primary>  (92) 
energy

$$$$
93:0
     RDKit          3D

 42 43  0  0  0  0  0  0  0  0999 V2000
  141.0870  159.6260  135.6620 C   0  0  0  0  0  0  0  0  0  0  0  0
  140.3370  158.4430  135.0130 C   0  0  0  0  0  0  0  0  0  0  0  0
  139.1080  158.1040  135.8800 C   0  0  0  0  0  0  0  0  0  0  0  0
  139.8560  158.8260  133.6210 C   0  0  0  0  0  0  0  0  0  0  0  0
  140.6340  159.3780  132.7960 O   0  0  0  0  0  0  0  0  0  0  0  0
  138.5640  158.5080  133.2170 O   0  0  0  0  0  0  0  0  0  0  0  0
  141.2720  157.2340  134.9700 C   0  0  0  0  0  0  0  0  0  0  0  0
  141.7580  156.8230  136.0150 O   0  0  0  0  0  0  0  0  0  0  0  0
  141.6570  156.5390  133.6850 C   0  0  0  0  0  0  0  0  0  0  0  0
  142.9120  157.0180  133.2120 O   0  0  0  0  0  0  0  0  0  0  0  0
  144.0860  156.9780  133.9720 C   0  0  0  0  0  0  0  0  0  0  0  0
  144.1150  156.3530  135.0670 O   0  0  0  0  0  0  0  0  0  0  0  0
  145.2530  157.6770  133.5110 N   0  0  0  0  0  0  0  0  0  0  0  0
  145.4340  159.0250  133.4480 C   0  0  0  0  0  0  0  0  0  0  0  0
  144.3920  160.0490  133.6690 C   0  0  0  0  0  0  0  0  0  0  0  0
  143.0500  159.8500  133.2210 N   0  0  0  0  0  0  0  0  0  0  0  0
  144.7040  161.1400  134.2170 O   0  0  0  0  0  0  0  0  0  0  0  0
  146.7490  159.3290  133.1100 C   0  0  0  0  0  0  0  0  0  0  0  0
  147.3760  158.1120  132.9620 C   0  0  0  0  0  0  0  0  0  0  0  0
  148.7000  157.8220  132.6490 C   0  0  0  0  0  0  0  0  0  0  0  0
  149.0880  156.4720  132.6130 C   0  0  0  0  0  0  0  0  0  0  0  0
  148.1600  155.4430  132.9170 C   0  0  0  0  0  0  0  0  0  0  0  0
  148.5780  153.9960  132.8470 C   0  0  0  0  0  0  0  0  0  0  0  0
  147.6000  153.2330  132.2320 F   0  0  0  0  0  0  0  0  0  0  0  0
  148.7830  153.5190  134.1270 F   0  0  0  0  0  0  0  0  0  0  0  0
  149.7500  153.8620  132.1220 F   0  0  0  0  0  0  0  0  0  0  0  0
  146.8160  155.7780  133.2080 C   0  0  0  0  0  0  0  0  0  0  0  0
  146.4530  157.1320  133.2150 C   0  0  0  0  0  0  0  0  0  0  0  0
  141.0317  159.5388  136.7571 H   0  0  0  0  0  0  0  0  0  0  0  0
  142.1404  159.6102  135.3457 H   0  0  0  0  0  0  0  0  0  0  0  0
  140.6233  160.5720  135.3457 H   0  0  0  0  0  0  0  0  0  0  0  0
  139.3779  158.1785  136.9438 H   0  0  0  0  0  0  0  0  0  0  0  0
  138.2958  158.8117  135.6574 H   0  0  0  0  0  0  0  0  0  0  0  0
  138.7734  157.0800  135.6574 H   0  0  0  0  0  0  0  0  0  0  0  0
  141.7286  155.4565  133.8670 H   0  0  0  0  0  0  0  0  0  0  0  0
  140.8890  156.7474  132.9255 H   0  0  0  0  0  0  0  0  0  0  0  0
  142.7970  159.0380  132.6160 H   0  0  0  0  0  0  0  0  0  0  0  0
  142.3180  160.5640  133.4280 H   0  0  0  0  0  0  0  0  0  0  0  0
  147.1928  160.3280  132.9872 H   0  0  0  0  0  0  0  0  0  0  0  0
  149.4211  158.6249  132.4362 H   0  0  0  0  0  0  0  0  0  0  0  0
  150.1225  156.2102  132.3462 H   0  0  0  0  0  0  0  0  0  0  0  0
  146.0742  154.9948  133.4234 H   0  0  0  0  0  0  0  0  0  0  0  0
  1  2  1  0
  2  3  1  0
  2  4  1  0
  4  5  2  0
  4  6  1  0
  2  7  1  0
  7  8  2  0
  7  9  1  0
  9 10  1  0
 10 11  1  0
 11 12  2  0
 11 13  1  0
 13 14  1  0
 14 15  1  0
 15 16  1  0
 15 17  2  0
 14 18  2  0
 18 19  1  0
 19 20  2  0
 20 21  1  0
 21 22  2  0
 22 23  1  0
 23 24  1  0
 23 25  1  0
 23 26  1  0
 22 27  1  0
 27 28  2  0
 28 13  1  0
 28 19  1  0
  1 29  1  0
  1 30  1  0
  1 31  1  0
  3 32  1  0
  3 33  1  0
  3 34  1  0
  9 35  1  0
  9 36  1  0
 16 37  1  0
 16 38  1  0
 18 39  1  0
 20 40  1  0
 21 41  1  0
 27 42  1  0
M  CHG  1   6  -1
M  END
>  <UniqueID>  (93) 
93

>  <SMILES>  (93) 
CC(C)(C(=O)[O-])C(=O)COC(=O)n1c(C(N)=O)cc2ccc(C(F)(F)F)cc21

>  <Energy>  (93) 
78.2192130447162

>  <Genealogy>  (93) 
CC(C)(C(=O)[O-])C(=O)COC(=O)n1c(C(N)=O)cc2ccc(C(F)(F)F)cc21 (protonated)
CC(C)(C(=O)[O-])C(=O)COC(=O)n1c(C(N)=O)cc2ccc(C(F)(F)F)cc21 (3D coordinates assigned)
CC(C)(C(=O)[O-])C(=O)COC(=O)n1c(C(N)=O)cc2ccc(C(F)(F)F)cc21 (optimized conformer: 78.2192130447162 kcal/mol)

>  <smiles>  (93) 
CC(C)(C(=O)O)C(=O)COC(=O)n1c(C(N)=O)cc2ccc(C(F)(F)F)cc21

>  <score_type>  (93) 
oracle

>  <origin>  (93) 
adg

>  <m_score__min__energy>  (93) 
-6.6399999999999997

>  <m_primary>  (93) 
energy

$$$$
94:0
     RDKit          3D

 44 46  0  0  0  0  0  0  0  0999 V2000
  144.3210  155.5840  135.4440 C   0  0  0  0  0  0  0  0  0  0  0  0
  144.3820  155.2790  134.0120 N   0  0  0  0  0  0  0  0  0  0  0  0
  144.9920  154.0270  133.5480 C   0  0  0  0  0  0  0  0  0  0  0  0
  146.4260  154.2740  133.1660 C   0  0  0  0  0  0  0  0  0  0  0  0
  147.4120  153.3180  133.4340 C   0  0  0  0  0  0  0  0  0  0  0  0
  148.7500  153.5960  133.1480 C   0  0  0  0  0  0  0  0  0  0  0  0
  149.0890  154.8360  132.6030 C   0  0  0  0  0  0  0  0  0  0  0  0
  148.1240  155.7610  132.3550 N   0  0  0  0  0  0  0  0  0  0  0  0
  146.8130  155.5110  132.6270 C   0  0  0  0  0  0  0  0  0  0  0  0
  143.8010  156.1970  133.0640 C   0  0  0  0  0  0  0  0  0  0  0  0
  143.6050  155.8380  131.8730 O   0  0  0  0  0  0  0  0  0  0  0  0
  143.4170  157.5180  133.4700 N   0  0  0  0  0  0  0  0  0  0  0  0
  142.2160  157.9300  133.9610 C   0  0  0  0  0  0  0  0  0  0  0  0
  140.9980  157.0980  134.0740 C   0  0  0  0  0  0  0  0  0  0  0  0
  140.8220  155.9390  133.2630 N   0  0  0  0  0  0  0  0  0  0  0  0
  140.0910  157.4270  134.8840 O   0  0  0  0  0  0  0  0  0  0  0  0
  142.2720  159.2790  134.3120 C   0  0  0  0  0  0  0  0  0  0  0  0
  143.5590  159.6780  134.0230 C   0  0  0  0  0  0  0  0  0  0  0  0
  144.1740  160.9170  134.1810 C   0  0  0  0  0  0  0  0  0  0  0  0
  145.5270  161.0320  133.8120 C   0  0  0  0  0  0  0  0  0  0  0  0
  146.2370  159.9110  133.3110 C   0  0  0  0  0  0  0  0  0  0  0  0
  147.6720  160.0490  132.8880 C   0  0  0  0  0  0  0  0  0  0  0  0
  148.2870  158.6970  132.7180 C   0  0  0  0  0  0  0  0  0  0  0  0
  148.4600  157.9480  133.7150 O   0  0  0  0  0  0  0  0  0  0  0  0
  148.6230  158.2420  131.4490 O   0  0  0  0  0  0  0  0  0  0  0  0
  145.5750  158.6740  133.1600 C   0  0  0  0  0  0  0  0  0  0  0  0
  144.2280  158.5940  133.5200 C   0  0  0  0  0  0  0  0  0  0  0  0
  144.5045  154.6665  136.0224 H   0  0  0  0  0  0  0  0  0  0  0  0
  145.0870  156.3334  135.6923 H   0  0  0  0  0  0  0  0  0  0  0  0
  143.3256  155.9810  135.6923 H   0  0  0  0  0  0  0  0  0  0  0  0
  144.9517  153.2796  134.3541 H   0  0  0  0  0  0  0  0  0  0  0  0
  144.4401  153.6550  132.6722 H   0  0  0  0  0  0  0  0  0  0  0  0
  147.1330  152.3474  133.8700 H   0  0  0  0  0  0  0  0  0  0  0  0
  149.5289  152.8460  133.3499 H   0  0  0  0  0  0  0  0  0  0  0  0
  150.1401  155.0652  132.3736 H   0  0  0  0  0  0  0  0  0  0  0  0
  148.3940  156.6870  131.9530 H   0  0  0  0  0  0  0  0  0  0  0  0
  146.0546  156.2814  132.4235 H   0  0  0  0  0  0  0  0  0  0  0  0
  141.5530  155.6470  132.5780 H   0  0  0  0  0  0  0  0  0  0  0  0
  141.4613  159.8935  134.7304 H   0  0  0  0  0  0  0  0  0  0  0  0
  143.6198  161.7787  134.5816 H   0  0  0  0  0  0  0  0  0  0  0  0
  146.0389  162.0004  133.9130 H   0  0  0  0  0  0  0  0  0  0  0  0
  147.7197  160.5936  131.9334 H   0  0  0  0  0  0  0  0  0  0  0  0
  148.2248  160.6026  133.6612 H   0  0  0  0  0  0  0  0  0  0  0  0
  146.1068  157.7944  132.7684 H   0  0  0  0  0  0  0  0  0  0  0  0
  1  2  1  0
  2  3  1  0
  3  4  1  0
  4  5  2  0
  5  6  1  0
  6  7  2  0
  7  8  1  0
  8  9  2  0
  2 10  1  0
 10 11  2  0
 10 12  1  0
 12 13  1  0
 13 14  1  0
 14 15  1  0
 14 16  2  0
 13 17  2  0
 17 18  1  0
 18 19  2  0
 19 20  1  0
 20 21  2  0
 21 22  1  0
 22 23  1  0
 23 24  2  0
 23 25  1  0
 21 26  1  0
 26 27  2  0
  9  4  1  0
 27 12  1  0
 27 18  1  0
  1 28  1  0
  1 29  1  0
  1 30  1  0
  3 31  1  0
  3 32  1  0
  5 33  1  0
  6 34  1  0
  7 35  1  0
  8 36  1  0
  9 37  1  0
 15 38  1  0
 17 39  1  0
 19 40  1  0
 20 41  1  0
 22 42  1  0
 22 43  1  0
 26 44  1  0
M  CHG  3   8   1  15  -1  25  -1
M  END
>  <UniqueID>  (94) 
94

>  <SMILES>  (94) 
CN(Cc1ccc[nH+]c1)C(=O)n1c(C([NH-])=O)cc2ccc(CC(=O)[O-])cc21

>  <Energy>  (94) 
79.06214830224076

>  <Genealogy>  (94) 
CN(Cc1ccc[nH+]c1)C(=O)n1c(C([NH-])=O)cc2ccc(CC(=O)[O-])cc21 (protonated)
CN(Cc1ccc[nH+]c1)C(=O)n1c(C([NH-])=O)cc2ccc(CC(=O)[O-])cc21 (3D coordinates assigned)
CN(Cc1ccc[nH+]c1)C(=O)n1c(C([NH-])=O)cc2ccc(CC(=O)[O-])cc21 (optimized conformer: 79.06214830224076 kcal/mol)

>  <smiles>  (94) 
CN(Cc1cccnc1)C(=O)n1c(C(N)=O)cc2ccc(CC(=O)O)cc21

>  <score_type>  (94) 
oracle

>  <origin>  (94) 
adg

>  <m_score__min__energy>  (94) 
-7.1399999999999997

>  <m_primary>  (94) 
energy

$$$$
95:0
     RDKit          3D

 30 31  0  0  0  0  0  0  0  0999 V2000
  147.5120  153.3680  135.7860 N   0  0  0  0  0  0  0  0  0  0  0  0
  146.5400  154.2500  135.2290 C   0  0  0  0  0  0  0  0  0  0  0  0
  145.3170  153.9760  135.3540 O   0  0  0  0  0  0  0  0  0  0  0  0
  146.9740  155.4910  134.5530 C   0  0  0  0  0  0  0  0  0  0  0  0
  146.4280  156.7430  134.8240 C   0  0  0  0  0  0  0  0  0  0  0  0
  147.0280  157.6030  133.9330 C   0  0  0  0  0  0  0  0  0  0  0  0
  146.8540  158.9730  133.7570 C   0  0  0  0  0  0  0  0  0  0  0  0
  147.6210  159.6110  132.7670 C   0  0  0  0  0  0  0  0  0  0  0  0
  148.5610  158.8820  131.9930 C   0  0  0  0  0  0  0  0  0  0  0  0
  149.3490  159.5720  130.9090 C   0  0  0  0  0  0  0  0  0  0  0  0
  149.0810  160.9280  130.9440 F   0  0  0  0  0  0  0  0  0  0  0  0
  149.0040  159.0760  129.6630 F   0  0  0  0  0  0  0  0  0  0  0  0
  150.7070  159.3760  131.0910 F   0  0  0  0  0  0  0  0  0  0  0  0
  148.6890  157.4870  132.1880 C   0  0  0  0  0  0  0  0  0  0  0  0
  147.9000  156.8740  133.1670 C   0  0  0  0  0  0  0  0  0  0  0  0
  147.8810  155.5740  133.5370 N   0  0  0  0  0  0  0  0  0  0  0  0
  148.6980  154.5250  132.9960 C   0  0  0  0  0  0  0  0  0  0  0  0
  149.8000  154.8040  132.4500 O   0  0  0  0  0  0  0  0  0  0  0  0
  148.2540  153.1990  133.0540 O   0  0  0  0  0  0  0  0  0  0  0  0
  148.8550  152.1380  132.3150 C   0  0  0  0  0  0  0  0  0  0  0  0
  149.8250  151.3900  133.1710 C   0  0  0  0  0  0  0  0  0  0  0  0
  150.7570  150.7320  132.6410 O   0  0  0  0  0  0  0  0  0  0  0  0
  149.6840  151.3950  134.5530 O   0  0  0  0  0  0  0  0  0  0  0  0
  148.0820  152.7420  135.1750 H   0  0  0  0  0  0  0  0  0  0  0  0
  145.6767  156.9917  135.5880 H   0  0  0  0  0  0  0  0  0  0  0  0
  146.1391  159.5381  134.3731 H   0  0  0  0  0  0  0  0  0  0  0  0
  147.4911  160.6888  132.5899 H   0  0  0  0  0  0  0  0  0  0  0  0
  149.3934  156.8971  131.5832 H   0  0  0  0  0  0  0  0  0  0  0  0
  148.0711  151.4485  131.9684 H   0  0  0  0  0  0  0  0  0  0  0  0
  149.3928  152.5629  131.4546 H   0  0  0  0  0  0  0  0  0  0  0  0
  1  2  1  0
  2  3  2  0
  2  4  1  0
  4  5  2  0
  5  6  1  0
  6  7  2  0
  7  8  1  0
  8  9  2  0
  9 10  1  0
 10 11  1  0
 10 12  1  0
 10 13  1  0
  9 14  1  0
 14 15  2  0
 15 16  1  0
 16 17  1  0
 17 18  2  0
 17 19  1  0
 19 20  1  0
 20 21  1  0
 21 22  2  0
 21 23  1  0
 16  4  1  0
 15  6  1  0
  1 24  1  0
  5 25  1  0
  7 26  1  0
  8 27  1  0
 14 28  1  0
 20 29  1  0
 20 30  1  0
M  CHG  2   1  -1  23  -1
M  END
>  <UniqueID>  (95) 
95

>  <SMILES>  (95) 
[NH-]C(=O)c1cc2ccc(C(F)(F)F)cc2n1C(=O)OCC(=O)[O-]

>  <Energy>  (95) 
67.63191239903297

>  <Genealogy>  (95) 
[NH-]C(=O)c1cc2ccc(C(F)(F)F)cc2n1C(=O)OCC(=O)[O-] (protonated)
[NH-]C(=O)c1cc2ccc(C(F)(F)F)cc2n1C(=O)OCC(=O)[O-] (3D coordinates assigned)
[NH-]C(=O)c1cc2ccc(C(F)(F)F)cc2n1C(=O)OCC(=O)[O-] (optimized conformer: 67.63191239903297 kcal/mol)

>  <smiles>  (95) 
NC(=O)c1cc2ccc(C(F)(F)F)cc2n1C(=O)OCC(=O)O

>  <score_type>  (95) 
oracle

>  <origin>  (95) 
adg

>  <m_score__min__energy>  (95) 
-5.5499999999999998

>  <m_primary>  (95) 
energy

$$$$
96:0
     RDKit          3D

 43 44  0  0  0  0  0  0  0  0999 V2000
  149.9850  150.8200  130.6750 C   0  0  0  0  0  0  0  0  0  0  0  0
  150.2880  151.3700  131.9510 O   0  0  0  0  0  0  0  0  0  0  0  0
  149.6310  152.4940  132.4610 C   0  0  0  0  0  0  0  0  0  0  0  0
  149.8920  153.6440  132.0090 O   0  0  0  0  0  0  0  0  0  0  0  0
  148.6630  152.3240  133.5030 N   0  0  0  0  0  0  0  0  0  0  0  0
  147.9680  153.4400  134.1450 C   0  0  0  0  0  0  0  0  0  0  0  0
  146.9570  154.0690  133.1810 C   0  0  0  0  0  0  0  0  0  0  0  0
  147.5850  155.0880  132.3350 N   0  0  0  0  0  0  0  0  0  0  0  0
  147.5220  156.4970  132.6220 C   0  0  0  0  0  0  0  0  0  0  0  0
  148.7090  157.2690  132.5500 C   0  0  0  0  0  0  0  0  0  0  0  0
  148.6900  158.6480  132.8110 C   0  0  0  0  0  0  0  0  0  0  0  0
  147.4740  159.2310  133.1490 C   0  0  0  0  0  0  0  0  0  0  0  0
  147.1700  160.5450  133.4240 C   0  0  0  0  0  0  0  0  0  0  0  0
  145.8010  160.5600  133.6840 C   0  0  0  0  0  0  0  0  0  0  0  0
  145.0660  161.7700  134.1090 C   0  0  0  0  0  0  0  0  0  0  0  0
  143.7040  161.9420  133.7250 N   0  0  0  0  0  0  0  0  0  0  0  0
  145.6380  162.6710  134.7750 O   0  0  0  0  0  0  0  0  0  0  0  0
  145.2780  159.3060  133.5670 N   0  0  0  0  0  0  0  0  0  0  0  0
  143.9010  158.9170  133.6810 C   0  0  0  0  0  0  0  0  0  0  0  0
  143.3580  158.2560  132.7530 O   0  0  0  0  0  0  0  0  0  0  0  0
  143.1690  159.2960  134.8140 O   0  0  0  0  0  0  0  0  0  0  0  0
  141.7860  159.5240  134.8420 C   0  0  0  0  0  0  0  0  0  0  0  0
  141.1940  160.0630  133.8660 O   0  0  0  0  0  0  0  0  0  0  0  0
  140.9920  159.0630  136.0200 C   0  0  0  0  0  0  0  0  0  0  0  0
  141.7230  158.1480  136.7560 F   0  0  0  0  0  0  0  0  0  0  0  0
  140.6840  160.1480  136.8170 F   0  0  0  0  0  0  0  0  0  0  0  0
  139.8200  158.4630  135.5950 F   0  0  0  0  0  0  0  0  0  0  0  0
  146.3170  158.5040  133.2410 C   0  0  0  0  0  0  0  0  0  0  0  0
  146.3020  157.1310  132.9680 C   0  0  0  0  0  0  0  0  0  0  0  0
  149.4579  149.8632  130.8039 H   0  0  0  0  0  0  0  0  0  0  0  0
  149.3447  151.5191  130.1171 H   0  0  0  0  0  0  0  0  0  0  0  0
  150.9180  150.6523  130.1171 H   0  0  0  0  0  0  0  0  0  0  0  0
  148.4850  151.3580  133.8600 H   0  0  0  0  0  0  0  0  0  0  0  0
  147.4380  153.0719  135.0358 H   0  0  0  0  0  0  0  0  0  0  0  0
  148.7078  154.2020  134.4315 H   0  0  0  0  0  0  0  0  0  0  0  0
  146.5367  153.2807  132.5391 H   0  0  0  0  0  0  0  0  0  0  0  0
  146.1673  154.5520  133.7752 H   0  0  0  0  0  0  0  0  0  0  0  0
  148.1050  154.7860  131.4810 H   0  0  0  0  0  0  0  0  0  0  0  0
  149.6584  156.7803  132.2858 H   0  0  0  0  0  0  0  0  0  0  0  0
  149.6092  159.2491  132.7500 H   0  0  0  0  0  0  0  0  0  0  0  0
  147.8607  161.4010  133.4360 H   0  0  0  0  0  0  0  0  0  0  0  0
  143.0580  161.1250  133.6600 H   0  0  0  0  0  0  0  0  0  0  0  0
  145.3650  156.5572  133.0208 H   0  0  0  0  0  0  0  0  0  0  0  0
  1  2  1  0
  2  3  1  0
  3  4  2  0
  3  5  1  0
  5  6  1  0
  6  7  1  0
  7  8  1  0
  8  9  1  0
  9 10  2  0
 10 11  1  0
 11 12  2  0
 12 13  1  0
 13 14  2  0
 14 15  1  0
 15 16  1  0
 15 17  2  0
 14 18  1  0
 18 19  1  0
 19 20  2  0
 19 21  1  0
 21 22  1  0
 22 23  2  0
 22 24  1  0
 24 25  1  0
 24 26  1  0
 24 27  1  0
 18 28  1  0
 28 29  2  0
 29  9  1  0
 28 12  1  0
  1 30  1  0
  1 31  1  0
  1 32  1  0
  5 33  1  0
  6 34  1  0
  6 35  1  0
  7 36  1  0
  7 37  1  0
  8 38  1  0
 10 39  1  0
 11 40  1  0
 13 41  1  0
 16 42  1  0
 29 43  1  0
M  CHG  1  16  -1
M  END
>  <UniqueID>  (96) 
96

>  <SMILES>  (96) 
COC(=O)NCCNc1ccc2cc(C([NH-])=O)n(C(=O)OC(=O)C(F)(F)F)c2c1

>  <Energy>  (96) 
75.12916958953589

>  <Genealogy>  (96) 
COC(=O)NCCNc1ccc2cc(C([NH-])=O)n(C(=O)OC(=O)C(F)(F)F)c2c1 (protonated)
COC(=O)NCCNc1ccc2cc(C([NH-])=O)n(C(=O)OC(=O)C(F)(F)F)c2c1 (3D coordinates assigned)
COC(=O)NCCNc1ccc2cc(C([NH-])=O)n(C(=O)OC(=O)C(F)(F)F)c2c1 (optimized conformer: 75.12916958953589 kcal/mol)

>  <smiles>  (96) 
COC(=O)NCCNc1ccc2cc(C(N)=O)n(C(=O)OC(=O)C(F)(F)F)c2c1

>  <score_type>  (96) 
oracle

>  <origin>  (96) 
adg

>  <m_score__min__energy>  (96) 
-7.2599999999999998

>  <m_primary>  (96) 
energy

$$$$
97:0
     RDKit          3D

 39 40  0  0  0  0  0  0  0  0999 V2000
  149.9940  158.3070  131.8880 C   0  0  0  0  0  0  0  0  0  0  0  0
  148.8910  157.5680  132.5070 N   0  0  0  0  0  0  0  0  0  0  0  0
  147.7970  158.4590  132.7980 C   0  0  0  0  0  0  0  0  0  0  0  0
  148.0420  159.8340  133.0540 C   0  0  0  0  0  0  0  0  0  0  0  0
  146.9840  160.7080  133.3590 C   0  0  0  0  0  0  0  0  0  0  0  0
  145.6990  160.1790  133.4180 C   0  0  0  0  0  0  0  0  0  0  0  0
  144.4940  160.7980  133.6720 C   0  0  0  0  0  0  0  0  0  0  0  0
  143.5360  159.7880  133.5940 C   0  0  0  0  0  0  0  0  0  0  0  0
  142.0930  159.9980  133.8340 C   0  0  0  0  0  0  0  0  0  0  0  0
  141.1500  159.6790  132.8140 N   0  0  0  0  0  0  0  0  0  0  0  0
  141.6840  160.4700  134.9270 O   0  0  0  0  0  0  0  0  0  0  0  0
  144.1270  158.5940  133.3100 N   0  0  0  0  0  0  0  0  0  0  0  0
  143.4840  157.3270  133.1050 C   0  0  0  0  0  0  0  0  0  0  0  0
  142.5510  157.2490  132.2630 O   0  0  0  0  0  0  0  0  0  0  0  0
  143.9290  156.1340  133.8670 C   0  0  0  0  0  0  0  0  0  0  0  0
  143.2130  155.7500  134.8310 O   0  0  0  0  0  0  0  0  0  0  0  0
  145.1410  155.4050  133.5540 N   0  0  0  0  0  0  0  0  0  0  0  0
  145.3800  154.8520  132.2170 C   0  0  0  0  0  0  0  0  0  0  0  0
  146.0800  155.0700  134.6330 C   0  0  0  0  0  0  0  0  0  0  0  0
  147.4370  155.6220  134.3290 C   0  0  0  0  0  0  0  0  0  0  0  0
  147.9440  156.5010  135.0730 O   0  0  0  0  0  0  0  0  0  0  0  0
  148.1270  155.1930  133.2010 O   0  0  0  0  0  0  0  0  0  0  0  0
  145.4470  158.8500  133.1990 C   0  0  0  0  0  0  0  0  0  0  0  0
  146.4760  157.9600  132.8750 C   0  0  0  0  0  0  0  0  0  0  0  0
  150.6342  158.7359  132.6730 H   0  0  0  0  0  0  0  0  0  0  0  0
  150.5880  157.6239  131.2631 H   0  0  0  0  0  0  0  0  0  0  0  0
  149.5881  159.1162  131.2631 H   0  0  0  0  0  0  0  0  0  0  0  0
  149.2310  157.1160  133.3880 H   0  0  0  0  0  0  0  0  0  0  0  0
  148.5770  156.8110  131.8560 H   0  0  0  0  0  0  0  0  0  0  0  0
  149.0714  160.2197  133.0132 H   0  0  0  0  0  0  0  0  0  0  0  0
  147.1666  161.7766  133.5451 H   0  0  0  0  0  0  0  0  0  0  0  0
  144.3242  161.8627  133.8900 H   0  0  0  0  0  0  0  0  0  0  0  0
  141.4290  159.1110  131.9830 H   0  0  0  0  0  0  0  0  0  0  0  0
  145.8149  153.8458  132.3087 H   0  0  0  0  0  0  0  0  0  0  0  0
  144.4278  154.7914  131.6697 H   0  0  0  0  0  0  0  0  0  0  0  0
  146.0766  155.5040  131.6697 H   0  0  0  0  0  0  0  0  0  0  0  0
  145.7162  155.5005  135.5776 H   0  0  0  0  0  0  0  0  0  0  0  0
  146.1497  153.9757  134.7204 H   0  0  0  0  0  0  0  0  0  0  0  0
  146.2630  156.8977  132.6847 H   0  0  0  0  0  0  0  0  0  0  0  0
  1  2  1  0
  2  3  1  0
  3  4  2  0
  4  5  1  0
  5  6  2  0
  6  7  1  0
  7  8  2  0
  8  9  1  0
  9 10  1  0
  9 11  2  0
  8 12  1  0
 12 13  1  0
 13 14  2  0
 13 15  1  0
 15 16  2  0
 15 17  1  0
 17 18  1  0
 17 19  1  0
 19 20  1  0
 20 21  2  0
 20 22  1  0
 12 23  1  0
 23 24  2  0
 24  3  1  0
 23  6  1  0
  1 25  1  0
  1 26  1  0
  1 27  1  0
  2 28  1  0
  2 29  1  0
  4 30  1  0
  5 31  1  0
  7 32  1  0
 10 33  1  0
 18 34  1  0
 18 35  1  0
 18 36  1  0
 19 37  1  0
 19 38  1  0
 24 39  1  0
M  CHG  3   2   1  10  -1  22  -1
M  END
>  <UniqueID>  (97) 
97

>  <SMILES>  (97) 
C[NH2+]c1ccc2cc(C([NH-])=O)n(C(=O)C(=O)N(C)CC(=O)[O-])c2c1

>  <Energy>  (97) 
78.22497273941978

>  <Genealogy>  (97) 
C[NH2+]c1ccc2cc(C([NH-])=O)n(C(=O)C(=O)N(C)CC(=O)[O-])c2c1 (protonated)
C[NH2+]c1ccc2cc(C([NH-])=O)n(C(=O)C(=O)N(C)CC(=O)[O-])c2c1 (3D coordinates assigned)
C[NH2+]c1ccc2cc(C([NH-])=O)n(C(=O)C(=O)N(C)CC(=O)[O-])c2c1 (optimized conformer: 78.22497273941978 kcal/mol)

>  <smiles>  (97) 
CNc1ccc2cc(C(N)=O)n(C(=O)C(=O)N(C)CC(=O)O)c2c1

>  <score_type>  (97) 
oracle

>  <origin>  (97) 
adg

>  <m_score__min__energy>  (97) 
-5.3099999999999996

>  <m_primary>  (97) 
energy

$$$$
98:0
     RDKit          3D

 40 41  0  0  0  0  0  0  0  0999 V2000
  139.3810  159.6700  131.7300 C   0  0  0  0  0  0  0  0  0  0  0  0
  139.1000  158.1800  131.8380 C   0  0  0  0  0  0  0  0  0  0  0  0
  140.2270  157.5230  132.4110 O   0  0  0  0  0  0  0  0  0  0  0  0
  140.1460  156.2510  132.9850 C   0  0  0  0  0  0  0  0  0  0  0  0
  139.0500  155.6240  132.9930 O   0  0  0  0  0  0  0  0  0  0  0  0
  141.3550  155.6580  133.5880 C   0  0  0  0  0  0  0  0  0  0  0  0
  141.7510  154.5390  133.1660 O   0  0  0  0  0  0  0  0  0  0  0  0
  142.1130  156.3250  134.6700 C   0  0  0  0  0  0  0  0  0  0  0  0
  142.7120  155.6420  135.5440 O   0  0  0  0  0  0  0  0  0  0  0  0
  142.1800  157.7580  134.7320 N   0  0  0  0  0  0  0  0  0  0  0  0
  141.2040  158.6210  135.1290 C   0  0  0  0  0  0  0  0  0  0  0  0
  139.8940  158.2450  135.7020 C   0  0  0  0  0  0  0  0  0  0  0  0
  138.7380  158.1220  134.8760 N   0  0  0  0  0  0  0  0  0  0  0  0
  139.7980  157.9990  136.9340 O   0  0  0  0  0  0  0  0  0  0  0  0
  141.6270  159.9400  134.9690 C   0  0  0  0  0  0  0  0  0  0  0  0
  142.9020  159.8540  134.4560 C   0  0  0  0  0  0  0  0  0  0  0  0
  143.7890  160.8580  134.0870 C   0  0  0  0  0  0  0  0  0  0  0  0
  145.0320  160.4780  133.5560 C   0  0  0  0  0  0  0  0  0  0  0  0
  145.3730  159.1050  133.3870 C   0  0  0  0  0  0  0  0  0  0  0  0
  146.6580  158.7230  132.8280 N   0  0  0  0  0  0  0  0  0  0  0  0
  147.0950  157.3220  132.8570 C   0  0  0  0  0  0  0  0  0  0  0  0
  147.5400  159.7300  132.2270 C   0  0  0  0  0  0  0  0  0  0  0  0
  144.4300  158.1180  133.7740 C   0  0  0  0  0  0  0  0  0  0  0  0
  143.2110  158.5280  134.3200 C   0  0  0  0  0  0  0  0  0  0  0  0
  139.4624  160.1018  132.7384 H   0  0  0  0  0  0  0  0  0  0  0  0
  140.3245  159.8268  131.1867 H   0  0  0  0  0  0  0  0  0  0  0  0
  138.5594  160.1596  131.1867 H   0  0  0  0  0  0  0  0  0  0  0  0
  138.2185  158.0187  132.4758 H   0  0  0  0  0  0  0  0  0  0  0  0
  138.9080  157.7701  130.8354 H   0  0  0  0  0  0  0  0  0  0  0  0
  138.7460  157.5160  134.0260 H   0  0  0  0  0  0  0  0  0  0  0  0
  141.0624  160.8546  135.2028 H   0  0  0  0  0  0  0  0  0  0  0  0
  143.5252  161.9191  134.2074 H   0  0  0  0  0  0  0  0  0  0  0  0
  145.7553  161.2541  133.2653 H   0  0  0  0  0  0  0  0  0  0  0  0
  147.1981  156.9916  133.9011 H   0  0  0  0  0  0  0  0  0  0  0  0
  146.3498  156.6948  132.3458 H   0  0  0  0  0  0  0  0  0  0  0  0
  148.0646  157.2297  132.3458 H   0  0  0  0  0  0  0  0  0  0  0  0
  148.0403  160.3012  133.0229 H   0  0  0  0  0  0  0  0  0  0  0  0
  148.2961  159.2301  131.6038 H   0  0  0  0  0  0  0  0  0  0  0  0
  146.9448  160.4136  131.6038 H   0  0  0  0  0  0  0  0  0  0  0  0
  144.6547  157.0488  133.6464 H   0  0  0  0  0  0  0  0  0  0  0  0
  1  2  1  0
  2  3  1  0
  3  4  1  0
  4  5  2  0
  4  6  1  0
  6  7  2  0
  6  8  1  0
  8  9  2  0
  8 10  1  0
 10 11  1  0
 11 12  1  0
 12 13  1  0
 12 14  2  0
 11 15  2  0
 15 16  1  0
 16 17  2  0
 17 18  1  0
 18 19  2  0
 19 20  1  0
 20 21  1  0
 20 22  1  0
 19 23  1  0
 23 24  2  0
 24 10  1  0
 24 16  1  0
  1 25  1  0
  1 26  1  0
  1 27  1  0
  2 28  1  0
  2 29  1  0
 13 30  1  0
 15 31  1  0
 17 32  1  0
 18 33  1  0
 21 34  1  0
 21 35  1  0
 21 36  1  0
 22 37  1  0
 22 38  1  0
 22 39  1  0
 23 40  1  0
M  CHG  1  13  -1
M  END
>  <UniqueID>  (98) 
98

>  <SMILES>  (98) 
CCOC(=O)C(=O)C(=O)n1c(C([NH-])=O)cc2ccc(N(C)C)cc21

>  <Energy>  (98) 
75.88523078331374

>  <Genealogy>  (98) 
CCOC(=O)C(=O)C(=O)n1c(C([NH-])=O)cc2ccc(N(C)C)cc21 (protonated)
CCOC(=O)C(=O)C(=O)n1c(C([NH-])=O)cc2ccc(N(C)C)cc21 (3D coordinates assigned)
CCOC(=O)C(=O)C(=O)n1c(C([NH-])=O)cc2ccc(N(C)C)cc21 (optimized conformer: 75.88523078331374 kcal/mol)

>  <smiles>  (98) 
CCOC(=O)C(=O)C(=O)n1c(C(N)=O)cc2ccc(N(C)C)cc21

>  <score_type>  (98) 
oracle

>  <origin>  (98) 
adg

>  <m_score__min__energy>  (98) 
-5.9100000000000001

>  <m_primary>  (98) 
energy

$$$$
