0:0
     RDKit          3D

 42 43  0  0  0  0  0  0  0  0999 V2000
  147.6760  154.6390  134.2110 C   0  0  0  0  0  0  0  0  0  0  0  0
  147.1030  155.9400  134.1630 O   0  0  0  0  0  0  0  0  0  0  0  0
  146.9670  156.6610  132.9720 C   0  0  0  0  0  0  0  0  0  0  0  0
  146.9810  156.0630  131.8630 O   0  0  0  0  0  0  0  0  0  0  0  0
  146.7860  158.0860  133.0170 N   0  0  0  0  0  0  0  0  0  0  0  0
  147.7230  159.0520  132.7990 C   0  0  0  0  0  0  0  0  0  0  0  0
  149.1010  158.8290  132.3150 C   0  0  0  0  0  0  0  0  0  0  0  0
  149.6120  157.5020  132.2130 N   0  0  0  0  0  0  0  0  0  0  0  0
  149.8480  159.8010  132.0260 O   0  0  0  0  0  0  0  0  0  0  0  0
  147.1810  160.3160  133.0190 C   0  0  0  0  0  0  0  0  0  0  0  0
  145.8710  160.0950  133.3740 C   0  0  0  0  0  0  0  0  0  0  0  0
  144.8720  161.0000  133.7170 C   0  0  0  0  0  0  0  0  0  0  0  0
  143.6130  160.4900  134.0720 C   0  0  0  0  0  0  0  0  0  0  0  0
  143.3740  159.0910  134.0860 C   0  0  0  0  0  0  0  0  0  0  0  0
  142.0120  158.5650  134.5030 C   0  0  1  0  0  0  0  0  0  0  0  0
  141.2690  159.6010  135.3570 C   0  0  0  0  0  0  0  0  0  0  0  0
  141.1640  158.1480  133.2810 C   0  0  0  0  0  0  0  0  0  0  0  0
  139.8660  158.8630  133.2550 N   0  0  0  0  0  0  0  0  0  0  0  0
  139.6860  159.5960  131.9900 C   0  0  0  0  0  0  0  0  0  0  0  0
  138.7580  157.9100  133.4320 C   0  0  0  0  0  0  0  0  0  0  0  0
  144.4170  158.2030  133.7310 C   0  0  0  0  0  0  0  0  0  0  0  0
  145.6560  158.7410  133.3650 C   0  0  0  0  0  0  0  0  0  0  0  0
  147.8096  154.3357  135.2599 H   0  0  0  0  0  0  0  0  0  0  0  0
  147.0088  153.9256  133.7051 H   0  0  0  0  0  0  0  0  0  0  0  0
  148.6527  154.6496  133.7051 H   0  0  0  0  0  0  0  0  0  0  0  0
  149.0250  156.7280  131.8320 H   0  0  0  0  0  0  0  0  0  0  0  0
  147.6925  161.2856  132.9281 H   0  0  0  0  0  0  0  0  0  0  0  0
  145.0627  162.0833  133.7103 H   0  0  0  0  0  0  0  0  0  0  0  0
  142.8024  161.1827  134.3424 H   0  0  0  0  0  0  0  0  0  0  0  0
  142.1752  157.6644  135.1131 H   0  0  0  0  0  0  0  0  0  0  0  0
  141.4278  159.3795  136.4227 H   0  0  0  0  0  0  0  0  0  0  0  0
  141.6531  160.6065  135.1302 H   0  0  0  0  0  0  0  0  0  0  0  0
  140.1934  159.5596  135.1302 H   0  0  0  0  0  0  0  0  0  0  0  0
  141.7207  158.3831  132.3619 H   0  0  0  0  0  0  0  0  0  0  0  0
  140.9637  157.0686  133.3503 H   0  0  0  0  0  0  0  0  0  0  0  0
  139.4288  160.6434  132.2065 H   0  0  0  0  0  0  0  0  0  0  0  0
  140.6196  159.5602  131.4094 H   0  0  0  0  0  0  0  0  0  0  0  0
  138.8752  159.1318  131.4094 H   0  0  0  0  0  0  0  0  0  0  0  0
  138.5766  157.7540  134.5057 H   0  0  0  0  0  0  0  0  0  0  0  0
  137.8491  158.3129  132.9613 H   0  0  0  0  0  0  0  0  0  0  0  0
  139.0204  156.9511  132.9613 H   0  0  0  0  0  0  0  0  0  0  0  0
  144.2576  157.1147  133.7425 H   0  0  0  0  0  0  0  0  0  0  0  0
  1  2  1  0
  2  3  1  0
  3  4  2  0
  3  5  1  0
  5  6  1  0
  6  7  1  0
  7  8  1  0
  7  9  2  0
  6 10  2  0
 10 11  1  0
 11 12  2  0
 12 13  1  0
 13 14  2  0
 14 15  1  0
 15 16  1  0
 15 17  1  0
 17 18  1  0
 18 19  1  0
 18 20  1  0
 14 21  1  0
 21 22  2  0
 22  5  1  0
 22 11  1  0
  1 23  1  0
  1 24  1  0
  1 25  1  0
  8 26  1  0
 10 27  1  0
 12 28  1  0
 13 29  1  0
 15 30  1  1
 16 31  1  0
 16 32  1  0
 16 33  1  0
 17 34  1  0
 17 35  1  0
 19 36  1  0
 19 37  1  0
 19 38  1  0
 20 39  1  0
 20 40  1  0
 20 41  1  0
 21 42  1  0
M  CHG  1   8  -1
M  END
>  <UniqueID>  (1) 
1

>  <SMILES>  (1) 
COC(=O)n1c(C([NH-])=O)cc2ccc([C@@H](C)CN(C)C)cc21

>  <Energy>  (1) 
75.83772087637857

>  <Genealogy>  (1) 
COC(=O)n1c(C([NH-])=O)cc2ccc(C(C)CN(C)C)cc21 (protonated)
COC(=O)n1c(C([NH-])=O)cc2ccc([C@@H](C)CN(C)C)cc21 (chirality)
COC(=O)n1c(C([NH-])=O)cc2ccc([C@@H](C)CN(C)C)cc21 (3D coordinates assigned)
COC(=O)n1c(C([NH-])=O)cc2ccc([C@@H](C)CN(C)C)cc21 (optimized conformer: 75.83772087637857 kcal/mol)

>  <smiles>  (1) 
COC(=O)n1c(C(N)=O)cc2ccc(C(C)CN(C)C)cc21

>  <score_type>  (1) 
oracle

>  <origin>  (1) 
adg

>  <m_score__min__energy>  (1) 
-6.5199999999999996

>  <m_primary>  (1) 
energy

$$$$
1:0
     RDKit          3D

 39 40  0  0  0  0  0  0  0  0999 V2000
  149.8330  160.1070  130.0010 C   0  0  0  0  0  0  0  0  0  0  0  0
  149.4710  160.0040  131.4230 N   0  0  0  0  0  0  0  0  0  0  0  0
  149.5880  158.6020  131.8600 C   0  0  0  0  0  0  0  0  0  0  0  0
  148.1000  160.5180  131.6410 C   0  0  0  0  0  0  0  0  0  0  0  0
  147.7220  160.4780  133.1290 C   0  0  0  0  0  0  0  0  0  0  0  0
  146.2680  160.4520  133.3040 N   0  0  0  0  0  0  0  0  0  0  0  0
  145.4710  159.2530  133.3560 C   0  0  0  0  0  0  0  0  0  0  0  0
  146.0620  157.9660  133.4830 C   0  0  0  0  0  0  0  0  0  0  0  0
  145.2630  156.8130  133.5440 C   0  0  0  0  0  0  0  0  0  0  0  0
  143.8820  156.9690  133.4760 C   0  0  0  0  0  0  0  0  0  0  0  0
  142.8830  156.0270  133.5400 C   0  0  0  0  0  0  0  0  0  0  0  0
  141.6920  156.7430  133.4380 C   0  0  0  0  0  0  0  0  0  0  0  0
  140.3520  156.1160  133.3760 C   0  0  0  0  0  0  0  0  0  0  0  0
  139.2090  156.8760  132.9810 N   0  0  0  0  0  0  0  0  0  0  0  0
  140.2030  154.9090  133.7010 O   0  0  0  0  0  0  0  0  0  0  0  0
  141.9470  158.0780  133.3140 N   0  0  0  0  0  0  0  0  0  0  0  0
  140.9910  159.1480  133.2390 C   0  0  0  0  0  0  0  0  0  0  0  0
  140.4610  159.5530  131.9810 N   0  0  0  0  0  0  0  0  0  0  0  0
  140.6170  159.7370  134.2880 O   0  0  0  0  0  0  0  0  0  0  0  0
  143.2940  158.1990  133.3430 C   0  0  0  0  0  0  0  0  0  0  0  0
  144.0640  159.3660  133.2990 C   0  0  0  0  0  0  0  0  0  0  0  0
  150.8875  160.4070  129.9119 H   0  0  0  0  0  0  0  0  0  0  0  0
  149.6869  159.1316  129.5139 H   0  0  0  0  0  0  0  0  0  0  0  0
  149.1953  160.8593  129.5139 H   0  0  0  0  0  0  0  0  0  0  0  0
  149.5915  158.5596  132.9592 H   0  0  0  0  0  0  0  0  0  0  0  0
  148.7349  158.0251  131.4736 H   0  0  0  0  0  0  0  0  0  0  0  0
  150.5249  158.1745  131.4736 H   0  0  0  0  0  0  0  0  0  0  0  0
  148.0456  161.5573  131.2848 H   0  0  0  0  0  0  0  0  0  0  0  0
  147.3965  159.8803  131.0856 H   0  0  0  0  0  0  0  0  0  0  0  0
  148.1548  159.5755  133.5853 H   0  0  0  0  0  0  0  0  0  0  0  0
  148.1157  161.3836  133.6136 H   0  0  0  0  0  0  0  0  0  0  0  0
  145.7790  161.3740  133.3490 H   0  0  0  0  0  0  0  0  0  0  0  0
  147.1568  157.8726  133.5340 H   0  0  0  0  0  0  0  0  0  0  0  0
  145.7157  155.8153  133.6427 H   0  0  0  0  0  0  0  0  0  0  0  0
  142.9992  154.9386  133.6487 H   0  0  0  0  0  0  0  0  0  0  0  0
  138.2630  156.4340  132.9780 H   0  0  0  0  0  0  0  0  0  0  0  0
  139.2980  157.8610  132.6480 H   0  0  0  0  0  0  0  0  0  0  0  0
  140.9770  159.3600  131.0930 H   0  0  0  0  0  0  0  0  0  0  0  0
  143.5833  160.3524  133.2215 H   0  0  0  0  0  0  0  0  0  0  0  0
  1  2  1  0
  2  3  1  0
  2  4  1  0
  4  5  1  0
  5  6  1  0
  6  7  1  0
  7  8  2  0
  8  9  1  0
  9 10  2  0
 10 11  1  0
 11 12  2  0
 12 13  1  0
 13 14  1  0
 13 15  2  0
 12 16  1  0
 16 17  1  0
 17 18  1  0
 17 19  2  0
 16 20  1  0
 20 21  2  0
 21  7  1  0
 20 10  1  0
  1 22  1  0
  1 23  1  0
  1 24  1  0
  3 25  1  0
  3 26  1  0
  3 27  1  0
  4 28  1  0
  4 29  1  0
  5 30  1  0
  5 31  1  0
  6 32  1  0
  8 33  1  0
  9 34  1  0
 11 35  1  0
 14 36  1  0
 14 37  1  0
 18 38  1  0
 21 39  1  0
M  CHG  1  18  -1
M  END
>  <UniqueID>  (2) 
2

>  <SMILES>  (2) 
CN(C)CCNc1ccc2cc(C(N)=O)n(C([NH-])=O)c2c1

>  <Energy>  (2) 
76.10081099549961

>  <Genealogy>  (2) 
CN(C)CCNc1ccc2cc(C(N)=O)n(C([NH-])=O)c2c1 (protonated)
CN(C)CCNc1ccc2cc(C(N)=O)n(C([NH-])=O)c2c1 (3D coordinates assigned)
CN(C)CCNc1ccc2cc(C(N)=O)n(C([NH-])=O)c2c1 (optimized conformer: 76.10081099549961 kcal/mol)

>  <smiles>  (2) 
CN(C)CCNc1ccc2cc(C(N)=O)n(C(N)=O)c2c1

>  <score_type>  (2) 
oracle

>  <origin>  (2) 
adg

>  <m_score__min__energy>  (2) 
-6.6900000000000004

>  <m_primary>  (2) 
energy

$$$$
2:0
     RDKit          3D

 27 28  0  0  0  0  0  0  0  0999 V2000
  143.4450  155.3320  133.0260 N   0  0  0  0  0  0  0  0  0  0  0  0
  143.4040  154.1020  133.7490 C   0  0  0  0  0  0  0  0  0  0  0  0
  143.9780  154.0250  134.8680 O   0  0  0  0  0  0  0  0  0  0  0  0
  142.6460  152.9410  133.2410 C   0  0  0  0  0  0  0  0  0  0  0  0
  143.2230  151.6970  133.0020 C   0  0  0  0  0  0  0  0  0  0  0  0
  142.1850  150.8860  132.6090 C   0  0  0  0  0  0  0  0  0  0  0  0
  142.1930  149.5480  132.2270 C   0  0  0  0  0  0  0  0  0  0  0  0
  140.9780  148.9700  131.8250 C   0  0  0  0  0  0  0  0  0  0  0  0
  139.7850  149.7340  131.8120 C   0  0  0  0  0  0  0  0  0  0  0  0
  138.5000  149.1160  131.3340 C   0  0  0  0  0  0  0  0  0  0  0  0
  138.7660  148.2120  130.1730 C   0  0  0  0  0  0  0  0  0  0  0  0
  139.0600  147.0030  130.3660 O   0  0  0  0  0  0  0  0  0  0  0  0
  138.7380  148.7160  128.8790 O   0  0  0  0  0  0  0  0  0  0  0  0
  139.8170  151.0940  132.1920 C   0  0  0  0  0  0  0  0  0  0  0  0
  141.0380  151.6390  132.6090 C   0  0  0  0  0  0  0  0  0  0  0  0
  141.3070  152.9090  132.9930 N   0  0  0  0  0  0  0  0  0  0  0  0
  140.3930  154.0190  133.0040 C   0  0  0  0  0  0  0  0  0  0  0  0
  139.1490  153.8230  132.9810 O   0  0  0  0  0  0  0  0  0  0  0  0
  140.8720  155.3220  133.0360 O   0  0  0  0  0  0  0  0  0  0  0  0
  142.8470  155.4820  132.1830 H   0  0  0  0  0  0  0  0  0  0  0  0
  144.0150  156.1320  133.3820 H   0  0  0  0  0  0  0  0  0  0  0  0
  144.2830  151.4218  133.1055 H   0  0  0  0  0  0  0  0  0  0  0  0
  143.1230  148.9608  132.2396 H   0  0  0  0  0  0  0  0  0  0  0  0
  140.9523  147.9142  131.5173 H   0  0  0  0  0  0  0  0  0  0  0  0
  138.0493  148.5348  132.1520 H   0  0  0  0  0  0  0  0  0  0  0  0
  137.8117  149.9141  131.0189 H   0  0  0  0  0  0  0  0  0  0  0  0
  138.9059  151.7096  132.1612 H   0  0  0  0  0  0  0  0  0  0  0  0
  1  2  1  0
  2  3  2  0
  2  4  1  0
  4  5  2  0
  5  6  1  0
  6  7  2  0
  7  8  1  0
  8  9  2  0
  9 10  1  0
 10 11  1  0
 11 12  2  0
 11 13  1  0
  9 14  1  0
 14 15  2  0
 15 16  1  0
 16 17  1  0
 17 18  2  0
 17 19  1  0
 16  4  1  0
 15  6  1  0
  1 20  1  0
  1 21  1  0
  5 22  1  0
  7 23  1  0
  8 24  1  0
 10 25  1  0
 10 26  1  0
 14 27  1  0
M  CHG  2  13  -1  19  -1
M  END
>  <UniqueID>  (3) 
3

>  <SMILES>  (3) 
NC(=O)c1cc2ccc(CC(=O)[O-])cc2n1C(=O)[O-]

>  <Energy>  (3) 
65.89953019011699

>  <Genealogy>  (3) 
NC(=O)c1cc2ccc(CC(=O)[O-])cc2n1C(=O)[O-] (protonated)
NC(=O)c1cc2ccc(CC(=O)[O-])cc2n1C(=O)[O-] (3D coordinates assigned)
NC(=O)c1cc2ccc(CC(=O)[O-])cc2n1C(=O)[O-] (optimized conformer: 65.89953019011699 kcal/mol)

>  <smiles>  (3) 
NC(=O)c1cc2ccc(CC(=O)O)cc2n1C(=O)O

>  <score_type>  (3) 
oracle

>  <origin>  (3) 
adg

>  <m_score__min__energy>  (3) 
-6.2599999999999998

>  <m_primary>  (3) 
energy

$$$$
3:0
     RDKit          3D

 61 64  0  0  0  0  0  0  0  0999 V2000
  140.2120  156.7170  132.9790 C   0  0  0  0  0  0  0  0  0  0  0  0
  141.6180  156.6800  133.1910 O   0  0  0  0  0  0  0  0  0  0  0  0
  142.2390  157.3430  134.2540 C   0  0  0  0  0  0  0  0  0  0  0  0
  141.9480  157.0460  135.4450 O   0  0  0  0  0  0  0  0  0  0  0  0
  143.2290  158.3480  133.9850 N   0  0  0  0  0  0  0  0  0  0  0  0
  143.0650  159.7020  133.9480 C   0  0  0  0  0  0  0  0  0  0  0  0
  141.7800  160.4260  134.0560 C   0  0  0  0  0  0  0  0  0  0  0  0
  140.6370  159.7650  134.5940 N   0  0  0  0  0  0  0  0  0  0  0  0
  141.6890  161.6330  133.7110 O   0  0  0  0  0  0  0  0  0  0  0  0
  144.2820  160.3350  133.7040 C   0  0  0  0  0  0  0  0  0  0  0  0
  145.2040  159.3200  133.5840 C   0  0  0  0  0  0  0  0  0  0  0  0
  146.5740  159.3790  133.3470 C   0  0  0  0  0  0  0  0  0  0  0  0
  147.2850  158.1680  133.2940 C   0  0  0  0  0  0  0  0  0  0  0  0
  146.6170  156.9320  133.4740 C   0  0  0  0  0  0  0  0  0  0  0  0
  147.3840  155.6700  133.4260 C   0  0  0  0  0  0  0  0  0  0  0  0
  148.5150  155.6120  132.5970 C   0  0  0  0  0  0  0  0  0  0  0  0
  149.2770  154.4480  132.5120 C   0  0  0  0  0  0  0  0  0  0  0  0
  148.9200  153.3110  133.2550 C   0  0  0  0  0  0  0  0  0  0  0  0
  149.6550  152.1180  133.2020 O   0  0  0  0  0  0  0  0  0  0  0  0
  149.5910  151.0890  134.1850 C   0  0  0  0  0  0  0  0  0  0  0  0
  147.7900  153.3580  134.0760 C   0  0  0  0  0  0  0  0  0  0  0  0
  147.0020  154.5220  134.1670 C   0  0  0  0  0  0  0  0  0  0  0  0
  145.7530  154.4850  135.0230 C   0  0  0  0  0  0  0  0  0  0  0  0
  144.6680  153.5050  134.5250 C   0  0  0  0  0  0  0  0  0  0  0  0
  143.3530  154.2000  134.0470 C   0  0  2  0  0  0  0  0  0  0  0  0
  142.1020  153.4860  134.6030 C   0  0  0  0  0  0  0  0  0  0  0  0
  141.1890  153.2620  133.4170 C   0  0  0  0  0  0  0  0  0  0  0  0
  142.1230  153.3010  132.2310 C   0  0  0  0  0  0  0  0  0  0  0  0
  143.1680  154.2710  132.5690 N   0  0  2  0  0  0  0  0  0  0  0  0
  144.3610  154.0830  131.7220 C   0  0  0  0  0  0  0  0  0  0  0  0
  145.2300  156.9130  133.7330 C   0  0  0  0  0  0  0  0  0  0  0  0
  144.5430  158.1320  133.7580 C   0  0  0  0  0  0  0  0  0  0  0  0
  139.6950  156.7306  133.9499 H   0  0  0  0  0  0  0  0  0  0  0  0
  139.9504  157.6223  132.4116 H   0  0  0  0  0  0  0  0  0  0  0  0
  139.9032  155.8267  132.4116 H   0  0  0  0  0  0  0  0  0  0  0  0
  140.6800  158.7590  134.8710 H   0  0  0  0  0  0  0  0  0  0  0  0
  144.4668  161.4164  133.6242 H   0  0  0  0  0  0  0  0  0  0  0  0
  147.0843  160.3432  133.2056 H   0  0  0  0  0  0  0  0  0  0  0  0
  148.3696  158.1801  133.1112 H   0  0  0  0  0  0  0  0  0  0  0  0
  148.8033  156.4950  132.0078 H   0  0  0  0  0  0  0  0  0  0  0  0
  150.1623  154.4198  131.8597 H   0  0  0  0  0  0  0  0  0  0  0  0
  149.6190  151.5384  135.1886 H   0  0  0  0  0  0  0  0  0  0  0  0
  148.6559  150.5228  134.0627 H   0  0  0  0  0  0  0  0  0  0  0  0
  150.4487  150.4113  134.0627 H   0  0  0  0  0  0  0  0  0  0  0  0
  147.5109  152.4698  134.6618 H   0  0  0  0  0  0  0  0  0  0  0  0
  146.0427  154.1889  136.0420 H   0  0  0  0  0  0  0  0  0  0  0  0
  145.3116  155.4916  134.9786 H   0  0  0  0  0  0  0  0  0  0  0  0
  145.0813  152.9307  133.6827 H   0  0  0  0  0  0  0  0  0  0  0  0
  144.3980  152.8686  135.3806 H   0  0  0  0  0  0  0  0  0  0  0  0
  143.4632  155.2237  134.4341 H   0  0  0  0  0  0  0  0  0  0  0  0
  142.3812  152.5241  135.0577 H   0  0  0  0  0  0  0  0  0  0  0  0
  141.6096  154.0845  135.3836 H   0  0  0  0  0  0  0  0  0  0  0  0
  140.6865  152.2861  133.4881 H   0  0  0  0  0  0  0  0  0  0  0  0
  140.3860  154.0109  133.3509 H   0  0  0  0  0  0  0  0  0  0  0  0
  142.5645  152.3081  132.0599 H   0  0  0  0  0  0  0  0  0  0  0  0
  141.5924  153.5860  131.3106 H   0  0  0  0  0  0  0  0  0  0  0  0
  142.7890  155.2230  132.3410 H   0  0  0  0  0  0  0  0  0  0  0  0
  145.2458  153.9436  132.3606 H   0  0  0  0  0  0  0  0  0  0  0  0
  144.2236  153.1954  131.0869 H   0  0  0  0  0  0  0  0  0  0  0  0
  144.5032  154.9698  131.0869 H   0  0  0  0  0  0  0  0  0  0  0  0
  144.7023  155.9643  133.9107 H   0  0  0  0  0  0  0  0  0  0  0  0
  1  2  1  0
  2  3  1  0
  3  4  2  0
  3  5  1  0
  5  6  1  0
  6  7  1  0
  7  8  1  0
  7  9  2  0
  6 10  2  0
 10 11  1  0
 11 12  2  0
 12 13  1  0
 13 14  2  0
 14 15  1  0
 15 16  2  0
 16 17  1  0
 17 18  2  0
 18 19  1  0
 19 20  1  0
 18 21  1  0
 21 22  2  0
 22 23  1  0
 23 24  1  0
 24 25  1  0
 25 26  1  0
 26 27  1  0
 27 28  1  0
 28 29  1  0
 29 30  1  0
 14 31  1  0
 31 32  2  0
 32  5  1  0
 32 11  1  0
 22 15  1  0
 29 25  1  0
  1 33  1  0
  1 34  1  0
  1 35  1  0
  8 36  1  0
 10 37  1  0
 12 38  1  0
 13 39  1  0
 16 40  1  0
 17 41  1  0
 20 42  1  0
 20 43  1  0
 20 44  1  0
 21 45  1  0
 23 46  1  0
 23 47  1  0
 24 48  1  0
 24 49  1  0
 25 50  1  1
 26 51  1  0
 26 52  1  0
 27 53  1  0
 27 54  1  0
 28 55  1  0
 28 56  1  0
 29 57  1  1
 30 58  1  0
 30 59  1  0
 30 60  1  0
 31 61  1  0
M  CHG  2   8  -1  29   1
M  END
>  <UniqueID>  (4) 
4

>  <SMILES>  (4) 
COC(=O)n1c(C([NH-])=O)cc2ccc(-c3ccc(OC)cc3CC[C@@H]3CCC[N@@H+]3C)cc21

>  <Energy>  (4) 
114.67779936384566

>  <Genealogy>  (4) 
COC(=O)n1c(C([NH-])=O)cc2ccc(-c3ccc(OC)cc3CCC3CCC[NH+]3C)cc21 (protonated)
COC(=O)n1c(C([NH-])=O)cc2ccc(-c3ccc(OC)cc3CC[C@@H]3CCC[N@@H+]3C)cc21 (chirality)
COC(=O)n1c(C([NH-])=O)cc2ccc(-c3ccc(OC)cc3CC[C@@H]3CCC[N@@H+]3C)cc21 (3D coordinates assigned)
COC(=O)n1c(C([NH-])=O)cc2ccc(-c3ccc(OC)cc3CC[C@@H]3CCC[N@@H+]3C)cc21 (nonaromatic ring conformer: 114.67779936384566 kcal/mol)

>  <smiles>  (4) 
COC(=O)n1c(C(N)=O)cc2ccc(-c3ccc(OC)cc3CCC3CCCN3C)cc21

>  <score_type>  (4) 
oracle

>  <origin>  (4) 
adg

>  <m_score__min__energy>  (4) 
-7.4199999999999999

>  <m_primary>  (4) 
energy

$$$$
4:0
     RDKit          3D

 39 40  0  0  0  0  0  0  0  0999 V2000
  138.6770  160.5060  130.3670 C   0  0  0  0  0  0  0  0  0  0  0  0
  137.7890  159.5680  131.1770 C   0  0  0  0  0  0  0  0  0  0  0  0
  138.3410  159.3460  132.4720 O   0  0  0  0  0  0  0  0  0  0  0  0
  139.3960  158.4600  132.7190 C   0  0  0  0  0  0  0  0  0  0  0  0
  140.3360  158.3270  131.8900 O   0  0  0  0  0  0  0  0  0  0  0  0
  139.4190  157.6910  134.0030 C   0  0  0  0  0  0  0  0  0  0  0  0
  140.3570  158.3050  134.9520 N   0  0  0  0  0  0  0  0  0  0  0  0
  139.8960  158.5950  136.3130 C   0  0  0  0  0  0  0  0  0  0  0  0
  141.6470  158.7810  134.5070 C   0  0  0  0  0  0  0  0  0  0  0  0
  141.8400  160.1570  134.2140 C   0  0  0  0  0  0  0  0  0  0  0  0
  143.0790  160.6250  133.7480 C   0  0  0  0  0  0  0  0  0  0  0  0
  144.1090  159.7050  133.5940 C   0  0  0  0  0  0  0  0  0  0  0  0
  145.3910  159.8850  133.1270 C   0  0  0  0  0  0  0  0  0  0  0  0
  145.9790  158.6250  133.1730 C   0  0  0  0  0  0  0  0  0  0  0  0
  147.3880  158.3720  132.8130 C   0  0  0  0  0  0  0  0  0  0  0  0
  147.7390  157.3720  131.8570 N   0  0  0  0  0  0  0  0  0  0  0  0
  148.3010  159.0140  133.3990 O   0  0  0  0  0  0  0  0  0  0  0  0
  145.0940  157.6960  133.6350 N   0  0  0  0  0  0  0  0  0  0  0  0
  145.2850  156.2730  133.7180 C   0  0  0  0  0  0  0  0  0  0  0  0
  145.6300  155.6180  132.7010 O   0  0  0  0  0  0  0  0  0  0  0  0
  145.0910  155.6050  134.9210 O   0  0  0  0  0  0  0  0  0  0  0  0
  143.9520  158.3750  133.8900 C   0  0  0  0  0  0  0  0  0  0  0  0
  142.7210  157.8760  134.3330 C   0  0  0  0  0  0  0  0  0  0  0  0
  139.2694  161.1317  131.0508 H   0  0  0  0  0  0  0  0  0  0  0  0
  139.3534  159.9141  129.7329 H   0  0  0  0  0  0  0  0  0  0  0  0
  138.0489  161.1490  129.7329 H   0  0  0  0  0  0  0  0  0  0  0  0
  136.7904  160.0171  131.2821 H   0  0  0  0  0  0  0  0  0  0  0  0
  137.7202  158.6041  130.6516 H   0  0  0  0  0  0  0  0  0  0  0  0
  138.4102  157.6878  134.4415 H   0  0  0  0  0  0  0  0  0  0  0  0
  139.7449  156.6610  133.7957 H   0  0  0  0  0  0  0  0  0  0  0  0
  140.5957  158.1548  137.0387 H   0  0  0  0  0  0  0  0  0  0  0  0
  139.8514  159.6841  136.4608 H   0  0  0  0  0  0  0  0  0  0  0  0
  138.8949  158.1637  136.4608 H   0  0  0  0  0  0  0  0  0  0  0  0
  141.0093  160.8644  134.3537 H   0  0  0  0  0  0  0  0  0  0  0  0
  143.2299  161.6887  133.5118 H   0  0  0  0  0  0  0  0  0  0  0  0
  145.8524  160.8247  132.7894 H   0  0  0  0  0  0  0  0  0  0  0  0
  147.0230  156.7130  131.4800 H   0  0  0  0  0  0  0  0  0  0  0  0
  148.7370  157.2340  131.5860 H   0  0  0  0  0  0  0  0  0  0  0  0
  142.5915  156.8037  134.5413 H   0  0  0  0  0  0  0  0  0  0  0  0
  1  2  1  0
  2  3  1  0
  3  4  1  0
  4  5  2  0
  4  6  1  0
  6  7  1  0
  7  8  1  0
  7  9  1  0
  9 10  2  0
 10 11  1  0
 11 12  2  0
 12 13  1  0
 13 14  2  0
 14 15  1  0
 15 16  1  0
 15 17  2  0
 14 18  1  0
 18 19  1  0
 19 20  2  0
 19 21  1  0
 18 22  1  0
 22 23  2  0
 23  9  1  0
 22 12  1  0
  1 24  1  0
  1 25  1  0
  1 26  1  0
  2 27  1  0
  2 28  1  0
  6 29  1  0
  6 30  1  0
  8 31  1  0
  8 32  1  0
  8 33  1  0
 10 34  1  0
 11 35  1  0
 13 36  1  0
 16 37  1  0
 16 38  1  0
 23 39  1  0
M  CHG  1  21  -1
M  END
>  <UniqueID>  (5) 
5

>  <SMILES>  (5) 
CCOC(=O)CN(C)c1ccc2cc(C(N)=O)n(C(=O)[O-])c2c1

>  <Energy>  (5) 
76.30764599280973

>  <Genealogy>  (5) 
CCOC(=O)CN(C)c1ccc2cc(C(N)=O)n(C(=O)[O-])c2c1 (protonated)
CCOC(=O)CN(C)c1ccc2cc(C(N)=O)n(C(=O)[O-])c2c1 (3D coordinates assigned)
CCOC(=O)CN(C)c1ccc2cc(C(N)=O)n(C(=O)[O-])c2c1 (optimized conformer: 76.30764599280973 kcal/mol)

>  <smiles>  (5) 
CCOC(=O)CN(C)c1ccc2cc(C(N)=O)n(C(=O)O)c2c1

>  <score_type>  (5) 
oracle

>  <origin>  (5) 
adg

>  <m_score__min__energy>  (5) 
-6.2699999999999996

>  <m_primary>  (5) 
energy

$$$$
5:0
     RDKit          3D

 31 33  0  0  0  0  0  0  0  0999 V2000
  141.4630  160.9900  133.7270 N   0  0  0  0  0  0  0  0  0  0  0  0
  142.2830  160.1040  134.4840 C   0  0  0  0  0  0  0  0  0  0  0  0
  141.8620  159.6660  135.5880 O   0  0  0  0  0  0  0  0  0  0  0  0
  143.6390  159.7400  134.0220 C   0  0  0  0  0  0  0  0  0  0  0  0
  144.0110  158.4380  133.6930 C   0  0  0  0  0  0  0  0  0  0  0  0
  145.3540  158.5040  133.4030 C   0  0  0  0  0  0  0  0  0  0  0  0
  146.2320  157.5030  132.9980 C   0  0  0  0  0  0  0  0  0  0  0  0
  147.5620  157.8630  132.7300 C   0  0  0  0  0  0  0  0  0  0  0  0
  147.9900  159.2070  132.8730 C   0  0  0  0  0  0  0  0  0  0  0  0
  149.4040  159.5880  132.5320 C   0  0  0  0  0  0  0  0  0  0  0  0
  149.5350  159.8030  131.0210 C   0  0  0  0  0  0  0  0  0  0  0  0
  148.3390  160.4510  130.3400 C   0  0  0  0  0  0  0  0  0  0  0  0
  149.6050  161.2580  130.5840 C   0  0  0  0  0  0  0  0  0  0  0  0
  147.0680  160.1980  133.2760 C   0  0  0  0  0  0  0  0  0  0  0  0
  145.7520  159.8070  133.5530 C   0  0  0  0  0  0  0  0  0  0  0  0
  144.7090  160.5820  133.9300 N   0  0  0  0  0  0  0  0  0  0  0  0
  144.7270  162.0080  134.1000 C   0  0  0  0  0  0  0  0  0  0  0  0
  145.5590  162.5450  134.8780 O   0  0  0  0  0  0  0  0  0  0  0  0
  143.8110  162.8070  133.4270 O   0  0  0  0  0  0  0  0  0  0  0  0
  141.8480  161.8810  133.3410 H   0  0  0  0  0  0  0  0  0  0  0  0
  143.3671  157.5464  133.6700 H   0  0  0  0  0  0  0  0  0  0  0  0
  145.8941  156.4617  132.8912 H   0  0  0  0  0  0  0  0  0  0  0  0
  148.2793  157.0947  132.4058 H   0  0  0  0  0  0  0  0  0  0  0  0
  149.6682  160.5178  133.0571 H   0  0  0  0  0  0  0  0  0  0  0  0
  150.0824  158.7800  132.8434 H   0  0  0  0  0  0  0  0  0  0  0  0
  150.1354  158.8996  130.8382 H   0  0  0  0  0  0  0  0  0  0  0  0
  148.0628  160.1570  129.3166 H   0  0  0  0  0  0  0  0  0  0  0  0
  147.2754  160.5775  130.5906 H   0  0  0  0  0  0  0  0  0  0  0  0
  150.2443  161.5477  129.7370 H   0  0  0  0  0  0  0  0  0  0  0  0
  149.8361  162.2100  131.0842 H   0  0  0  0  0  0  0  0  0  0  0  0
  147.3756  161.2499  133.3699 H   0  0  0  0  0  0  0  0  0  0  0  0
  1  2  1  0
  2  3  2  0
  2  4  1  0
  4  5  2  0
  5  6  1  0
  6  7  2  0
  7  8  1  0
  8  9  2  0
  9 10  1  0
 10 11  1  0
 11 12  1  0
 12 13  1  0
  9 14  1  0
 14 15  2  0
 15 16  1  0
 16 17  1  0
 17 18  2  0
 17 19  1  0
 16  4  1  0
 15  6  1  0
 13 11  1  0
  1 20  1  0
  5 21  1  0
  7 22  1  0
  8 23  1  0
 10 24  1  0
 10 25  1  0
 11 26  1  0
 12 27  1  0
 12 28  1  0
 13 29  1  0
 13 30  1  0
 14 31  1  0
M  CHG  2   1  -1  19  -1
M  END
>  <UniqueID>  (6) 
6

>  <SMILES>  (6) 
[NH-]C(=O)c1cc2ccc(CC3CC3)cc2n1C(=O)[O-]

>  <Energy>  (6) 
333.934695158662

>  <Genealogy>  (6) 
[NH-]C(=O)c1cc2ccc(CC3CC3)cc2n1C(=O)[O-] (protonated)
[NH-]C(=O)c1cc2ccc(CC3CC3)cc2n1C(=O)[O-] (3D coordinates assigned)
[NH-]C(=O)c1cc2ccc(CC3CC3)cc2n1C(=O)[O-] (nonaromatic ring conformer: 333.934695158662 kcal/mol)

>  <smiles>  (6) 
NC(=O)c1cc2ccc(CC3CC3)cc2n1C(=O)O

>  <score_type>  (6) 
oracle

>  <origin>  (6) 
adg

>  <m_score__min__energy>  (6) 
-7.2000000000000002

>  <m_primary>  (6) 
energy

$$$$
6:0
     RDKit          3D

 46 48  0  0  0  0  0  0  0  0999 V2000
  149.2000  160.2250  131.3720 C   0  0  0  0  0  0  0  0  0  0  0  0
  148.1260  160.1080  132.4510 C   0  0  0  0  0  0  0  0  0  0  0  0
  147.4830  158.7760  132.4240 N   0  0  0  0  0  0  0  0  0  0  0  0
  148.3530  157.7710  133.0560 C   0  0  0  0  0  0  0  0  0  0  0  0
  147.7920  156.3800  132.7660 C   0  0  0  0  0  0  0  0  0  0  0  0
  146.3540  156.3200  133.0610 N   0  0  0  0  0  0  0  0  0  0  0  0
  145.6750  155.0500  132.9880 C   0  0  0  0  0  0  0  0  0  0  0  0
  146.4020  153.8650  132.7000 C   0  0  0  0  0  0  0  0  0  0  0  0
  145.7570  152.6180  132.6530 C   0  0  0  0  0  0  0  0  0  0  0  0
  144.3870  152.5820  132.8920 C   0  0  0  0  0  0  0  0  0  0  0  0
  143.5260  151.5100  132.9380 C   0  0  0  0  0  0  0  0  0  0  0  0
  142.2770  152.0540  133.2320 C   0  0  0  0  0  0  0  0  0  0  0  0
  141.0260  151.2640  133.2900 C   0  0  0  0  0  0  0  0  0  0  0  0
  139.8480  151.7120  132.6150 N   0  0  0  0  0  0  0  0  0  0  0  0
  140.9810  150.2010  133.9640 O   0  0  0  0  0  0  0  0  0  0  0  0
  142.3630  153.4060  133.3630 N   0  0  0  0  0  0  0  0  0  0  0  0
  141.3130  154.3160  133.7300 C   0  0  0  0  0  0  0  0  0  0  0  0
  141.3700  154.9350  134.8290 O   0  0  0  0  0  0  0  0  0  0  0  0
  140.2240  154.5010  132.8730 O   0  0  0  0  0  0  0  0  0  0  0  0
  139.4150  155.6720  132.9030 C   0  0  0  0  0  0  0  0  0  0  0  0
  143.6630  153.7160  133.1520 C   0  0  0  0  0  0  0  0  0  0  0  0
  144.2810  154.9690  133.2210 C   0  0  0  0  0  0  0  0  0  0  0  0
  145.6940  157.4750  133.6860 C   0  0  0  0  0  0  0  0  0  0  0  0
  146.1280  158.8070  133.0360 C   0  0  0  0  0  0  0  0  0  0  0  0
  150.1865  160.3325  131.8467 H   0  0  0  0  0  0  0  0  0  0  0  0
  149.1909  159.3206  130.7460 H   0  0  0  0  0  0  0  0  0  0  0  0
  148.9963  161.1063  130.7460 H   0  0  0  0  0  0  0  0  0  0  0  0
  148.5893  160.2628  133.4366 H   0  0  0  0  0  0  0  0  0  0  0  0
  147.3562  160.8702  132.2601 H   0  0  0  0  0  0  0  0  0  0  0  0
  149.3702  157.8521  132.6452 H   0  0  0  0  0  0  0  0  0  0  0  0
  148.3898  157.9395  134.1424 H   0  0  0  0  0  0  0  0  0  0  0  0
  147.9515  156.1421  131.7040 H   0  0  0  0  0  0  0  0  0  0  0  0
  148.3117  155.6521  133.4064 H   0  0  0  0  0  0  0  0  0  0  0  0
  147.4841  153.9241  132.5113 H   0  0  0  0  0  0  0  0  0  0  0  0
  146.3183  151.6977  132.4338 H   0  0  0  0  0  0  0  0  0  0  0  0
  143.7711  150.4498  132.7771 H   0  0  0  0  0  0  0  0  0  0  0  0
  139.8630  152.5560  132.0010 H   0  0  0  0  0  0  0  0  0  0  0  0
  138.9580  151.1730  132.7030 H   0  0  0  0  0  0  0  0  0  0  0  0
  139.2190  155.9556  133.9476 H   0  0  0  0  0  0  0  0  0  0  0  0
  139.9394  156.4931  132.3923 H   0  0  0  0  0  0  0  0  0  0  0  0
  138.4615  155.4721  132.3923 H   0  0  0  0  0  0  0  0  0  0  0  0
  143.6964  155.8719  133.4513 H   0  0  0  0  0  0  0  0  0  0  0  0
  144.6050  157.3643  133.5771 H   0  0  0  0  0  0  0  0  0  0  0  0
  145.9856  157.5019  134.7463 H   0  0  0  0  0  0  0  0  0  0  0  0
  145.4008  159.0601  132.2504 H   0  0  0  0  0  0  0  0  0  0  0  0
  146.1634  159.5544  133.8423 H   0  0  0  0  0  0  0  0  0  0  0  0
  1  2  1  0
  2  3  1  0
  3  4  1  0
  4  5  1  0
  5  6  1  0
  6  7  1  0
  7  8  2  0
  8  9  1  0
  9 10  2  0
 10 11  1  0
 11 12  2  0
 12 13  1  0
 13 14  1  0
 13 15  2  0
 12 16  1  0
 16 17  1  0
 17 18  2  0
 17 19  1  0
 19 20  1  0
 16 21  1  0
 21 22  2  0
  6 23  1  0
 23 24  1  0
 24  3  1  0
 22  7  1  0
 21 10  1  0
  1 25  1  0
  1 26  1  0
  1 27  1  0
  2 28  1  0
  2 29  1  0
  4 30  1  0
  4 31  1  0
  5 32  1  0
  5 33  1  0
  8 34  1  0
  9 35  1  0
 11 36  1  0
 14 37  1  0
 14 38  1  0
 20 39  1  0
 20 40  1  0
 20 41  1  0
 22 42  1  0
 23 43  1  0
 23 44  1  0
 24 45  1  0
 24 46  1  0
M  END
>  <UniqueID>  (7) 
7

>  <SMILES>  (7) 
CCN1CCN(c2ccc3cc(C(N)=O)n(C(=O)OC)c3c2)CC1

>  <Energy>  (7) 
91.36264994947585

>  <Genealogy>  (7) 
CCN1CCN(c2ccc3cc(C(N)=O)n(C(=O)OC)c3c2)CC1 (3D coordinates assigned)
CCN1CCN(c2ccc3cc(C(N)=O)n(C(=O)OC)c3c2)CC1 (nonaromatic ring conformer: 91.36264994947585 kcal/mol)

>  <smiles>  (7) 
CCN1CCN(c2ccc3cc(C(N)=O)n(C(=O)OC)c3c2)CC1

>  <score_type>  (7) 
oracle

>  <origin>  (7) 
adg

>  <m_score__min__energy>  (7) 
-7.7000000000000002

>  <m_primary>  (7) 
energy

$$$$
7:0
     RDKit          3D

 23 24  0  0  0  0  0  0  0  0999 V2000
  144.6250  156.6860  134.3440 N   0  0  0  0  0  0  0  0  0  0  0  0
  146.0420  156.6120  134.4760 C   0  0  0  0  0  0  0  0  0  0  0  0
  146.5430  155.8160  135.3130 O   0  0  0  0  0  0  0  0  0  0  0  0
  146.9050  157.4340  133.6020 C   0  0  0  0  0  0  0  0  0  0  0  0
  148.1850  157.0480  133.2070 C   0  0  0  0  0  0  0  0  0  0  0  0
  148.6810  158.1110  132.4890 C   0  0  0  0  0  0  0  0  0  0  0  0
  149.9090  158.2660  131.8530 C   0  0  0  0  0  0  0  0  0  0  0  0
  150.1460  159.4650  131.1590 C   0  0  0  0  0  0  0  0  0  0  0  0
  149.1550  160.4740  131.1100 C   0  0  0  0  0  0  0  0  0  0  0  0
  149.4040  161.6840  130.3900 N   0  0  0  0  0  0  0  0  0  0  0  0
  147.9210  160.2840  131.7650 C   0  0  0  0  0  0  0  0  0  0  0  0
  147.7180  159.0870  132.4640 C   0  0  0  0  0  0  0  0  0  0  0  0
  146.6190  158.6860  133.1410 N   0  0  0  0  0  0  0  0  0  0  0  0
  145.3830  159.4080  133.2700 C   0  0  0  0  0  0  0  0  0  0  0  0
  144.3570  159.0310  132.6450 O   0  0  0  0  0  0  0  0  0  0  0  0
  145.3000  160.5130  134.1080 O   0  0  0  0  0  0  0  0  0  0  0  0
  144.1400  157.6070  134.2560 H   0  0  0  0  0  0  0  0  0  0  0  0
  148.6908  156.0955  133.4236 H   0  0  0  0  0  0  0  0  0  0  0  0
  150.6713  157.4739  131.8922 H   0  0  0  0  0  0  0  0  0  0  0  0
  151.1088  159.6202  130.6502 H   0  0  0  0  0  0  0  0  0  0  0  0
  148.6340  162.1670  129.8740 H   0  0  0  0  0  0  0  0  0  0  0  0
  150.3590  162.1060  130.3660 H   0  0  0  0  0  0  0  0  0  0  0  0
  147.1379  161.0556  131.7281 H   0  0  0  0  0  0  0  0  0  0  0  0
  1  2  1  0
  2  3  2  0
  2  4  1  0
  4  5  2  0
  5  6  1  0
  6  7  2  0
  7  8  1  0
  8  9  2  0
  9 10  1  0
  9 11  1  0
 11 12  2  0
 12 13  1  0
 13 14  1  0
 14 15  2  0
 14 16  1  0
 13  4  1  0
 12  6  1  0
  1 17  1  0
  5 18  1  0
  7 19  1  0
  8 20  1  0
 10 21  1  0
 10 22  1  0
 11 23  1  0
M  CHG  2   1  -1  16  -1
M  END
>  <UniqueID>  (8) 
8

>  <SMILES>  (8) 
[NH-]C(=O)c1cc2ccc(N)cc2n1C(=O)[O-]

>  <Energy>  (8) 
62.23202565673886

>  <Genealogy>  (8) 
[NH-]C(=O)c1cc2ccc(N)cc2n1C(=O)[O-] (protonated)
[NH-]C(=O)c1cc2ccc(N)cc2n1C(=O)[O-] (3D coordinates assigned)
[NH-]C(=O)c1cc2ccc(N)cc2n1C(=O)[O-] (optimized conformer: 62.23202565673886 kcal/mol)

>  <smiles>  (8) 
NC(=O)c1cc2ccc(N)cc2n1C(=O)O

>  <score_type>  (8) 
oracle

>  <origin>  (8) 
adg

>  <m_score__min__energy>  (8) 
-5.5599999999999996

>  <m_primary>  (8) 
energy

$$$$
8:0
     RDKit          3D

 45 46  0  0  0  0  0  0  0  0999 V2000
  138.1290  160.0490  131.1040 C   0  0  0  0  0  0  0  0  0  0  0  0
  139.4680  159.3330  131.0290 C   0  0  0  0  0  0  0  0  0  0  0  0
  140.1320  159.4750  132.2610 O   0  0  0  0  0  0  0  0  0  0  0  0
  139.8080  158.1020  133.2230 P   0  0  0  0  0  0  0  0  0  0  0  0
  138.3950  158.2360  133.7440 O   0  0  0  0  0  0  0  0  0  0  0  0
  140.9230  158.1010  134.6760 C   0  0  0  0  0  0  0  0  0  0  0  0
  142.2420  158.7210  134.3120 C   0  0  0  0  0  0  0  0  0  0  0  0
  142.3420  160.1220  134.1260 C   0  0  0  0  0  0  0  0  0  0  0  0
  143.5630  160.7100  133.7580 C   0  0  0  0  0  0  0  0  0  0  0  0
  144.6590  159.8730  133.5690 C   0  0  0  0  0  0  0  0  0  0  0  0
  145.9580  160.1790  133.2330 C   0  0  0  0  0  0  0  0  0  0  0  0
  146.6250  158.9570  133.1870 C   0  0  0  0  0  0  0  0  0  0  0  0
  148.0370  158.8170  132.7750 C   0  0  0  0  0  0  0  0  0  0  0  0
  148.3870  158.1220  131.5820 N   0  0  0  0  0  0  0  0  0  0  0  0
  148.9440  159.3610  133.4600 O   0  0  0  0  0  0  0  0  0  0  0  0
  145.7750  157.9350  133.4920 N   0  0  0  0  0  0  0  0  0  0  0  0
  146.0960  156.5440  133.6470 C   0  0  0  0  0  0  0  0  0  0  0  0
  145.7470  155.9310  134.6920 O   0  0  0  0  0  0  0  0  0  0  0  0
  146.8140  155.8820  132.6480 O   0  0  0  0  0  0  0  0  0  0  0  0
  148.0480  155.2190  132.9010 C   0  0  0  0  0  0  0  0  0  0  0  0
  144.5740  158.5130  133.7200 C   0  0  0  0  0  0  0  0  0  0  0  0
  143.3750  157.9030  134.1050 C   0  0  0  0  0  0  0  0  0  0  0  0
  139.8630  156.6870  132.2590 O   0  0  0  0  0  0  0  0  0  0  0  0
  139.4290  155.5770  133.0060 C   0  0  0  0  0  0  0  0  0  0  0  0
  140.6300  154.7130  133.3540 C   0  0  0  0  0  0  0  0  0  0  0  0
  137.8512  160.1976  132.1579 H   0  0  0  0  0  0  0  0  0  0  0  0
  138.2070  161.0258  130.6042 H   0  0  0  0  0  0  0  0  0  0  0  0
  137.3600  159.4417  130.6042 H   0  0  0  0  0  0  0  0  0  0  0  0
  139.3044  158.2657  130.8189 H   0  0  0  0  0  0  0  0  0  0  0  0
  140.0787  159.7693  130.2248 H   0  0  0  0  0  0  0  0  0  0  0  0
  140.4611  158.6790  135.4900 H   0  0  0  0  0  0  0  0  0  0  0  0
  141.0895  157.0639  135.0026 H   0  0  0  0  0  0  0  0  0  0  0  0
  141.4544  160.7554  134.2713 H   0  0  0  0  0  0  0  0  0  0  0  0
  143.6506  161.7982  133.6233 H   0  0  0  0  0  0  0  0  0  0  0  0
  146.3799  161.1766  133.0415 H   0  0  0  0  0  0  0  0  0  0  0  0
  148.1640  157.1100  131.4630 H   0  0  0  0  0  0  0  0  0  0  0  0
  148.2035  155.1355  133.9867 H   0  0  0  0  0  0  0  0  0  0  0  0
  148.0220  154.2134  132.4559 H   0  0  0  0  0  0  0  0  0  0  0  0
  148.8721  155.7958  132.4559 H   0  0  0  0  0  0  0  0  0  0  0  0
  143.3161  156.8133  134.2431 H   0  0  0  0  0  0  0  0  0  0  0  0
  138.9430  155.9221  133.9305 H   0  0  0  0  0  0  0  0  0  0  0  0
  138.7089  154.9912  132.4159 H   0  0  0  0  0  0  0  0  0  0  0  0
  140.7270  154.6432  134.4475 H   0  0  0  0  0  0  0  0  0  0  0  0
  140.4916  153.7061  132.9332 H   0  0  0  0  0  0  0  0  0  0  0  0
  141.5406  155.1643  132.9332 H   0  0  0  0  0  0  0  0  0  0  0  0
  1  2  1  0
  2  3  1  0
  3  4  1  0
  4  5  2  0
  4  6  1  0
  6  7  1  0
  7  8  2  0
  8  9  1  0
  9 10  2  0
 10 11  1  0
 11 12  2  0
 12 13  1  0
 13 14  1  0
 13 15  2  0
 12 16  1  0
 16 17  1  0
 17 18  2  0
 17 19  1  0
 19 20  1  0
 16 21  1  0
 21 22  2  0
  4 23  1  0
 23 24  1  0
 24 25  1  0
 22  7  1  0
 21 10  1  0
  1 26  1  0
  1 27  1  0
  1 28  1  0
  2 29  1  0
  2 30  1  0
  6 31  1  0
  6 32  1  0
  8 33  1  0
  9 34  1  0
 11 35  1  0
 14 36  1  0
 20 37  1  0
 20 38  1  0
 20 39  1  0
 22 40  1  0
 24 41  1  0
 24 42  1  0
 25 43  1  0
 25 44  1  0
 25 45  1  0
M  CHG  1  14  -1
M  END
>  <UniqueID>  (9) 
9

>  <SMILES>  (9) 
CCOP(=O)(Cc1ccc2cc(C([NH-])=O)n(C(=O)OC)c2c1)OCC

>  <Energy>  (9) 
70.80423086583627

>  <Genealogy>  (9) 
CCOP(=O)(Cc1ccc2cc(C([NH-])=O)n(C(=O)OC)c2c1)OCC (protonated)
CCOP(=O)(Cc1ccc2cc(C([NH-])=O)n(C(=O)OC)c2c1)OCC (3D coordinates assigned)
CCOP(=O)(Cc1ccc2cc(C([NH-])=O)n(C(=O)OC)c2c1)OCC (optimized conformer: 70.80423086583627 kcal/mol)

>  <smiles>  (9) 
CCOP(=O)(Cc1ccc2cc(C(N)=O)n(C(=O)OC)c2c1)OCC

>  <score_type>  (9) 
oracle

>  <origin>  (9) 
adg

>  <m_score__min__energy>  (9) 
-6.4500000000000002

>  <m_primary>  (9) 
energy

$$$$
9:0
     RDKit          3D

 52 53  0  0  0  0  0  0  0  0999 V2000
  149.9100  150.7550  134.1640 C   0  0  0  0  0  0  0  0  0  0  0  0
  150.1160  151.1720  132.7100 C   0  0  0  0  0  0  0  0  0  0  0  0
  149.0440  152.1770  132.2630 C   0  0  0  0  0  0  0  0  0  0  0  0
  149.5880  153.6110  132.2350 C   0  0  0  0  0  0  0  0  0  0  0  0
  148.8270  154.4730  133.0800 O   0  0  0  0  0  0  0  0  0  0  0  0
  147.6870  154.0650  133.7810 C   0  0  0  0  0  0  0  0  0  0  0  0
  147.7400  153.8240  135.0180 O   0  0  0  0  0  0  0  0  0  0  0  0
  146.4040  153.8660  133.0400 C   0  0  0  0  0  0  0  0  0  0  0  0
  145.4600  155.0030  133.3140 C   0  0  0  0  0  0  0  0  0  0  0  0
  144.1070  154.7360  133.6460 C   0  0  0  0  0  0  0  0  0  0  0  0
  143.2110  155.7870  133.9000 C   0  0  0  0  0  0  0  0  0  0  0  0
  143.6940  157.0900  133.8140 C   0  0  0  0  0  0  0  0  0  0  0  0
  143.0330  158.2880  133.9570 C   0  0  0  0  0  0  0  0  0  0  0  0
  143.9910  159.2690  133.7190 C   0  0  0  0  0  0  0  0  0  0  0  0
  143.7160  160.7180  133.8190 C   0  0  0  0  0  0  0  0  0  0  0  0
  144.7950  161.6350  133.9950 N   0  0  0  0  0  0  0  0  0  0  0  0
  142.5400  161.1600  133.7180 O   0  0  0  0  0  0  0  0  0  0  0  0
  145.1970  158.7000  133.4400 N   0  0  0  0  0  0  0  0  0  0  0  0
  146.4110  159.3520  133.0340 C   0  0  0  0  0  0  0  0  0  0  0  0
  146.4140  160.1120  132.0290 O   0  0  0  0  0  0  0  0  0  0  0  0
  147.5980  159.0930  133.7260 O   0  0  0  0  0  0  0  0  0  0  0  0
  148.8850  159.3480  133.1680 C   0  0  0  0  0  0  0  0  0  0  0  0
  149.0790  158.5270  131.8910 C   0  0  0  0  0  0  0  0  0  0  0  0
  149.2390  159.3940  130.6300 C   0  0  0  0  0  0  0  0  0  0  0  0
  149.2330  160.8930  130.9310 C   0  0  0  0  0  0  0  0  0  0  0  0
  145.0000  157.3660  133.5040 C   0  0  0  0  0  0  0  0  0  0  0  0
  145.9130  156.3380  133.2380 C   0  0  0  0  0  0  0  0  0  0  0  0
  150.2980  151.5405  134.8292 H   0  0  0  0  0  0  0  0  0  0  0  0
  148.8365  150.6098  134.3553 H   0  0  0  0  0  0  0  0  0  0  0  0
  150.4470  149.8142  134.3553 H   0  0  0  0  0  0  0  0  0  0  0  0
  151.1080  151.6360  132.6069 H   0  0  0  0  0  0  0  0  0  0  0  0
  150.0391  150.2760  132.0765 H   0  0  0  0  0  0  0  0  0  0  0  0
  148.7001  151.9063  131.2538 H   0  0  0  0  0  0  0  0  0  0  0  0
  148.2151  152.1385  132.9851 H   0  0  0  0  0  0  0  0  0  0  0  0
  150.6329  153.6042  132.5786 H   0  0  0  0  0  0  0  0  0  0  0  0
  149.5187  153.9875  131.2038 H   0  0  0  0  0  0  0  0  0  0  0  0
  146.6120  153.8194  131.9608 H   0  0  0  0  0  0  0  0  0  0  0  0
  145.9394  152.9272  133.3758 H   0  0  0  0  0  0  0  0  0  0  0  0
  143.7561  153.6951  133.7051 H   0  0  0  0  0  0  0  0  0  0  0  0
  142.1607  155.5872  134.1587 H   0  0  0  0  0  0  0  0  0  0  0  0
  141.9723  158.4386  134.2065 H   0  0  0  0  0  0  0  0  0  0  0  0
  145.6200  161.6190  133.3550 H   0  0  0  0  0  0  0  0  0  0  0  0
  148.9718  160.4182  132.9288 H   0  0  0  0  0  0  0  0  0  0  0  0
  149.6562  159.0630  133.8988 H   0  0  0  0  0  0  0  0  0  0  0  0
  149.9815  157.9088  132.0068 H   0  0  0  0  0  0  0  0  0  0  0  0
  148.1740  157.9167  131.7548 H   0  0  0  0  0  0  0  0  0  0  0  0
  150.1933  159.1373  130.1469 H   0  0  0  0  0  0  0  0  0  0  0  0
  148.3789  159.1862  129.9765 H   0  0  0  0  0  0  0  0  0  0  0  0
  149.2324  161.0483  132.0200 H   0  0  0  0  0  0  0  0  0  0  0  0
  150.1293  161.3582  130.4948 H   0  0  0  0  0  0  0  0  0  0  0  0
  148.3330  161.3510  130.4948 H   0  0  0  0  0  0  0  0  0  0  0  0
  146.9570  156.5650  132.9764 H   0  0  0  0  0  0  0  0  0  0  0  0
  1  2  1  0
  2  3  1  0
  3  4  1  0
  4  5  1  0
  5  6  1  0
  6  7  2  0
  6  8  1  0
  8  9  1  0
  9 10  2  0
 10 11  1  0
 11 12  2  0
 12 13  1  0
 13 14  2  0
 14 15  1  0
 15 16  1  0
 15 17  2  0
 14 18  1  0
 18 19  1  0
 19 20  2  0
 19 21  1  0
 21 22  1  0
 22 23  1  0
 23 24  1  0
 24 25  1  0
 18 26  1  0
 26 27  2  0
 27  9  1  0
 26 12  1  0
  1 28  1  0
  1 29  1  0
  1 30  1  0
  2 31  1  0
  2 32  1  0
  3 33  1  0
  3 34  1  0
  4 35  1  0
  4 36  1  0
  8 37  1  0
  8 38  1  0
 10 39  1  0
 11 40  1  0
 13 41  1  0
 16 42  1  0
 22 43  1  0
 22 44  1  0
 23 45  1  0
 23 46  1  0
 24 47  1  0
 24 48  1  0
 25 49  1  0
 25 50  1  0
 25 51  1  0
 27 52  1  0
M  CHG  1  16  -1
M  END
>  <UniqueID>  (10) 
10

>  <SMILES>  (10) 
CCCCOC(=O)Cc1ccc2cc(C([NH-])=O)n(C(=O)OCCCC)c2c1

>  <Energy>  (10) 
72.67800675182143

>  <Genealogy>  (10) 
CCCCOC(=O)Cc1ccc2cc(C([NH-])=O)n(C(=O)OCCCC)c2c1 (protonated)
CCCCOC(=O)Cc1ccc2cc(C([NH-])=O)n(C(=O)OCCCC)c2c1 (3D coordinates assigned)
CCCCOC(=O)Cc1ccc2cc(C([NH-])=O)n(C(=O)OCCCC)c2c1 (optimized conformer: 72.67800675182143 kcal/mol)

>  <smiles>  (10) 
CCCCOC(=O)Cc1ccc2cc(C(N)=O)n(C(=O)OCCCC)c2c1

>  <score_type>  (10) 
oracle

>  <origin>  (10) 
adg

>  <m_score__min__energy>  (10) 
-7.5800000000000001

>  <m_primary>  (10) 
energy

$$$$
10:0
     RDKit          3D

 43 45  0  0  0  0  0  0  0  0999 V2000
  139.8590  151.4080  132.6040 N   0  0  0  0  0  0  0  0  0  0  0  0
  141.0160  151.2740  133.4320 C   0  0  0  0  0  0  0  0  0  0  0  0
  141.0180  150.4110  134.3490 O   0  0  0  0  0  0  0  0  0  0  0  0
  142.2160  152.1090  133.1950 C   0  0  0  0  0  0  0  0  0  0  0  0
  143.4930  151.5900  132.9940 C   0  0  0  0  0  0  0  0  0  0  0  0
  144.3220  152.6850  132.9090 C   0  0  0  0  0  0  0  0  0  0  0  0
  145.6970  152.7510  132.7040 C   0  0  0  0  0  0  0  0  0  0  0  0
  146.2910  154.0210  132.6340 C   0  0  0  0  0  0  0  0  0  0  0  0
  145.5130  155.1980  132.7630 C   0  0  0  0  0  0  0  0  0  0  0  0
  146.1630  156.4790  132.6730 N   0  0  0  0  0  0  0  0  0  0  0  0
  146.2840  157.3990  133.8080 C   0  0  0  0  0  0  0  0  0  0  0  0
  146.1770  158.8640  133.3570 C   0  0  0  0  0  0  0  0  0  0  0  0
  147.5070  159.4960  133.2000 N   0  0  0  0  0  0  0  0  0  0  0  0
  148.6000  158.5430  133.5100 C   0  0  0  0  0  0  0  0  0  0  0  0
  149.2330  157.9620  132.2320 C   0  0  0  0  0  0  0  0  0  0  0  0
  149.7870  158.9460  131.3700 O   0  0  0  0  0  0  0  0  0  0  0  0
  149.1460  160.2110  131.4610 C   0  0  0  0  0  0  0  0  0  0  0  0
  147.6640  160.1220  131.8650 C   0  0  0  0  0  0  0  0  0  0  0  0
  144.1150  155.0880  132.9720 C   0  0  0  0  0  0  0  0  0  0  0  0
  143.5520  153.8090  133.0570 C   0  0  0  0  0  0  0  0  0  0  0  0
  142.2530  153.4710  133.2330 N   0  0  0  0  0  0  0  0  0  0  0  0
  141.1450  154.3760  133.3640 C   0  0  0  0  0  0  0  0  0  0  0  0
  141.2210  155.3680  134.1350 O   0  0  0  0  0  0  0  0  0  0  0  0
  139.9720  154.1600  132.6510 O   0  0  0  0  0  0  0  0  0  0  0  0
  139.0340  150.7860  132.7550 H   0  0  0  0  0  0  0  0  0  0  0  0
  139.8000  152.1470  131.8710 H   0  0  0  0  0  0  0  0  0  0  0  0
  143.7781  150.5302  132.9192 H   0  0  0  0  0  0  0  0  0  0  0  0
  146.2995  151.8366  132.6001 H   0  0  0  0  0  0  0  0  0  0  0  0
  147.3766  154.1035  132.4767 H   0  0  0  0  0  0  0  0  0  0  0  0
  146.5700  156.7590  131.7520 H   0  0  0  0  0  0  0  0  0  0  0  0
  145.4799  157.1867  134.5279 H   0  0  0  0  0  0  0  0  0  0  0  0
  147.2712  157.2505  134.2699 H   0  0  0  0  0  0  0  0  0  0  0  0
  145.6505  158.9007  132.3919 H   0  0  0  0  0  0  0  0  0  0  0  0
  145.6275  159.4182  134.1321 H   0  0  0  0  0  0  0  0  0  0  0  0
  149.3771  159.0676  134.0852 H   0  0  0  0  0  0  0  0  0  0  0  0
  148.1734  157.7105  134.0887 H   0  0  0  0  0  0  0  0  0  0  0  0
  150.0338  157.2676  132.5261 H   0  0  0  0  0  0  0  0  0  0  0  0
  148.4278  157.4624  131.6734 H   0  0  0  0  0  0  0  0  0  0  0  0
  149.6755  160.8161  132.2116 H   0  0  0  0  0  0  0  0  0  0  0  0
  149.1810  160.6636  130.4590 H   0  0  0  0  0  0  0  0  0  0  0  0
  147.2384  161.1359  131.8922 H   0  0  0  0  0  0  0  0  0  0  0  0
  147.1389  159.4997  131.1254 H   0  0  0  0  0  0  0  0  0  0  0  0
  143.4874  155.9866  133.0652 H   0  0  0  0  0  0  0  0  0  0  0  0
  1  2  1  0
  2  3  2  0
  2  4  1  0
  4  5  2  0
  5  6  1  0
  6  7  2  0
  7  8  1  0
  8  9  2  0
  9 10  1  0
 10 11  1  0
 11 12  1  0
 12 13  1  0
 13 14  1  0
 14 15  1  0
 15 16  1  0
 16 17  1  0
 17 18  1  0
  9 19  1  0
 19 20  2  0
 20 21  1  0
 21 22  1  0
 22 23  2  0
 22 24  1  0
 21  4  1  0
 20  6  1  0
 18 13  1  0
  1 25  1  0
  1 26  1  0
  5 27  1  0
  7 28  1  0
  8 29  1  0
 10 30  1  0
 11 31  1  0
 11 32  1  0
 12 33  1  0
 12 34  1  0
 14 35  1  0
 14 36  1  0
 15 37  1  0
 15 38  1  0
 17 39  1  0
 17 40  1  0
 18 41  1  0
 18 42  1  0
 19 43  1  0
M  CHG  1  24  -1
M  END
>  <UniqueID>  (11) 
11

>  <SMILES>  (11) 
NC(=O)c1cc2ccc(NCCN3CCOCC3)cc2n1C(=O)[O-]

>  <Energy>  (11) 
96.04971838300368

>  <Genealogy>  (11) 
NC(=O)c1cc2ccc(NCCN3CCOCC3)cc2n1C(=O)[O-] (protonated)
NC(=O)c1cc2ccc(NCCN3CCOCC3)cc2n1C(=O)[O-] (3D coordinates assigned)
NC(=O)c1cc2ccc(NCCN3CCOCC3)cc2n1C(=O)[O-] (nonaromatic ring conformer: 96.04971838300368 kcal/mol)

>  <smiles>  (11) 
NC(=O)c1cc2ccc(NCCN3CCOCC3)cc2n1C(=O)O

>  <score_type>  (11) 
oracle

>  <origin>  (11) 
adg

>  <m_score__min__energy>  (11) 
-7.6600000000000001

>  <m_primary>  (11) 
energy

$$$$
11:0
     RDKit          3D

 59 61  0  0  0  0  0  0  0  0999 V2000
  144.7030  152.5330  132.9340 C   0  0  0  0  0  0  0  0  0  0  0  0
  146.1320  152.2330  132.6080 C   0  0  0  0  0  0  0  0  0  0  0  0
  146.4460  151.0760  132.2210 O   0  0  0  0  0  0  0  0  0  0  0  0
  147.1320  153.2630  132.6610 N   0  0  0  0  0  0  0  0  0  0  0  0
  148.4850  153.1270  132.5890 C   0  0  0  0  0  0  0  0  0  0  0  0
  149.2150  151.8740  132.3060 C   0  0  0  0  0  0  0  0  0  0  0  0
  149.0630  150.7520  133.1730 N   0  0  0  0  0  0  0  0  0  0  0  0
  149.9950  151.7930  131.3210 O   0  0  0  0  0  0  0  0  0  0  0  0
  149.1070  154.3660  132.7390 C   0  0  0  0  0  0  0  0  0  0  0  0
  148.0830  155.2710  132.8980 C   0  0  0  0  0  0  0  0  0  0  0  0
  148.1250  156.6480  133.0900 C   0  0  0  0  0  0  0  0  0  0  0  0
  146.9050  157.3300  133.2390 C   0  0  0  0  0  0  0  0  0  0  0  0
  145.6680  156.6310  133.2010 C   0  0  0  0  0  0  0  0  0  0  0  0
  144.4200  157.3410  133.3560 N   0  0  0  0  0  0  0  0  0  0  0  0
  144.4180  158.7540  133.7590 C   0  0  0  0  0  0  0  0  0  0  0  0
  143.1720  159.0850  134.5890 C   0  0  0  0  0  0  0  0  0  0  0  0
  141.9440  158.5800  133.9590 N   0  0  0  0  0  0  0  0  0  0  0  0
  140.6710  159.0410  134.4480 C   0  0  0  0  0  0  0  0  0  0  0  0
  139.6100  158.7470  133.8310 O   0  0  0  0  0  0  0  0  0  0  0  0
  140.6140  159.8150  135.6140 O   0  0  0  0  0  0  0  0  0  0  0  0
  140.6890  159.2650  136.9270 C   0  0  0  0  0  0  0  0  0  0  0  0
  140.1050  157.8520  136.9460 C   0  0  0  0  0  0  0  0  0  0  0  0
  141.2270  156.6470  137.8470 Si  0  0  0  0  0  4  0  0  0  0  0  0
  142.1300  157.5630  139.1990 C   0  0  0  0  0  0  0  0  0  0  0  0
  142.4790  155.9170  136.6680 C   0  0  0  0  0  0  0  0  0  0  0  0
  140.2180  155.2740  138.6120 C   0  0  0  0  0  0  0  0  0  0  0  0
  142.0240  157.6940  132.7900 C   0  0  0  0  0  0  0  0  0  0  0  0
  143.1610  156.6830  132.9700 C   0  0  0  0  0  0  0  0  0  0  0  0
  145.6730  155.2300  133.0000 C   0  0  0  0  0  0  0  0  0  0  0  0
  146.9020  154.5810  132.8440 C   0  0  0  0  0  0  0  0  0  0  0  0
  144.5739  152.5601  134.0261 H   0  0  0  0  0  0  0  0  0  0  0  0
  144.4267  153.5087  132.5078 H   0  0  0  0  0  0  0  0  0  0  0  0
  144.0577  151.7508  132.5078 H   0  0  0  0  0  0  0  0  0  0  0  0
  148.1150  150.4200  133.4590 H   0  0  0  0  0  0  0  0  0  0  0  0
  150.1869  154.5753  132.7317 H   0  0  0  0  0  0  0  0  0  0  0  0
  149.0835  157.1867  133.1242 H   0  0  0  0  0  0  0  0  0  0  0  0
  146.9076  158.4200  133.3871 H   0  0  0  0  0  0  0  0  0  0  0  0
  145.3160  158.9581  134.3606 H   0  0  0  0  0  0  0  0  0  0  0  0
  144.4123  159.3777  132.8529 H   0  0  0  0  0  0  0  0  0  0  0  0
  143.2755  158.6273  135.5839 H   0  0  0  0  0  0  0  0  0  0  0  0
  143.0922  160.1796  134.6626 H   0  0  0  0  0  0  0  0  0  0  0  0
  141.7415  159.2267  137.2446 H   0  0  0  0  0  0  0  0  0  0  0  0
  140.1103  159.9000  137.6139 H   0  0  0  0  0  0  0  0  0  0  0  0
  139.1289  157.8768  137.4527 H   0  0  0  0  0  0  0  0  0  0  0  0
  140.0014  157.5105  135.9055 H   0  0  0  0  0  0  0  0  0  0  0  0
  141.7799  157.2079  140.1795 H   0  0  0  0  0  0  0  0  0  0  0  0
  143.2108  157.3800  139.1072 H   0  0  0  0  0  0  0  0  0  0  0  0
  141.9316  158.6411  139.1072 H   0  0  0  0  0  0  0  0  0  0  0  0
  143.2901  155.4441  137.2411 H   0  0  0  0  0  0  0  0  0  0  0  0
  141.9896  155.1627  136.0344 H   0  0  0  0  0  0  0  0  0  0  0  0
  142.8944  156.7145  136.0344 H   0  0  0  0  0  0  0  0  0  0  0  0
  140.2715  155.3468  139.7083 H   0  0  0  0  0  0  0  0  0  0  0  0
  139.1704  155.3652  138.2891 H   0  0  0  0  0  0  0  0  0  0  0  0
  140.6179  154.3015  138.2891 H   0  0  0  0  0  0  0  0  0  0  0  0
  141.0722  157.1543  132.6772 H   0  0  0  0  0  0  0  0  0  0  0  0
  142.2205  158.2997  131.8930 H   0  0  0  0  0  0  0  0  0  0  0  0
  142.8789  155.9655  133.7546 H   0  0  0  0  0  0  0  0  0  0  0  0
  143.3217  156.1735  132.0084 H   0  0  0  0  0  0  0  0  0  0  0  0
  144.7305  154.6638  132.9672 H   0  0  0  0  0  0  0  0  0  0  0  0
  1  2  1  0
  2  3  2  0
  2  4  1  0
  4  5  1  0
  5  6  1  0
  6  7  1  0
  6  8  2  0
  5  9  2  0
  9 10  1  0
 10 11  2  0
 11 12  1  0
 12 13  2  0
 13 14  1  0
 14 15  1  0
 15 16  1  0
 16 17  1  0
 17 18  1  0
 18 19  2  0
 18 20  1  0
 20 21  1  0
 21 22  1  0
 22 23  1  0
 23 24  1  0
 23 25  1  0
 23 26  1  0
 17 27  1  0
 27 28  1  0
 13 29  1  0
 29 30  2  0
 30  4  1  0
 30 10  1  0
 28 14  1  0
  1 31  1  0
  1 32  1  0
  1 33  1  0
  7 34  1  0
  9 35  1  0
 11 36  1  0
 12 37  1  0
 15 38  1  0
 15 39  1  0
 16 40  1  0
 16 41  1  0
 21 42  1  0
 21 43  1  0
 22 44  1  0
 22 45  1  0
 24 46  1  0
 24 47  1  0
 24 48  1  0
 25 49  1  0
 25 50  1  0
 25 51  1  0
 26 52  1  0
 26 53  1  0
 26 54  1  0
 27 55  1  0
 27 56  1  0
 28 57  1  0
 28 58  1  0
 29 59  1  0
M  CHG  1   7  -1
M  END
>  <UniqueID>  (12) 
12

>  <SMILES>  (12) 
CC(=O)n1c(C([NH-])=O)cc2ccc(N3CCN(C(=O)OCC[Si](C)(C)C)CC3)cc21

>  <Energy>  (12) 
81.86404951324882

>  <Genealogy>  (12) 
CC(=O)n1c(C([NH-])=O)cc2ccc(N3CCN(C(=O)OCC[Si](C)(C)C)CC3)cc21 (protonated)
CC(=O)n1c(C([NH-])=O)cc2ccc(N3CCN(C(=O)OCC[Si](C)(C)C)CC3)cc21 (3D coordinates assigned)
CC(=O)n1c(C([NH-])=O)cc2ccc(N3CCN(C(=O)OCC[Si](C)(C)C)CC3)cc21 (nonaromatic ring conformer: 81.86404951324882 kcal/mol)

>  <smiles>  (12) 
CC(=O)n1c(C(N)=O)cc2ccc(N3CCN(C(=O)OCC[Si](C)(C)C)CC3)cc21

>  <score_type>  (12) 
oracle

>  <origin>  (12) 
adg

>  <m_score__min__energy>  (12) 
-8.6099999999999994

>  <m_primary>  (12) 
energy

$$$$
12:0
     RDKit          3D

 31 32  0  0  0  0  0  0  0  0999 V2000
  141.1590  159.3810  136.0060 C   0  0  0  0  0  0  0  0  0  0  0  0
  141.6250  158.4110  134.9280 C   0  0  0  0  0  0  0  0  0  0  0  0
  143.0480  158.4080  134.8340 O   0  0  0  0  0  0  0  0  0  0  0  0
  143.7410  158.4050  133.6190 C   0  0  0  0  0  0  0  0  0  0  0  0
  143.2460  157.8460  132.6020 O   0  0  0  0  0  0  0  0  0  0  0  0
  145.0380  159.0170  133.5370 N   0  0  0  0  0  0  0  0  0  0  0  0
  145.3360  160.3480  133.5420 C   0  0  0  0  0  0  0  0  0  0  0  0
  144.3850  161.4510  133.7940 C   0  0  0  0  0  0  0  0  0  0  0  0
  142.9780  161.2380  133.7260 N   0  0  0  0  0  0  0  0  0  0  0  0
  144.8210  162.5880  134.1200 O   0  0  0  0  0  0  0  0  0  0  0  0
  146.7030  160.5420  133.3590 C   0  0  0  0  0  0  0  0  0  0  0  0
  147.2400  159.2790  133.2510 C   0  0  0  0  0  0  0  0  0  0  0  0
  148.5590  158.8800  133.0610 C   0  0  0  0  0  0  0  0  0  0  0  0
  148.8240  157.5040  132.9650 C   0  0  0  0  0  0  0  0  0  0  0  0
  147.7710  156.5550  133.0350 C   0  0  0  0  0  0  0  0  0  0  0  0
  148.0720  155.0790  132.9680 C   0  0  0  0  0  0  0  0  0  0  0  0
  148.1090  154.5300  134.2380 F   0  0  0  0  0  0  0  0  0  0  0  0
  147.0880  154.4470  132.2330 F   0  0  0  0  0  0  0  0  0  0  0  0
  149.2980  154.8580  132.3650 F   0  0  0  0  0  0  0  0  0  0  0  0
  146.4460  157.0010  133.2520 C   0  0  0  0  0  0  0  0  0  0  0  0
  146.2140  158.3770  133.3610 C   0  0  0  0  0  0  0  0  0  0  0  0
  141.3647  158.9529  136.9982 H   0  0  0  0  0  0  0  0  0  0  0  0
  141.6975  160.3342  135.8991 H   0  0  0  0  0  0  0  0  0  0  0  0
  140.0783  159.5564  135.8991 H   0  0  0  0  0  0  0  0  0  0  0  0
  141.2775  157.3980  135.1790 H   0  0  0  0  0  0  0  0  0  0  0  0
  141.2073  158.7290  133.9614 H   0  0  0  0  0  0  0  0  0  0  0  0
  142.5760  160.2770  133.7990 H   0  0  0  0  0  0  0  0  0  0  0  0
  147.2397  161.5010  133.3109 H   0  0  0  0  0  0  0  0  0  0  0  0
  149.3699  159.6197  132.9882 H   0  0  0  0  0  0  0  0  0  0  0  0
  149.8599  157.1578  132.8340 H   0  0  0  0  0  0  0  0  0  0  0  0
  145.6169  156.2827  133.3332 H   0  0  0  0  0  0  0  0  0  0  0  0
  1  2  1  0
  2  3  1  0
  3  4  1  0
  4  5  2  0
  4  6  1  0
  6  7  1  0
  7  8  1  0
  8  9  1  0
  8 10  2  0
  7 11  2  0
 11 12  1  0
 12 13  2  0
 13 14  1  0
 14 15  2  0
 15 16  1  0
 16 17  1  0
 16 18  1  0
 16 19  1  0
 15 20  1  0
 20 21  2  0
 21  6  1  0
 21 12  1  0
  1 22  1  0
  1 23  1  0
  1 24  1  0
  2 25  1  0
  2 26  1  0
  9 27  1  0
 11 28  1  0
 13 29  1  0
 14 30  1  0
 20 31  1  0
M  CHG  1   9  -1
M  END
>  <UniqueID>  (13) 
13

>  <SMILES>  (13) 
CCOC(=O)n1c(C([NH-])=O)cc2ccc(C(F)(F)F)cc21

>  <Energy>  (13) 
67.190439842701

>  <Genealogy>  (13) 
CCOC(=O)n1c(C([NH-])=O)cc2ccc(C(F)(F)F)cc21 (protonated)
CCOC(=O)n1c(C([NH-])=O)cc2ccc(C(F)(F)F)cc21 (3D coordinates assigned)
CCOC(=O)n1c(C([NH-])=O)cc2ccc(C(F)(F)F)cc21 (optimized conformer: 67.190439842701 kcal/mol)

>  <smiles>  (13) 
CCOC(=O)n1c(C(N)=O)cc2ccc(C(F)(F)F)cc21

>  <score_type>  (13) 
oracle

>  <origin>  (13) 
adg

>  <m_score__min__energy>  (13) 
-5.4800000000000004

>  <m_primary>  (13) 
energy

$$$$
13:0
     RDKit          3D

 51 53  0  0  0  0  0  0  0  0999 V2000
  139.4420  156.3050  132.6070 C   0  0  0  0  0  0  0  0  0  0  0  0
  139.4650  157.8360  132.7460 C   0  0  0  0  0  0  0  0  0  0  0  0
  138.7070  158.4490  131.5490 C   0  0  0  0  0  0  0  0  0  0  0  0
  138.7740  158.2150  134.0700 C   0  0  0  0  0  0  0  0  0  0  0  0
  140.8460  158.2410  132.7160 O   0  0  0  0  0  0  0  0  0  0  0  0
  141.9240  157.5940  133.3490 C   0  0  0  0  0  0  0  0  0  0  0  0
  143.0760  157.6920  132.8410 O   0  0  0  0  0  0  0  0  0  0  0  0
  141.7710  156.8810  134.5810 N   0  0  0  0  0  0  0  0  0  0  0  0
  141.7190  157.3790  135.8430 C   0  0  0  0  0  0  0  0  0  0  0  0
  141.7170  158.8170  136.2080 C   0  0  0  0  0  0  0  0  0  0  0  0
  141.8660  159.7970  135.1780 N   0  0  0  0  0  0  0  0  0  0  0  0
  141.5790  159.1910  137.4070 O   0  0  0  0  0  0  0  0  0  0  0  0
  141.7580  156.3510  136.7820 C   0  0  0  0  0  0  0  0  0  0  0  0
  141.8820  155.1930  136.0520 C   0  0  0  0  0  0  0  0  0  0  0  0
  141.9930  153.8680  136.4710 C   0  0  0  0  0  0  0  0  0  0  0  0
  142.1210  152.8730  135.4810 C   0  0  0  0  0  0  0  0  0  0  0  0
  142.2000  153.2230  134.1180 C   0  0  0  0  0  0  0  0  0  0  0  0
  142.3920  152.1540  133.0730 C   0  0  0  0  0  0  0  0  0  0  0  0
  141.2420  151.1740  133.1130 C   0  0  0  0  0  0  0  0  0  0  0  0
  141.0270  150.5650  134.1550 O   0  0  0  0  0  0  0  0  0  0  0  0
  140.5260  150.8310  131.8860 N   0  0  1  0  0  0  0  0  0  0  0  0
  140.9510  149.4970  131.4290 C   0  0  0  0  0  0  0  0  0  0  0  0
  139.5850  148.8790  131.7100 C   0  0  2  0  0  0  0  0  0  0  0  0
  138.9910  148.3020  130.4570 C   0  0  0  0  0  0  0  0  0  0  0  0
  138.5580  149.0620  129.5470 O   0  0  0  0  0  0  0  0  0  0  0  0
  139.0850  146.9390  130.2240 O   0  0  0  0  0  0  0  0  0  0  0  0
  139.1550  150.2980  132.0900 C   0  0  0  0  0  0  0  0  0  0  0  0
  142.0980  154.5820  133.7270 C   0  0  0  0  0  0  0  0  0  0  0  0
  141.8840  155.5400  134.7200 C   0  0  0  0  0  0  0  0  0  0  0  0
  139.4351  155.8461  133.6067 H   0  0  0  0  0  0  0  0  0  0  0  0
  138.5392  156.0002  132.0574 H   0  0  0  0  0  0  0  0  0  0  0  0
  140.3353  155.9733  132.0574 H   0  0  0  0  0  0  0  0  0  0  0  0
  137.9017  159.1003  131.9196 H   0  0  0  0  0  0  0  0  0  0  0  0
  139.4044  159.0401  130.9372 H   0  0  0  0  0  0  0  0  0  0  0  0
  138.2748  157.6434  130.9372 H   0  0  0  0  0  0  0  0  0  0  0  0
  139.3909  157.8766  134.9155 H   0  0  0  0  0  0  0  0  0  0  0  0
  138.6508  159.3069  134.1199 H   0  0  0  0  0  0  0  0  0  0  0  0
  137.7870  157.7320  134.1199 H   0  0  0  0  0  0  0  0  0  0  0  0
  141.9140  159.5010  134.1800 H   0  0  0  0  0  0  0  0  0  0  0  0
  141.7015  156.4458  137.8764 H   0  0  0  0  0  0  0  0  0  0  0  0
  141.9811  153.6075  137.5396 H   0  0  0  0  0  0  0  0  0  0  0  0
  142.1596  151.8137  135.7748 H   0  0  0  0  0  0  0  0  0  0  0  0
  142.4366  152.6217  132.0784 H   0  0  0  0  0  0  0  0  0  0  0  0
  143.3297  151.6163  133.2770 H   0  0  0  0  0  0  0  0  0  0  0  0
  140.6090  151.5370  131.1000 H   0  0  0  0  0  0  0  0  0  0  0  0
  141.7601  149.0641  132.0356 H   0  0  0  0  0  0  0  0  0  0  0  0
  141.3826  149.3940  130.4225 H   0  0  0  0  0  0  0  0  0  0  0  0
  139.3908  148.0387  132.3927 H   0  0  0  0  0  0  0  0  0  0  0  0
  138.7979  150.3870  133.1266 H   0  0  0  0  0  0  0  0  0  0  0  0
  138.3132  150.7644  131.5571 H   0  0  0  0  0  0  0  0  0  0  0  0
  142.1851  154.8738  132.6700 H   0  0  0  0  0  0  0  0  0  0  0  0
  1  2  1  0
  2  3  1  0
  2  4  1  0
  2  5  1  0
  5  6  1  0
  6  7  2  0
  6  8  1  0
  8  9  1  0
  9 10  1  0
 10 11  1  0
 10 12  2  0
  9 13  2  0
 13 14  1  0
 14 15  2  0
 15 16  1  0
 16 17  2  0
 17 18  1  0
 18 19  1  0
 19 20  2  0
 19 21  1  0
 21 22  1  0
 22 23  1  0
 23 24  1  0
 24 25  2  0
 24 26  1  0
 23 27  1  0
 17 28  1  0
 28 29  2  0
 29  8  1  0
 29 14  1  0
 27 21  1  0
  1 30  1  0
  1 31  1  0
  1 32  1  0
  3 33  1  0
  3 34  1  0
  3 35  1  0
  4 36  1  0
  4 37  1  0
  4 38  1  0
 11 39  1  0
 13 40  1  0
 15 41  1  0
 16 42  1  0
 18 43  1  0
 18 44  1  0
 21 45  1  6
 22 46  1  0
 22 47  1  0
 23 48  1  1
 27 49  1  0
 27 50  1  0
 28 51  1  0
M  CHG  3  11  -1  21   1  26  -1
M  END
>  <UniqueID>  (14) 
14

>  <SMILES>  (14) 
CC(C)(C)OC(=O)n1c(C([NH-])=O)cc2ccc(CC(=O)[NH+]3CC(C(=O)[O-])C3)cc21

>  <Energy>  (14) 
167.60912242231115

>  <Genealogy>  (14) 
CC(C)(C)OC(=O)n1c(C([NH-])=O)cc2ccc(CC(=O)[NH+]3CC(C(=O)[O-])C3)cc21 (protonated)
CC(C)(C)OC(=O)n1c(C([NH-])=O)cc2ccc(CC(=O)[NH+]3CC(C(=O)[O-])C3)cc21 (3D coordinates assigned)
CC(C)(C)OC(=O)n1c(C([NH-])=O)cc2ccc(CC(=O)[NH+]3CC(C(=O)[O-])C3)cc21 (nonaromatic ring conformer: 167.60912242231115 kcal/mol)

>  <smiles>  (14) 
CC(C)(C)OC(=O)n1c(C(N)=O)cc2ccc(CC(=O)N3CC(C(=O)O)C3)cc21

>  <score_type>  (14) 
oracle

>  <origin>  (14) 
adg

>  <m_score__min__energy>  (14) 
-8.1799999999999997

>  <m_primary>  (14) 
energy

$$$$
14:0
     RDKit          3D

 34 35  0  0  0  0  0  0  0  0999 V2000
  149.2850  159.7040  130.9460 C   0  0  0  0  0  0  0  0  0  0  0  0
  148.0710  159.4830  131.6530 O   0  0  0  0  0  0  0  0  0  0  0  0
  148.0260  158.8280  132.8870 C   0  0  0  0  0  0  0  0  0  0  0  0
  148.8580  159.1180  133.7900 O   0  0  0  0  0  0  0  0  0  0  0  0
  147.0270  157.8230  133.1280 N   0  0  0  0  0  0  0  0  0  0  0  0
  145.6930  158.0120  133.3390 C   0  0  0  0  0  0  0  0  0  0  0  0
  145.0220  159.3140  133.5230 C   0  0  0  0  0  0  0  0  0  0  0  0
  145.4760  160.4840  132.8410 N   0  0  0  0  0  0  0  0  0  0  0  0
  144.0650  159.4060  134.3370 O   0  0  0  0  0  0  0  0  0  0  0  0
  145.0300  156.7910  133.4150 C   0  0  0  0  0  0  0  0  0  0  0  0
  146.0070  155.8360  133.2570 C   0  0  0  0  0  0  0  0  0  0  0  0
  145.9060  154.4480  133.2430 C   0  0  0  0  0  0  0  0  0  0  0  0
  147.0780  153.7050  133.0270 C   0  0  0  0  0  0  0  0  0  0  0  0
  148.3170  154.3570  132.8130 C   0  0  0  0  0  0  0  0  0  0  0  0
  149.5700  153.5460  132.6020 C   0  0  0  0  0  0  0  0  0  0  0  0
  149.2480  152.1020  132.1940 C   0  0  0  0  0  0  0  0  0  0  0  0
  149.9990  151.1030  133.0240 C   0  0  0  0  0  0  0  0  0  0  0  0
  149.9350  151.1370  134.2420 O   0  0  0  0  0  0  0  0  0  0  0  0
  148.3820  155.7680  132.8390 C   0  0  0  0  0  0  0  0  0  0  0  0
  147.2030  156.4830  133.0810 C   0  0  0  0  0  0  0  0  0  0  0  0
  150.1052  159.8533  131.6636 H   0  0  0  0  0  0  0  0  0  0  0  0
  149.5052  158.8312  130.3138 H   0  0  0  0  0  0  0  0  0  0  0  0
  149.1835  160.5984  130.3138 H   0  0  0  0  0  0  0  0  0  0  0  0
  146.3660  160.4790  132.2960 H   0  0  0  0  0  0  0  0  0  0  0  0
  144.9640  161.3870  132.9520 H   0  0  0  0  0  0  0  0  0  0  0  0
  143.9535  156.6249  133.5687 H   0  0  0  0  0  0  0  0  0  0  0  0
  144.9381  153.9484  133.3964 H   0  0  0  0  0  0  0  0  0  0  0  0
  147.0333  152.6059  133.0240 H   0  0  0  0  0  0  0  0  0  0  0  0
  150.1695  154.0157  131.8083 H   0  0  0  0  0  0  0  0  0  0  0  0
  150.1255  153.5190  133.5510 H   0  0  0  0  0  0  0  0  0  0  0  0
  148.1690  151.9294  132.3205 H   0  0  0  0  0  0  0  0  0  0  0  0
  149.5518  151.9694  131.1451 H   0  0  0  0  0  0  0  0  0  0  0  0
  150.6119  150.3341  132.5308 H   0  0  0  0  0  0  0  0  0  0  0  0
  149.3351  156.2917  132.6733 H   0  0  0  0  0  0  0  0  0  0  0  0
  1  2  1  0
  2  3  1  0
  3  4  2  0
  3  5  1  0
  5  6  1  0
  6  7  1  0
  7  8  1  0
  7  9  2  0
  6 10  2  0
 10 11  1  0
 11 12  2  0
 12 13  1  0
 13 14  2  0
 14 15  1  0
 15 16  1  0
 16 17  1  0
 17 18  2  0
 14 19  1  0
 19 20  2  0
 20  5  1  0
 20 11  1  0
  1 21  1  0
  1 22  1  0
  1 23  1  0
  8 24  1  0
  8 25  1  0
 10 26  1  0
 12 27  1  0
 13 28  1  0
 15 29  1  0
 15 30  1  0
 16 31  1  0
 16 32  1  0
 17 33  1  0
 19 34  1  0
M  END
>  <UniqueID>  (15) 
15

>  <SMILES>  (15) 
COC(=O)n1c(C(N)=O)cc2ccc(CCC=O)cc21

>  <Energy>  (15) 
67.2632804123464

>  <Genealogy>  (15) 
COC(=O)n1c(C(N)=O)cc2ccc(CCC=O)cc21 (3D coordinates assigned)
COC(=O)n1c(C(N)=O)cc2ccc(CCC=O)cc21 (optimized conformer: 67.2632804123464 kcal/mol)

>  <smiles>  (15) 
COC(=O)n1c(C(N)=O)cc2ccc(CCC=O)cc21

>  <score_type>  (15) 
oracle

>  <origin>  (15) 
adg

>  <m_score__min__energy>  (15) 
-6.5899999999999999

>  <m_primary>  (15) 
energy

$$$$
15:0
     RDKit          3D

 46 47  0  0  0  0  0  0  0  0999 V2000
  149.4910  158.8120  132.2060 C   0  0  0  0  0  0  0  0  0  0  0  0
  148.2710  158.2310  132.9460 C   0  0  0  0  0  0  0  0  0  0  0  0
  148.0880  156.7400  132.6040 C   0  0  0  0  0  0  0  0  0  0  0  0
  148.4980  158.3670  134.4580 C   0  0  0  0  0  0  0  0  0  0  0  0
  147.0850  158.9740  132.6270 O   0  0  0  0  0  0  0  0  0  0  0  0
  146.5790  160.0780  133.3290 C   0  0  0  0  0  0  0  0  0  0  0  0
  147.3310  161.0310  133.6700 O   0  0  0  0  0  0  0  0  0  0  0  0
  145.1880  160.1110  133.6810 N   0  0  0  0  0  0  0  0  0  0  0  0
  144.4230  161.2070  133.9450 C   0  0  0  0  0  0  0  0  0  0  0  0
  144.9160  162.5900  134.1090 C   0  0  0  0  0  0  0  0  0  0  0  0
  145.9560  162.8900  135.0360 N   0  0  0  0  0  0  0  0  0  0  0  0
  144.3850  163.5250  133.4540 O   0  0  0  0  0  0  0  0  0  0  0  0
  143.0870  160.8440  134.1080 C   0  0  0  0  0  0  0  0  0  0  0  0
  143.0570  159.4790  133.9370 C   0  0  0  0  0  0  0  0  0  0  0  0
  141.9800  158.5980  133.9570 C   0  0  0  0  0  0  0  0  0  0  0  0
  142.2330  157.2420  133.6920 C   0  0  0  0  0  0  0  0  0  0  0  0
  143.5480  156.7930  133.4120 C   0  0  0  0  0  0  0  0  0  0  0  0
  143.8060  155.3440  133.0940 C   0  0  0  0  0  0  0  0  0  0  0  0
  144.2290  154.6120  134.3270 C   0  0  0  0  0  0  0  0  0  0  0  0
  143.5480  154.7170  135.3830 O   0  0  0  0  0  0  0  0  0  0  0  0
  145.3400  153.7700  134.2750 O   0  0  0  0  0  0  0  0  0  0  0  0
  146.8220  154.1640  135.0250 S   0  0  0  0  0  0  0  0  0  0  0  0
  148.1650  153.6740  133.9640 C   0  0  0  0  0  0  0  0  0  0  0  0
  146.8820  155.6500  135.2470 O   0  0  0  0  0  0  0  0  0  0  0  0
  146.9320  153.4570  136.3480 O   0  0  0  0  0  0  0  0  0  0  0  0
  144.6180  157.7170  133.4130 C   0  0  0  0  0  0  0  0  0  0  0  0
  144.3380  159.0600  133.6840 C   0  0  0  0  0  0  0  0  0  0  0  0
  150.2311  159.1644  132.9395 H   0  0  0  0  0  0  0  0  0  0  0  0
  149.9426  158.0323  131.5751 H   0  0  0  0  0  0  0  0  0  0  0  0
  149.1703  159.6541  131.5751 H   0  0  0  0  0  0  0  0  0  0  0  0
  148.0164  156.1566  133.5338 H   0  0  0  0  0  0  0  0  0  0  0  0
  147.1670  156.6088  132.0170 H   0  0  0  0  0  0  0  0  0  0  0  0
  148.9499  156.3900  132.0170 H   0  0  0  0  0  0  0  0  0  0  0  0
  147.6759  157.8745  134.9980 H   0  0  0  0  0  0  0  0  0  0  0  0
  149.4520  157.8915  134.7298 H   0  0  0  0  0  0  0  0  0  0  0  0
  148.5288  159.4325  134.7298 H   0  0  0  0  0  0  0  0  0  0  0  0
  146.9590  162.8570  134.7490 H   0  0  0  0  0  0  0  0  0  0  0  0
  142.2374  161.5076  134.3268 H   0  0  0  0  0  0  0  0  0  0  0  0
  140.9616  158.9527  134.1737 H   0  0  0  0  0  0  0  0  0  0  0  0
  141.4022  156.5212  133.7019 H   0  0  0  0  0  0  0  0  0  0  0  0
  142.8855  154.8892  132.6993 H   0  0  0  0  0  0  0  0  0  0  0  0
  144.6086  155.2785  132.3446 H   0  0  0  0  0  0  0  0  0  0  0  0
  149.0222  153.3612  134.5783 H   0  0  0  0  0  0  0  0  0  0  0  0
  147.8434  152.8353  133.3291 H   0  0  0  0  0  0  0  0  0  0  0  0
  148.4591  154.5227  133.3291 H   0  0  0  0  0  0  0  0  0  0  0  0
  145.6467  157.3872  133.2054 H   0  0  0  0  0  0  0  0  0  0  0  0
  1  2  1  0
  2  3  1  0
  2  4  1  0
  2  5  1  0
  5  6  1  0
  6  7  2  0
  6  8  1  0
  8  9  1  0
  9 10  1  0
 10 11  1  0
 10 12  2  0
  9 13  2  0
 13 14  1  0
 14 15  2  0
 15 16  1  0
 16 17  2  0
 17 18  1  0
 18 19  1  0
 19 20  2  0
 19 21  1  0
 21 22  1  0
 22 23  1  0
 22 24  2  0
 22 25  2  0
 17 26  1  0
 26 27  2  0
 27  8  1  0
 27 14  1  0
  1 28  1  0
  1 29  1  0
  1 30  1  0
  3 31  1  0
  3 32  1  0
  3 33  1  0
  4 34  1  0
  4 35  1  0
  4 36  1  0
 11 37  1  0
 13 38  1  0
 15 39  1  0
 16 40  1  0
 18 41  1  0
 18 42  1  0
 23 43  1  0
 23 44  1  0
 23 45  1  0
 26 46  1  0
M  CHG  1  11  -1
M  END
>  <UniqueID>  (16) 
16

>  <SMILES>  (16) 
CC(C)(C)OC(=O)n1c(C([NH-])=O)cc2ccc(CC(=O)OS(C)(=O)=O)cc21

>  <Energy>  (16) 
71.06684966780558

>  <Genealogy>  (16) 
CC(C)(C)OC(=O)n1c(C([NH-])=O)cc2ccc(CC(=O)OS(C)(=O)=O)cc21 (protonated)
CC(C)(C)OC(=O)n1c(C([NH-])=O)cc2ccc(CC(=O)OS(C)(=O)=O)cc21 (3D coordinates assigned)
CC(C)(C)OC(=O)n1c(C([NH-])=O)cc2ccc(CC(=O)OS(C)(=O)=O)cc21 (optimized conformer: 71.06684966780558 kcal/mol)

>  <smiles>  (16) 
CC(C)(C)OC(=O)n1c(C(N)=O)cc2ccc(CC(=O)OS(C)(=O)=O)cc21

>  <score_type>  (16) 
oracle

>  <origin>  (16) 
adg

>  <m_score__min__energy>  (16) 
-8.2200000000000006

>  <m_primary>  (16) 
energy

$$$$
16:0
     RDKit          3D

 40 42  0  0  0  0  0  0  0  0999 V2000
  147.3870  155.2770  135.1210 C   0  0  0  0  0  0  0  0  0  0  0  0
  146.3130  155.7760  134.3330 O   0  0  0  0  0  0  0  0  0  0  0  0
  146.5130  156.5410  133.1800 C   0  0  0  0  0  0  0  0  0  0  0  0
  146.8120  155.9790  132.0900 O   0  0  0  0  0  0  0  0  0  0  0  0
  146.3640  157.9690  133.2340 N   0  0  0  0  0  0  0  0  0  0  0  0
  147.2900  158.9170  132.9110 C   0  0  0  0  0  0  0  0  0  0  0  0
  148.7060  158.6540  132.5680 C   0  0  0  0  0  0  0  0  0  0  0  0
  149.0740  157.4830  131.8370 N   0  0  0  0  0  0  0  0  0  0  0  0
  149.6000  159.4800  132.8920 O   0  0  0  0  0  0  0  0  0  0  0  0
  146.7450  160.1930  133.0390 C   0  0  0  0  0  0  0  0  0  0  0  0
  145.4500  159.9960  133.4570 C   0  0  0  0  0  0  0  0  0  0  0  0
  144.4500  160.9220  133.7300 C   0  0  0  0  0  0  0  0  0  0  0  0
  143.1910  160.4380  134.1190 C   0  0  0  0  0  0  0  0  0  0  0  0
  142.9430  159.0420  134.2220 C   0  0  0  0  0  0  0  0  0  0  0  0
  141.6370  158.5540  134.6120 N   0  0  0  0  0  0  0  0  0  0  0  0
  140.3910  158.9870  133.9960 C   0  0  0  0  0  0  0  0  0  0  0  0
  139.3030  158.0990  134.5850 C   0  0  0  0  0  0  0  0  0  0  0  0
  139.9040  157.4930  135.8590 C   0  0  2  0  0  0  0  0  0  0  0  0
  139.5010  158.2440  137.0510 N   0  0  0  0  0  0  0  0  0  0  0  0
  141.4180  157.5720  135.6660 C   0  0  0  0  0  0  0  0  0  0  0  0
  143.9920  158.1350  133.9310 C   0  0  0  0  0  0  0  0  0  0  0  0
  145.2430  158.6480  133.5660 C   0  0  0  0  0  0  0  0  0  0  0  0
  147.1428  155.3905  136.1875 H   0  0  0  0  0  0  0  0  0  0  0  0
  147.5459  154.2128  134.8924 H   0  0  0  0  0  0  0  0  0  0  0  0
  148.3028  155.8418  134.8924 H   0  0  0  0  0  0  0  0  0  0  0  0
  148.3710  156.7490  131.5990 H   0  0  0  0  0  0  0  0  0  0  0  0
  150.0700  157.3270  131.5650 H   0  0  0  0  0  0  0  0  0  0  0  0
  147.2447  161.1539  132.8465 H   0  0  0  0  0  0  0  0  0  0  0  0
  144.6395  162.0021  133.6438 H   0  0  0  0  0  0  0  0  0  0  0  0
  142.3841  161.1498  134.3476 H   0  0  0  0  0  0  0  0  0  0  0  0
  140.1934  160.0427  134.2336 H   0  0  0  0  0  0  0  0  0  0  0  0
  140.4318  158.9024  132.9000 H   0  0  0  0  0  0  0  0  0  0  0  0
  138.4113  158.6955  134.8281 H   0  0  0  0  0  0  0  0  0  0  0  0
  138.9874  157.3199  133.8755 H   0  0  0  0  0  0  0  0  0  0  0  0
  139.5558  156.4611  136.0135 H   0  0  0  0  0  0  0  0  0  0  0  0
  138.4550  158.2420  137.1060 H   0  0  0  0  0  0  0  0  0  0  0  0
  139.8070  159.2400  136.9590 H   0  0  0  0  0  0  0  0  0  0  0  0
  141.9058  157.8955  136.5973 H   0  0  0  0  0  0  0  0  0  0  0  0
  141.8422  156.5928  135.3992 H   0  0  0  0  0  0  0  0  0  0  0  0
  143.8270  157.0491  133.9906 H   0  0  0  0  0  0  0  0  0  0  0  0
  1  2  1  0
  2  3  1  0
  3  4  2  0
  3  5  1  0
  5  6  1  0
  6  7  1  0
  7  8  1  0
  7  9  2  0
  6 10  2  0
 10 11  1  0
 11 12  2  0
 12 13  1  0
 13 14  2  0
 14 15  1  0
 15 16  1  0
 16 17  1  0
 17 18  1  0
 18 19  1  0
 18 20  1  0
 14 21  1  0
 21 22  2  0
 22  5  1  0
 22 11  1  0
 20 15  1  0
  1 23  1  0
  1 24  1  0
  1 25  1  0
  8 26  1  0
  8 27  1  0
 10 28  1  0
 12 29  1  0
 13 30  1  0
 16 31  1  0
 16 32  1  0
 17 33  1  0
 17 34  1  0
 18 35  1  1
 19 36  1  0
 19 37  1  0
 20 38  1  0
 20 39  1  0
 21 40  1  0
M  END
>  <UniqueID>  (17) 
17

>  <SMILES>  (17) 
COC(=O)n1c(C(N)=O)cc2ccc(N3CC[C@H](N)C3)cc21

>  <Energy>  (17) 
79.55589937662417

>  <Genealogy>  (17) 
COC(=O)n1c(C(N)=O)cc2ccc(N3CC[C@H](N)C3)cc21 (3D coordinates assigned)
COC(=O)n1c(C(N)=O)cc2ccc(N3CC[C@H](N)C3)cc21 (nonaromatic ring conformer: 79.55589937662417 kcal/mol)

>  <smiles>  (17) 
COC(=O)n1c(C(N)=O)cc2ccc(N3CC[C@H](N)C3)cc21

>  <score_type>  (17) 
oracle

>  <origin>  (17) 
adg

>  <m_score__min__energy>  (17) 
-7.3099999999999996

>  <m_primary>  (17) 
energy

$$$$
17:0
     RDKit          3D

 37 38  0  0  0  0  0  0  0  0999 V2000
  138.9700  157.9140  134.4120 C   0  0  0  0  0  0  0  0  0  0  0  0
  139.3350  157.7160  135.7720 O   0  0  0  0  0  0  0  0  0  0  0  0
  140.3910  158.4060  136.3760 C   0  0  0  0  0  0  0  0  0  0  0  0
  140.5240  159.6490  136.2050 O   0  0  0  0  0  0  0  0  0  0  0  0
  141.3730  157.6620  137.2290 C   0  0  0  0  0  0  0  0  0  0  0  0
  142.0040  156.4730  136.4810 C   0  0  0  0  0  0  0  0  0  0  0  0
  141.9260  156.5950  134.9490 C   0  0  0  0  0  0  0  0  0  0  0  0
  142.9180  157.5800  134.3840 C   0  0  0  0  0  0  0  0  0  0  0  0
  142.4950  158.8790  134.0070 C   0  0  0  0  0  0  0  0  0  0  0  0
  143.4120  159.8090  133.4900 C   0  0  0  0  0  0  0  0  0  0  0  0
  144.7420  159.4160  133.3720 C   0  0  0  0  0  0  0  0  0  0  0  0
  145.8300  160.1140  132.9030 C   0  0  0  0  0  0  0  0  0  0  0  0
  146.9080  159.2390  133.0170 C   0  0  0  0  0  0  0  0  0  0  0  0
  148.3080  159.6120  132.7110 C   0  0  0  0  0  0  0  0  0  0  0  0
  149.3910  158.7770  133.1230 N   0  0  0  0  0  0  0  0  0  0  0  0
  148.5550  160.6580  132.0540 O   0  0  0  0  0  0  0  0  0  0  0  0
  146.5000  158.0440  133.5330 N   0  0  0  0  0  0  0  0  0  0  0  0
  147.2960  156.8680  133.7600 C   0  0  0  0  0  0  0  0  0  0  0  0
  147.9960  156.3850  132.8320 O   0  0  0  0  0  0  0  0  0  0  0  0
  147.2900  156.2450  135.0020 O   0  0  0  0  0  0  0  0  0  0  0  0
  145.1710  158.1690  133.7450 C   0  0  0  0  0  0  0  0  0  0  0  0
  144.2740  157.2140  134.2360 C   0  0  0  0  0  0  0  0  0  0  0  0
  138.0040  158.4380  134.3642 H   0  0  0  0  0  0  0  0  0  0  0  0
  139.7401  158.5181  133.9099 H   0  0  0  0  0  0  0  0  0  0  0  0
  138.8836  156.9391  133.9099 H   0  0  0  0  0  0  0  0  0  0  0  0
  142.1721  158.3531  137.5353 H   0  0  0  0  0  0  0  0  0  0  0  0
  140.8327  157.2658  138.1014 H   0  0  0  0  0  0  0  0  0  0  0  0
  143.0629  156.4030  136.7704 H   0  0  0  0  0  0  0  0  0  0  0  0
  141.4323  155.5762  136.7619 H   0  0  0  0  0  0  0  0  0  0  0  0
  142.1239  155.6067  134.5084 H   0  0  0  0  0  0  0  0  0  0  0  0
  140.9197  156.9625  134.6995 H   0  0  0  0  0  0  0  0  0  0  0  0
  141.4380  159.1618  134.1204 H   0  0  0  0  0  0  0  0  0  0  0  0
  143.0891  160.8162  133.1879 H   0  0  0  0  0  0  0  0  0  0  0  0
  145.8458  161.1447  132.5192 H   0  0  0  0  0  0  0  0  0  0  0  0
  149.2320  157.9330  133.7150 H   0  0  0  0  0  0  0  0  0  0  0  0
  150.3720  159.0290  132.8680 H   0  0  0  0  0  0  0  0  0  0  0  0
  144.6166  156.2027  134.5003 H   0  0  0  0  0  0  0  0  0  0  0  0
  1  2  1  0
  2  3  1  0
  3  4  2  0
  3  5  1  0
  5  6  1  0
  6  7  1  0
  7  8  1  0
  8  9  2  0
  9 10  1  0
 10 11  2  0
 11 12  1  0
 12 13  2  0
 13 14  1  0
 14 15  1  0
 14 16  2  0
 13 17  1  0
 17 18  1  0
 18 19  2  0
 18 20  1  0
 17 21  1  0
 21 22  2  0
 22  8  1  0
 21 11  1  0
  1 23  1  0
  1 24  1  0
  1 25  1  0
  5 26  1  0
  5 27  1  0
  6 28  1  0
  6 29  1  0
  7 30  1  0
  7 31  1  0
  9 32  1  0
 10 33  1  0
 12 34  1  0
 15 35  1  0
 15 36  1  0
 22 37  1  0
M  CHG  1  20  -1
M  END
>  <UniqueID>  (18) 
18

>  <SMILES>  (18) 
COC(=O)CCCc1ccc2cc(C(N)=O)n(C(=O)[O-])c2c1

>  <Energy>  (18) 
67.85482864818937

>  <Genealogy>  (18) 
COC(=O)CCCc1ccc2cc(C(N)=O)n(C(=O)[O-])c2c1 (protonated)
COC(=O)CCCc1ccc2cc(C(N)=O)n(C(=O)[O-])c2c1 (3D coordinates assigned)
COC(=O)CCCc1ccc2cc(C(N)=O)n(C(=O)[O-])c2c1 (optimized conformer: 67.85482864818937 kcal/mol)

>  <smiles>  (18) 
COC(=O)CCCc1ccc2cc(C(N)=O)n(C(=O)O)c2c1

>  <score_type>  (18) 
oracle

>  <origin>  (18) 
adg

>  <m_score__min__energy>  (18) 
-6.4900000000000002

>  <m_primary>  (18) 
energy

$$$$
18:0
     RDKit          3D

 51 53  0  0  0  0  0  0  0  0999 V2000
  144.3560  154.4500  130.9970 C   0  0  0  0  0  0  0  0  0  0  0  0
  144.7250  154.5190  132.4430 C   0  0  0  0  0  0  0  0  0  0  0  0
  145.6980  153.8360  132.9990 O   0  0  0  0  0  0  0  0  0  0  0  0
  145.7130  154.1970  134.2630 C   0  0  0  0  0  0  0  0  0  0  0  0
  146.5230  153.7400  135.1090 O   0  0  0  0  0  0  0  0  0  0  0  0
  144.7900  155.0900  134.5440 O   0  0  0  0  0  0  0  0  0  0  0  0
  144.1550  155.3170  133.4190 C   0  0  0  0  0  0  0  0  0  0  0  0
  143.0150  156.2760  133.2620 C   0  0  0  0  0  0  0  0  0  0  0  0
  143.4990  157.5570  132.8670 O   0  0  0  0  0  0  0  0  0  0  0  0
  144.0380  158.4830  133.7660 C   0  0  0  0  0  0  0  0  0  0  0  0
  143.3760  158.8550  134.7730 O   0  0  0  0  0  0  0  0  0  0  0  0
  145.3530  159.0100  133.5360 N   0  0  0  0  0  0  0  0  0  0  0  0
  145.7610  160.3080  133.6130 C   0  0  0  0  0  0  0  0  0  0  0  0
  144.9440  161.4500  134.0760 C   0  0  0  0  0  0  0  0  0  0  0  0
  143.5620  161.5480  133.7380 N   0  0  0  0  0  0  0  0  0  0  0  0
  145.4600  162.3230  134.8220 O   0  0  0  0  0  0  0  0  0  0  0  0
  147.1150  160.4140  133.3070 C   0  0  0  0  0  0  0  0  0  0  0  0
  147.5350  159.1270  133.0610 C   0  0  0  0  0  0  0  0  0  0  0  0
  148.8010  158.6420  132.7480 C   0  0  0  0  0  0  0  0  0  0  0  0
  148.9510  157.2560  132.5760 C   0  0  0  0  0  0  0  0  0  0  0  0
  147.8390  156.3840  132.7050 C   0  0  0  0  0  0  0  0  0  0  0  0
  148.0160  154.9550  132.5810 N   0  0  0  0  0  0  0  0  0  0  0  0
  149.4120  154.5870  132.2780 C   0  0  0  0  0  0  0  0  0  0  0  0
  149.6520  153.0620  132.2780 C   0  0  0  0  0  0  0  0  0  0  0  0
  148.6480  152.3490  133.1010 N   0  0  0  0  0  0  0  0  0  0  0  0
  149.3110  151.4390  134.0470 C   0  0  0  0  0  0  0  0  0  0  0  0
  147.7050  151.5870  132.2630 C   0  0  0  0  0  0  0  0  0  0  0  0
  146.5630  156.9200  132.9980 C   0  0  0  0  0  0  0  0  0  0  0  0
  146.4520  158.3000  133.2000 C   0  0  0  0  0  0  0  0  0  0  0  0
  143.2787  154.2486  130.9027 H   0  0  0  0  0  0  0  0  0  0  0  0
  144.5937  155.4082  130.5118 H   0  0  0  0  0  0  0  0  0  0  0  0
  144.9239  153.6425  130.5118 H   0  0  0  0  0  0  0  0  0  0  0  0
  142.3241  155.8964  132.4948 H   0  0  0  0  0  0  0  0  0  0  0  0
  142.4919  156.3717  134.2249 H   0  0  0  0  0  0  0  0  0  0  0  0
  142.9570  160.6970  133.6990 H   0  0  0  0  0  0  0  0  0  0  0  0
  147.7204  161.3316  133.2698 H   0  0  0  0  0  0  0  0  0  0  0  0
  149.6579  159.3229  132.6386 H   0  0  0  0  0  0  0  0  0  0  0  0
  149.9420  156.8418  132.3386 H   0  0  0  0  0  0  0  0  0  0  0  0
  147.7440  154.5100  133.4880 H   0  0  0  0  0  0  0  0  0  0  0  0
  147.3860  154.5630  131.8430 H   0  0  0  0  0  0  0  0  0  0  0  0
  149.6698  154.9816  131.2841 H   0  0  0  0  0  0  0  0  0  0  0  0
  150.0430  155.0175  133.0696 H   0  0  0  0  0  0  0  0  0  0  0  0
  149.5928  152.6919  131.2438 H   0  0  0  0  0  0  0  0  0  0  0  0
  150.6460  152.8715  132.7088 H   0  0  0  0  0  0  0  0  0  0  0  0
  149.0835  151.7513  135.0769 H   0  0  0  0  0  0  0  0  0  0  0  0
  148.9468  150.4136  133.8859 H   0  0  0  0  0  0  0  0  0  0  0  0
  150.3987  151.4714  133.8859 H   0  0  0  0  0  0  0  0  0  0  0  0
  147.0117  151.0268  132.9076 H   0  0  0  0  0  0  0  0  0  0  0  0
  147.1352  152.2813  131.6279 H   0  0  0  0  0  0  0  0  0  0  0  0
  148.2642  150.8842  131.6279 H   0  0  0  0  0  0  0  0  0  0  0  0
  145.6798  156.2678  133.0654 H   0  0  0  0  0  0  0  0  0  0  0  0
  1  2  1  0
  2  3  1  0
  3  4  1  0
  4  5  2  0
  4  6  1  0
  6  7  1  0
  7  8  1  0
  8  9  1  0
  9 10  1  0
 10 11  2  0
 10 12  1  0
 12 13  1  0
 13 14  1  0
 14 15  1  0
 14 16  2  0
 13 17  2  0
 17 18  1  0
 18 19  2  0
 19 20  1  0
 20 21  2  0
 21 22  1  0
 22 23  1  0
 23 24  1  0
 24 25  1  0
 25 26  1  0
 25 27  1  0
 21 28  1  0
 28 29  2  0
  7  2  2  0
 29 12  1  0
 29 18  1  0
  1 30  1  0
  1 31  1  0
  1 32  1  0
  8 33  1  0
  8 34  1  0
 15 35  1  0
 17 36  1  0
 19 37  1  0
 20 38  1  0
 22 39  1  0
 22 40  1  0
 23 41  1  0
 23 42  1  0
 24 43  1  0
 24 44  1  0
 26 45  1  0
 26 46  1  0
 26 47  1  0
 27 48  1  0
 27 49  1  0
 27 50  1  0
 28 51  1  0
M  CHG  2  15  -1  22   1
M  END
>  <UniqueID>  (19) 
19

>  <SMILES>  (19) 
Cc1oc(=O)oc1COC(=O)n1c(C([NH-])=O)cc2ccc([NH2+]CCN(C)C)cc21

>  <Energy>  (19) 
119.92775219748222

>  <Genealogy>  (19) 
Cc1oc(=O)oc1COC(=O)n1c(C([NH-])=O)cc2ccc([NH2+]CCN(C)C)cc21 (protonated)
Cc1oc(=O)oc1COC(=O)n1c(C([NH-])=O)cc2ccc([NH2+]CCN(C)C)cc21 (3D coordinates assigned)
Cc1oc(=O)oc1COC(=O)n1c(C([NH-])=O)cc2ccc([NH2+]CCN(C)C)cc21 (optimized conformer: 119.92775219748222 kcal/mol)

>  <smiles>  (19) 
Cc1oc(=O)oc1COC(=O)n1c(C(N)=O)cc2ccc(NCCN(C)C)cc21

>  <score_type>  (19) 
oracle

>  <origin>  (19) 
adg

>  <m_score__min__energy>  (19) 
-6.54

>  <m_primary>  (19) 
energy

$$$$
19:0
     RDKit          3D

 25 26  0  0  0  0  0  0  0  0999 V2000
  138.5490  157.8630  131.1010 N   0  0  0  0  0  0  0  0  0  0  0  0
  139.5590  158.7090  131.6510 C   0  0  0  0  0  0  0  0  0  0  0  0
  140.0460  159.6310  130.9420 O   0  0  0  0  0  0  0  0  0  0  0  0
  139.9950  158.5660  133.0530 C   0  0  0  0  0  0  0  0  0  0  0  0
  140.3500  159.6460  133.8580 C   0  0  0  0  0  0  0  0  0  0  0  0
  140.6220  159.1050  135.0920 C   0  0  0  0  0  0  0  0  0  0  0  0
  141.0240  159.7270  136.2700 C   0  0  0  0  0  0  0  0  0  0  0  0
  141.2630  158.9190  137.3930 C   0  0  0  0  0  0  0  0  0  0  0  0
  141.1260  157.5080  137.3150 C   0  0  0  0  0  0  0  0  0  0  0  0
  141.3510  156.6550  138.5380 C   0  0  0  0  0  0  0  0  0  0  0  0
  142.4260  155.8040  138.3490 F   0  0  0  0  0  0  0  0  0  0  0  0
  141.6150  157.4440  139.6440 F   0  0  0  0  0  0  0  0  0  0  0  0
  140.2170  155.9020  138.7830 F   0  0  0  0  0  0  0  0  0  0  0  0
  140.6940  156.9160  136.1050 C   0  0  0  0  0  0  0  0  0  0  0  0
  140.4410  157.7480  135.0070 C   0  0  0  0  0  0  0  0  0  0  0  0
  140.0570  157.4000  133.7570 N   0  0  0  0  0  0  0  0  0  0  0  0
  139.8840  156.0680  133.2460 C   0  0  0  0  0  0  0  0  0  0  0  0
  138.7330  155.6290  132.9830 O   0  0  0  0  0  0  0  0  0  0  0  0
  140.9850  155.2460  133.0400 O   0  0  0  0  0  0  0  0  0  0  0  0
  138.0110  157.2040  131.7050 H   0  0  0  0  0  0  0  0  0  0  0  0
  138.2780  157.9540  130.0960 H   0  0  0  0  0  0  0  0  0  0  0  0
  140.4017  160.7058  133.5680 H   0  0  0  0  0  0  0  0  0  0  0  0
  141.1507  160.8185  136.3199 H   0  0  0  0  0  0  0  0  0  0  0  0
  141.5599  159.3846  138.3444 H   0  0  0  0  0  0  0  0  0  0  0  0
  140.5598  155.8269  136.0282 H   0  0  0  0  0  0  0  0  0  0  0  0
  1  2  1  0
  2  3  2  0
  2  4  1  0
  4  5  2  0
  5  6  1  0
  6  7  2  0
  7  8  1  0
  8  9  2  0
  9 10  1  0
 10 11  1  0
 10 12  1  0
 10 13  1  0
  9 14  1  0
 14 15  2  0
 15 16  1  0
 16 17  1  0
 17 18  2  0
 17 19  1  0
 16  4  1  0
 15  6  1  0
  1 20  1  0
  1 21  1  0
  5 22  1  0
  7 23  1  0
  8 24  1  0
 14 25  1  0
M  CHG  1  19  -1
M  END
>  <UniqueID>  (20) 
20

>  <SMILES>  (20) 
NC(=O)c1cc2ccc(C(F)(F)F)cc2n1C(=O)[O-]

>  <Energy>  (20) 
66.3201138485788

>  <Genealogy>  (20) 
NC(=O)c1cc2ccc(C(F)(F)F)cc2n1C(=O)[O-] (protonated)
NC(=O)c1cc2ccc(C(F)(F)F)cc2n1C(=O)[O-] (3D coordinates assigned)
NC(=O)c1cc2ccc(C(F)(F)F)cc2n1C(=O)[O-] (optimized conformer: 66.3201138485788 kcal/mol)

>  <smiles>  (20) 
NC(=O)c1cc2ccc(C(F)(F)F)cc2n1C(=O)O

>  <score_type>  (20) 
oracle

>  <origin>  (20) 
adg

>  <m_score__min__energy>  (20) 
-5.4699999999999998

>  <m_primary>  (20) 
energy

$$$$
20:0
     RDKit          3D

 47 48  0  0  0  0  0  0  0  0999 V2000
  143.6960  160.8080  134.0960 C   0  0  0  0  0  0  0  0  0  0  0  0
  143.9320  159.4000  133.5610 C   0  0  0  0  0  0  0  0  0  0  0  0
  145.0320  159.3920  132.6510 O   0  0  0  0  0  0  0  0  0  0  0  0
  146.3660  159.5310  133.0510 C   0  0  0  0  0  0  0  0  0  0  0  0
  146.7500  160.5780  133.6390 O   0  0  0  0  0  0  0  0  0  0  0  0
  147.3000  158.4680  132.8020 N   0  0  0  0  0  0  0  0  0  0  0  0
  148.5370  158.5590  132.2340 C   0  0  0  0  0  0  0  0  0  0  0  0
  149.1170  159.7640  131.6040 C   0  0  0  0  0  0  0  0  0  0  0  0
  148.2890  160.8530  131.2020 N   0  0  0  0  0  0  0  0  0  0  0  0
  150.3530  159.8120  131.3740 O   0  0  0  0  0  0  0  0  0  0  0  0
  149.1710  157.3180  132.2420 C   0  0  0  0  0  0  0  0  0  0  0  0
  148.2760  156.4560  132.8320 C   0  0  0  0  0  0  0  0  0  0  0  0
  148.3900  155.0940  133.0950 C   0  0  0  0  0  0  0  0  0  0  0  0
  147.3150  154.4550  133.7320 C   0  0  0  0  0  0  0  0  0  0  0  0
  146.1570  155.1860  134.1020 C   0  0  0  0  0  0  0  0  0  0  0  0
  144.9890  154.4730  134.7280 C   0  0  0  0  0  0  0  0  0  0  0  0
  144.3100  153.6340  133.6960 C   0  0  0  0  0  0  0  0  0  0  0  0
  144.8060  153.5400  132.5380 O   0  0  0  0  0  0  0  0  0  0  0  0
  143.0900  153.0230  134.0010 O   0  0  0  0  0  0  0  0  0  0  0  0
  141.8430  153.5270  133.5300 C   0  0  0  0  0  0  0  0  0  0  0  0
  141.4230  152.7750  132.3930 O   0  0  0  0  0  0  0  0  0  0  0  0
  140.8830  151.4890  132.5050 C   0  0  0  0  0  0  0  0  0  0  0  0
  139.7070  151.2530  132.1170 O   0  0  0  0  0  0  0  0  0  0  0  0
  141.6970  150.3910  133.1170 C   0  0  0  0  0  0  0  0  0  0  0  0
  142.8820  150.0200  132.2280 C   0  0  0  0  0  0  0  0  0  0  0  0
  143.8680  151.0130  132.3030 O   0  0  0  0  0  0  0  0  0  0  0  0
  146.0710  156.5660  133.8080 C   0  0  0  0  0  0  0  0  0  0  0  0
  147.1530  157.1730  133.1600 C   0  0  0  0  0  0  0  0  0  0  0  0
  143.6994  160.7877  135.1958 H   0  0  0  0  0  0  0  0  0  0  0  0
  144.4949  161.4746  133.7391 H   0  0  0  0  0  0  0  0  0  0  0  0
  142.7234  161.1776  133.7391 H   0  0  0  0  0  0  0  0  0  0  0  0
  144.1517  158.7249  134.4013 H   0  0  0  0  0  0  0  0  0  0  0  0
  143.0284  159.0628  133.0320 H   0  0  0  0  0  0  0  0  0  0  0  0
  147.7310  161.3910  131.9020 H   0  0  0  0  0  0  0  0  0  0  0  0
  150.1737  157.0787  131.8582 H   0  0  0  0  0  0  0  0  0  0  0  0
  149.2947  154.5357  132.8123 H   0  0  0  0  0  0  0  0  0  0  0  0
  147.3709  153.3775  133.9463 H   0  0  0  0  0  0  0  0  0  0  0  0
  145.3466  153.8306  135.5462 H   0  0  0  0  0  0  0  0  0  0  0  0
  144.2783  155.2116  135.1273 H   0  0  0  0  0  0  0  0  0  0  0  0
  141.0886  153.4399  134.3258 H   0  0  0  0  0  0  0  0  0  0  0  0
  141.9588  154.5837  133.2473 H   0  0  0  0  0  0  0  0  0  0  0  0
  142.0732  150.7258  134.0950 H   0  0  0  0  0  0  0  0  0  0  0  0
  141.0560  149.5043  133.2305 H   0  0  0  0  0  0  0  0  0  0  0  0
  143.3040  149.0617  132.5650 H   0  0  0  0  0  0  0  0  0  0  0  0
  142.5380  149.9312  131.1870 H   0  0  0  0  0  0  0  0  0  0  0  0
  143.3920  151.8810  132.2070 H   0  0  0  0  0  0  0  0  0  0  0  0
  145.1779  157.1471  134.0811 H   0  0  0  0  0  0  0  0  0  0  0  0
  1  2  1  0
  2  3  1  0
  3  4  1  0
  4  5  2  0
  4  6  1  0
  6  7  1  0
  7  8  1  0
  8  9  1  0
  8 10  2  0
  7 11  2  0
 11 12  1  0
 12 13  2  0
 13 14  1  0
 14 15  2  0
 15 16  1  0
 16 17  1  0
 17 18  2  0
 17 19  1  0
 19 20  1  0
 20 21  1  0
 21 22  1  0
 22 23  2  0
 22 24  1  0
 24 25  1  0
 25 26  1  0
 15 27  1  0
 27 28  2  0
 28  6  1  0
 28 12  1  0
  1 29  1  0
  1 30  1  0
  1 31  1  0
  2 32  1  0
  2 33  1  0
  9 34  1  0
 11 35  1  0
 13 36  1  0
 14 37  1  0
 16 38  1  0
 16 39  1  0
 20 40  1  0
 20 41  1  0
 24 42  1  0
 24 43  1  0
 25 44  1  0
 25 45  1  0
 26 46  1  0
 27 47  1  0
M  CHG  1   9  -1
M  END
>  <UniqueID>  (21) 
21

>  <SMILES>  (21) 
CCOC(=O)n1c(C([NH-])=O)cc2ccc(CC(=O)OCOC(=O)CCO)cc21

>  <Energy>  (21) 
69.92055238298582

>  <Genealogy>  (21) 
CCOC(=O)n1c(C([NH-])=O)cc2ccc(CC(=O)OCOC(=O)CCO)cc21 (protonated)
CCOC(=O)n1c(C([NH-])=O)cc2ccc(CC(=O)OCOC(=O)CCO)cc21 (3D coordinates assigned)
CCOC(=O)n1c(C([NH-])=O)cc2ccc(CC(=O)OCOC(=O)CCO)cc21 (optimized conformer: 69.92055238298582 kcal/mol)

>  <smiles>  (21) 
CCOC(=O)n1c(C(N)=O)cc2ccc(CC(=O)OCOC(=O)CCO)cc21

>  <score_type>  (21) 
oracle

>  <origin>  (21) 
adg

>  <m_score__min__energy>  (21) 
-6.2400000000000002

>  <m_primary>  (21) 
energy

$$$$
21:0
     RDKit          3D

 43 45  0  0  0  0  0  0  0  0999 V2000
  143.2610  154.4060  132.9230 C   0  0  0  0  0  0  0  0  0  0  0  0
  142.5900  155.2430  133.8570 O   0  0  0  0  0  0  0  0  0  0  0  0
  141.4990  156.0510  133.5030 C   0  0  0  0  0  0  0  0  0  0  0  0
  140.4860  155.5230  132.9570 O   0  0  0  0  0  0  0  0  0  0  0  0
  141.5580  157.4810  133.7250 N   0  0  0  0  0  0  0  0  0  0  0  0
  140.5710  158.2670  134.2440 C   0  0  0  0  0  0  0  0  0  0  0  0
  139.1750  157.8640  134.4980 C   0  0  0  0  0  0  0  0  0  0  0  0
  138.4370  157.1260  133.5190 N   0  0  0  0  0  0  0  0  0  0  0  0
  138.6040  158.2380  135.5600 O   0  0  0  0  0  0  0  0  0  0  0  0
  141.0310  159.5550  134.4890 C   0  0  0  0  0  0  0  0  0  0  0  0
  142.3380  159.5560  134.0750 C   0  0  0  0  0  0  0  0  0  0  0  0
  143.2690  160.5890  134.0910 C   0  0  0  0  0  0  0  0  0  0  0  0
  144.5560  160.3250  133.6000 C   0  0  0  0  0  0  0  0  0  0  0  0
  144.8950  159.0440  133.1010 C   0  0  0  0  0  0  0  0  0  0  0  0
  146.2250  158.8290  132.5820 N   0  0  0  0  0  0  0  0  0  0  0  0
  147.3170  159.8100  132.6880 C   0  0  2  0  0  0  0  0  0  0  0  0
  147.9120  160.1140  131.3130 C   0  0  0  0  0  0  0  0  0  0  0  0
  149.3870  159.7450  131.4110 C   0  0  0  0  0  0  0  0  0  0  0  0
  149.5640  158.8850  132.5890 N   0  0  0  0  0  0  0  0  0  0  0  0
  149.4650  157.4610  132.2200 C   0  0  0  0  0  0  0  0  0  0  0  0
  148.4880  159.2660  133.5150 C   0  0  0  0  0  0  0  0  0  0  0  0
  143.9210  158.0130  133.1130 C   0  0  0  0  0  0  0  0  0  0  0  0
  142.6390  158.2990  133.6110 C   0  0  0  0  0  0  0  0  0  0  0  0
  143.8599  153.6589  133.4644 H   0  0  0  0  0  0  0  0  0  0  0  0
  142.5202  153.8941  132.2911 H   0  0  0  0  0  0  0  0  0  0  0  0
  143.9218  155.0177  132.2911 H   0  0  0  0  0  0  0  0  0  0  0  0
  138.8550  156.8960  132.5860 H   0  0  0  0  0  0  0  0  0  0  0  0
  137.4610  156.8080  133.7300 H   0  0  0  0  0  0  0  0  0  0  0  0
  140.4672  160.3942  134.9224 H   0  0  0  0  0  0  0  0  0  0  0  0
  143.0037  161.5841  134.4775 H   0  0  0  0  0  0  0  0  0  0  0  0
  145.3122  161.1239  133.6026 H   0  0  0  0  0  0  0  0  0  0  0  0
  146.4180  157.9070  132.1260 H   0  0  0  0  0  0  0  0  0  0  0  0
  146.8720  160.7006  133.1559 H   0  0  0  0  0  0  0  0  0  0  0  0
  147.4163  159.5102  130.5386 H   0  0  0  0  0  0  0  0  0  0  0  0
  147.7753  161.1697  131.0360 H   0  0  0  0  0  0  0  0  0  0  0  0
  149.6973  159.2046  130.5046 H   0  0  0  0  0  0  0  0  0  0  0  0
  150.0018  160.6523  131.5051 H   0  0  0  0  0  0  0  0  0  0  0  0
  149.4224  156.8479  133.1323 H   0  0  0  0  0  0  0  0  0  0  0  0
  148.5534  157.2986  131.6262 H   0  0  0  0  0  0  0  0  0  0  0  0
  150.3454  157.1740  131.6262 H   0  0  0  0  0  0  0  0  0  0  0  0
  148.1618  158.3864  134.0894 H   0  0  0  0  0  0  0  0  0  0  0  0
  148.8451  160.0320  134.2191 H   0  0  0  0  0  0  0  0  0  0  0  0
  144.1651  157.0077  132.7391 H   0  0  0  0  0  0  0  0  0  0  0  0
  1  2  1  0
  2  3  1  0
  3  4  2  0
  3  5  1  0
  5  6  1  0
  6  7  1  0
  7  8  1  0
  7  9  2  0
  6 10  2  0
 10 11  1  0
 11 12  2  0
 12 13  1  0
 13 14  2  0
 14 15  1  0
 15 16  1  0
 16 17  1  0
 17 18  1  0
 18 19  1  0
 19 20  1  0
 19 21  1  0
 14 22  1  0
 22 23  2  0
 23  5  1  0
 23 11  1  0
 21 16  1  0
  1 24  1  0
  1 25  1  0
  1 26  1  0
  8 27  1  0
  8 28  1  0
 10 29  1  0
 12 30  1  0
 13 31  1  0
 15 32  1  0
 16 33  1  1
 17 34  1  0
 17 35  1  0
 18 36  1  0
 18 37  1  0
 20 38  1  0
 20 39  1  0
 20 40  1  0
 21 41  1  0
 21 42  1  0
 22 43  1  0
M  END
>  <UniqueID>  (22) 
22

>  <SMILES>  (22) 
COC(=O)n1c(C(N)=O)cc2ccc(N[C@@H]3CCN(C)C3)cc21

>  <Energy>  (22) 
86.462666225811

>  <Genealogy>  (22) 
COC(=O)n1c(C(N)=O)cc2ccc(N[C@@H]3CCN(C)C3)cc21 (3D coordinates assigned)
COC(=O)n1c(C(N)=O)cc2ccc(N[C@@H]3CCN(C)C3)cc21 (nonaromatic ring conformer: 86.462666225811 kcal/mol)

>  <smiles>  (22) 
COC(=O)n1c(C(N)=O)cc2ccc(N[C@@H]3CCN(C)C3)cc21

>  <score_type>  (22) 
oracle

>  <origin>  (22) 
adg

>  <m_score__min__energy>  (22) 
-7.54

>  <m_primary>  (22) 
energy

$$$$
22:0
     RDKit          3D

 45 47  0  0  0  0  0  0  0  0999 V2000
  148.7440  149.8860  132.0970 C   0  0  0  0  0  0  0  0  0  0  0  0
  148.6090  150.9240  133.1360 N   0  0  0  0  0  0  0  0  0  0  0  0
  149.7450  150.8430  134.0780 C   0  0  0  0  0  0  0  0  0  0  0  0
  148.4060  152.2820  132.5460 C   0  0  0  0  0  0  0  0  0  0  0  0
  149.6010  153.2480  132.7750 C   0  0  0  0  0  0  0  0  0  0  0  0
  149.2400  154.6750  132.3510 C   0  0  0  0  0  0  0  0  0  0  0  0
  148.0460  155.1570  133.0640 N   0  0  0  0  0  0  0  0  0  0  0  0
  147.7910  156.5760  133.1530 C   0  0  0  0  0  0  0  0  0  0  0  0
  148.8510  157.5090  133.0060 C   0  0  0  0  0  0  0  0  0  0  0  0
  148.6090  158.8910  133.0750 C   0  0  0  0  0  0  0  0  0  0  0  0
  147.3040  159.3150  133.2950 C   0  0  0  0  0  0  0  0  0  0  0  0
  146.7910  160.5890  133.3810 C   0  0  0  0  0  0  0  0  0  0  0  0
  145.4240  160.4230  133.5980 C   0  0  0  0  0  0  0  0  0  0  0  0
  144.4970  161.5480  133.8380 C   0  0  0  0  0  0  0  0  0  0  0  0
  143.0910  161.3440  133.7250 N   0  0  0  0  0  0  0  0  0  0  0  0
  144.9340  162.6980  134.1050 O   0  0  0  0  0  0  0  0  0  0  0  0
  145.1040  159.0980  133.6390 N   0  0  0  0  0  0  0  0  0  0  0  0
  143.7970  158.5140  133.7690 C   0  0  0  0  0  0  0  0  0  0  0  0
  143.1830  158.5670  134.8660 O   0  0  0  0  0  0  0  0  0  0  0  0
  143.2090  157.8630  132.6920 O   0  0  0  0  0  0  0  0  0  0  0  0
  146.2670  158.4330  133.4530 C   0  0  0  0  0  0  0  0  0  0  0  0
  146.4750  157.0510  133.3720 C   0  0  0  0  0  0  0  0  0  0  0  0
  147.1870  154.2010  133.7810 C   0  0  0  0  0  0  0  0  0  0  0  0
  147.0390  152.9050  132.9730 C   0  0  0  0  0  0  0  0  0  0  0  0
  148.8718  148.9034  132.5747 H   0  0  0  0  0  0  0  0  0  0  0  0
  147.8398  149.8744  131.4707 H   0  0  0  0  0  0  0  0  0  0  0  0
  149.6211  150.1060  131.4707 H   0  0  0  0  0  0  0  0  0  0  0  0
  147.7440  150.6820  133.6750 H   0  0  0  0  0  0  0  0  0  0  0  0
  149.3675  150.8699  135.1108 H   0  0  0  0  0  0  0  0  0  0  0  0
  150.2926  149.9035  133.9121 H   0  0  0  0  0  0  0  0  0  0  0  0
  150.4204  151.6953  133.9121 H   0  0  0  0  0  0  0  0  0  0  0  0
  148.3663  152.1324  131.4569 H   0  0  0  0  0  0  0  0  0  0  0  0
  149.8663  153.2458  133.8425 H   0  0  0  0  0  0  0  0  0  0  0  0
  150.4511  152.9053  132.1668 H   0  0  0  0  0  0  0  0  0  0  0  0
  150.0858  155.3411  132.5768 H   0  0  0  0  0  0  0  0  0  0  0  0
  149.0242  154.6734  131.2724 H   0  0  0  0  0  0  0  0  0  0  0  0
  149.8750  157.1450  132.8359 H   0  0  0  0  0  0  0  0  0  0  0  0
  149.4280  159.6160  132.9584 H   0  0  0  0  0  0  0  0  0  0  0  0
  147.3425  161.5370  133.2965 H   0  0  0  0  0  0  0  0  0  0  0  0
  142.6210  160.5550  134.2220 H   0  0  0  0  0  0  0  0  0  0  0  0
  145.6344  156.3492  133.4762 H   0  0  0  0  0  0  0  0  0  0  0  0
  147.6380  153.9700  134.7573 H   0  0  0  0  0  0  0  0  0  0  0  0
  146.1926  154.6500  133.9209 H   0  0  0  0  0  0  0  0  0  0  0  0
  146.4977  152.1706  133.5876 H   0  0  0  0  0  0  0  0  0  0  0  0
  146.4944  153.1570  132.0511 H   0  0  0  0  0  0  0  0  0  0  0  0
  1  2  1  0
  2  3  1  0
  2  4  1  0
  4  5  1  0
  5  6  1  0
  6  7  1  0
  7  8  1  0
  8  9  2  0
  9 10  1  0
 10 11  2  0
 11 12  1  0
 12 13  2  0
 13 14  1  0
 14 15  1  0
 14 16  2  0
 13 17  1  0
 17 18  1  0
 18 19  2  0
 18 20  1  0
 17 21  1  0
 21 22  2  0
  7 23  1  0
 23 24  1  0
 24  4  1  0
 22  8  1  0
 21 11  1  0
  1 25  1  0
  1 26  1  0
  1 27  1  0
  2 28  1  0
  3 29  1  0
  3 30  1  0
  3 31  1  0
  4 32  1  0
  5 33  1  0
  5 34  1  0
  6 35  1  0
  6 36  1  0
  9 37  1  0
 10 38  1  0
 12 39  1  0
 15 40  1  0
 22 41  1  0
 23 42  1  0
 23 43  1  0
 24 44  1  0
 24 45  1  0
M  CHG  3   2   1  15  -1  20  -1
M  END
>  <UniqueID>  (23) 
23

>  <SMILES>  (23) 
C[NH+](C)C1CCN(c2ccc3cc(C([NH-])=O)n(C(=O)[O-])c3c2)CC1

>  <Energy>  (23) 
96.7496600198309

>  <Genealogy>  (23) 
C[NH+](C)C1CCN(c2ccc3cc(C([NH-])=O)n(C(=O)[O-])c3c2)CC1 (protonated)
C[NH+](C)C1CCN(c2ccc3cc(C([NH-])=O)n(C(=O)[O-])c3c2)CC1 (3D coordinates assigned)
C[NH+](C)C1CCN(c2ccc3cc(C([NH-])=O)n(C(=O)[O-])c3c2)CC1 (nonaromatic ring conformer: 96.7496600198309 kcal/mol)

>  <smiles>  (23) 
CN(C)C1CCN(c2ccc3cc(C(N)=O)n(C(=O)O)c3c2)CC1

>  <score_type>  (23) 
oracle

>  <origin>  (23) 
adg

>  <m_score__min__energy>  (23) 
-7.25

>  <m_primary>  (23) 
energy

$$$$
23:0
     RDKit          3D

 37 38  0  0  0  0  0  0  0  0999 V2000
  149.9560  160.4250  129.2490 C   0  0  0  0  0  0  0  0  0  0  0  0
  149.2290  159.5980  130.1490 O   0  0  0  0  0  0  0  0  0  0  0  0
  148.8980  160.0030  131.4470 C   0  0  0  0  0  0  0  0  0  0  0  0
  148.5910  161.2040  131.6810 O   0  0  0  0  0  0  0  0  0  0  0  0
  148.8550  158.9970  132.5640 C   0  0  2  0  0  0  0  0  0  0  0  0
  149.6370  157.7270  132.2110 C   0  0  0  0  0  0  0  0  0  0  0  0
  147.4230  158.6730  132.9340 C   0  0  0  0  0  0  0  0  0  0  0  0
  146.9740  157.3260  132.9940 C   0  0  0  0  0  0  0  0  0  0  0  0
  145.6500  157.0230  133.3530 C   0  0  0  0  0  0  0  0  0  0  0  0
  144.7940  158.0820  133.6390 C   0  0  0  0  0  0  0  0  0  0  0  0
  143.4780  158.0720  134.0360 C   0  0  0  0  0  0  0  0  0  0  0  0
  143.1270  159.4110  134.1920 C   0  0  0  0  0  0  0  0  0  0  0  0
  141.7600  159.8580  134.5310 C   0  0  0  0  0  0  0  0  0  0  0  0
  141.0320  160.7190  133.6580 N   0  0  0  0  0  0  0  0  0  0  0  0
  141.2090  159.4380  135.5820 O   0  0  0  0  0  0  0  0  0  0  0  0
  144.1900  160.2180  133.9100 N   0  0  0  0  0  0  0  0  0  0  0  0
  144.2680  161.6480  134.0280 C   0  0  0  0  0  0  0  0  0  0  0  0
  143.4890  162.3780  133.3570 O   0  0  0  0  0  0  0  0  0  0  0  0
  145.1930  162.2220  134.9050 O   0  0  0  0  0  0  0  0  0  0  0  0
  146.2330  163.0860  134.4640 C   0  0  0  0  0  0  0  0  0  0  0  0
  145.2020  159.3880  133.5710 C   0  0  0  0  0  0  0  0  0  0  0  0
  146.5200  159.7190  133.2350 C   0  0  0  0  0  0  0  0  0  0  0  0
  150.5768  161.1312  129.8199 H   0  0  0  0  0  0  0  0  0  0  0  0
  150.6013  159.7988  128.6155 H   0  0  0  0  0  0  0  0  0  0  0  0
  149.2522  160.9847  128.6155 H   0  0  0  0  0  0  0  0  0  0  0  0
  149.3445  159.4465  133.4405 H   0  0  0  0  0  0  0  0  0  0  0  0
  149.9493  157.2198  133.1358 H   0  0  0  0  0  0  0  0  0  0  0  0
  148.9967  157.0540  131.6219 H   0  0  0  0  0  0  0  0  0  0  0  0
  150.5262  157.9958  131.6219 H   0  0  0  0  0  0  0  0  0  0  0  0
  147.6723  156.5100  132.7562 H   0  0  0  0  0  0  0  0  0  0  0  0
  145.3010  155.9812  133.4063 H   0  0  0  0  0  0  0  0  0  0  0  0
  142.8373  157.1924  134.1966 H   0  0  0  0  0  0  0  0  0  0  0  0
  141.4800  161.5650  133.2410 H   0  0  0  0  0  0  0  0  0  0  0  0
  146.7485  163.5143  135.3363 H   0  0  0  0  0  0  0  0  0  0  0  0
  146.9514  162.5152  133.8573 H   0  0  0  0  0  0  0  0  0  0  0  0
  145.8035  163.8969  133.8573 H   0  0  0  0  0  0  0  0  0  0  0  0
  146.8460  160.7692  133.2057 H   0  0  0  0  0  0  0  0  0  0  0  0
  1  2  1  0
  2  3  1  0
  3  4  2  0
  3  5  1  0
  5  6  1  0
  5  7  1  0
  7  8  2  0
  8  9  1  0
  9 10  2  0
 10 11  1  0
 11 12  2  0
 12 13  1  0
 13 14  1  0
 13 15  2  0
 12 16  1  0
 16 17  1  0
 17 18  2  0
 17 19  1  0
 19 20  1  0
 16 21  1  0
 21 22  2  0
 22  7  1  0
 21 10  1  0
  1 23  1  0
  1 24  1  0
  1 25  1  0
  5 26  1  1
  6 27  1  0
  6 28  1  0
  6 29  1  0
  8 30  1  0
  9 31  1  0
 11 32  1  0
 14 33  1  0
 20 34  1  0
 20 35  1  0
 20 36  1  0
 22 37  1  0
M  CHG  1  14  -1
M  END
>  <UniqueID>  (24) 
24

>  <SMILES>  (24) 
COC(=O)[C@H](C)c1ccc2cc(C([NH-])=O)n(C(=O)OC)c2c1

>  <Energy>  (24) 
70.14818262192969

>  <Genealogy>  (24) 
COC(=O)C(C)c1ccc2cc(C([NH-])=O)n(C(=O)OC)c2c1 (protonated)
COC(=O)[C@H](C)c1ccc2cc(C([NH-])=O)n(C(=O)OC)c2c1 (chirality)
COC(=O)[C@H](C)c1ccc2cc(C([NH-])=O)n(C(=O)OC)c2c1 (3D coordinates assigned)
COC(=O)[C@H](C)c1ccc2cc(C([NH-])=O)n(C(=O)OC)c2c1 (optimized conformer: 70.14818262192969 kcal/mol)

>  <smiles>  (24) 
COC(=O)C(C)c1ccc2cc(C(N)=O)n(C(=O)OC)c2c1

>  <score_type>  (24) 
oracle

>  <origin>  (24) 
adg

>  <m_score__min__energy>  (24) 
-6.1299999999999999

>  <m_primary>  (24) 
energy

$$$$
24:0
     RDKit          3D

 45 46  0  0  0  0  0  0  0  0999 V2000
  138.2080  159.4300  131.3080 C   0  0  0  0  0  0  0  0  0  0  0  0
  139.6270  158.9950  131.6390 C   0  0  0  0  0  0  0  0  0  0  0  0
  139.6290  157.6180  131.9960 O   0  0  0  0  0  0  0  0  0  0  0  0
  139.3440  157.1700  133.2880 C   0  0  0  0  0  0  0  0  0  0  0  0
  138.1570  157.1740  133.7150 O   0  0  0  0  0  0  0  0  0  0  0  0
  140.4070  156.6750  134.1200 N   0  0  0  0  0  0  0  0  0  0  0  0
  140.9590  157.2670  135.2180 C   0  0  0  0  0  0  0  0  0  0  0  0
  140.6590  158.6240  135.7190 C   0  0  0  0  0  0  0  0  0  0  0  0
  140.4490  158.8350  137.1130 N   0  0  0  0  0  0  0  0  0  0  0  0
  140.6230  159.6080  134.9340 O   0  0  0  0  0  0  0  0  0  0  0  0
  141.9320  156.4400  135.7790 C   0  0  0  0  0  0  0  0  0  0  0  0
  141.9660  155.3220  134.9790 C   0  0  0  0  0  0  0  0  0  0  0  0
  142.7440  154.1730  135.0800 C   0  0  0  0  0  0  0  0  0  0  0  0
  142.5520  153.1610  134.1260 C   0  0  0  0  0  0  0  0  0  0  0  0
  141.5930  153.3090  133.0910 C   0  0  0  0  0  0  0  0  0  0  0  0
  141.3980  152.2590  132.1180 N   0  0  0  0  0  0  0  0  0  0  0  0
  141.8400  150.9430  132.6150 C   0  0  0  0  0  0  0  0  0  0  0  0
  141.1950  149.7300  131.8900 C   0  0  0  0  0  0  0  0  0  0  0  0
  139.9800  150.0030  131.0830 N   0  0  0  0  0  0  0  0  0  0  0  0
  139.7740  149.0820  129.9570 C   0  0  0  0  0  0  0  0  0  0  0  0
  138.7500  150.2050  131.8610 C   0  0  0  0  0  0  0  0  0  0  0  0
  140.8080  154.4860  133.0360 C   0  0  0  0  0  0  0  0  0  0  0  0
  141.0370  155.4870  133.9860 C   0  0  0  0  0  0  0  0  0  0  0  0
  137.6500  159.6010  132.2404 H   0  0  0  0  0  0  0  0  0  0  0  0
  138.2370  160.3605  130.7221 H   0  0  0  0  0  0  0  0  0  0  0  0
  137.7105  158.6431  130.7221 H   0  0  0  0  0  0  0  0  0  0  0  0
  140.2716  159.1472  130.7607 H   0  0  0  0  0  0  0  0  0  0  0  0
  140.0072  159.5928  132.4805 H   0  0  0  0  0  0  0  0  0  0  0  0
  139.4890  158.9870  137.4940 H   0  0  0  0  0  0  0  0  0  0  0  0
  142.5426  156.6397  136.6719 H   0  0  0  0  0  0  0  0  0  0  0  0
  143.4872  154.0608  135.8832 H   0  0  0  0  0  0  0  0  0  0  0  0
  143.1530  152.2413  134.1818 H   0  0  0  0  0  0  0  0  0  0  0  0
  141.9680  152.4950  131.2710 H   0  0  0  0  0  0  0  0  0  0  0  0
  140.4070  152.2120  131.7990 H   0  0  0  0  0  0  0  0  0  0  0  0
  142.9309  150.8774  132.4901 H   0  0  0  0  0  0  0  0  0  0  0  0
  141.5227  150.8834  133.6666 H   0  0  0  0  0  0  0  0  0  0  0  0
  141.9529  149.3029  131.2168 H   0  0  0  0  0  0  0  0  0  0  0  0
  140.8620  149.0572  132.6940 H   0  0  0  0  0  0  0  0  0  0  0  0
  139.5491  148.0765  130.3422 H   0  0  0  0  0  0  0  0  0  0  0  0
  138.9328  149.4360  129.3429 H   0  0  0  0  0  0  0  0  0  0  0  0
  140.6858  149.0439  129.3429 H   0  0  0  0  0  0  0  0  0  0  0  0
  138.9849  150.1664  132.9349 H   0  0  0  0  0  0  0  0  0  0  0  0
  138.3177  151.1862  131.6152 H   0  0  0  0  0  0  0  0  0  0  0  0
  138.0266  149.4136  131.6152 H   0  0  0  0  0  0  0  0  0  0  0  0
  140.0351  154.6106  132.2633 H   0  0  0  0  0  0  0  0  0  0  0  0
  1  2  1  0
  2  3  1  0
  3  4  1  0
  4  5  2  0
  4  6  1  0
  6  7  1  0
  7  8  1  0
  8  9  1  0
  8 10  2  0
  7 11  2  0
 11 12  1  0
 12 13  2  0
 13 14  1  0
 14 15  2  0
 15 16  1  0
 16 17  1  0
 17 18  1  0
 18 19  1  0
 19 20  1  0
 19 21  1  0
 15 22  1  0
 22 23  2  0
 23  6  1  0
 23 12  1  0
  1 24  1  0
  1 25  1  0
  1 26  1  0
  2 27  1  0
  2 28  1  0
  9 29  1  0
 11 30  1  0
 13 31  1  0
 14 32  1  0
 16 33  1  0
 16 34  1  0
 17 35  1  0
 17 36  1  0
 18 37  1  0
 18 38  1  0
 20 39  1  0
 20 40  1  0
 20 41  1  0
 21 42  1  0
 21 43  1  0
 21 44  1  0
 22 45  1  0
M  CHG  2   9  -1  16   1
M  END
>  <UniqueID>  (25) 
25

>  <SMILES>  (25) 
CCOC(=O)n1c(C([NH-])=O)cc2ccc([NH2+]CCN(C)C)cc21

>  <Energy>  (25) 
86.45870874038287

>  <Genealogy>  (25) 
CCOC(=O)n1c(C([NH-])=O)cc2ccc([NH2+]CCN(C)C)cc21 (protonated)
CCOC(=O)n1c(C([NH-])=O)cc2ccc([NH2+]CCN(C)C)cc21 (3D coordinates assigned)
CCOC(=O)n1c(C([NH-])=O)cc2ccc([NH2+]CCN(C)C)cc21 (optimized conformer: 86.45870874038287 kcal/mol)

>  <smiles>  (25) 
CCOC(=O)n1c(C(N)=O)cc2ccc(NCCN(C)C)cc21

>  <score_type>  (25) 
oracle

>  <origin>  (25) 
adg

>  <m_score__min__energy>  (25) 
-6.4400000000000004

>  <m_primary>  (25) 
energy

$$$$
25:0
     RDKit          3D

 59 63  0  0  0  0  0  0  0  0999 V2000
  143.4980  154.0770  136.4720 C   0  0  0  0  0  0  0  0  0  0  0  0
  144.9770  154.1230  136.0840 C   0  0  2  0  0  0  0  0  0  0  0  0
  145.1780  153.6300  134.7210 N   0  0  0  0  0  0  0  0  0  0  0  0
  145.2480  154.4380  133.5360 C   0  0  0  0  0  0  0  0  0  0  0  0
  144.4910  154.2100  132.5540 O   0  0  0  0  0  0  0  0  0  0  0  0
  146.2060  155.5020  133.4580 N   0  0  0  0  0  0  0  0  0  0  0  0
  147.5570  155.4060  133.2960 C   0  0  0  0  0  0  0  0  0  0  0  0
  148.3310  154.1380  133.3020 C   0  0  0  0  0  0  0  0  0  0  0  0
  147.8820  152.9930  134.0340 N   0  0  0  0  0  0  0  0  0  0  0  0
  149.3990  154.0540  132.6350 O   0  0  0  0  0  0  0  0  0  0  0  0
  148.1130  156.6810  133.1770 C   0  0  0  0  0  0  0  0  0  0  0  0
  147.0530  157.5570  133.2650 C   0  0  0  0  0  0  0  0  0  0  0  0
  147.0240  158.9460  133.1640 C   0  0  0  0  0  0  0  0  0  0  0  0
  145.7740  159.5860  133.2420 C   0  0  0  0  0  0  0  0  0  0  0  0
  144.5860  158.8320  133.4210 C   0  0  0  0  0  0  0  0  0  0  0  0
  143.2460  159.5300  133.4780 C   0  0  0  0  0  0  0  0  0  0  0  0
  142.0900  158.6590  134.0510 C   0  0  2  0  0  0  0  0  0  0  0  0
  142.4800  158.2120  135.4900 C   0  0  0  0  0  0  0  0  0  0  0  0
  141.3670  157.3390  136.1060 C   0  0  1  0  0  0  0  0  0  0  0  0
  140.0530  158.1470  136.1670 C   0  0  0  0  0  0  0  0  0  0  0  0
  139.6450  158.5780  134.7420 C   0  0  2  0  0  0  0  0  0  0  0  0
  139.4320  157.3240  133.8670 C   0  0  0  0  0  0  0  0  0  0  0  0
  140.7460  156.5020  133.8020 C   0  0  2  0  0  0  0  0  0  0  0  0
  140.5730  155.3660  132.9900 O   0  0  0  0  0  0  0  0  0  0  0  0
  141.1640  156.0820  135.2340 C   0  0  0  0  0  0  0  0  0  0  0  0
  141.8600  157.3850  133.1880 C   0  0  0  0  0  0  0  0  0  0  0  0
  140.7560  159.4560  134.1290 C   0  0  0  0  0  0  0  0  0  0  0  0
  144.6610  157.4260  133.5360 C   0  0  0  0  0  0  0  0  0  0  0  0
  145.9170  156.8180  133.4460 C   0  0  0  0  0  0  0  0  0  0  0  0
  145.8430  153.3710  137.0580 C   0  0  0  0  0  0  0  0  0  0  0  0
  147.0110  153.0400  136.7260 O   0  0  0  0  0  0  0  0  0  0  0  0
  145.3540  152.9980  138.3070 O   0  0  0  0  0  0  0  0  0  0  0  0
  143.4064  154.0741  137.5682 H   0  0  0  0  0  0  0  0  0  0  0  0
  142.9841  154.9596  136.0634 H   0  0  0  0  0  0  0  0  0  0  0  0
  143.0400  153.1642  136.0634 H   0  0  0  0  0  0  0  0  0  0  0  0
  145.2861  155.1780  136.1212 H   0  0  0  0  0  0  0  0  0  0  0  0
  146.9780  152.9850  134.5530 H   0  0  0  0  0  0  0  0  0  0  0  0
  148.4430  152.1110  134.0160 H   0  0  0  0  0  0  0  0  0  0  0  0
  149.1750  156.9335  133.0414 H   0  0  0  0  0  0  0  0  0  0  0  0
  147.9498  159.5242  133.0275 H   0  0  0  0  0  0  0  0  0  0  0  0
  145.7172  160.6817  133.1634 H   0  0  0  0  0  0  0  0  0  0  0  0
  143.3502  160.4231  134.1116 H   0  0  0  0  0  0  0  0  0  0  0  0
  142.9730  159.7697  132.4397 H   0  0  0  0  0  0  0  0  0  0  0  0
  142.6300  159.1030  136.1175 H   0  0  0  0  0  0  0  0  0  0  0  0
  143.4073  157.6224  135.4399 H   0  0  0  0  0  0  0  0  0  0  0  0
  141.6546  157.0367  137.1238 H   0  0  0  0  0  0  0  0  0  0  0  0
  140.2009  159.0403  136.7916 H   0  0  0  0  0  0  0  0  0  0  0  0
  139.2590  157.5219  136.6016 H   0  0  0  0  0  0  0  0  0  0  0  0
  138.7098  159.1553  134.7872 H   0  0  0  0  0  0  0  0  0  0  0  0
  139.1427  157.6318  132.8513 H   0  0  0  0  0  0  0  0  0  0  0  0
  138.6363  156.7044  134.3062 H   0  0  0  0  0  0  0  0  0  0  0  0
  141.4220  155.2200  132.4920 H   0  0  0  0  0  0  0  0  0  0  0  0
  142.1042  155.5128  135.1884 H   0  0  0  0  0  0  0  0  0  0  0  0
  140.3744  155.4560  135.6752 H   0  0  0  0  0  0  0  0  0  0  0  0
  142.7946  156.8068  133.1415 H   0  0  0  0  0  0  0  0  0  0  0  0
  141.5511  157.6928  132.1782 H   0  0  0  0  0  0  0  0  0  0  0  0
  140.9018  160.3478  134.7563 H   0  0  0  0  0  0  0  0  0  0  0  0
  140.4572  159.7554  133.1136 H   0  0  0  0  0  0  0  0  0  0  0  0
  143.7536  156.8242  133.6925 H   0  0  0  0  0  0  0  0  0  0  0  0
  1  2  1  0
  2  3  1  0
  3  4  1  0
  4  5  2  0
  4  6  1  0
  6  7  1  0
  7  8  1  0
  8  9  1  0
  8 10  2  0
  7 11  2  0
 11 12  1  0
 12 13  2  0
 13 14  1  0
 14 15  2  0
 15 16  1  0
 17 16  1  6
 17 18  1  0
 18 19  1  0
 19 20  1  0
 20 21  1  0
 21 22  1  0
 22 23  1  0
 23 24  1  6
 23 25  1  0
 23 26  1  0
 21 27  1  0
 15 28  1  0
 28 29  2  0
  2 30  1  0
 30 31  2  0
 30 32  1  0
 29  6  1  0
 29 12  1  0
 26 17  1  0
 27 17  1  0
 25 19  1  0
  1 33  1  0
  1 34  1  0
  1 35  1  0
  2 36  1  6
  9 37  1  0
  9 38  1  0
 11 39  1  0
 13 40  1  0
 14 41  1  0
 16 42  1  0
 16 43  1  0
 18 44  1  0
 18 45  1  0
 19 46  1  1
 20 47  1  0
 20 48  1  0
 21 49  1  1
 22 50  1  0
 22 51  1  0
 24 52  1  0
 25 53  1  0
 25 54  1  0
 26 55  1  0
 26 56  1  0
 27 57  1  0
 27 58  1  0
 28 59  1  0
M  CHG  2   3  -1  32  -1
M  END
>  <UniqueID>  (26) 
26

>  <SMILES>  (26) 
C[C@H]([N-]C(=O)n1c(C(N)=O)cc2ccc(CC34CC5C[C@@H](CC(O)(C5)C3)C4)cc21)C(=O)[O-]

>  <Energy>  (26) 
97.53516598120561

>  <Genealogy>  (26) 
CC([N-]C(=O)n1c(C(N)=O)cc2ccc(CC34CC5CC(CC(O)(C5)C3)C4)cc21)C(=O)[O-] (protonated)
C[C@H]([N-]C(=O)n1c(C(N)=O)cc2ccc(CC34CC5C[C@@H](CC(O)(C5)C3)C4)cc21)C(=O)[O-] (chirality)
C[C@H]([N-]C(=O)n1c(C(N)=O)cc2ccc(CC34CC5C[C@@H](CC(O)(C5)C3)C4)cc21)C(=O)[O-] (3D coordinates assigned)
C[C@H]([N-]C(=O)n1c(C(N)=O)cc2ccc(CC34CC5C[C@@H](CC(O)(C5)C3)C4)cc21)C(=O)[O-] (nonaromatic ring conformer: 97.53516598120561 kcal/mol)

>  <smiles>  (26) 
CC(NC(=O)n1c(C(N)=O)cc2ccc(CC34CC5CC(CC(O)(C5)C3)C4)cc21)C(=O)O

>  <score_type>  (26) 
oracle

>  <origin>  (26) 
adg

>  <m_score__min__energy>  (26) 
-9.8699999999999992

>  <m_primary>  (26) 
energy

$$$$
26:0
     RDKit          3D

 25 26  0  0  0  0  0  0  0  0999 V2000
  149.2900  162.0100  130.3540 C   0  0  0  0  0  0  0  0  0  0  0  0
  149.1190  160.7370  131.1260 C   0  0  0  0  0  0  0  0  0  0  0  0
  150.1400  159.7550  131.1070 C   0  0  0  0  0  0  0  0  0  0  0  0
  149.9720  158.5360  131.7850 C   0  0  0  0  0  0  0  0  0  0  0  0
  148.7770  158.3290  132.4680 C   0  0  0  0  0  0  0  0  0  0  0  0
  148.3420  157.2290  133.1720 C   0  0  0  0  0  0  0  0  0  0  0  0
  147.0680  157.5620  133.6220 C   0  0  0  0  0  0  0  0  0  0  0  0
  146.2560  156.6790  134.4820 C   0  0  0  0  0  0  0  0  0  0  0  0
  144.8290  156.7270  134.4510 N   0  0  0  0  0  0  0  0  0  0  0  0
  146.8300  155.9100  135.2980 O   0  0  0  0  0  0  0  0  0  0  0  0
  146.7190  158.8120  133.2040 N   0  0  0  0  0  0  0  0  0  0  0  0
  145.4430  159.4560  133.3610 C   0  0  0  0  0  0  0  0  0  0  0  0
  145.3300  160.4820  134.0830 O   0  0  0  0  0  0  0  0  0  0  0  0
  144.3200  158.9570  132.7140 O   0  0  0  0  0  0  0  0  0  0  0  0
  147.7800  159.2710  132.5010 C   0  0  0  0  0  0  0  0  0  0  0  0
  147.9130  160.4850  131.8150 C   0  0  0  0  0  0  0  0  0  0  0  0
  149.4030  162.8510  131.0540 H   0  0  0  0  0  0  0  0  0  0  0  0
  150.1864  161.9371  129.7207 H   0  0  0  0  0  0  0  0  0  0  0  0
  148.4061  162.1763  129.7207 H   0  0  0  0  0  0  0  0  0  0  0  0
  151.0725  159.9487  130.5566 H   0  0  0  0  0  0  0  0  0  0  0  0
  150.7604  157.7690  131.7763 H   0  0  0  0  0  0  0  0  0  0  0  0
  148.8853  156.2879  133.3424 H   0  0  0  0  0  0  0  0  0  0  0  0
  144.2700  156.0700  135.0400 H   0  0  0  0  0  0  0  0  0  0  0  0
  144.3260  157.4650  133.9100 H   0  0  0  0  0  0  0  0  0  0  0  0
  147.0979  161.2236  131.8132 H   0  0  0  0  0  0  0  0  0  0  0  0
  1  2  1  0
  2  3  2  0
  3  4  1  0
  4  5  2  0
  5  6  1  0
  6  7  2  0
  7  8  1  0
  8  9  1  0
  8 10  2  0
  7 11  1  0
 11 12  1  0
 12 13  2  0
 12 14  1  0
 11 15  1  0
 15 16  2  0
 16  2  1  0
 15  5  1  0
  1 17  1  0
  1 18  1  0
  1 19  1  0
  3 20  1  0
  4 21  1  0
  6 22  1  0
  9 23  1  0
  9 24  1  0
 16 25  1  0
M  CHG  1  14  -1
M  END
>  <UniqueID>  (27) 
27

>  <SMILES>  (27) 
Cc1ccc2cc(C(N)=O)n(C(=O)[O-])c2c1

>  <Energy>  (27) 
64.8338718006358

>  <Genealogy>  (27) 
Cc1ccc2cc(C(N)=O)n(C(=O)[O-])c2c1 (protonated)
Cc1ccc2cc(C(N)=O)n(C(=O)[O-])c2c1 (3D coordinates assigned)
Cc1ccc2cc(C(N)=O)n(C(=O)[O-])c2c1 (optimized conformer: 64.8338718006358 kcal/mol)

>  <smiles>  (27) 
Cc1ccc2cc(C(N)=O)n(C(=O)O)c2c1

>  <score_type>  (27) 
oracle

>  <origin>  (27) 
adg

>  <m_score__min__energy>  (27) 
-5.9900000000000002

>  <m_primary>  (27) 
energy

$$$$
27:0
     RDKit          3D

 59 62  0  0  0  0  0  0  0  0999 V2000
  150.1800  160.1240  129.5360 C   0  0  0  0  0  0  0  0  0  0  0  0
  149.7380  160.7400  130.7400 O   0  0  0  0  0  0  0  0  0  0  0  0
  148.4990  160.4540  131.3230 C   0  0  0  0  0  0  0  0  0  0  0  0
  147.4430  160.4840  130.6290 O   0  0  0  0  0  0  0  0  0  0  0  0
  148.4570  160.0490  132.7680 C   0  0  0  0  0  0  0  0  0  0  0  0
  147.9400  158.6450  132.9540 C   0  0  0  0  0  0  0  0  0  0  0  0
  148.8390  157.5480  132.9470 C   0  0  0  0  0  0  0  0  0  0  0  0
  148.3670  156.2360  133.1090 C   0  0  0  0  0  0  0  0  0  0  0  0
  146.9990  156.0490  133.2610 C   0  0  0  0  0  0  0  0  0  0  0  0
  146.2780  154.8860  133.4060 C   0  0  0  0  0  0  0  0  0  0  0  0
  144.9450  155.2850  133.4860 C   0  0  0  0  0  0  0  0  0  0  0  0
  143.8150  154.3570  133.7070 C   0  0  0  0  0  0  0  0  0  0  0  0
  142.5960  154.5020  132.9760 N   0  0  0  0  0  0  0  0  0  0  0  0
  143.9320  153.4070  134.5250 O   0  0  0  0  0  0  0  0  0  0  0  0
  144.8440  156.6420  133.4060 N   0  0  0  0  0  0  0  0  0  0  0  0
  143.6280  157.4030  133.2970 C   0  0  0  0  0  0  0  0  0  0  0  0
  143.0170  157.4250  132.1940 O   0  0  0  0  0  0  0  0  0  0  0  0
  143.0230  158.0980  134.4970 C   0  0  1  0  0  0  0  0  0  0  0  0
  143.2260  159.6330  134.4190 C   0  0  0  0  0  0  0  0  0  0  0  0
  142.1780  160.3310  133.5310 C   0  0  0  0  0  0  0  0  0  0  0  0
  140.6960  159.9310  133.8290 C   0  0  1  0  0  0  0  0  0  0  0  0
  140.0290  159.4350  132.5890 N   0  0  0  0  0  0  0  0  0  0  0  0
  139.4470  160.5240  131.7860 C   0  0  0  0  0  0  0  0  0  0  0  0
  138.2950  159.9340  130.9840 C   0  0  0  0  0  0  0  0  0  0  0  0
  137.9720  158.6120  131.6540 C   0  0  0  0  0  0  0  0  0  0  0  0
  138.8970  158.5370  132.8560 C   0  0  0  0  0  0  0  0  0  0  0  0
  140.6310  158.8880  134.9780 C   0  0  0  0  0  0  0  0  0  0  0  0
  141.5350  157.6890  134.6790 C   0  0  0  0  0  0  0  0  0  0  0  0
  146.1110  157.0970  133.2660 C   0  0  0  0  0  0  0  0  0  0  0  0
  146.5530  158.4170  133.0990 C   0  0  0  0  0  0  0  0  0  0  0  0
  150.8055  159.2522  129.7783 H   0  0  0  0  0  0  0  0  0  0  0  0
  149.3084  159.7982  128.9494 H   0  0  0  0  0  0  0  0  0  0  0  0
  150.7678  160.8454  128.9494 H   0  0  0  0  0  0  0  0  0  0  0  0
  149.4744  160.1090  133.1819 H   0  0  0  0  0  0  0  0  0  0  0  0
  147.7703  160.7322  133.2891 H   0  0  0  0  0  0  0  0  0  0  0  0
  149.9161  157.7270  132.8134 H   0  0  0  0  0  0  0  0  0  0  0  0
  149.0597  155.3815  133.1154 H   0  0  0  0  0  0  0  0  0  0  0  0
  146.6704  153.8593  133.4496 H   0  0  0  0  0  0  0  0  0  0  0  0
  141.8370  153.7910  133.0790 H   0  0  0  0  0  0  0  0  0  0  0  0
  142.4080  155.3560  132.4100 H   0  0  0  0  0  0  0  0  0  0  0  0
  143.5541  157.7651  135.4009 H   0  0  0  0  0  0  0  0  0  0  0  0
  143.1578  160.0483  135.4353 H   0  0  0  0  0  0  0  0  0  0  0  0
  144.2134  159.8134  133.9690 H   0  0  0  0  0  0  0  0  0  0  0  0
  142.2752  161.4171  133.6760 H   0  0  0  0  0  0  0  0  0  0  0  0
  142.3838  160.0111  132.4989 H   0  0  0  0  0  0  0  0  0  0  0  0
  140.1481  160.8237  134.1649 H   0  0  0  0  0  0  0  0  0  0  0  0
  139.0755  161.3210  132.4468 H   0  0  0  0  0  0  0  0  0  0  0  0
  140.2033  160.9591  131.1162 H   0  0  0  0  0  0  0  0  0  0  0  0
  137.4228  160.6036  131.0138 H   0  0  0  0  0  0  0  0  0  0  0  0
  138.5602  159.8013  129.9247 H   0  0  0  0  0  0  0  0  0  0  0  0
  136.9201  158.5893  131.9750 H   0  0  0  0  0  0  0  0  0  0  0  0
  138.1146  157.7605  130.9724 H   0  0  0  0  0  0  0  0  0  0  0  0
  138.3644  158.8609  133.7623 H   0  0  0  0  0  0  0  0  0  0  0  0
  139.2455  157.5062  133.0172 H   0  0  0  0  0  0  0  0  0  0  0  0
  140.9600  159.3625  135.9142 H   0  0  0  0  0  0  0  0  0  0  0  0
  139.5944  158.5320  135.0714 H   0  0  0  0  0  0  0  0  0  0  0  0
  141.4643  156.9767  135.5142 H   0  0  0  0  0  0  0  0  0  0  0  0
  141.1935  157.2395  133.7349 H   0  0  0  0  0  0  0  0  0  0  0  0
  145.8387  159.2534  133.0813 H   0  0  0  0  0  0  0  0  0  0  0  0
  1  2  1  0
  2  3  1  0
  3  4  2  0
  3  5  1  0
  5  6  1  0
  6  7  2  0
  7  8  1  0
  8  9  2  0
  9 10  1  0
 10 11  2  0
 11 12  1  0
 12 13  1  0
 12 14  2  0
 11 15  1  0
 15 16  1  0
 16 17  2  0
 16 18  1  0
 18 19  1  0
 19 20  1  0
 20 21  1  0
 21 22  1  0
 22 23  1  0
 23 24  1  0
 24 25  1  0
 25 26  1  0
 21 27  1  0
 27 28  1  0
 15 29  1  0
 29 30  2  0
 30  6  1  0
 29  9  1  0
 28 18  1  0
 26 22  1  0
  1 31  1  0
  1 32  1  0
  1 33  1  0
  5 34  1  0
  5 35  1  0
  7 36  1  0
  8 37  1  0
 10 38  1  0
 13 39  1  0
 13 40  1  0
 18 41  1  1
 19 42  1  0
 19 43  1  0
 20 44  1  0
 20 45  1  0
 21 46  1  1
 23 47  1  0
 23 48  1  0
 24 49  1  0
 24 50  1  0
 25 51  1  0
 25 52  1  0
 26 53  1  0
 26 54  1  0
 27 55  1  0
 27 56  1  0
 28 57  1  0
 28 58  1  0
 30 59  1  0
M  END
>  <UniqueID>  (28) 
28

>  <SMILES>  (28) 
COC(=O)Cc1ccc2cc(C(N)=O)n(C(=O)C3CCC(N4CCCC4)CC3)c2c1

>  <Energy>  (28) 
108.63599176351882

>  <Genealogy>  (28) 
COC(=O)Cc1ccc2cc(C(N)=O)n(C(=O)C3CCC(N4CCCC4)CC3)c2c1 (3D coordinates assigned)
COC(=O)Cc1ccc2cc(C(N)=O)n(C(=O)C3CCC(N4CCCC4)CC3)c2c1 (nonaromatic ring conformer: 108.63599176351882 kcal/mol)

>  <smiles>  (28) 
COC(=O)Cc1ccc2cc(C(N)=O)n(C(=O)C3CCC(N4CCCC4)CC3)c2c1

>  <score_type>  (28) 
oracle

>  <origin>  (28) 
adg

>  <m_score__min__energy>  (28) 
-9.3800000000000008

>  <m_primary>  (28) 
energy

$$$$
28:0
     RDKit          3D

 47 49  0  0  0  0  0  0  0  0999 V2000
  137.6710  160.1030  130.8180 C   0  0  0  0  0  0  0  0  0  0  0  0
  138.7090  159.3090  131.0930 C   0  0  0  0  0  0  0  0  0  0  0  0
  138.7280  158.4160  132.3020 C   0  0  0  0  0  0  0  0  0  0  0  0
  139.8440  157.5330  132.2430 O   0  0  0  0  0  0  0  0  0  0  0  0
  139.9220  156.3410  132.9740 C   0  0  0  0  0  0  0  0  0  0  0  0
  138.8720  155.7170  133.2860 O   0  0  0  0  0  0  0  0  0  0  0  0
  141.2040  155.8380  133.3820 N   0  0  0  0  0  0  0  0  0  0  0  0
  142.2330  156.5410  133.9360 C   0  0  0  0  0  0  0  0  0  0  0  0
  142.2880  158.0130  134.0780 C   0  0  0  0  0  0  0  0  0  0  0  0
  141.9880  158.8650  132.9720 N   0  0  0  0  0  0  0  0  0  0  0  0
  142.5720  158.5300  135.1900 O   0  0  0  0  0  0  0  0  0  0  0  0
  143.2830  155.6870  134.2710 C   0  0  0  0  0  0  0  0  0  0  0  0
  142.8630  154.4300  133.9030 C   0  0  0  0  0  0  0  0  0  0  0  0
  143.5090  153.2020  134.0190 C   0  0  0  0  0  0  0  0  0  0  0  0
  142.8240  152.0560  133.5820 C   0  0  0  0  0  0  0  0  0  0  0  0
  141.5180  152.1590  133.0470 C   0  0  0  0  0  0  0  0  0  0  0  0
  140.8270  150.9850  132.6200 N   0  0  0  0  0  0  0  0  0  0  0  0
  141.1030  149.5380  132.5140 C   0  0  0  0  0  0  0  0  0  0  0  0
  139.7630  149.1660  131.9440 C   0  0  0  0  0  0  0  0  0  0  0  0
  139.7610  148.6260  130.5540 N   0  0  0  0  0  0  0  0  0  0  0  0
  139.1130  147.3130  130.3430 C   0  0  0  0  0  0  0  0  0  0  0  0
  139.2160  149.6290  129.6240 C   0  0  0  0  0  0  0  0  0  0  0  0
  139.4920  150.6360  132.0930 C   0  0  0  0  0  0  0  0  0  0  0  0
  140.8950  153.4190  132.9420 C   0  0  0  0  0  0  0  0  0  0  0  0
  141.6060  154.5480  133.3690 C   0  0  0  0  0  0  0  0  0  0  0  0
  137.6905  160.7440  129.9243 H   0  0  0  0  0  0  0  0  0  0  0  0
  136.7966  160.1160  131.4852 H   0  0  0  0  0  0  0  0  0  0  0  0
  139.5753  159.3085  130.4151 H   0  0  0  0  0  0  0  0  0  0  0  0
  138.8009  159.0339  133.2091 H   0  0  0  0  0  0  0  0  0  0  0  0
  137.8017  157.8232  132.3253 H   0  0  0  0  0  0  0  0  0  0  0  0
  141.8010  158.4760  132.0210 H   0  0  0  0  0  0  0  0  0  0  0  0
  141.9910  159.9020  133.0930 H   0  0  0  0  0  0  0  0  0  0  0  0
  144.2436  155.9605  134.7319 H   0  0  0  0  0  0  0  0  0  0  0  0
  144.5231  153.1315  134.4393 H   0  0  0  0  0  0  0  0  0  0  0  0
  143.3068  151.0704  133.6563 H   0  0  0  0  0  0  0  0  0  0  0  0
  141.9339  149.3125  131.8293 H   0  0  0  0  0  0  0  0  0  0  0  0
  141.4213  149.0186  133.4300 H   0  0  0  0  0  0  0  0  0  0  0  0
  139.1159  148.3784  132.3576 H   0  0  0  0  0  0  0  0  0  0  0  0
  138.8869  146.8549  131.3172 H   0  0  0  0  0  0  0  0  0  0  0  0
  138.1797  147.4514  129.7775 H   0  0  0  0  0  0  0  0  0  0  0  0
  139.7905  146.6564  129.7775 H   0  0  0  0  0  0  0  0  0  0  0  0
  138.7675  150.4543  130.1964 H   0  0  0  0  0  0  0  0  0  0  0  0
  140.0258  150.0198  128.9904 H   0  0  0  0  0  0  0  0  0  0  0  0
  138.4475  149.1622  128.9904 H   0  0  0  0  0  0  0  0  0  0  0  0
  139.2719  151.1272  131.1337 H   0  0  0  0  0  0  0  0  0  0  0  0
  138.6210  150.9274  132.6984 H   0  0  0  0  0  0  0  0  0  0  0  0
  139.8773  153.5133  132.5354 H   0  0  0  0  0  0  0  0  0  0  0  0
  1  2  2  0
  2  3  1  0
  3  4  1  0
  4  5  1  0
  5  6  2  0
  5  7  1  0
  7  8  1  0
  8  9  1  0
  9 10  1  0
  9 11  2  0
  8 12  2  0
 12 13  1  0
 13 14  2  0
 14 15  1  0
 15 16  2  0
 16 17  1  0
 17 18  1  0
 18 19  1  0
 19 20  1  0
 20 21  1  0
 20 22  1  0
 19 23  1  0
 16 24  1  0
 24 25  2  0
 25  7  1  0
 25 13  1  0
 23 17  1  0
  1 26  1  0
  1 27  1  0
  2 28  1  0
  3 29  1  0
  3 30  1  0
 10 31  1  0
 10 32  1  0
 12 33  1  0
 14 34  1  0
 15 35  1  0
 18 36  1  0
 18 37  1  0
 19 38  1  0
 21 39  1  0
 21 40  1  0
 21 41  1  0
 22 42  1  0
 22 43  1  0
 22 44  1  0
 23 45  1  0
 23 46  1  0
 24 47  1  0
M  END
>  <UniqueID>  (29) 
29

>  <SMILES>  (29) 
C=CCOC(=O)n1c(C(N)=O)cc2ccc(N3CC(N(C)C)C3)cc21

>  <Energy>  (29) 
136.48870040191352

>  <Genealogy>  (29) 
C=CCOC(=O)n1c(C(N)=O)cc2ccc(N3CC(N(C)C)C3)cc21 (3D coordinates assigned)
C=CCOC(=O)n1c(C(N)=O)cc2ccc(N3CC(N(C)C)C3)cc21 (nonaromatic ring conformer: 136.48870040191352 kcal/mol)

>  <smiles>  (29) 
C=CCOC(=O)n1c(C(N)=O)cc2ccc(N3CC(N(C)C)C3)cc21

>  <score_type>  (29) 
oracle

>  <origin>  (29) 
adg

>  <m_score__min__energy>  (29) 
-8.1799999999999997

>  <m_primary>  (29) 
energy

$$$$
29:0
     RDKit          3D

 34 36  0  0  0  0  0  0  0  0999 V2000
  147.7610  160.8630  132.6220 N   0  0  0  0  0  0  0  0  0  0  0  0
  147.4280  159.7340  133.4270 C   0  0  0  0  0  0  0  0  0  0  0  0
  148.3360  159.1470  134.0720 O   0  0  0  0  0  0  0  0  0  0  0  0
  146.0200  159.2960  133.5320 C   0  0  0  0  0  0  0  0  0  0  0  0
  145.6130  157.9750  133.3580 C   0  0  0  0  0  0  0  0  0  0  0  0
  144.2400  158.0030  133.4400 C   0  0  0  0  0  0  0  0  0  0  0  0
  143.3180  156.9650  133.3400 C   0  0  0  0  0  0  0  0  0  0  0  0
  141.9570  157.2790  133.4830 C   0  0  0  0  0  0  0  0  0  0  0  0
  141.5450  158.6120  133.7340 C   0  0  0  0  0  0  0  0  0  0  0  0
  140.0800  158.9450  133.8460 C   0  0  0  0  0  0  0  0  0  0  0  0
  139.2490  158.1740  132.8140 C   0  0  0  0  0  0  0  0  0  0  0  0
  138.7330  159.0700  131.7810 N   0  0  0  0  0  0  0  0  0  0  0  0
  139.4490  159.8070  130.9180 C   0  0  0  0  0  0  0  0  0  0  0  0
  138.5670  160.4410  130.0720 C   0  0  0  0  0  0  0  0  0  0  0  0
  137.3030  160.0990  130.3970 N   0  0  0  0  0  0  0  0  0  0  0  0
  137.4420  159.2580  131.4430 C   0  0  0  0  0  0  0  0  0  0  0  0
  142.5100  159.6400  133.8230 C   0  0  0  0  0  0  0  0  0  0  0  0
  143.8590  159.3010  133.6590 C   0  0  0  0  0  0  0  0  0  0  0  0
  144.9410  160.1090  133.7200 N   0  0  0  0  0  0  0  0  0  0  0  0
  144.9400  161.5180  134.0020 C   0  0  0  0  0  0  0  0  0  0  0  0
  145.9640  162.0720  134.4830 O   0  0  0  0  0  0  0  0  0  0  0  0
  143.8190  162.2900  133.7210 O   0  0  0  0  0  0  0  0  0  0  0  0
  147.3690  161.8070  132.8340 H   0  0  0  0  0  0  0  0  0  0  0  0
  146.2533  157.0964  133.1906 H   0  0  0  0  0  0  0  0  0  0  0  0
  143.6453  155.9313  133.1548 H   0  0  0  0  0  0  0  0  0  0  0  0
  141.2028  156.4826  133.3994 H   0  0  0  0  0  0  0  0  0  0  0  0
  139.7298  158.6826  134.8552 H   0  0  0  0  0  0  0  0  0  0  0  0
  139.9548  160.0212  133.6560 H   0  0  0  0  0  0  0  0  0  0  0  0
  139.8821  157.4081  132.3422 H   0  0  0  0  0  0  0  0  0  0  0  0
  138.3971  157.7063  133.3293 H   0  0  0  0  0  0  0  0  0  0  0  0
  140.5456  159.8899  130.8912 H   0  0  0  0  0  0  0  0  0  0  0  0
  138.8497  161.1222  129.2559 H   0  0  0  0  0  0  0  0  0  0  0  0
  136.5975  158.7801  131.9610 H   0  0  0  0  0  0  0  0  0  0  0  0
  142.2095  160.6804  134.0162 H   0  0  0  0  0  0  0  0  0  0  0  0
  1  2  1  0
  2  3  2  0
  2  4  1  0
  4  5  2  0
  5  6  1  0
  6  7  2  0
  7  8  1  0
  8  9  2  0
  9 10  1  0
 10 11  1  0
 11 12  1  0
 12 13  1  0
 13 14  2  0
 14 15  1  0
 15 16  2  0
  9 17  1  0
 17 18  2  0
 18 19  1  0
 19 20  1  0
 20 21  2  0
 20 22  1  0
 19  4  1  0
 18  6  1  0
 16 12  1  0
  1 23  1  0
  5 24  1  0
  7 25  1  0
  8 26  1  0
 10 27  1  0
 10 28  1  0
 11 29  1  0
 11 30  1  0
 13 31  1  0
 14 32  1  0
 16 33  1  0
 17 34  1  0
M  CHG  2   1  -1  22  -1
M  END
>  <UniqueID>  (30) 
30

>  <SMILES>  (30) 
[NH-]C(=O)c1cc2ccc(CCn3ccnc3)cc2n1C(=O)[O-]

>  <Energy>  (30) 
100.3958853173831

>  <Genealogy>  (30) 
[NH-]C(=O)c1cc2ccc(CCn3ccnc3)cc2n1C(=O)[O-] (protonated)
[NH-]C(=O)c1cc2ccc(CCn3ccnc3)cc2n1C(=O)[O-] (3D coordinates assigned)
[NH-]C(=O)c1cc2ccc(CCn3ccnc3)cc2n1C(=O)[O-] (optimized conformer: 100.3958853173831 kcal/mol)

>  <smiles>  (30) 
NC(=O)c1cc2ccc(CCn3ccnc3)cc2n1C(=O)O

>  <score_type>  (30) 
oracle

>  <origin>  (30) 
adg

>  <m_score__min__energy>  (30) 
-7.0300000000000002

>  <m_primary>  (30) 
energy

$$$$
30:0
     RDKit          3D

 44 45  0  0  0  0  0  0  0  0999 V2000
  147.0630  155.2610  135.1280 C   0  0  0  0  0  0  0  0  0  0  0  0
  145.7860  155.6990  134.4190 C   0  0  0  0  0  0  0  0  0  0  0  0
  146.1160  156.5680  133.2430 C   0  0  0  0  0  0  0  0  0  0  0  0
  146.5910  156.0510  132.1960 O   0  0  0  0  0  0  0  0  0  0  0  0
  146.0080  157.9940  133.3450 N   0  0  0  0  0  0  0  0  0  0  0  0
  146.9930  158.9220  133.2030 C   0  0  0  0  0  0  0  0  0  0  0  0
  148.4300  158.6300  133.0180 C   0  0  0  0  0  0  0  0  0  0  0  0
  148.8700  157.9420  131.8490 N   0  0  0  0  0  0  0  0  0  0  0  0
  149.2760  159.0000  133.8730 O   0  0  0  0  0  0  0  0  0  0  0  0
  146.4670  160.2080  133.3140 C   0  0  0  0  0  0  0  0  0  0  0  0
  145.1180  160.0320  133.5340 C   0  0  0  0  0  0  0  0  0  0  0  0
  144.1040  160.9700  133.7070 C   0  0  0  0  0  0  0  0  0  0  0  0
  142.7940  160.4970  133.8940 C   0  0  0  0  0  0  0  0  0  0  0  0
  142.5160  159.1040  133.8990 C   0  0  0  0  0  0  0  0  0  0  0  0
  141.0940  158.6150  134.0970 C   0  0  1  0  0  0  0  0  0  0  0  0
  140.7530  157.4780  133.0860 C   0  0  0  0  0  0  0  0  0  0  0  0
  140.5350  156.1340  133.6810 N   0  0  0  0  0  0  0  0  0  0  0  0
  139.4990  155.3520  132.9880 C   0  0  0  0  0  0  0  0  0  0  0  0
  141.7840  155.3580  133.8120 C   0  0  0  0  0  0  0  0  0  0  0  0
  140.9190  158.1870  135.5320 C   0  0  0  0  0  0  0  0  0  0  0  0
  141.7420  158.5710  136.4050 O   0  0  0  0  0  0  0  0  0  0  0  0
  139.8910  157.3270  135.8990 O   0  0  0  0  0  0  0  0  0  0  0  0
  143.5780  158.1840  133.7240 C   0  0  0  0  0  0  0  0  0  0  0  0
  144.8700  158.6860  133.5490 C   0  0  0  0  0  0  0  0  0  0  0  0
  146.9139  155.3121  136.2167 H   0  0  0  0  0  0  0  0  0  0  0  0
  147.3067  154.2279  134.8394 H   0  0  0  0  0  0  0  0  0  0  0  0
  147.8895  155.9270  134.8394 H   0  0  0  0  0  0  0  0  0  0  0  0
  145.2406  154.8093  134.0711 H   0  0  0  0  0  0  0  0  0  0  0  0
  145.1638  156.2709  135.1232 H   0  0  0  0  0  0  0  0  0  0  0  0
  148.3470  157.1150  131.4840 H   0  0  0  0  0  0  0  0  0  0  0  0
  147.0125  161.1605  133.2414 H   0  0  0  0  0  0  0  0  0  0  0  0
  144.3215  162.0482  133.6976 H   0  0  0  0  0  0  0  0  0  0  0  0
  141.9731  161.2148  134.0384 H   0  0  0  0  0  0  0  0  0  0  0  0
  140.3832  159.4294  133.8932 H   0  0  0  0  0  0  0  0  0  0  0  0
  139.8353  157.7644  132.5515 H   0  0  0  0  0  0  0  0  0  0  0  0
  141.6344  157.3796  132.4352 H   0  0  0  0  0  0  0  0  0  0  0  0
  140.1850  156.2990  134.6550 H   0  0  0  0  0  0  0  0  0  0  0  0
  138.8510  154.8629  133.7302 H   0  0  0  0  0  0  0  0  0  0  0  0
  138.8947  156.0211  132.3579 H   0  0  0  0  0  0  0  0  0  0  0  0
  139.9768  154.5874  132.3579 H   0  0  0  0  0  0  0  0  0  0  0  0
  142.0160  155.2138  134.8775 H   0  0  0  0  0  0  0  0  0  0  0  0
  141.6593  154.3781  133.3280 H   0  0  0  0  0  0  0  0  0  0  0  0
  142.6073  155.9039  133.3280 H   0  0  0  0  0  0  0  0  0  0  0  0
  143.3903  157.1001  133.7258 H   0  0  0  0  0  0  0  0  0  0  0  0
  1  2  1  0
  2  3  1  0
  3  4  2  0
  3  5  1  0
  5  6  1  0
  6  7  1  0
  7  8  1  0
  7  9  2  0
  6 10  2  0
 10 11  1  0
 11 12  2  0
 12 13  1  0
 13 14  2  0
 14 15  1  0
 15 16  1  0
 16 17  1  0
 17 18  1  0
 17 19  1  0
 15 20  1  0
 20 21  2  0
 20 22  1  0
 14 23  1  0
 23 24  2  0
 24  5  1  0
 24 11  1  0
  1 25  1  0
  1 26  1  0
  1 27  1  0
  2 28  1  0
  2 29  1  0
  8 30  1  0
 10 31  1  0
 12 32  1  0
 13 33  1  0
 15 34  1  6
 16 35  1  0
 16 36  1  0
 17 37  1  0
 18 38  1  0
 18 39  1  0
 18 40  1  0
 19 41  1  0
 19 42  1  0
 19 43  1  0
 23 44  1  0
M  CHG  3   8  -1  17   1  22  -1
M  END
>  <UniqueID>  (31) 
31

>  <SMILES>  (31) 
CCC(=O)n1c(C([NH-])=O)cc2ccc([C@@H](C[NH+](C)C)C(=O)[O-])cc21

>  <Energy>  (31) 
84.18558177151895

>  <Genealogy>  (31) 
CCC(=O)n1c(C([NH-])=O)cc2ccc(C(C[NH+](C)C)C(=O)[O-])cc21 (protonated)
CCC(=O)n1c(C([NH-])=O)cc2ccc([C@@H](C[NH+](C)C)C(=O)[O-])cc21 (chirality)
CCC(=O)n1c(C([NH-])=O)cc2ccc([C@@H](C[NH+](C)C)C(=O)[O-])cc21 (3D coordinates assigned)
CCC(=O)n1c(C([NH-])=O)cc2ccc([C@@H](C[NH+](C)C)C(=O)[O-])cc21 (optimized conformer: 84.18558177151895 kcal/mol)

>  <smiles>  (31) 
CCC(=O)n1c(C(N)=O)cc2ccc(C(CN(C)C)C(=O)O)cc21

>  <score_type>  (31) 
oracle

>  <origin>  (31) 
adg

>  <m_score__min__energy>  (31) 
-6.1299999999999999

>  <m_primary>  (31) 
energy

$$$$
31:0
     RDKit          3D

 33 34  0  0  0  0  0  0  0  0999 V2000
  145.4760  162.3920  134.4760 C   0  0  0  0  0  0  0  0  0  0  0  0
  144.5080  161.4520  133.7660 C   0  0  0  0  0  0  0  0  0  0  0  0
  144.6480  160.1210  134.2580 O   0  0  0  0  0  0  0  0  0  0  0  0
  144.7740  159.0010  133.4280 C   0  0  0  0  0  0  0  0  0  0  0  0
  143.7940  158.6010  132.7420 O   0  0  0  0  0  0  0  0  0  0  0  0
  146.0360  158.3210  133.3360 N   0  0  0  0  0  0  0  0  0  0  0  0
  146.3420  157.0630  133.7610 C   0  0  0  0  0  0  0  0  0  0  0  0
  145.4670  156.1790  134.5600 C   0  0  0  0  0  0  0  0  0  0  0  0
  144.0500  156.3200  134.5240 N   0  0  0  0  0  0  0  0  0  0  0  0
  145.9820  155.3180  135.3230 O   0  0  0  0  0  0  0  0  0  0  0  0
  147.6500  156.7350  133.4130 C   0  0  0  0  0  0  0  0  0  0  0  0
  148.1440  157.8440  132.7650 C   0  0  0  0  0  0  0  0  0  0  0  0
  149.3980  158.0680  132.2030 C   0  0  0  0  0  0  0  0  0  0  0  0
  149.6260  159.3030  131.5740 C   0  0  0  0  0  0  0  0  0  0  0  0
  148.6000  160.2780  131.5030 C   0  0  0  0  0  0  0  0  0  0  0  0
  148.8640  161.6040  130.8450 C   0  0  0  0  0  0  0  0  0  0  0  0
  149.6480  161.4150  129.5830 C   0  0  0  0  0  0  0  0  0  0  0  0
  149.4510  160.4410  128.8720 O   0  0  0  0  0  0  0  0  0  0  0  0
  147.3430  160.0180  132.0940 C   0  0  0  0  0  0  0  0  0  0  0  0
  147.1500  158.7870  132.7310 C   0  0  0  0  0  0  0  0  0  0  0  0
  145.3623  162.2816  135.5645 H   0  0  0  0  0  0  0  0  0  0  0  0
  146.5077  162.1419  134.1878 H   0  0  0  0  0  0  0  0  0  0  0  0
  145.2563  163.4306  134.1878 H   0  0  0  0  0  0  0  0  0  0  0  0
  143.4776  161.7952  133.9404 H   0  0  0  0  0  0  0  0  0  0  0  0
  144.7342  161.4574  132.6895 H   0  0  0  0  0  0  0  0  0  0  0  0
  143.6070  157.2600  134.4160 H   0  0  0  0  0  0  0  0  0  0  0  0
  148.1764  155.7902  133.6135 H   0  0  0  0  0  0  0  0  0  0  0  0
  150.1857  157.3016  132.2501 H   0  0  0  0  0  0  0  0  0  0  0  0
  150.6107  159.5155  131.1321 H   0  0  0  0  0  0  0  0  0  0  0  0
  147.9051  162.0875  130.6068 H   0  0  0  0  0  0  0  0  0  0  0  0
  149.4449  162.2345  131.5343 H   0  0  0  0  0  0  0  0  0  0  0  0
  150.4061  162.1579  129.2943 H   0  0  0  0  0  0  0  0  0  0  0  0
  146.5362  160.7647  132.0543 H   0  0  0  0  0  0  0  0  0  0  0  0
  1  2  1  0
  2  3  1  0
  3  4  1  0
  4  5  2  0
  4  6  1  0
  6  7  1  0
  7  8  1  0
  8  9  1  0
  8 10  2  0
  7 11  2  0
 11 12  1  0
 12 13  2  0
 13 14  1  0
 14 15  2  0
 15 16  1  0
 16 17  1  0
 17 18  2  0
 15 19  1  0
 19 20  2  0
 20  6  1  0
 20 12  1  0
  1 21  1  0
  1 22  1  0
  1 23  1  0
  2 24  1  0
  2 25  1  0
  9 26  1  0
 11 27  1  0
 13 28  1  0
 14 29  1  0
 16 30  1  0
 16 31  1  0
 17 32  1  0
 19 33  1  0
M  CHG  1   9  -1
M  END
>  <UniqueID>  (32) 
32

>  <SMILES>  (32) 
CCOC(=O)n1c(C([NH-])=O)cc2ccc(CC=O)cc21

>  <Energy>  (32) 
66.37896091791367

>  <Genealogy>  (32) 
CCOC(=O)n1c(C([NH-])=O)cc2ccc(CC=O)cc21 (protonated)
CCOC(=O)n1c(C([NH-])=O)cc2ccc(CC=O)cc21 (3D coordinates assigned)
CCOC(=O)n1c(C([NH-])=O)cc2ccc(CC=O)cc21 (optimized conformer: 66.37896091791367 kcal/mol)

>  <smiles>  (32) 
CCOC(=O)n1c(C(N)=O)cc2ccc(CC=O)cc21

>  <score_type>  (32) 
oracle

>  <origin>  (32) 
adg

>  <m_score__min__energy>  (32) 
-6.0499999999999998

>  <m_primary>  (32) 
energy

$$$$
32:0
     RDKit          3D

 44 46  0  0  0  0  0  0  0  0999 V2000
  139.6200  151.0350  131.9610 N   0  0  0  0  0  0  0  0  0  0  0  0
  140.6410  150.6370  132.8720 C   0  0  0  0  0  0  0  0  0  0  0  0
  140.4540  149.6320  133.6080 O   0  0  0  0  0  0  0  0  0  0  0  0
  141.9340  151.3510  132.9250 C   0  0  0  0  0  0  0  0  0  0  0  0
  143.1520  150.7530  132.6100 C   0  0  0  0  0  0  0  0  0  0  0  0
  144.0850  151.7610  132.6890 C   0  0  0  0  0  0  0  0  0  0  0  0
  145.4600  151.7240  132.4860 C   0  0  0  0  0  0  0  0  0  0  0  0
  146.1850  152.9130  132.6650 C   0  0  0  0  0  0  0  0  0  0  0  0
  145.5320  154.1130  133.0480 C   0  0  0  0  0  0  0  0  0  0  0  0
  146.3380  155.3830  133.2490 C   0  0  1  0  0  0  0  0  0  0  0  0
  147.0170  155.4010  134.6270 C   0  0  0  0  0  0  0  0  0  0  0  0
  147.7840  156.7210  134.8560 C   0  0  0  0  0  0  0  0  0  0  0  0
  148.4650  157.2640  133.6400 N   0  0  2  0  0  0  0  0  0  0  0  0
  147.7630  158.4710  133.1240 C   0  0  0  0  0  0  0  0  0  0  0  0
  148.6710  159.4400  132.3420 C   0  0  0  0  0  0  0  0  0  0  0  0
  149.9800  158.9490  132.2420 O   0  0  0  0  0  0  0  0  0  0  0  0
  148.6810  156.2200  132.6080 C   0  0  0  0  0  0  0  0  0  0  0  0
  147.3640  155.5940  132.1090 C   0  0  0  0  0  0  0  0  0  0  0  0
  144.1280  154.1070  133.2470 C   0  0  0  0  0  0  0  0  0  0  0  0
  143.4290  152.9110  133.0430 C   0  0  0  0  0  0  0  0  0  0  0  0
  142.1070  152.6770  133.1950 N   0  0  0  0  0  0  0  0  0  0  0  0
  141.1200  153.6160  133.6510 C   0  0  0  0  0  0  0  0  0  0  0  0
  141.3150  154.2850  134.7000 O   0  0  0  0  0  0  0  0  0  0  0  0
  139.9280  153.7750  132.9540 O   0  0  0  0  0  0  0  0  0  0  0  0
  139.4780  152.0410  131.7190 H   0  0  0  0  0  0  0  0  0  0  0  0
  143.3301  149.6985  132.3527 H   0  0  0  0  0  0  0  0  0  0  0  0
  145.9647  150.7912  132.1939 H   0  0  0  0  0  0  0  0  0  0  0  0
  147.2735  152.9142  132.5062 H   0  0  0  0  0  0  0  0  0  0  0  0
  145.6345  156.2279  133.2145 H   0  0  0  0  0  0  0  0  0  0  0  0
  147.7236  154.5603  134.6895 H   0  0  0  0  0  0  0  0  0  0  0  0
  146.2386  155.3127  135.3993 H   0  0  0  0  0  0  0  0  0  0  0  0
  148.5482  156.5445  135.6273 H   0  0  0  0  0  0  0  0  0  0  0  0
  147.0350  157.4693  135.1544 H   0  0  0  0  0  0  0  0  0  0  0  0
  149.4180  157.5760  133.9490 H   0  0  0  0  0  0  0  0  0  0  0  0
  146.9536  158.1409  132.4562 H   0  0  0  0  0  0  0  0  0  0  0  0
  147.3919  159.0216  134.0010 H   0  0  0  0  0  0  0  0  0  0  0  0
  148.2617  159.5755  131.3300 H   0  0  0  0  0  0  0  0  0  0  0  0
  148.7016  160.3972  132.8831 H   0  0  0  0  0  0  0  0  0  0  0  0
  150.5000  159.3790  132.9700 H   0  0  0  0  0  0  0  0  0  0  0  0
  149.3077  155.4248  133.0380 H   0  0  0  0  0  0  0  0  0  0  0  0
  149.1673  156.7008  131.7464 H   0  0  0  0  0  0  0  0  0  0  0  0
  147.5881  154.6192  131.6513 H   0  0  0  0  0  0  0  0  0  0  0  0
  146.9179  156.2892  131.3826 H   0  0  0  0  0  0  0  0  0  0  0  0
  143.5998  155.0215  133.5547 H   0  0  0  0  0  0  0  0  0  0  0  0
  1  2  1  0
  2  3  2  0
  2  4  1  0
  4  5  2  0
  5  6  1  0
  6  7  2  0
  7  8  1  0
  8  9  2  0
  9 10  1  0
 10 11  1  0
 11 12  1  0
 12 13  1  0
 13 14  1  0
 14 15  1  0
 15 16  1  0
 13 17  1  0
 17 18  1  0
  9 19  1  0
 19 20  2  0
 20 21  1  0
 21 22  1  0
 22 23  2  0
 22 24  1  0
 21  4  1  0
 20  6  1  0
 18 10  1  0
  1 25  1  0
  5 26  1  0
  7 27  1  0
  8 28  1  0
 10 29  1  1
 11 30  1  0
 11 31  1  0
 12 32  1  0
 12 33  1  0
 13 34  1  1
 14 35  1  0
 14 36  1  0
 15 37  1  0
 15 38  1  0
 16 39  1  0
 17 40  1  0
 17 41  1  0
 18 42  1  0
 18 43  1  0
 19 44  1  0
M  CHG  3   1  -1  13   1  24  -1
M  END
>  <UniqueID>  (33) 
33

>  <SMILES>  (33) 
[NH-]C(=O)c1cc2ccc(C3CC[NH+](CCO)CC3)cc2n1C(=O)[O-]

>  <Energy>  (33) 
96.37572132575612

>  <Genealogy>  (33) 
[NH-]C(=O)c1cc2ccc(C3CC[NH+](CCO)CC3)cc2n1C(=O)[O-] (protonated)
[NH-]C(=O)c1cc2ccc(C3CC[NH+](CCO)CC3)cc2n1C(=O)[O-] (3D coordinates assigned)
[NH-]C(=O)c1cc2ccc(C3CC[NH+](CCO)CC3)cc2n1C(=O)[O-] (nonaromatic ring conformer: 96.37572132575612 kcal/mol)

>  <smiles>  (33) 
NC(=O)c1cc2ccc(C3CCN(CCO)CC3)cc2n1C(=O)O

>  <score_type>  (33) 
oracle

>  <origin>  (33) 
adg

>  <m_score__min__energy>  (33) 
-7.2000000000000002

>  <m_primary>  (33) 
energy

$$$$
33:0
     RDKit          3D

 34 35  0  0  0  0  0  0  0  0999 V2000
  138.3860  160.3860  130.4580 C   0  0  0  0  0  0  0  0  0  0  0  0
  138.3130  159.1000  131.2740 C   0  0  0  0  0  0  0  0  0  0  0  0
  139.4160  159.0100  132.1730 O   0  0  0  0  0  0  0  0  0  0  0  0
  139.6430  157.9100  133.0070 C   0  0  0  0  0  0  0  0  0  0  0  0
  139.2950  156.7490  132.6550 O   0  0  0  0  0  0  0  0  0  0  0  0
  140.3580  158.1080  134.3040 C   0  0  0  0  0  0  0  0  0  0  0  0
  141.6730  158.7960  134.0640 C   0  0  0  0  0  0  0  0  0  0  0  0
  141.7230  160.2070  133.9360 C   0  0  0  0  0  0  0  0  0  0  0  0
  142.9490  160.8630  133.7340 C   0  0  0  0  0  0  0  0  0  0  0  0
  144.1030  160.0870  133.6820 C   0  0  0  0  0  0  0  0  0  0  0  0
  145.4110  160.4640  133.4830 C   0  0  0  0  0  0  0  0  0  0  0  0
  146.1470  159.2800  133.5260 C   0  0  0  0  0  0  0  0  0  0  0  0
  147.6240  159.2260  133.4510 C   0  0  0  0  0  0  0  0  0  0  0  0
  148.3550  158.2340  134.1740 N   0  0  0  0  0  0  0  0  0  0  0  0
  148.2500  160.0370  132.7180 O   0  0  0  0  0  0  0  0  0  0  0  0
  145.3250  158.2140  133.7430 N   0  0  0  0  0  0  0  0  0  0  0  0
  145.6900  156.8230  133.7850 C   0  0  0  0  0  0  0  0  0  0  0  0
  145.2760  156.0290  132.9000 O   0  0  0  0  0  0  0  0  0  0  0  0
  146.5170  156.3460  134.7930 O   0  0  0  0  0  0  0  0  0  0  0  0
  144.0770  158.7250  133.8350 C   0  0  0  0  0  0  0  0  0  0  0  0
  142.8670  158.0430  134.0190 C   0  0  0  0  0  0  0  0  0  0  0  0
  138.4350  161.2494  131.1379 H   0  0  0  0  0  0  0  0  0  0  0  0
  139.2845  160.3673  129.8237 H   0  0  0  0  0  0  0  0  0  0  0  0
  137.4911  160.4691  129.8237 H   0  0  0  0  0  0  0  0  0  0  0  0
  137.3760  159.0907  131.8501 H   0  0  0  0  0  0  0  0  0  0  0  0
  138.3467  158.2424  130.5860 H   0  0  0  0  0  0  0  0  0  0  0  0
  139.7392  158.7265  134.9708 H   0  0  0  0  0  0  0  0  0  0  0  0
  140.5417  157.1283  134.7693 H   0  0  0  0  0  0  0  0  0  0  0  0
  140.7941  160.7932  133.9953 H   0  0  0  0  0  0  0  0  0  0  0  0
  142.9952  161.9562  133.6204 H   0  0  0  0  0  0  0  0  0  0  0  0
  145.7948  161.4825  133.3238 H   0  0  0  0  0  0  0  0  0  0  0  0
  147.8770  157.5790  134.8320 H   0  0  0  0  0  0  0  0  0  0  0  0
  149.3940  158.1790  134.0830 H   0  0  0  0  0  0  0  0  0  0  0  0
  142.8475  156.9484  134.1257 H   0  0  0  0  0  0  0  0  0  0  0  0
  1  2  1  0
  2  3  1  0
  3  4  1  0
  4  5  2  0
  4  6  1  0
  6  7  1  0
  7  8  2  0
  8  9  1  0
  9 10  2  0
 10 11  1  0
 11 12  2  0
 12 13  1  0
 13 14  1  0
 13 15  2  0
 12 16  1  0
 16 17  1  0
 17 18  2  0
 17 19  1  0
 16 20  1  0
 20 21  2  0
 21  7  1  0
 20 10  1  0
  1 22  1  0
  1 23  1  0
  1 24  1  0
  2 25  1  0
  2 26  1  0
  6 27  1  0
  6 28  1  0
  8 29  1  0
  9 30  1  0
 11 31  1  0
 14 32  1  0
 14 33  1  0
 21 34  1  0
M  CHG  1  19  -1
M  END
>  <UniqueID>  (34) 
34

>  <SMILES>  (34) 
CCOC(=O)Cc1ccc2cc(C(N)=O)n(C(=O)[O-])c2c1

>  <Energy>  (34) 
67.26346828435224

>  <Genealogy>  (34) 
CCOC(=O)Cc1ccc2cc(C(N)=O)n(C(=O)[O-])c2c1 (protonated)
CCOC(=O)Cc1ccc2cc(C(N)=O)n(C(=O)[O-])c2c1 (3D coordinates assigned)
CCOC(=O)Cc1ccc2cc(C(N)=O)n(C(=O)[O-])c2c1 (optimized conformer: 67.26346828435224 kcal/mol)

>  <smiles>  (34) 
CCOC(=O)Cc1ccc2cc(C(N)=O)n(C(=O)O)c2c1

>  <score_type>  (34) 
oracle

>  <origin>  (34) 
adg

>  <m_score__min__energy>  (34) 
-6.1699999999999999

>  <m_primary>  (34) 
energy

$$$$
34:0
     RDKit          3D

 48 50  0  0  0  0  0  0  0  0999 V2000
  148.8560  154.6100  132.6160 C   0  0  0  0  0  0  0  0  0  0  0  0
  147.4860  154.7450  133.3080 C   0  0  0  0  0  0  0  0  0  0  0  0
  147.6570  154.8960  134.8310 C   0  0  0  0  0  0  0  0  0  0  0  0
  146.6600  153.4830  133.0210 C   0  0  0  0  0  0  0  0  0  0  0  0
  146.7590  155.8580  132.7680 O   0  0  0  0  0  0  0  0  0  0  0  0
  145.6580  156.4970  133.3550 C   0  0  0  0  0  0  0  0  0  0  0  0
  144.6940  155.8310  133.8200 O   0  0  0  0  0  0  0  0  0  0  0  0
  145.6360  157.9320  133.4380 N   0  0  0  0  0  0  0  0  0  0  0  0
  146.6470  158.7980  133.1500 C   0  0  0  0  0  0  0  0  0  0  0  0
  148.0460  158.4270  132.8560 C   0  0  0  0  0  0  0  0  0  0  0  0
  148.3710  157.5790  131.7530 N   0  0  0  0  0  0  0  0  0  0  0  0
  148.9650  158.8190  133.6230 O   0  0  0  0  0  0  0  0  0  0  0  0
  146.1990  160.1150  133.2100 C   0  0  0  0  0  0  0  0  0  0  0  0
  144.8710  160.0310  133.5610 C   0  0  0  0  0  0  0  0  0  0  0  0
  143.9260  161.0380  133.7330 C   0  0  0  0  0  0  0  0  0  0  0  0
  142.6090  160.6600  134.0450 C   0  0  0  0  0  0  0  0  0  0  0  0
  142.2650  159.2920  134.1800 C   0  0  0  0  0  0  0  0  0  0  0  0
  140.8420  158.8930  134.4610 C   0  0  0  0  0  0  0  0  0  0  0  0
  140.0210  158.9770  133.2020 C   0  0  0  0  0  0  0  0  0  0  0  0
  139.4690  157.8150  132.6360 C   0  0  0  0  0  0  0  0  0  0  0  0
  138.7420  157.8910  131.4450 C   0  0  0  0  0  0  0  0  0  0  0  0
  138.5670  159.1210  130.8070 C   0  0  0  0  0  0  0  0  0  0  0  0
  139.1230  160.2790  131.3570 C   0  0  0  0  0  0  0  0  0  0  0  0
  138.9610  161.4720  130.7330 F   0  0  0  0  0  0  0  0  0  0  0  0
  139.8530  160.2080  132.5490 C   0  0  0  0  0  0  0  0  0  0  0  0
  143.2480  158.2970  133.9860 C   0  0  0  0  0  0  0  0  0  0  0  0
  144.5550  158.7020  133.6930 C   0  0  0  0  0  0  0  0  0  0  0  0
  149.6456  154.5322  133.3779 H   0  0  0  0  0  0  0  0  0  0  0  0
  148.8622  153.7069  131.9880 H   0  0  0  0  0  0  0  0  0  0  0  0
  149.0383  155.4945  131.9880 H   0  0  0  0  0  0  0  0  0  0  0  0
  146.9289  154.2531  135.3472 H   0  0  0  0  0  0  0  0  0  0  0  0
  148.6766  154.5981  135.1168 H   0  0  0  0  0  0  0  0  0  0  0  0
  147.4876  155.9446  135.1168 H   0  0  0  0  0  0  0  0  0  0  0  0
  146.3566  153.0194  133.9713 H   0  0  0  0  0  0  0  0  0  0  0  0
  145.7643  153.7546  132.4430 H   0  0  0  0  0  0  0  0  0  0  0  0
  147.2673  152.7709  132.4430 H   0  0  0  0  0  0  0  0  0  0  0  0
  147.6240  157.0980  131.2040 H   0  0  0  0  0  0  0  0  0  0  0  0
  149.3690  157.3600  131.5370 H   0  0  0  0  0  0  0  0  0  0  0  0
  146.7821  161.0277  133.0179 H   0  0  0  0  0  0  0  0  0  0  0  0
  144.2016  162.0977  133.6279 H   0  0  0  0  0  0  0  0  0  0  0  0
  141.8386  161.4325  134.1856 H   0  0  0  0  0  0  0  0  0  0  0  0
  140.8220  157.8605  134.8397 H   0  0  0  0  0  0  0  0  0  0  0  0
  140.4189  159.5764  135.2120 H   0  0  0  0  0  0  0  0  0  0  0  0
  139.6096  156.8432  133.1318 H   0  0  0  0  0  0  0  0  0  0  0  0
  138.3065  156.9799  131.0089 H   0  0  0  0  0  0  0  0  0  0  0  0
  137.9914  159.1782  129.8714 H   0  0  0  0  0  0  0  0  0  0  0  0
  140.2965  161.1198  132.9754 H   0  0  0  0  0  0  0  0  0  0  0  0
  142.9926  157.2298  134.0633 H   0  0  0  0  0  0  0  0  0  0  0  0
  1  2  1  0
  2  3  1  0
  2  4  1  0
  2  5  1  0
  5  6  1  0
  6  7  2  0
  6  8  1  0
  8  9  1  0
  9 10  1  0
 10 11  1  0
 10 12  2  0
  9 13  2  0
 13 14  1  0
 14 15  2  0
 15 16  1  0
 16 17  2  0
 17 18  1  0
 18 19  1  0
 19 20  2  0
 20 21  1  0
 21 22  2  0
 22 23  1  0
 23 24  1  0
 23 25  2  0
 17 26  1  0
 26 27  2  0
 27  8  1  0
 27 14  1  0
 25 19  1  0
  1 28  1  0
  1 29  1  0
  1 30  1  0
  3 31  1  0
  3 32  1  0
  3 33  1  0
  4 34  1  0
  4 35  1  0
  4 36  1  0
 11 37  1  0
 11 38  1  0
 13 39  1  0
 15 40  1  0
 16 41  1  0
 18 42  1  0
 18 43  1  0
 20 44  1  0
 21 45  1  0
 22 46  1  0
 25 47  1  0
 26 48  1  0
M  END
>  <UniqueID>  (35) 
35

>  <SMILES>  (35) 
CC(C)(C)OC(=O)n1c(C(N)=O)cc2ccc(Cc3cccc(F)c3)cc21

>  <Energy>  (35) 
82.45226421031138

>  <Genealogy>  (35) 
CC(C)(C)OC(=O)n1c(C(N)=O)cc2ccc(Cc3cccc(F)c3)cc21 (3D coordinates assigned)
CC(C)(C)OC(=O)n1c(C(N)=O)cc2ccc(Cc3cccc(F)c3)cc21 (optimized conformer: 82.45226421031138 kcal/mol)

>  <smiles>  (35) 
CC(C)(C)OC(=O)n1c(C(N)=O)cc2ccc(Cc3cccc(F)c3)cc21

>  <score_type>  (35) 
oracle

>  <origin>  (35) 
adg

>  <m_score__min__energy>  (35) 
-9.1099999999999994

>  <m_primary>  (35) 
energy

$$$$
35:0
     RDKit          3D

 40 41  0  0  0  0  0  0  0  0999 V2000
  139.1650  147.0790  129.9940 C   0  0  0  0  0  0  0  0  0  0  0  0
  139.9370  148.3060  130.4980 C   0  0  0  0  0  0  0  0  0  0  0  0
  139.1040  149.5910  130.3660 C   0  0  0  0  0  0  0  0  0  0  0  0
  140.4680  148.0980  131.8650 N   0  0  0  0  0  0  0  0  0  0  0  0
  140.6930  149.3380  132.6260 C   0  0  0  0  0  0  0  0  0  0  0  0
  142.0950  149.8900  132.3410 C   0  0  0  0  0  0  0  0  0  0  0  0
  142.0810  151.3500  132.2430 N   0  0  0  0  0  0  0  0  0  0  0  0
  142.1220  152.2490  133.3680 C   0  0  0  0  0  0  0  0  0  0  0  0
  142.6060  153.5660  133.1740 C   0  0  0  0  0  0  0  0  0  0  0  0
  142.6740  154.4740  134.2410 C   0  0  0  0  0  0  0  0  0  0  0  0
  142.2510  154.0430  135.4940 C   0  0  0  0  0  0  0  0  0  0  0  0
  142.2330  154.7070  136.6990 C   0  0  0  0  0  0  0  0  0  0  0  0
  141.7230  153.7900  137.6170 C   0  0  0  0  0  0  0  0  0  0  0  0
  141.4420  154.1250  139.0280 C   0  0  0  0  0  0  0  0  0  0  0  0
  142.4520  154.6810  139.8630 N   0  0  0  0  0  0  0  0  0  0  0  0
  140.3100  153.8710  139.5150 O   0  0  0  0  0  0  0  0  0  0  0  0
  141.4440  152.6040  137.0060 N   0  0  0  0  0  0  0  0  0  0  0  0
  140.9990  151.3860  137.6210 C   0  0  0  0  0  0  0  0  0  0  0  0
  141.2840  151.1370  138.8230 O   0  0  0  0  0  0  0  0  0  0  0  0
  140.2340  150.4760  136.9010 O   0  0  0  0  0  0  0  0  0  0  0  0
  141.7700  152.7770  135.7050 C   0  0  0  0  0  0  0  0  0  0  0  0
  141.7110  151.8440  134.6630 C   0  0  0  0  0  0  0  0  0  0  0  0
  138.7992  146.4976  130.8532 H   0  0  0  0  0  0  0  0  0  0  0  0
  138.3110  147.4083  129.3838 H   0  0  0  0  0  0  0  0  0  0  0  0
  139.8314  146.4517  129.3838 H   0  0  0  0  0  0  0  0  0  0  0  0
  140.8143  148.4388  129.8479 H   0  0  0  0  0  0  0  0  0  0  0  0
  138.8568  149.9723  131.3678 H   0  0  0  0  0  0  0  0  0  0  0  0
  139.6832  150.3487  129.8179 H   0  0  0  0  0  0  0  0  0  0  0  0
  138.1759  149.3716  129.8179 H   0  0  0  0  0  0  0  0  0  0  0  0
  141.3840  147.5980  131.7770 H   0  0  0  0  0  0  0  0  0  0  0  0
  139.9418  150.0858  132.3318 H   0  0  0  0  0  0  0  0  0  0  0  0
  140.6060  149.1193  133.7005 H   0  0  0  0  0  0  0  0  0  0  0  0
  142.7702  149.5919  133.1566 H   0  0  0  0  0  0  0  0  0  0  0  0
  142.4411  149.4805  131.3805 H   0  0  0  0  0  0  0  0  0  0  0  0
  142.0470  151.7590  131.2820 H   0  0  0  0  0  0  0  0  0  0  0  0
  142.9332  153.8812  132.1722 H   0  0  0  0  0  0  0  0  0  0  0  0
  143.0507  155.4966  134.0913 H   0  0  0  0  0  0  0  0  0  0  0  0
  142.5528  155.7409  136.8960 H   0  0  0  0  0  0  0  0  0  0  0  0
  143.2460  155.2240  139.4600 H   0  0  0  0  0  0  0  0  0  0  0  0
  141.3538  150.8196  134.8449 H   0  0  0  0  0  0  0  0  0  0  0  0
  1  2  1  0
  2  3  1  0
  2  4  1  0
  4  5  1  0
  5  6  1  0
  6  7  1  0
  7  8  1  0
  8  9  2  0
  9 10  1  0
 10 11  2  0
 11 12  1  0
 12 13  2  0
 13 14  1  0
 14 15  1  0
 14 16  2  0
 13 17  1  0
 17 18  1  0
 18 19  2  0
 18 20  1  0
 17 21  1  0
 21 22  2  0
 22  8  1  0
 21 11  1  0
  1 23  1  0
  1 24  1  0
  1 25  1  0
  2 26  1  0
  3 27  1  0
  3 28  1  0
  3 29  1  0
  4 30  1  0
  5 31  1  0
  5 32  1  0
  6 33  1  0
  6 34  1  0
  7 35  1  0
  9 36  1  0
 10 37  1  0
 12 38  1  0
 15 39  1  0
 22 40  1  0
M  CHG  2  15  -1  20  -1
M  END
>  <UniqueID>  (36) 
36

>  <SMILES>  (36) 
CC(C)NCCNc1ccc2cc(C([NH-])=O)n(C(=O)[O-])c2c1

>  <Energy>  (36) 
76.05335579883928

>  <Genealogy>  (36) 
CC(C)NCCNc1ccc2cc(C([NH-])=O)n(C(=O)[O-])c2c1 (protonated)
CC(C)NCCNc1ccc2cc(C([NH-])=O)n(C(=O)[O-])c2c1 (3D coordinates assigned)
CC(C)NCCNc1ccc2cc(C([NH-])=O)n(C(=O)[O-])c2c1 (optimized conformer: 76.05335579883928 kcal/mol)

>  <smiles>  (36) 
CC(C)NCCNc1ccc2cc(C(N)=O)n(C(=O)O)c2c1

>  <score_type>  (36) 
oracle

>  <origin>  (36) 
adg

>  <m_score__min__energy>  (36) 
-7.3600000000000003

>  <m_primary>  (36) 
energy

$$$$
36:0
     RDKit          3D

 31 33  0  0  0  0  0  0  0  0999 V2000
  140.2230  159.1110  136.5160 N   0  0  0  0  0  0  0  0  0  0  0  0
  140.4300  158.5480  135.2220 C   0  0  0  0  0  0  0  0  0  0  0  0
  139.4340  158.2810  134.5010 O   0  0  0  0  0  0  0  0  0  0  0  0
  141.8040  158.3270  134.7270 C   0  0  0  0  0  0  0  0  0  0  0  0
  142.4950  157.1280  134.8910 C   0  0  0  0  0  0  0  0  0  0  0  0
  143.7520  157.3570  134.3830 C   0  0  0  0  0  0  0  0  0  0  0  0
  144.8440  156.5020  134.2790 C   0  0  0  0  0  0  0  0  0  0  0  0
  146.0150  156.9980  133.6820 C   0  0  0  0  0  0  0  0  0  0  0  0
  146.0740  158.3300  133.1970 C   0  0  0  0  0  0  0  0  0  0  0  0
  147.3100  158.8330  132.5510 C   0  0  0  0  0  0  0  0  0  0  0  0
  147.3260  160.1110  131.9620 C   0  0  0  0  0  0  0  0  0  0  0  0
  148.4870  160.5990  131.3560 C   0  0  0  0  0  0  0  0  0  0  0  0
  148.4920  161.8340  130.7980 F   0  0  0  0  0  0  0  0  0  0  0  0
  149.6430  159.8150  131.3280 C   0  0  0  0  0  0  0  0  0  0  0  0
  149.6400  158.5420  131.9030 C   0  0  0  0  0  0  0  0  0  0  0  0
  150.7620  157.7820  131.8630 F   0  0  0  0  0  0  0  0  0  0  0  0
  148.4800  158.0480  132.5120 C   0  0  0  0  0  0  0  0  0  0  0  0
  148.4920  156.7930  133.0300 F   0  0  0  0  0  0  0  0  0  0  0  0
  144.9400  159.1660  133.3160 C   0  0  0  0  0  0  0  0  0  0  0  0
  143.7930  158.6520  133.9330 C   0  0  0  0  0  0  0  0  0  0  0  0
  142.6010  159.2600  134.1330 N   0  0  0  0  0  0  0  0  0  0  0  0
  142.2450  160.5920  133.7290 C   0  0  0  0  0  0  0  0  0  0  0  0
  141.0620  160.8600  133.3920 O   0  0  0  0  0  0  0  0  0  0  0  0
  143.1970  161.6050  133.7330 O   0  0  0  0  0  0  0  0  0  0  0  0
  139.3380  158.9390  137.0410 H   0  0  0  0  0  0  0  0  0  0  0  0
  142.1151  156.1953  135.3334 H   0  0  0  0  0  0  0  0  0  0  0  0
  144.7924  155.4688  134.6529 H   0  0  0  0  0  0  0  0  0  0  0  0
  146.8962  156.3462  133.5895 H   0  0  0  0  0  0  0  0  0  0  0  0
  146.4174  160.7308  131.9787 H   0  0  0  0  0  0  0  0  0  0  0  0
  150.5568  160.2007  130.8525 H   0  0  0  0  0  0  0  0  0  0  0  0
  144.9584  160.1968  132.9325 H   0  0  0  0  0  0  0  0  0  0  0  0
  1  2  1  0
  2  3  2  0
  2  4  1  0
  4  5  2  0
  5  6  1  0
  6  7  2  0
  7  8  1  0
  8  9  2  0
  9 10  1  0
 10 11  2  0
 11 12  1  0
 12 13  1  0
 12 14  2  0
 14 15  1  0
 15 16  1  0
 15 17  2  0
 17 18  1  0
  9 19  1  0
 19 20  2  0
 20 21  1  0
 21 22  1  0
 22 23  2  0
 22 24  1  0
 21  4  1  0
 20  6  1  0
 17 10  1  0
  1 25  1  0
  5 26  1  0
  7 27  1  0
  8 28  1  0
 11 29  1  0
 14 30  1  0
 19 31  1  0
M  CHG  2   1  -1  24  -1
M  END
>  <UniqueID>  (37) 
37

>  <SMILES>  (37) 
[NH-]C(=O)c1cc2ccc(-c3cc(F)cc(F)c3F)cc2n1C(=O)[O-]

>  <Energy>  (37) 
79.78522377067901

>  <Genealogy>  (37) 
[NH-]C(=O)c1cc2ccc(-c3cc(F)cc(F)c3F)cc2n1C(=O)[O-] (protonated)
[NH-]C(=O)c1cc2ccc(-c3cc(F)cc(F)c3F)cc2n1C(=O)[O-] (3D coordinates assigned)
[NH-]C(=O)c1cc2ccc(-c3cc(F)cc(F)c3F)cc2n1C(=O)[O-] (optimized conformer: 79.78522377067901 kcal/mol)

>  <smiles>  (37) 
NC(=O)c1cc2ccc(-c3cc(F)cc(F)c3F)cc2n1C(=O)O

>  <score_type>  (37) 
oracle

>  <origin>  (37) 
adg

>  <m_score__min__energy>  (37) 
-7.2300000000000004

>  <m_primary>  (37) 
energy

$$$$
37:0
     RDKit          3D

 39 41  0  0  0  0  0  0  0  0999 V2000
  147.4150  155.4240  131.8640 N   0  0  0  0  0  0  0  0  0  0  0  0
  146.4780  155.7060  132.9050 C   0  0  0  0  0  0  0  0  0  0  0  0
  146.0490  154.7600  133.6170 O   0  0  0  0  0  0  0  0  0  0  0  0
  145.9850  157.0840  133.1260 C   0  0  0  0  0  0  0  0  0  0  0  0
  144.6440  157.4070  133.3310 C   0  0  0  0  0  0  0  0  0  0  0  0
  144.6310  158.7580  133.5930 C   0  0  0  0  0  0  0  0  0  0  0  0
  143.5630  159.6050  133.8730 C   0  0  0  0  0  0  0  0  0  0  0  0
  143.8400  160.9650  134.0880 C   0  0  0  0  0  0  0  0  0  0  0  0
  145.1670  161.4590  133.9960 C   0  0  0  0  0  0  0  0  0  0  0  0
  145.4550  162.9150  134.2650 C   0  0  0  0  0  0  0  0  0  0  0  0
  145.4780  163.1280  135.6320 F   0  0  0  0  0  0  0  0  0  0  0  0
  144.4820  163.7200  133.7000 F   0  0  0  0  0  0  0  0  0  0  0  0
  146.6800  163.2770  133.7330 F   0  0  0  0  0  0  0  0  0  0  0  0
  146.2280  160.5610  133.7330 C   0  0  0  0  0  0  0  0  0  0  0  0
  145.9240  159.2090  133.5400 C   0  0  0  0  0  0  0  0  0  0  0  0
  146.7670  158.1930  133.2550 N   0  0  0  0  0  0  0  0  0  0  0  0
  148.1860  158.2910  133.0540 C   0  0  0  0  0  0  0  0  0  0  0  0
  148.8690  157.2460  132.8800 O   0  0  0  0  0  0  0  0  0  0  0  0
  148.8230  159.5770  133.0750 N   0  0  0  0  0  0  0  0  0  0  0  0
  149.2970  160.3230  131.9070 C   0  0  0  0  0  0  0  0  0  0  0  0
  148.1560  160.7040  130.9560 C   0  0  0  0  0  0  0  0  0  0  0  0
  148.4810  160.0640  129.6120 C   0  0  0  0  0  0  0  0  0  0  0  0
  149.9740  159.7850  129.6340 C   0  0  0  0  0  0  0  0  0  0  0  0
  150.3180  159.5250  131.0910 C   0  0  0  0  0  0  0  0  0  0  0  0
  147.8360  156.1870  131.2910 H   0  0  0  0  0  0  0  0  0  0  0  0
  147.7270  154.4420  131.6930 H   0  0  0  0  0  0  0  0  0  0  0  0
  143.7804  156.7268  133.2916 H   0  0  0  0  0  0  0  0  0  0  0  0
  142.5334  159.2212  133.9244 H   0  0  0  0  0  0  0  0  0  0  0  0
  143.0186  161.6553  134.3305 H   0  0  0  0  0  0  0  0  0  0  0  0
  147.2674  160.9173  133.6815 H   0  0  0  0  0  0  0  0  0  0  0  0
  149.7623  161.2303  132.3196 H   0  0  0  0  0  0  0  0  0  0  0  0
  147.1986  160.3201  131.3381 H   0  0  0  0  0  0  0  0  0  0  0  0
  148.0626  161.7962  130.8643 H   0  0  0  0  0  0  0  0  0  0  0  0
  147.9184  159.1269  129.4884 H   0  0  0  0  0  0  0  0  0  0  0  0
  148.2053  160.7215  128.7743 H   0  0  0  0  0  0  0  0  0  0  0  0
  150.2092  158.9029  129.0203 H   0  0  0  0  0  0  0  0  0  0  0  0
  150.5519  160.6256  129.2224 H   0  0  0  0  0  0  0  0  0  0  0  0
  150.2364  158.4519  131.3187 H   0  0  0  0  0  0  0  0  0  0  0  0
  151.3496  159.8271  131.3246 H   0  0  0  0  0  0  0  0  0  0  0  0
  1  2  1  0
  2  3  2  0
  2  4  1  0
  4  5  2  0
  5  6  1  0
  6  7  2  0
  7  8  1  0
  8  9  2  0
  9 10  1  0
 10 11  1  0
 10 12  1  0
 10 13  1  0
  9 14  1  0
 14 15  2  0
 15 16  1  0
 16 17  1  0
 17 18  2  0
 17 19  1  0
 19 20  1  0
 20 21  1  0
 21 22  1  0
 22 23  1  0
 23 24  1  0
 16  4  1  0
 24 20  1  0
 15  6  1  0
  1 25  1  0
  1 26  1  0
  5 27  1  0
  7 28  1  0
  8 29  1  0
 14 30  1  0
 20 31  1  0
 21 32  1  0
 21 33  1  0
 22 34  1  0
 22 35  1  0
 23 36  1  0
 23 37  1  0
 24 38  1  0
 24 39  1  0
M  CHG  1  19  -1
M  END
>  <UniqueID>  (38) 
38

>  <SMILES>  (38) 
NC(=O)c1cc2ccc(C(F)(F)F)cc2n1C(=O)[N-]C1CCCC1

>  <Energy>  (38) 
79.54779731644244

>  <Genealogy>  (38) 
NC(=O)c1cc2ccc(C(F)(F)F)cc2n1C(=O)[N-]C1CCCC1 (protonated)
NC(=O)c1cc2ccc(C(F)(F)F)cc2n1C(=O)[N-]C1CCCC1 (3D coordinates assigned)
NC(=O)c1cc2ccc(C(F)(F)F)cc2n1C(=O)[N-]C1CCCC1 (nonaromatic ring conformer: 79.54779731644244 kcal/mol)

>  <smiles>  (38) 
NC(=O)c1cc2ccc(C(F)(F)F)cc2n1C(=O)NC1CCCC1

>  <score_type>  (38) 
oracle

>  <origin>  (38) 
adg

>  <m_score__min__energy>  (38) 
-8.1799999999999997

>  <m_primary>  (38) 
energy

$$$$
38:0
     RDKit          3D

 32 33  0  0  0  0  0  0  0  0999 V2000
  145.1800  163.1070  134.1330 C   0  0  0  0  0  0  0  0  0  0  0  0
  145.0520  161.7600  134.5690 O   0  0  0  0  0  0  0  0  0  0  0  0
  144.1500  160.8630  133.9890 C   0  0  0  0  0  0  0  0  0  0  0  0
  143.0320  161.2680  133.5690 O   0  0  0  0  0  0  0  0  0  0  0  0
  144.5110  159.4790  133.8500 N   0  0  0  0  0  0  0  0  0  0  0  0
  143.7260  158.3820  134.0520 C   0  0  0  0  0  0  0  0  0  0  0  0
  142.3520  158.3870  134.5950 C   0  0  0  0  0  0  0  0  0  0  0  0
  141.9620  159.3930  135.5280 N   0  0  0  0  0  0  0  0  0  0  0  0
  141.5050  157.5340  134.2200 O   0  0  0  0  0  0  0  0  0  0  0  0
  144.4280  157.2170  133.7510 C   0  0  0  0  0  0  0  0  0  0  0  0
  145.6810  157.6350  133.3630 C   0  0  0  0  0  0  0  0  0  0  0  0
  146.7840  156.8940  132.9520 C   0  0  0  0  0  0  0  0  0  0  0  0
  147.9470  157.5910  132.5870 C   0  0  0  0  0  0  0  0  0  0  0  0
  147.9820  159.0070  132.6260 C   0  0  0  0  0  0  0  0  0  0  0  0
  149.2410  159.7470  132.2480 C   0  0  0  0  0  0  0  0  0  0  0  0
  149.3800  159.8940  130.7290 C   0  0  0  0  0  0  0  0  0  0  0  0
  149.5020  161.3030  130.3340 C   0  0  0  0  0  0  0  0  0  0  0  0
  149.5980  162.4150  130.0240 N   0  0  0  0  0  0  0  0  0  0  0  0
  146.8440  159.7260  133.0550 C   0  0  0  0  0  0  0  0  0  0  0  0
  145.7050  159.0040  133.4310 C   0  0  0  0  0  0  0  0  0  0  0  0
  145.2431  163.7711  135.0076 H   0  0  0  0  0  0  0  0  0  0  0  0
  146.0921  163.2111  133.5270 H   0  0  0  0  0  0  0  0  0  0  0  0
  144.3038  163.3811  133.5270 H   0  0  0  0  0  0  0  0  0  0  0  0
  142.1700  160.4010  135.3480 H   0  0  0  0  0  0  0  0  0  0  0  0
  144.0593  156.1824  133.8107 H   0  0  0  0  0  0  0  0  0  0  0  0
  146.7464  155.7953  132.9140 H   0  0  0  0  0  0  0  0  0  0  0  0
  148.8393  157.0325  132.2678 H   0  0  0  0  0  0  0  0  0  0  0  0
  149.2152  160.7487  132.7018 H   0  0  0  0  0  0  0  0  0  0  0  0
  150.1013  159.1685  132.6158 H   0  0  0  0  0  0  0  0  0  0  0  0
  150.2775  159.3509  130.3979 H   0  0  0  0  0  0  0  0  0  0  0  0
  148.4761  159.4803  130.2579 H   0  0  0  0  0  0  0  0  0  0  0  0
  146.8527  160.8253  133.0926 H   0  0  0  0  0  0  0  0  0  0  0  0
  1  2  1  0
  2  3  1  0
  3  4  2  0
  3  5  1  0
  5  6  1  0
  6  7  1  0
  7  8  1  0
  7  9  2  0
  6 10  2  0
 10 11  1  0
 11 12  2  0
 12 13  1  0
 13 14  2  0
 14 15  1  0
 15 16  1  0
 16 17  1  0
 17 18  3  0
 14 19  1  0
 19 20  2  0
 20  5  1  0
 20 11  1  0
  1 21  1  0
  1 22  1  0
  1 23  1  0
  8 24  1  0
 10 25  1  0
 12 26  1  0
 13 27  1  0
 15 28  1  0
 15 29  1  0
 16 30  1  0
 16 31  1  0
 19 32  1  0
M  CHG  1   8  -1
M  END
>  <UniqueID>  (39) 
39

>  <SMILES>  (39) 
COC(=O)n1c(C([NH-])=O)cc2ccc(CCC#N)cc21

>  <Energy>  (39) 
65.3636407219975

>  <Genealogy>  (39) 
COC(=O)n1c(C([NH-])=O)cc2ccc(CCC#N)cc21 (protonated)
COC(=O)n1c(C([NH-])=O)cc2ccc(CCC#N)cc21 (3D coordinates assigned)
COC(=O)n1c(C([NH-])=O)cc2ccc(CCC#N)cc21 (optimized conformer: 65.3636407219975 kcal/mol)

>  <smiles>  (39) 
COC(=O)n1c(C(N)=O)cc2ccc(CCC#N)cc21

>  <score_type>  (39) 
oracle

>  <origin>  (39) 
adg

>  <m_score__min__energy>  (39) 
-6.5899999999999999

>  <m_primary>  (39) 
energy

$$$$
39:0
     RDKit          3D

 52 54  0  0  0  0  0  0  0  0999 V2000
  139.3770  159.9910  131.8170 C   0  0  0  0  0  0  0  0  0  0  0  0
  139.1060  159.3550  133.0620 O   0  0  0  0  0  0  0  0  0  0  0  0
  139.7610  158.2030  133.5260 C   0  0  0  0  0  0  0  0  0  0  0  0
  139.5450  156.9390  132.9430 C   0  0  0  0  0  0  0  0  0  0  0  0
  140.2210  155.8140  133.4210 C   0  0  0  0  0  0  0  0  0  0  0  0
  141.1290  155.9360  134.4730 C   0  0  0  0  0  0  0  0  0  0  0  0
  141.3490  157.1820  135.0650 C   0  0  0  0  0  0  0  0  0  0  0  0
  140.6610  158.3180  134.6070 C   0  0  0  0  0  0  0  0  0  0  0  0
  140.9090  159.6560  135.2550 C   0  0  0  0  0  0  0  0  0  0  0  0
  141.7120  160.4990  134.3780 N   0  0  0  0  0  0  0  0  0  0  0  0
  143.0980  160.2660  134.1100 C   0  0  0  0  0  0  0  0  0  0  0  0
  143.9870  160.8740  134.7670 O   0  0  0  0  0  0  0  0  0  0  0  0
  143.4890  159.3290  133.0090 C   0  0  0  0  0  0  0  0  0  0  0  0
  144.6890  158.5090  133.3970 C   0  0  0  0  0  0  0  0  0  0  0  0
  145.9960  159.0370  133.2430 C   0  0  0  0  0  0  0  0  0  0  0  0
  147.1240  158.2790  133.6050 C   0  0  0  0  0  0  0  0  0  0  0  0
  146.9120  157.0060  134.1270 C   0  0  0  0  0  0  0  0  0  0  0  0
  147.8170  156.0560  134.5530 C   0  0  0  0  0  0  0  0  0  0  0  0
  147.0450  154.9760  134.9770 C   0  0  0  0  0  0  0  0  0  0  0  0
  147.6010  153.7310  135.5440 C   0  0  0  0  0  0  0  0  0  0  0  0
  147.0790  153.2100  136.7650 N   0  0  0  0  0  0  0  0  0  0  0  0
  148.5300  153.1150  134.9560 O   0  0  0  0  0  0  0  0  0  0  0  0
  145.7210  155.2500  134.8200 N   0  0  0  0  0  0  0  0  0  0  0  0
  144.6090  154.4010  135.1340 C   0  0  0  0  0  0  0  0  0  0  0  0
  144.2570  154.2720  136.3380 O   0  0  0  0  0  0  0  0  0  0  0  0
  143.8940  153.7130  134.0910 N   0  0  0  0  0  0  0  0  0  0  0  0
  142.8100  152.7940  134.4460 C   0  0  0  0  0  0  0  0  0  0  0  0
  144.2230  153.9710  132.6860 C   0  0  0  0  0  0  0  0  0  0  0  0
  145.6540  156.4900  134.2950 C   0  0  0  0  0  0  0  0  0  0  0  0
  144.5150  157.2120  133.9320 C   0  0  0  0  0  0  0  0  0  0  0  0
  139.8022  160.9889  131.9999 H   0  0  0  0  0  0  0  0  0  0  0  0
  140.0953  159.3856  131.2447 H   0  0  0  0  0  0  0  0  0  0  0  0
  138.4428  160.0898  131.2447 H   0  0  0  0  0  0  0  0  0  0  0  0
  138.8391  156.8372  132.1055 H   0  0  0  0  0  0  0  0  0  0  0  0
  140.0369  154.8292  132.9667 H   0  0  0  0  0  0  0  0  0  0  0  0
  141.6718  155.0510  134.8364 H   0  0  0  0  0  0  0  0  0  0  0  0
  142.0652  157.2742  135.8948 H   0  0  0  0  0  0  0  0  0  0  0  0
  139.9454  160.1492  135.4506 H   0  0  0  0  0  0  0  0  0  0  0  0
  141.4509  159.5023  136.1999 H   0  0  0  0  0  0  0  0  0  0  0  0
  142.6468  158.6545  132.7951 H   0  0  0  0  0  0  0  0  0  0  0  0
  143.7443  159.9227  132.1188 H   0  0  0  0  0  0  0  0  0  0  0  0
  146.1291  160.0503  132.8361 H   0  0  0  0  0  0  0  0  0  0  0  0
  148.1409  158.6791  133.4797 H   0  0  0  0  0  0  0  0  0  0  0  0
  148.9142  156.1343  134.5571 H   0  0  0  0  0  0  0  0  0  0  0  0
  146.0590  153.2630  136.9760 H   0  0  0  0  0  0  0  0  0  0  0  0
  142.7304  152.7265  135.5410 H   0  0  0  0  0  0  0  0  0  0  0  0
  141.8620  153.1678  134.0318 H   0  0  0  0  0  0  0  0  0  0  0  0
  143.0236  151.7976  134.0318 H   0  0  0  0  0  0  0  0  0  0  0  0
  145.0875  154.6489  132.6304 H   0  0  0  0  0  0  0  0  0  0  0  0
  144.4684  153.0221  132.1867 H   0  0  0  0  0  0  0  0  0  0  0  0
  143.3600  154.4356  132.1867 H   0  0  0  0  0  0  0  0  0  0  0  0
  143.5100  156.7833  134.0589 H   0  0  0  0  0  0  0  0  0  0  0  0
  1  2  1  0
  2  3  1  0
  3  4  2  0
  4  5  1  0
  5  6  2  0
  6  7  1  0
  7  8  2  0
  8  9  1  0
  9 10  1  0
 10 11  1  0
 11 12  2  0
 11 13  1  0
 13 14  1  0
 14 15  2  0
 15 16  1  0
 16 17  2  0
 17 18  1  0
 18 19  2  0
 19 20  1  0
 20 21  1  0
 20 22  2  0
 19 23  1  0
 23 24  1  0
 24 25  2  0
 24 26  1  0
 26 27  1  0
 26 28  1  0
 23 29  1  0
 29 30  2  0
  8  3  1  0
 30 14  1  0
 29 17  1  0
  1 31  1  0
  1 32  1  0
  1 33  1  0
  4 34  1  0
  5 35  1  0
  6 36  1  0
  7 37  1  0
  9 38  1  0
  9 39  1  0
 13 40  1  0
 13 41  1  0
 15 42  1  0
 16 43  1  0
 18 44  1  0
 21 45  1  0
 27 46  1  0
 27 47  1  0
 27 48  1  0
 28 49  1  0
 28 50  1  0
 28 51  1  0
 30 52  1  0
M  CHG  2  10  -1  21  -1
M  END
>  <UniqueID>  (40) 
40

>  <SMILES>  (40) 
COc1ccccc1C[N-]C(=O)Cc1ccc2cc(C([NH-])=O)n(C(=O)N(C)C)c2c1

>  <Energy>  (40) 
83.05656694152306

>  <Genealogy>  (40) 
COc1ccccc1C[N-]C(=O)Cc1ccc2cc(C([NH-])=O)n(C(=O)N(C)C)c2c1 (protonated)
COc1ccccc1C[N-]C(=O)Cc1ccc2cc(C([NH-])=O)n(C(=O)N(C)C)c2c1 (3D coordinates assigned)
COc1ccccc1C[N-]C(=O)Cc1ccc2cc(C([NH-])=O)n(C(=O)N(C)C)c2c1 (optimized conformer: 83.05656694152306 kcal/mol)

>  <smiles>  (40) 
COc1ccccc1CNC(=O)Cc1ccc2cc(C(N)=O)n(C(=O)N(C)C)c2c1

>  <score_type>  (40) 
oracle

>  <origin>  (40) 
adg

>  <m_score__min__energy>  (40) 
-8.1300000000000008

>  <m_primary>  (40) 
energy

$$$$
40:0
     RDKit          3D

 34 36  0  0  0  0  0  0  0  0999 V2000
  149.4620  160.5290  129.9950 C   0  0  0  0  0  0  0  0  0  0  0  0
  149.2570  160.5210  131.4030 O   0  0  0  0  0  0  0  0  0  0  0  0
  148.5020  159.5390  132.0480 C   0  0  0  0  0  0  0  0  0  0  0  0
  149.0830  158.3550  132.3710 N   0  0  0  0  0  0  0  0  0  0  0  0
  148.3790  157.3800  133.0020 C   0  0  0  0  0  0  0  0  0  0  0  0
  147.0390  157.5860  133.3260 C   0  0  0  0  0  0  0  0  0  0  0  0
  146.4400  158.8090  132.9810 C   0  0  0  0  0  0  0  0  0  0  0  0
  145.0190  159.1030  133.2980 C   0  0  0  0  0  0  0  0  0  0  0  0
  144.6050  160.4500  133.4730 C   0  0  0  0  0  0  0  0  0  0  0  0
  143.2640  160.7610  133.7520 C   0  0  0  0  0  0  0  0  0  0  0  0
  142.3580  159.7130  133.8570 C   0  0  0  0  0  0  0  0  0  0  0  0
  141.0010  159.7390  134.0810 C   0  0  0  0  0  0  0  0  0  0  0  0
  140.6010  158.4060  134.0610 C   0  0  0  0  0  0  0  0  0  0  0  0
  139.2140  157.9720  134.3250 C   0  0  0  0  0  0  0  0  0  0  0  0
  138.4850  157.2050  133.3650 N   0  0  0  0  0  0  0  0  0  0  0  0
  138.6840  158.2340  135.4370 O   0  0  0  0  0  0  0  0  0  0  0  0
  141.6630  157.5860  133.8210 N   0  0  0  0  0  0  0  0  0  0  0  0
  141.6330  156.1640  133.6090 C   0  0  0  0  0  0  0  0  0  0  0  0
  140.6740  155.6300  132.9950 O   0  0  0  0  0  0  0  0  0  0  0  0
  142.6630  155.3630  134.0860 O   0  0  0  0  0  0  0  0  0  0  0  0
  142.7350  158.4030  133.7020 C   0  0  0  0  0  0  0  0  0  0  0  0
  144.0600  158.0650  133.3990 C   0  0  0  0  0  0  0  0  0  0  0  0
  147.1930  159.7540  132.3560 N   0  0  0  0  0  0  0  0  0  0  0  0
  150.5403  160.5711  129.7817 H   0  0  0  0  0  0  0  0  0  0  0  0
  149.0372  159.6136  129.5574 H   0  0  0  0  0  0  0  0  0  0  0  0
  148.9670  161.4085  129.5574 H   0  0  0  0  0  0  0  0  0  0  0  0
  148.8663  156.4275  133.2575 H   0  0  0  0  0  0  0  0  0  0  0  0
  146.4612  156.8053  133.8423 H   0  0  0  0  0  0  0  0  0  0  0  0
  145.3441  161.2604  133.3890 H   0  0  0  0  0  0  0  0  0  0  0  0
  142.9405  161.8041  133.8835 H   0  0  0  0  0  0  0  0  0  0  0  0
  140.3676  160.6239  134.2415 H   0  0  0  0  0  0  0  0  0  0  0  0
  137.4930  156.9380  133.5520 H   0  0  0  0  0  0  0  0  0  0  0  0
  138.9490  156.8320  132.5080 H   0  0  0  0  0  0  0  0  0  0  0  0
  144.3500  157.0155  133.2427 H   0  0  0  0  0  0  0  0  0  0  0  0
  1  2  1  0
  2  3  1  0
  3  4  2  0
  4  5  1  0
  5  6  2  0
  6  7  1  0
  7  8  1  0
  8  9  2  0
  9 10  1  0
 10 11  2  0
 11 12  1  0
 12 13  2  0
 13 14  1  0
 14 15  1  0
 14 16  2  0
 13 17  1  0
 17 18  1  0
 18 19  2  0
 18 20  1  0
 17 21  1  0
 21 22  2  0
  7 23  2  0
 23  3  1  0
 22  8  1  0
 21 11  1  0
  1 24  1  0
  1 25  1  0
  1 26  1  0
  5 27  1  0
  6 28  1  0
  9 29  1  0
 10 30  1  0
 12 31  1  0
 15 32  1  0
 15 33  1  0
 22 34  1  0
M  CHG  1  20  -1
M  END
>  <UniqueID>  (41) 
41

>  <SMILES>  (41) 
COc1nccc(-c2ccc3cc(C(N)=O)n(C(=O)[O-])c3c2)n1

>  <Energy>  (41) 
79.46768287127355

>  <Genealogy>  (41) 
COc1nccc(-c2ccc3cc(C(N)=O)n(C(=O)[O-])c3c2)n1 (protonated)
COc1nccc(-c2ccc3cc(C(N)=O)n(C(=O)[O-])c3c2)n1 (3D coordinates assigned)
COc1nccc(-c2ccc3cc(C(N)=O)n(C(=O)[O-])c3c2)n1 (optimized conformer: 79.46768287127355 kcal/mol)

>  <smiles>  (41) 
COc1nccc(-c2ccc3cc(C(N)=O)n(C(=O)O)c3c2)n1

>  <score_type>  (41) 
oracle

>  <origin>  (41) 
adg

>  <m_score__min__energy>  (41) 
-7.0300000000000002

>  <m_primary>  (41) 
energy

$$$$
41:0
     RDKit          3D

 36 37  0  0  0  0  0  0  0  0999 V2000
  141.3560  156.9540  137.3250 C   0  0  0  0  0  0  0  0  0  0  0  0
  141.3740  158.4400  137.6420 C   0  0  0  0  0  0  0  0  0  0  0  0
  140.8040  159.1640  136.5570 O   0  0  0  0  0  0  0  0  0  0  0  0
  139.8620  158.6060  135.6870 C   0  0  0  0  0  0  0  0  0  0  0  0
  138.7570  158.1840  136.1280 O   0  0  0  0  0  0  0  0  0  0  0  0
  140.1400  158.5550  134.2100 C   0  0  2  0  0  0  0  0  0  0  0  0
  139.2820  157.4910  133.5160 C   0  0  0  0  0  0  0  0  0  0  0  0
  141.6150  158.3230  133.9550 C   0  0  0  0  0  0  0  0  0  0  0  0
  142.0800  157.0220  133.6320 C   0  0  0  0  0  0  0  0  0  0  0  0
  143.4410  156.7860  133.3780 C   0  0  0  0  0  0  0  0  0  0  0  0
  144.3170  157.8640  133.4600 C   0  0  0  0  0  0  0  0  0  0  0  0
  145.6730  157.9210  133.2360 C   0  0  0  0  0  0  0  0  0  0  0  0
  146.0270  159.2510  133.4490 C   0  0  0  0  0  0  0  0  0  0  0  0
  147.4220  159.7380  133.3960 C   0  0  0  0  0  0  0  0  0  0  0  0
  147.7750  160.8620  132.5960 N   0  0  0  0  0  0  0  0  0  0  0  0
  148.3030  159.1860  134.1080 O   0  0  0  0  0  0  0  0  0  0  0  0
  144.9330  159.9910  133.7820 N   0  0  0  0  0  0  0  0  0  0  0  0
  144.8600  161.4120  133.9820 C   0  0  0  0  0  0  0  0  0  0  0  0
  143.7980  162.0380  133.7270 O   0  0  0  0  0  0  0  0  0  0  0  0
  145.9710  162.1140  134.4330 O   0  0  0  0  0  0  0  0  0  0  0  0
  143.8940  159.1250  133.7890 C   0  0  0  0  0  0  0  0  0  0  0  0
  142.5410  159.3930  134.0310 C   0  0  0  0  0  0  0  0  0  0  0  0
  141.3490  156.3791  138.2628 H   0  0  0  0  0  0  0  0  0  0  0  0
  140.4549  156.7145  136.7414 H   0  0  0  0  0  0  0  0  0  0  0  0
  142.2511  156.6927  136.7414 H   0  0  0  0  0  0  0  0  0  0  0  0
  140.7895  158.6272  138.5549 H   0  0  0  0  0  0  0  0  0  0  0  0
  142.4121  158.7691  137.7970 H   0  0  0  0  0  0  0  0  0  0  0  0
  139.8657  159.5286  133.7777 H   0  0  0  0  0  0  0  0  0  0  0  0
  138.7820  156.8710  134.2747 H   0  0  0  0  0  0  0  0  0  0  0  0
  138.5250  157.9830  132.8876 H   0  0  0  0  0  0  0  0  0  0  0  0
  139.9233  156.8555  132.8876 H   0  0  0  0  0  0  0  0  0  0  0  0
  141.3653  156.1874  133.5799 H   0  0  0  0  0  0  0  0  0  0  0  0
  143.8035  155.7795  133.1220 H   0  0  0  0  0  0  0  0  0  0  0  0
  146.3369  157.0920  132.9494 H   0  0  0  0  0  0  0  0  0  0  0  0
  147.3550  161.8020  132.7740 H   0  0  0  0  0  0  0  0  0  0  0  0
  142.2045  160.4115  134.2747 H   0  0  0  0  0  0  0  0  0  0  0  0
  1  2  1  0
  2  3  1  0
  3  4  1  0
  4  5  2  0
  4  6  1  0
  6  7  1  0
  6  8  1  0
  8  9  2  0
  9 10  1  0
 10 11  2  0
 11 12  1  0
 12 13  2  0
 13 14  1  0
 14 15  1  0
 14 16  2  0
 13 17  1  0
 17 18  1  0
 18 19  2  0
 18 20  1  0
 17 21  1  0
 21 22  2  0
 22  8  1  0
 21 11  1  0
  1 23  1  0
  1 24  1  0
  1 25  1  0
  2 26  1  0
  2 27  1  0
  6 28  1  6
  7 29  1  0
  7 30  1  0
  7 31  1  0
  9 32  1  0
 10 33  1  0
 12 34  1  0
 15 35  1  0
 22 36  1  0
M  CHG  2  15  -1  20  -1
M  END
>  <UniqueID>  (42) 
42

>  <SMILES>  (42) 
CCOC(=O)[C@H](C)c1ccc2cc(C([NH-])=O)n(C(=O)[O-])c2c1

>  <Energy>  (42) 
68.55865425270449

>  <Genealogy>  (42) 
CCOC(=O)C(C)c1ccc2cc(C([NH-])=O)n(C(=O)[O-])c2c1 (protonated)
CCOC(=O)[C@H](C)c1ccc2cc(C([NH-])=O)n(C(=O)[O-])c2c1 (chirality)
CCOC(=O)[C@H](C)c1ccc2cc(C([NH-])=O)n(C(=O)[O-])c2c1 (3D coordinates assigned)
CCOC(=O)[C@H](C)c1ccc2cc(C([NH-])=O)n(C(=O)[O-])c2c1 (optimized conformer: 68.55865425270449 kcal/mol)

>  <smiles>  (42) 
CCOC(=O)C(C)c1ccc2cc(C(N)=O)n(C(=O)O)c2c1

>  <score_type>  (42) 
oracle

>  <origin>  (42) 
adg

>  <m_score__min__energy>  (42) 
-6.4299999999999997

>  <m_primary>  (42) 
energy

$$$$
42:0
     RDKit          3D

 37 38  0  0  0  0  0  0  0  0999 V2000
  137.1680  160.0870  130.7270 C   0  0  0  0  0  0  0  0  0  0  0  0
  138.9520  160.4570  130.7780 S   0  0  0  0  0  0  0  0  0  0  0  0
  139.3100  159.5050  132.3000 C   0  0  0  0  0  0  0  0  0  0  0  0
  138.7370  158.0960  132.2080 C   0  0  0  0  0  0  0  0  0  0  0  0
  138.4610  157.5980  133.5130 O   0  0  0  0  0  0  0  0  0  0  0  0
  139.3950  157.6270  134.5520 C   0  0  0  0  0  0  0  0  0  0  0  0
  139.0240  157.8700  135.7330 O   0  0  0  0  0  0  0  0  0  0  0  0
  140.7780  157.3610  134.2710 N   0  0  0  0  0  0  0  0  0  0  0  0
  141.8050  158.2560  134.2350 C   0  0  0  0  0  0  0  0  0  0  0  0
  141.7400  159.6710  134.6590 C   0  0  0  0  0  0  0  0  0  0  0  0
  140.9840  160.0580  135.8030 N   0  0  0  0  0  0  0  0  0  0  0  0
  142.4010  160.5410  134.0330 O   0  0  0  0  0  0  0  0  0  0  0  0
  142.9790  157.6400  133.8090 C   0  0  0  0  0  0  0  0  0  0  0  0
  142.6410  156.3250  133.5890 C   0  0  0  0  0  0  0  0  0  0  0  0
  143.4240  155.2620  133.1480 C   0  0  0  0  0  0  0  0  0  0  0  0
  142.8040  154.0120  132.9800 C   0  0  0  0  0  0  0  0  0  0  0  0
  141.4200  153.8530  133.2380 C   0  0  0  0  0  0  0  0  0  0  0  0
  140.7720  152.5070  133.0740 C   0  0  0  0  0  0  0  0  0  0  0  0
  141.4380  151.5050  133.9620 C   0  0  0  0  0  0  0  0  0  0  0  0
  140.9980  151.2960  135.1230 O   0  0  0  0  0  0  0  0  0  0  0  0
  142.5760  150.8370  133.5270 O   0  0  0  0  0  0  0  0  0  0  0  0
  140.6590  154.9530  133.6950 C   0  0  0  0  0  0  0  0  0  0  0  0
  141.3070  156.1810  133.8730 C   0  0  0  0  0  0  0  0  0  0  0  0
  136.7807  160.0067  131.7534 H   0  0  0  0  0  0  0  0  0  0  0  0
  136.6409  160.8950  130.1984 H   0  0  0  0  0  0  0  0  0  0  0  0
  137.0057  159.1361  130.1984 H   0  0  0  0  0  0  0  0  0  0  0  0
  140.3996  159.4423  132.4376 H   0  0  0  0  0  0  0  0  0  0  0  0
  138.8437  160.0188  133.1535 H   0  0  0  0  0  0  0  0  0  0  0  0
  137.8064  158.1184  131.6220 H   0  0  0  0  0  0  0  0  0  0  0  0
  139.4700  157.4387  131.7175 H   0  0  0  0  0  0  0  0  0  0  0  0
  139.9790  159.7920  135.8970 H   0  0  0  0  0  0  0  0  0  0  0  0
  143.9666  158.1060  133.6766 H   0  0  0  0  0  0  0  0  0  0  0  0
  144.4953  155.3962  132.9374 H   0  0  0  0  0  0  0  0  0  0  0  0
  143.3986  153.1493  132.6452 H   0  0  0  0  0  0  0  0  0  0  0  0
  139.7077  152.5804  133.3422 H   0  0  0  0  0  0  0  0  0  0  0  0
  140.8726  152.1839  132.0273 H   0  0  0  0  0  0  0  0  0  0  0  0
  139.5846  154.8467  133.9055 H   0  0  0  0  0  0  0  0  0  0  0  0
  1  2  1  0
  2  3  1  0
  3  4  1  0
  4  5  1  0
  5  6  1  0
  6  7  2  0
  6  8  1  0
  8  9  1  0
  9 10  1  0
 10 11  1  0
 10 12  2  0
  9 13  2  0
 13 14  1  0
 14 15  2  0
 15 16  1  0
 16 17  2  0
 17 18  1  0
 18 19  1  0
 19 20  2  0
 19 21  1  0
 17 22  1  0
 22 23  2  0
 23  8  1  0
 23 14  1  0
  1 24  1  0
  1 25  1  0
  1 26  1  0
  3 27  1  0
  3 28  1  0
  4 29  1  0
  4 30  1  0
 11 31  1  0
 13 32  1  0
 15 33  1  0
 16 34  1  0
 18 35  1  0
 18 36  1  0
 22 37  1  0
M  CHG  2  11  -1  21  -1
M  END
>  <UniqueID>  (43) 
43

>  <SMILES>  (43) 
CSCCOC(=O)n1c(C([NH-])=O)cc2ccc(CC(=O)[O-])cc21

>  <Energy>  (43) 
66.88720878633605

>  <Genealogy>  (43) 
CSCCOC(=O)n1c(C([NH-])=O)cc2ccc(CC(=O)[O-])cc21 (protonated)
CSCCOC(=O)n1c(C([NH-])=O)cc2ccc(CC(=O)[O-])cc21 (3D coordinates assigned)
CSCCOC(=O)n1c(C([NH-])=O)cc2ccc(CC(=O)[O-])cc21 (optimized conformer: 66.88720878633605 kcal/mol)

>  <smiles>  (43) 
CSCCOC(=O)n1c(C(N)=O)cc2ccc(CC(=O)O)cc21

>  <score_type>  (43) 
oracle

>  <origin>  (43) 
adg

>  <m_score__min__energy>  (43) 
-6.7699999999999996

>  <m_primary>  (43) 
energy

$$$$
43:0
     RDKit          3D

 30 31  0  0  0  0  0  0  0  0999 V2000
  142.5690  161.2300  133.7180 N   0  0  0  0  0  0  0  0  0  0  0  0
  143.9870  161.3850  133.7410 C   0  0  0  0  0  0  0  0  0  0  0  0
  144.4810  162.5400  133.8150 O   0  0  0  0  0  0  0  0  0  0  0  0
  144.8560  160.1900  133.7220 C   0  0  0  0  0  0  0  0  0  0  0  0
  146.2390  160.2470  133.5580 C   0  0  0  0  0  0  0  0  0  0  0  0
  146.6550  158.9360  133.5110 C   0  0  0  0  0  0  0  0  0  0  0  0
  147.9350  158.4110  133.3910 C   0  0  0  0  0  0  0  0  0  0  0  0
  148.0800  157.0150  133.4140 C   0  0  0  0  0  0  0  0  0  0  0  0
  146.9490  156.1600  133.5370 C   0  0  0  0  0  0  0  0  0  0  0  0
  147.1560  154.6540  133.6220 C   0  0  0  0  0  0  0  0  0  0  0  0
  145.7850  153.7030  132.9770 Cl  0  0  0  0  0  0  0  0  0  0  0  0
  148.7200  154.0940  132.6100 Br  0  0  0  0  0  0  0  0  0  0  0  0
  147.4110  154.1540  135.4760 Br  0  0  0  0  0  0  0  0  0  0  0  0
  145.6660  156.7450  133.6930 C   0  0  0  0  0  0  0  0  0  0  0  0
  145.5500  158.1390  133.6470 C   0  0  0  0  0  0  0  0  0  0  0  0
  144.4360  158.8940  133.7820 N   0  0  0  0  0  0  0  0  0  0  0  0
  143.1030  158.4150  134.0190 C   0  0  0  0  0  0  0  0  0  0  0  0
  142.7130  158.2140  135.2020 O   0  0  0  0  0  0  0  0  0  0  0  0
  142.2440  158.2000  132.9340 O   0  0  0  0  0  0  0  0  0  0  0  0
  140.9010  158.5990  132.8760 C   0  0  0  0  0  0  0  0  0  0  0  0
  140.5610  159.6560  132.2790 O   0  0  0  0  0  0  0  0  0  0  0  0
  139.8670  157.7920  133.5910 C   0  0  0  0  0  0  0  0  0  0  0  0
  138.6540  157.9250  132.9440 F   0  0  0  0  0  0  0  0  0  0  0  0
  140.2340  156.4580  133.6060 F   0  0  0  0  0  0  0  0  0  0  0  0
  139.7380  158.2360  134.8940 F   0  0  0  0  0  0  0  0  0  0  0  0
  142.1340  160.2850  133.6370 H   0  0  0  0  0  0  0  0  0  0  0  0
  146.8649  161.1484  133.4822 H   0  0  0  0  0  0  0  0  0  0  0  0
  148.8093  159.0695  133.2812 H   0  0  0  0  0  0  0  0  0  0  0  0
  149.0849  156.5744  133.3356 H   0  0  0  0  0  0  0  0  0  0  0  0
  144.7782  156.1142  133.8473 H   0  0  0  0  0  0  0  0  0  0  0  0
  1  2  1  0
  2  3  2  0
  2  4  1  0
  4  5  2  0
  5  6  1  0
  6  7  2  0
  7  8  1  0
  8  9  2  0
  9 10  1  0
 10 11  1  0
 10 12  1  0
 10 13  1  0
  9 14  1  0
 14 15  2  0
 15 16  1  0
 16 17  1  0
 17 18  2  0
 17 19  1  0
 19 20  1  0
 20 21  2  0
 20 22  1  0
 22 23  1  0
 22 24  1  0
 22 25  1  0
 16  4  1  0
 15  6  1  0
  1 26  1  0
  5 27  1  0
  7 28  1  0
  8 29  1  0
 14 30  1  0
M  CHG  1   1  -1
M  END
>  <UniqueID>  (44) 
44

>  <SMILES>  (44) 
[NH-]C(=O)c1cc2ccc(C(Cl)(Br)Br)cc2n1C(=O)OC(=O)C(F)(F)F

>  <Energy>  (44) 
72.49712195473919

>  <Genealogy>  (44) 
[NH-]C(=O)c1cc2ccc(C(Cl)(Br)Br)cc2n1C(=O)OC(=O)C(F)(F)F (protonated)
[NH-]C(=O)c1cc2ccc(C(Cl)(Br)Br)cc2n1C(=O)OC(=O)C(F)(F)F (3D coordinates assigned)
[NH-]C(=O)c1cc2ccc(C(Cl)(Br)Br)cc2n1C(=O)OC(=O)C(F)(F)F (optimized conformer: 72.49712195473919 kcal/mol)

>  <smiles>  (44) 
NC(=O)c1cc2ccc(C(Cl)(Br)Br)cc2n1C(=O)OC(=O)C(F)(F)F

>  <score_type>  (44) 
oracle

>  <origin>  (44) 
adg

>  <m_score__min__energy>  (44) 
-7.0800000000000001

>  <m_primary>  (44) 
energy

$$$$
44:0
     RDKit          3D

 64 66  0  0  0  0  0  0  0  0999 V2000
  140.5580  151.1100  131.9770 C   0  0  0  0  0  0  0  0  0  0  0  0
  141.8080  151.3210  132.8440 C   0  0  0  0  0  0  0  0  0  0  0  0
  141.3970  151.2880  134.3290 C   0  0  0  0  0  0  0  0  0  0  0  0
  142.8240  150.2040  132.5340 C   0  0  0  0  0  0  0  0  0  0  0  0
  142.3470  152.6060  132.5000 O   0  0  0  0  0  0  0  0  0  0  0  0
  143.3790  153.2860  133.1640 C   0  0  0  0  0  0  0  0  0  0  0  0
  144.5800  152.9370  133.0010 O   0  0  0  0  0  0  0  0  0  0  0  0
  143.0590  154.3710  134.0640 N   0  0  0  0  0  0  0  0  0  0  0  0
  142.4460  155.5860  133.4990 C   0  0  0  0  0  0  0  0  0  0  0  0
  143.4400  156.3370  132.6140 C   0  0  0  0  0  0  0  0  0  0  0  0
  143.2040  157.7360  132.7270 O   0  0  0  0  0  0  0  0  0  0  0  0
  143.7730  158.5220  133.7320 C   0  0  0  0  0  0  0  0  0  0  0  0
  143.1340  158.7550  134.7960 O   0  0  0  0  0  0  0  0  0  0  0  0
  145.0820  159.0820  133.5400 N   0  0  0  0  0  0  0  0  0  0  0  0
  145.4500  160.3870  133.6780 C   0  0  0  0  0  0  0  0  0  0  0  0
  144.5330  161.5300  133.8510 C   0  0  0  0  0  0  0  0  0  0  0  0
  143.1270  161.3640  133.6900 N   0  0  0  0  0  0  0  0  0  0  0  0
  144.9970  162.6750  134.0960 O   0  0  0  0  0  0  0  0  0  0  0  0
  146.8310  160.5240  133.5460 C   0  0  0  0  0  0  0  0  0  0  0  0
  147.3010  159.2510  133.3070 C   0  0  0  0  0  0  0  0  0  0  0  0
  148.6040  158.7990  133.1150 C   0  0  0  0  0  0  0  0  0  0  0  0
  148.8030  157.4200  132.9320 C   0  0  0  0  0  0  0  0  0  0  0  0
  147.7040  156.5290  132.9540 C   0  0  0  0  0  0  0  0  0  0  0  0
  147.9190  155.1170  132.7870 C   0  0  0  0  0  0  0  0  0  0  0  0
  148.0900  153.9320  132.6480 C   0  0  0  0  0  0  0  0  0  0  0  0
  148.3020  152.4920  132.4720 C   0  0  0  0  0  0  0  0  0  0  0  0
  147.0850  151.8090  132.5950 O   0  0  0  0  0  0  0  0  0  0  0  0
  146.3980  157.0180  133.1510 C   0  0  0  0  0  0  0  0  0  0  0  0
  146.2250  158.3990  133.3110 C   0  0  0  0  0  0  0  0  0  0  0  0
  143.6680  154.3950  135.4170 C   0  0  0  0  0  0  0  0  0  0  0  0
  145.1770  154.5260  135.3650 C   0  0  0  0  0  0  0  0  0  0  0  0
  145.9970  153.3750  135.1670 N   0  0  0  0  0  0  0  0  0  0  0  0
  145.7230  155.6510  135.5240 O   0  0  0  0  0  0  0  0  0  0  0  0
  143.0200  155.3930  136.3970 C   0  0  0  0  0  0  0  0  0  0  0  0
  142.5960  154.2450  137.3010 C   0  0  0  0  0  0  0  0  0  0  0  0
  143.1770  153.2430  136.3150 C   0  0  0  0  0  0  0  0  0  0  0  0
  139.6823  150.9622  132.6261 H   0  0  0  0  0  0  0  0  0  0  0  0
  140.3987  151.9940  131.3420 H   0  0  0  0  0  0  0  0  0  0  0  0
  140.6977  150.2227  131.3420 H   0  0  0  0  0  0  0  0  0  0  0  0
  142.2953  151.3601  134.9597 H   0  0  0  0  0  0  0  0  0  0  0  0
  140.7293  152.1354  134.5436 H   0  0  0  0  0  0  0  0  0  0  0  0
  140.8731  150.3449  134.5436 H   0  0  0  0  0  0  0  0  0  0  0  0
  143.2060  149.7840  133.4762 H   0  0  0  0  0  0  0  0  0  0  0  0
  142.3311  149.4111  131.9523 H   0  0  0  0  0  0  0  0  0  0  0  0
  143.6599  150.6198  131.9523 H   0  0  0  0  0  0  0  0  0  0  0  0
  141.5710  155.3011  132.8964 H   0  0  0  0  0  0  0  0  0  0  0  0
  142.1444  156.2450  134.3265 H   0  0  0  0  0  0  0  0  0  0  0  0
  144.4662  156.1097  132.9386 H   0  0  0  0  0  0  0  0  0  0  0  0
  143.3120  156.0243  131.5672 H   0  0  0  0  0  0  0  0  0  0  0  0
  142.7150  160.4260  133.4920 H   0  0  0  0  0  0  0  0  0  0  0  0
  147.4197  161.4505  133.6174 H   0  0  0  0  0  0  0  0  0  0  0  0
  149.4517  159.5000  133.1068 H   0  0  0  0  0  0  0  0  0  0  0  0
  149.8192  157.0309  132.7707 H   0  0  0  0  0  0  0  0  0  0  0  0
  148.7249  152.3056  131.4738 H   0  0  0  0  0  0  0  0  0  0  0  0
  148.9970  152.1326  133.2452 H   0  0  0  0  0  0  0  0  0  0  0  0
  146.6070  152.2100  133.3690 H   0  0  0  0  0  0  0  0  0  0  0  0
  145.5370  156.3340  133.1785 H   0  0  0  0  0  0  0  0  0  0  0  0
  146.3110  153.0940  134.2120 H   0  0  0  0  0  0  0  0  0  0  0  0
  143.7325  156.0898  136.8627 H   0  0  0  0  0  0  0  0  0  0  0  0
  142.2753  156.1180  136.0369 H   0  0  0  0  0  0  0  0  0  0  0  0
  143.0893  154.2434  138.2842 H   0  0  0  0  0  0  0  0  0  0  0  0
  141.5500  154.1560  137.6297 H   0  0  0  0  0  0  0  0  0  0  0  0
  143.9856  152.6237  136.7305 H   0  0  0  0  0  0  0  0  0  0  0  0
  142.5431  152.4472  135.8968 H   0  0  0  0  0  0  0  0  0  0  0  0
  1  2  1  0
  2  3  1  0
  2  4  1  0
  2  5  1  0
  5  6  1  0
  6  7  2  0
  6  8  1  0
  8  9  1  0
  9 10  1  0
 10 11  1  0
 11 12  1  0
 12 13  2  0
 12 14  1  0
 14 15  1  0
 15 16  1  0
 16 17  1  0
 16 18  2  0
 15 19  2  0
 19 20  1  0
 20 21  2  0
 21 22  1  0
 22 23  2  0
 23 24  1  0
 24 25  3  0
 25 26  1  0
 26 27  1  0
 23 28  1  0
 28 29  2  0
  8 30  1  0
 30 31  1  0
 31 32  1  0
 31 33  2  0
 30 34  1  0
 34 35  1  0
 35 36  1  0
 29 14  1  0
 36 30  1  0
 29 20  1  0
  1 37  1  0
  1 38  1  0
  1 39  1  0
  3 40  1  0
  3 41  1  0
  3 42  1  0
  4 43  1  0
  4 44  1  0
  4 45  1  0
  9 46  1  0
  9 47  1  0
 10 48  1  0
 10 49  1  0
 17 50  1  0
 19 51  1  0
 21 52  1  0
 22 53  1  0
 26 54  1  0
 26 55  1  0
 27 56  1  0
 28 57  1  0
 32 58  1  0
 34 59  1  0
 34 60  1  0
 35 61  1  0
 35 62  1  0
 36 63  1  0
 36 64  1  0
M  CHG  2  17  -1  32  -1
M  END
>  <UniqueID>  (45) 
45

>  <SMILES>  (45) 
CC(C)(C)OC(=O)N(CCOC(=O)n1c(C([NH-])=O)cc2ccc(C#CCO)cc21)C1(C([NH-])=O)CCC1

>  <Energy>  (45) 
152.28391836706498

>  <Genealogy>  (45) 
CC(C)(C)OC(=O)N(CCOC(=O)n1c(C([NH-])=O)cc2ccc(C#CCO)cc21)C1(C([NH-])=O)CCC1 (protonated)
CC(C)(C)OC(=O)N(CCOC(=O)n1c(C([NH-])=O)cc2ccc(C#CCO)cc21)C1(C([NH-])=O)CCC1 (3D coordinates assigned)
CC(C)(C)OC(=O)N(CCOC(=O)n1c(C([NH-])=O)cc2ccc(C#CCO)cc21)C1(C([NH-])=O)CCC1 (nonaromatic ring conformer: 152.28391836706498 kcal/mol)

>  <smiles>  (45) 
CC(C)(C)OC(=O)N(CCOC(=O)n1c(C(N)=O)cc2ccc(C#CCO)cc21)C1(C(N)=O)CCC1

>  <score_type>  (45) 
oracle

>  <origin>  (45) 
adg

>  <m_score__min__energy>  (45) 
-8.3399999999999999

>  <m_primary>  (45) 
energy

$$$$
45:0
     RDKit          3D

 33 35  0  0  0  0  0  0  0  0999 V2000
  143.9990  162.2210  133.7250 C   0  0  0  0  0  0  0  0  0  0  0  0
  145.2340  161.4260  134.0100 C   0  0  0  0  0  0  0  0  0  0  0  0
  146.2720  162.0220  134.4030 O   0  0  0  0  0  0  0  0  0  0  0  0
  145.2690  160.0100  133.7750 N   0  0  0  0  0  0  0  0  0  0  0  0
  146.3450  159.2340  133.4640 C   0  0  0  0  0  0  0  0  0  0  0  0
  147.7080  159.7220  133.1710 C   0  0  0  0  0  0  0  0  0  0  0  0
  147.8890  160.8700  132.3450 N   0  0  0  0  0  0  0  0  0  0  0  0
  148.7160  159.1540  133.6670 O   0  0  0  0  0  0  0  0  0  0  0  0
  145.9700  157.8940  133.3730 C   0  0  0  0  0  0  0  0  0  0  0  0
  144.6170  157.8760  133.6300 C   0  0  0  0  0  0  0  0  0  0  0  0
  143.7240  156.8100  133.6650 C   0  0  0  0  0  0  0  0  0  0  0  0
  142.3780  157.0870  133.9640 C   0  0  0  0  0  0  0  0  0  0  0  0
  141.9590  158.4120  134.2370 C   0  0  0  0  0  0  0  0  0  0  0  0
  140.5110  158.7000  134.5180 C   0  0  0  0  0  0  0  0  0  0  0  0
  139.7560  158.7090  133.2710 N   0  0  0  0  0  0  0  0  0  0  0  0
  139.2310  157.6360  132.7020 N   0  0  0  0  0  0  0  0  0  0  0  0
  138.6750  157.9530  131.5390 N   0  0  0  0  0  0  0  0  0  0  0  0
  138.8660  159.2760  131.3650 C   0  0  0  0  0  0  0  0  0  0  0  0
  138.3350  160.1900  129.9680 Cl  0  0  0  0  0  0  0  0  0  0  0  0
  139.5530  159.7530  132.4520 C   0  0  0  0  0  0  0  0  0  0  0  0
  139.9790  161.0230  132.6680 F   0  0  0  0  0  0  0  0  0  0  0  0
  142.8920  159.4710  134.1810 C   0  0  0  0  0  0  0  0  0  0  0  0
  144.2200  159.1670  133.8670 C   0  0  0  0  0  0  0  0  0  0  0  0
  143.5302  162.5228  134.6733 H   0  0  0  0  0  0  0  0  0  0  0  0
  144.2655  163.1176  133.1461 H   0  0  0  0  0  0  0  0  0  0  0  0
  143.2932  161.6072  133.1461 H   0  0  0  0  0  0  0  0  0  0  0  0
  147.5030  161.7990  132.6220 H   0  0  0  0  0  0  0  0  0  0  0  0
  146.6171  157.0343  133.1446 H   0  0  0  0  0  0  0  0  0  0  0  0
  144.0603  155.7820  133.4649 H   0  0  0  0  0  0  0  0  0  0  0  0
  141.6445  156.2676  133.9860 H   0  0  0  0  0  0  0  0  0  0  0  0
  140.1070  157.9228  135.1834 H   0  0  0  0  0  0  0  0  0  0  0  0
  140.4246  159.6846  135.0009 H   0  0  0  0  0  0  0  0  0  0  0  0
  142.5819  160.5076  134.3792 H   0  0  0  0  0  0  0  0  0  0  0  0
  1  2  1  0
  2  3  2  0
  2  4  1  0
  4  5  1  0
  5  6  1  0
  6  7  1  0
  6  8  2  0
  5  9  2  0
  9 10  1  0
 10 11  2  0
 11 12  1  0
 12 13  2  0
 13 14  1  0
 14 15  1  0
 15 16  1  0
 16 17  2  0
 17 18  1  0
 18 19  1  0
 18 20  2  0
 20 21  1  0
 13 22  1  0
 22 23  2  0
 23  4  1  0
 23 10  1  0
 20 15  1  0
  1 24  1  0
  1 25  1  0
  1 26  1  0
  7 27  1  0
  9 28  1  0
 11 29  1  0
 12 30  1  0
 14 31  1  0
 14 32  1  0
 22 33  1  0
M  CHG  1   7  -1
M  END
>  <UniqueID>  (46) 
46

>  <SMILES>  (46) 
CC(=O)n1c(C([NH-])=O)cc2ccc(Cn3nnc(Cl)c3F)cc21

>  <Energy>  (46) 
108.950897116808

>  <Genealogy>  (46) 
CC(=O)n1c(C([NH-])=O)cc2ccc(Cn3nnc(Cl)c3F)cc21 (protonated)
CC(=O)n1c(C([NH-])=O)cc2ccc(Cn3nnc(Cl)c3F)cc21 (3D coordinates assigned)
CC(=O)n1c(C([NH-])=O)cc2ccc(Cn3nnc(Cl)c3F)cc21 (optimized conformer: 108.950897116808 kcal/mol)

>  <smiles>  (46) 
CC(=O)n1c(C(N)=O)cc2ccc(Cn3nnc(Cl)c3F)cc21

>  <score_type>  (46) 
oracle

>  <origin>  (46) 
adg

>  <m_score__min__energy>  (46) 
-7.2999999999999998

>  <m_primary>  (46) 
energy

$$$$
46:0
     RDKit          3D

 34 35  0  0  0  0  0  0  0  0999 V2000
  143.9550  164.2350  133.0650 C   0  0  0  0  0  0  0  0  0  0  0  0
  143.6290  162.8530  133.3850 N   0  0  0  0  0  0  0  0  0  0  0  0
  144.5330  161.9840  134.0740 C   0  0  0  0  0  0  0  0  0  0  0  0
  145.3580  162.4580  134.9000 O   0  0  0  0  0  0  0  0  0  0  0  0
  144.5090  160.5730  133.8110 N   0  0  0  0  0  0  0  0  0  0  0  0
  143.4630  159.7110  133.9700 C   0  0  0  0  0  0  0  0  0  0  0  0
  142.0720  160.0830  134.3010 C   0  0  0  0  0  0  0  0  0  0  0  0
  141.3210  160.9460  133.4500 N   0  0  0  0  0  0  0  0  0  0  0  0
  141.5230  159.5980  135.3250 O   0  0  0  0  0  0  0  0  0  0  0  0
  143.8630  158.4030  133.7000 C   0  0  0  0  0  0  0  0  0  0  0  0
  145.1940  158.4910  133.3620 C   0  0  0  0  0  0  0  0  0  0  0  0
  146.0970  157.4890  133.0180 C   0  0  0  0  0  0  0  0  0  0  0  0
  147.4250  157.8640  132.7540 C   0  0  0  0  0  0  0  0  0  0  0  0
  147.8240  159.2210  132.8380 C   0  0  0  0  0  0  0  0  0  0  0  0
  149.2620  159.6050  132.6020 C   0  0  0  0  0  0  0  0  0  0  0  0
  149.8310  158.9360  131.3440 C   0  0  0  0  0  0  0  0  0  0  0  0
  149.5570  159.7460  130.1140 C   0  0  0  0  0  0  0  0  0  0  0  0
  150.6270  160.1100  129.2460 N   0  0  0  0  0  0  0  0  0  0  0  0
  148.3760  160.0750  129.8260 O   0  0  0  0  0  0  0  0  0  0  0  0
  146.8800  160.2090  133.1980 C   0  0  0  0  0  0  0  0  0  0  0  0
  145.5600  159.8100  133.4370 C   0  0  0  0  0  0  0  0  0  0  0  0
  144.0895  164.8050  133.9961 H   0  0  0  0  0  0  0  0  0  0  0  0
  144.8851  164.2660  132.4785 H   0  0  0  0  0  0  0  0  0  0  0  0
  143.1368  164.6784  132.4785 H   0  0  0  0  0  0  0  0  0  0  0  0
  141.6920  161.8820  133.1720 H   0  0  0  0  0  0  0  0  0  0  0  0
  143.2457  157.4938  133.7471 H   0  0  0  0  0  0  0  0  0  0  0  0
  145.7809  156.4373  132.9549 H   0  0  0  0  0  0  0  0  0  0  0  0
  148.1629  157.0959  132.4791 H   0  0  0  0  0  0  0  0  0  0  0  0
  149.3242  160.6969  132.4838 H   0  0  0  0  0  0  0  0  0  0  0  0
  149.8526  159.2667  133.4662 H   0  0  0  0  0  0  0  0  0  0  0  0
  150.9188  158.8228  131.4614 H   0  0  0  0  0  0  0  0  0  0  0  0
  149.3435  157.9571  131.2257 H   0  0  0  0  0  0  0  0  0  0  0  0
  151.1120  159.3940  128.6620 H   0  0  0  0  0  0  0  0  0  0  0  0
  147.1751  161.2648  133.2881 H   0  0  0  0  0  0  0  0  0  0  0  0
  1  2  1  0
  2  3  1  0
  3  4  2  0
  3  5  1  0
  5  6  1  0
  6  7  1  0
  7  8  1  0
  7  9  2  0
  6 10  2  0
 10 11  1  0
 11 12  2  0
 12 13  1  0
 13 14  2  0
 14 15  1  0
 15 16  1  0
 16 17  1  0
 17 18  1  0
 17 19  2  0
 14 20  1  0
 20 21  2  0
 21  5  1  0
 21 11  1  0
  1 22  1  0
  1 23  1  0
  1 24  1  0
  8 25  1  0
 10 26  1  0
 12 27  1  0
 13 28  1  0
 15 29  1  0
 15 30  1  0
 16 31  1  0
 16 32  1  0
 18 33  1  0
 20 34  1  0
M  CHG  3   2  -1   8  -1  18  -1
M  END
>  <UniqueID>  (47) 
47

>  <SMILES>  (47) 
C[N-]C(=O)n1c(C([NH-])=O)cc2ccc(CCC([NH-])=O)cc21

>  <Energy>  (47) 
66.85193886438665

>  <Genealogy>  (47) 
C[N-]C(=O)n1c(C([NH-])=O)cc2ccc(CCC([NH-])=O)cc21 (protonated)
C[N-]C(=O)n1c(C([NH-])=O)cc2ccc(CCC([NH-])=O)cc21 (3D coordinates assigned)
C[N-]C(=O)n1c(C([NH-])=O)cc2ccc(CCC([NH-])=O)cc21 (optimized conformer: 66.85193886438665 kcal/mol)

>  <smiles>  (47) 
CNC(=O)n1c(C(N)=O)cc2ccc(CCC(N)=O)cc21

>  <score_type>  (47) 
oracle

>  <origin>  (47) 
adg

>  <m_score__min__energy>  (47) 
-6.9800000000000004

>  <m_primary>  (47) 
energy

$$$$
47:0
     RDKit          3D

 47 49  0  0  0  0  0  0  0  0999 V2000
  143.9720  155.1000  133.5240 C   0  0  0  0  0  0  0  0  0  0  0  0
  145.0750  155.8460  134.2710 C   0  0  0  0  0  0  0  0  0  0  0  0
  145.9220  156.6320  133.3140 C   0  0  0  0  0  0  0  0  0  0  0  0
  146.5640  156.0350  132.4050 O   0  0  0  0  0  0  0  0  0  0  0  0
  145.9360  158.0650  133.3640 N   0  0  0  0  0  0  0  0  0  0  0  0
  147.0080  158.8930  133.5060 C   0  0  0  0  0  0  0  0  0  0  0  0
  148.4270  158.4850  133.5010 C   0  0  0  0  0  0  0  0  0  0  0  0
  148.9120  157.4780  132.6170 N   0  0  0  0  0  0  0  0  0  0  0  0
  149.2400  159.0700  134.2650 O   0  0  0  0  0  0  0  0  0  0  0  0
  146.5850  160.2130  133.6570 C   0  0  0  0  0  0  0  0  0  0  0  0
  145.2100  160.1640  133.6000 C   0  0  0  0  0  0  0  0  0  0  0  0
  144.2680  161.1800  133.7380 C   0  0  0  0  0  0  0  0  0  0  0  0
  142.9070  160.8250  133.7200 C   0  0  0  0  0  0  0  0  0  0  0  0
  142.5140  159.4700  133.5770 C   0  0  0  0  0  0  0  0  0  0  0  0
  141.1220  159.1090  133.6090 N   0  0  0  0  0  0  0  0  0  0  0  0
  140.4600  158.8190  134.8870 C   0  0  0  0  0  0  0  0  0  0  0  0
  139.7450  157.4680  134.7970 C   0  0  0  0  0  0  0  0  0  0  0  0
  138.8370  157.3290  133.5410 C   0  0  0  0  0  0  0  0  0  0  0  0
  139.2030  156.1760  132.7990 O   0  0  0  0  0  0  0  0  0  0  0  0
  140.3570  155.5790  133.3520 C   0  0  0  0  0  0  0  0  0  0  0  0
  138.9170  158.5540  132.6070 C   0  0  0  0  0  0  0  0  0  0  0  0
  140.3660  158.9920  132.3530 C   0  0  0  0  0  0  0  0  0  0  0  0
  143.5010  158.4700  133.4240 C   0  0  0  0  0  0  0  0  0  0  0  0
  144.8440  158.8550  133.4290 C   0  0  0  0  0  0  0  0  0  0  0  0
  143.2868  154.6366  134.2491 H   0  0  0  0  0  0  0  0  0  0  0  0
  143.4141  155.8070  132.8924 H   0  0  0  0  0  0  0  0  0  0  0  0
  144.4204  154.3190  132.8924 H   0  0  0  0  0  0  0  0  0  0  0  0
  144.6181  156.5334  134.9981 H   0  0  0  0  0  0  0  0  0  0  0  0
  145.7114  155.1130  134.7884 H   0  0  0  0  0  0  0  0  0  0  0  0
  148.3320  157.1240  131.8280 H   0  0  0  0  0  0  0  0  0  0  0  0
  149.9060  157.1760  132.6720 H   0  0  0  0  0  0  0  0  0  0  0  0
  147.2156  161.1040  133.7928 H   0  0  0  0  0  0  0  0  0  0  0  0
  144.5787  162.2284  133.8575 H   0  0  0  0  0  0  0  0  0  0  0  0
  142.1394  161.6068  133.8179 H   0  0  0  0  0  0  0  0  0  0  0  0
  141.2116  158.7832  135.6893 H   0  0  0  0  0  0  0  0  0  0  0  0
  139.7259  159.6082  135.1068 H   0  0  0  0  0  0  0  0  0  0  0  0
  140.5048  156.6732  134.7670 H   0  0  0  0  0  0  0  0  0  0  0  0
  139.0922  157.3879  135.6787 H   0  0  0  0  0  0  0  0  0  0  0  0
  137.8048  157.2469  133.9122 H   0  0  0  0  0  0  0  0  0  0  0  0
  140.2959  155.6106  134.4499 H   0  0  0  0  0  0  0  0  0  0  0  0
  140.4243  154.5329  133.0185 H   0  0  0  0  0  0  0  0  0  0  0  0
  141.2497  156.1284  133.0185 H   0  0  0  0  0  0  0  0  0  0  0  0
  138.4500  158.2975  131.6446 H   0  0  0  0  0  0  0  0  0  0  0  0
  138.3915  159.3877  133.0956 H   0  0  0  0  0  0  0  0  0  0  0  0
  140.8566  158.2477  131.7086 H   0  0  0  0  0  0  0  0  0  0  0  0
  140.3481  159.9791  131.8679 H   0  0  0  0  0  0  0  0  0  0  0  0
  143.2185  157.4137  133.3038 H   0  0  0  0  0  0  0  0  0  0  0  0
  1  2  1  0
  2  3  1  0
  3  4  2  0
  3  5  1  0
  5  6  1  0
  6  7  1  0
  7  8  1  0
  7  9  2  0
  6 10  2  0
 10 11  1  0
 11 12  2  0
 12 13  1  0
 13 14  2  0
 14 15  1  0
 15 16  1  0
 16 17  1  0
 17 18  1  0
 18 19  1  0
 19 20  1  0
 18 21  1  0
 21 22  1  0
 14 23  1  0
 23 24  2  0
 24  5  1  0
 24 11  1  0
 22 15  1  0
  1 25  1  0
  1 26  1  0
  1 27  1  0
  2 28  1  0
  2 29  1  0
  8 30  1  0
  8 31  1  0
 10 32  1  0
 12 33  1  0
 13 34  1  0
 16 35  1  0
 16 36  1  0
 17 37  1  0
 17 38  1  0
 18 39  1  0
 20 40  1  0
 20 41  1  0
 20 42  1  0
 21 43  1  0
 21 44  1  0
 22 45  1  0
 22 46  1  0
 23 47  1  0
M  END
>  <UniqueID>  (48) 
48

>  <SMILES>  (48) 
CCC(=O)n1c(C(N)=O)cc2ccc(N3CCC(OC)CC3)cc21

>  <Energy>  (48) 
94.09580766006198

>  <Genealogy>  (48) 
CCC(=O)n1c(C(N)=O)cc2ccc(N3CCC(OC)CC3)cc21 (3D coordinates assigned)
CCC(=O)n1c(C(N)=O)cc2ccc(N3CCC(OC)CC3)cc21 (nonaromatic ring conformer: 94.09580766006198 kcal/mol)

>  <smiles>  (48) 
CCC(=O)n1c(C(N)=O)cc2ccc(N3CCC(OC)CC3)cc21

>  <score_type>  (48) 
oracle

>  <origin>  (48) 
adg

>  <m_score__min__energy>  (48) 
-7.6799999999999997

>  <m_primary>  (48) 
energy

$$$$
48:0
     RDKit          3D

 50 51  0  0  0  0  0  0  0  0999 V2000
  150.3340  150.4530  130.8630 C   0  0  0  0  0  0  0  0  0  0  0  0
  149.3310  151.1400  131.6970 N   0  0  0  0  0  0  0  0  0  0  0  0
  148.5850  150.1480  132.4880 C   0  0  0  0  0  0  0  0  0  0  0  0
  149.9690  152.1330  132.5900 C   0  0  0  0  0  0  0  0  0  0  0  0
  149.1580  153.4410  132.6520 C   0  0  0  0  0  0  0  0  0  0  0  0
  147.9020  153.3500  133.5380 C   0  0  0  0  0  0  0  0  0  0  0  0
  147.9580  154.3040  134.7420 C   0  0  0  0  0  0  0  0  0  0  0  0
  146.6060  154.9820  135.0170 C   0  0  0  0  0  0  0  0  0  0  0  0
  145.4530  154.3200  134.2470 C   0  0  0  0  0  0  0  0  0  0  0  0
  145.2160  155.0200  132.9040 C   0  0  0  0  0  0  0  0  0  0  0  0
  145.6450  156.4600  132.9800 C   0  0  0  0  0  0  0  0  0  0  0  0
  146.9890  156.8180  132.7060 C   0  0  0  0  0  0  0  0  0  0  0  0
  147.4070  158.1560  132.8020 C   0  0  0  0  0  0  0  0  0  0  0  0
  146.4670  159.1060  133.1920 C   0  0  0  0  0  0  0  0  0  0  0  0
  146.6000  160.4670  133.3530 C   0  0  0  0  0  0  0  0  0  0  0  0
  145.3440  160.9150  133.7590 C   0  0  0  0  0  0  0  0  0  0  0  0
  145.0680  162.3160  134.1410 C   0  0  0  0  0  0  0  0  0  0  0  0
  145.9560  163.0290  134.9990 N   0  0  0  0  0  0  0  0  0  0  0  0
  144.0600  162.9060  133.6680 O   0  0  0  0  0  0  0  0  0  0  0  0
  144.4670  159.8740  133.8370 N   0  0  0  0  0  0  0  0  0  0  0  0
  143.0610  159.9300  134.1320 C   0  0  0  0  0  0  0  0  0  0  0  0
  142.2650  160.4860  133.3330 O   0  0  0  0  0  0  0  0  0  0  0  0
  142.5730  159.3950  135.3190 O   0  0  0  0  0  0  0  0  0  0  0  0
  145.1710  158.7730  133.4880 C   0  0  0  0  0  0  0  0  0  0  0  0
  144.7230  157.4510  133.3800 C   0  0  0  0  0  0  0  0  0  0  0  0
  151.0675  149.9506  131.5108 H   0  0  0  0  0  0  0  0  0  0  0  0
  149.8339  149.7069  130.2280 H   0  0  0  0  0  0  0  0  0  0  0  0
  150.8490  151.1889  130.2280 H   0  0  0  0  0  0  0  0  0  0  0  0
  148.7342  150.3463  133.5596 H   0  0  0  0  0  0  0  0  0  0  0  0
  147.5138  150.2179  132.2478 H   0  0  0  0  0  0  0  0  0  0  0  0
  148.9495  149.1383  132.2478 H   0  0  0  0  0  0  0  0  0  0  0  0
  150.0409  151.7089  133.6024 H   0  0  0  0  0  0  0  0  0  0  0  0
  150.9672  152.3649  132.1903 H   0  0  0  0  0  0  0  0  0  0  0  0
  149.8078  154.2337  133.0512 H   0  0  0  0  0  0  0  0  0  0  0  0
  148.8146  153.6547  131.6291 H   0  0  0  0  0  0  0  0  0  0  0  0
  147.0218  153.6030  132.9286 H   0  0  0  0  0  0  0  0  0  0  0  0
  147.8433  152.3234  133.9286 H   0  0  0  0  0  0  0  0  0  0  0  0
  148.2533  153.7308  135.6332 H   0  0  0  0  0  0  0  0  0  0  0  0
  148.6877  155.0937  134.5100 H   0  0  0  0  0  0  0  0  0  0  0  0
  146.3926  154.9210  136.0944 H   0  0  0  0  0  0  0  0  0  0  0  0
  146.6792  156.0265  134.6798 H   0  0  0  0  0  0  0  0  0  0  0  0
  145.7023  153.2645  134.0634 H   0  0  0  0  0  0  0  0  0  0  0  0
  144.5369  154.4003  134.8505 H   0  0  0  0  0  0  0  0  0  0  0  0
  145.7970  154.5096  132.1218 H   0  0  0  0  0  0  0  0  0  0  0  0
  144.1430  154.9796  132.6651 H   0  0  0  0  0  0  0  0  0  0  0  0
  147.7114  156.0410  132.4155 H   0  0  0  0  0  0  0  0  0  0  0  0
  148.4444  158.4439  132.5761 H   0  0  0  0  0  0  0  0  0  0  0  0
  147.5049  161.0721  133.1949 H   0  0  0  0  0  0  0  0  0  0  0  0
  146.9780  163.0730  134.7980 H   0  0  0  0  0  0  0  0  0  0  0  0
  143.6774  157.1908  133.6016 H   0  0  0  0  0  0  0  0  0  0  0  0
  1  2  1  0
  2  3  1  0
  2  4  1  0
  4  5  1  0
  5  6  1  0
  6  7  1  0
  7  8  1  0
  8  9  1  0
  9 10  1  0
 10 11  1  0
 11 12  2  0
 12 13  1  0
 13 14  2  0
 14 15  1  0
 15 16  2  0
 16 17  1  0
 17 18  1  0
 17 19  2  0
 16 20  1  0
 20 21  1  0
 21 22  2  0
 21 23  1  0
 20 24  1  0
 24 25  2  0
 25 11  1  0
 24 14  1  0
  1 26  1  0
  1 27  1  0
  1 28  1  0
  3 29  1  0
  3 30  1  0
  3 31  1  0
  4 32  1  0
  4 33  1  0
  5 34  1  0
  5 35  1  0
  6 36  1  0
  6 37  1  0
  7 38  1  0
  7 39  1  0
  8 40  1  0
  8 41  1  0
  9 42  1  0
  9 43  1  0
 10 44  1  0
 10 45  1  0
 12 46  1  0
 13 47  1  0
 15 48  1  0
 18 49  1  0
 25 50  1  0
M  CHG  2  18  -1  23  -1
M  END
>  <UniqueID>  (49) 
49

>  <SMILES>  (49) 
CN(C)CCCCCCCc1ccc2cc(C([NH-])=O)n(C(=O)[O-])c2c1

>  <Energy>  (49) 
78.80369803552317

>  <Genealogy>  (49) 
CN(C)CCCCCCCc1ccc2cc(C([NH-])=O)n(C(=O)[O-])c2c1 (protonated)
CN(C)CCCCCCCc1ccc2cc(C([NH-])=O)n(C(=O)[O-])c2c1 (3D coordinates assigned)
CN(C)CCCCCCCc1ccc2cc(C([NH-])=O)n(C(=O)[O-])c2c1 (optimized conformer: 78.80369803552317 kcal/mol)

>  <smiles>  (49) 
CN(C)CCCCCCCc1ccc2cc(C(N)=O)n(C(=O)O)c2c1

>  <score_type>  (49) 
oracle

>  <origin>  (49) 
adg

>  <m_score__min__energy>  (49) 
-7.4199999999999999

>  <m_primary>  (49) 
energy

$$$$
49:0
     RDKit          3D

 30 31  0  0  0  0  0  0  0  0999 V2000
  144.3550  157.0390  134.4470 N   0  0  0  0  0  0  0  0  0  0  0  0
  145.7620  156.8180  134.4420 C   0  0  0  0  0  0  0  0  0  0  0  0
  146.2550  155.9690  135.2320 O   0  0  0  0  0  0  0  0  0  0  0  0
  146.6550  157.6090  133.5700 C   0  0  0  0  0  0  0  0  0  0  0  0
  147.8660  157.1280  133.0760 C   0  0  0  0  0  0  0  0  0  0  0  0
  148.4290  158.1840  132.3970 C   0  0  0  0  0  0  0  0  0  0  0  0
  149.6310  158.2610  131.7010 C   0  0  0  0  0  0  0  0  0  0  0  0
  149.9490  159.4760  131.0680 C   0  0  0  0  0  0  0  0  0  0  0  0
  149.0610  160.5750  131.1360 C   0  0  0  0  0  0  0  0  0  0  0  0
  149.3890  161.8020  130.4770 N   0  0  0  0  0  0  0  0  0  0  0  0
  147.8500  160.4610  131.8490 C   0  0  0  0  0  0  0  0  0  0  0  0
  147.5670  159.2460  132.4870 C   0  0  0  0  0  0  0  0  0  0  0  0
  146.4710  158.9090  133.2010 N   0  0  0  0  0  0  0  0  0  0  0  0
  145.3250  159.7410  133.4380 C   0  0  0  0  0  0  0  0  0  0  0  0
  145.4490  160.8170  134.0830 O   0  0  0  0  0  0  0  0  0  0  0  0
  144.0690  159.3380  132.9760 O   0  0  0  0  0  0  0  0  0  0  0  0
  142.8550  159.7140  133.6170 C   0  0  0  0  0  0  0  0  0  0  0  0
  141.7880  158.6570  133.3620 C   0  0  0  0  0  0  0  0  0  0  0  0
  140.3190  159.4000  132.6740 Cl  0  0  0  0  0  0  0  0  0  0  0  0
  143.9600  157.9820  134.6560 H   0  0  0  0  0  0  0  0  0  0  0  0
  148.2834  156.1181  133.2022 H   0  0  0  0  0  0  0  0  0  0  0  0
  150.3116  157.3985  131.6474 H   0  0  0  0  0  0  0  0  0  0  0  0
  150.8955  159.5724  130.5158 H   0  0  0  0  0  0  0  0  0  0  0  0
  148.6640  162.3350  129.9490 H   0  0  0  0  0  0  0  0  0  0  0  0
  150.3590  162.1870  130.5160 H   0  0  0  0  0  0  0  0  0  0  0  0
  147.1456  161.3041  131.9030 H   0  0  0  0  0  0  0  0  0  0  0  0
  143.0268  159.8057  134.6996 H   0  0  0  0  0  0  0  0  0  0  0  0
  142.5145  160.6787  133.2128 H   0  0  0  0  0  0  0  0  0  0  0  0
  142.1802  157.9106  132.6556 H   0  0  0  0  0  0  0  0  0  0  0  0
  141.5285  158.1776  134.3174 H   0  0  0  0  0  0  0  0  0  0  0  0
  1  2  1  0
  2  3  2  0
  2  4  1  0
  4  5  2  0
  5  6  1  0
  6  7  2  0
  7  8  1  0
  8  9  2  0
  9 10  1  0
  9 11  1  0
 11 12  2  0
 12 13  1  0
 13 14  1  0
 14 15  2  0
 14 16  1  0
 16 17  1  0
 17 18  1  0
 18 19  1  0
 13  4  1  0
 12  6  1  0
  1 20  1  0
  5 21  1  0
  7 22  1  0
  8 23  1  0
 10 24  1  0
 10 25  1  0
 11 26  1  0
 17 27  1  0
 17 28  1  0
 18 29  1  0
 18 30  1  0
M  CHG  1   1  -1
M  END
>  <UniqueID>  (50) 
50

>  <SMILES>  (50) 
[NH-]C(=O)c1cc2ccc(N)cc2n1C(=O)OCCCl

>  <Energy>  (50) 
63.57581724672075

>  <Genealogy>  (50) 
[NH-]C(=O)c1cc2ccc(N)cc2n1C(=O)OCCCl (protonated)
[NH-]C(=O)c1cc2ccc(N)cc2n1C(=O)OCCCl (3D coordinates assigned)
[NH-]C(=O)c1cc2ccc(N)cc2n1C(=O)OCCCl (optimized conformer: 63.57581724672075 kcal/mol)

>  <smiles>  (50) 
NC(=O)c1cc2ccc(N)cc2n1C(=O)OCCCl

>  <score_type>  (50) 
oracle

>  <origin>  (50) 
adg

>  <m_score__min__energy>  (50) 
-5.9699999999999998

>  <m_primary>  (50) 
energy

$$$$
50:0
     RDKit          3D

 37 39  0  0  0  0  0  0  0  0999 V2000
  142.6740  156.7670  132.6250 N   0  0  0  0  0  0  0  0  0  0  0  0
  143.5400  155.7000  133.0180 C   0  0  0  0  0  0  0  0  0  0  0  0
  144.7030  155.9720  133.4180 O   0  0  0  0  0  0  0  0  0  0  0  0
  143.0710  154.2970  132.9950 C   0  0  0  0  0  0  0  0  0  0  0  0
  143.9130  153.2000  132.8250 C   0  0  0  0  0  0  0  0  0  0  0  0
  143.0800  152.1070  132.7670 C   0  0  0  0  0  0  0  0  0  0  0  0
  143.3870  150.7570  132.6080 C   0  0  0  0  0  0  0  0  0  0  0  0
  142.3260  149.8370  132.6070 C   0  0  0  0  0  0  0  0  0  0  0  0
  140.9890  150.2760  132.7780 C   0  0  0  0  0  0  0  0  0  0  0  0
  139.8590  149.2820  132.7490 C   0  0  0  0  0  0  0  0  0  0  0  0
  139.0770  149.3980  131.4250 C   0  0  0  0  0  0  0  0  0  0  0  0
  139.6010  148.5530  130.2350 C   0  0  0  0  0  0  0  0  0  0  0  0
  140.9570  148.8370  129.9720 O   0  0  0  0  0  0  0  0  0  0  0  0
  139.3060  147.0640  130.3090 C   0  0  0  0  0  0  0  0  0  0  0  0
  138.5160  147.0970  129.1420 O   0  0  0  0  0  0  0  0  0  0  0  0
  138.7430  148.4810  128.9810 C   0  0  0  0  0  0  0  0  0  0  0  0
  140.7150  151.6540  132.9230 C   0  0  0  0  0  0  0  0  0  0  0  0
  141.7910  152.5520  132.9020 C   0  0  0  0  0  0  0  0  0  0  0  0
  141.7670  153.8960  133.0420 N   0  0  0  0  0  0  0  0  0  0  0  0
  140.6050  154.7130  133.2650 C   0  0  0  0  0  0  0  0  0  0  0  0
  140.6830  155.7530  133.9700 O   0  0  0  0  0  0  0  0  0  0  0  0
  139.3800  154.3560  132.7150 O   0  0  0  0  0  0  0  0  0  0  0  0
  141.7230  156.5780  132.2360 H   0  0  0  0  0  0  0  0  0  0  0  0
  143.0020  157.7560  132.6820 H   0  0  0  0  0  0  0  0  0  0  0  0
  145.0106  153.2066  132.7526 H   0  0  0  0  0  0  0  0  0  0  0  0
  144.4279  150.4225  132.4871 H   0  0  0  0  0  0  0  0  0  0  0  0
  142.5344  148.7654  132.4722 H   0  0  0  0  0  0  0  0  0  0  0  0
  140.2680  148.2650  132.8408 H   0  0  0  0  0  0  0  0  0  0  0  0
  139.1772  149.4913  133.5864 H   0  0  0  0  0  0  0  0  0  0  0  0
  138.0394  149.0905  131.6218 H   0  0  0  0  0  0  0  0  0  0  0  0
  139.1915  150.4458  131.1104 H   0  0  0  0  0  0  0  0  0  0  0  0
  141.3240  148.1450  129.3590 H   0  0  0  0  0  0  0  0  0  0  0  0
  140.2026  146.4339  130.2142 H   0  0  0  0  0  0  0  0  0  0  0  0
  138.8753  146.6510  131.2331 H   0  0  0  0  0  0  0  0  0  0  0  0
  139.2893  148.7323  128.0599 H   0  0  0  0  0  0  0  0  0  0  0  0
  137.8802  149.1565  128.8841 H   0  0  0  0  0  0  0  0  0  0  0  0
  139.6831  152.0134  133.0493 H   0  0  0  0  0  0  0  0  0  0  0  0
  1  2  1  0
  2  3  2  0
  2  4  1  0
  4  5  2  0
  5  6  1  0
  6  7  2  0
  7  8  1  0
  8  9  2  0
  9 10  1  0
 10 11  1  0
 11 12  1  0
 12 13  1  0
 12 14  1  0
 14 15  1  0
 15 16  1  0
  9 17  1  0
 17 18  2  0
 18 19  1  0
 19 20  1  0
 20 21  2  0
 20 22  1  0
 19  4  1  0
 18  6  1  0
 16 12  1  0
  1 23  1  0
  1 24  1  0
  5 25  1  0
  7 26  1  0
  8 27  1  0
 10 28  1  0
 10 29  1  0
 11 30  1  0
 11 31  1  0
 13 32  1  0
 14 33  1  0
 14 34  1  0
 16 35  1  0
 16 36  1  0
 17 37  1  0
M  CHG  1  22  -1
M  END
>  <UniqueID>  (51) 
51

>  <SMILES>  (51) 
NC(=O)c1cc2ccc(CCC3(O)COC3)cc2n1C(=O)[O-]

>  <Energy>  (51) 
145.27952100851536

>  <Genealogy>  (51) 
NC(=O)c1cc2ccc(CCC3(O)COC3)cc2n1C(=O)[O-] (protonated)
NC(=O)c1cc2ccc(CCC3(O)COC3)cc2n1C(=O)[O-] (3D coordinates assigned)
NC(=O)c1cc2ccc(CCC3(O)COC3)cc2n1C(=O)[O-] (nonaromatic ring conformer: 145.27952100851536 kcal/mol)

>  <smiles>  (51) 
NC(=O)c1cc2ccc(CCC3(O)COC3)cc2n1C(=O)O

>  <score_type>  (51) 
oracle

>  <origin>  (51) 
adg

>  <m_score__min__energy>  (51) 
-7.4199999999999999

>  <m_primary>  (51) 
energy

$$$$
51:0
     RDKit          3D

 29 30  0  0  0  0  0  0  0  0999 V2000
  149.2260  159.2820  131.0400 C   0  0  0  0  0  0  0  0  0  0  0  0
  148.6320  158.2660  131.8380 O   0  0  0  0  0  0  0  0  0  0  0  0
  148.1070  158.5150  133.1100 C   0  0  0  0  0  0  0  0  0  0  0  0
  148.8700  158.8530  134.0550 O   0  0  0  0  0  0  0  0  0  0  0  0
  146.6930  158.3850  133.3360 N   0  0  0  0  0  0  0  0  0  0  0  0
  145.9360  157.2610  133.1960 C   0  0  0  0  0  0  0  0  0  0  0  0
  146.4490  155.8980  132.9470 C   0  0  0  0  0  0  0  0  0  0  0  0
  147.3300  155.6270  131.8570 N   0  0  0  0  0  0  0  0  0  0  0  0
  146.1490  154.9690  133.7440 O   0  0  0  0  0  0  0  0  0  0  0  0
  144.5860  157.5500  133.3700 C   0  0  0  0  0  0  0  0  0  0  0  0
  144.5360  158.8980  133.6370 C   0  0  0  0  0  0  0  0  0  0  0  0
  143.4400  159.7230  133.8660 C   0  0  0  0  0  0  0  0  0  0  0  0
  143.6750  161.0930  134.0700 C   0  0  0  0  0  0  0  0  0  0  0  0
  144.9950  161.6130  134.0500 C   0  0  0  0  0  0  0  0  0  0  0  0
  145.2290  163.0940  134.2070 C   0  0  0  0  0  0  0  0  0  0  0  0
  145.1140  163.4700  135.5340 F   0  0  0  0  0  0  0  0  0  0  0  0
  144.3040  163.8150  133.4710 F   0  0  0  0  0  0  0  0  0  0  0  0
  146.5000  163.4030  133.7590 F   0  0  0  0  0  0  0  0  0  0  0  0
  146.0810  160.7460  133.7880 C   0  0  0  0  0  0  0  0  0  0  0  0
  145.8200  159.3810  133.6100 C   0  0  0  0  0  0  0  0  0  0  0  0
  149.6729  160.0464  131.6926 H   0  0  0  0  0  0  0  0  0  0  0  0
  150.0076  158.8395  130.4050 H   0  0  0  0  0  0  0  0  0  0  0  0
  148.4569  159.7461  130.4050 H   0  0  0  0  0  0  0  0  0  0  0  0
  147.7300  156.4010  131.2810 H   0  0  0  0  0  0  0  0  0  0  0  0
  147.6510  154.6500  131.6730 H   0  0  0  0  0  0  0  0  0  0  0  0
  143.7399  156.8499  133.3074 H   0  0  0  0  0  0  0  0  0  0  0  0
  142.4188  159.3147  133.8868 H   0  0  0  0  0  0  0  0  0  0  0  0
  142.8263  161.7700  134.2472 H   0  0  0  0  0  0  0  0  0  0  0  0
  147.1081  161.1347  133.7253 H   0  0  0  0  0  0  0  0  0  0  0  0
  1  2  1  0
  2  3  1  0
  3  4  2  0
  3  5  1  0
  5  6  1  0
  6  7  1  0
  7  8  1  0
  7  9  2  0
  6 10  2  0
 10 11  1  0
 11 12  2  0
 12 13  1  0
 13 14  2  0
 14 15  1  0
 15 16  1  0
 15 17  1  0
 15 18  1  0
 14 19  1  0
 19 20  2  0
 20  5  1  0
 20 11  1  0
  1 21  1  0
  1 22  1  0
  1 23  1  0
  8 24  1  0
  8 25  1  0
 10 26  1  0
 12 27  1  0
 13 28  1  0
 19 29  1  0
M  END
>  <UniqueID>  (52) 
52

>  <SMILES>  (52) 
COC(=O)n1c(C(N)=O)cc2ccc(C(F)(F)F)cc21

>  <Energy>  (52) 
67.25915470898528

>  <Genealogy>  (52) 
COC(=O)n1c(C(N)=O)cc2ccc(C(F)(F)F)cc21 (3D coordinates assigned)
COC(=O)n1c(C(N)=O)cc2ccc(C(F)(F)F)cc21 (optimized conformer: 67.25915470898528 kcal/mol)

>  <smiles>  (52) 
COC(=O)n1c(C(N)=O)cc2ccc(C(F)(F)F)cc21

>  <score_type>  (52) 
oracle

>  <origin>  (52) 
adg

>  <m_score__min__energy>  (52) 
-5.5599999999999996

>  <m_primary>  (52) 
energy

$$$$
52:0
     RDKit          3D

 48 50  0  0  0  0  0  0  0  0999 V2000
  149.2630  159.3800  129.6720 C   0  0  0  0  0  0  0  0  0  0  0  0
  149.7080  159.1510  130.9900 O   0  0  0  0  0  0  0  0  0  0  0  0
  149.3480  160.2320  131.8280 C   0  0  0  0  0  0  0  0  0  0  0  0
  147.8370  160.4400  131.8040 C   0  0  0  0  0  0  0  0  0  0  0  0
  147.3310  160.3890  133.1330 O   0  0  0  0  0  0  0  0  0  0  0  0
  146.0460  159.9350  133.4390 C   0  0  0  0  0  0  0  0  0  0  0  0
  145.1020  160.7580  133.5910 O   0  0  0  0  0  0  0  0  0  0  0  0
  145.7960  158.5250  133.5610 N   0  0  0  0  0  0  0  0  0  0  0  0
  146.7060  157.5300  133.7740 C   0  0  0  0  0  0  0  0  0  0  0  0
  148.1760  157.6970  133.7730 C   0  0  0  0  0  0  0  0  0  0  0  0
  148.9360  157.4620  132.5870 N   0  0  0  0  0  0  0  0  0  0  0  0
  148.7710  158.0800  134.8150 O   0  0  0  0  0  0  0  0  0  0  0  0
  146.0630  156.3010  133.9010 C   0  0  0  0  0  0  0  0  0  0  0  0
  144.7220  156.5720  133.7570 C   0  0  0  0  0  0  0  0  0  0  0  0
  143.6270  155.7160  133.8020 C   0  0  0  0  0  0  0  0  0  0  0  0
  142.3480  156.2740  133.6440 C   0  0  0  0  0  0  0  0  0  0  0  0
  142.1820  157.6690  133.4500 C   0  0  0  0  0  0  0  0  0  0  0  0
  140.8630  158.2330  133.3090 N   0  0  0  0  0  0  0  0  0  0  0  0
  140.7060  159.6290  132.8650 C   0  0  0  0  0  0  0  0  0  0  0  0
  140.0260  159.6840  131.4990 C   0  0  0  0  0  0  0  0  0  0  0  0
  138.4650  158.8220  131.5690 S   0  0  0  0  0  0  0  0  0  0  0  0
  137.3320  159.7960  131.4130 O   0  0  0  0  0  0  0  0  0  0  0  0
  138.4000  157.7950  130.4740 O   0  0  0  0  0  0  0  0  0  0  0  0
  138.3560  158.0220  133.1580 C   0  0  0  0  0  0  0  0  0  0  0  0
  139.6910  157.3530  133.5120 C   0  0  0  0  0  0  0  0  0  0  0  0
  143.3220  158.5050  133.4130 C   0  0  0  0  0  0  0  0  0  0  0  0
  144.5860  157.9210  133.5530 C   0  0  0  0  0  0  0  0  0  0  0  0
  148.2852  159.8832  129.6974 H   0  0  0  0  0  0  0  0  0  0  0  0
  149.9893  160.0163  129.1451 H   0  0  0  0  0  0  0  0  0  0  0  0
  149.1673  158.4191  129.1451 H   0  0  0  0  0  0  0  0  0  0  0  0
  149.6681  160.0151  132.8578 H   0  0  0  0  0  0  0  0  0  0  0  0
  149.8408  161.1459  131.4648 H   0  0  0  0  0  0  0  0  0  0  0  0
  147.6087  161.4211  131.3619 H   0  0  0  0  0  0  0  0  0  0  0  0
  147.3670  159.6486  131.2016 H   0  0  0  0  0  0  0  0  0  0  0  0
  149.9680  157.6210  132.5850 H   0  0  0  0  0  0  0  0  0  0  0  0
  148.4880  157.0910  131.7200 H   0  0  0  0  0  0  0  0  0  0  0  0
  146.5291  155.3206  134.0789 H   0  0  0  0  0  0  0  0  0  0  0  0
  143.7586  154.6349  133.9566 H   0  0  0  0  0  0  0  0  0  0  0  0
  141.4635  155.6206  133.6711 H   0  0  0  0  0  0  0  0  0  0  0  0
  140.0921  160.1745  133.5969 H   0  0  0  0  0  0  0  0  0  0  0  0
  141.7014  160.0903  132.7850 H   0  0  0  0  0  0  0  0  0  0  0  0
  139.8519  160.7335  131.2192 H   0  0  0  0  0  0  0  0  0  0  0  0
  140.6736  159.2046  130.7501 H   0  0  0  0  0  0  0  0  0  0  0  0
  138.1113  158.7714  133.9252 H   0  0  0  0  0  0  0  0  0  0  0  0
  137.5707  157.2528  133.1174 H   0  0  0  0  0  0  0  0  0  0  0  0
  139.6603  157.0521  134.5696 H   0  0  0  0  0  0  0  0  0  0  0  0
  139.8112  156.4925  132.8374 H   0  0  0  0  0  0  0  0  0  0  0  0
  143.2174  159.5915  133.2770 H   0  0  0  0  0  0  0  0  0  0  0  0
  1  2  1  0
  2  3  1  0
  3  4  1  0
  4  5  1  0
  5  6  1  0
  6  7  2  0
  6  8  1  0
  8  9  1  0
  9 10  1  0
 10 11  1  0
 10 12  2  0
  9 13  2  0
 13 14  1  0
 14 15  2  0
 15 16  1  0
 16 17  2  0
 17 18  1  0
 18 19  1  0
 19 20  1  0
 20 21  1  0
 21 22  2  0
 21 23  2  0
 21 24  1  0
 24 25  1  0
 17 26  1  0
 26 27  2  0
 27  8  1  0
 27 14  1  0
 25 18  1  0
  1 28  1  0
  1 29  1  0
  1 30  1  0
  3 31  1  0
  3 32  1  0
  4 33  1  0
  4 34  1  0
 11 35  1  0
 11 36  1  0
 13 37  1  0
 15 38  1  0
 16 39  1  0
 19 40  1  0
 19 41  1  0
 20 42  1  0
 20 43  1  0
 24 44  1  0
 24 45  1  0
 25 46  1  0
 25 47  1  0
 26 48  1  0
M  END
>  <UniqueID>  (53) 
53

>  <SMILES>  (53) 
COCCOC(=O)n1c(C(N)=O)cc2ccc(N3CCS(=O)(=O)CC3)cc21

>  <Energy>  (53) 
84.61875697311186

>  <Genealogy>  (53) 
COCCOC(=O)n1c(C(N)=O)cc2ccc(N3CCS(=O)(=O)CC3)cc21 (3D coordinates assigned)
COCCOC(=O)n1c(C(N)=O)cc2ccc(N3CCS(=O)(=O)CC3)cc21 (nonaromatic ring conformer: 84.61875697311186 kcal/mol)

>  <smiles>  (53) 
COCCOC(=O)n1c(C(N)=O)cc2ccc(N3CCS(=O)(=O)CC3)cc21

>  <score_type>  (53) 
oracle

>  <origin>  (53) 
adg

>  <m_score__min__energy>  (53) 
-7.8700000000000001

>  <m_primary>  (53) 
energy

$$$$
53:0
     RDKit          3D

 52 54  0  0  0  0  0  0  0  0999 V2000
  139.4390  155.8730  132.8810 C   0  0  0  0  0  0  0  0  0  0  0  0
  138.7620  157.1010  133.3380 N   0  0  0  0  0  0  0  0  0  0  0  0
  139.1900  157.5230  134.6780 C   0  0  0  0  0  0  0  0  0  0  0  0
  140.6640  157.9530  134.7330 C   0  0  0  0  0  0  0  0  0  0  0  0
  141.1590  158.6440  133.5220 N   0  0  0  0  0  0  0  0  0  0  0  0
  142.5340  159.1460  133.5110 C   0  0  0  0  0  0  0  0  0  0  0  0
  142.8160  160.5380  133.6730 C   0  0  0  0  0  0  0  0  0  0  0  0
  144.1320  161.0260  133.6570 C   0  0  0  0  0  0  0  0  0  0  0  0
  145.1660  160.1160  133.4920 C   0  0  0  0  0  0  0  0  0  0  0  0
  146.5250  160.3210  133.4220 C   0  0  0  0  0  0  0  0  0  0  0  0
  147.0800  159.0550  133.2510 C   0  0  0  0  0  0  0  0  0  0  0  0
  148.5370  158.8030  133.2160 C   0  0  0  0  0  0  0  0  0  0  0  0
  149.1710  158.3190  132.0350 N   0  0  0  0  0  0  0  0  0  0  0  0
  149.2250  158.9760  134.2580 O   0  0  0  0  0  0  0  0  0  0  0  0
  146.1020  158.1080  133.2080 N   0  0  0  0  0  0  0  0  0  0  0  0
  146.2430  156.6990  132.9750 C   0  0  0  0  0  0  0  0  0  0  0  0
  147.1830  156.2760  132.2480 O   0  0  0  0  0  0  0  0  0  0  0  0
  145.3120  155.8140  133.5370 O   0  0  0  0  0  0  0  0  0  0  0  0
  144.8100  154.6110  132.9390 C   0  0  0  0  0  0  0  0  0  0  0  0
  145.9370  153.5700  133.0020 C   0  0  0  0  0  0  0  0  0  0  0  0
  143.5990  154.0790  133.7310 C   0  0  0  0  0  0  0  0  0  0  0  0
  144.4340  154.8540  131.4650 C   0  0  0  0  0  0  0  0  0  0  0  0
  144.9360  158.7760  133.3600 C   0  0  0  0  0  0  0  0  0  0  0  0
  143.6360  158.2590  133.3470 C   0  0  0  0  0  0  0  0  0  0  0  0
  140.3690  158.7040  132.2730 C   0  0  0  0  0  0  0  0  0  0  0  0
  138.9170  158.2210  132.3990 C   0  0  0  0  0  0  0  0  0  0  0  0
  139.7625  155.2863  133.7534 H   0  0  0  0  0  0  0  0  0  0  0  0
  138.7432  155.2748  132.2744 H   0  0  0  0  0  0  0  0  0  0  0  0
  140.3163  156.1420  132.2744 H   0  0  0  0  0  0  0  0  0  0  0  0
  137.7380  156.8820  133.3940 H   0  0  0  0  0  0  0  0  0  0  0  0
  138.5658  158.3720  134.9936 H   0  0  0  0  0  0  0  0  0  0  0  0
  139.0762  156.6568  135.3463 H   0  0  0  0  0  0  0  0  0  0  0  0
  140.7896  158.6324  135.5890 H   0  0  0  0  0  0  0  0  0  0  0  0
  141.2514  157.0271  134.8206 H   0  0  0  0  0  0  0  0  0  0  0  0
  141.9830  161.2425  133.8134 H   0  0  0  0  0  0  0  0  0  0  0  0
  144.3378  162.1004  133.7721 H   0  0  0  0  0  0  0  0  0  0  0  0
  147.0592  161.2804  133.4872 H   0  0  0  0  0  0  0  0  0  0  0  0
  148.7800  157.5070  131.5090 H   0  0  0  0  0  0  0  0  0  0  0  0
  146.1749  153.3503  134.0533 H   0  0  0  0  0  0  0  0  0  0  0  0
  145.6123  152.6472  132.4989 H   0  0  0  0  0  0  0  0  0  0  0  0
  146.8312  153.9668  132.4989 H   0  0  0  0  0  0  0  0  0  0  0  0
  143.7988  154.1668  134.8091 H   0  0  0  0  0  0  0  0  0  0  0  0
  142.7058  154.6676  133.4745 H   0  0  0  0  0  0  0  0  0  0  0  0
  143.4283  153.0230  133.4745 H   0  0  0  0  0  0  0  0  0  0  0  0
  143.5111  155.4505  131.4156 H   0  0  0  0  0  0  0  0  0  0  0  0
  145.2487  155.3968  130.9635 H   0  0  0  0  0  0  0  0  0  0  0  0
  144.2737  153.8882  130.9635 H   0  0  0  0  0  0  0  0  0  0  0  0
  143.4672  157.1805  133.2117 H   0  0  0  0  0  0  0  0  0  0  0  0
  140.3523  159.7490  131.9298 H   0  0  0  0  0  0  0  0  0  0  0  0
  140.8601  158.0194  131.5658 H   0  0  0  0  0  0  0  0  0  0  0  0
  138.2980  159.0600  132.7495 H   0  0  0  0  0  0  0  0  0  0  0  0
  138.6027  157.8638  131.4072 H   0  0  0  0  0  0  0  0  0  0  0  0
  1  2  1  0
  2  3  1  0
  3  4  1  0
  4  5  1  0
  5  6  1  0
  6  7  2  0
  7  8  1  0
  8  9  2  0
  9 10  1  0
 10 11  2  0
 11 12  1  0
 12 13  1  0
 12 14  2  0
 11 15  1  0
 15 16  1  0
 16 17  2  0
 16 18  1  0
 18 19  1  0
 19 20  1  0
 19 21  1  0
 19 22  1  0
 15 23  1  0
 23 24  2  0
  5 25  1  0
 25 26  1  0
 26  2  1  0
 24  6  1  0
 23  9  1  0
  1 27  1  0
  1 28  1  0
  1 29  1  0
  2 30  1  0
  3 31  1  0
  3 32  1  0
  4 33  1  0
  4 34  1  0
  7 35  1  0
  8 36  1  0
 10 37  1  0
 13 38  1  0
 20 39  1  0
 20 40  1  0
 20 41  1  0
 21 42  1  0
 21 43  1  0
 21 44  1  0
 22 45  1  0
 22 46  1  0
 22 47  1  0
 24 48  1  0
 25 49  1  0
 25 50  1  0
 26 51  1  0
 26 52  1  0
M  CHG  2   2   1  13  -1
M  END
>  <UniqueID>  (54) 
54

>  <SMILES>  (54) 
C[NH+]1CCN(c2ccc3cc(C([NH-])=O)n(C(=O)OC(C)(C)C)c3c2)CC1

>  <Energy>  (54) 
97.09695049873959

>  <Genealogy>  (54) 
C[NH+]1CCN(c2ccc3cc(C([NH-])=O)n(C(=O)OC(C)(C)C)c3c2)CC1 (protonated)
C[NH+]1CCN(c2ccc3cc(C([NH-])=O)n(C(=O)OC(C)(C)C)c3c2)CC1 (3D coordinates assigned)
C[NH+]1CCN(c2ccc3cc(C([NH-])=O)n(C(=O)OC(C)(C)C)c3c2)CC1 (nonaromatic ring conformer: 97.09695049873959 kcal/mol)

>  <smiles>  (54) 
CN1CCN(c2ccc3cc(C(N)=O)n(C(=O)OC(C)(C)C)c3c2)CC1

>  <score_type>  (54) 
oracle

>  <origin>  (54) 
adg

>  <m_score__min__energy>  (54) 
-6.9199999999999999

>  <m_primary>  (54) 
energy

$$$$
54:0
     RDKit          3D

 31 32  0  0  0  0  0  0  0  0999 V2000
  141.4010  158.5880  137.6370 C   0  0  0  0  0  0  0  0  0  0  0  0
  140.8920  159.2400  136.4800 O   0  0  0  0  0  0  0  0  0  0  0  0
  140.0300  158.6100  135.5790 C   0  0  0  0  0  0  0  0  0  0  0  0
  138.8920  158.2090  135.9480 O   0  0  0  0  0  0  0  0  0  0  0  0
  140.4430  158.4550  134.1510 C   0  0  0  0  0  0  0  0  0  0  0  0
  141.8150  159.0360  133.9480 C   0  0  0  0  0  0  0  0  0  0  0  0
  141.9870  160.4400  133.8710 C   0  0  0  0  0  0  0  0  0  0  0  0
  143.2680  160.9980  133.7310 C   0  0  0  0  0  0  0  0  0  0  0  0
  144.3540  160.1290  133.6710 C   0  0  0  0  0  0  0  0  0  0  0  0
  145.6990  160.4040  133.5800 C   0  0  0  0  0  0  0  0  0  0  0  0
  146.3280  159.1620  133.5830 C   0  0  0  0  0  0  0  0  0  0  0  0
  147.7880  158.9930  133.4410 C   0  0  0  0  0  0  0  0  0  0  0  0
  148.4830  157.9530  134.1310 N   0  0  0  0  0  0  0  0  0  0  0  0
  148.4240  159.7420  132.6530 O   0  0  0  0  0  0  0  0  0  0  0  0
  145.4130  158.1570  133.6870 N   0  0  0  0  0  0  0  0  0  0  0  0
  145.6720  156.7500  133.8400 C   0  0  0  0  0  0  0  0  0  0  0  0
  145.1770  155.9210  133.0310 O   0  0  0  0  0  0  0  0  0  0  0  0
  146.4710  156.2890  134.8780 O   0  0  0  0  0  0  0  0  0  0  0  0
  144.2060  158.7660  133.7370 C   0  0  0  0  0  0  0  0  0  0  0  0
  142.9420  158.1860  133.8970 C   0  0  0  0  0  0  0  0  0  0  0  0
  141.0131  159.0849  138.5384 H   0  0  0  0  0  0  0  0  0  0  0  0
  141.0838  157.5347  137.6337 H   0  0  0  0  0  0  0  0  0  0  0  0
  142.4998  158.6401  137.6337 H   0  0  0  0  0  0  0  0  0  0  0  0
  140.4572  157.3866  133.8895 H   0  0  0  0  0  0  0  0  0  0  0  0
  139.7263  158.9863  133.5075 H   0  0  0  0  0  0  0  0  0  0  0  0
  141.1083  161.0998  133.9214 H   0  0  0  0  0  0  0  0  0  0  0  0
  143.4089  162.0873  133.6707 H   0  0  0  0  0  0  0  0  0  0  0  0
  146.1755  161.3935  133.5181 H   0  0  0  0  0  0  0  0  0  0  0  0
  149.5200  157.8710  134.0480 H   0  0  0  0  0  0  0  0  0  0  0  0
  147.9640  157.2130  134.6550 H   0  0  0  0  0  0  0  0  0  0  0  0
  142.8292  157.0950  133.9810 H   0  0  0  0  0  0  0  0  0  0  0  0
  1  2  1  0
  2  3  1  0
  3  4  2  0
  3  5  1  0
  5  6  1  0
  6  7  2  0
  7  8  1  0
  8  9  2  0
  9 10  1  0
 10 11  2  0
 11 12  1  0
 12 13  1  0
 12 14  2  0
 11 15  1  0
 15 16  1  0
 16 17  2  0
 16 18  1  0
 15 19  1  0
 19 20  2  0
 20  6  1  0
 19  9  1  0
  1 21  1  0
  1 22  1  0
  1 23  1  0
  5 24  1  0
  5 25  1  0
  7 26  1  0
  8 27  1  0
 10 28  1  0
 13 29  1  0
 13 30  1  0
 20 31  1  0
M  CHG  1  18  -1
M  END
>  <UniqueID>  (55) 
55

>  <SMILES>  (55) 
COC(=O)Cc1ccc2cc(C(N)=O)n(C(=O)[O-])c2c1

>  <Energy>  (55) 
67.20410335275389

>  <Genealogy>  (55) 
COC(=O)Cc1ccc2cc(C(N)=O)n(C(=O)[O-])c2c1 (protonated)
COC(=O)Cc1ccc2cc(C(N)=O)n(C(=O)[O-])c2c1 (3D coordinates assigned)
COC(=O)Cc1ccc2cc(C(N)=O)n(C(=O)[O-])c2c1 (optimized conformer: 67.20410335275389 kcal/mol)

>  <smiles>  (55) 
COC(=O)Cc1ccc2cc(C(N)=O)n(C(=O)O)c2c1

>  <score_type>  (55) 
oracle

>  <origin>  (55) 
adg

>  <m_score__min__energy>  (55) 
-6.1600000000000001

>  <m_primary>  (55) 
energy

$$$$
55:0
     RDKit          3D

 34 35  0  0  0  0  0  0  0  0999 V2000
  150.3190  150.7250  131.8500 C   0  0  0  0  0  0  0  0  0  0  0  0
  149.6050  151.8510  131.9110 C   0  0  0  0  0  0  0  0  0  0  0  0
  148.8460  152.2310  133.1510 C   0  0  0  0  0  0  0  0  0  0  0  0
  148.1180  153.4400  132.9460 O   0  0  0  0  0  0  0  0  0  0  0  0
  148.7110  154.7080  132.9730 C   0  0  0  0  0  0  0  0  0  0  0  0
  149.9040  154.8630  132.5920 O   0  0  0  0  0  0  0  0  0  0  0  0
  147.9630  155.8330  133.4580 N   0  0  0  0  0  0  0  0  0  0  0  0
  146.9170  155.8300  134.3320 C   0  0  0  0  0  0  0  0  0  0  0  0
  146.4260  154.6640  135.0960 C   0  0  0  0  0  0  0  0  0  0  0  0
  147.3340  153.7120  135.6470 N   0  0  0  0  0  0  0  0  0  0  0  0
  145.1910  154.5300  135.3070 O   0  0  0  0  0  0  0  0  0  0  0  0
  146.4060  157.1170  134.4870 C   0  0  0  0  0  0  0  0  0  0  0  0
  147.1850  157.9180  133.6820 C   0  0  0  0  0  0  0  0  0  0  0  0
  147.1200  159.2890  133.4520 C   0  0  0  0  0  0  0  0  0  0  0  0
  148.0410  159.8500  132.5520 C   0  0  0  0  0  0  0  0  0  0  0  0
  148.9920  159.0330  131.8900 C   0  0  0  0  0  0  0  0  0  0  0  0
  149.9860  159.6500  130.9450 C   0  0  0  0  0  0  0  0  0  0  0  0
  149.3430  160.7480  130.1530 C   0  0  0  0  0  0  0  0  0  0  0  0
  149.6120  161.9160  130.3840 O   0  0  0  0  0  0  0  0  0  0  0  0
  149.0350  157.6470  132.1570 C   0  0  0  0  0  0  0  0  0  0  0  0
  148.1180  157.1190  133.0730 C   0  0  0  0  0  0  0  0  0  0  0  0
  150.8658  150.4696  130.9303 H   0  0  0  0  0  0  0  0  0  0  0  0
  150.3607  150.0524  132.7194 H   0  0  0  0  0  0  0  0  0  0  0  0
  149.5714  152.5151  131.0347 H   0  0  0  0  0  0  0  0  0  0  0  0
  148.1424  151.4245  133.4050 H   0  0  0  0  0  0  0  0  0  0  0  0
  149.5628  152.3846  133.9711 H   0  0  0  0  0  0  0  0  0  0  0  0
  147.7650  152.9730  135.0500 H   0  0  0  0  0  0  0  0  0  0  0  0
  145.5602  157.4272  135.1182 H   0  0  0  0  0  0  0  0  0  0  0  0
  146.3704  159.9141  133.9594 H   0  0  0  0  0  0  0  0  0  0  0  0
  148.0243  160.9328  132.3591 H   0  0  0  0  0  0  0  0  0  0  0  0
  150.8261  160.0637  131.5222 H   0  0  0  0  0  0  0  0  0  0  0  0
  150.3477  158.8756  130.2525 H   0  0  0  0  0  0  0  0  0  0  0  0
  148.6240  160.4997  129.3584 H   0  0  0  0  0  0  0  0  0  0  0  0
  149.7704  156.9989  131.6578 H   0  0  0  0  0  0  0  0  0  0  0  0
  1  2  2  0
  2  3  1  0
  3  4  1  0
  4  5  1  0
  5  6  2  0
  5  7  1  0
  7  8  1  0
  8  9  1  0
  9 10  1  0
  9 11  2  0
  8 12  2  0
 12 13  1  0
 13 14  2  0
 14 15  1  0
 15 16  2  0
 16 17  1  0
 17 18  1  0
 18 19  2  0
 16 20  1  0
 20 21  2  0
 21  7  1  0
 21 13  1  0
  1 22  1  0
  1 23  1  0
  2 24  1  0
  3 25  1  0
  3 26  1  0
 10 27  1  0
 12 28  1  0
 14 29  1  0
 15 30  1  0
 17 31  1  0
 17 32  1  0
 18 33  1  0
 20 34  1  0
M  CHG  1  10  -1
M  END
>  <UniqueID>  (56) 
56

>  <SMILES>  (56) 
C=CCOC(=O)n1c(C([NH-])=O)cc2ccc(CC=O)cc21

>  <Energy>  (56) 
66.95416124937199

>  <Genealogy>  (56) 
C=CCOC(=O)n1c(C([NH-])=O)cc2ccc(CC=O)cc21 (protonated)
C=CCOC(=O)n1c(C([NH-])=O)cc2ccc(CC=O)cc21 (3D coordinates assigned)
C=CCOC(=O)n1c(C([NH-])=O)cc2ccc(CC=O)cc21 (optimized conformer: 66.95416124937199 kcal/mol)

>  <smiles>  (56) 
C=CCOC(=O)n1c(C(N)=O)cc2ccc(CC=O)cc21

>  <score_type>  (56) 
oracle

>  <origin>  (56) 
adg

>  <m_score__min__energy>  (56) 
-6.5

>  <m_primary>  (56) 
energy

$$$$
56:0
     RDKit          3D

 49 51  0  0  0  0  0  0  0  0999 V2000
  139.0920  160.4920  131.6510 C   0  0  0  0  0  0  0  0  0  0  0  0
  138.3610  159.2510  131.1520 C   0  0  0  0  0  0  0  0  0  0  0  0
  139.0880  158.0730  131.4930 O   0  0  0  0  0  0  0  0  0  0  0  0
  139.2480  157.6220  132.8090 C   0  0  0  0  0  0  0  0  0  0  0  0
  138.2590  157.5430  133.5870 O   0  0  0  0  0  0  0  0  0  0  0  0
  140.6000  157.1890  133.2870 C   0  0  0  0  0  0  0  0  0  0  0  0
  141.1610  158.1760  134.2240 N   0  0  0  0  0  0  0  0  0  0  0  0
  140.3830  158.5230  135.4190 C   0  0  0  0  0  0  0  0  0  0  0  0
  142.4740  158.7600  134.0090 C   0  0  0  0  0  0  0  0  0  0  0  0
  142.6700  160.1700  134.0820 C   0  0  0  0  0  0  0  0  0  0  0  0
  143.9340  160.7390  133.8560 C   0  0  0  0  0  0  0  0  0  0  0  0
  144.9930  159.8880  133.5670 C   0  0  0  0  0  0  0  0  0  0  0  0
  146.3080  160.1760  133.2840 C   0  0  0  0  0  0  0  0  0  0  0  0
  146.9170  158.9430  133.0610 C   0  0  0  0  0  0  0  0  0  0  0  0
  148.3630  158.7830  132.8030 C   0  0  0  0  0  0  0  0  0  0  0  0
  148.8100  158.3460  131.5220 N   0  0  0  0  0  0  0  0  0  0  0  0
  149.2120  159.0620  133.6890 O   0  0  0  0  0  0  0  0  0  0  0  0
  146.0100  157.9330  133.1940 N   0  0  0  0  0  0  0  0  0  0  0  0
  146.2160  156.5270  132.9880 C   0  0  0  0  0  0  0  0  0  0  0  0
  147.1570  156.1420  132.2470 O   0  0  0  0  0  0  0  0  0  0  0  0
  145.3430  155.6140  133.6070 O   0  0  0  0  0  0  0  0  0  0  0  0
  144.4170  154.6840  133.0160 C   0  0  0  0  0  0  0  0  0  0  0  0
  143.0770  154.5420  133.7350 C   0  0  0  0  0  0  0  0  0  0  0  0
  144.9770  153.4330  132.3540 C   0  0  0  0  0  0  0  0  0  0  0  0
  144.3900  154.5650  131.4990 C   0  0  0  0  0  0  0  0  0  0  0  0
  144.8380  158.5290  133.5070 C   0  0  0  0  0  0  0  0  0  0  0  0
  143.5880  157.9330  133.7090 C   0  0  0  0  0  0  0  0  0  0  0  0
  139.0955  160.4980  132.7510 H   0  0  0  0  0  0  0  0  0  0  0  0
  140.1279  160.4810  131.2811 H   0  0  0  0  0  0  0  0  0  0  0  0
  138.5801  161.3926  131.2811 H   0  0  0  0  0  0  0  0  0  0  0  0
  137.3638  159.2077  131.6144 H   0  0  0  0  0  0  0  0  0  0  0  0
  138.2689  159.3081  130.0573 H   0  0  0  0  0  0  0  0  0  0  0  0
  140.5091  156.2183  133.7965 H   0  0  0  0  0  0  0  0  0  0  0  0
  141.2712  157.1033  132.4197 H   0  0  0  0  0  0  0  0  0  0  0  0
  140.9599  158.2657  136.3196 H   0  0  0  0  0  0  0  0  0  0  0  0
  140.1688  159.6019  135.4166 H   0  0  0  0  0  0  0  0  0  0  0  0
  139.4371  157.9614  135.4166 H   0  0  0  0  0  0  0  0  0  0  0  0
  141.8173  160.8232  134.3192 H   0  0  0  0  0  0  0  0  0  0  0  0
  144.0812  161.8279  133.9065 H   0  0  0  0  0  0  0  0  0  0  0  0
  146.7789  161.1693  133.2425 H   0  0  0  0  0  0  0  0  0  0  0  0
  148.4480  157.4620  131.1000 H   0  0  0  0  0  0  0  0  0  0  0  0
  143.2408  154.5594  134.8226 H   0  0  0  0  0  0  0  0  0  0  0  0
  142.4179  155.3753  133.4501 H   0  0  0  0  0  0  0  0  0  0  0  0
  142.6072  153.5890  133.4501 H   0  0  0  0  0  0  0  0  0  0  0  0
  146.0614  153.2482  132.3540 H   0  0  0  0  0  0  0  0  0  0  0  0
  144.7941  152.3525  132.4488 H   0  0  0  0  0  0  0  0  0  0  0  0
  145.0532  155.1924  130.8854 H   0  0  0  0  0  0  0  0  0  0  0  0
  143.6110  154.6339  130.7255 H   0  0  0  0  0  0  0  0  0  0  0  0
  143.4707  156.8417  133.6365 H   0  0  0  0  0  0  0  0  0  0  0  0
  1  2  1  0
  2  3  1  0
  3  4  1  0
  4  5  2  0
  4  6  1  0
  6  7  1  0
  7  8  1  0
  7  9  1  0
  9 10  2  0
 10 11  1  0
 11 12  2  0
 12 13  1  0
 13 14  2  0
 14 15  1  0
 15 16  1  0
 15 17  2  0
 14 18  1  0
 18 19  1  0
 19 20  2  0
 19 21  1  0
 21 22  1  0
 22 23  1  0
 22 24  1  0
 24 25  1  0
 18 26  1  0
 26 27  2  0
 27  9  1  0
 26 12  1  0
 25 22  1  0
  1 28  1  0
  1 29  1  0
  1 30  1  0
  2 31  1  0
  2 32  1  0
  6 33  1  0
  6 34  1  0
  8 35  1  0
  8 36  1  0
  8 37  1  0
 10 38  1  0
 11 39  1  0
 13 40  1  0
 16 41  1  0
 23 42  1  0
 23 43  1  0
 23 44  1  0
 24 45  1  0
 24 46  1  0
 25 47  1  0
 25 48  1  0
 27 49  1  0
M  CHG  1  16  -1
M  END
>  <UniqueID>  (57) 
57

>  <SMILES>  (57) 
CCOC(=O)CN(C)c1ccc2cc(C([NH-])=O)n(C(=O)OC3(C)CC3)c2c1

>  <Energy>  (57) 
357.80468967553526

>  <Genealogy>  (57) 
CCOC(=O)CN(C)c1ccc2cc(C([NH-])=O)n(C(=O)OC3(C)CC3)c2c1 (protonated)
CCOC(=O)CN(C)c1ccc2cc(C([NH-])=O)n(C(=O)OC3(C)CC3)c2c1 (3D coordinates assigned)
CCOC(=O)CN(C)c1ccc2cc(C([NH-])=O)n(C(=O)OC3(C)CC3)c2c1 (nonaromatic ring conformer: 357.80468967553526 kcal/mol)

>  <smiles>  (57) 
CCOC(=O)CN(C)c1ccc2cc(C(N)=O)n(C(=O)OC3(C)CC3)c2c1

>  <score_type>  (57) 
oracle

>  <origin>  (57) 
adg

>  <m_score__min__energy>  (57) 
-7.5099999999999998

>  <m_primary>  (57) 
energy

$$$$
57:0
     RDKit          3D

 31 33  0  0  0  0  0  0  0  0999 V2000
  149.5370  160.2780  131.0640 C   0  0  0  0  0  0  0  0  0  0  0  0
  148.5840  159.5280  131.9350 C   0  0  0  0  0  0  0  0  0  0  0  0
  148.9530  158.4030  132.6650 C   0  0  0  0  0  0  0  0  0  0  0  0
  147.6100  157.9070  133.5440 S   0  0  0  0  0  0  0  0  0  0  0  0
  146.6190  159.1440  132.9710 C   0  0  0  0  0  0  0  0  0  0  0  0
  145.2020  159.3630  133.3390 C   0  0  0  0  0  0  0  0  0  0  0  0
  144.7450  160.6470  133.7350 C   0  0  0  0  0  0  0  0  0  0  0  0
  143.4020  160.8550  134.0900 C   0  0  0  0  0  0  0  0  0  0  0  0
  142.5360  159.7680  134.0380 C   0  0  0  0  0  0  0  0  0  0  0  0
  141.1970  159.6870  134.3440 C   0  0  0  0  0  0  0  0  0  0  0  0
  140.8480  158.3600  134.1100 C   0  0  0  0  0  0  0  0  0  0  0  0
  139.4680  157.8540  134.2370 C   0  0  0  0  0  0  0  0  0  0  0  0
  138.8950  157.0150  133.2320 N   0  0  0  0  0  0  0  0  0  0  0  0
  138.7620  158.2180  135.2150 O   0  0  0  0  0  0  0  0  0  0  0  0
  141.9300  157.6420  133.6960 N   0  0  0  0  0  0  0  0  0  0  0  0
  142.0260  156.2260  133.4680 C   0  0  0  0  0  0  0  0  0  0  0  0
  141.0510  155.5770  133.0070 O   0  0  0  0  0  0  0  0  0  0  0  0
  142.9540  158.5230  133.6480 C   0  0  0  0  0  0  0  0  0  0  0  0
  144.2880  158.2820  133.2990 C   0  0  0  0  0  0  0  0  0  0  0  0
  147.2990  159.9410  132.1140 N   0  0  0  0  0  0  0  0  0  0  0  0
  150.2465  160.8363  131.6924 H   0  0  0  0  0  0  0  0  0  0  0  0
  150.0888  159.5693  130.4289 H   0  0  0  0  0  0  0  0  0  0  0  0
  148.9779  160.9809  130.4289 H   0  0  0  0  0  0  0  0  0  0  0  0
  149.9438  157.9251  132.6665 H   0  0  0  0  0  0  0  0  0  0  0  0
  145.4513  161.4898  133.7643 H   0  0  0  0  0  0  0  0  0  0  0  0
  143.0457  161.8484  134.4000 H   0  0  0  0  0  0  0  0  0  0  0  0
  140.5426  160.4973  134.6977 H   0  0  0  0  0  0  0  0  0  0  0  0
  137.9270  156.6430  133.3490 H   0  0  0  0  0  0  0  0  0  0  0  0
  139.4020  156.8260  132.3400 H   0  0  0  0  0  0  0  0  0  0  0  0
  142.9650  155.7020  133.6997 H   0  0  0  0  0  0  0  0  0  0  0  0
  144.6187  157.2762  133.0006 H   0  0  0  0  0  0  0  0  0  0  0  0
  1  2  1  0
  2  3  2  0
  3  4  1  0
  4  5  1  0
  5  6  1  0
  6  7  2  0
  7  8  1  0
  8  9  2  0
  9 10  1  0
 10 11  2  0
 11 12  1  0
 12 13  1  0
 12 14  2  0
 11 15  1  0
 15 16  1  0
 16 17  2  0
 15 18  1  0
 18 19  2  0
  5 20  2  0
 20  2  1  0
 19  6  1  0
 18  9  1  0
  1 21  1  0
  1 22  1  0
  1 23  1  0
  3 24  1  0
  7 25  1  0
  8 26  1  0
 10 27  1  0
 13 28  1  0
 13 29  1  0
 16 30  1  0
 19 31  1  0
M  END
>  <UniqueID>  (58) 
58

>  <SMILES>  (58) 
Cc1csc(-c2ccc3cc(C(N)=O)n(C=O)c3c2)n1

>  <Energy>  (58) 
101.17722112156812

>  <Genealogy>  (58) 
Cc1csc(-c2ccc3cc(C(N)=O)n(C=O)c3c2)n1 (3D coordinates assigned)
Cc1csc(-c2ccc3cc(C(N)=O)n(C=O)c3c2)n1 (optimized conformer: 101.17722112156812 kcal/mol)

>  <smiles>  (58) 
Cc1csc(-c2ccc3cc(C(N)=O)n(C=O)c3c2)n1

>  <score_type>  (58) 
oracle

>  <origin>  (58) 
adg

>  <m_score__min__energy>  (58) 
-7.2599999999999998

>  <m_primary>  (58) 
energy

$$$$
58:0
     RDKit          3D

 34 36  0  0  0  0  0  0  0  0999 V2000
  138.3390  157.0810  133.4470 N   0  0  0  0  0  0  0  0  0  0  0  0
  139.2200  157.7270  134.3680 C   0  0  0  0  0  0  0  0  0  0  0  0
  138.7490  158.2100  135.4320 O   0  0  0  0  0  0  0  0  0  0  0  0
  140.6620  157.8640  134.0650 C   0  0  0  0  0  0  0  0  0  0  0  0
  141.3520  159.0750  134.1050 C   0  0  0  0  0  0  0  0  0  0  0  0
  142.6670  158.7550  133.8580 C   0  0  0  0  0  0  0  0  0  0  0  0
  143.7870  159.5770  133.7800 C   0  0  0  0  0  0  0  0  0  0  0  0
  145.0240  158.9800  133.4890 C   0  0  0  0  0  0  0  0  0  0  0  0
  145.1160  157.5830  133.2670 C   0  0  0  0  0  0  0  0  0  0  0  0
  146.4490  156.9520  132.9800 C   0  0  0  0  0  0  0  0  0  0  0  0
  147.3940  157.2200  134.1080 C   0  0  0  0  0  0  0  0  0  0  0  0
  147.2110  156.6540  135.2190 O   0  0  0  0  0  0  0  0  0  0  0  0
  148.4640  158.1540  133.9200 N   0  0  0  0  0  0  0  0  0  0  0  0
  148.6880  158.9710  132.7660 C   0  0  0  0  0  0  0  0  0  0  0  0
  149.6520  158.6940  131.8630 N   0  0  0  0  0  0  0  0  0  0  0  0
  149.6740  159.6050  130.8540 C   0  0  0  0  0  0  0  0  0  0  0  0
  148.7240  160.6160  130.9460 C   0  0  0  0  0  0  0  0  0  0  0  0
  147.8260  160.3570  132.3440 S   0  0  0  0  0  0  0  0  0  0  0  0
  143.9590  156.7780  133.3670 C   0  0  0  0  0  0  0  0  0  0  0  0
  142.7420  157.3980  133.6770 C   0  0  0  0  0  0  0  0  0  0  0  0
  141.5190  156.8360  133.8010 N   0  0  0  0  0  0  0  0  0  0  0  0
  141.1940  155.4460  133.6230 C   0  0  0  0  0  0  0  0  0  0  0  0
  140.2010  155.1090  132.9240 O   0  0  0  0  0  0  0  0  0  0  0  0
  141.9790  154.4600  134.2080 O   0  0  0  0  0  0  0  0  0  0  0  0
  138.6990  156.6210  132.5830 H   0  0  0  0  0  0  0  0  0  0  0  0
  137.3160  157.0250  133.6530 H   0  0  0  0  0  0  0  0  0  0  0  0
  140.9335  160.0746  134.2940 H   0  0  0  0  0  0  0  0  0  0  0  0
  143.7057  160.6620  133.9415 H   0  0  0  0  0  0  0  0  0  0  0  0
  145.9297  159.6018  133.4328 H   0  0  0  0  0  0  0  0  0  0  0  0
  146.3204  155.8659  132.8625 H   0  0  0  0  0  0  0  0  0  0  0  0
  146.8602  157.3807  132.0542 H   0  0  0  0  0  0  0  0  0  0  0  0
  150.3928  159.5463  130.0234 H   0  0  0  0  0  0  0  0  0  0  0  0
  148.5844  161.4399  130.2306 H   0  0  0  0  0  0  0  0  0  0  0  0
  144.0128  155.6913  133.2054 H   0  0  0  0  0  0  0  0  0  0  0  0
  1  2  1  0
  2  3  2  0
  2  4  1  0
  4  5  2  0
  5  6  1  0
  6  7  2  0
  7  8  1  0
  8  9  2  0
  9 10  1  0
 10 11  1  0
 11 12  2  0
 11 13  1  0
 13 14  1  0
 14 15  2  0
 15 16  1  0
 16 17  2  0
 17 18  1  0
  9 19  1  0
 19 20  2  0
 20 21  1  0
 21 22  1  0
 22 23  2  0
 22 24  1  0
 21  4  1  0
 20  6  1  0
 18 14  1  0
  1 25  1  0
  1 26  1  0
  5 27  1  0
  7 28  1  0
  8 29  1  0
 10 30  1  0
 10 31  1  0
 16 32  1  0
 17 33  1  0
 19 34  1  0
M  CHG  2  13  -1  24  -1
M  END
>  <UniqueID>  (59) 
59

>  <SMILES>  (59) 
NC(=O)c1cc2ccc(CC(=O)[N-]c3nccs3)cc2n1C(=O)[O-]

>  <Energy>  (59) 
104.80497424472485

>  <Genealogy>  (59) 
NC(=O)c1cc2ccc(CC(=O)[N-]c3nccs3)cc2n1C(=O)[O-] (protonated)
NC(=O)c1cc2ccc(CC(=O)[N-]c3nccs3)cc2n1C(=O)[O-] (3D coordinates assigned)
NC(=O)c1cc2ccc(CC(=O)[N-]c3nccs3)cc2n1C(=O)[O-] (optimized conformer: 104.80497424472485 kcal/mol)

>  <smiles>  (59) 
NC(=O)c1cc2ccc(CC(=O)Nc3nccs3)cc2n1C(=O)O

>  <score_type>  (59) 
oracle

>  <origin>  (59) 
adg

>  <m_score__min__energy>  (59) 
-7.6799999999999997

>  <m_primary>  (59) 
energy

$$$$
59:0
     RDKit          3D

 36 37  0  0  0  0  0  0  0  0999 V2000
  145.1510  161.6900  134.1110 C   0  0  0  0  0  0  0  0  0  0  0  0
  144.8220  160.3040  133.7570 N   0  0  0  0  0  0  0  0  0  0  0  0
  143.4110  159.8970  133.7220 C   0  0  0  0  0  0  0  0  0  0  0  0
  145.8730  159.3510  133.4500 C   0  0  0  0  0  0  0  0  0  0  0  0
  147.1130  159.7870  132.9010 C   0  0  0  0  0  0  0  0  0  0  0  0
  148.1310  158.8710  132.5890 C   0  0  0  0  0  0  0  0  0  0  0  0
  147.8980  157.5250  132.8430 C   0  0  0  0  0  0  0  0  0  0  0  0
  148.6990  156.4310  132.6050 C   0  0  0  0  0  0  0  0  0  0  0  0
  147.9600  155.3360  133.0410 C   0  0  0  0  0  0  0  0  0  0  0  0
  148.4750  153.9520  133.0280 C   0  0  0  0  0  0  0  0  0  0  0  0
  147.7900  152.9010  133.7100 N   0  0  0  0  0  0  0  0  0  0  0  0
  149.5670  153.7040  132.4500 O   0  0  0  0  0  0  0  0  0  0  0  0
  146.7460  155.7320  133.5150 N   0  0  0  0  0  0  0  0  0  0  0  0
  145.6610  154.8960  133.9540 C   0  0  0  0  0  0  0  0  0  0  0  0
  145.2490  153.9600  133.2150 O   0  0  0  0  0  0  0  0  0  0  0  0
  145.0650  155.1260  135.1970 O   0  0  0  0  0  0  0  0  0  0  0  0
  145.1570  154.2070  136.2790 C   0  0  0  0  0  0  0  0  0  0  0  0
  146.5800  153.7950  136.4500 C   0  0  0  0  0  0  0  0  0  0  0  0
  147.5040  154.4940  135.9560 O   0  0  0  0  0  0  0  0  0  0  0  0
  146.8890  152.6140  137.1120 O   0  0  0  0  0  0  0  0  0  0  0  0
  146.7250  157.0780  133.3890 C   0  0  0  0  0  0  0  0  0  0  0  0
  145.6830  157.9640  133.6860 C   0  0  0  0  0  0  0  0  0  0  0  0
  145.1754  161.7929  135.2059 H   0  0  0  0  0  0  0  0  0  0  0  0
  146.1359  161.9505  133.6962 H   0  0  0  0  0  0  0  0  0  0  0  0
  144.3882  162.3653  133.6962 H   0  0  0  0  0  0  0  0  0  0  0  0
  143.0351  159.7886  134.7501 H   0  0  0  0  0  0  0  0  0  0  0  0
  142.8217  160.6618  133.1949 H   0  0  0  0  0  0  0  0  0  0  0  0
  143.3196  158.9359  133.1949 H   0  0  0  0  0  0  0  0  0  0  0  0
  147.2761  160.8594  132.7183 H   0  0  0  0  0  0  0  0  0  0  0  0
  149.0842  159.2091  132.1565 H   0  0  0  0  0  0  0  0  0  0  0  0
  149.7070  156.4241  132.1646 H   0  0  0  0  0  0  0  0  0  0  0  0
  146.9810  153.1030  134.3380 H   0  0  0  0  0  0  0  0  0  0  0  0
  148.1490  151.9210  133.6570 H   0  0  0  0  0  0  0  0  0  0  0  0
  144.7992  154.6874  137.2016 H   0  0  0  0  0  0  0  0  0  0  0  0
  144.5381  153.3226  136.0675 H   0  0  0  0  0  0  0  0  0  0  0  0
  144.7324  157.5918  134.0956 H   0  0  0  0  0  0  0  0  0  0  0  0
  1  2  1  0
  2  3  1  0
  2  4  1  0
  4  5  2  0
  5  6  1  0
  6  7  2  0
  7  8  1  0
  8  9  2  0
  9 10  1  0
 10 11  1  0
 10 12  2  0
  9 13  1  0
 13 14  1  0
 14 15  2  0
 14 16  1  0
 16 17  1  0
 17 18  1  0
 18 19  2  0
 18 20  1  0
 13 21  1  0
 21 22  2  0
 22  4  1  0
 21  7  1  0
  1 23  1  0
  1 24  1  0
  1 25  1  0
  3 26  1  0
  3 27  1  0
  3 28  1  0
  5 29  1  0
  6 30  1  0
  8 31  1  0
 11 32  1  0
 11 33  1  0
 17 34  1  0
 17 35  1  0
 22 36  1  0
M  CHG  1  20  -1
M  END
>  <UniqueID>  (60) 
60

>  <SMILES>  (60) 
CN(C)c1ccc2cc(C(N)=O)n(C(=O)OCC(=O)[O-])c2c1

>  <Energy>  (60) 
73.48267314093385

>  <Genealogy>  (60) 
CN(C)c1ccc2cc(C(N)=O)n(C(=O)OCC(=O)[O-])c2c1 (protonated)
CN(C)c1ccc2cc(C(N)=O)n(C(=O)OCC(=O)[O-])c2c1 (3D coordinates assigned)
CN(C)c1ccc2cc(C(N)=O)n(C(=O)OCC(=O)[O-])c2c1 (optimized conformer: 73.48267314093385 kcal/mol)

>  <smiles>  (60) 
CN(C)c1ccc2cc(C(N)=O)n(C(=O)OCC(=O)O)c2c1

>  <score_type>  (60) 
oracle

>  <origin>  (60) 
adg

>  <m_score__min__energy>  (60) 
-6.3099999999999996

>  <m_primary>  (60) 
energy

$$$$
60:0
     RDKit          3D

 35 36  0  0  0  0  0  0  0  0999 V2000
  139.8650  159.6130  136.2890 H   0  0  0  0  0  0  0  0  0  0  0  0
  140.7460  160.1320  136.0750 N   0  0  0  0  0  0  0  0  0  0  0  0
  141.4690  159.8840  134.8720 C   0  0  0  0  0  0  0  0  0  0  0  0
  141.8490  160.8570  134.1680 O   0  0  0  0  0  0  0  0  0  0  0  0
  141.7250  158.4950  134.4410 C   0  0  0  0  0  0  0  0  0  0  0  0
  142.9460  158.0600  133.9300 C   0  0  0  0  0  0  0  0  0  0  0  0
  143.8373  158.6705  133.7230 H   0  0  0  0  0  0  0  0  0  0  0  0
  142.8010  156.7050  133.7390 C   0  0  0  0  0  0  0  0  0  0  0  0
  143.6980  155.7730  133.2290 C   0  0  0  0  0  0  0  0  0  0  0  0
  144.7139  156.0697  132.9292 H   0  0  0  0  0  0  0  0  0  0  0  0
  143.2680  154.4410  133.1080 C   0  0  0  0  0  0  0  0  0  0  0  0
  143.9535  153.6833  132.7007 H   0  0  0  0  0  0  0  0  0  0  0  0
  141.9600  154.0620  133.5050 C   0  0  0  0  0  0  0  0  0  0  0  0
  141.4910  152.6420  133.3110 C   0  0  0  0  0  0  0  0  0  0  0  0
  140.2880  152.6130  132.6270 F   0  0  0  0  0  0  0  0  0  0  0  0
  142.4390  151.9460  132.5860 F   0  0  0  0  0  0  0  0  0  0  0  0
  141.3100  152.0190  134.5340 F   0  0  0  0  0  0  0  0  0  0  0  0
  141.0680  155.0460  133.9960 C   0  0  0  0  0  0  0  0  0  0  0  0
  140.0358  154.7834  134.2711 H   0  0  0  0  0  0  0  0  0  0  0  0
  141.5310  156.3610  134.1230 C   0  0  0  0  0  0  0  0  0  0  0  0
  140.8550  157.4500  134.5540 N   0  0  0  0  0  0  0  0  0  0  0  0
  139.4780  157.4980  134.9590 C   0  0  0  0  0  0  0  0  0  0  0  0
  139.1830  157.5330  136.1850 O   0  0  0  0  0  0  0  0  0  0  0  0
  138.4690  157.4800  133.9920 O   0  0  0  0  0  0  0  0  0  0  0  0
  138.7400  157.5390  132.5960 C   0  0  0  0  0  0  0  0  0  0  0  0
  138.1187  156.7986  132.0709 H   0  0  0  0  0  0  0  0  0  0  0  0
  139.8033  157.3183  132.4208 H   0  0  0  0  0  0  0  0  0  0  0  0
  138.4250  158.9100  132.0800 C   0  0  0  0  0  0  0  0  0  0  0  0
  137.6757  159.5236  132.6016 H   0  0  0  0  0  0  0  0  0  0  0  0
  139.0380  159.4030  130.9960 C   0  0  0  0  0  0  0  0  0  0  0  0
  139.7882  158.7916  130.4732 H   0  0  0  0  0  0  0  0  0  0  0  0
  138.7180  160.7730  130.4850 C   0  0  0  0  0  0  0  0  0  0  0  0
  138.5591  161.4534  131.3346 H   0  0  0  0  0  0  0  0  0  0  0  0
  139.5545  161.1405  129.8724 H   0  0  0  0  0  0  0  0  0  0  0  0
  137.8053  160.7319  129.8724 H   0  0  0  0  0  0  0  0  0  0  0  0
  1  2  1  0
  2  3  1  0
  3  4  2  0
  3  5  1  0
  5  6  2  0
  6  7  1  0
  6  8  1  0
  8  9  2  0
  9 10  1  0
  9 11  1  0
 11 12  1  0
 11 13  2  0
 13 14  1  0
 14 15  1  0
 14 16  1  0
 14 17  1  0
 13 18  1  0
 18 19  1  0
 18 20  2  0
 20 21  1  0
 21 22  1  0
 22 23  2  0
 22 24  1  0
 24 25  1  0
 25 26  1  0
 25 27  1  0
 25 28  1  0
 28 29  1  0
 28 30  2  0
 30 31  1  0
 30 32  1  0
 32 33  1  0
 32 34  1  0
 32 35  1  0
 21  5  1  0
 20  8  1  0
M  CHG  1   2  -1
M  END
>  <UniqueID>  (61) 
61

>  <SMILES>  (61) 
C/C=C/COC(=O)n1c(C([NH-])=O)cc2ccc(C(F)(F)F)cc21

>  <Energy>  (61) 
66.76588621314016

>  <Genealogy>  (61) 
C/C=C/COC(=O)n1c(C([NH-])=O)cc2ccc(C(F)(F)F)cc21 (protonated)
C/C=C/COC(=O)n1c(C([NH-])=O)cc2ccc(C(F)(F)F)cc21 (cis-trans isomerization)
C/C=C/COC(=O)n1c(C([NH-])=O)cc2ccc(C(F)(F)F)cc21 (3D coordinates assigned)
C/C=C/COC(=O)n1c(C([NH-])=O)cc2ccc(C(F)(F)F)cc21 (optimized conformer: 66.76588621314016 kcal/mol)

>  <smiles>  (61) 
C/C=C/COC(=O)n1c(C(N)=O)cc2ccc(C(F)(F)F)cc21

>  <score_type>  (61) 
oracle

>  <origin>  (61) 
adg

>  <m_score__min__energy>  (61) 
-6.4800000000000004

>  <m_primary>  (61) 
energy

$$$$
61:0
     RDKit          3D

 41 42  0  0  0  0  0  0  0  0999 V2000
  145.0270  155.6300  134.8090 C   0  0  0  0  0  0  0  0  0  0  0  0
  145.2050  156.3130  133.4900 C   0  0  0  0  0  0  0  0  0  0  0  0
  145.5130  155.6240  132.4800 O   0  0  0  0  0  0  0  0  0  0  0  0
  145.0130  157.7310  133.3560 N   0  0  0  0  0  0  0  0  0  0  0  0
  145.9640  158.6650  133.0760 C   0  0  0  0  0  0  0  0  0  0  0  0
  147.3680  158.3860  132.7110 C   0  0  0  0  0  0  0  0  0  0  0  0
  147.7120  157.2900  131.8620 N   0  0  0  0  0  0  0  0  0  0  0  0
  148.2770  159.1580  133.1170 O   0  0  0  0  0  0  0  0  0  0  0  0
  145.4320  159.9480  133.1570 C   0  0  0  0  0  0  0  0  0  0  0  0
  144.1090  159.7720  133.4940 C   0  0  0  0  0  0  0  0  0  0  0  0
  143.1130  160.7140  133.7270 C   0  0  0  0  0  0  0  0  0  0  0  0
  141.8430  160.2510  134.1070 C   0  0  0  0  0  0  0  0  0  0  0  0
  141.5920  158.8620  134.2630 C   0  0  0  0  0  0  0  0  0  0  0  0
  140.2830  158.3930  134.6590 N   0  0  0  0  0  0  0  0  0  0  0  0
  139.9810  158.2210  136.0840 C   0  0  0  0  0  0  0  0  0  0  0  0
  139.2620  158.0630  133.6500 C   0  0  0  0  0  0  0  0  0  0  0  0
  139.7700  158.3220  132.2210 C   0  0  0  0  0  0  0  0  0  0  0  0
  138.6690  158.7440  131.2340 C   0  0  0  0  0  0  0  0  0  0  0  0
  138.6750  160.2210  130.9680 C   0  0  0  0  0  0  0  0  0  0  0  0
  139.1480  160.9990  131.7820 O   0  0  0  0  0  0  0  0  0  0  0  0
  142.6360  157.9380  134.0250 C   0  0  0  0  0  0  0  0  0  0  0  0
  143.8830  158.4260  133.6170 C   0  0  0  0  0  0  0  0  0  0  0  0
  145.2140  156.3474  135.6216 H   0  0  0  0  0  0  0  0  0  0  0  0
  143.9989  155.2467  134.8876 H   0  0  0  0  0  0  0  0  0  0  0  0
  145.7372  154.7937  134.8876 H   0  0  0  0  0  0  0  0  0  0  0  0
  146.9790  156.7470  131.3550 H   0  0  0  0  0  0  0  0  0  0  0  0
  148.7150  157.0780  131.6610 H   0  0  0  0  0  0  0  0  0  0  0  0
  145.9567  160.8999  132.9878 H   0  0  0  0  0  0  0  0  0  0  0  0
  143.3140  161.7899  133.6169 H   0  0  0  0  0  0  0  0  0  0  0  0
  141.0327  160.9730  134.2860 H   0  0  0  0  0  0  0  0  0  0  0  0
  140.7810  158.6767  136.6860 H   0  0  0  0  0  0  0  0  0  0  0  0
  139.0232  158.7091  136.3174 H   0  0  0  0  0  0  0  0  0  0  0  0
  139.9123  157.1482  136.3174 H   0  0  0  0  0  0  0  0  0  0  0  0
  138.9958  157.0001  133.7466 H   0  0  0  0  0  0  0  0  0  0  0  0
  138.3867  158.7059  133.8247 H   0  0  0  0  0  0  0  0  0  0  0  0
  140.5239  159.1220  132.2613 H   0  0  0  0  0  0  0  0  0  0  0  0
  140.1817  157.3711  131.8518 H   0  0  0  0  0  0  0  0  0  0  0  0
  138.8244  158.2131  130.2832 H   0  0  0  0  0  0  0  0  0  0  0  0
  137.6986  158.4881  131.6844 H   0  0  0  0  0  0  0  0  0  0  0  0
  138.2490  160.6069  130.0301 H   0  0  0  0  0  0  0  0  0  0  0  0
  142.4715  156.8585  134.1577 H   0  0  0  0  0  0  0  0  0  0  0  0
  1  2  1  0
  2  3  2  0
  2  4  1  0
  4  5  1  0
  5  6  1  0
  6  7  1  0
  6  8  2  0
  5  9  2  0
  9 10  1  0
 10 11  2  0
 11 12  1  0
 12 13  2  0
 13 14  1  0
 14 15  1  0
 14 16  1  0
 16 17  1  0
 17 18  1  0
 18 19  1  0
 19 20  2  0
 13 21  1  0
 21 22  2  0
 22  4  1  0
 22 10  1  0
  1 23  1  0
  1 24  1  0
  1 25  1  0
  7 26  1  0
  7 27  1  0
  9 28  1  0
 11 29  1  0
 12 30  1  0
 15 31  1  0
 15 32  1  0
 15 33  1  0
 16 34  1  0
 16 35  1  0
 17 36  1  0
 17 37  1  0
 18 38  1  0
 18 39  1  0
 19 40  1  0
 21 41  1  0
M  END
>  <UniqueID>  (62) 
62

>  <SMILES>  (62) 
CC(=O)n1c(C(N)=O)cc2ccc(N(C)CCCC=O)cc21

>  <Energy>  (62) 
77.16291987179052

>  <Genealogy>  (62) 
CC(=O)n1c(C(N)=O)cc2ccc(N(C)CCCC=O)cc21 (3D coordinates assigned)
CC(=O)n1c(C(N)=O)cc2ccc(N(C)CCCC=O)cc21 (optimized conformer: 77.16291987179052 kcal/mol)

>  <smiles>  (62) 
CC(=O)n1c(C(N)=O)cc2ccc(N(C)CCCC=O)cc21

>  <score_type>  (62) 
oracle

>  <origin>  (62) 
adg

>  <m_score__min__energy>  (62) 
-6.9299999999999997

>  <m_primary>  (62) 
energy

$$$$
62:0
     RDKit          3D

 38 40  0  0  0  0  0  0  0  0999 V2000
  146.2640  151.8720  132.4540 C   0  0  0  0  0  0  0  0  0  0  0  0
  147.3790  152.8270  132.7210 C   0  0  0  0  0  0  0  0  0  0  0  0
  148.5270  152.8330  132.0850 O   0  0  0  0  0  0  0  0  0  0  0  0
  149.2140  153.8310  132.5930 C   0  0  0  0  0  0  0  0  0  0  0  0
  150.3760  154.1390  132.2220 O   0  0  0  0  0  0  0  0  0  0  0  0
  148.5540  154.4750  133.5290 O   0  0  0  0  0  0  0  0  0  0  0  0
  147.3940  153.8690  133.6310 C   0  0  0  0  0  0  0  0  0  0  0  0
  146.3040  154.2700  134.5780 C   0  0  0  0  0  0  0  0  0  0  0  0
  146.0660  155.6730  134.4990 O   0  0  0  0  0  0  0  0  0  0  0  0
  145.8870  156.3540  133.2900 C   0  0  0  0  0  0  0  0  0  0  0  0
  145.5930  155.7190  132.2400 O   0  0  0  0  0  0  0  0  0  0  0  0
  146.0240  157.7820  133.2480 N   0  0  0  0  0  0  0  0  0  0  0  0
  147.1620  158.5000  133.0320 C   0  0  0  0  0  0  0  0  0  0  0  0
  148.4720  157.9440  132.6400 C   0  0  0  0  0  0  0  0  0  0  0  0
  148.6100  156.5770  132.2500 N   0  0  0  0  0  0  0  0  0  0  0  0
  149.4790  158.7020  132.5980 O   0  0  0  0  0  0  0  0  0  0  0  0
  146.9180  159.8630  133.1740 C   0  0  0  0  0  0  0  0  0  0  0  0
  145.5770  159.9620  133.4700 C   0  0  0  0  0  0  0  0  0  0  0  0
  144.8010  161.0860  133.7330 C   0  0  0  0  0  0  0  0  0  0  0  0
  143.4460  160.8930  134.0500 C   0  0  0  0  0  0  0  0  0  0  0  0
  142.8890  159.5870  134.0910 C   0  0  0  0  0  0  0  0  0  0  0  0
  141.4510  159.3890  134.4950 C   0  0  0  0  0  0  0  0  0  0  0  0
  141.1430  158.0430  134.4330 F   0  0  0  0  0  0  0  0  0  0  0  0
  140.6060  160.0840  133.6460 F   0  0  0  0  0  0  0  0  0  0  0  0
  141.2370  159.8420  135.7840 F   0  0  0  0  0  0  0  0  0  0  0  0
  143.7190  158.4690  133.8430 C   0  0  0  0  0  0  0  0  0  0  0  0
  145.0600  158.6930  133.5090 C   0  0  0  0  0  0  0  0  0  0  0  0
  145.8491  151.5166  133.4087 H   0  0  0  0  0  0  0  0  0  0  0  0
  145.4762  152.3798  131.8782 H   0  0  0  0  0  0  0  0  0  0  0  0
  146.6447  151.0155  131.8782 H   0  0  0  0  0  0  0  0  0  0  0  0
  145.3813  153.7309  134.3172 H   0  0  0  0  0  0  0  0  0  0  0  0
  146.6129  154.0185  135.6034 H   0  0  0  0  0  0  0  0  0  0  0  0
  149.5520  156.1900  132.0190 H   0  0  0  0  0  0  0  0  0  0  0  0
  147.7740  155.9690  132.1030 H   0  0  0  0  0  0  0  0  0  0  0  0
  147.6417  160.6851  133.0716 H   0  0  0  0  0  0  0  0  0  0  0  0
  145.2353  162.0959  133.6940 H   0  0  0  0  0  0  0  0  0  0  0  0
  142.8094  161.7629  134.2689 H   0  0  0  0  0  0  0  0  0  0  0  0
  143.3198  157.4463  133.9110 H   0  0  0  0  0  0  0  0  0  0  0  0
  1  2  1  0
  2  3  1  0
  3  4  1  0
  4  5  2  0
  4  6  1  0
  6  7  1  0
  7  8  1  0
  8  9  1  0
  9 10  1  0
 10 11  2  0
 10 12  1  0
 12 13  1  0
 13 14  1  0
 14 15  1  0
 14 16  2  0
 13 17  2  0
 17 18  1  0
 18 19  2  0
 19 20  1  0
 20 21  2  0
 21 22  1  0
 22 23  1  0
 22 24  1  0
 22 25  1  0
 21 26  1  0
 26 27  2  0
  7  2  2  0
 27 12  1  0
 27 18  1  0
  1 28  1  0
  1 29  1  0
  1 30  1  0
  8 31  1  0
  8 32  1  0
 15 33  1  0
 15 34  1  0
 17 35  1  0
 19 36  1  0
 20 37  1  0
 26 38  1  0
M  END
>  <UniqueID>  (63) 
63

>  <SMILES>  (63) 
Cc1oc(=O)oc1COC(=O)n1c(C(N)=O)cc2ccc(C(F)(F)F)cc21

>  <Energy>  (63) 
108.87866444951769

>  <Genealogy>  (63) 
Cc1oc(=O)oc1COC(=O)n1c(C(N)=O)cc2ccc(C(F)(F)F)cc21 (3D coordinates assigned)
Cc1oc(=O)oc1COC(=O)n1c(C(N)=O)cc2ccc(C(F)(F)F)cc21 (optimized conformer: 108.87866444951769 kcal/mol)

>  <smiles>  (63) 
Cc1oc(=O)oc1COC(=O)n1c(C(N)=O)cc2ccc(C(F)(F)F)cc21

>  <score_type>  (63) 
oracle

>  <origin>  (63) 
adg

>  <m_score__min__energy>  (63) 
-6.5

>  <m_primary>  (63) 
energy

$$$$
63:0
     RDKit          3D

 41 43  0  0  0  0  0  0  0  0999 V2000
  146.8850  153.7360  135.5440 N   0  0  0  0  0  0  0  0  0  0  0  0
  146.0880  154.6550  134.8020 C   0  0  0  0  0  0  0  0  0  0  0  0
  144.8540  154.4410  134.6750 O   0  0  0  0  0  0  0  0  0  0  0  0
  146.7090  155.8590  134.2140 C   0  0  0  0  0  0  0  0  0  0  0  0
  146.2880  157.1600  134.4850 C   0  0  0  0  0  0  0  0  0  0  0  0
  147.0880  157.9710  133.7090 C   0  0  0  0  0  0  0  0  0  0  0  0
  147.1240  159.3580  133.6020 C   0  0  0  0  0  0  0  0  0  0  0  0
  148.0860  159.9280  132.7510 C   0  0  0  0  0  0  0  0  0  0  0  0
  148.9840  159.1060  132.0230 C   0  0  0  0  0  0  0  0  0  0  0  0
  150.0450  159.7280  131.1600 C   0  0  0  0  0  0  0  0  0  0  0  0
  149.4170  160.6010  130.1220 C   0  0  0  0  0  0  0  0  0  0  0  0
  148.6660  160.1000  129.2420 O   0  0  0  0  0  0  0  0  0  0  0  0
  149.6950  161.9620  130.0940 O   0  0  0  0  0  0  0  0  0  0  0  0
  148.9210  157.7020  132.1640 C   0  0  0  0  0  0  0  0  0  0  0  0
  147.9480  157.1650  133.0110 C   0  0  0  0  0  0  0  0  0  0  0  0
  147.7370  155.8690  133.3180 N   0  0  0  0  0  0  0  0  0  0  0  0
  148.4820  154.7500  132.8110 C   0  0  0  0  0  0  0  0  0  0  0  0
  149.6930  154.9100  132.5020 O   0  0  0  0  0  0  0  0  0  0  0  0
  147.8640  153.4250  132.5960 C   0  0  0  0  0  0  0  0  0  0  0  0
  148.5240  152.2500  132.5290 C   0  0  0  0  0  0  0  0  0  0  0  0
  150.0400  152.1780  132.5740 C   0  0  0  0  0  0  0  0  0  0  0  0
  150.5920  150.7520  132.4470 C   0  0  0  0  0  0  0  0  0  0  0  0
  149.7880  149.9470  131.6110 O   0  0  0  0  0  0  0  0  0  0  0  0
  148.5440  149.7350  132.2410 C   0  0  0  0  0  0  0  0  0  0  0  0
  147.7070  151.0140  132.2280 C   0  0  0  0  0  0  0  0  0  0  0  0
  147.3960  152.9610  135.0660 H   0  0  0  0  0  0  0  0  0  0  0  0
  145.4878  157.4728  135.1719 H   0  0  0  0  0  0  0  0  0  0  0  0
  146.4211  159.9887  134.1661 H   0  0  0  0  0  0  0  0  0  0  0  0
  148.1432  161.0217  132.6484 H   0  0  0  0  0  0  0  0  0  0  0  0
  150.7154  160.3336  131.7875 H   0  0  0  0  0  0  0  0  0  0  0  0
  150.6166  158.9310  130.6620 H   0  0  0  0  0  0  0  0  0  0  0  0
  149.6197  157.0484  131.6212 H   0  0  0  0  0  0  0  0  0  0  0  0
  146.7705  153.3939  132.4805 H   0  0  0  0  0  0  0  0  0  0  0  0
  150.4414  152.7811  131.7463 H   0  0  0  0  0  0  0  0  0  0  0  0
  150.3516  152.5577  133.5583 H   0  0  0  0  0  0  0  0  0  0  0  0
  151.6067  150.8001  132.0249 H   0  0  0  0  0  0  0  0  0  0  0  0
  150.5996  150.2997  133.4497 H   0  0  0  0  0  0  0  0  0  0  0  0
  147.9997  148.9418  131.7077 H   0  0  0  0  0  0  0  0  0  0  0  0
  148.7223  149.4396  133.2855 H   0  0  0  0  0  0  0  0  0  0  0  0
  147.2523  151.1267  131.2328 H   0  0  0  0  0  0  0  0  0  0  0  0
  146.9449  150.9200  133.0156 H   0  0  0  0  0  0  0  0  0  0  0  0
  1  2  1  0
  2  3  2  0
  2  4  1  0
  4  5  2  0
  5  6  1  0
  6  7  2  0
  7  8  1  0
  8  9  2  0
  9 10  1  0
 10 11  1  0
 11 12  2  0
 11 13  1  0
  9 14  1  0
 14 15  2  0
 15 16  1  0
 16 17  1  0
 17 18  2  0
 17 19  1  0
 19 20  2  3
 20 21  1  0
 21 22  1  0
 22 23  1  0
 23 24  1  0
 24 25  1  0
 16  4  1  0
 25 20  1  0
 15  6  1  0
  1 26  1  0
  5 27  1  0
  7 28  1  0
  8 29  1  0
 10 30  1  0
 10 31  1  0
 14 32  1  0
 19 33  1  0
 21 34  1  0
 21 35  1  0
 22 36  1  0
 22 37  1  0
 24 38  1  0
 24 39  1  0
 25 40  1  0
 25 41  1  0
M  CHG  2   1  -1  13  -1
M  END
>  <UniqueID>  (64) 
64

>  <SMILES>  (64) 
[NH-]C(=O)c1cc2ccc(CC(=O)[O-])cc2n1C(=O)C=C1CCOCC1

>  <Energy>  (64) 
85.46228437610971

>  <Genealogy>  (64) 
[NH-]C(=O)c1cc2ccc(CC(=O)[O-])cc2n1C(=O)C=C1CCOCC1 (protonated)
[NH-]C(=O)c1cc2ccc(CC(=O)[O-])cc2n1C(=O)C=C1CCOCC1 (3D coordinates assigned)
[NH-]C(=O)c1cc2ccc(CC(=O)[O-])cc2n1C(=O)C=C1CCOCC1 (nonaromatic ring conformer: 85.46228437610971 kcal/mol)

>  <smiles>  (64) 
NC(=O)c1cc2ccc(CC(=O)O)cc2n1C(=O)C=C1CCOCC1

>  <score_type>  (64) 
oracle

>  <origin>  (64) 
adg

>  <m_score__min__energy>  (64) 
-8.3399999999999999

>  <m_primary>  (64) 
energy

$$$$
64:0
     RDKit          3D

 61 62  0  0  0  0  0  0  0  0999 V2000
  138.9480  160.3460  130.6950 C   0  0  0  0  0  0  0  0  0  0  0  0
  137.6370  159.6850  131.1000 C   0  0  0  0  0  0  0  0  0  0  0  0
  137.8690  158.7440  132.2020 N   0  0  0  0  0  0  0  0  0  0  0  0
  139.1200  158.0060  131.9940 C   0  0  0  0  0  0  0  0  0  0  0  0
  139.4340  157.1170  133.2060 C   0  0  0  0  0  0  0  0  0  0  0  0
  140.1170  157.8580  134.2810 N   0  0  0  0  0  0  0  0  0  0  0  0
  139.3700  158.1900  135.5110 C   0  0  0  0  0  0  0  0  0  0  0  0
  140.1690  157.8210  136.7620 C   0  0  0  0  0  0  0  0  0  0  0  0
  140.9640  158.9200  137.1550 O   0  0  0  0  0  0  0  0  0  0  0  0
  141.7370  158.5610  138.2760 C   0  0  0  0  0  0  0  0  0  0  0  0
  141.4510  158.3830  134.0660 C   0  0  0  0  0  0  0  0  0  0  0  0
  141.6730  159.7840  134.0360 C   0  0  0  0  0  0  0  0  0  0  0  0
  142.9520  160.3100  133.7940 C   0  0  0  0  0  0  0  0  0  0  0  0
  143.9960  159.4160  133.5920 C   0  0  0  0  0  0  0  0  0  0  0  0
  145.3180  159.6580  133.2960 C   0  0  0  0  0  0  0  0  0  0  0  0
  145.9030  158.4000  133.1780 C   0  0  0  0  0  0  0  0  0  0  0  0
  147.3400  158.1920  132.9110 C   0  0  0  0  0  0  0  0  0  0  0  0
  147.7790  157.4070  131.8040 N   0  0  0  0  0  0  0  0  0  0  0  0
  148.1920  158.6670  133.7080 O   0  0  0  0  0  0  0  0  0  0  0  0
  144.9780  157.4190  133.3820 N   0  0  0  0  0  0  0  0  0  0  0  0
  145.1650  156.0050  133.2140 C   0  0  0  0  0  0  0  0  0  0  0  0
  144.2100  155.2140  133.4440 O   0  0  0  0  0  0  0  0  0  0  0  0
  146.4120  155.5210  132.7870 O   0  0  0  0  0  0  0  0  0  0  0  0
  147.1230  154.3990  133.3300 C   0  0  0  0  0  0  0  0  0  0  0  0
  146.4050  153.0810  132.9820 C   0  0  0  0  0  0  0  0  0  0  0  0
  148.5170  154.3910  132.6860 C   0  0  0  0  0  0  0  0  0  0  0  0
  147.2810  154.5440  134.8560 C   0  0  0  0  0  0  0  0  0  0  0  0
  143.8150  158.0590  133.6380 C   0  0  0  0  0  0  0  0  0  0  0  0
  142.5470  157.5070  133.8600 C   0  0  0  0  0  0  0  0  0  0  0  0
  139.5099  160.6293  131.5973 H   0  0  0  0  0  0  0  0  0  0  0  0
  139.5448  159.6411  130.0976 H   0  0  0  0  0  0  0  0  0  0  0  0
  138.7361  161.2450  130.0976 H   0  0  0  0  0  0  0  0  0  0  0  0
  136.9245  160.4576  131.4246 H   0  0  0  0  0  0  0  0  0  0  0  0
  137.2270  159.1380  130.2382 H   0  0  0  0  0  0  0  0  0  0  0  0
  137.0870  158.0460  132.1920 H   0  0  0  0  0  0  0  0  0  0  0  0
  139.0220  157.3744  131.0987 H   0  0  0  0  0  0  0  0  0  0  0  0
  139.9392  158.7285  131.8638 H   0  0  0  0  0  0  0  0  0  0  0  0
  138.4910  156.7106  133.6004 H   0  0  0  0  0  0  0  0  0  0  0  0
  140.1075  156.3150  132.8696 H   0  0  0  0  0  0  0  0  0  0  0  0
  139.1624  159.2702  135.5238 H   0  0  0  0  0  0  0  0  0  0  0  0
  138.4328  157.6141  135.5147 H   0  0  0  0  0  0  0  0  0  0  0  0
  139.4762  157.5602  137.5757 H   0  0  0  0  0  0  0  0  0  0  0  0
  140.8173  156.9601  136.5418 H   0  0  0  0  0  0  0  0  0  0  0  0
  141.1895  158.8153  139.1956 H   0  0  0  0  0  0  0  0  0  0  0  0
  141.9343  157.4791  138.2540 H   0  0  0  0  0  0  0  0  0  0  0  0
  142.6910  159.1082  138.2540 H   0  0  0  0  0  0  0  0  0  0  0  0
  140.8293  160.4692  134.2051 H   0  0  0  0  0  0  0  0  0  0  0  0
  143.1222  161.3964  133.7652 H   0  0  0  0  0  0  0  0  0  0  0  0
  145.8077  160.6359  133.1779 H   0  0  0  0  0  0  0  0  0  0  0  0
  147.1030  156.8520  131.2340 H   0  0  0  0  0  0  0  0  0  0  0  0
  148.7980  157.3270  131.5910 H   0  0  0  0  0  0  0  0  0  0  0  0
  146.1221  152.5616  133.9095 H   0  0  0  0  0  0  0  0  0  0  0  0
  145.5014  153.2998  132.3940 H   0  0  0  0  0  0  0  0  0  0  0  0
  147.0789  152.4405  132.3940 H   0  0  0  0  0  0  0  0  0  0  0  0
  149.2848  154.3866  133.4737 H   0  0  0  0  0  0  0  0  0  0  0  0
  148.6272  153.4922  132.0615 H   0  0  0  0  0  0  0  0  0  0  0  0
  148.6375  155.2885  132.0615 H   0  0  0  0  0  0  0  0  0  0  0  0
  146.5619  153.8841  135.3634 H   0  0  0  0  0  0  0  0  0  0  0  0
  148.3042  154.2640  135.1469 H   0  0  0  0  0  0  0  0  0  0  0  0
  147.0897  155.5874  135.1469 H   0  0  0  0  0  0  0  0  0  0  0  0
  142.4043  156.4164  133.8743 H   0  0  0  0  0  0  0  0  0  0  0  0
  1  2  1  0
  2  3  1  0
  3  4  1  0
  4  5  1  0
  5  6  1  0
  6  7  1  0
  7  8  1  0
  8  9  1  0
  9 10  1  0
  6 11  1  0
 11 12  2  0
 12 13  1  0
 13 14  2  0
 14 15  1  0
 15 16  2  0
 16 17  1  0
 17 18  1  0
 17 19  2  0
 16 20  1  0
 20 21  1  0
 21 22  2  0
 21 23  1  0
 23 24  1  0
 24 25  1  0
 24 26  1  0
 24 27  1  0
 20 28  1  0
 28 29  2  0
 29 11  1  0
 28 14  1  0
  1 30  1  0
  1 31  1  0
  1 32  1  0
  2 33  1  0
  2 34  1  0
  3 35  1  0
  4 36  1  0
  4 37  1  0
  5 38  1  0
  5 39  1  0
  7 40  1  0
  7 41  1  0
  8 42  1  0
  8 43  1  0
 10 44  1  0
 10 45  1  0
 10 46  1  0
 12 47  1  0
 13 48  1  0
 15 49  1  0
 18 50  1  0
 18 51  1  0
 25 52  1  0
 25 53  1  0
 25 54  1  0
 26 55  1  0
 26 56  1  0
 26 57  1  0
 27 58  1  0
 27 59  1  0
 27 60  1  0
 29 61  1  0
M  END
>  <UniqueID>  (65) 
65

>  <SMILES>  (65) 
CCNCCN(CCOC)c1ccc2cc(C(N)=O)n(C(=O)OC(C)(C)C)c2c1

>  <Energy>  (65) 
88.14987219390338

>  <Genealogy>  (65) 
CCNCCN(CCOC)c1ccc2cc(C(N)=O)n(C(=O)OC(C)(C)C)c2c1 (3D coordinates assigned)
CCNCCN(CCOC)c1ccc2cc(C(N)=O)n(C(=O)OC(C)(C)C)c2c1 (optimized conformer: 88.14987219390338 kcal/mol)

>  <smiles>  (65) 
CCNCCN(CCOC)c1ccc2cc(C(N)=O)n(C(=O)OC(C)(C)C)c2c1

>  <score_type>  (65) 
oracle

>  <origin>  (65) 
adg

>  <m_score__min__energy>  (65) 
-7.96

>  <m_primary>  (65) 
energy

$$$$
65:0
     RDKit          3D

 42 44  0  0  0  0  0  0  0  0999 V2000
  148.6440  155.0240  132.6280 C   0  0  0  0  0  0  0  0  0  0  0  0
  148.4550  156.4980  133.0130 C   0  0  2  0  0  0  0  0  0  0  0  0
  147.0240  156.7430  133.5350 C   0  0  0  0  0  0  0  0  0  0  0  0
  146.6900  158.1720  133.4870 N   0  0  0  0  0  0  0  0  0  0  0  0
  145.3190  158.6000  133.6100 C   0  0  0  0  0  0  0  0  0  0  0  0
  145.0060  159.9800  133.7160 C   0  0  0  0  0  0  0  0  0  0  0  0
  143.6750  160.4100  133.8360 C   0  0  0  0  0  0  0  0  0  0  0  0
  142.6750  159.4430  133.8340 C   0  0  0  0  0  0  0  0  0  0  0  0
  141.3120  159.5810  133.9610 C   0  0  0  0  0  0  0  0  0  0  0  0
  140.8030  158.2850  133.9000 C   0  0  0  0  0  0  0  0  0  0  0  0
  139.3560  157.9820  133.9110 C   0  0  0  0  0  0  0  0  0  0  0  0
  138.7070  157.4570  132.7570 N   0  0  0  0  0  0  0  0  0  0  0  0
  138.6740  158.2350  134.9400 O   0  0  0  0  0  0  0  0  0  0  0  0
  141.8130  157.3810  133.7490 N   0  0  0  0  0  0  0  0  0  0  0  0
  141.7180  155.9480  133.7290 C   0  0  0  0  0  0  0  0  0  0  0  0
  142.6640  155.2410  134.1650 O   0  0  0  0  0  0  0  0  0  0  0  0
  140.5910  155.3270  133.2040 O   0  0  0  0  0  0  0  0  0  0  0  0
  142.9520  158.1070  133.7080 C   0  0  0  0  0  0  0  0  0  0  0  0
  144.2710  157.6490  133.6070 C   0  0  0  0  0  0  0  0  0  0  0  0
  147.7830  159.1520  133.4120 C   0  0  0  0  0  0  0  0  0  0  0  0
  148.7570  158.8120  132.2510 C   0  0  2  0  0  0  0  0  0  0  0  0
  148.4870  159.7040  131.0300 C   0  0  0  0  0  0  0  0  0  0  0  0
  148.7180  157.3800  131.8610 N   0  0  0  0  0  0  0  0  0  0  0  0
  148.7222  154.4140  133.5400 H   0  0  0  0  0  0  0  0  0  0  0  0
  147.7817  154.6867  132.0341 H   0  0  0  0  0  0  0  0  0  0  0  0
  149.5635  154.9151  132.0341 H   0  0  0  0  0  0  0  0  0  0  0  0
  149.1751  156.7318  133.8110 H   0  0  0  0  0  0  0  0  0  0  0  0
  146.3114  156.1847  132.9100 H   0  0  0  0  0  0  0  0  0  0  0  0
  146.9659  156.4018  134.5791 H   0  0  0  0  0  0  0  0  0  0  0  0
  145.8172  160.7228  133.7040 H   0  0  0  0  0  0  0  0  0  0  0  0
  143.4304  161.4785  133.9287 H   0  0  0  0  0  0  0  0  0  0  0  0
  140.7447  160.5153  134.0844 H   0  0  0  0  0  0  0  0  0  0  0  0
  138.7350  156.4360  132.5420 H   0  0  0  0  0  0  0  0  0  0  0  0
  144.4880  156.5736  133.5271 H   0  0  0  0  0  0  0  0  0  0  0  0
  147.3581  160.1525  133.2437 H   0  0  0  0  0  0  0  0  0  0  0  0
  148.3431  159.1253  134.3584 H   0  0  0  0  0  0  0  0  0  0  0  0
  149.7699  159.0134  132.6298 H   0  0  0  0  0  0  0  0  0  0  0  0
  148.1837  160.7060  131.3678 H   0  0  0  0  0  0  0  0  0  0  0  0
  149.4016  159.7826  130.4239 H   0  0  0  0  0  0  0  0  0  0  0  0
  147.6823  159.2622  130.4239 H   0  0  0  0  0  0  0  0  0  0  0  0
  149.6430  157.1300  131.4360 H   0  0  0  0  0  0  0  0  0  0  0  0
  147.9790  157.2180  131.1340 H   0  0  0  0  0  0  0  0  0  0  0  0
  1  2  1  0
  2  3  1  0
  3  4  1  0
  4  5  1  0
  5  6  2  0
  6  7  1  0
  7  8  2  0
  8  9  1  0
  9 10  2  0
 10 11  1  0
 11 12  1  0
 11 13  2  0
 10 14  1  0
 14 15  1  0
 15 16  2  0
 15 17  1  0
 14 18  1  0
 18 19  2  0
  4 20  1  0
 20 21  1  0
 21 22  1  0
 21 23  1  0
 23  2  1  0
 19  5  1  0
 18  8  1  0
  1 24  1  0
  1 25  1  0
  1 26  1  0
  2 27  1  1
  3 28  1  0
  3 29  1  0
  6 30  1  0
  7 31  1  0
  9 32  1  0
 12 33  1  0
 19 34  1  0
 20 35  1  0
 20 36  1  0
 21 37  1  1
 22 38  1  0
 22 39  1  0
 22 40  1  0
 23 41  1  0
 23 42  1  0
M  CHG  3  12  -1  17  -1  23   1
M  END
>  <UniqueID>  (66) 
66

>  <SMILES>  (66) 
C[C@@H]1CN(c2ccc3cc(C([NH-])=O)n(C(=O)[O-])c3c2)C[C@H](C)[NH2+]1

>  <Energy>  (66) 
89.22088919103916

>  <Genealogy>  (66) 
C[C@@H]1CN(c2ccc3cc(C([NH-])=O)n(C(=O)[O-])c3c2)C[C@H](C)[NH2+]1 (protonated)
C[C@@H]1CN(c2ccc3cc(C([NH-])=O)n(C(=O)[O-])c3c2)C[C@H](C)[NH2+]1 (3D coordinates assigned)
C[C@@H]1CN(c2ccc3cc(C([NH-])=O)n(C(=O)[O-])c3c2)C[C@H](C)[NH2+]1 (nonaromatic ring conformer: 89.22088919103916 kcal/mol)

>  <smiles>  (66) 
C[C@@H]1CN(c2ccc3cc(C(N)=O)n(C(=O)O)c3c2)C[C@H](C)N1

>  <score_type>  (66) 
oracle

>  <origin>  (66) 
adg

>  <m_score__min__energy>  (66) 
-7.5700000000000003

>  <m_primary>  (66) 
energy

$$$$
66:0
     RDKit          3D

 35 36  0  0  0  0  0  0  0  0999 V2000
  149.8690  150.7450  134.4650 C   0  0  0  0  0  0  0  0  0  0  0  0
  150.0690  151.3610  133.1990 O   0  0  0  0  0  0  0  0  0  0  0  0
  149.1490  152.2530  132.6420 C   0  0  0  0  0  0  0  0  0  0  0  0
  148.2520  151.8440  131.8540 O   0  0  0  0  0  0  0  0  0  0  0  0
  149.1970  153.6970  133.0290 C   0  0  0  0  0  0  0  0  0  0  0  0
  148.1410  154.4490  132.3490 N   0  0  0  0  0  0  0  0  0  0  0  0
  147.8830  155.8450  132.5970 C   0  0  0  0  0  0  0  0  0  0  0  0
  148.9300  156.8060  132.6100 C   0  0  0  0  0  0  0  0  0  0  0  0
  148.6560  158.1640  132.8460 C   0  0  0  0  0  0  0  0  0  0  0  0
  147.3350  158.5340  133.0700 C   0  0  0  0  0  0  0  0  0  0  0  0
  146.7890  159.7760  133.3100 C   0  0  0  0  0  0  0  0  0  0  0  0
  145.4210  159.5550  133.4570 C   0  0  0  0  0  0  0  0  0  0  0  0
  144.4550  160.6130  133.8160 C   0  0  0  0  0  0  0  0  0  0  0  0
  143.0910  160.4950  133.4200 N   0  0  0  0  0  0  0  0  0  0  0  0
  144.8280  161.6400  134.4430 O   0  0  0  0  0  0  0  0  0  0  0  0
  145.1330  158.2310  133.3030 N   0  0  0  0  0  0  0  0  0  0  0  0
  143.8460  157.5950  133.3220 C   0  0  0  0  0  0  0  0  0  0  0  0
  143.4060  156.7890  134.5030 C   0  0  0  0  0  0  0  0  0  0  0  0
  143.0480  157.7650  132.3610 O   0  0  0  0  0  0  0  0  0  0  0  0
  146.3150  157.6210  133.0740 C   0  0  0  0  0  0  0  0  0  0  0  0
  146.5540  156.2650  132.8300 C   0  0  0  0  0  0  0  0  0  0  0  0
  150.1026  151.4643  135.2638 H   0  0  0  0  0  0  0  0  0  0  0  0
  148.8206  150.4244  134.5553 H   0  0  0  0  0  0  0  0  0  0  0  0
  150.5291  149.8697  134.5553 H   0  0  0  0  0  0  0  0  0  0  0  0
  149.0595  153.7843  134.1169 H   0  0  0  0  0  0  0  0  0  0  0  0
  150.1726  154.1106  132.7339 H   0  0  0  0  0  0  0  0  0  0  0  0
  147.5420  153.9560  131.6480 H   0  0  0  0  0  0  0  0  0  0  0  0
  149.9666  156.4832  132.4333 H   0  0  0  0  0  0  0  0  0  0  0  0
  149.4627  158.9117  132.8532 H   0  0  0  0  0  0  0  0  0  0  0  0
  147.3199  160.7374  133.3723 H   0  0  0  0  0  0  0  0  0  0  0  0
  142.8180  159.9080  132.6010 H   0  0  0  0  0  0  0  0  0  0  0  0
  143.6905  157.3101  135.4291 H   0  0  0  0  0  0  0  0  0  0  0  0
  142.3137  156.6625  134.4742 H   0  0  0  0  0  0  0  0  0  0  0  0
  143.8904  155.8018  134.4742 H   0  0  0  0  0  0  0  0  0  0  0  0
  145.7257  155.5412  132.8197 H   0  0  0  0  0  0  0  0  0  0  0  0
  1  2  1  0
  2  3  1  0
  3  4  2  0
  3  5  1  0
  5  6  1  0
  6  7  1  0
  7  8  2  0
  8  9  1  0
  9 10  2  0
 10 11  1  0
 11 12  2  0
 12 13  1  0
 13 14  1  0
 13 15  2  0
 12 16  1  0
 16 17  1  0
 17 18  1  0
 17 19  2  0
 16 20  1  0
 20 21  2  0
 21  7  1  0
 20 10  1  0
  1 22  1  0
  1 23  1  0
  1 24  1  0
  5 25  1  0
  5 26  1  0
  6 27  1  0
  8 28  1  0
  9 29  1  0
 11 30  1  0
 14 31  1  0
 18 32  1  0
 18 33  1  0
 18 34  1  0
 21 35  1  0
M  CHG  1  14  -1
M  END
>  <UniqueID>  (67) 
67

>  <SMILES>  (67) 
COC(=O)CNc1ccc2cc(C([NH-])=O)n(C(C)=O)c2c1

>  <Energy>  (67) 
70.30391675624762

>  <Genealogy>  (67) 
COC(=O)CNc1ccc2cc(C([NH-])=O)n(C(C)=O)c2c1 (protonated)
COC(=O)CNc1ccc2cc(C([NH-])=O)n(C(C)=O)c2c1 (3D coordinates assigned)
COC(=O)CNc1ccc2cc(C([NH-])=O)n(C(C)=O)c2c1 (optimized conformer: 70.30391675624762 kcal/mol)

>  <smiles>  (67) 
COC(=O)CNc1ccc2cc(C(N)=O)n(C(C)=O)c2c1

>  <score_type>  (67) 
oracle

>  <origin>  (67) 
adg

>  <m_score__min__energy>  (67) 
-6

>  <m_primary>  (67) 
energy

$$$$
67:0
     RDKit          3D

 49 52  0  0  0  0  0  0  0  0999 V2000
  149.2570  157.6430  132.6150 N   0  0  0  0  0  0  0  0  0  0  0  0
  148.2680  157.5900  133.6430 C   0  0  0  0  0  0  0  0  0  0  0  0
  148.4560  158.2280  134.7140 O   0  0  0  0  0  0  0  0  0  0  0  0
  147.0600  156.7520  133.5020 C   0  0  0  0  0  0  0  0  0  0  0  0
  145.7660  157.2600  133.5600 C   0  0  0  0  0  0  0  0  0  0  0  0
  144.9420  156.1630  133.4510 C   0  0  0  0  0  0  0  0  0  0  0  0
  143.5530  156.0910  133.4370 C   0  0  0  0  0  0  0  0  0  0  0  0
  142.9610  154.8290  133.2710 C   0  0  0  0  0  0  0  0  0  0  0  0
  143.7600  153.6660  133.1130 C   0  0  0  0  0  0  0  0  0  0  0  0
  143.1220  152.3380  132.9240 C   0  0  0  0  0  0  0  0  0  0  0  0
  141.7310  152.1880  133.0590 C   0  0  0  0  0  0  0  0  0  0  0  0
  141.1310  150.9390  132.8830 C   0  0  0  0  0  0  0  0  0  0  0  0
  141.9100  149.8110  132.5760 C   0  0  0  0  0  0  0  0  0  0  0  0
  141.2760  148.4870  132.3770 C   0  0  0  0  0  0  0  0  0  0  0  0
  141.7270  147.4870  133.0000 O   0  0  0  0  0  0  0  0  0  0  0  0
  140.1720  148.3140  131.4710 N   0  0  0  0  0  0  0  0  0  0  0  0
  140.1140  147.0960  130.6480 C   0  0  0  0  0  0  0  0  0  0  0  0
  138.9030  147.1060  129.7050 C   0  0  0  0  0  0  0  0  0  0  0  0
  138.7390  148.4920  129.0740 C   0  0  0  0  0  0  0  0  0  0  0  0
  138.5170  149.5940  130.1310 C   0  0  0  0  0  0  0  0  0  0  0  0
  139.0060  149.2060  131.5400 C   0  0  0  0  0  0  0  0  0  0  0  0
  143.2970  149.9620  132.4230 C   0  0  0  0  0  0  0  0  0  0  0  0
  143.8990  151.2120  132.6010 C   0  0  0  0  0  0  0  0  0  0  0  0
  145.1700  153.7840  133.1320 C   0  0  0  0  0  0  0  0  0  0  0  0
  145.7340  155.0520  133.3210 C   0  0  0  0  0  0  0  0  0  0  0  0
  147.0410  155.3970  133.3480 N   0  0  0  0  0  0  0  0  0  0  0  0
  148.1650  154.5270  133.1310 C   0  0  0  0  0  0  0  0  0  0  0  0
  148.2140  153.4000  133.6930 O   0  0  0  0  0  0  0  0  0  0  0  0
  149.2090  154.9160  132.3000 O   0  0  0  0  0  0  0  0  0  0  0  0
  149.2170  156.9990  131.7940 H   0  0  0  0  0  0  0  0  0  0  0  0
  150.0850  158.2710  132.7160 H   0  0  0  0  0  0  0  0  0  0  0  0
  145.4659  158.3126  133.6695 H   0  0  0  0  0  0  0  0  0  0  0  0
  142.9373  156.9952  133.5525 H   0  0  0  0  0  0  0  0  0  0  0  0
  141.8646  154.7400  133.2632 H   0  0  0  0  0  0  0  0  0  0  0  0
  141.1097  153.0616  133.3054 H   0  0  0  0  0  0  0  0  0  0  0  0
  140.0405  150.8379  132.9855 H   0  0  0  0  0  0  0  0  0  0  0  0
  141.0330  147.0273  130.0475 H   0  0  0  0  0  0  0  0  0  0  0  0
  140.0177  146.2313  131.3210 H   0  0  0  0  0  0  0  0  0  0  0  0
  139.0542  146.3602  128.9107 H   0  0  0  0  0  0  0  0  0  0  0  0
  137.9972  146.8624  130.2795 H   0  0  0  0  0  0  0  0  0  0  0  0
  139.6473  148.7295  128.5008 H   0  0  0  0  0  0  0  0  0  0  0  0
  137.8508  148.4637  128.4257 H   0  0  0  0  0  0  0  0  0  0  0  0
  139.0587  150.4964  129.8113 H   0  0  0  0  0  0  0  0  0  0  0  0
  137.4318  149.7596  130.2008 H   0  0  0  0  0  0  0  0  0  0  0  0
  139.2844  150.1187  132.0872 H   0  0  0  0  0  0  0  0  0  0  0  0
  138.1925  148.6765  132.0575 H   0  0  0  0  0  0  0  0  0  0  0  0
  143.9153  149.0907  132.1611 H   0  0  0  0  0  0  0  0  0  0  0  0
  144.9883  151.3146  132.4874 H   0  0  0  0  0  0  0  0  0  0  0  0
  145.8095  152.8986  133.0011 H   0  0  0  0  0  0  0  0  0  0  0  0
  1  2  1  0
  2  3  2  0
  2  4  1  0
  4  5  2  0
  5  6  1  0
  6  7  2  0
  7  8  1  0
  8  9  2  0
  9 10  1  0
 10 11  2  0
 11 12  1  0
 12 13  2  0
 13 14  1  0
 14 15  2  0
 14 16  1  0
 16 17  1  0
 17 18  1  0
 18 19  1  0
 19 20  1  0
 20 21  1  0
 13 22  1  0
 22 23  2  0
  9 24  1  0
 24 25  2  0
 25 26  1  0
 26 27  1  0
 27 28  2  0
 27 29  1  0
 26  4  1  0
 25  6  1  0
 23 10  1  0
 21 16  1  0
  1 30  1  0
  1 31  1  0
  5 32  1  0
  7 33  1  0
  8 34  1  0
 11 35  1  0
 12 36  1  0
 17 37  1  0
 17 38  1  0
 18 39  1  0
 18 40  1  0
 19 41  1  0
 19 42  1  0
 20 43  1  0
 20 44  1  0
 21 45  1  0
 21 46  1  0
 22 47  1  0
 23 48  1  0
 24 49  1  0
M  CHG  1  29  -1
M  END
>  <UniqueID>  (68) 
68

>  <SMILES>  (68) 
NC(=O)c1cc2ccc(-c3ccc(C(=O)N4CCCCC4)cc3)cc2n1C(=O)[O-]

>  <Energy>  (68) 
103.36076927613976

>  <Genealogy>  (68) 
NC(=O)c1cc2ccc(-c3ccc(C(=O)N4CCCCC4)cc3)cc2n1C(=O)[O-] (protonated)
NC(=O)c1cc2ccc(-c3ccc(C(=O)N4CCCCC4)cc3)cc2n1C(=O)[O-] (3D coordinates assigned)
NC(=O)c1cc2ccc(-c3ccc(C(=O)N4CCCCC4)cc3)cc2n1C(=O)[O-] (nonaromatic ring conformer: 103.36076927613976 kcal/mol)

>  <smiles>  (68) 
NC(=O)c1cc2ccc(-c3ccc(C(=O)N4CCCCC4)cc3)cc2n1C(=O)O

>  <score_type>  (68) 
oracle

>  <origin>  (68) 
adg

>  <m_score__min__energy>  (68) 
-9.6400000000000006

>  <m_primary>  (68) 
energy

$$$$
68:0
     RDKit          3D

 29 30  0  0  0  0  0  0  0  0999 V2000
  145.7610  162.7440  134.5190 C   0  0  0  0  0  0  0  0  0  0  0  0
  144.6890  161.9630  133.8270 C   0  0  0  0  0  0  0  0  0  0  0  0
  143.6870  162.5710  133.3620 O   0  0  0  0  0  0  0  0  0  0  0  0
  144.7470  160.5310  133.7600 N   0  0  0  0  0  0  0  0  0  0  0  0
  143.7470  159.6360  133.9960 C   0  0  0  0  0  0  0  0  0  0  0  0
  142.4050  159.9550  134.5270 C   0  0  0  0  0  0  0  0  0  0  0  0
  141.4900  160.7480  133.7770 N   0  0  0  0  0  0  0  0  0  0  0  0
  142.0770  159.5550  135.6760 O   0  0  0  0  0  0  0  0  0  0  0  0
  144.1860  158.3370  133.7420 C   0  0  0  0  0  0  0  0  0  0  0  0
  145.5000  158.4660  133.3530 C   0  0  0  0  0  0  0  0  0  0  0  0
  146.4260  157.4950  132.9820 C   0  0  0  0  0  0  0  0  0  0  0  0
  147.7130  157.9200  132.6130 C   0  0  0  0  0  0  0  0  0  0  0  0
  148.0450  159.2980  132.6060 C   0  0  0  0  0  0  0  0  0  0  0  0
  149.4330  159.7390  132.2330 C   0  0  0  0  0  0  0  0  0  0  0  0
  149.4210  160.3910  130.8890 C   0  0  0  0  0  0  0  0  0  0  0  0
  149.2720  161.6380  130.7910 O   0  0  0  0  0  0  0  0  0  0  0  0
  149.6270  159.6300  129.7450 O   0  0  0  0  0  0  0  0  0  0  0  0
  147.0820  160.2540  132.9990 C   0  0  0  0  0  0  0  0  0  0  0  0
  145.8130  159.8000  133.3740 C   0  0  0  0  0  0  0  0  0  0  0  0
  145.6360  162.6529  135.6081 H   0  0  0  0  0  0  0  0  0  0  0  0
  146.7465  162.3507  134.2289 H   0  0  0  0  0  0  0  0  0  0  0  0
  145.6887  163.8026  134.2289 H   0  0  0  0  0  0  0  0  0  0  0  0
  141.8310  161.4810  133.1150 H   0  0  0  0  0  0  0  0  0  0  0  0
  143.6056  157.4070  133.8331 H   0  0  0  0  0  0  0  0  0  0  0  0
  146.1582  156.4281  132.9779 H   0  0  0  0  0  0  0  0  0  0  0  0
  148.4708  157.1759  132.3266 H   0  0  0  0  0  0  0  0  0  0  0  0
  149.8004  160.4560  132.9819 H   0  0  0  0  0  0  0  0  0  0  0  0
  150.0934  158.8599  132.2007 H   0  0  0  0  0  0  0  0  0  0  0  0
  147.3236  161.3271  133.0098 H   0  0  0  0  0  0  0  0  0  0  0  0
  1  2  1  0
  2  3  2  0
  2  4  1  0
  4  5  1  0
  5  6  1  0
  6  7  1  0
  6  8  2  0
  5  9  2  0
  9 10  1  0
 10 11  2  0
 11 12  1  0
 12 13  2  0
 13 14  1  0
 14 15  1  0
 15 16  2  0
 15 17  1  0
 13 18  1  0
 18 19  2  0
 19  4  1  0
 19 10  1  0
  1 20  1  0
  1 21  1  0
  1 22  1  0
  7 23  1  0
  9 24  1  0
 11 25  1  0
 12 26  1  0
 14 27  1  0
 14 28  1  0
 18 29  1  0
M  CHG  2   7  -1  17  -1
M  END
>  <UniqueID>  (69) 
69

>  <SMILES>  (69) 
CC(=O)n1c(C([NH-])=O)cc2ccc(CC(=O)[O-])cc21

>  <Energy>  (69) 
66.8120389039194

>  <Genealogy>  (69) 
CC(=O)n1c(C([NH-])=O)cc2ccc(CC(=O)[O-])cc21 (protonated)
CC(=O)n1c(C([NH-])=O)cc2ccc(CC(=O)[O-])cc21 (3D coordinates assigned)
CC(=O)n1c(C([NH-])=O)cc2ccc(CC(=O)[O-])cc21 (optimized conformer: 66.8120389039194 kcal/mol)

>  <smiles>  (69) 
CC(=O)n1c(C(N)=O)cc2ccc(CC(=O)O)cc21

>  <score_type>  (69) 
oracle

>  <origin>  (69) 
adg

>  <m_score__min__energy>  (69) 
-6.4199999999999999

>  <m_primary>  (69) 
energy

$$$$
69:0
     RDKit          3D

 42 44  0  0  0  0  0  0  0  0999 V2000
  139.5160  156.6530  133.0500 C   0  0  0  0  0  0  0  0  0  0  0  0
  140.0230  156.9300  134.4270 C   0  0  0  0  0  0  0  0  0  0  0  0
  139.3840  157.6360  135.3290 O   0  0  0  0  0  0  0  0  0  0  0  0
  140.1440  157.6220  136.4000 C   0  0  0  0  0  0  0  0  0  0  0  0
  139.8470  158.2050  137.4750 O   0  0  0  0  0  0  0  0  0  0  0  0
  141.2480  156.9320  136.2270 O   0  0  0  0  0  0  0  0  0  0  0  0
  141.2000  156.4790  134.9970 C   0  0  0  0  0  0  0  0  0  0  0  0
  142.2600  155.6320  134.3610 C   0  0  0  0  0  0  0  0  0  0  0  0
  143.3390  156.4410  133.8980 O   0  0  0  0  0  0  0  0  0  0  0  0
  143.1630  157.5580  133.0740 C   0  0  0  0  0  0  0  0  0  0  0  0
  142.4680  157.4740  132.0250 O   0  0  0  0  0  0  0  0  0  0  0  0
  143.7810  158.8040  133.4260 N   0  0  0  0  0  0  0  0  0  0  0  0
  143.1720  159.9530  133.8340 C   0  0  0  0  0  0  0  0  0  0  0  0
  141.7360  160.1090  134.1480 C   0  0  0  0  0  0  0  0  0  0  0  0
  141.2750  160.0990  135.4970 N   0  0  0  0  0  0  0  0  0  0  0  0
  140.9110  160.3010  133.2150 O   0  0  0  0  0  0  0  0  0  0  0  0
  144.1130  160.9640  134.0140 C   0  0  0  0  0  0  0  0  0  0  0  0
  145.3270  160.3890  133.7130 C   0  0  0  0  0  0  0  0  0  0  0  0
  146.6030  160.9390  133.7210 C   0  0  0  0  0  0  0  0  0  0  0  0
  147.6790  160.1160  133.3460 C   0  0  0  0  0  0  0  0  0  0  0  0
  147.4700  158.7600  132.9620 C   0  0  0  0  0  0  0  0  0  0  0  0
  148.5880  157.9210  132.5690 N   0  0  0  0  0  0  0  0  0  0  0  0
  148.5990  156.4910  132.8990 C   0  0  0  0  0  0  0  0  0  0  0  0
  149.7250  158.4890  131.8340 C   0  0  0  0  0  0  0  0  0  0  0  0
  146.1470  158.2460  132.9700 C   0  0  0  0  0  0  0  0  0  0  0  0
  145.1000  159.0850  133.3640 C   0  0  0  0  0  0  0  0  0  0  0  0
  138.5523  156.1265  133.1131 H   0  0  0  0  0  0  0  0  0  0  0  0
  139.3805  157.6024  132.5113 H   0  0  0  0  0  0  0  0  0  0  0  0
  140.2418  156.0261  132.5113 H   0  0  0  0  0  0  0  0  0  0  0  0
  142.6397  154.9122  135.1010 H   0  0  0  0  0  0  0  0  0  0  0  0
  141.8218  155.1009  133.5031 H   0  0  0  0  0  0  0  0  0  0  0  0
  140.4920  159.4730  135.7920 H   0  0  0  0  0  0  0  0  0  0  0  0
  143.9259  162.0011  134.3295 H   0  0  0  0  0  0  0  0  0  0  0  0
  146.7662  161.9871  134.0121 H   0  0  0  0  0  0  0  0  0  0  0  0
  148.6998  160.5258  133.3490 H   0  0  0  0  0  0  0  0  0  0  0  0
  148.6000  156.3669  133.9920 H   0  0  0  0  0  0  0  0  0  0  0  0
  147.7045  156.0102  132.4762 H   0  0  0  0  0  0  0  0  0  0  0  0
  149.5008  156.0240  132.4762 H   0  0  0  0  0  0  0  0  0  0  0  0
  150.4734  158.8629  132.5482 H   0  0  0  0  0  0  0  0  0  0  0  0
  150.1781  157.7114  131.2016 H   0  0  0  0  0  0  0  0  0  0  0  0
  149.3754  159.3183  131.2016 H   0  0  0  0  0  0  0  0  0  0  0  0
  145.9488  157.2060  132.6715 H   0  0  0  0  0  0  0  0  0  0  0  0
  1  2  1  0
  2  3  1  0
  3  4  1  0
  4  5  2  0
  4  6  1  0
  6  7  1  0
  7  8  1  0
  8  9  1  0
  9 10  1  0
 10 11  2  0
 10 12  1  0
 12 13  1  0
 13 14  1  0
 14 15  1  0
 14 16  2  0
 13 17  2  0
 17 18  1  0
 18 19  2  0
 19 20  1  0
 20 21  2  0
 21 22  1  0
 22 23  1  0
 22 24  1  0
 21 25  1  0
 25 26  2  0
  7  2  2  0
 26 12  1  0
 26 18  1  0
  1 27  1  0
  1 28  1  0
  1 29  1  0
  8 30  1  0
  8 31  1  0
 15 32  1  0
 17 33  1  0
 19 34  1  0
 20 35  1  0
 23 36  1  0
 23 37  1  0
 23 38  1  0
 24 39  1  0
 24 40  1  0
 24 41  1  0
 25 42  1  0
M  CHG  1  15  -1
M  END
>  <UniqueID>  (70) 
70

>  <SMILES>  (70) 
Cc1oc(=O)oc1COC(=O)n1c(C([NH-])=O)cc2ccc(N(C)C)cc21

>  <Energy>  (70) 
113.400456770292

>  <Genealogy>  (70) 
Cc1oc(=O)oc1COC(=O)n1c(C([NH-])=O)cc2ccc(N(C)C)cc21 (protonated)
Cc1oc(=O)oc1COC(=O)n1c(C([NH-])=O)cc2ccc(N(C)C)cc21 (3D coordinates assigned)
Cc1oc(=O)oc1COC(=O)n1c(C([NH-])=O)cc2ccc(N(C)C)cc21 (optimized conformer: 113.400456770292 kcal/mol)

>  <smiles>  (70) 
Cc1oc(=O)oc1COC(=O)n1c(C(N)=O)cc2ccc(N(C)C)cc21

>  <score_type>  (70) 
oracle

>  <origin>  (70) 
adg

>  <m_score__min__energy>  (70) 
-6.7400000000000002

>  <m_primary>  (70) 
energy

$$$$
70:0
     RDKit          3D

 39 41  0  0  0  0  0  0  0  0999 V2000
  140.2680  157.7780  133.0090 C   0  0  0  0  0  0  0  0  0  0  0  0
  141.5610  156.9720  133.0440 C   0  0  0  0  0  0  0  0  0  0  0  0
  142.7180  157.8570  132.9290 N   0  0  0  0  0  0  0  0  0  0  0  0
  143.8940  157.7010  133.7330 C   0  0  0  0  0  0  0  0  0  0  0  0
  143.9110  156.8680  134.6790 O   0  0  0  0  0  0  0  0  0  0  0  0
  145.0620  158.4870  133.4550 N   0  0  0  0  0  0  0  0  0  0  0  0
  145.1960  159.8420  133.5110 C   0  0  0  0  0  0  0  0  0  0  0  0
  144.1050  160.8130  133.7420 C   0  0  0  0  0  0  0  0  0  0  0  0
  142.7640  160.5150  133.3630 N   0  0  0  0  0  0  0  0  0  0  0  0
  144.3660  161.9360  134.2490 O   0  0  0  0  0  0  0  0  0  0  0  0
  146.5140  160.2120  133.2510 C   0  0  0  0  0  0  0  0  0  0  0  0
  147.1890  159.0320  133.0310 C   0  0  0  0  0  0  0  0  0  0  0  0
  148.5320  158.8080  132.7460 C   0  0  0  0  0  0  0  0  0  0  0  0
  148.9610  157.4760  132.6020 C   0  0  0  0  0  0  0  0  0  0  0  0
  148.0480  156.4020  132.7550 C   0  0  0  0  0  0  0  0  0  0  0  0
  148.5040  155.0060  132.6160 C   0  0  0  0  0  0  0  0  0  0  0  0
  149.7740  154.6390  132.3500 N   0  0  0  0  0  0  0  0  0  0  0  0
  149.7780  153.3150  132.3020 N   0  0  0  0  0  0  0  0  0  0  0  0
  148.5120  152.9260  132.5440 C   0  0  0  0  0  0  0  0  0  0  0  0
  148.0570  151.5050  132.5580 C   0  0  0  0  0  0  0  0  0  0  0  0
  149.2300  150.5990  132.7460 C   0  0  0  0  0  0  0  0  0  0  0  0
  149.5470  149.7780  131.8470 O   0  0  0  0  0  0  0  0  0  0  0  0
  150.0060  150.6960  133.8950 O   0  0  0  0  0  0  0  0  0  0  0  0
  147.7240  153.9560  132.7340 O   0  0  0  0  0  0  0  0  0  0  0  0
  146.6930  156.6710  133.0460 C   0  0  0  0  0  0  0  0  0  0  0  0
  146.2910  158.0070  133.1620 C   0  0  0  0  0  0  0  0  0  0  0  0
  139.9367  157.9845  134.0374 H   0  0  0  0  0  0  0  0  0  0  0  0
  140.4421  158.7278  132.4822 H   0  0  0  0  0  0  0  0  0  0  0  0
  139.4919  157.2034  132.4822 H   0  0  0  0  0  0  0  0  0  0  0  0
  141.6191  156.4217  133.9947 H   0  0  0  0  0  0  0  0  0  0  0  0
  141.5652  156.2686  132.1983 H   0  0  0  0  0  0  0  0  0  0  0  0
  142.6680  158.6590  132.2590 H   0  0  0  0  0  0  0  0  0  0  0  0
  142.5470  160.1220  132.4210 H   0  0  0  0  0  0  0  0  0  0  0  0
  146.9277  161.2310  133.2267 H   0  0  0  0  0  0  0  0  0  0  0  0
  149.2363  159.6459  132.6367 H   0  0  0  0  0  0  0  0  0  0  0  0
  150.0151  157.2656  132.3684 H   0  0  0  0  0  0  0  0  0  0  0  0
  147.3458  151.3576  133.3841 H   0  0  0  0  0  0  0  0  0  0  0  0
  147.5677  151.2712  131.6009 H   0  0  0  0  0  0  0  0  0  0  0  0
  145.9712  155.8515  133.1783 H   0  0  0  0  0  0  0  0  0  0  0  0
  1  2  1  0
  2  3  1  0
  3  4  1  0
  4  5  2  0
  4  6  1  0
  6  7  1  0
  7  8  1  0
  8  9  1  0
  8 10  2  0
  7 11  2  0
 11 12  1  0
 12 13  2  0
 13 14  1  0
 14 15  2  0
 15 16  1  0
 16 17  2  0
 17 18  1  0
 18 19  2  0
 19 20  1  0
 20 21  1  0
 21 22  2  0
 21 23  1  0
 19 24  1  0
 15 25  1  0
 25 26  2  0
 26  6  1  0
 26 12  1  0
 24 16  1  0
  1 27  1  0
  1 28  1  0
  1 29  1  0
  2 30  1  0
  2 31  1  0
  3 32  1  0
  9 33  1  0
 11 34  1  0
 13 35  1  0
 14 36  1  0
 20 37  1  0
 20 38  1  0
 25 39  1  0
M  CHG  2   9  -1  23  -1
M  END
>  <UniqueID>  (71) 
71

>  <SMILES>  (71) 
CCNC(=O)n1c(C([NH-])=O)cc2ccc(-c3nnc(CC(=O)[O-])o3)cc21

>  <Energy>  (71) 
107.47871060644371

>  <Genealogy>  (71) 
CCNC(=O)n1c(C([NH-])=O)cc2ccc(-c3nnc(CC(=O)[O-])o3)cc21 (protonated)
CCNC(=O)n1c(C([NH-])=O)cc2ccc(-c3nnc(CC(=O)[O-])o3)cc21 (3D coordinates assigned)
CCNC(=O)n1c(C([NH-])=O)cc2ccc(-c3nnc(CC(=O)[O-])o3)cc21 (optimized conformer: 107.47871060644371 kcal/mol)

>  <smiles>  (71) 
CCNC(=O)n1c(C(N)=O)cc2ccc(-c3nnc(CC(=O)O)o3)cc21

>  <score_type>  (71) 
oracle

>  <origin>  (71) 
adg

>  <m_score__min__energy>  (71) 
-8.3100000000000005

>  <m_primary>  (71) 
energy

$$$$
71:0
     RDKit          3D

 38 40  0  0  0  0  0  0  0  0999 V2000
  138.7130  158.7910  132.8600 C   0  0  0  0  0  0  0  0  0  0  0  0
  138.8180  157.6570  133.7110 O   0  0  0  0  0  0  0  0  0  0  0  0
  139.4600  156.4780  133.3210 C   0  0  0  0  0  0  0  0  0  0  0  0
  139.1110  155.8860  132.2630 O   0  0  0  0  0  0  0  0  0  0  0  0
  140.5210  155.9400  134.1270 N   0  0  0  0  0  0  0  0  0  0  0  0
  141.2000  156.5640  135.1310 C   0  0  0  0  0  0  0  0  0  0  0  0
  141.0860  157.9890  135.4970 C   0  0  0  0  0  0  0  0  0  0  0  0
  139.8400  158.5490  135.9170 N   0  0  0  0  0  0  0  0  0  0  0  0
  142.0920  158.7400  135.3820 O   0  0  0  0  0  0  0  0  0  0  0  0
  142.0740  155.6810  135.7570 C   0  0  0  0  0  0  0  0  0  0  0  0
  141.9220  154.4860  135.0910 C   0  0  0  0  0  0  0  0  0  0  0  0
  142.5370  153.2580  135.3100 C   0  0  0  0  0  0  0  0  0  0  0  0
  142.1590  152.1770  134.4960 C   0  0  0  0  0  0  0  0  0  0  0  0
  141.1730  152.3380  133.4880 C   0  0  0  0  0  0  0  0  0  0  0  0
  140.7680  151.1840  132.6500 C   0  0  0  0  0  0  0  0  0  0  0  0
  139.4330  151.0570  132.2290 C   0  0  0  0  0  0  0  0  0  0  0  0
  139.0400  149.9780  131.4330 C   0  0  0  0  0  0  0  0  0  0  0  0
  139.9710  149.0010  131.0430 C   0  0  0  0  0  0  0  0  0  0  0  0
  139.5590  147.8570  130.2000 C   0  0  0  0  0  0  0  0  0  0  0  0
  139.9410  146.6880  130.4750 O   0  0  0  0  0  0  0  0  0  0  0  0
  138.7420  148.0550  129.0930 O   0  0  0  0  0  0  0  0  0  0  0  0
  141.3040  149.1240  131.4690 C   0  0  0  0  0  0  0  0  0  0  0  0
  141.7010  150.2030  132.2650 C   0  0  0  0  0  0  0  0  0  0  0  0
  142.9900  150.2670  132.6880 F   0  0  0  0  0  0  0  0  0  0  0  0
  140.5650  153.6020  133.3030 C   0  0  0  0  0  0  0  0  0  0  0  0
  140.9790  154.6680  134.1130 C   0  0  0  0  0  0  0  0  0  0  0  0
  138.6287  159.7016  133.4713 H   0  0  0  0  0  0  0  0  0  0  0  0
  139.6089  158.8572  132.2251 H   0  0  0  0  0  0  0  0  0  0  0  0
  137.8202  158.6916  132.2251 H   0  0  0  0  0  0  0  0  0  0  0  0
  139.7880  159.5490  136.2100 H   0  0  0  0  0  0  0  0  0  0  0  0
  138.9550  157.9990  135.8590 H   0  0  0  0  0  0  0  0  0  0  0  0
  142.7437  155.8927  136.6036 H   0  0  0  0  0  0  0  0  0  0  0  0
  143.2963  153.1367  136.0966 H   0  0  0  0  0  0  0  0  0  0  0  0
  142.6326  151.1949  134.6416 H   0  0  0  0  0  0  0  0  0  0  0  0
  138.6920  151.8128  132.5285 H   0  0  0  0  0  0  0  0  0  0  0  0
  137.9923  149.8928  131.1089 H   0  0  0  0  0  0  0  0  0  0  0  0
  142.0426  148.3642  131.1736 H   0  0  0  0  0  0  0  0  0  0  0  0
  139.7850  153.7448  132.5406 H   0  0  0  0  0  0  0  0  0  0  0  0
  1  2  1  0
  2  3  1  0
  3  4  2  0
  3  5  1  0
  5  6  1  0
  6  7  1  0
  7  8  1  0
  7  9  2  0
  6 10  2  0
 10 11  1  0
 11 12  2  0
 12 13  1  0
 13 14  2  0
 14 15  1  0
 15 16  2  0
 16 17  1  0
 17 18  2  0
 18 19  1  0
 19 20  2  0
 19 21  1  0
 18 22  1  0
 22 23  2  0
 23 24  1  0
 14 25  1  0
 25 26  2  0
 26  5  1  0
 26 11  1  0
 23 15  1  0
  1 27  1  0
  1 28  1  0
  1 29  1  0
  8 30  1  0
  8 31  1  0
 10 32  1  0
 12 33  1  0
 13 34  1  0
 16 35  1  0
 17 36  1  0
 22 37  1  0
 25 38  1  0
M  CHG  1  21  -1
M  END
>  <UniqueID>  (72) 
72

>  <SMILES>  (72) 
COC(=O)n1c(C(N)=O)cc2ccc(-c3ccc(C(=O)[O-])cc3F)cc21

>  <Energy>  (72) 
84.9915892349011

>  <Genealogy>  (72) 
COC(=O)n1c(C(N)=O)cc2ccc(-c3ccc(C(=O)[O-])cc3F)cc21 (protonated)
COC(=O)n1c(C(N)=O)cc2ccc(-c3ccc(C(=O)[O-])cc3F)cc21 (3D coordinates assigned)
COC(=O)n1c(C(N)=O)cc2ccc(-c3ccc(C(=O)[O-])cc3F)cc21 (optimized conformer: 84.9915892349011 kcal/mol)

>  <smiles>  (72) 
COC(=O)n1c(C(N)=O)cc2ccc(-c3ccc(C(=O)O)cc3F)cc21

>  <score_type>  (72) 
oracle

>  <origin>  (72) 
adg

>  <m_score__min__energy>  (72) 
-7.6699999999999999

>  <m_primary>  (72) 
energy

$$$$
72:0
     RDKit          3D

 42 43  0  0  0  0  0  0  0  0999 V2000
  149.5900  162.4170  130.2190 C   0  0  0  0  0  0  0  0  0  0  0  0
  149.9670  161.1160  130.6120 O   0  0  0  0  0  0  0  0  0  0  0  0
  149.1410  160.1710  129.9650 C   0  0  0  0  0  0  0  0  0  0  0  0
  148.2810  159.4600  131.0270 C   0  0  0  0  0  0  0  0  0  0  0  0
  149.0070  159.1070  132.2720 N   0  0  2  0  0  0  0  0  0  0  0  0
  149.5080  157.7190  132.2370 C   0  0  0  0  0  0  0  0  0  0  0  0
  148.2200  159.3850  133.4650 C   0  0  0  0  0  0  0  0  0  0  0  0
  148.6170  159.0360  134.5710 O   0  0  0  0  0  0  0  0  0  0  0  0
  146.8880  160.0870  133.3660 C   0  0  0  0  0  0  0  0  0  0  0  0
  145.7610  159.0920  133.4780 C   0  0  0  0  0  0  0  0  0  0  0  0
  146.0080  157.7140  133.2540 C   0  0  0  0  0  0  0  0  0  0  0  0
  144.9540  156.7870  133.2550 C   0  0  0  0  0  0  0  0  0  0  0  0
  143.6660  157.2640  133.4790 C   0  0  0  0  0  0  0  0  0  0  0  0
  142.4630  156.5970  133.4750 C   0  0  0  0  0  0  0  0  0  0  0  0
  141.4980  157.5730  133.7150 C   0  0  0  0  0  0  0  0  0  0  0  0
  140.0580  157.2750  133.8630 C   0  0  0  0  0  0  0  0  0  0  0  0
  139.4540  156.2720  133.0480 N   0  0  0  0  0  0  0  0  0  0  0  0
  139.3610  157.8700  134.7260 O   0  0  0  0  0  0  0  0  0  0  0  0
  142.0810  158.7980  133.8560 N   0  0  0  0  0  0  0  0  0  0  0  0
  141.4350  160.0700  134.0250 C   0  0  0  0  0  0  0  0  0  0  0  0
  141.2530  160.8280  133.0370 O   0  0  0  0  0  0  0  0  0  0  0  0
  141.0280  160.4880  135.2860 O   0  0  0  0  0  0  0  0  0  0  0  0
  143.4090  158.5890  133.7140 C   0  0  0  0  0  0  0  0  0  0  0  0
  144.4410  159.5350  133.7160 C   0  0  0  0  0  0  0  0  0  0  0  0
  149.4116  163.0328  131.1128 H   0  0  0  0  0  0  0  0  0  0  0  0
  150.3949  162.8664  129.6188 H   0  0  0  0  0  0  0  0  0  0  0  0
  148.6695  162.3665  129.6188 H   0  0  0  0  0  0  0  0  0  0  0  0
  148.4887  160.6827  129.2420 H   0  0  0  0  0  0  0  0  0  0  0  0
  149.7597  159.4360  129.4293 H   0  0  0  0  0  0  0  0  0  0  0  0
  147.4455  160.1241  131.2932 H   0  0  0  0  0  0  0  0  0  0  0  0
  147.9509  158.5116  130.5781 H   0  0  0  0  0  0  0  0  0  0  0  0
  149.8540  159.7200  132.3170 H   0  0  0  0  0  0  0  0  0  0  0  0
  149.6408  157.3511  133.2651 H   0  0  0  0  0  0  0  0  0  0  0  0
  148.7835  157.0808  131.7099 H   0  0  0  0  0  0  0  0  0  0  0  0
  150.4731  157.6907  131.7099 H   0  0  0  0  0  0  0  0  0  0  0  0
  146.8044  160.8226  134.1796 H   0  0  0  0  0  0  0  0  0  0  0  0
  146.8224  160.5929  132.3914 H   0  0  0  0  0  0  0  0  0  0  0  0
  147.0370  157.3675  133.0775 H   0  0  0  0  0  0  0  0  0  0  0  0
  145.1403  155.7165  133.0840 H   0  0  0  0  0  0  0  0  0  0  0  0
  142.2978  155.5212  133.3160 H   0  0  0  0  0  0  0  0  0  0  0  0
  138.4210  156.2520  132.9000 H   0  0  0  0  0  0  0  0  0  0  0  0
  144.2288  160.5988  133.8987 H   0  0  0  0  0  0  0  0  0  0  0  0
  1  2  1  0
  2  3  1  0
  3  4  1  0
  4  5  1  0
  5  6  1  0
  5  7  1  0
  7  8  2  0
  7  9  1  0
  9 10  1  0
 10 11  2  0
 11 12  1  0
 12 13  2  0
 13 14  1  0
 14 15  2  0
 15 16  1  0
 16 17  1  0
 16 18  2  0
 15 19  1  0
 19 20  1  0
 20 21  2  0
 20 22  1  0
 19 23  1  0
 23 24  2  0
 24 10  1  0
 23 13  1  0
  1 25  1  0
  1 26  1  0
  1 27  1  0
  3 28  1  0
  3 29  1  0
  4 30  1  0
  4 31  1  0
  5 32  1  1
  6 33  1  0
  6 34  1  0
  6 35  1  0
  9 36  1  0
  9 37  1  0
 11 38  1  0
 12 39  1  0
 14 40  1  0
 17 41  1  0
 24 42  1  0
M  CHG  3   5   1  17  -1  22  -1
M  END
>  <UniqueID>  (73) 
73

>  <SMILES>  (73) 
COCC[N@H+](C)C(=O)Cc1ccc2cc(C([NH-])=O)n(C(=O)[O-])c2c1

>  <Energy>  (73) 
81.57516770365926

>  <Genealogy>  (73) 
COCC[NH+](C)C(=O)Cc1ccc2cc(C([NH-])=O)n(C(=O)[O-])c2c1 (protonated)
COCC[N@H+](C)C(=O)Cc1ccc2cc(C([NH-])=O)n(C(=O)[O-])c2c1 (chirality)
COCC[N@H+](C)C(=O)Cc1ccc2cc(C([NH-])=O)n(C(=O)[O-])c2c1 (3D coordinates assigned)
COCC[N@H+](C)C(=O)Cc1ccc2cc(C([NH-])=O)n(C(=O)[O-])c2c1 (optimized conformer: 81.57516770365926 kcal/mol)

>  <smiles>  (73) 
COCCN(C)C(=O)Cc1ccc2cc(C(N)=O)n(C(=O)O)c2c1

>  <score_type>  (73) 
oracle

>  <origin>  (73) 
adg

>  <m_score__min__energy>  (73) 
-6.5099999999999998

>  <m_primary>  (73) 
energy

$$$$
73:0
     RDKit          3D

 35 36  0  0  0  0  0  0  0  0999 V2000
  138.8280  158.9970  131.4180 C   0  0  0  0  0  0  0  0  0  0  0  0
  139.4440  159.7430  132.5980 C   0  0  0  0  0  0  0  0  0  0  0  0
  140.0710  158.8020  133.5430 N   0  0  0  0  0  0  0  0  0  0  0  0
  139.2380  158.1670  134.5750 C   0  0  0  0  0  0  0  0  0  0  0  0
  139.9060  158.2460  135.9450 C   0  0  0  0  0  0  0  0  0  0  0  0
  141.4840  158.5020  133.4600 C   0  0  0  0  0  0  0  0  0  0  0  0
  141.9280  157.1670  133.2620 C   0  0  0  0  0  0  0  0  0  0  0  0
  143.2990  156.8660  133.2020 C   0  0  0  0  0  0  0  0  0  0  0  0
  144.2050  157.9130  133.3320 C   0  0  0  0  0  0  0  0  0  0  0  0
  145.5800  157.8980  133.3360 C   0  0  0  0  0  0  0  0  0  0  0  0
  145.9630  159.2250  133.5100 C   0  0  0  0  0  0  0  0  0  0  0  0
  147.3710  159.6750  133.4860 C   0  0  0  0  0  0  0  0  0  0  0  0
  147.7340  160.8300  132.7320 N   0  0  0  0  0  0  0  0  0  0  0  0
  148.2530  159.0730  134.1530 O   0  0  0  0  0  0  0  0  0  0  0  0
  144.8690  160.0290  133.6180 N   0  0  0  0  0  0  0  0  0  0  0  0
  144.8380  161.4430  133.8770 C   0  0  0  0  0  0  0  0  0  0  0  0
  145.7910  162.0000  134.4840 O   0  0  0  0  0  0  0  0  0  0  0  0
  143.7700  162.2140  133.4380 O   0  0  0  0  0  0  0  0  0  0  0  0
  143.7990  159.2100  133.5030 C   0  0  0  0  0  0  0  0  0  0  0  0
  142.4400  159.5380  133.5860 C   0  0  0  0  0  0  0  0  0  0  0  0
  138.1693  158.1993  131.7920 H   0  0  0  0  0  0  0  0  0  0  0  0
  138.2427  159.6988  130.8057 H   0  0  0  0  0  0  0  0  0  0  0  0
  139.6279  158.5551  130.8057 H   0  0  0  0  0  0  0  0  0  0  0  0
  140.2076  160.4411  132.2243 H   0  0  0  0  0  0  0  0  0  0  0  0
  138.6477  160.2912  133.1228 H   0  0  0  0  0  0  0  0  0  0  0  0
  138.2663  158.6808  134.6188 H   0  0  0  0  0  0  0  0  0  0  0  0
  139.1033  157.1074  134.3123 H   0  0  0  0  0  0  0  0  0  0  0  0
  139.1420  158.1557  136.7312 H   0  0  0  0  0  0  0  0  0  0  0  0
  140.6342  157.4277  136.0456 H   0  0  0  0  0  0  0  0  0  0  0  0
  140.4233  159.2116  136.0456 H   0  0  0  0  0  0  0  0  0  0  0  0
  141.1892  156.3591  133.1543 H   0  0  0  0  0  0  0  0  0  0  0  0
  143.6457  155.8323  133.0564 H   0  0  0  0  0  0  0  0  0  0  0  0
  146.2376  157.0232  133.2252 H   0  0  0  0  0  0  0  0  0  0  0  0
  147.3420  161.7680  132.9650 H   0  0  0  0  0  0  0  0  0  0  0  0
  142.1223  160.5789  133.7457 H   0  0  0  0  0  0  0  0  0  0  0  0
  1  2  1  0
  2  3  1  0
  3  4  1  0
  4  5  1  0
  3  6  1  0
  6  7  2  0
  7  8  1  0
  8  9  2  0
  9 10  1  0
 10 11  2  0
 11 12  1  0
 12 13  1  0
 12 14  2  0
 11 15  1  0
 15 16  1  0
 16 17  2  0
 16 18  1  0
 15 19  1  0
 19 20  2  0
 20  6  1  0
 19  9  1  0
  1 21  1  0
  1 22  1  0
  1 23  1  0
  2 24  1  0
  2 25  1  0
  4 26  1  0
  4 27  1  0
  5 28  1  0
  5 29  1  0
  5 30  1  0
  7 31  1  0
  8 32  1  0
 10 33  1  0
 13 34  1  0
 20 35  1  0
M  CHG  2  13  -1  18  -1
M  END
>  <UniqueID>  (74) 
74

>  <SMILES>  (74) 
CCN(CC)c1ccc2cc(C([NH-])=O)n(C(=O)[O-])c2c1

>  <Energy>  (74) 
71.82056703591093

>  <Genealogy>  (74) 
CCN(CC)c1ccc2cc(C([NH-])=O)n(C(=O)[O-])c2c1 (protonated)
CCN(CC)c1ccc2cc(C([NH-])=O)n(C(=O)[O-])c2c1 (3D coordinates assigned)
CCN(CC)c1ccc2cc(C([NH-])=O)n(C(=O)[O-])c2c1 (optimized conformer: 71.82056703591093 kcal/mol)

>  <smiles>  (74) 
CCN(CC)c1ccc2cc(C(N)=O)n(C(=O)O)c2c1

>  <score_type>  (74) 
oracle

>  <origin>  (74) 
adg

>  <m_score__min__energy>  (74) 
-6.0300000000000002

>  <m_primary>  (74) 
energy

$$$$
74:0
     RDKit          3D

 48 49  0  0  0  0  0  0  0  0999 V2000
  137.7220  159.7700  131.0650 C   0  0  0  0  0  0  0  0  0  0  0  0
  139.1560  159.5490  131.5350 C   0  0  0  0  0  0  0  0  0  0  0  0
  139.3920  158.1690  131.8050 O   0  0  0  0  0  0  0  0  0  0  0  0
  139.2810  157.6050  133.0810 C   0  0  0  0  0  0  0  0  0  0  0  0
  138.7140  158.2310  134.0180 O   0  0  0  0  0  0  0  0  0  0  0  0
  139.7980  156.2220  133.3180 C   0  0  0  0  0  0  0  0  0  0  0  0
  141.3290  156.2320  133.4050 C   0  0  0  0  0  0  0  0  0  0  0  0
  141.8360  156.9450  134.6680 C   0  0  0  0  0  0  0  0  0  0  0  0
  142.9340  157.9310  134.3570 C   0  0  0  0  0  0  0  0  0  0  0  0
  142.6720  159.3230  134.3930 C   0  0  0  0  0  0  0  0  0  0  0  0
  143.6760  160.2480  134.0650 C   0  0  0  0  0  0  0  0  0  0  0  0
  144.9280  159.7530  133.7110 C   0  0  0  0  0  0  0  0  0  0  0  0
  146.0650  160.4240  133.3240 C   0  0  0  0  0  0  0  0  0  0  0  0
  147.0120  159.4330  133.0750 C   0  0  0  0  0  0  0  0  0  0  0  0
  148.4200  159.7100  132.7210 C   0  0  0  0  0  0  0  0  0  0  0  0
  149.4820  158.9580  133.3100 N   0  0  0  0  0  0  0  0  0  0  0  0
  148.6920  160.5920  131.8650 O   0  0  0  0  0  0  0  0  0  0  0  0
  146.4810  158.1980  133.2970 N   0  0  0  0  0  0  0  0  0  0  0  0
  147.1100  156.9240  133.0770 C   0  0  0  0  0  0  0  0  0  0  0  0
  148.1670  156.6280  133.6980 O   0  0  0  0  0  0  0  0  0  0  0  0
  146.5270  156.0030  132.1970 O   0  0  0  0  0  0  0  0  0  0  0  0
  145.9390  154.7730  132.6220 C   0  0  0  0  0  0  0  0  0  0  0  0
  144.4840  154.6660  132.1660 C   0  0  0  0  0  0  0  0  0  0  0  0
  144.3970  154.5800  130.7030 C   0  0  0  0  0  0  0  0  0  0  0  0
  144.3290  154.5140  129.5490 N   0  0  0  0  0  0  0  0  0  0  0  0
  145.2040  158.4110  133.6860 C   0  0  0  0  0  0  0  0  0  0  0  0
  144.2160  157.4650  133.9890 C   0  0  0  0  0  0  0  0  0  0  0  0
  137.0614  159.8718  131.9386 H   0  0  0  0  0  0  0  0  0  0  0  0
  137.6720  160.6865  130.4587 H   0  0  0  0  0  0  0  0  0  0  0  0
  137.3984  158.9111  130.4587 H   0  0  0  0  0  0  0  0  0  0  0  0
  139.8490  159.8869  130.7504 H   0  0  0  0  0  0  0  0  0  0  0  0
  139.3168  160.1223  132.4599 H   0  0  0  0  0  0  0  0  0  0  0  0
  139.3837  155.8368  134.2614 H   0  0  0  0  0  0  0  0  0  0  0  0
  139.4921  155.5780  132.4803 H   0  0  0  0  0  0  0  0  0  0  0  0
  141.6896  155.1928  133.4164 H   0  0  0  0  0  0  0  0  0  0  0  0
  141.7124  156.7803  132.5319 H   0  0  0  0  0  0  0  0  0  0  0  0
  140.9969  157.4828  135.1334 H   0  0  0  0  0  0  0  0  0  0  0  0
  142.2456  156.1830  135.3475 H   0  0  0  0  0  0  0  0  0  0  0  0
  141.6729  159.6822  134.6806 H   0  0  0  0  0  0  0  0  0  0  0  0
  143.4794  161.3301  134.0871 H   0  0  0  0  0  0  0  0  0  0  0  0
  146.1981  161.5119  133.2310 H   0  0  0  0  0  0  0  0  0  0  0  0
  150.4710  159.1380  133.0260 H   0  0  0  0  0  0  0  0  0  0  0  0
  149.2970  158.2530  134.0560 H   0  0  0  0  0  0  0  0  0  0  0  0
  146.5108  153.9360  132.1948 H   0  0  0  0  0  0  0  0  0  0  0  0
  145.9617  154.7390  133.7212 H   0  0  0  0  0  0  0  0  0  0  0  0
  144.0341  153.7642  132.6069 H   0  0  0  0  0  0  0  0  0  0  0  0
  143.9455  155.5662  132.4972 H   0  0  0  0  0  0  0  0  0  0  0  0
  144.4328  156.3876  133.9416 H   0  0  0  0  0  0  0  0  0  0  0  0
  1  2  1  0
  2  3  1  0
  3  4  1  0
  4  5  2  0
  4  6  1  0
  6  7  1  0
  7  8  1  0
  8  9  1  0
  9 10  2  0
 10 11  1  0
 11 12  2  0
 12 13  1  0
 13 14  2  0
 14 15  1  0
 15 16  1  0
 15 17  2  0
 14 18  1  0
 18 19  1  0
 19 20  2  0
 19 21  1  0
 21 22  1  0
 22 23  1  0
 23 24  1  0
 24 25  3  0
 18 26  1  0
 26 27  2  0
 27  9  1  0
 26 12  1  0
  1 28  1  0
  1 29  1  0
  1 30  1  0
  2 31  1  0
  2 32  1  0
  6 33  1  0
  6 34  1  0
  7 35  1  0
  7 36  1  0
  8 37  1  0
  8 38  1  0
 10 39  1  0
 11 40  1  0
 13 41  1  0
 16 42  1  0
 16 43  1  0
 22 44  1  0
 22 45  1  0
 23 46  1  0
 23 47  1  0
 27 48  1  0
M  END
>  <UniqueID>  (75) 
75

>  <SMILES>  (75) 
CCOC(=O)CCCc1ccc2cc(C(N)=O)n(C(=O)OCCC#N)c2c1

>  <Energy>  (75) 
71.63417855319608

>  <Genealogy>  (75) 
CCOC(=O)CCCc1ccc2cc(C(N)=O)n(C(=O)OCCC#N)c2c1 (3D coordinates assigned)
CCOC(=O)CCCc1ccc2cc(C(N)=O)n(C(=O)OCCC#N)c2c1 (optimized conformer: 71.63417855319608 kcal/mol)

>  <smiles>  (75) 
CCOC(=O)CCCc1ccc2cc(C(N)=O)n(C(=O)OCCC#N)c2c1

>  <score_type>  (75) 
oracle

>  <origin>  (75) 
adg

>  <m_score__min__energy>  (75) 
-7.2599999999999998

>  <m_primary>  (75) 
energy

$$$$
75:0
     RDKit          3D

 51 52  0  0  0  0  0  0  0  0999 V2000
  139.2280  146.9440  129.9750 C   0  0  0  0  0  0  0  0  0  0  0  0
  138.8520  148.1970  130.6550 N   0  0  0  0  0  0  0  0  0  0  0  0
  138.4630  149.2020  129.6540 C   0  0  0  0  0  0  0  0  0  0  0  0
  139.9640  148.7030  131.4910 C   0  0  0  0  0  0  0  0  0  0  0  0
  139.6640  150.1120  132.0250 C   0  0  0  0  0  0  0  0  0  0  0  0
  140.9020  150.7490  132.6670 C   0  0  0  0  0  0  0  0  0  0  0  0
  140.9370  152.1950  132.4350 N   0  0  0  0  0  0  0  0  0  0  0  0
  141.2280  153.1440  133.4790 C   0  0  0  0  0  0  0  0  0  0  0  0
  142.0920  152.7690  134.5370 C   0  0  0  0  0  0  0  0  0  0  0  0
  142.4080  153.6730  135.5640 C   0  0  0  0  0  0  0  0  0  0  0  0
  141.8520  154.9470  135.5070 C   0  0  0  0  0  0  0  0  0  0  0  0
  141.9810  156.0080  136.3740 C   0  0  0  0  0  0  0  0  0  0  0  0
  141.2100  157.0280  135.8240 C   0  0  0  0  0  0  0  0  0  0  0  0
  141.1350  158.3840  136.4010 C   0  0  0  0  0  0  0  0  0  0  0  0
  139.8760  158.9870  136.7050 N   0  0  0  0  0  0  0  0  0  0  0  0
  142.1940  159.0430  136.5740 O   0  0  0  0  0  0  0  0  0  0  0  0
  140.6110  156.6140  134.6700 N   0  0  0  0  0  0  0  0  0  0  0  0
  139.6570  157.3350  133.8690 C   0  0  0  0  0  0  0  0  0  0  0  0
  138.6370  157.8470  134.4080 O   0  0  0  0  0  0  0  0  0  0  0  0
  139.8490  157.4470  132.4910 O   0  0  0  0  0  0  0  0  0  0  0  0
  139.7040  158.6680  131.7750 C   0  0  0  0  0  0  0  0  0  0  0  0
  138.2910  158.7680  131.1900 C   0  0  0  0  0  0  0  0  0  0  0  0
  137.9390  160.1820  130.7130 C   0  0  0  0  0  0  0  0  0  0  0  0
  138.7580  161.1150  131.3230 F   0  0  0  0  0  0  0  0  0  0  0  0
  138.1250  160.2580  129.3440 F   0  0  0  0  0  0  0  0  0  0  0  0
  136.6180  160.4720  131.0000 F   0  0  0  0  0  0  0  0  0  0  0  0
  141.0200  155.3360  134.4880 C   0  0  0  0  0  0  0  0  0  0  0  0
  140.6700  154.4450  133.4670 C   0  0  0  0  0  0  0  0  0  0  0  0
  139.4590  146.1743  130.7261 H   0  0  0  0  0  0  0  0  0  0  0  0
  138.3925  146.6033  129.3458 H   0  0  0  0  0  0  0  0  0  0  0  0
  140.1130  147.1196  129.3458 H   0  0  0  0  0  0  0  0  0  0  0  0
  138.1112  150.1108  130.1643 H   0  0  0  0  0  0  0  0  0  0  0  0
  139.3310  149.4476  129.0245 H   0  0  0  0  0  0  0  0  0  0  0  0
  137.6558  148.7992  129.0245 H   0  0  0  0  0  0  0  0  0  0  0  0
  140.1119  148.0213  132.3416 H   0  0  0  0  0  0  0  0  0  0  0  0
  140.8707  148.7526  130.8701 H   0  0  0  0  0  0  0  0  0  0  0  0
  139.3287  150.7458  131.1908 H   0  0  0  0  0  0  0  0  0  0  0  0
  138.8824  150.0285  132.7945 H   0  0  0  0  0  0  0  0  0  0  0  0
  140.8811  150.5603  133.7505 H   0  0  0  0  0  0  0  0  0  0  0  0
  141.7982  150.3023  132.2116 H   0  0  0  0  0  0  0  0  0  0  0  0
  140.6970  152.5620  131.4860 H   0  0  0  0  0  0  0  0  0  0  0  0
  142.5211  151.7563  134.5543 H   0  0  0  0  0  0  0  0  0  0  0  0
  143.0752  153.3825  136.3889 H   0  0  0  0  0  0  0  0  0  0  0  0
  142.5682  156.0426  137.3035 H   0  0  0  0  0  0  0  0  0  0  0  0
  139.8410  159.9340  137.1430 H   0  0  0  0  0  0  0  0  0  0  0  0
  138.9790  158.5330  136.4230 H   0  0  0  0  0  0  0  0  0  0  0  0
  139.8763  159.5132  132.4576 H   0  0  0  0  0  0  0  0  0  0  0  0
  140.4369  158.6951  130.9552 H   0  0  0  0  0  0  0  0  0  0  0  0
  138.2163  158.0807  130.3344 H   0  0  0  0  0  0  0  0  0  0  0  0
  137.5840  158.5052  131.9906 H   0  0  0  0  0  0  0  0  0  0  0  0
  139.9749  154.7497  132.6707 H   0  0  0  0  0  0  0  0  0  0  0  0
  1  2  1  0
  2  3  1  0
  2  4  1  0
  4  5  1  0
  5  6  1  0
  6  7  1  0
  7  8  1  0
  8  9  2  0
  9 10  1  0
 10 11  2  0
 11 12  1  0
 12 13  2  0
 13 14  1  0
 14 15  1  0
 14 16  2  0
 13 17  1  0
 17 18  1  0
 18 19  2  0
 18 20  1  0
 20 21  1  0
 21 22  1  0
 22 23  1  0
 23 24  1  0
 23 25  1  0
 23 26  1  0
 17 27  1  0
 27 28  2  0
 28  8  1  0
 27 11  1  0
  1 29  1  0
  1 30  1  0
  1 31  1  0
  3 32  1  0
  3 33  1  0
  3 34  1  0
  4 35  1  0
  4 36  1  0
  5 37  1  0
  5 38  1  0
  6 39  1  0
  6 40  1  0
  7 41  1  0
  9 42  1  0
 10 43  1  0
 12 44  1  0
 15 45  1  0
 15 46  1  0
 21 47  1  0
 21 48  1  0
 22 49  1  0
 22 50  1  0
 28 51  1  0
M  END
>  <UniqueID>  (76) 
76

>  <SMILES>  (76) 
CN(C)CCCNc1ccc2cc(C(N)=O)n(C(=O)OCCC(F)(F)F)c2c1

>  <Energy>  (76) 
78.77459588681067

>  <Genealogy>  (76) 
CN(C)CCCNc1ccc2cc(C(N)=O)n(C(=O)OCCC(F)(F)F)c2c1 (3D coordinates assigned)
CN(C)CCCNc1ccc2cc(C(N)=O)n(C(=O)OCCC(F)(F)F)c2c1 (optimized conformer: 78.77459588681067 kcal/mol)

>  <smiles>  (76) 
CN(C)CCCNc1ccc2cc(C(N)=O)n(C(=O)OCCC(F)(F)F)c2c1

>  <score_type>  (76) 
oracle

>  <origin>  (76) 
adg

>  <m_score__min__energy>  (76) 
-7.5999999999999996

>  <m_primary>  (76) 
energy

$$$$
76:0
     RDKit          3D

 28 29  0  0  0  0  0  0  0  0999 V2000
  141.8320  157.1440  139.7670 C   0  0  0  0  0  0  0  0  0  0  0  0
  141.3930  156.3230  138.5580 C   0  0  0  0  0  0  0  0  0  0  0  0
  140.2240  155.6470  138.8690 F   0  0  0  0  0  0  0  0  0  0  0  0
  142.3670  155.3800  138.2730 F   0  0  0  0  0  0  0  0  0  0  0  0
  141.1730  157.2250  137.3630 C   0  0  0  0  0  0  0  0  0  0  0  0
  141.3130  158.6320  137.4940 C   0  0  0  0  0  0  0  0  0  0  0  0
  141.0820  159.4820  136.4000 C   0  0  0  0  0  0  0  0  0  0  0  0
  140.6880  158.9040  135.1960 C   0  0  0  0  0  0  0  0  0  0  0  0
  140.4160  159.4920  133.9830 C   0  0  0  0  0  0  0  0  0  0  0  0
  140.0680  158.4430  133.1340 C   0  0  0  0  0  0  0  0  0  0  0  0
  139.6070  158.6300  131.7400 C   0  0  0  0  0  0  0  0  0  0  0  0
  138.5240  157.8570  131.2210 N   0  0  0  0  0  0  0  0  0  0  0  0
  140.1880  159.4550  130.9870 O   0  0  0  0  0  0  0  0  0  0  0  0
  140.1250  157.2530  133.7980 N   0  0  0  0  0  0  0  0  0  0  0  0
  139.8950  155.9380  133.2630 C   0  0  0  0  0  0  0  0  0  0  0  0
  138.7270  155.5610  132.9840 O   0  0  0  0  0  0  0  0  0  0  0  0
  140.9600  155.0750  133.0380 O   0  0  0  0  0  0  0  0  0  0  0  0
  140.5070  157.5530  135.0600 C   0  0  0  0  0  0  0  0  0  0  0  0
  140.7500  156.6800  136.1270 C   0  0  0  0  0  0  0  0  0  0  0  0
  141.5500  156.6167  140.6903 H   0  0  0  0  0  0  0  0  0  0  0  0
  142.9232  157.2801  139.7411 H   0  0  0  0  0  0  0  0  0  0  0  0
  141.3392  158.1271  139.7411 H   0  0  0  0  0  0  0  0  0  0  0  0
  141.6058  159.0612  138.4636 H   0  0  0  0  0  0  0  0  0  0  0  0
  141.2085  160.5709  136.4915 H   0  0  0  0  0  0  0  0  0  0  0  0
  140.4631  160.5627  133.7354 H   0  0  0  0  0  0  0  0  0  0  0  0
  137.9820  157.2040  131.8290 H   0  0  0  0  0  0  0  0  0  0  0  0
  138.2320  157.9690  130.2250 H   0  0  0  0  0  0  0  0  0  0  0  0
  140.6152  155.5948  136.0076 H   0  0  0  0  0  0  0  0  0  0  0  0
  1  2  1  0
  2  3  1  0
  2  4  1  0
  2  5  1  0
  5  6  2  0
  6  7  1  0
  7  8  2  0
  8  9  1  0
  9 10  2  0
 10 11  1  0
 11 12  1  0
 11 13  2  0
 10 14  1  0
 14 15  1  0
 15 16  2  0
 15 17  1  0
 14 18  1  0
 18 19  2  0
 19  5  1  0
 18  8  1  0
  1 20  1  0
  1 21  1  0
  1 22  1  0
  6 23  1  0
  7 24  1  0
  9 25  1  0
 12 26  1  0
 12 27  1  0
 19 28  1  0
M  CHG  1  17  -1
M  END
>  <UniqueID>  (77) 
77

>  <SMILES>  (77) 
CC(F)(F)c1ccc2cc(C(N)=O)n(C(=O)[O-])c2c1

>  <Energy>  (77) 
65.844038463148

>  <Genealogy>  (77) 
CC(F)(F)c1ccc2cc(C(N)=O)n(C(=O)[O-])c2c1 (protonated)
CC(F)(F)c1ccc2cc(C(N)=O)n(C(=O)[O-])c2c1 (3D coordinates assigned)
CC(F)(F)c1ccc2cc(C(N)=O)n(C(=O)[O-])c2c1 (optimized conformer: 65.844038463148 kcal/mol)

>  <smiles>  (77) 
CC(F)(F)c1ccc2cc(C(N)=O)n(C(=O)O)c2c1

>  <score_type>  (77) 
oracle

>  <origin>  (77) 
adg

>  <m_score__min__energy>  (77) 
-5.7400000000000002

>  <m_primary>  (77) 
energy

$$$$
77:0
     RDKit          3D

 34 36  0  0  0  0  0  0  0  0999 V2000
  147.5810  156.7290  134.5460 C   0  0  0  0  0  0  0  0  0  0  0  0
  147.9970  157.6910  133.4790 C   0  0  0  0  0  0  0  0  0  0  0  0
  149.1860  157.6480  132.8500 N   0  0  0  0  0  0  0  0  0  0  0  0
  149.2270  158.6190  131.9860 O   0  0  0  0  0  0  0  0  0  0  0  0
  148.1050  159.3030  132.0060 C   0  0  0  0  0  0  0  0  0  0  0  0
  147.8330  160.4800  131.1260 C   0  0  0  0  0  0  0  0  0  0  0  0
  147.2620  158.7470  132.9600 C   0  0  0  0  0  0  0  0  0  0  0  0
  145.8980  159.1780  133.3330 C   0  0  0  0  0  0  0  0  0  0  0  0
  145.6200  160.5500  133.5520 C   0  0  0  0  0  0  0  0  0  0  0  0
  144.3310  160.9700  133.9210 C   0  0  0  0  0  0  0  0  0  0  0  0
  143.3420  160.0000  134.0570 C   0  0  0  0  0  0  0  0  0  0  0  0
  142.0240  160.1280  134.4270 C   0  0  0  0  0  0  0  0  0  0  0  0
  141.5070  158.8330  134.4060 C   0  0  0  0  0  0  0  0  0  0  0  0
  140.0850  158.5230  134.6570 C   0  0  0  0  0  0  0  0  0  0  0  0
  139.6170  158.2510  135.9750 N   0  0  0  0  0  0  0  0  0  0  0  0
  139.2820  158.4490  133.6900 O   0  0  0  0  0  0  0  0  0  0  0  0
  142.4710  157.9390  134.0440 N   0  0  0  0  0  0  0  0  0  0  0  0
  142.3690  156.5080  134.0010 C   0  0  0  0  0  0  0  0  0  0  0  0
  141.4210  155.9550  133.3830 O   0  0  0  0  0  0  0  0  0  0  0  0
  143.3290  155.7160  134.6190 O   0  0  0  0  0  0  0  0  0  0  0  0
  143.5890  158.6710  133.8320 C   0  0  0  0  0  0  0  0  0  0  0  0
  144.8680  158.2230  133.4810 C   0  0  0  0  0  0  0  0  0  0  0  0
  147.7727  157.1723  135.5343 H   0  0  0  0  0  0  0  0  0  0  0  0
  146.5078  156.5101  134.4442 H   0  0  0  0  0  0  0  0  0  0  0  0
  148.1565  155.7971  134.4442 H   0  0  0  0  0  0  0  0  0  0  0  0
  149.9590  156.9660  133.0170 H   0  0  0  0  0  0  0  0  0  0  0  0
  147.6288  161.3637  131.7484 H   0  0  0  0  0  0  0  0  0  0  0  0
  148.7101  160.6735  130.4910 H   0  0  0  0  0  0  0  0  0  0  0  0
  146.9599  160.2690  130.4910 H   0  0  0  0  0  0  0  0  0  0  0  0
  146.4214  161.2938  133.4319 H   0  0  0  0  0  0  0  0  0  0  0  0
  144.1101  162.0331  134.0971 H   0  0  0  0  0  0  0  0  0  0  0  0
  141.4907  161.0549  134.6848 H   0  0  0  0  0  0  0  0  0  0  0  0
  139.1260  158.9840  136.5330 H   0  0  0  0  0  0  0  0  0  0  0  0
  145.0661  157.1524  133.3242 H   0  0  0  0  0  0  0  0  0  0  0  0
  1  2  1  0
  2  3  2  0
  3  4  1  0
  4  5  1  0
  5  6  1  0
  5  7  2  0
  7  8  1  0
  8  9  2  0
  9 10  1  0
 10 11  2  0
 11 12  1  0
 12 13  2  0
 13 14  1  0
 14 15  1  0
 14 16  2  0
 13 17  1  0
 17 18  1  0
 18 19  2  0
 18 20  1  0
 17 21  1  0
 21 22  2  0
  7  2  1  0
 22  8  1  0
 21 11  1  0
  1 23  1  0
  1 24  1  0
  1 25  1  0
  3 26  1  0
  6 27  1  0
  6 28  1  0
  6 29  1  0
  9 30  1  0
 10 31  1  0
 12 32  1  0
 15 33  1  0
 22 34  1  0
M  CHG  3   3   1  15  -1  20  -1
M  END
>  <UniqueID>  (78) 
78

>  <SMILES>  (78) 
Cc1[nH+]oc(C)c1-c1ccc2cc(C([NH-])=O)n(C(=O)[O-])c2c1

>  <Energy>  (78) 
110.30268429816549

>  <Genealogy>  (78) 
Cc1[nH+]oc(C)c1-c1ccc2cc(C([NH-])=O)n(C(=O)[O-])c2c1 (protonated)
Cc1[nH+]oc(C)c1-c1ccc2cc(C([NH-])=O)n(C(=O)[O-])c2c1 (3D coordinates assigned)
Cc1[nH+]oc(C)c1-c1ccc2cc(C([NH-])=O)n(C(=O)[O-])c2c1 (optimized conformer: 110.30268429816549 kcal/mol)

>  <smiles>  (78) 
Cc1noc(C)c1-c1ccc2cc(C(N)=O)n(C(=O)O)c2c1

>  <score_type>  (78) 
oracle

>  <origin>  (78) 
adg

>  <m_score__min__energy>  (78) 
-7.1100000000000003

>  <m_primary>  (78) 
energy

$$$$
78:0
     RDKit          3D

 33 34  0  0  0  0  0  0  0  0999 V2000
  149.6540  151.4240  131.8870 C   0  0  0  0  0  0  0  0  0  0  0  0
  148.8740  151.9910  133.0610 C   0  0  0  0  0  0  0  0  0  0  0  0
  148.2320  153.1980  132.6660 O   0  0  0  0  0  0  0  0  0  0  0  0
  148.8470  154.4500  132.7680 C   0  0  0  0  0  0  0  0  0  0  0  0
  150.0000  154.6320  132.2910 O   0  0  0  0  0  0  0  0  0  0  0  0
  148.1520  155.5360  133.4010 N   0  0  0  0  0  0  0  0  0  0  0  0
  147.1520  155.4570  134.3240 C   0  0  0  0  0  0  0  0  0  0  0  0
  146.6910  154.2290  135.0030 C   0  0  0  0  0  0  0  0  0  0  0  0
  145.9410  153.2410  134.3020 N   0  0  0  0  0  0  0  0  0  0  0  0
  147.0080  154.0240  136.2060 O   0  0  0  0  0  0  0  0  0  0  0  0
  146.6570  156.7260  134.6180 C   0  0  0  0  0  0  0  0  0  0  0  0
  147.3950  157.5930  133.8470 C   0  0  0  0  0  0  0  0  0  0  0  0
  147.3210  158.9790  133.7390 C   0  0  0  0  0  0  0  0  0  0  0  0
  148.1920  159.6170  132.8410 C   0  0  0  0  0  0  0  0  0  0  0  0
  149.1030  158.8630  132.0600 C   0  0  0  0  0  0  0  0  0  0  0  0
  150.0440  159.5590  131.1160 C   0  0  0  0  0  0  0  0  0  0  0  0
  149.2900  160.5230  130.2580 C   0  0  0  0  0  0  0  0  0  0  0  0
  148.3220  160.1240  129.5590 O   0  0  0  0  0  0  0  0  0  0  0  0
  149.6240  161.8700  130.2670 O   0  0  0  0  0  0  0  0  0  0  0  0
  149.1560  157.4580  132.2030 C   0  0  0  0  0  0  0  0  0  0  0  0
  148.2900  156.8510  133.1200 C   0  0  0  0  0  0  0  0  0  0  0  0
  150.4905  150.8159  132.2619 H   0  0  0  0  0  0  0  0  0  0  0  0
  148.9900  150.7963  131.2745 H   0  0  0  0  0  0  0  0  0  0  0  0
  150.0462  152.2492  131.2745 H   0  0  0  0  0  0  0  0  0  0  0  0
  148.1166  151.2618  133.3844 H   0  0  0  0  0  0  0  0  0  0  0  0
  149.5630  152.1978  133.8932 H   0  0  0  0  0  0  0  0  0  0  0  0
  146.4180  152.5100  133.7280 H   0  0  0  0  0  0  0  0  0  0  0  0
  145.8476  156.9802  135.3182 H   0  0  0  0  0  0  0  0  0  0  0  0
  146.6023  159.5567  134.3387 H   0  0  0  0  0  0  0  0  0  0  0  0
  148.1669  160.7123  132.7429 H   0  0  0  0  0  0  0  0  0  0  0  0
  150.8034  160.1045  131.6955 H   0  0  0  0  0  0  0  0  0  0  0  0
  150.5303  158.8095  130.4743 H   0  0  0  0  0  0  0  0  0  0  0  0
  149.8599  156.8567  131.6088 H   0  0  0  0  0  0  0  0  0  0  0  0
  1  2  1  0
  2  3  1  0
  3  4  1  0
  4  5  2  0
  4  6  1  0
  6  7  1  0
  7  8  1  0
  8  9  1  0
  8 10  2  0
  7 11  2  0
 11 12  1  0
 12 13  2  0
 13 14  1  0
 14 15  2  0
 15 16  1  0
 16 17  1  0
 17 18  2  0
 17 19  1  0
 15 20  1  0
 20 21  2  0
 21  6  1  0
 21 12  1  0
  1 22  1  0
  1 23  1  0
  1 24  1  0
  2 25  1  0
  2 26  1  0
  9 27  1  0
 11 28  1  0
 13 29  1  0
 14 30  1  0
 16 31  1  0
 16 32  1  0
 20 33  1  0
M  CHG  2   9  -1  19  -1
M  END
>  <UniqueID>  (79) 
79

>  <SMILES>  (79) 
CCOC(=O)n1c(C([NH-])=O)cc2ccc(CC(=O)[O-])cc21

>  <Energy>  (79) 
65.68902765944087

>  <Genealogy>  (79) 
CCOC(=O)n1c(C([NH-])=O)cc2ccc(CC(=O)[O-])cc21 (protonated)
CCOC(=O)n1c(C([NH-])=O)cc2ccc(CC(=O)[O-])cc21 (3D coordinates assigned)
CCOC(=O)n1c(C([NH-])=O)cc2ccc(CC(=O)[O-])cc21 (optimized conformer: 65.68902765944087 kcal/mol)

>  <smiles>  (79) 
CCOC(=O)n1c(C(N)=O)cc2ccc(CC(=O)O)cc21

>  <score_type>  (79) 
oracle

>  <origin>  (79) 
adg

>  <m_score__min__energy>  (79) 
-6.2599999999999998

>  <m_primary>  (79) 
energy

$$$$
79:0
     RDKit          3D

 63 66  0  0  0  0  0  0  0  0999 V2000
  149.9030  159.7320  130.4270 C   0  0  0  0  0  0  0  0  0  0  0  0
  149.6750  158.9120  131.6610 C   0  0  0  0  0  0  0  0  0  0  0  0
  150.4130  157.9060  131.8590 O   0  0  0  0  0  0  0  0  0  0  0  0
  148.6480  159.2590  132.6180 N   0  0  0  0  0  0  0  0  0  0  0  0
  148.4560  158.4480  133.8340 C   0  0  0  0  0  0  0  0  0  0  0  0
  146.9610  158.2110  134.0890 C   0  0  0  0  0  0  0  0  0  0  0  0
  146.1710  159.4320  133.8680 N   0  0  0  0  0  0  0  0  0  0  0  0
  144.7330  159.3500  133.8230 C   0  0  0  0  0  0  0  0  0  0  0  0
  143.9470  160.5340  133.7900 C   0  0  0  0  0  0  0  0  0  0  0  0
  142.5450  160.4630  133.7150 C   0  0  0  0  0  0  0  0  0  0  0  0
  141.9570  159.2050  133.6690 C   0  0  0  0  0  0  0  0  0  0  0  0
  140.6280  158.8450  133.5950 C   0  0  0  0  0  0  0  0  0  0  0  0
  140.6250  157.4500  133.5720 C   0  0  0  0  0  0  0  0  0  0  0  0
  139.4020  156.6310  133.4390 C   0  0  0  0  0  0  0  0  0  0  0  0
  139.4690  155.2920  132.9560 N   0  0  0  0  0  0  0  0  0  0  0  0
  138.2830  157.1250  133.7380 O   0  0  0  0  0  0  0  0  0  0  0  0
  141.8990  156.9720  133.6470 N   0  0  0  0  0  0  0  0  0  0  0  0
  142.3310  155.6060  133.7170 C   0  0  0  0  0  0  0  0  0  0  0  0
  141.7850  154.8300  134.5490 O   0  0  0  0  0  0  0  0  0  0  0  0
  143.3450  155.0480  132.7530 C   0  0  0  0  0  0  0  0  0  0  0  0
  144.4210  154.3150  133.4630 N   0  0  0  0  0  0  0  0  0  0  0  0
  144.6950  154.8740  134.8120 C   0  0  0  0  0  0  0  0  0  0  0  0
  145.9990  154.3490  135.4490 C   0  0  0  0  0  0  0  0  0  0  0  0
  147.2500  155.1900  135.0950 C   0  0  0  0  0  0  0  0  0  0  0  0
  147.7330  154.9040  133.7250 N   0  0  0  0  0  0  0  0  0  0  0  0
  148.2200  153.5180  133.6310 C   0  0  0  0  0  0  0  0  0  0  0  0
  146.7000  155.1450  132.6890 C   0  0  0  0  0  0  0  0  0  0  0  0
  145.6070  154.0570  132.6110 C   0  0  0  0  0  0  0  0  0  0  0  0
  142.7010  158.0540  133.6910 C   0  0  0  0  0  0  0  0  0  0  0  0
  144.0950  158.0890  133.7720 C   0  0  0  0  0  0  0  0  0  0  0  0
  146.8650  160.6970  133.5910 C   0  0  0  0  0  0  0  0  0  0  0  0
  147.8570  160.4920  132.4430 C   0  0  0  0  0  0  0  0  0  0  0  0
  150.1875  160.7551  130.7140 H   0  0  0  0  0  0  0  0  0  0  0  0
  150.7097  159.2807  129.8308 H   0  0  0  0  0  0  0  0  0  0  0  0
  148.9791  159.7619  129.8308 H   0  0  0  0  0  0  0  0  0  0  0  0
  148.9600  157.4786  133.7064 H   0  0  0  0  0  0  0  0  0  0  0  0
  148.8834  158.9862  134.6929 H   0  0  0  0  0  0  0  0  0  0  0  0
  146.6029  157.4263  133.4063 H   0  0  0  0  0  0  0  0  0  0  0  0
  146.8362  157.9072  135.1388 H   0  0  0  0  0  0  0  0  0  0  0  0
  144.4411  161.5162  133.8235 H   0  0  0  0  0  0  0  0  0  0  0  0
  141.9319  161.3760  133.6934 H   0  0  0  0  0  0  0  0  0  0  0  0
  139.7561  159.5148  133.5613 H   0  0  0  0  0  0  0  0  0  0  0  0
  139.9100  154.5370  133.5250 H   0  0  0  0  0  0  0  0  0  0  0  0
  142.8392  154.3589  132.0608 H   0  0  0  0  0  0  0  0  0  0  0  0
  143.8004  155.8867  132.2060 H   0  0  0  0  0  0  0  0  0  0  0  0
  144.7667  155.9683  134.7263 H   0  0  0  0  0  0  0  0  0  0  0  0
  143.8684  154.5569  135.4649 H   0  0  0  0  0  0  0  0  0  0  0  0
  145.8768  154.3524  136.5422 H   0  0  0  0  0  0  0  0  0  0  0  0
  146.1678  153.3389  135.0474 H   0  0  0  0  0  0  0  0  0  0  0  0
  146.9940  156.2574  135.1671 H   0  0  0  0  0  0  0  0  0  0  0  0
  148.0506  154.9278  135.8023 H   0  0  0  0  0  0  0  0  0  0  0  0
  148.3633  153.1103  134.6426 H   0  0  0  0  0  0  0  0  0  0  0  0
  147.4830  152.9063  133.0901 H   0  0  0  0  0  0  0  0  0  0  0  0
  149.1777  153.5018  133.0901 H   0  0  0  0  0  0  0  0  0  0  0  0
  146.2127  156.1069  132.9066 H   0  0  0  0  0  0  0  0  0  0  0  0
  147.2202  155.1366  131.7198 H   0  0  0  0  0  0  0  0  0  0  0  0
  145.2701  153.9826  131.5665 H   0  0  0  0  0  0  0  0  0  0  0  0
  146.0633  153.1277  132.9828 H   0  0  0  0  0  0  0  0  0  0  0  0
  144.6819  157.1589  133.7955 H   0  0  0  0  0  0  0  0  0  0  0  0
  146.1297  161.4647  133.3080 H   0  0  0  0  0  0  0  0  0  0  0  0
  147.4068  161.0235  134.4909 H   0  0  0  0  0  0  0  0  0  0  0  0
  147.2990  160.4262  131.4973 H   0  0  0  0  0  0  0  0  0  0  0  0
  148.5508  161.3456  132.4332 H   0  0  0  0  0  0  0  0  0  0  0  0
  1  2  1  0
  2  3  2  0
  2  4  1  0
  4  5  1  0
  5  6  1  0
  6  7  1  0
  7  8  1  0
  8  9  2  0
  9 10  1  0
 10 11  2  0
 11 12  1  0
 12 13  2  0
 13 14  1  0
 14 15  1  0
 14 16  2  0
 13 17  1  0
 17 18  1  0
 18 19  2  0
 18 20  1  0
 20 21  1  0
 21 22  1  0
 22 23  1  0
 23 24  1  0
 24 25  1  0
 25 26  1  0
 25 27  1  0
 27 28  1  0
 17 29  1  0
 29 30  2  0
  7 31  1  0
 31 32  1  0
 32  4  1  0
 30  8  1  0
 29 11  1  0
 28 21  1  0
  1 33  1  0
  1 34  1  0
  1 35  1  0
  5 36  1  0
  5 37  1  0
  6 38  1  0
  6 39  1  0
  9 40  1  0
 10 41  1  0
 12 42  1  0
 15 43  1  0
 20 44  1  0
 20 45  1  0
 22 46  1  0
 22 47  1  0
 23 48  1  0
 23 49  1  0
 24 50  1  0
 24 51  1  0
 26 52  1  0
 26 53  1  0
 26 54  1  0
 27 55  1  0
 27 56  1  0
 28 57  1  0
 28 58  1  0
 30 59  1  0
 31 60  1  0
 31 61  1  0
 32 62  1  0
 32 63  1  0
M  CHG  1  15  -1
M  END
>  <UniqueID>  (80) 
80

>  <SMILES>  (80) 
CC(=O)N1CCN(c2ccc3cc(C([NH-])=O)n(C(=O)CN4CCCN(C)CC4)c3c2)CC1

>  <Energy>  (80) 
125.88610054308235

>  <Genealogy>  (80) 
CC(=O)N1CCN(c2ccc3cc(C([NH-])=O)n(C(=O)CN4CCCN(C)CC4)c3c2)CC1 (protonated)
CC(=O)N1CCN(c2ccc3cc(C([NH-])=O)n(C(=O)CN4CCCN(C)CC4)c3c2)CC1 (3D coordinates assigned)
CC(=O)N1CCN(c2ccc3cc(C([NH-])=O)n(C(=O)CN4CCCN(C)CC4)c3c2)CC1 (nonaromatic ring conformer: 125.88610054308235 kcal/mol)

>  <smiles>  (80) 
CC(=O)N1CCN(c2ccc3cc(C(N)=O)n(C(=O)CN4CCCN(C)CC4)c3c2)CC1

>  <score_type>  (80) 
oracle

>  <origin>  (80) 
adg

>  <m_score__min__energy>  (80) 
-7.3899999999999997

>  <m_primary>  (80) 
energy

$$$$
80:0
     RDKit          3D

 46 48  0  0  0  0  0  0  0  0999 V2000
  141.7570  158.6270  134.9800 C   0  0  0  0  0  0  0  0  0  0  0  0
  143.1660  158.4590  134.8850 O   0  0  0  0  0  0  0  0  0  0  0  0
  143.8320  158.3530  133.6600 C   0  0  0  0  0  0  0  0  0  0  0  0
  143.2670  157.8050  132.6750 O   0  0  0  0  0  0  0  0  0  0  0  0
  145.1550  158.8950  133.5190 N   0  0  0  0  0  0  0  0  0  0  0  0
  145.5580  160.1840  133.7140 C   0  0  0  0  0  0  0  0  0  0  0  0
  144.6770  161.3380  133.9870 C   0  0  0  0  0  0  0  0  0  0  0  0
  143.2670  161.2070  133.8280 N   0  0  0  0  0  0  0  0  0  0  0  0
  145.1520  162.4300  134.3960 O   0  0  0  0  0  0  0  0  0  0  0  0
  146.9360  160.2960  133.5390 C   0  0  0  0  0  0  0  0  0  0  0  0
  147.3680  159.0280  133.2210 C   0  0  0  0  0  0  0  0  0  0  0  0
  148.6500  158.5610  132.9560 C   0  0  0  0  0  0  0  0  0  0  0  0
  148.8100  157.1930  132.6840 C   0  0  0  0  0  0  0  0  0  0  0  0
  147.6930  156.3150  132.6850 C   0  0  0  0  0  0  0  0  0  0  0  0
  147.8720  154.8300  132.4110 C   0  0  2  0  0  0  0  0  0  0  0  0
  146.8610  153.9980  133.2500 C   0  0  0  0  0  0  0  0  0  0  0  0
  146.4130  152.6670  132.6190 C   0  0  0  0  0  0  0  0  0  0  0  0
  147.5040  151.5810  132.5770 C   0  0  0  0  0  0  0  0  0  0  0  0
  148.7800  152.0410  131.9850 N   0  0  0  0  0  0  0  0  0  0  0  0
  149.5780  150.8790  131.5640 C   0  0  0  0  0  0  0  0  0  0  0  0
  149.5580  152.9020  132.9040 C   0  0  0  0  0  0  0  0  0  0  0  0
  149.3530  154.4110  132.6070 C   0  0  0  0  0  0  0  0  0  0  0  0
  146.4050  156.8300  132.9660 C   0  0  0  0  0  0  0  0  0  0  0  0
  146.2740  158.2020  133.2150 C   0  0  0  0  0  0  0  0  0  0  0  0
  141.4625  158.6621  136.0393 H   0  0  0  0  0  0  0  0  0  0  0  0
  141.4657  159.5662  134.4871 H   0  0  0  0  0  0  0  0  0  0  0  0
  141.2530  157.7826  134.4871 H   0  0  0  0  0  0  0  0  0  0  0  0
  142.8240  160.2670  133.7120 H   0  0  0  0  0  0  0  0  0  0  0  0
  147.5486  161.2046  133.6346 H   0  0  0  0  0  0  0  0  0  0  0  0
  149.5133  159.2427  132.9593 H   0  0  0  0  0  0  0  0  0  0  0  0
  149.8127  156.7959  132.4674 H   0  0  0  0  0  0  0  0  0  0  0  0
  147.6395  154.6164  131.3573 H   0  0  0  0  0  0  0  0  0  0  0  0
  147.3296  153.7727  134.2194 H   0  0  0  0  0  0  0  0  0  0  0  0
  145.9539  154.6153  133.3287 H   0  0  0  0  0  0  0  0  0  0  0  0
  145.5643  152.2791  133.2015 H   0  0  0  0  0  0  0  0  0  0  0  0
  146.1518  152.8886  131.5737 H   0  0  0  0  0  0  0  0  0  0  0  0
  147.6998  151.2457  133.6062 H   0  0  0  0  0  0  0  0  0  0  0  0
  147.1262  150.7709  131.9359 H   0  0  0  0  0  0  0  0  0  0  0  0
  149.9449  150.3447  132.4528 H   0  0  0  0  0  0  0  0  0  0  0  0
  148.9525  150.2033  130.9622 H   0  0  0  0  0  0  0  0  0  0  0  0
  150.4333  151.2202  130.9622 H   0  0  0  0  0  0  0  0  0  0  0  0
  149.2387  152.6975  133.9366 H   0  0  0  0  0  0  0  0  0  0  0  0
  150.6241  152.6714  132.7618 H   0  0  0  0  0  0  0  0  0  0  0  0
  149.7648  154.9865  133.4491 H   0  0  0  0  0  0  0  0  0  0  0  0
  149.8660  154.6164  131.6558 H   0  0  0  0  0  0  0  0  0  0  0  0
  145.5269  156.1678  132.9883 H   0  0  0  0  0  0  0  0  0  0  0  0
  1  2  1  0
  2  3  1  0
  3  4  2  0
  3  5  1  0
  5  6  1  0
  6  7  1  0
  7  8  1  0
  7  9  2  0
  6 10  2  0
 10 11  1  0
 11 12  2  0
 12 13  1  0
 13 14  2  0
 14 15  1  0
 15 16  1  0
 16 17  1  0
 17 18  1  0
 18 19  1  0
 19 20  1  0
 19 21  1  0
 21 22  1  0
 14 23  1  0
 23 24  2  0
 24  5  1  0
 24 11  1  0
 22 15  1  0
  1 25  1  0
  1 26  1  0
  1 27  1  0
  8 28  1  0
 10 29  1  0
 12 30  1  0
 13 31  1  0
 15 32  1  6
 16 33  1  0
 16 34  1  0
 17 35  1  0
 17 36  1  0
 18 37  1  0
 18 38  1  0
 20 39  1  0
 20 40  1  0
 20 41  1  0
 21 42  1  0
 21 43  1  0
 22 44  1  0
 22 45  1  0
 23 46  1  0
M  CHG  1   8  -1
M  END
>  <UniqueID>  (81) 
81

>  <SMILES>  (81) 
COC(=O)n1c(C([NH-])=O)cc2ccc([C@@H]3CCCN(C)CC3)cc21

>  <Energy>  (81) 
94.7099682808601

>  <Genealogy>  (81) 
COC(=O)n1c(C([NH-])=O)cc2ccc(C3CCCN(C)CC3)cc21 (protonated)
COC(=O)n1c(C([NH-])=O)cc2ccc([C@@H]3CCCN(C)CC3)cc21 (chirality)
COC(=O)n1c(C([NH-])=O)cc2ccc([C@@H]3CCCN(C)CC3)cc21 (3D coordinates assigned)
COC(=O)n1c(C([NH-])=O)cc2ccc([C@@H]3CCCN(C)CC3)cc21 (nonaromatic ring conformer: 94.7099682808601 kcal/mol)

>  <smiles>  (81) 
COC(=O)n1c(C(N)=O)cc2ccc(C3CCCN(C)CC3)cc21

>  <score_type>  (81) 
oracle

>  <origin>  (81) 
adg

>  <m_score__min__energy>  (81) 
-5.6600000000000001

>  <m_primary>  (81) 
energy

$$$$
81:0
     RDKit          3D

 40 42  0  0  0  0  0  0  0  0999 V2000
  139.3730  156.6230  132.9770 C   0  0  0  0  0  0  0  0  0  0  0  0
  140.4880  155.7410  132.9830 O   0  0  0  0  0  0  0  0  0  0  0  0
  140.3490  154.3490  132.9770 C   0  0  0  0  0  0  0  0  0  0  0  0
  139.2020  153.8260  132.9150 O   0  0  0  0  0  0  0  0  0  0  0  0
  141.5160  153.5140  133.0600 N   0  0  0  0  0  0  0  0  0  0  0  0
  142.7760  153.8770  133.4310 C   0  0  0  0  0  0  0  0  0  0  0  0
  143.1680  155.1990  133.9690 C   0  0  0  0  0  0  0  0  0  0  0  0
  142.9580  156.3890  133.2040 N   0  0  0  0  0  0  0  0  0  0  0  0
  143.7180  155.2850  135.0970 O   0  0  0  0  0  0  0  0  0  0  0  0
  143.6470  152.7930  133.3250 C   0  0  0  0  0  0  0  0  0  0  0  0
  142.8740  151.7460  132.8760 C   0  0  0  0  0  0  0  0  0  0  0  0
  143.2300  150.4340  132.5820 C   0  0  0  0  0  0  0  0  0  0  0  0
  142.2290  149.5710  132.1050 C   0  0  0  0  0  0  0  0  0  0  0  0
  140.8990  150.0300  131.9300 C   0  0  0  0  0  0  0  0  0  0  0  0
  139.8860  149.1450  131.4160 N   0  0  0  0  0  0  0  0  0  0  0  0
  138.5360  149.6330  131.1090 C   0  0  0  0  0  0  0  0  0  0  0  0
  138.1290  149.2320  129.6760 C   0  0  0  0  0  0  0  0  0  0  0  0
  138.7890  148.0030  129.1890 N   0  0  0  0  0  0  0  0  0  0  0  0
  139.1420  147.0820  130.2770 C   0  0  0  0  0  0  0  0  0  0  0  0
  140.1860  147.7230  131.2050 C   0  0  0  0  0  0  0  0  0  0  0  0
  140.5800  151.3740  132.2320 C   0  0  0  0  0  0  0  0  0  0  0  0
  141.5920  152.2070  132.7250 C   0  0  0  0  0  0  0  0  0  0  0  0
  139.0820  156.8532  134.0125 H   0  0  0  0  0  0  0  0  0  0  0  0
  139.6444  157.5535  132.4569 H   0  0  0  0  0  0  0  0  0  0  0  0
  138.5299  156.1447  132.4569 H   0  0  0  0  0  0  0  0  0  0  0  0
  143.2740  157.3120  133.5770 H   0  0  0  0  0  0  0  0  0  0  0  0
  142.4560  156.3650  132.2900 H   0  0  0  0  0  0  0  0  0  0  0  0
  144.7232  152.7778  133.5520 H   0  0  0  0  0  0  0  0  0  0  0  0
  144.2634  150.0828  132.7187 H   0  0  0  0  0  0  0  0  0  0  0  0
  142.4801  148.5274  131.8646 H   0  0  0  0  0  0  0  0  0  0  0  0
  137.8223  149.1968  131.8234 H   0  0  0  0  0  0  0  0  0  0  0  0
  138.5282  150.7302  131.1870 H   0  0  0  0  0  0  0  0  0  0  0  0
  137.0409  149.0719  129.6568 H   0  0  0  0  0  0  0  0  0  0  0  0
  138.4467  150.0499  129.0126 H   0  0  0  0  0  0  0  0  0  0  0  0
  139.6660  148.2690  128.6820 H   0  0  0  0  0  0  0  0  0  0  0  0
  138.2386  146.8440  130.8577 H   0  0  0  0  0  0  0  0  0  0  0  0
  139.5659  146.1641  129.8437 H   0  0  0  0  0  0  0  0  0  0  0  0
  140.1754  147.2035  132.1746 H   0  0  0  0  0  0  0  0  0  0  0  0
  141.1777  147.6353  130.7373 H   0  0  0  0  0  0  0  0  0  0  0  0
  139.5596  151.7567  132.0830 H   0  0  0  0  0  0  0  0  0  0  0  0
  1  2  1  0
  2  3  1  0
  3  4  2  0
  3  5  1  0
  5  6  1  0
  6  7  1  0
  7  8  1  0
  7  9  2  0
  6 10  2  0
 10 11  1  0
 11 12  2  0
 12 13  1  0
 13 14  2  0
 14 15  1  0
 15 16  1  0
 16 17  1  0
 17 18  1  0
 18 19  1  0
 19 20  1  0
 14 21  1  0
 21 22  2  0
 22  5  1  0
 22 11  1  0
 20 15  1  0
  1 23  1  0
  1 24  1  0
  1 25  1  0
  8 26  1  0
  8 27  1  0
 10 28  1  0
 12 29  1  0
 13 30  1  0
 16 31  1  0
 16 32  1  0
 17 33  1  0
 17 34  1  0
 18 35  1  0
 19 36  1  0
 19 37  1  0
 20 38  1  0
 20 39  1  0
 21 40  1  0
M  END
>  <UniqueID>  (82) 
82

>  <SMILES>  (82) 
COC(=O)n1c(C(N)=O)cc2ccc(N3CCNCC3)cc21

>  <Energy>  (82) 
85.95575865827092

>  <Genealogy>  (82) 
COC(=O)n1c(C(N)=O)cc2ccc(N3CCNCC3)cc21 (3D coordinates assigned)
COC(=O)n1c(C(N)=O)cc2ccc(N3CCNCC3)cc21 (nonaromatic ring conformer: 85.95575865827092 kcal/mol)

>  <smiles>  (82) 
COC(=O)n1c(C(N)=O)cc2ccc(N3CCNCC3)cc21

>  <score_type>  (82) 
oracle

>  <origin>  (82) 
adg

>  <m_score__min__energy>  (82) 
-7.2699999999999996

>  <m_primary>  (82) 
energy

$$$$
82:0
     RDKit          3D

 46 48  0  0  0  0  0  0  0  0999 V2000
  140.7110  156.7330  133.3580 C   0  0  0  0  0  0  0  0  0  0  0  0
  141.2610  158.1660  133.3000 C   0  0  0  0  0  0  0  0  0  0  0  0
  140.4810  158.9580  132.2330 C   0  0  0  0  0  0  0  0  0  0  0  0
  141.0950  158.8170  134.6880 C   0  0  0  0  0  0  0  0  0  0  0  0
  142.6480  158.0740  132.9460 O   0  0  0  0  0  0  0  0  0  0  0  0
  143.7210  157.8720  133.8280 C   0  0  0  0  0  0  0  0  0  0  0  0
  143.5780  157.1860  134.8750 O   0  0  0  0  0  0  0  0  0  0  0  0
  144.9910  158.4760  133.5410 N   0  0  0  0  0  0  0  0  0  0  0  0
  145.3110  159.8000  133.5810 C   0  0  0  0  0  0  0  0  0  0  0  0
  144.3610  160.9170  133.7620 C   0  0  0  0  0  0  0  0  0  0  0  0
  143.0000  160.7950  133.3580 N   0  0  0  0  0  0  0  0  0  0  0  0
  144.7680  162.0120  134.2360 O   0  0  0  0  0  0  0  0  0  0  0  0
  146.6720  159.9820  133.3470 C   0  0  0  0  0  0  0  0  0  0  0  0
  147.1790  158.7180  133.1530 C   0  0  0  0  0  0  0  0  0  0  0  0
  148.4840  158.3080  132.8990 C   0  0  0  0  0  0  0  0  0  0  0  0
  148.7310  156.9320  132.7760 C   0  0  0  0  0  0  0  0  0  0  0  0
  147.6800  155.9830  132.9180 C   0  0  0  0  0  0  0  0  0  0  0  0
  147.9490  154.5660  132.8030 N   0  0  0  0  0  0  0  0  0  0  0  0
  146.9420  153.5300  132.9850 C   0  0  0  0  0  0  0  0  0  0  0  0
  147.6170  152.2210  132.5990 C   0  0  0  0  0  0  0  0  0  0  0  0
  149.1160  152.5000  132.6590 C   0  0  0  0  0  0  0  0  0  0  0  0
  149.7890  151.8220  131.6560 F   0  0  0  0  0  0  0  0  0  0  0  0
  149.6160  152.1140  133.8920 F   0  0  0  0  0  0  0  0  0  0  0  0
  149.2580  154.0090  132.4900 C   0  0  0  0  0  0  0  0  0  0  0  0
  146.3660  156.4480  133.1790 C   0  0  0  0  0  0  0  0  0  0  0  0
  146.1480  157.8270  133.2760 C   0  0  0  0  0  0  0  0  0  0  0  0
  140.5937  156.4275  134.4082 H   0  0  0  0  0  0  0  0  0  0  0  0
  139.7342  156.6945  132.8537 H   0  0  0  0  0  0  0  0  0  0  0  0
  141.4112  156.0508  132.8537 H   0  0  0  0  0  0  0  0  0  0  0  0
  139.7915  159.6581  132.7273 H   0  0  0  0  0  0  0  0  0  0  0  0
  141.1873  159.5208  131.6050 H   0  0  0  0  0  0  0  0  0  0  0  0
  139.9074  158.2604  131.6050 H   0  0  0  0  0  0  0  0  0  0  0  0
  141.2862  158.0672  135.4699 H   0  0  0  0  0  0  0  0  0  0  0  0
  141.8105  159.6460  134.7921 H   0  0  0  0  0  0  0  0  0  0  0  0
  140.0699  159.2022  134.7921 H   0  0  0  0  0  0  0  0  0  0  0  0
  142.7300  160.1840  132.5560 H   0  0  0  0  0  0  0  0  0  0  0  0
  147.2236  160.9334  133.3226 H   0  0  0  0  0  0  0  0  0  0  0  0
  149.2981  159.0407  132.7976 H   0  0  0  0  0  0  0  0  0  0  0  0
  149.7525  156.5817  132.5667 H   0  0  0  0  0  0  0  0  0  0  0  0
  146.6129  153.4962  134.0341 H   0  0  0  0  0  0  0  0  0  0  0  0
  146.0497  153.7212  132.3708 H   0  0  0  0  0  0  0  0  0  0  0  0
  147.3457  151.4252  133.3083 H   0  0  0  0  0  0  0  0  0  0  0  0
  147.3056  151.8811  131.6003 H   0  0  0  0  0  0  0  0  0  0  0  0
  150.0175  154.4025  133.1816 H   0  0  0  0  0  0  0  0  0  0  0  0
  149.5793  154.2749  131.4722 H   0  0  0  0  0  0  0  0  0  0  0  0
  145.5344  155.7387  133.3028 H   0  0  0  0  0  0  0  0  0  0  0  0
  1  2  1  0
  2  3  1  0
  2  4  1  0
  2  5  1  0
  5  6  1  0
  6  7  2  0
  6  8  1  0
  8  9  1  0
  9 10  1  0
 10 11  1  0
 10 12  2  0
  9 13  2  0
 13 14  1  0
 14 15  2  0
 15 16  1  0
 16 17  2  0
 17 18  1  0
 18 19  1  0
 19 20  1  0
 20 21  1  0
 21 22  1  0
 21 23  1  0
 21 24  1  0
 17 25  1  0
 25 26  2  0
 26  8  1  0
 26 14  1  0
 24 18  1  0
  1 27  1  0
  1 28  1  0
  1 29  1  0
  3 30  1  0
  3 31  1  0
  3 32  1  0
  4 33  1  0
  4 34  1  0
  4 35  1  0
 11 36  1  0
 13 37  1  0
 15 38  1  0
 16 39  1  0
 19 40  1  0
 19 41  1  0
 20 42  1  0
 20 43  1  0
 24 44  1  0
 24 45  1  0
 25 46  1  0
M  CHG  1  11  -1
M  END
>  <UniqueID>  (83) 
83

>  <SMILES>  (83) 
CC(C)(C)OC(=O)n1c(C([NH-])=O)cc2ccc(N3CCC(F)(F)C3)cc21

>  <Energy>  (83) 
82.97962279240468

>  <Genealogy>  (83) 
CC(C)(C)OC(=O)n1c(C([NH-])=O)cc2ccc(N3CCC(F)(F)C3)cc21 (protonated)
CC(C)(C)OC(=O)n1c(C([NH-])=O)cc2ccc(N3CCC(F)(F)C3)cc21 (3D coordinates assigned)
CC(C)(C)OC(=O)n1c(C([NH-])=O)cc2ccc(N3CCC(F)(F)C3)cc21 (nonaromatic ring conformer: 82.97962279240468 kcal/mol)

>  <smiles>  (83) 
CC(C)(C)OC(=O)n1c(C(N)=O)cc2ccc(N3CCC(F)(F)C3)cc21

>  <score_type>  (83) 
oracle

>  <origin>  (83) 
adg

>  <m_score__min__energy>  (83) 
-7.2999999999999998

>  <m_primary>  (83) 
energy

$$$$
83:0
     RDKit          3D

 42 43  0  0  0  0  0  0  0  0999 V2000
  148.8140  157.5170  132.7140 C   0  0  0  0  0  0  0  0  0  0  0  0
  148.0280  156.5560  133.2090 C   0  0  0  0  0  0  0  0  0  0  0  0
  147.3010  155.6050  132.3080 C   0  0  0  0  0  0  0  0  0  0  0  0
  146.6410  154.6170  133.0920 O   0  0  0  0  0  0  0  0  0  0  0  0
  145.4320  154.8600  133.7510 C   0  0  0  0  0  0  0  0  0  0  0  0
  145.3330  154.6910  134.9980 O   0  0  0  0  0  0  0  0  0  0  0  0
  144.2370  155.2750  132.9580 C   0  0  0  0  0  0  0  0  0  0  0  0
  143.9000  156.7090  133.2570 C   0  0  0  0  0  0  0  0  0  0  0  0
  142.5880  157.0600  133.6640 C   0  0  0  0  0  0  0  0  0  0  0  0
  142.2680  158.3920  133.9750 C   0  0  0  0  0  0  0  0  0  0  0  0
  143.2800  159.3440  133.8880 C   0  0  0  0  0  0  0  0  0  0  0  0
  143.2410  160.7010  134.1140 C   0  0  0  0  0  0  0  0  0  0  0  0
  144.5390  161.1520  133.8790 C   0  0  0  0  0  0  0  0  0  0  0  0
  144.9630  162.5500  134.0970 C   0  0  0  0  0  0  0  0  0  0  0  0
  146.1480  162.8520  134.8300 N   0  0  0  0  0  0  0  0  0  0  0  0
  144.2470  163.4940  133.6690 O   0  0  0  0  0  0  0  0  0  0  0  0
  145.3460  160.1160  133.5120 N   0  0  0  0  0  0  0  0  0  0  0  0
  146.7230  160.1700  133.1130 C   0  0  0  0  0  0  0  0  0  0  0  0
  147.6210  160.3460  133.9790 O   0  0  0  0  0  0  0  0  0  0  0  0
  147.0570  160.0530  131.7590 O   0  0  0  0  0  0  0  0  0  0  0  0
  148.1450  160.7520  131.1590 C   0  0  0  0  0  0  0  0  0  0  0  0
  149.0120  159.7960  130.3880 C   0  0  0  0  0  0  0  0  0  0  0  0
  149.9870  160.2230  129.5790 C   0  0  0  0  0  0  0  0  0  0  0  0
  144.5600  159.0160  133.5260 C   0  0  0  0  0  0  0  0  0  0  0  0
  144.9040  157.7000  133.1920 C   0  0  0  0  0  0  0  0  0  0  0  0
  149.3381  158.2040  133.3948 H   0  0  0  0  0  0  0  0  0  0  0  0
  148.9368  157.6210  131.6258 H   0  0  0  0  0  0  0  0  0  0  0  0
  147.9127  156.4615  134.2988 H   0  0  0  0  0  0  0  0  0  0  0  0
  146.5582  156.1580  131.7144 H   0  0  0  0  0  0  0  0  0  0  0  0
  148.0204  155.1170  131.6340 H   0  0  0  0  0  0  0  0  0  0  0  0
  144.4553  155.1673  131.8853 H   0  0  0  0  0  0  0  0  0  0  0  0
  143.3825  154.6373  133.2284 H   0  0  0  0  0  0  0  0  0  0  0  0
  141.8136  156.2822  133.7369 H   0  0  0  0  0  0  0  0  0  0  0  0
  141.2489  158.6742  134.2780 H   0  0  0  0  0  0  0  0  0  0  0  0
  142.3706  161.3020  134.4159 H   0  0  0  0  0  0  0  0  0  0  0  0
  147.0210  162.2960  134.6940 H   0  0  0  0  0  0  0  0  0  0  0  0
  147.7518  161.5188  130.4753 H   0  0  0  0  0  0  0  0  0  0  0  0
  148.7466  161.2267  131.9482 H   0  0  0  0  0  0  0  0  0  0  0  0
  148.8393  158.7147  130.4924 H   0  0  0  0  0  0  0  0  0  0  0  0
  150.6032  159.4964  129.0292 H   0  0  0  0  0  0  0  0  0  0  0  0
  150.1730  161.3010  129.4632 H   0  0  0  0  0  0  0  0  0  0  0  0
  145.9296  157.4450  132.8870 H   0  0  0  0  0  0  0  0  0  0  0  0
  1  2  2  0
  2  3  1  0
  3  4  1  0
  4  5  1  0
  5  6  2  0
  5  7  1  0
  7  8  1  0
  8  9  2  0
  9 10  1  0
 10 11  2  0
 11 12  1  0
 12 13  2  0
 13 14  1  0
 14 15  1  0
 14 16  2  0
 13 17  1  0
 17 18  1  0
 18 19  2  0
 18 20  1  0
 20 21  1  0
 21 22  1  0
 22 23  2  0
 17 24  1  0
 24 25  2  0
 25  8  1  0
 24 11  1  0
  1 26  1  0
  1 27  1  0
  2 28  1  0
  3 29  1  0
  3 30  1  0
  7 31  1  0
  7 32  1  0
  9 33  1  0
 10 34  1  0
 12 35  1  0
 15 36  1  0
 21 37  1  0
 21 38  1  0
 22 39  1  0
 23 40  1  0
 23 41  1  0
 25 42  1  0
M  CHG  1  15  -1
M  END
>  <UniqueID>  (84) 
84

>  <SMILES>  (84) 
C=CCOC(=O)Cc1ccc2cc(C([NH-])=O)n(C(=O)OCC=C)c2c1

>  <Energy>  (84) 
70.22625359262547

>  <Genealogy>  (84) 
C=CCOC(=O)Cc1ccc2cc(C([NH-])=O)n(C(=O)OCC=C)c2c1 (protonated)
C=CCOC(=O)Cc1ccc2cc(C([NH-])=O)n(C(=O)OCC=C)c2c1 (3D coordinates assigned)
C=CCOC(=O)Cc1ccc2cc(C([NH-])=O)n(C(=O)OCC=C)c2c1 (optimized conformer: 70.22625359262547 kcal/mol)

>  <smiles>  (84) 
C=CCOC(=O)Cc1ccc2cc(C(N)=O)n(C(=O)OCC=C)c2c1

>  <score_type>  (84) 
oracle

>  <origin>  (84) 
adg

>  <m_score__min__energy>  (84) 
-7.0999999999999996

>  <m_primary>  (84) 
energy

$$$$
84:0
     RDKit          3D

 35 37  0  0  0  0  0  0  0  0999 V2000
  138.7820  158.1050  134.8520 N   0  0  0  0  0  0  0  0  0  0  0  0
  140.0050  158.0190  135.5800 C   0  0  0  0  0  0  0  0  0  0  0  0
  140.0030  157.5010  136.7280 O   0  0  0  0  0  0  0  0  0  0  0  0
  141.2780  158.4760  134.9860 C   0  0  0  0  0  0  0  0  0  0  0  0
  141.5670  159.8160  134.7380 C   0  0  0  0  0  0  0  0  0  0  0  0
  142.8640  159.8300  134.2760 C   0  0  0  0  0  0  0  0  0  0  0  0
  143.6550  160.8980  133.8680 C   0  0  0  0  0  0  0  0  0  0  0  0
  144.9530  160.6190  133.4080 C   0  0  0  0  0  0  0  0  0  0  0  0
  145.4330  159.2840  133.3540 C   0  0  0  0  0  0  0  0  0  0  0  0
  146.8020  159.0010  132.8530 C   0  0  0  0  0  0  0  0  0  0  0  0
  147.3960  157.7440  133.0690 C   0  0  0  0  0  0  0  0  0  0  0  0
  148.6860  157.4810  132.6030 C   0  0  0  0  0  0  0  0  0  0  0  0
  149.3970  158.4640  131.9130 C   0  0  0  0  0  0  0  0  0  0  0  0
  148.8170  159.7180  131.6720 C   0  0  0  0  0  0  0  0  0  0  0  0
  149.5990  160.7900  130.9650 C   0  0  0  0  0  0  0  0  0  0  0  0
  149.2400  160.8350  129.6110 O   0  0  0  0  0  0  0  0  0  0  0  0
  147.5260  159.9870  132.1560 C   0  0  0  0  0  0  0  0  0  0  0  0
  144.5940  158.2260  133.7780 C   0  0  0  0  0  0  0  0  0  0  0  0
  143.3140  158.5360  134.2510 C   0  0  0  0  0  0  0  0  0  0  0  0
  142.3510  157.6910  134.6820 N   0  0  0  0  0  0  0  0  0  0  0  0
  142.4310  156.2570  134.7150 C   0  0  0  0  0  0  0  0  0  0  0  0
  141.6310  155.5600  134.0380 O   0  0  0  0  0  0  0  0  0  0  0  0
  143.4090  155.6250  135.4750 O   0  0  0  0  0  0  0  0  0  0  0  0
  137.9620  158.6220  135.2390 H   0  0  0  0  0  0  0  0  0  0  0  0
  140.9006  160.6794  134.8809 H   0  0  0  0  0  0  0  0  0  0  0  0
  143.2762  161.9301  133.9042 H   0  0  0  0  0  0  0  0  0  0  0  0
  145.6048  161.4445  133.0860 H   0  0  0  0  0  0  0  0  0  0  0  0
  146.8404  156.9629  133.6087 H   0  0  0  0  0  0  0  0  0  0  0  0
  149.1430  156.4963  132.7803 H   0  0  0  0  0  0  0  0  0  0  0  0
  150.4164  158.2544  131.5568 H   0  0  0  0  0  0  0  0  0  0  0  0
  149.3850  161.7633  131.4306 H   0  0  0  0  0  0  0  0  0  0  0  0
  150.6726  160.5644  131.0453 H   0  0  0  0  0  0  0  0  0  0  0  0
  148.3360  161.2440  129.5710 H   0  0  0  0  0  0  0  0  0  0  0  0
  147.0766  160.9770  131.9889 H   0  0  0  0  0  0  0  0  0  0  0  0
  144.9405  157.1828  133.7366 H   0  0  0  0  0  0  0  0  0  0  0  0
  1  2  1  0
  2  3  2  0
  2  4  1  0
  4  5  2  0
  5  6  1  0
  6  7  2  0
  7  8  1  0
  8  9  2  0
  9 10  1  0
 10 11  2  0
 11 12  1  0
 12 13  2  0
 13 14  1  0
 14 15  1  0
 15 16  1  0
 14 17  2  0
  9 18  1  0
 18 19  2  0
 19 20  1  0
 20 21  1  0
 21 22  2  0
 21 23  1  0
 20  4  1  0
 19  6  1  0
 17 10  1  0
  1 24  1  0
  5 25  1  0
  7 26  1  0
  8 27  1  0
 11 28  1  0
 12 29  1  0
 13 30  1  0
 15 31  1  0
 15 32  1  0
 16 33  1  0
 17 34  1  0
 18 35  1  0
M  CHG  2   1  -1  23  -1
M  END
>  <UniqueID>  (85) 
85

>  <SMILES>  (85) 
[NH-]C(=O)c1cc2ccc(-c3cccc(CO)c3)cc2n1C(=O)[O-]

>  <Energy>  (85) 
82.26362279326297

>  <Genealogy>  (85) 
[NH-]C(=O)c1cc2ccc(-c3cccc(CO)c3)cc2n1C(=O)[O-] (protonated)
[NH-]C(=O)c1cc2ccc(-c3cccc(CO)c3)cc2n1C(=O)[O-] (3D coordinates assigned)
[NH-]C(=O)c1cc2ccc(-c3cccc(CO)c3)cc2n1C(=O)[O-] (optimized conformer: 82.26362279326297 kcal/mol)

>  <smiles>  (85) 
NC(=O)c1cc2ccc(-c3cccc(CO)c3)cc2n1C(=O)O

>  <score_type>  (85) 
oracle

>  <origin>  (85) 
adg

>  <m_score__min__energy>  (85) 
-8.1099999999999994

>  <m_primary>  (85) 
energy

$$$$
85:0
     RDKit          3D

 49 51  0  0  0  0  0  0  0  0999 V2000
  148.8780  160.0740  131.5810 C   0  0  0  0  0  0  0  0  0  0  0  0
  148.8590  158.7380  132.0690 O   0  0  0  0  0  0  0  0  0  0  0  0
  148.3660  158.4040  133.3340 C   0  0  0  0  0  0  0  0  0  0  0  0
  148.8150  158.9870  134.3620 O   0  0  0  0  0  0  0  0  0  0  0  0
  147.2690  157.3650  133.4860 C   0  0  0  0  0  0  0  0  0  0  0  0
  147.4520  156.3420  132.3410 C   0  0  0  0  0  0  0  0  0  0  0  0
  147.4120  156.6160  134.8290 C   0  0  0  0  0  0  0  0  0  0  0  0
  145.8960  158.0590  133.4690 C   0  0  0  0  0  0  0  0  0  0  0  0
  145.8380  159.4780  133.3390 C   0  0  0  0  0  0  0  0  0  0  0  0
  144.6130  160.1610  133.3450 C   0  0  0  0  0  0  0  0  0  0  0  0
  143.4520  159.4160  133.5060 C   0  0  0  0  0  0  0  0  0  0  0  0
  142.1370  159.8220  133.5420 C   0  0  0  0  0  0  0  0  0  0  0  0
  141.3960  158.6600  133.7370 C   0  0  0  0  0  0  0  0  0  0  0  0
  139.9310  158.6480  133.9340 C   0  0  0  0  0  0  0  0  0  0  0  0
  139.3710  157.9420  135.0390 N   0  0  0  0  0  0  0  0  0  0  0  0
  139.1660  159.2250  133.1190 O   0  0  0  0  0  0  0  0  0  0  0  0
  142.2210  157.5770  133.8090 N   0  0  0  0  0  0  0  0  0  0  0  0
  141.8530  156.1990  133.9680 C   0  0  0  0  0  0  0  0  0  0  0  0
  140.7550  155.7820  133.5070 O   0  0  0  0  0  0  0  0  0  0  0  0
  142.7210  155.3220  134.6270 O   0  0  0  0  0  0  0  0  0  0  0  0
  142.9290  155.3390  136.0370 C   0  0  0  0  0  0  0  0  0  0  0  0
  142.0610  156.3730  136.6880 C   0  0  0  0  0  0  0  0  0  0  0  0
  142.1230  157.6600  136.4410 O   0  0  0  0  0  0  0  0  0  0  0  0
  141.2080  158.2160  137.2010 C   0  0  0  0  0  0  0  0  0  0  0  0
  140.9830  159.4550  137.2300 O   0  0  0  0  0  0  0  0  0  0  0  0
  140.5560  157.3410  137.9310 O   0  0  0  0  0  0  0  0  0  0  0  0
  141.0640  156.1700  137.6270 C   0  0  0  0  0  0  0  0  0  0  0  0
  140.6420  154.8770  138.2390 C   0  0  0  0  0  0  0  0  0  0  0  0
  143.4760  158.0580  133.6700 C   0  0  0  0  0  0  0  0  0  0  0  0
  144.6790  157.3450  133.6510 C   0  0  0  0  0  0  0  0  0  0  0  0
  148.8880  160.7741  132.4294 H   0  0  0  0  0  0  0  0  0  0  0  0
  149.7784  160.2277  130.9681 H   0  0  0  0  0  0  0  0  0  0  0  0
  147.9823  160.2533  130.9681 H   0  0  0  0  0  0  0  0  0  0  0  0
  147.6306  155.3435  132.7665 H   0  0  0  0  0  0  0  0  0  0  0  0
  146.5437  156.3192  131.7210 H   0  0  0  0  0  0  0  0  0  0  0  0
  148.3119  156.6355  131.7210 H   0  0  0  0  0  0  0  0  0  0  0  0
  147.2768  157.3240  135.6599 H   0  0  0  0  0  0  0  0  0  0  0  0
  146.6483  155.8268  134.8918 H   0  0  0  0  0  0  0  0  0  0  0  0
  148.4127  156.1637  134.8918 H   0  0  0  0  0  0  0  0  0  0  0  0
  146.7726  160.0482  133.2319 H   0  0  0  0  0  0  0  0  0  0  0  0
  144.5730  161.2538  133.2258 H   0  0  0  0  0  0  0  0  0  0  0  0
  141.7532  160.8477  133.4386 H   0  0  0  0  0  0  0  0  0  0  0  0
  139.9810  157.5510  135.7910 H   0  0  0  0  0  0  0  0  0  0  0  0
  142.6837  154.3495  136.4502 H   0  0  0  0  0  0  0  0  0  0  0  0
  143.9824  155.5852  136.2362 H   0  0  0  0  0  0  0  0  0  0  0  0
  140.6703  154.9637  139.3352 H   0  0  0  0  0  0  0  0  0  0  0  0
  139.6184  154.6355  137.9166 H   0  0  0  0  0  0  0  0  0  0  0  0
  141.3261  154.0782  137.9166 H   0  0  0  0  0  0  0  0  0  0  0  0
  144.6841  156.2520  133.7745 H   0  0  0  0  0  0  0  0  0  0  0  0
  1  2  1  0
  2  3  1  0
  3  4  2  0
  3  5  1  0
  5  6  1  0
  5  7  1  0
  5  8  1  0
  8  9  2  0
  9 10  1  0
 10 11  2  0
 11 12  1  0
 12 13  2  0
 13 14  1  0
 14 15  1  0
 14 16  2  0
 13 17  1  0
 17 18  1  0
 18 19  2  0
 18 20  1  0
 20 21  1  0
 21 22  1  0
 22 23  1  0
 23 24  1  0
 24 25  2  0
 24 26  1  0
 26 27  1  0
 27 28  1  0
 17 29  1  0
 29 30  2  0
 30  8  1  0
 29 11  1  0
 27 22  2  0
  1 31  1  0
  1 32  1  0
  1 33  1  0
  6 34  1  0
  6 35  1  0
  6 36  1  0
  7 37  1  0
  7 38  1  0
  7 39  1  0
  9 40  1  0
 10 41  1  0
 12 42  1  0
 15 43  1  0
 21 44  1  0
 21 45  1  0
 28 46  1  0
 28 47  1  0
 28 48  1  0
 30 49  1  0
M  CHG  1  15  -1
M  END
>  <UniqueID>  (86) 
86

>  <SMILES>  (86) 
COC(=O)C(C)(C)c1ccc2cc(C([NH-])=O)n(C(=O)OCc3oc(=O)oc3C)c2c1

>  <Energy>  (86) 
119.04645656487628

>  <Genealogy>  (86) 
COC(=O)C(C)(C)c1ccc2cc(C([NH-])=O)n(C(=O)OCc3oc(=O)oc3C)c2c1 (protonated)
COC(=O)C(C)(C)c1ccc2cc(C([NH-])=O)n(C(=O)OCc3oc(=O)oc3C)c2c1 (3D coordinates assigned)
COC(=O)C(C)(C)c1ccc2cc(C([NH-])=O)n(C(=O)OCc3oc(=O)oc3C)c2c1 (optimized conformer: 119.04645656487628 kcal/mol)

>  <smiles>  (86) 
COC(=O)C(C)(C)c1ccc2cc(C(N)=O)n(C(=O)OCc3oc(=O)oc3C)c2c1

>  <score_type>  (86) 
oracle

>  <origin>  (86) 
adg

>  <m_score__min__energy>  (86) 
-7.2999999999999998

>  <m_primary>  (86) 
energy

$$$$
86:0
     RDKit          3D

 46 49  0  0  0  0  0  0  0  0999 V2000
  147.7600  160.4940  132.6050 C   0  0  0  0  0  0  0  0  0  0  0  0
  148.5530  159.2210  132.9320 C   0  0  2  0  0  0  0  0  0  0  0  0
  149.3240  158.7300  131.7380 C   0  0  0  0  0  0  0  0  0  0  0  0
  150.2340  157.8680  131.8670 O   0  0  0  0  0  0  0  0  0  0  0  0
  149.0610  159.2610  130.4810 O   0  0  0  0  0  0  0  0  0  0  0  0
  147.6590  158.1240  133.4750 C   0  0  0  0  0  0  0  0  0  0  0  0
  148.2370  156.9850  134.0960 C   0  0  0  0  0  0  0  0  0  0  0  0
  147.4310  155.9370  134.5710 C   0  0  0  0  0  0  0  0  0  0  0  0
  146.0530  156.0530  134.4200 C   0  0  0  0  0  0  0  0  0  0  0  0
  145.0460  155.1750  134.7540 C   0  0  0  0  0  0  0  0  0  0  0  0
  143.8650  155.7960  134.3520 C   0  0  0  0  0  0  0  0  0  0  0  0
  142.5200  155.2270  134.5790 C   0  0  0  0  0  0  0  0  0  0  0  0
  141.4110  156.0950  134.8020 N   0  0  0  0  0  0  0  0  0  0  0  0
  142.3340  153.9820  134.5500 O   0  0  0  0  0  0  0  0  0  0  0  0
  144.1340  157.0090  133.7930 N   0  0  0  0  0  0  0  0  0  0  0  0
  143.2110  157.9340  133.2010 C   0  0  0  0  0  0  0  0  0  0  0  0
  142.1770  157.4990  132.6250 O   0  0  0  0  0  0  0  0  0  0  0  0
  143.4460  159.3100  133.2960 O   0  0  0  0  0  0  0  0  0  0  0  0
  142.4880  160.2310  133.8130 C   0  0  0  0  0  0  0  0  0  0  0  0
  141.4660  159.4920  134.6260 C   0  0  0  0  0  0  0  0  0  0  0  0
  141.6820  159.0980  135.8600 O   0  0  0  0  0  0  0  0  0  0  0  0
  140.6300  158.3950  136.2080 C   0  0  0  0  0  0  0  0  0  0  0  0
  140.4940  157.8550  137.3380 O   0  0  0  0  0  0  0  0  0  0  0  0
  139.7410  158.3090  135.2490 O   0  0  0  0  0  0  0  0  0  0  0  0
  140.2250  158.9950  134.2400 C   0  0  0  0  0  0  0  0  0  0  0  0
  139.5250  159.1370  132.9550 C   0  0  0  0  0  0  0  0  0  0  0  0
  138.8830  158.1380  132.2310 C   0  0  0  0  0  0  0  0  0  0  0  0
  138.3540  158.5910  131.0160 C   0  0  0  0  0  0  0  0  0  0  0  0
  138.5920  159.9370  130.7700 C   0  0  0  0  0  0  0  0  0  0  0  0
  139.4670  160.5600  132.0620 S   0  0  0  0  0  0  0  0  0  0  0  0
  145.4750  157.1510  133.8410 C   0  0  0  0  0  0  0  0  0  0  0  0
  146.2520  158.1990  133.3380 C   0  0  0  0  0  0  0  0  0  0  0  0
  147.4538  160.9856  133.5402 H   0  0  0  0  0  0  0  0  0  0  0  0
  148.3913  161.1792  132.0202 H   0  0  0  0  0  0  0  0  0  0  0  0
  146.8666  160.2294  132.0202 H   0  0  0  0  0  0  0  0  0  0  0  0
  149.2732  159.4890  133.7191 H   0  0  0  0  0  0  0  0  0  0  0  0
  149.3297  156.9226  134.2064 H   0  0  0  0  0  0  0  0  0  0  0  0
  147.8761  155.0514  135.0480 H   0  0  0  0  0  0  0  0  0  0  0  0
  145.1515  154.1919  135.2360 H   0  0  0  0  0  0  0  0  0  0  0  0
  141.5120  157.1290  134.7050 H   0  0  0  0  0  0  0  0  0  0  0  0
  142.9971  160.9700  134.4492 H   0  0  0  0  0  0  0  0  0  0  0  0
  141.9885  160.7449  132.9785 H   0  0  0  0  0  0  0  0  0  0  0  0
  138.7992  157.0974  132.5776 H   0  0  0  0  0  0  0  0  0  0  0  0
  137.8015  157.9413  130.3213 H   0  0  0  0  0  0  0  0  0  0  0  0
  138.2642  160.4983  129.8826 H   0  0  0  0  0  0  0  0  0  0  0  0
  145.7804  159.0628  132.8466 H   0  0  0  0  0  0  0  0  0  0  0  0
  1  2  1  0
  2  3  1  0
  3  4  2  0
  3  5  1  0
  2  6  1  0
  6  7  2  0
  7  8  1  0
  8  9  2  0
  9 10  1  0
 10 11  2  0
 11 12  1  0
 12 13  1  0
 12 14  2  0
 11 15  1  0
 15 16  1  0
 16 17  2  0
 16 18  1  0
 18 19  1  0
 19 20  1  0
 20 21  1  0
 21 22  1  0
 22 23  2  0
 22 24  1  0
 24 25  1  0
 25 26  1  0
 26 27  2  0
 27 28  1  0
 28 29  2  0
 29 30  1  0
 15 31  1  0
 31 32  2  0
 32  6  1  0
 31  9  1  0
 25 20  2  0
 30 26  1  0
  1 33  1  0
  1 34  1  0
  1 35  1  0
  2 36  1  1
  7 37  1  0
  8 38  1  0
 10 39  1  0
 13 40  1  0
 19 41  1  0
 19 42  1  0
 27 43  1  0
 28 44  1  0
 29 45  1  0
 32 46  1  0
M  CHG  2   5  -1  13  -1
M  END
>  <UniqueID>  (87) 
87

>  <SMILES>  (87) 
C[C@H](C(=O)[O-])c1ccc2cc(C([NH-])=O)n(C(=O)OCc3oc(=O)oc3-c3cccs3)c2c1

>  <Energy>  (87) 
146.94797894493445

>  <Genealogy>  (87) 
CC(C(=O)[O-])c1ccc2cc(C([NH-])=O)n(C(=O)OCc3oc(=O)oc3-c3cccs3)c2c1 (protonated)
C[C@H](C(=O)[O-])c1ccc2cc(C([NH-])=O)n(C(=O)OCc3oc(=O)oc3-c3cccs3)c2c1 (chirality)
C[C@H](C(=O)[O-])c1ccc2cc(C([NH-])=O)n(C(=O)OCc3oc(=O)oc3-c3cccs3)c2c1 (3D coordinates assigned)
C[C@H](C(=O)[O-])c1ccc2cc(C([NH-])=O)n(C(=O)OCc3oc(=O)oc3-c3cccs3)c2c1 (optimized conformer: 146.94797894493445 kcal/mol)

>  <smiles>  (87) 
CC(C(=O)O)c1ccc2cc(C(N)=O)n(C(=O)OCc3oc(=O)oc3-c3cccs3)c2c1

>  <score_type>  (87) 
oracle

>  <origin>  (87) 
adg

>  <m_score__min__energy>  (87) 
-8.7899999999999991

>  <m_primary>  (87) 
energy

$$$$
87:0
     RDKit          3D

 47 49  0  0  0  0  0  0  0  0999 V2000
  149.1850  159.7380  131.0960 C   0  0  0  0  0  0  0  0  0  0  0  0
  148.6440  160.0300  132.4960 C   0  0  0  0  0  0  0  0  0  0  0  0
  147.6310  158.9960  133.0450 C   0  0  0  0  0  0  0  0  0  0  0  0
  146.2270  159.4790  133.2950 C   0  0  0  0  0  0  0  0  0  0  0  0
  146.0040  160.8080  133.7320 C   0  0  0  0  0  0  0  0  0  0  0  0
  144.7040  161.2590  134.0190 C   0  0  0  0  0  0  0  0  0  0  0  0
  143.6530  160.3580  133.8670 C   0  0  0  0  0  0  0  0  0  0  0  0
  142.3070  160.5190  134.1010 C   0  0  0  0  0  0  0  0  0  0  0  0
  141.7280  159.2890  133.7980 C   0  0  0  0  0  0  0  0  0  0  0  0
  140.2710  159.0460  133.8280 C   0  0  0  0  0  0  0  0  0  0  0  0
  139.6990  158.1310  134.7600 N   0  0  0  0  0  0  0  0  0  0  0  0
  139.5260  159.6160  132.9880 O   0  0  0  0  0  0  0  0  0  0  0  0
  142.6810  158.3980  133.4020 N   0  0  0  0  0  0  0  0  0  0  0  0
  142.5170  157.0100  133.0760 C   0  0  0  0  0  0  0  0  0  0  0  0
  141.4210  156.4360  133.3180 O   0  0  0  0  0  0  0  0  0  0  0  0
  143.5940  156.3040  132.5190 O   0  0  0  0  0  0  0  0  0  0  0  0
  144.2480  155.1600  133.0860 C   0  0  0  0  0  0  0  0  0  0  0  0
  145.5280  154.9230  132.2710 C   0  0  0  0  0  0  0  0  0  0  0  0
  144.6360  155.4300  134.5520 C   0  0  0  0  0  0  0  0  0  0  0  0
  143.3490  153.9140  132.9800 C   0  0  0  0  0  0  0  0  0  0  0  0
  143.8530  159.0690  133.4460 C   0  0  0  0  0  0  0  0  0  0  0  0
  145.1390  158.5880  133.1730 C   0  0  0  0  0  0  0  0  0  0  0  0
  147.8040  157.4890  132.8230 C   0  0  0  0  0  0  0  0  0  0  0  0
  148.1860  158.1040  134.1580 C   0  0  0  0  0  0  0  0  0  0  0  0
  150.1504  159.2170  131.1772 H   0  0  0  0  0  0  0  0  0  0  0  0
  148.4703  159.1031  130.5518 H   0  0  0  0  0  0  0  0  0  0  0  0
  149.3235  160.6839  130.5518 H   0  0  0  0  0  0  0  0  0  0  0  0
  149.4978  160.0694  133.1884 H   0  0  0  0  0  0  0  0  0  0  0  0
  148.0950  160.9799  132.4169 H   0  0  0  0  0  0  0  0  0  0  0  0
  146.8564  161.4936  133.8478 H   0  0  0  0  0  0  0  0  0  0  0  0
  144.5225  162.2912  134.3532 H   0  0  0  0  0  0  0  0  0  0  0  0
  141.7960  161.4272  134.4530 H   0  0  0  0  0  0  0  0  0  0  0  0
  140.0040  157.1340  134.7900 H   0  0  0  0  0  0  0  0  0  0  0  0
  146.3747  154.7662  132.9554 H   0  0  0  0  0  0  0  0  0  0  0  0
  145.3995  154.0334  131.6369 H   0  0  0  0  0  0  0  0  0  0  0  0
  145.7265  155.7997  131.6369 H   0  0  0  0  0  0  0  0  0  0  0  0
  143.9182  154.9305  135.2192 H   0  0  0  0  0  0  0  0  0  0  0  0
  145.6465  155.0389  134.7418 H   0  0  0  0  0  0  0  0  0  0  0  0
  144.6205  156.5134  134.7418 H   0  0  0  0  0  0  0  0  0  0  0  0
  143.0932  153.5595  133.9894 H   0  0  0  0  0  0  0  0  0  0  0  0
  142.4275  154.1718  132.4374 H   0  0  0  0  0  0  0  0  0  0  0  0
  143.8842  153.1208  132.4374 H   0  0  0  0  0  0  0  0  0  0  0  0
  145.2976  157.5422  132.8711 H   0  0  0  0  0  0  0  0  0  0  0  0
  146.9194  156.8392  132.7504 H   0  0  0  0  0  0  0  0  0  0  0  0
  148.3221  156.8683  132.0772 H   0  0  0  0  0  0  0  0  0  0  0  0
  147.5779  157.8983  135.0513 H   0  0  0  0  0  0  0  0  0  0  0  0
  149.0954  158.1111  134.7769 H   0  0  0  0  0  0  0  0  0  0  0  0
  1  2  1  0
  2  3  1  0
  3  4  1  0
  4  5  2  0
  5  6  1  0
  6  7  2  0
  7  8  1  0
  8  9  2  0
  9 10  1  0
 10 11  1  0
 10 12  2  0
  9 13  1  0
 13 14  1  0
 14 15  2  0
 14 16  1  0
 16 17  1  0
 17 18  1  0
 17 19  1  0
 17 20  1  0
 13 21  1  0
 21 22  2  0
  3 23  1  0
 23 24  1  0
 24  3  1  0
 22  4  1  0
 21  7  1  0
  1 25  1  0
  1 26  1  0
  1 27  1  0
  2 28  1  0
  2 29  1  0
  5 30  1  0
  6 31  1  0
  8 32  1  0
 11 33  1  0
 18 34  1  0
 18 35  1  0
 18 36  1  0
 19 37  1  0
 19 38  1  0
 19 39  1  0
 20 40  1  0
 20 41  1  0
 20 42  1  0
 22 43  1  0
 23 44  1  0
 23 45  1  0
 24 46  1  0
 24 47  1  0
M  CHG  1  11  -1
M  END
>  <UniqueID>  (88) 
88

>  <SMILES>  (88) 
CCC1(c2ccc3cc(C([NH-])=O)n(C(=O)OC(C)(C)C)c3c2)CC1

>  <Energy>  (88) 
348.16321453214346

>  <Genealogy>  (88) 
CCC1(c2ccc3cc(C([NH-])=O)n(C(=O)OC(C)(C)C)c3c2)CC1 (protonated)
CCC1(c2ccc3cc(C([NH-])=O)n(C(=O)OC(C)(C)C)c3c2)CC1 (3D coordinates assigned)
CCC1(c2ccc3cc(C([NH-])=O)n(C(=O)OC(C)(C)C)c3c2)CC1 (nonaromatic ring conformer: 348.16321453214346 kcal/mol)

>  <smiles>  (88) 
CCC1(c2ccc3cc(C(N)=O)n(C(=O)OC(C)(C)C)c3c2)CC1

>  <score_type>  (88) 
oracle

>  <origin>  (88) 
adg

>  <m_score__min__energy>  (88) 
-7.5099999999999998

>  <m_primary>  (88) 
energy

$$$$
88:0
     RDKit          3D

 48 50  0  0  0  0  0  0  0  0999 V2000
  146.3740  155.1690  134.7740 C   0  0  0  0  0  0  0  0  0  0  0  0
  147.5630  155.9420  134.2050 C   0  0  0  0  0  0  0  0  0  0  0  0
  147.1940  156.6930  132.9560 C   0  0  0  0  0  0  0  0  0  0  0  0
  147.1370  156.0820  131.8540 O   0  0  0  0  0  0  0  0  0  0  0  0
  146.8230  158.0790  133.0180 N   0  0  0  0  0  0  0  0  0  0  0  0
  147.6120  159.1600  132.7580 C   0  0  0  0  0  0  0  0  0  0  0  0
  149.0030  159.1150  132.2600 C   0  0  0  0  0  0  0  0  0  0  0  0
  149.5980  157.8640  131.9230 N   0  0  0  0  0  0  0  0  0  0  0  0
  149.6810  160.1700  132.1490 O   0  0  0  0  0  0  0  0  0  0  0  0
  146.9030  160.3420  132.9710 C   0  0  0  0  0  0  0  0  0  0  0  0
  145.6480  159.9470  133.3740 C   0  0  0  0  0  0  0  0  0  0  0  0
  144.5380  160.7100  133.7240 C   0  0  0  0  0  0  0  0  0  0  0  0
  143.3720  160.0330  134.1210 C   0  0  0  0  0  0  0  0  0  0  0  0
  143.3410  158.6170  134.1740 C   0  0  0  0  0  0  0  0  0  0  0  0
  142.1390  157.9320  134.5700 N   0  0  0  0  0  0  0  0  0  0  0  0
  141.8240  156.6060  134.0300 C   0  0  0  0  0  0  0  0  0  0  0  0
  140.4980  156.6780  133.2770 C   0  0  0  0  0  0  0  0  0  0  0  0
  139.3440  157.1890  134.1870 C   0  0  0  0  0  0  0  0  0  0  0  0
  138.3580  158.0030  133.4370 N   0  0  0  0  0  0  0  0  0  0  0  0
  138.9310  158.8510  132.3830 C   0  0  0  0  0  0  0  0  0  0  0  0
  139.8220  157.8640  135.5080 C   0  0  0  0  0  0  0  0  0  0  0  0
  141.1380  158.6520  135.3720 C   0  0  0  0  0  0  0  0  0  0  0  0
  144.4890  157.8790  133.8080 C   0  0  0  0  0  0  0  0  0  0  0  0
  145.6270  158.5780  133.3980 C   0  0  0  0  0  0  0  0  0  0  0  0
  146.4125  155.1940  135.8730 H   0  0  0  0  0  0  0  0  0  0  0  0
  145.4373  155.6313  134.4293 H   0  0  0  0  0  0  0  0  0  0  0  0
  146.4163  154.1253  134.4293 H   0  0  0  0  0  0  0  0  0  0  0  0
  147.9160  156.6592  134.9606 H   0  0  0  0  0  0  0  0  0  0  0  0
  148.3507  155.2182  133.9488 H   0  0  0  0  0  0  0  0  0  0  0  0
  149.0350  157.1030  131.4840 H   0  0  0  0  0  0  0  0  0  0  0  0
  147.2693  161.3714  132.8438 H   0  0  0  0  0  0  0  0  0  0  0  0
  144.5721  161.8090  133.6910 H   0  0  0  0  0  0  0  0  0  0  0  0
  142.4746  160.6079  134.3933 H   0  0  0  0  0  0  0  0  0  0  0  0
  142.6218  156.2888  133.3423 H   0  0  0  0  0  0  0  0  0  0  0  0
  141.7456  155.8791  134.8519 H   0  0  0  0  0  0  0  0  0  0  0  0
  140.6095  157.3639  132.4243 H   0  0  0  0  0  0  0  0  0  0  0  0
  140.2421  155.6635  132.9373 H   0  0  0  0  0  0  0  0  0  0  0  0
  138.8144  156.2854  134.5232 H   0  0  0  0  0  0  0  0  0  0  0  0
  137.6480  157.3650  133.0040 H   0  0  0  0  0  0  0  0  0  0  0  0
  137.8460  158.6200  134.1100 H   0  0  0  0  0  0  0  0  0  0  0  0
  139.4906  159.6791  132.8424 H   0  0  0  0  0  0  0  0  0  0  0  0
  139.6099  158.2515  131.7587 H   0  0  0  0  0  0  0  0  0  0  0  0
  138.1215  159.2572  131.7587 H   0  0  0  0  0  0  0  0  0  0  0  0
  139.0375  158.5576  135.8448 H   0  0  0  0  0  0  0  0  0  0  0  0
  140.0109  157.0537  136.2275 H   0  0  0  0  0  0  0  0  0  0  0  0
  140.9244  159.6166  134.8884 H   0  0  0  0  0  0  0  0  0  0  0  0
  141.5525  158.7919  136.3813 H   0  0  0  0  0  0  0  0  0  0  0  0
  144.4867  156.7796  133.8450 H   0  0  0  0  0  0  0  0  0  0  0  0
  1  2  1  0
  2  3  1  0
  3  4  2  0
  3  5  1  0
  5  6  1  0
  6  7  1  0
  7  8  1  0
  7  9  2  0
  6 10  2  0
 10 11  1  0
 11 12  2  0
 12 13  1  0
 13 14  2  0
 14 15  1  0
 15 16  1  0
 16 17  1  0
 17 18  1  0
 18 19  1  0
 19 20  1  0
 18 21  1  0
 21 22  1  0
 14 23  1  0
 23 24  2  0
 24  5  1  0
 24 11  1  0
 22 15  1  0
  1 25  1  0
  1 26  1  0
  1 27  1  0
  2 28  1  0
  2 29  1  0
  8 30  1  0
 10 31  1  0
 12 32  1  0
 13 33  1  0
 16 34  1  0
 16 35  1  0
 17 36  1  0
 17 37  1  0
 18 38  1  0
 19 39  1  0
 19 40  1  0
 20 41  1  0
 20 42  1  0
 20 43  1  0
 21 44  1  0
 21 45  1  0
 22 46  1  0
 22 47  1  0
 23 48  1  0
M  CHG  2   8  -1  19   1
M  END
>  <UniqueID>  (89) 
89

>  <SMILES>  (89) 
CCC(=O)n1c(C([NH-])=O)cc2ccc(N3CCC([NH2+]C)CC3)cc21

>  <Energy>  (89) 
95.30200137173236

>  <Genealogy>  (89) 
CCC(=O)n1c(C([NH-])=O)cc2ccc(N3CCC([NH2+]C)CC3)cc21 (protonated)
CCC(=O)n1c(C([NH-])=O)cc2ccc(N3CCC([NH2+]C)CC3)cc21 (3D coordinates assigned)
CCC(=O)n1c(C([NH-])=O)cc2ccc(N3CCC([NH2+]C)CC3)cc21 (nonaromatic ring conformer: 95.30200137173236 kcal/mol)

>  <smiles>  (89) 
CCC(=O)n1c(C(N)=O)cc2ccc(N3CCC(NC)CC3)cc21

>  <score_type>  (89) 
oracle

>  <origin>  (89) 
adg

>  <m_score__min__energy>  (89) 
-7.29

>  <m_primary>  (89) 
energy

$$$$
89:0
     RDKit          3D

 66 69  0  0  0  0  0  0  0  0999 V2000
  149.5420  150.5150  130.9490 N   0  0  0  0  0  0  0  0  0  0  0  0
  149.8780  151.3290  132.0730 C   0  0  0  0  0  0  0  0  0  0  0  0
  150.8530  151.0000  132.8000 O   0  0  0  0  0  0  0  0  0  0  0  0
  149.0560  152.5170  132.3900 C   0  0  0  0  0  0  0  0  0  0  0  0
  149.6060  153.7550  132.7070 C   0  0  0  0  0  0  0  0  0  0  0  0
  148.5370  154.6070  132.8430 C   0  0  0  0  0  0  0  0  0  0  0  0
  148.5110  155.9560  133.1690 C   0  0  0  0  0  0  0  0  0  0  0  0
  147.2620  156.5930  133.2470 C   0  0  0  0  0  0  0  0  0  0  0  0
  146.0600  155.8780  132.9930 C   0  0  0  0  0  0  0  0  0  0  0  0
  144.7810  156.5600  133.0110 N   0  0  0  0  0  0  0  0  0  0  0  0
  144.5800  157.7560  133.8360 C   0  0  0  0  0  0  0  0  0  0  0  0
  143.3840  158.5790  133.3400 C   0  0  0  0  0  0  0  0  0  0  0  0
  142.1230  157.7930  133.1930 N   0  0  0  0  0  0  0  0  0  0  0  0
  141.0550  158.2370  134.1480 C   0  0  1  0  0  0  0  0  0  0  0  0
  141.2070  157.4140  135.4610 C   0  0  0  0  0  0  0  0  0  0  0  0
  140.3450  157.9360  136.6110 C   0  0  0  0  0  0  0  0  0  0  0  0
  140.7180  159.3500  136.8970 C   0  0  0  0  0  0  0  0  0  0  0  0
  140.7000  159.7930  138.0750 O   0  0  0  0  0  0  0  0  0  0  0  0
  141.0390  160.2160  135.8140 N   0  0  0  0  0  0  0  0  0  0  0  0
  141.0660  159.7410  134.4640 C   0  0  0  0  0  0  0  0  0  0  0  0
  140.9490  160.5910  133.5420 O   0  0  0  0  0  0  0  0  0  0  0  0
  142.3410  156.3300  133.0960 C   0  0  0  0  0  0  0  0  0  0  0  0
  143.6170  155.9880  132.3260 C   0  0  0  0  0  0  0  0  0  0  0  0
  146.1370  154.4920  132.6940 C   0  0  0  0  0  0  0  0  0  0  0  0
  147.3940  153.8860  132.6120 C   0  0  0  0  0  0  0  0  0  0  0  0
  147.6930  152.5930  132.3400 N   0  0  0  0  0  0  0  0  0  0  0  0
  146.7590  151.5070  132.1790 C   0  0  0  0  0  0  0  0  0  0  0  0
  147.1260  150.3230  132.4180 O   0  0  0  0  0  0  0  0  0  0  0  0
  145.4380  151.7580  131.7910 O   0  0  0  0  0  0  0  0  0  0  0  0
  144.3250  151.4840  132.6410 C   0  0  0  0  0  0  0  0  0  0  0  0
  144.1350  152.6100  133.6610 C   0  0  0  0  0  0  0  0  0  0  0  0
  142.7510  152.5420  134.3250 C   0  0  0  0  0  0  0  0  0  0  0  0
  142.6110  153.4680  135.5460 C   0  0  0  0  0  0  0  0  0  0  0  0
  143.6630  154.5800  135.6120 C   0  0  0  0  0  0  0  0  0  0  0  0
  144.6000  154.3280  136.6540 O   0  0  0  0  0  0  0  0  0  0  0  0
  145.9420  154.1530  136.3920 N   0  0  0  0  0  0  0  0  0  0  0  0
  146.5710  155.0440  135.7880 O   0  0  0  0  0  0  0  0  0  0  0  0
  146.6010  153.0140  136.7980 O   0  0  0  0  0  0  0  0  0  0  0  0
  148.5620  150.1870  130.8010 H   0  0  0  0  0  0  0  0  0  0  0  0
  150.6720  153.9999  132.8240 H   0  0  0  0  0  0  0  0  0  0  0  0
  149.4418  156.5100  133.3607 H   0  0  0  0  0  0  0  0  0  0  0  0
  147.2131  157.6604  133.5083 H   0  0  0  0  0  0  0  0  0  0  0  0
  144.3966  157.4477  134.8758 H   0  0  0  0  0  0  0  0  0  0  0  0
  145.4833  158.3802  133.7695 H   0  0  0  0  0  0  0  0  0  0  0  0
  143.2026  159.3923  134.0581 H   0  0  0  0  0  0  0  0  0  0  0  0
  143.6466  158.9484  132.3377 H   0  0  0  0  0  0  0  0  0  0  0  0
  140.0866  158.0544  133.6593 H   0  0  0  0  0  0  0  0  0  0  0  0
  140.9188  156.3727  135.2546 H   0  0  0  0  0  0  0  0  0  0  0  0
  142.2567  157.5012  135.7779 H   0  0  0  0  0  0  0  0  0  0  0  0
  139.2832  157.8852  136.3280 H   0  0  0  0  0  0  0  0  0  0  0  0
  140.5108  157.3204  137.5074 H   0  0  0  0  0  0  0  0  0  0  0  0
  142.4177  155.9148  134.1117 H   0  0  0  0  0  0  0  0  0  0  0  0
  141.4899  155.8963  132.5505 H   0  0  0  0  0  0  0  0  0  0  0  0
  143.7274  154.8950  132.2698 H   0  0  0  0  0  0  0  0  0  0  0  0
  143.5514  156.4074  131.3112 H   0  0  0  0  0  0  0  0  0  0  0  0
  145.2218  153.9044  132.5295 H   0  0  0  0  0  0  0  0  0  0  0  0
  143.4159  151.3942  132.0283 H   0  0  0  0  0  0  0  0  0  0  0  0
  144.5145  150.5447  133.1813 H   0  0  0  0  0  0  0  0  0  0  0  0
  144.9087  152.5225  134.4380 H   0  0  0  0  0  0  0  0  0  0  0  0
  144.2169  153.5713  133.1325 H   0  0  0  0  0  0  0  0  0  0  0  0
  141.9933  152.8293  133.5812 H   0  0  0  0  0  0  0  0  0  0  0  0
  142.6136  151.5110  134.6828 H   0  0  0  0  0  0  0  0  0  0  0  0
  141.6158  153.9355  135.5126 H   0  0  0  0  0  0  0  0  0  0  0  0
  142.7562  152.8408  136.4379 H   0  0  0  0  0  0  0  0  0  0  0  0
  144.1965  154.6293  134.6513 H   0  0  0  0  0  0  0  0  0  0  0  0
  143.1554  155.5340  135.8173 H   0  0  0  0  0  0  0  0  0  0  0  0
  1  2  1  0
  2  3  2  0
  2  4  1  0
  4  5  2  0
  5  6  1  0
  6  7  2  0
  7  8  1  0
  8  9  2  0
  9 10  1  0
 10 11  1  0
 11 12  1  0
 12 13  1  0
 13 14  1  0
 14 15  1  0
 15 16  1  0
 16 17  1  0
 17 18  2  0
 17 19  1  0
 19 20  1  0
 20 21  2  0
 13 22  1  0
 22 23  1  0
  9 24  1  0
 24 25  2  0
 25 26  1  0
 26 27  1  0
 27 28  2  0
 27 29  1  0
 29 30  1  0
 30 31  1  0
 31 32  1  0
 32 33  1  0
 33 34  1  0
 34 35  1  0
 35 36  1  0
 36 37  2  0
 36 38  1  0
 26  4  1  0
 25  6  1  0
 23 10  1  0
 20 14  1  0
  1 39  1  0
  5 40  1  0
  7 41  1  0
  8 42  1  0
 11 43  1  0
 11 44  1  0
 12 45  1  0
 12 46  1  0
 14 47  1  6
 15 48  1  0
 15 49  1  0
 16 50  1  0
 16 51  1  0
 22 52  1  0
 22 53  1  0
 23 54  1  0
 23 55  1  0
 24 56  1  0
 30 57  1  0
 30 58  1  0
 31 59  1  0
 31 60  1  0
 32 61  1  0
 32 62  1  0
 33 63  1  0
 33 64  1  0
 34 65  1  0
 34 66  1  0
M  CHG  4   1  -1  19  -1  36   1  38  -1
M  END
>  <UniqueID>  (90) 
90

>  <SMILES>  (90) 
[NH-]C(=O)c1cc2ccc(N3CCN([C@H]4CCC(=O)[N-]C4=O)CC3)cc2n1C(=O)OCCCCCO[N+](=O)[O-]

>  <Energy>  (90) 
113.15338110553859

>  <Genealogy>  (90) 
[NH-]C(=O)c1cc2ccc(N3CCN(C4CCC(=O)[N-]C4=O)CC3)cc2n1C(=O)OCCCCCO[N+](=O)[O-] (protonated)
[NH-]C(=O)c1cc2ccc(N3CCN([C@H]4CCC(=O)[N-]C4=O)CC3)cc2n1C(=O)OCCCCCO[N+](=O)[O-] (chirality)
[NH-]C(=O)c1cc2ccc(N3CCN([C@H]4CCC(=O)[N-]C4=O)CC3)cc2n1C(=O)OCCCCCO[N+](=O)[O-] (3D coordinates assigned)
[NH-]C(=O)c1cc2ccc(N3CCN([C@H]4CCC(=O)[N-]C4=O)CC3)cc2n1C(=O)OCCCCCO[N+](=O)[O-] (nonaromatic ring conformer: 113.15338110553859 kcal/mol)

>  <smiles>  (90) 
NC(=O)c1cc2ccc(N3CCN(C4CCC(=O)NC4=O)CC3)cc2n1C(=O)OCCCCCO[N+](=O)[O-]

>  <score_type>  (90) 
oracle

>  <origin>  (90) 
adg

>  <m_score__min__energy>  (90) 
-9.8900000000000006

>  <m_primary>  (90) 
energy

$$$$
90:0
     RDKit          3D

 39 41  0  0  0  0  0  0  0  0999 V2000
  142.8300  153.9600  133.8550 C   0  0  0  0  0  0  0  0  0  0  0  0
  144.0890  154.7220  133.8830 N   0  0  1  0  0  0  0  0  0  0  0  0
  144.9820  154.2590  134.9540 C   0  0  0  0  0  0  0  0  0  0  0  0
  146.3900  154.5600  134.4870 C   0  0  0  0  0  0  0  0  0  0  0  0
  146.3200  154.3680  132.9780 C   0  0  2  0  0  0  0  0  0  0  0  0
  147.2120  155.2910  132.2620 N   0  0  0  0  0  0  0  0  0  0  0  0
  147.2730  156.7100  132.5100 C   0  0  0  0  0  0  0  0  0  0  0  0
  148.4650  157.4560  132.3010 C   0  0  0  0  0  0  0  0  0  0  0  0
  148.5030  158.8360  132.5610 C   0  0  0  0  0  0  0  0  0  0  0  0
  147.3420  159.4470  133.0220 C   0  0  0  0  0  0  0  0  0  0  0  0
  147.1130  160.7570  133.3750 C   0  0  0  0  0  0  0  0  0  0  0  0
  145.7800  160.8020  133.7760 C   0  0  0  0  0  0  0  0  0  0  0  0
  145.0890  162.0520  134.1570 C   0  0  0  0  0  0  0  0  0  0  0  0
  143.9860  162.5400  133.3980 N   0  0  0  0  0  0  0  0  0  0  0  0
  145.5110  162.7240  135.1350 O   0  0  0  0  0  0  0  0  0  0  0  0
  145.2090  159.5680  133.6840 N   0  0  0  0  0  0  0  0  0  0  0  0
  143.8880  159.1780  134.0920 C   0  0  0  0  0  0  0  0  0  0  0  0
  142.9630  160.0300  134.1530 O   0  0  0  0  0  0  0  0  0  0  0  0
  143.6120  157.8500  134.3970 O   0  0  0  0  0  0  0  0  0  0  0  0
  146.1800  158.7490  133.2170 C   0  0  0  0  0  0  0  0  0  0  0  0
  146.1180  157.3710  132.9850 C   0  0  0  0  0  0  0  0  0  0  0  0
  144.8460  154.6070  132.6220 C   0  0  0  0  0  0  0  0  0  0  0  0
  142.4995  153.7600  134.8849 H   0  0  0  0  0  0  0  0  0  0  0  0
  142.0598  154.5437  133.3296 H   0  0  0  0  0  0  0  0  0  0  0  0
  142.9899  153.0069  133.3296 H   0  0  0  0  0  0  0  0  0  0  0  0
  143.8610  155.7310  134.0530 H   0  0  0  0  0  0  0  0  0  0  0  0
  144.7670  154.7966  135.8893 H   0  0  0  0  0  0  0  0  0  0  0  0
  144.8461  153.1860  135.1543 H   0  0  0  0  0  0  0  0  0  0  0  0
  146.6740  155.5926  134.7381 H   0  0  0  0  0  0  0  0  0  0  0  0
  147.1435  153.9158  134.9637 H   0  0  0  0  0  0  0  0  0  0  0  0
  146.6588  153.3653  132.6783 H   0  0  0  0  0  0  0  0  0  0  0  0
  147.8370  154.9080  131.5160 H   0  0  0  0  0  0  0  0  0  0  0  0
  149.3675  156.9470  131.9316 H   0  0  0  0  0  0  0  0  0  0  0  0
  149.4243  159.4163  132.4045 H   0  0  0  0  0  0  0  0  0  0  0  0
  147.8298  161.5909  133.3466 H   0  0  0  0  0  0  0  0  0  0  0  0
  143.0550  162.0690  133.4410 H   0  0  0  0  0  0  0  0  0  0  0  0
  145.1882  156.8128  133.1688 H   0  0  0  0  0  0  0  0  0  0  0  0
  144.7475  155.5357  132.0407 H   0  0  0  0  0  0  0  0  0  0  0  0
  144.4579  153.7750  132.0161 H   0  0  0  0  0  0  0  0  0  0  0  0
  1  2  1  0
  2  3  1  0
  3  4  1  0
  4  5  1  0
  5  6  1  0
  6  7  1  0
  7  8  2  0
  8  9  1  0
  9 10  2  0
 10 11  1  0
 11 12  2  0
 12 13  1  0
 13 14  1  0
 13 15  2  0
 12 16  1  0
 16 17  1  0
 17 18  2  0
 17 19  1  0
 16 20  1  0
 20 21  2  0
  5 22  1  0
 22  2  1  0
 21  7  1  0
 20 10  1  0
  1 23  1  0
  1 24  1  0
  1 25  1  0
  2 26  1  1
  3 27  1  0
  3 28  1  0
  4 29  1  0
  4 30  1  0
  5 31  1  1
  6 32  1  0
  8 33  1  0
  9 34  1  0
 11 35  1  0
 14 36  1  0
 21 37  1  0
 22 38  1  0
 22 39  1  0
M  CHG  3   2   1  14  -1  19  -1
M  END
>  <UniqueID>  (91) 
91

>  <SMILES>  (91) 
C[N@H+]1CC[C@H](Nc2ccc3cc(C([NH-])=O)n(C(=O)[O-])c3c2)C1

>  <Energy>  (91) 
83.89462406782194

>  <Genealogy>  (91) 
C[NH+]1CCC(Nc2ccc3cc(C([NH-])=O)n(C(=O)[O-])c3c2)C1 (protonated)
C[N@H+]1CC[C@H](Nc2ccc3cc(C([NH-])=O)n(C(=O)[O-])c3c2)C1 (chirality)
C[N@H+]1CC[C@H](Nc2ccc3cc(C([NH-])=O)n(C(=O)[O-])c3c2)C1 (3D coordinates assigned)
C[N@H+]1CC[C@H](Nc2ccc3cc(C([NH-])=O)n(C(=O)[O-])c3c2)C1 (nonaromatic ring conformer: 83.89462406782194 kcal/mol)

>  <smiles>  (91) 
CN1CCC(Nc2ccc3cc(C(N)=O)n(C(=O)O)c3c2)C1

>  <score_type>  (91) 
oracle

>  <origin>  (91) 
adg

>  <m_score__min__energy>  (91) 
-6.5099999999999998

>  <m_primary>  (91) 
energy

$$$$
91:0
     RDKit          3D

 45 46  0  0  0  0  0  0  0  0999 V2000
  149.9630  160.1510  129.9970 C   0  0  0  0  0  0  0  0  0  0  0  0
  149.2850  160.2570  131.1420 C   0  0  0  0  0  0  0  0  0  0  0  0
  147.7850  160.2120  131.1860 C   0  0  0  0  0  0  0  0  0  0  0  0
  147.3380  160.1140  132.5350 O   0  0  0  0  0  0  0  0  0  0  0  0
  147.5950  159.0070  133.3520 C   0  0  0  0  0  0  0  0  0  0  0  0
  148.5370  159.0400  134.1920 O   0  0  0  0  0  0  0  0  0  0  0  0
  146.7950  157.8220  133.2210 N   0  0  0  0  0  0  0  0  0  0  0  0
  147.2030  156.5730  132.8530 C   0  0  0  0  0  0  0  0  0  0  0  0
  148.6030  156.1360  132.6690 C   0  0  0  0  0  0  0  0  0  0  0  0
  149.6190  157.0650  132.3010 N   0  0  0  0  0  0  0  0  0  0  0  0
  148.9160  154.9350  132.8920 O   0  0  0  0  0  0  0  0  0  0  0  0
  146.1130  155.7110  132.7580 C   0  0  0  0  0  0  0  0  0  0  0  0
  145.0160  156.4710  133.0960 C   0  0  0  0  0  0  0  0  0  0  0  0
  143.6700  156.1180  133.1700 C   0  0  0  0  0  0  0  0  0  0  0  0
  142.7450  157.1140  133.5280 C   0  0  0  0  0  0  0  0  0  0  0  0
  143.1760  158.4410  133.7970 C   0  0  0  0  0  0  0  0  0  0  0  0
  142.1620  159.5010  134.1690 C   0  0  1  0  0  0  0  0  0  0  0  0
  142.6370  160.8940  133.7330 C   0  0  0  0  0  0  0  0  0  0  0  0
  140.8090  159.1550  133.5940 C   0  0  0  0  0  0  0  0  0  0  0  0
  139.8290  158.9480  134.3590 O   0  0  0  0  0  0  0  0  0  0  0  0
  140.6330  159.1160  132.1680 N   0  0  0  0  0  0  0  0  0  0  0  0
  139.3200  159.0660  131.5190 C   0  0  0  0  0  0  0  0  0  0  0  0
  138.5100  158.1330  132.1440 F   0  0  0  0  0  0  0  0  0  0  0  0
  139.4850  158.6800  130.1980 F   0  0  0  0  0  0  0  0  0  0  0  0
  138.6480  160.4410  131.5510 C   0  0  0  0  0  0  0  0  0  0  0  0
  139.4670  161.3740  132.1560 F   0  0  0  0  0  0  0  0  0  0  0  0
  138.3550  160.8560  130.2610 F   0  0  0  0  0  0  0  0  0  0  0  0
  144.5540  158.7570  133.7090 C   0  0  0  0  0  0  0  0  0  0  0  0
  145.4540  157.7400  133.3700 C   0  0  0  0  0  0  0  0  0  0  0  0
  151.0623  160.1883  130.0033 H   0  0  0  0  0  0  0  0  0  0  0  0
  149.4223  160.0263  129.0472 H   0  0  0  0  0  0  0  0  0  0  0  0
  149.8425  160.3811  132.0821 H   0  0  0  0  0  0  0  0  0  0  0  0
  147.3800  161.1295  130.7342 H   0  0  0  0  0  0  0  0  0  0  0  0
  147.4344  159.3328  130.6256 H   0  0  0  0  0  0  0  0  0  0  0  0
  149.8640  157.8680  132.9210 H   0  0  0  0  0  0  0  0  0  0  0  0
  146.1260  154.6485  132.4733 H   0  0  0  0  0  0  0  0  0  0  0  0
  143.3412  155.0906  132.9547 H   0  0  0  0  0  0  0  0  0  0  0  0
  141.6764  156.8635  133.6007 H   0  0  0  0  0  0  0  0  0  0  0  0
  142.0614  159.5275  135.2641 H   0  0  0  0  0  0  0  0  0  0  0  0
  142.8455  161.5056  134.6232 H   0  0  0  0  0  0  0  0  0  0  0  0
  143.5530  160.7975  133.1317 H   0  0  0  0  0  0  0  0  0  0  0  0
  141.8528  161.3772  133.1317 H   0  0  0  0  0  0  0  0  0  0  0  0
  141.4800  159.1860  131.5580 H   0  0  0  0  0  0  0  0  0  0  0  0
  137.7183  160.3541  132.1324 H   0  0  0  0  0  0  0  0  0  0  0  0
  144.9092  159.7798  133.9029 H   0  0  0  0  0  0  0  0  0  0  0  0
  1  2  2  0
  2  3  1  0
  3  4  1  0
  4  5  1  0
  5  6  2  0
  5  7  1  0
  7  8  1  0
  8  9  1  0
  9 10  1  0
  9 11  2  0
  8 12  2  0
 12 13  1  0
 13 14  2  0
 14 15  1  0
 15 16  2  0
 16 17  1  0
 17 18  1  0
 17 19  1  0
 19 20  2  0
 19 21  1  0
 21 22  1  0
 22 23  1  0
 22 24  1  0
 22 25  1  0
 25 26  1  0
 25 27  1  0
 16 28  1  0
 28 29  2  0
 29  7  1  0
 29 13  1  0
  1 30  1  0
  1 31  1  0
  2 32  1  0
  3 33  1  0
  3 34  1  0
 10 35  1  0
 12 36  1  0
 14 37  1  0
 15 38  1  0
 17 39  1  1
 18 40  1  0
 18 41  1  0
 18 42  1  0
 21 43  1  0
 25 44  1  0
 28 45  1  0
M  CHG  1  10  -1
M  END
>  <UniqueID>  (92) 
92

>  <SMILES>  (92) 
C=CCOC(=O)n1c(C([NH-])=O)cc2ccc([C@@H](C)C(=O)NC(F)(F)C(F)F)cc21

>  <Energy>  (92) 
75.21083682989362

>  <Genealogy>  (92) 
C=CCOC(=O)n1c(C([NH-])=O)cc2ccc(C(C)C(=O)NC(F)(F)C(F)F)cc21 (protonated)
C=CCOC(=O)n1c(C([NH-])=O)cc2ccc([C@@H](C)C(=O)NC(F)(F)C(F)F)cc21 (chirality)
C=CCOC(=O)n1c(C([NH-])=O)cc2ccc([C@@H](C)C(=O)NC(F)(F)C(F)F)cc21 (3D coordinates assigned)
C=CCOC(=O)n1c(C([NH-])=O)cc2ccc([C@@H](C)C(=O)NC(F)(F)C(F)F)cc21 (optimized conformer: 75.21083682989362 kcal/mol)

>  <smiles>  (92) 
C=CCOC(=O)n1c(C(N)=O)cc2ccc(C(C)C(=O)NC(F)(F)C(F)F)cc21

>  <score_type>  (92) 
oracle

>  <origin>  (92) 
adg

>  <m_score__min__energy>  (92) 
-7.1299999999999999

>  <m_primary>  (92) 
energy

$$$$
