0:0
     RDKit          3D

 48 50  0  0  0  0  0  0  0  0999 V2000
  142.8560  160.7680  133.5830 N   0  0  0  0  0  0  0  0  0  0  0  0
  144.2310  161.0940  133.7840 C   0  0  0  0  0  0  0  0  0  0  0  0
  144.5470  162.2750  134.0890 O   0  0  0  0  0  0  0  0  0  0  0  0
  145.2950  160.0910  133.5760 C   0  0  0  0  0  0  0  0  0  0  0  0
  146.6320  160.4210  133.3750 C   0  0  0  0  0  0  0  0  0  0  0  0
  147.2710  159.2250  133.1450 C   0  0  0  0  0  0  0  0  0  0  0  0
  148.6130  158.9620  132.8860 C   0  0  0  0  0  0  0  0  0  0  0  0
  148.9990  157.6220  132.7100 C   0  0  0  0  0  0  0  0  0  0  0  0
  148.0530  156.5720  132.8080 C   0  0  0  0  0  0  0  0  0  0  0  0
  148.4930  155.2140  132.6170 N   0  0  0  0  0  0  0  0  0  0  0  0
  147.6410  154.0370  132.7900 C   0  0  0  0  0  0  0  0  0  0  0  0
  147.2820  153.8490  134.2330 C   0  0  0  0  0  0  0  0  0  0  0  0
  146.0580  154.0660  134.8250 C   0  0  0  0  0  0  0  0  0  0  0  0
  146.1600  153.8060  136.1420 N   0  0  0  0  0  0  0  0  0  0  0  0
  147.4070  153.4400  136.4060 N   0  0  0  0  0  0  0  0  0  0  0  0
  148.1140  153.4620  135.2610 C   0  0  0  0  0  0  0  0  0  0  0  0
  146.6990  156.8820  133.0860 C   0  0  0  0  0  0  0  0  0  0  0  0
  146.3360  158.2260  133.2250 C   0  0  0  0  0  0  0  0  0  0  0  0
  145.1150  158.7420  133.4910 N   0  0  0  0  0  0  0  0  0  0  0  0
  143.9040  158.0030  133.7190 C   0  0  0  0  0  0  0  0  0  0  0  0
  143.6590  157.5360  134.8650 O   0  0  0  0  0  0  0  0  0  0  0  0
  143.0010  157.8090  132.6700 O   0  0  0  0  0  0  0  0  0  0  0  0
  141.6560  157.3940  132.8740 C   0  0  0  0  0  0  0  0  0  0  0  0
  140.8880  158.4890  133.3630 O   0  0  0  0  0  0  0  0  0  0  0  0
  140.3080  159.4410  132.5210 C   0  0  0  0  0  0  0  0  0  0  0  0
  140.4810  160.6740  132.7250 O   0  0  0  0  0  0  0  0  0  0  0  0
  139.4370  158.9890  131.3920 C   0  0  0  0  0  0  0  0  0  0  0  0
  137.9670  159.2760  131.7060 C   0  0  0  0  0  0  0  0  0  0  0  0
  137.3470  160.0840  130.6100 C   0  0  0  0  0  0  0  0  0  0  0  0
  138.0620  160.8310  129.8910 O   0  0  0  0  0  0  0  0  0  0  0  0
  135.9870  159.9760  130.3520 O   0  0  0  0  0  0  0  0  0  0  0  0
  142.1150  161.4810  133.7710 H   0  0  0  0  0  0  0  0  0  0  0  0
  142.5730  159.8580  133.1580 H   0  0  0  0  0  0  0  0  0  0  0  0
  147.0819  161.4246  133.3957 H   0  0  0  0  0  0  0  0  0  0  0  0
  149.3485  159.7773  132.8211 H   0  0  0  0  0  0  0  0  0  0  0  0
  150.0510  157.3851  132.4930 H   0  0  0  0  0  0  0  0  0  0  0  0
  149.4830  155.0460  132.3250 H   0  0  0  0  0  0  0  0  0  0  0  0
  146.7200  154.1688  132.2032 H   0  0  0  0  0  0  0  0  0  0  0  0
  148.1907  153.1492  132.4442 H   0  0  0  0  0  0  0  0  0  0  0  0
  145.1461  154.3975  134.3068 H   0  0  0  0  0  0  0  0  0  0  0  0
  149.1807  153.2121  135.1621 H   0  0  0  0  0  0  0  0  0  0  0  0
  145.9495  156.0836  133.1903 H   0  0  0  0  0  0  0  0  0  0  0  0
  141.2316  157.0457  131.9208 H   0  0  0  0  0  0  0  0  0  0  0  0
  141.6334  156.5749  133.6078 H   0  0  0  0  0  0  0  0  0  0  0  0
  139.7236  159.5257  130.4755 H   0  0  0  0  0  0  0  0  0  0  0  0
  139.5675  157.9058  131.2515 H   0  0  0  0  0  0  0  0  0  0  0  0
  137.4251  158.3239  131.8052 H   0  0  0  0  0  0  0  0  0  0  0  0
  137.9076  159.8448  132.6456 H   0  0  0  0  0  0  0  0  0  0  0  0
  1  2  1  0
  2  3  2  0
  2  4  1  0
  4  5  2  0
  5  6  1  0
  6  7  2  0
  7  8  1  0
  8  9  2  0
  9 10  1  0
 10 11  1  0
 11 12  1  0
 12 13  1  0
 13 14  2  0
 14 15  1  0
 15 16  1  0
  9 17  1  0
 17 18  2  0
 18 19  1  0
 19 20  1  0
 20 21  2  0
 20 22  1  0
 22 23  1  0
 23 24  1  0
 24 25  1  0
 25 26  2  0
 25 27  1  0
 27 28  1  0
 28 29  1  0
 29 30  2  0
 29 31  1  0
 19  4  1  0
 18  6  1  0
 16 12  2  0
  1 32  1  0
  1 33  1  0
  5 34  1  0
  7 35  1  0
  8 36  1  0
 10 37  1  0
 11 38  1  0
 11 39  1  0
 13 40  1  0
 16 41  1  0
 17 42  1  0
 23 43  1  0
 23 44  1  0
 27 45  1  0
 27 46  1  0
 28 47  1  0
 28 48  1  0
M  CHG  2  15  -1  31  -1
M  END
>  <UniqueID>  (1) 
1

>  <SMILES>  (1) 
NC(=O)c1cc2ccc(NCc3cn[n-]c3)cc2n1C(=O)OCOC(=O)CCC(=O)[O-]

>  <Energy>  (1) 
108.44879523466487

>  <Genealogy>  (1) 
NC(=O)c1cc2ccc(NCc3cn[n-]c3)cc2n1C(=O)OCOC(=O)CCC(=O)[O-] (protonated)
NC(=O)c1cc2ccc(NCc3cn[n-]c3)cc2n1C(=O)OCOC(=O)CCC(=O)[O-] (3D coordinates assigned)
NC(=O)c1cc2ccc(NCc3cn[n-]c3)cc2n1C(=O)OCOC(=O)CCC(=O)[O-] (optimized conformer: 108.44879523466487 kcal/mol)

>  <smiles>  (1) 
NC(=O)c1cc2ccc(NCc3cn[nH]c3)cc2n1C(=O)OCOC(=O)CCC(=O)O

>  <score_type>  (1) 
oracle

>  <origin>  (1) 
adg

>  <m_score__min__energy>  (1) 
-7.3099999999999996

>  <m_primary>  (1) 
energy

$$$$
1:0
     RDKit          3D

 35 37  0  0  0  0  0  0  0  0999 V2000
  143.3300  161.5600  133.7280 N   0  0  0  0  0  0  0  0  0  0  0  0
  144.7320  161.6370  133.9760 C   0  0  0  0  0  0  0  0  0  0  0  0
  145.2210  162.7080  134.4220 O   0  0  0  0  0  0  0  0  0  0  0  0
  145.5980  160.4790  133.6690 C   0  0  0  0  0  0  0  0  0  0  0  0
  146.9640  160.5880  133.4180 C   0  0  0  0  0  0  0  0  0  0  0  0
  147.4100  159.2960  133.2670 C   0  0  0  0  0  0  0  0  0  0  0  0
  148.6860  158.8180  132.9880 C   0  0  0  0  0  0  0  0  0  0  0  0
  148.8570  157.4310  132.8550 C   0  0  0  0  0  0  0  0  0  0  0  0
  147.7560  156.5420  132.9980 C   0  0  0  0  0  0  0  0  0  0  0  0
  147.9240  155.0730  132.8450 C   0  0  0  0  0  0  0  0  0  0  0  0
  146.8860  154.1440  132.9560 C   0  0  0  0  0  0  0  0  0  0  0  0
  147.5320  152.6150  132.7000 S   0  0  0  0  0  0  0  0  0  0  0  0
  149.0930  153.1780  132.4580 C   0  0  0  0  0  0  0  0  0  0  0  0
  149.1410  154.5230  132.5660 N   0  0  0  0  0  0  0  0  0  0  0  0
  146.4730  157.0740  133.2760 C   0  0  0  0  0  0  0  0  0  0  0  0
  146.3370  158.4600  133.4210 C   0  0  0  0  0  0  0  0  0  0  0  0
  145.2140  159.1710  133.6670 N   0  0  0  0  0  0  0  0  0  0  0  0
  143.8840  158.6490  133.8070 C   0  0  0  0  0  0  0  0  0  0  0  0
  143.2490  158.8200  134.8840 O   0  0  0  0  0  0  0  0  0  0  0  0
  143.3030  157.9370  132.7530 O   0  0  0  0  0  0  0  0  0  0  0  0
  142.1390  157.1360  132.9150 C   0  0  0  0  0  0  0  0  0  0  0  0
  140.7030  158.2170  133.1660 P   0  0  2  0  0  0  0  0  0  0  0  0
  140.0740  157.9170  134.5070 O   0  0  0  0  0  0  0  0  0  0  0  0
  139.5700  157.9420  131.9400 O   0  0  0  0  0  0  0  0  0  0  0  0
  141.1970  159.8350  133.1260 O   0  0  0  0  0  0  0  0  0  0  0  0
  142.7770  160.7290  134.0320 H   0  0  0  0  0  0  0  0  0  0  0  0
  147.5591  161.5110  133.3542 H   0  0  0  0  0  0  0  0  0  0  0  0
  149.5363  159.5066  132.8749 H   0  0  0  0  0  0  0  0  0  0  0  0
  149.8563  157.0261  132.6372 H   0  0  0  0  0  0  0  0  0  0  0  0
  145.8323  154.3735  133.1727 H   0  0  0  0  0  0  0  0  0  0  0  0
  149.9607  152.5379  132.2406 H   0  0  0  0  0  0  0  0  0  0  0  0
  145.6007  156.4114  133.3760 H   0  0  0  0  0  0  0  0  0  0  0  0
  141.9856  156.5232  132.0145 H   0  0  0  0  0  0  0  0  0  0  0  0
  142.2622  156.4759  133.7863 H   0  0  0  0  0  0  0  0  0  0  0  0
  142.1820  159.7990  133.2270 H   0  0  0  0  0  0  0  0  0  0  0  0
  1  2  1  0
  2  3  2  0
  2  4  1  0
  4  5  2  0
  5  6  1  0
  6  7  2  0
  7  8  1  0
  8  9  2  0
  9 10  1  0
 10 11  2  0
 11 12  1  0
 12 13  1  0
 13 14  2  0
  9 15  1  0
 15 16  2  0
 16 17  1  0
 17 18  1  0
 18 19  2  0
 18 20  1  0
 20 21  1  0
 21 22  1  0
 22 23  2  0
 22 24  1  6
 22 25  1  0
 17  4  1  0
 16  6  1  0
 14 10  1  0
  1 26  1  0
  5 27  1  0
  7 28  1  0
  8 29  1  0
 11 30  1  0
 13 31  1  0
 15 32  1  0
 21 33  1  0
 21 34  1  0
 25 35  1  0
M  CHG  2   1  -1  24  -1
M  END
>  <UniqueID>  (2) 
2

>  <SMILES>  (2) 
[NH-]C(=O)c1cc2ccc(-c3cscn3)cc2n1C(=O)OC[P@](=O)([O-])O

>  <Energy>  (2) 
100.8333793473811

>  <Genealogy>  (2) 
[NH-]C(=O)c1cc2ccc(-c3cscn3)cc2n1C(=O)OCP(=O)([O-])O (protonated)
[NH-]C(=O)c1cc2ccc(-c3cscn3)cc2n1C(=O)OC[P@](=O)([O-])O (chirality)
[NH-]C(=O)c1cc2ccc(-c3cscn3)cc2n1C(=O)OC[P@](=O)([O-])O (3D coordinates assigned)
[NH-]C(=O)c1cc2ccc(-c3cscn3)cc2n1C(=O)OC[P@](=O)([O-])O (optimized conformer: 100.8333793473811 kcal/mol)

>  <smiles>  (2) 
NC(=O)c1cc2ccc(-c3cscn3)cc2n1C(=O)OCP(=O)(O)O

>  <score_type>  (2) 
oracle

>  <origin>  (2) 
adg

>  <m_score__min__energy>  (2) 
-6.9199999999999999

>  <m_primary>  (2) 
energy

$$$$
2:0
     RDKit          3D

 40 41  0  0  0  0  0  0  0  0999 V2000
  139.4810  156.5160  133.0570 C   0  0  0  0  0  0  0  0  0  0  0  0
  139.4730  157.6170  133.9580 O   0  0  0  0  0  0  0  0  0  0  0  0
  140.4280  158.6380  133.9090 C   0  0  0  0  0  0  0  0  0  0  0  0
  140.5330  159.3670  132.8850 O   0  0  0  0  0  0  0  0  0  0  0  0
  141.3630  158.8520  135.0610 C   0  0  0  0  0  0  0  0  0  0  0  0
  142.0790  157.6140  135.3970 N   0  0  0  0  0  0  0  0  0  0  0  0
  141.6120  156.8020  136.5240 C   0  0  0  0  0  0  0  0  0  0  0  0
  143.2740  157.2070  134.6980 C   0  0  0  0  0  0  0  0  0  0  0  0
  143.9470  156.2380  135.1460 O   0  0  0  0  0  0  0  0  0  0  0  0
  143.7370  157.8730  133.4590 C   0  0  0  0  0  0  0  0  0  0  0  0
  143.0320  157.8520  132.4160 O   0  0  0  0  0  0  0  0  0  0  0  0
  145.0130  158.5270  133.4240 N   0  0  0  0  0  0  0  0  0  0  0  0
  145.2640  159.8640  133.4940 C   0  0  0  0  0  0  0  0  0  0  0  0
  144.2580  160.9230  133.7250 C   0  0  0  0  0  0  0  0  0  0  0  0
  142.8940  160.7350  133.3560 N   0  0  0  0  0  0  0  0  0  0  0  0
  144.6040  162.0030  134.2740 O   0  0  0  0  0  0  0  0  0  0  0  0
  146.6300  160.1090  133.3510 C   0  0  0  0  0  0  0  0  0  0  0  0
  147.2080  158.8700  133.1840 C   0  0  0  0  0  0  0  0  0  0  0  0
  148.5390  158.5210  132.9780 C   0  0  0  0  0  0  0  0  0  0  0  0
  148.8430  157.1580  132.8050 C   0  0  0  0  0  0  0  0  0  0  0  0
  147.8180  156.1790  132.8340 C   0  0  0  0  0  0  0  0  0  0  0  0
  148.1630  154.7320  132.6340 C   0  0  0  0  0  0  0  0  0  0  0  0
  147.8630  154.0180  133.7790 F   0  0  0  0  0  0  0  0  0  0  0  0
  149.5120  154.6090  132.3580 F   0  0  0  0  0  0  0  0  0  0  0  0
  146.4770  156.5740  133.0430 C   0  0  0  0  0  0  0  0  0  0  0  0
  146.2090  157.9330  133.2280 C   0  0  0  0  0  0  0  0  0  0  0  0
  139.4878  155.5755  133.6274 H   0  0  0  0  0  0  0  0  0  0  0  0
  138.5826  156.5541  132.4235 H   0  0  0  0  0  0  0  0  0  0  0  0
  140.3788  156.5672  132.4235 H   0  0  0  0  0  0  0  0  0  0  0  0
  142.0943  159.6281  134.7910 H   0  0  0  0  0  0  0  0  0  0  0  0
  140.7741  159.1640  135.9361 H   0  0  0  0  0  0  0  0  0  0  0  0
  141.8928  157.2902  137.4689 H   0  0  0  0  0  0  0  0  0  0  0  0
  140.5178  156.7009  136.4745 H   0  0  0  0  0  0  0  0  0  0  0  0
  142.0749  155.8054  136.4745 H   0  0  0  0  0  0  0  0  0  0  0  0
  142.6160  159.9750  132.6970 H   0  0  0  0  0  0  0  0  0  0  0  0
  147.1377  161.0847  133.3680 H   0  0  0  0  0  0  0  0  0  0  0  0
  149.3287  159.2863  132.9512 H   0  0  0  0  0  0  0  0  0  0  0  0
  149.8866  156.8490  132.6456 H   0  0  0  0  0  0  0  0  0  0  0  0
  147.5779  154.3354  131.7912 H   0  0  0  0  0  0  0  0  0  0  0  0
  145.6658  155.8313  133.0596 H   0  0  0  0  0  0  0  0  0  0  0  0
  1  2  1  0
  2  3  1  0
  3  4  2  0
  3  5  1  0
  5  6  1  0
  6  7  1  0
  6  8  1  0
  8  9  2  0
  8 10  1  0
 10 11  2  0
 10 12  1  0
 12 13  1  0
 13 14  1  0
 14 15  1  0
 14 16  2  0
 13 17  2  0
 17 18  1  0
 18 19  2  0
 19 20  1  0
 20 21  2  0
 21 22  1  0
 22 23  1  0
 22 24  1  0
 21 25  1  0
 25 26  2  0
 26 12  1  0
 26 18  1  0
  1 27  1  0
  1 28  1  0
  1 29  1  0
  5 30  1  0
  5 31  1  0
  7 32  1  0
  7 33  1  0
  7 34  1  0
 15 35  1  0
 17 36  1  0
 19 37  1  0
 20 38  1  0
 22 39  1  0
 25 40  1  0
M  CHG  1  15  -1
M  END
>  <UniqueID>  (3) 
3

>  <SMILES>  (3) 
COC(=O)CN(C)C(=O)C(=O)n1c(C([NH-])=O)cc2ccc(C(F)F)cc21

>  <Energy>  (3) 
77.59640946059028

>  <Genealogy>  (3) 
COC(=O)CN(C)C(=O)C(=O)n1c(C([NH-])=O)cc2ccc(C(F)F)cc21 (protonated)
COC(=O)CN(C)C(=O)C(=O)n1c(C([NH-])=O)cc2ccc(C(F)F)cc21 (3D coordinates assigned)
COC(=O)CN(C)C(=O)C(=O)n1c(C([NH-])=O)cc2ccc(C(F)F)cc21 (optimized conformer: 77.59640946059028 kcal/mol)

>  <smiles>  (3) 
COC(=O)CN(C)C(=O)C(=O)n1c(C(N)=O)cc2ccc(C(F)F)cc21

>  <score_type>  (3) 
oracle

>  <origin>  (3) 
adg

>  <m_score__min__energy>  (3) 
-5.8099999999999996

>  <m_primary>  (3) 
energy

$$$$
3:0
     RDKit          3D

 45 47  0  0  0  0  0  0  0  0999 V2000
  138.5410  158.6140  131.9700 C   0  0  0  0  0  0  0  0  0  0  0  0
  139.4710  157.9830  133.0260 C   0  0  0  0  0  0  0  0  0  0  0  0
  139.8060  156.5340  132.6320 C   0  0  0  0  0  0  0  0  0  0  0  0
  138.7470  157.9720  134.3840 C   0  0  0  0  0  0  0  0  0  0  0  0
  140.9970  159.0000  133.2350 S   0  0  0  0  0  0  0  0  0  0  0  0
  141.2430  158.8110  135.0080 C   0  0  0  0  0  0  0  0  0  0  0  0
  140.8670  159.7210  135.9230 N   0  0  0  0  0  0  0  0  0  0  0  0
  141.1560  159.1710  137.0980 N   0  0  0  0  0  0  0  0  0  0  0  0
  141.6630  157.9600  136.9210 N   0  0  0  0  0  0  0  0  0  0  0  0
  141.7170  157.7110  135.6240 N   0  0  0  0  0  0  0  0  0  0  0  0
  142.1250  156.4330  135.0420 C   0  0  0  0  0  0  0  0  0  0  0  0
  143.6030  156.4110  134.7560 C   0  0  0  0  0  0  0  0  0  0  0  0
  144.3820  155.2850  135.1210 C   0  0  0  0  0  0  0  0  0  0  0  0
  145.7640  155.2540  134.8610 C   0  0  0  0  0  0  0  0  0  0  0  0
  146.3390  156.3640  134.2500 C   0  0  0  0  0  0  0  0  0  0  0  0
  147.6460  156.6020  133.8880 C   0  0  0  0  0  0  0  0  0  0  0  0
  147.6500  157.8850  133.3470 C   0  0  0  0  0  0  0  0  0  0  0  0
  148.8720  158.6040  132.9210 C   0  0  0  0  0  0  0  0  0  0  0  0
  149.7790  158.0190  131.9820 N   0  0  0  0  0  0  0  0  0  0  0  0
  149.1380  159.7360  133.4020 O   0  0  0  0  0  0  0  0  0  0  0  0
  146.3940  158.4140  133.3680 N   0  0  0  0  0  0  0  0  0  0  0  0
  145.9630  159.6940  132.8730 C   0  0  0  0  0  0  0  0  0  0  0  0
  146.3840  160.1050  131.7570 O   0  0  0  0  0  0  0  0  0  0  0  0
  145.0780  160.5570  133.6720 C   0  0  0  0  0  0  0  0  0  0  0  0
  143.8350  160.3520  133.6920 O   0  0  0  0  0  0  0  0  0  0  0  0
  145.6160  161.5920  134.4310 O   0  0  0  0  0  0  0  0  0  0  0  0
  145.6050  157.4740  133.9260 C   0  0  0  0  0  0  0  0  0  0  0  0
  144.2290  157.5320  134.1670 C   0  0  0  0  0  0  0  0  0  0  0  0
  137.7322  159.1628  132.4747 H   0  0  0  0  0  0  0  0  0  0  0  0
  139.1180  159.3079  131.3410 H   0  0  0  0  0  0  0  0  0  0  0  0
  138.1094  157.8214  131.3410 H   0  0  0  0  0  0  0  0  0  0  0  0
  139.9457  155.9299  133.5406 H   0  0  0  0  0  0  0  0  0  0  0  0
  138.9809  156.1157  132.0369 H   0  0  0  0  0  0  0  0  0  0  0  0
  140.7310  156.5204  132.0369 H   0  0  0  0  0  0  0  0  0  0  0  0
  139.4895  157.9833  135.1955 H   0  0  0  0  0  0  0  0  0  0  0  0
  138.1033  158.8605  134.4636 H   0  0  0  0  0  0  0  0  0  0  0  0
  138.1306  157.0644  134.4636 H   0  0  0  0  0  0  0  0  0  0  0  0
  141.8842  155.6244  135.7478 H   0  0  0  0  0  0  0  0  0  0  0  0
  141.5850  156.2944  134.0937 H   0  0  0  0  0  0  0  0  0  0  0  0
  143.9011  154.4265  135.6126 H   0  0  0  0  0  0  0  0  0  0  0  0
  146.3720  154.3784  135.1326 H   0  0  0  0  0  0  0  0  0  0  0  0
  148.5041  155.9232  134.0019 H   0  0  0  0  0  0  0  0  0  0  0  0
  149.5560  157.1250  131.4960 H   0  0  0  0  0  0  0  0  0  0  0  0
  150.6710  158.5080  131.7430 H   0  0  0  0  0  0  0  0  0  0  0  0
  143.6482  158.4285  133.9044 H   0  0  0  0  0  0  0  0  0  0  0  0
  1  2  1  0
  2  3  1  0
  2  4  1  0
  2  5  1  0
  5  6  1  0
  6  7  2  0
  7  8  1  0
  8  9  2  0
  9 10  1  0
 10 11  1  0
 11 12  1  0
 12 13  2  0
 13 14  1  0
 14 15  2  0
 15 16  1  0
 16 17  2  0
 17 18  1  0
 18 19  1  0
 18 20  2  0
 17 21  1  0
 21 22  1  0
 22 23  2  0
 22 24  1  0
 24 25  2  0
 24 26  1  0
 21 27  1  0
 27 28  2  0
 10  6  1  0
 28 12  1  0
 27 15  1  0
  1 29  1  0
  1 30  1  0
  1 31  1  0
  3 32  1  0
  3 33  1  0
  3 34  1  0
  4 35  1  0
  4 36  1  0
  4 37  1  0
 11 38  1  0
 11 39  1  0
 13 40  1  0
 14 41  1  0
 16 42  1  0
 19 43  1  0
 19 44  1  0
 28 45  1  0
M  CHG  1  26  -1
M  END
>  <UniqueID>  (4) 
4

>  <SMILES>  (4) 
CC(C)(C)Sc1nnnn1Cc1ccc2cc(C(N)=O)n(C(=O)C(=O)[O-])c2c1

>  <Energy>  (4) 
118.40709018513243

>  <Genealogy>  (4) 
CC(C)(C)Sc1nnnn1Cc1ccc2cc(C(N)=O)n(C(=O)C(=O)[O-])c2c1 (protonated)
CC(C)(C)Sc1nnnn1Cc1ccc2cc(C(N)=O)n(C(=O)C(=O)[O-])c2c1 (3D coordinates assigned)
CC(C)(C)Sc1nnnn1Cc1ccc2cc(C(N)=O)n(C(=O)C(=O)[O-])c2c1 (optimized conformer: 118.40709018513243 kcal/mol)

>  <smiles>  (4) 
CC(C)(C)Sc1nnnn1Cc1ccc2cc(C(N)=O)n(C(=O)C(=O)O)c2c1

>  <score_type>  (4) 
oracle

>  <origin>  (4) 
adg

>  <m_score__min__energy>  (4) 
-9.1099999999999994

>  <m_primary>  (4) 
energy

$$$$
4:0
     RDKit          3D

 32 33  0  0  0  0  0  0  0  0999 V2000
  143.1540  160.3340  134.1900 N   0  0  0  0  0  0  0  0  0  0  0  0
  144.5000  160.7350  133.9310 C   0  0  0  0  0  0  0  0  0  0  0  0
  144.8210  161.9460  134.0690 O   0  0  0  0  0  0  0  0  0  0  0  0
  145.5350  159.7480  133.5660 C   0  0  0  0  0  0  0  0  0  0  0  0
  146.8540  160.0920  133.2820 C   0  0  0  0  0  0  0  0  0  0  0  0
  147.4980  158.8980  133.0520 C   0  0  0  0  0  0  0  0  0  0  0  0
  148.8250  158.6520  132.7100 C   0  0  0  0  0  0  0  0  0  0  0  0
  149.2110  157.3200  132.4890 C   0  0  0  0  0  0  0  0  0  0  0  0
  148.2700  156.2690  132.6070 C   0  0  0  0  0  0  0  0  0  0  0  0
  148.6740  154.9180  132.3670 N   0  0  0  0  0  0  0  0  0  0  0  0
  146.9320  156.5550  132.9530 C   0  0  0  0  0  0  0  0  0  0  0  0
  146.5770  157.8900  133.1880 C   0  0  0  0  0  0  0  0  0  0  0  0
  145.3630  158.3980  133.5030 N   0  0  0  0  0  0  0  0  0  0  0  0
  144.1250  157.6750  133.6050 C   0  0  0  0  0  0  0  0  0  0  0  0
  143.9390  156.8680  134.5570 O   0  0  0  0  0  0  0  0  0  0  0  0
  143.1290  157.8670  132.6430 O   0  0  0  0  0  0  0  0  0  0  0  0
  141.7390  157.7450  132.9340 C   0  0  0  0  0  0  0  0  0  0  0  0
  141.5460  157.6090  134.3230 O   0  0  0  0  0  0  0  0  0  0  0  0
  140.7620  159.0070  134.9120 P   0  0  0  0  0  0  0  0  0  0  0  0
  141.6070  159.6180  136.0050 O   0  0  0  0  0  0  0  0  0  0  0  0
  140.5660  160.1420  133.6720 O   0  0  0  0  0  0  0  0  0  0  0  0
  139.2490  158.6010  135.5490 O   0  0  0  0  0  0  0  0  0  0  0  0
  142.8930  159.3250  134.2440 H   0  0  0  0  0  0  0  0  0  0  0  0
  142.4260  161.0510  134.4040 H   0  0  0  0  0  0  0  0  0  0  0  0
  147.2883  161.1021  133.2486 H   0  0  0  0  0  0  0  0  0  0  0  0
  149.5484  159.4753  132.6159 H   0  0  0  0  0  0  0  0  0  0  0  0
  150.2533  157.0914  132.2219 H   0  0  0  0  0  0  0  0  0  0  0  0
  149.5640  154.5480  132.7670 H   0  0  0  0  0  0  0  0  0  0  0  0
  148.0850  154.2800  131.7870 H   0  0  0  0  0  0  0  0  0  0  0  0
  146.1867  155.7503  133.0361 H   0  0  0  0  0  0  0  0  0  0  0  0
  141.2127  158.6436  132.5797 H   0  0  0  0  0  0  0  0  0  0  0  0
  141.3413  156.8541  132.4260 H   0  0  0  0  0  0  0  0  0  0  0  0
  1  2  1  0
  2  3  2  0
  2  4  1  0
  4  5  2  0
  5  6  1  0
  6  7  2  0
  7  8  1  0
  8  9  2  0
  9 10  1  0
  9 11  1  0
 11 12  2  0
 12 13  1  0
 13 14  1  0
 14 15  2  0
 14 16  1  0
 16 17  1  0
 17 18  1  0
 18 19  1  0
 19 20  2  0
 19 21  1  0
 19 22  1  0
 13  4  1  0
 12  6  1  0
  1 23  1  0
  1 24  1  0
  5 25  1  0
  7 26  1  0
  8 27  1  0
 10 28  1  0
 10 29  1  0
 11 30  1  0
 17 31  1  0
 17 32  1  0
M  CHG  2  21  -1  22  -1
M  END
>  <UniqueID>  (5) 
5

>  <SMILES>  (5) 
NC(=O)c1cc2ccc(N)cc2n1C(=O)OCOP(=O)([O-])[O-]

>  <Energy>  (5) 
68.31944511708929

>  <Genealogy>  (5) 
NC(=O)c1cc2ccc(N)cc2n1C(=O)OCOP(=O)([O-])[O-] (protonated)
NC(=O)c1cc2ccc(N)cc2n1C(=O)OCOP(=O)([O-])[O-] (3D coordinates assigned)
NC(=O)c1cc2ccc(N)cc2n1C(=O)OCOP(=O)([O-])[O-] (optimized conformer: 68.31944511708929 kcal/mol)

>  <smiles>  (5) 
NC(=O)c1cc2ccc(N)cc2n1C(=O)OCOP(=O)(O)O

>  <score_type>  (5) 
oracle

>  <origin>  (5) 
adg

>  <m_score__min__energy>  (5) 
-6.25

>  <m_primary>  (5) 
energy

$$$$
5:0
     RDKit          3D

 36 37  0  0  0  0  0  0  0  0999 V2000
  139.5250  157.8460  135.6850 C   0  0  0  0  0  0  0  0  0  0  0  0
  140.6700  157.8440  134.6690 C   0  0  0  0  0  0  0  0  0  0  0  0
  140.1850  158.2970  133.2890 C   0  0  0  0  0  0  0  0  0  0  0  0
  141.7980  158.7150  135.1490 C   0  0  0  0  0  0  0  0  0  0  0  0
  141.5480  159.7680  135.7980 O   0  0  0  0  0  0  0  0  0  0  0  0
  143.1170  158.3230  134.8860 O   0  0  0  0  0  0  0  0  0  0  0  0
  143.7350  158.3640  133.6290 C   0  0  0  0  0  0  0  0  0  0  0  0
  143.1680  157.8720  132.6140 O   0  0  0  0  0  0  0  0  0  0  0  0
  145.0150  158.9980  133.4930 N   0  0  0  0  0  0  0  0  0  0  0  0
  145.3190  160.3180  133.6500 C   0  0  0  0  0  0  0  0  0  0  0  0
  144.3500  161.4170  133.8410 C   0  0  0  0  0  0  0  0  0  0  0  0
  142.9470  161.1850  133.7380 N   0  0  0  0  0  0  0  0  0  0  0  0
  144.7670  162.5870  134.0490 O   0  0  0  0  0  0  0  0  0  0  0  0
  146.6910  160.5220  133.5230 C   0  0  0  0  0  0  0  0  0  0  0  0
  147.2240  159.2780  133.2710 C   0  0  0  0  0  0  0  0  0  0  0  0
  148.5470  158.8950  133.0700 C   0  0  0  0  0  0  0  0  0  0  0  0
  148.8120  157.5320  132.8590 C   0  0  0  0  0  0  0  0  0  0  0  0
  147.7600  156.5820  132.8600 C   0  0  0  0  0  0  0  0  0  0  0  0
  148.0680  155.1280  132.6470 C   0  0  0  0  0  0  0  0  0  0  0  0
  149.4330  154.9560  132.5080 F   0  0  0  0  0  0  0  0  0  0  0  0
  147.6230  154.3930  133.7320 F   0  0  0  0  0  0  0  0  0  0  0  0
  146.4300  157.0090  133.0700 C   0  0  0  0  0  0  0  0  0  0  0  0
  146.1920  158.3750  133.2580 C   0  0  0  0  0  0  0  0  0  0  0  0
  139.9391  157.8453  136.7041 H   0  0  0  0  0  0  0  0  0  0  0  0
  138.9081  158.7452  135.5405 H   0  0  0  0  0  0  0  0  0  0  0  0
  138.9050  156.9489  135.5405 H   0  0  0  0  0  0  0  0  0  0  0  0
  141.0403  156.8127  134.5729 H   0  0  0  0  0  0  0  0  0  0  0  0
  139.3858  159.0434  133.4080 H   0  0  0  0  0  0  0  0  0  0  0  0
  141.0234  158.7429  132.7338 H   0  0  0  0  0  0  0  0  0  0  0  0
  139.7973  157.4301  132.7338 H   0  0  0  0  0  0  0  0  0  0  0  0
  142.5430  160.2450  133.9430 H   0  0  0  0  0  0  0  0  0  0  0  0
  147.2336  161.4752  133.6064 H   0  0  0  0  0  0  0  0  0  0  0  0
  149.3594  159.6365  133.0762 H   0  0  0  0  0  0  0  0  0  0  0  0
  149.8466  157.1983  132.6912 H   0  0  0  0  0  0  0  0  0  0  0  0
  147.5592  154.7822  131.7351 H   0  0  0  0  0  0  0  0  0  0  0  0
  145.6017  156.2854  133.0854 H   0  0  0  0  0  0  0  0  0  0  0  0
  1  2  1  0
  2  3  1  0
  2  4  1  0
  4  5  2  0
  4  6  1  0
  6  7  1  0
  7  8  2  0
  7  9  1  0
  9 10  1  0
 10 11  1  0
 11 12  1  0
 11 13  2  0
 10 14  2  0
 14 15  1  0
 15 16  2  0
 16 17  1  0
 17 18  2  0
 18 19  1  0
 19 20  1  0
 19 21  1  0
 18 22  1  0
 22 23  2  0
 23  9  1  0
 23 15  1  0
  1 24  1  0
  1 25  1  0
  1 26  1  0
  2 27  1  0
  3 28  1  0
  3 29  1  0
  3 30  1  0
 12 31  1  0
 14 32  1  0
 16 33  1  0
 17 34  1  0
 19 35  1  0
 22 36  1  0
M  CHG  1  12  -1
M  END
>  <UniqueID>  (6) 
6

>  <SMILES>  (6) 
CC(C)C(=O)OC(=O)n1c(C([NH-])=O)cc2ccc(C(F)F)cc21

>  <Energy>  (6) 
70.76129356937079

>  <Genealogy>  (6) 
CC(C)C(=O)OC(=O)n1c(C([NH-])=O)cc2ccc(C(F)F)cc21 (protonated)
CC(C)C(=O)OC(=O)n1c(C([NH-])=O)cc2ccc(C(F)F)cc21 (3D coordinates assigned)
CC(C)C(=O)OC(=O)n1c(C([NH-])=O)cc2ccc(C(F)F)cc21 (optimized conformer: 70.76129356937079 kcal/mol)

>  <smiles>  (6) 
CC(C)C(=O)OC(=O)n1c(C(N)=O)cc2ccc(C(F)F)cc21

>  <score_type>  (6) 
oracle

>  <origin>  (6) 
adg

>  <m_score__min__energy>  (6) 
-6.5

>  <m_primary>  (6) 
energy

$$$$
6:0
     RDKit          3D

 47 50  0  0  0  0  0  0  0  0999 V2000
  141.7320  158.0900  137.5110 C   0  0  0  0  0  0  0  0  0  0  0  0
  140.7540  158.1580  136.4270 N   0  0  0  0  0  0  0  0  0  0  0  0
  139.4640  157.7750  136.5020 C   0  0  0  0  0  0  0  0  0  0  0  0
  138.8110  157.9200  135.3310 N   0  0  0  0  0  0  0  0  0  0  0  0
  139.7320  158.4320  134.4870 C   0  0  0  0  0  0  0  0  0  0  0  0
  139.4320  158.7680  133.0770 C   0  0  0  0  0  0  0  0  0  0  0  0
  140.4860  159.0160  132.1820 C   0  0  0  0  0  0  0  0  0  0  0  0
  140.2170  159.3400  130.8480 C   0  0  0  0  0  0  0  0  0  0  0  0
  138.8970  159.4070  130.3950 C   0  0  0  0  0  0  0  0  0  0  0  0
  137.8430  159.1410  131.2720 C   0  0  0  0  0  0  0  0  0  0  0  0
  136.5630  159.1910  130.8270 F   0  0  0  0  0  0  0  0  0  0  0  0
  138.1070  158.8140  132.6060 C   0  0  0  0  0  0  0  0  0  0  0  0
  140.9370  158.5850  135.1610 C   0  0  0  0  0  0  0  0  0  0  0  0
  142.2350  159.0020  134.5860 C   0  0  0  0  0  0  0  0  0  0  0  0
  142.4850  160.3680  134.3020 C   0  0  0  0  0  0  0  0  0  0  0  0
  143.7130  160.7700  133.7480 C   0  0  0  0  0  0  0  0  0  0  0  0
  144.6610  159.7870  133.4790 C   0  0  0  0  0  0  0  0  0  0  0  0
  145.9320  159.8950  132.9610 C   0  0  0  0  0  0  0  0  0  0  0  0
  146.4210  158.5910  132.9110 C   0  0  0  0  0  0  0  0  0  0  0  0
  147.7480  158.2380  132.3650 C   0  0  0  0  0  0  0  0  0  0  0  0
  148.1460  156.8760  132.1970 N   0  0  0  0  0  0  0  0  0  0  0  0
  148.5300  159.1560  131.9980 O   0  0  0  0  0  0  0  0  0  0  0  0
  145.4960  157.7160  133.3920 N   0  0  0  0  0  0  0  0  0  0  0  0
  145.6350  156.3030  133.6040 C   0  0  0  0  0  0  0  0  0  0  0  0
  145.5150  155.5100  132.6310 O   0  0  0  0  0  0  0  0  0  0  0  0
  145.8200  155.7510  134.9850 C   0  0  0  0  0  0  0  0  0  0  0  0
  146.9490  154.7720  134.9880 C   0  0  0  0  0  0  0  0  0  0  0  0
  146.9750  153.8380  135.8320 O   0  0  0  0  0  0  0  0  0  0  0  0
  147.9480  154.8590  134.0260 O   0  0  0  0  0  0  0  0  0  0  0  0
  144.4240  158.4610  133.7310 C   0  0  0  0  0  0  0  0  0  0  0  0
  143.2240  158.0350  134.3060 C   0  0  0  0  0  0  0  0  0  0  0  0
  141.2100  158.1263  138.4786 H   0  0  0  0  0  0  0  0  0  0  0  0
  142.2987  157.1503  137.4351 H   0  0  0  0  0  0  0  0  0  0  0  0
  142.4233  158.9422  137.4351 H   0  0  0  0  0  0  0  0  0  0  0  0
  138.9951  157.3866  137.4181 H   0  0  0  0  0  0  0  0  0  0  0  0
  141.5272  158.9552  132.5316 H   0  0  0  0  0  0  0  0  0  0  0  0
  141.0463  159.5424  130.1543 H   0  0  0  0  0  0  0  0  0  0  0  0
  138.6878  159.6693  129.3474 H   0  0  0  0  0  0  0  0  0  0  0  0
  137.2748  158.5917  133.2901 H   0  0  0  0  0  0  0  0  0  0  0  0
  141.7115  161.1200  134.5169 H   0  0  0  0  0  0  0  0  0  0  0  0
  143.9184  161.8292  133.5336 H   0  0  0  0  0  0  0  0  0  0  0  0
  146.4509  160.8145  132.6524 H   0  0  0  0  0  0  0  0  0  0  0  0
  147.4640  156.0950  132.3060 H   0  0  0  0  0  0  0  0  0  0  0  0
  149.1080  156.6510  131.8630 H   0  0  0  0  0  0  0  0  0  0  0  0
  146.0466  156.5729  135.6801 H   0  0  0  0  0  0  0  0  0  0  0  0
  144.8967  155.2439  135.3018 H   0  0  0  0  0  0  0  0  0  0  0  0
  143.0544  156.9725  134.5347 H   0  0  0  0  0  0  0  0  0  0  0  0
  1  2  1  0
  2  3  1  0
  3  4  2  0
  4  5  1  0
  5  6  1  0
  6  7  2  0
  7  8  1  0
  8  9  2  0
  9 10  1  0
 10 11  1  0
 10 12  2  0
  5 13  2  0
 13 14  1  0
 14 15  2  0
 15 16  1  0
 16 17  2  0
 17 18  1  0
 18 19  2  0
 19 20  1  0
 20 21  1  0
 20 22  2  0
 19 23  1  0
 23 24  1  0
 24 25  2  0
 24 26  1  0
 26 27  1  0
 27 28  2  0
 27 29  1  0
 23 30  1  0
 30 31  2  0
 13  2  1  0
 31 14  1  0
 12  6  1  0
 30 17  1  0
  1 32  1  0
  1 33  1  0
  1 34  1  0
  3 35  1  0
  7 36  1  0
  8 37  1  0
  9 38  1  0
 12 39  1  0
 15 40  1  0
 16 41  1  0
 18 42  1  0
 21 43  1  0
 21 44  1  0
 26 45  1  0
 26 46  1  0
 31 47  1  0
M  CHG  1  29  -1
M  END
>  <UniqueID>  (7) 
7

>  <SMILES>  (7) 
Cn1cnc(-c2cccc(F)c2)c1-c1ccc2cc(C(N)=O)n(C(=O)CC(=O)[O-])c2c1

>  <Energy>  (7) 
126.9924831848599

>  <Genealogy>  (7) 
Cn1cnc(-c2cccc(F)c2)c1-c1ccc2cc(C(N)=O)n(C(=O)CC(=O)[O-])c2c1 (protonated)
Cn1cnc(-c2cccc(F)c2)c1-c1ccc2cc(C(N)=O)n(C(=O)CC(=O)[O-])c2c1 (3D coordinates assigned)
Cn1cnc(-c2cccc(F)c2)c1-c1ccc2cc(C(N)=O)n(C(=O)CC(=O)[O-])c2c1 (optimized conformer: 126.9924831848599 kcal/mol)

>  <smiles>  (7) 
Cn1cnc(-c2cccc(F)c2)c1-c1ccc2cc(C(N)=O)n(C(=O)CC(=O)O)c2c1

>  <score_type>  (7) 
oracle

>  <origin>  (7) 
adg

>  <m_score__min__energy>  (7) 
-9.2100000000000009

>  <m_primary>  (7) 
energy

$$$$
7:0
     RDKit          3D

 46 47  0  0  0  0  0  0  0  0999 V2000
  149.6250  161.5540  130.6660 C   0  0  0  0  0  0  0  0  0  0  0  0
  149.0160  160.3260  131.2730 C   0  0  0  0  0  0  0  0  0  0  0  0
  149.7270  159.1010  131.2580 C   0  0  0  0  0  0  0  0  0  0  0  0
  149.1900  157.9560  131.8690 C   0  0  0  0  0  0  0  0  0  0  0  0
  147.9470  158.0650  132.4850 C   0  0  0  0  0  0  0  0  0  0  0  0
  147.2200  157.1280  133.1820 C   0  0  0  0  0  0  0  0  0  0  0  0
  146.0700  157.7900  133.5980 C   0  0  0  0  0  0  0  0  0  0  0  0
  144.9750  157.1290  134.3350 C   0  0  0  0  0  0  0  0  0  0  0  0
  143.6650  157.6970  134.3810 N   0  0  0  0  0  0  0  0  0  0  0  0
  145.1840  156.0170  134.8890 O   0  0  0  0  0  0  0  0  0  0  0  0
  146.0870  159.0900  133.1900 N   0  0  0  0  0  0  0  0  0  0  0  0
  145.1400  160.1230  133.5130 C   0  0  0  0  0  0  0  0  0  0  0  0
  145.5100  161.1330  134.1730 O   0  0  0  0  0  0  0  0  0  0  0  0
  143.8130  160.0060  133.0910 O   0  0  0  0  0  0  0  0  0  0  0  0
  142.7540  160.7650  133.6620 C   0  0  0  0  0  0  0  0  0  0  0  0
  141.6700  159.8930  133.9610 O   0  0  0  0  0  0  0  0  0  0  0  0
  140.6730  159.5860  133.0310 C   0  0  0  0  0  0  0  0  0  0  0  0
  139.8290  160.4570  132.6820 O   0  0  0  0  0  0  0  0  0  0  0  0
  140.6330  158.2060  132.4220 C   0  0  1  0  0  0  0  0  0  0  0  0
  141.9720  157.6090  132.4330 N   0  0  0  0  0  0  0  0  0  0  0  0
  139.6160  157.2890  133.1560 C   0  0  0  0  0  0  0  0  0  0  0  0
  139.5490  157.6260  134.6530 C   0  0  0  0  0  0  0  0  0  0  0  0
  139.9720  155.8030  132.9820 C   0  0  0  0  0  0  0  0  0  0  0  0
  147.2440  159.2430  132.5060 C   0  0  0  0  0  0  0  0  0  0  0  0
  147.7660  160.4060  131.9240 C   0  0  0  0  0  0  0  0  0  0  0  0
  149.9605  162.2306  131.4658 H   0  0  0  0  0  0  0  0  0  0  0  0
  150.4853  161.2672  130.0434 H   0  0  0  0  0  0  0  0  0  0  0  0
  148.8760  162.0653  130.0434 H   0  0  0  0  0  0  0  0  0  0  0  0
  150.7081  159.0460  130.7636 H   0  0  0  0  0  0  0  0  0  0  0  0
  149.7360  157.0011  131.8608 H   0  0  0  0  0  0  0  0  0  0  0  0
  147.4907  156.0786  133.3702 H   0  0  0  0  0  0  0  0  0  0  0  0
  143.4140  158.5240  133.7940 H   0  0  0  0  0  0  0  0  0  0  0  0
  142.9130  157.2360  134.9410 H   0  0  0  0  0  0  0  0  0  0  0  0
  143.1035  161.2495  134.5856 H   0  0  0  0  0  0  0  0  0  0  0  0
  142.4250  161.5380  132.9519 H   0  0  0  0  0  0  0  0  0  0  0  0
  140.2964  158.3038  131.3793 H   0  0  0  0  0  0  0  0  0  0  0  0
  142.1140  157.0830  131.5390 H   0  0  0  0  0  0  0  0  0  0  0  0
  142.6940  158.3640  132.4740 H   0  0  0  0  0  0  0  0  0  0  0  0
  138.6313  157.4721  132.7012 H   0  0  0  0  0  0  0  0  0  0  0  0
  139.7301  156.7151  135.2424 H   0  0  0  0  0  0  0  0  0  0  0  0
  140.3154  158.3773  134.8944 H   0  0  0  0  0  0  0  0  0  0  0  0
  138.5535  158.0270  134.8944 H   0  0  0  0  0  0  0  0  0  0  0  0
  140.0842  155.3346  133.9709 H   0  0  0  0  0  0  0  0  0  0  0  0
  139.1698  155.2965  132.4253 H   0  0  0  0  0  0  0  0  0  0  0  0
  140.9166  155.7150  132.4253 H   0  0  0  0  0  0  0  0  0  0  0  0
  147.2156  161.3572  131.9732 H   0  0  0  0  0  0  0  0  0  0  0  0
  1  2  1  0
  2  3  2  0
  3  4  1  0
  4  5  2  0
  5  6  1  0
  6  7  2  0
  7  8  1  0
  8  9  1  0
  8 10  2  0
  7 11  1  0
 11 12  1  0
 12 13  2  0
 12 14  1  0
 14 15  1  0
 15 16  1  0
 16 17  1  0
 17 18  2  0
 17 19  1  0
 19 20  1  0
 19 21  1  0
 21 22  1  0
 21 23  1  0
 11 24  1  0
 24 25  2  0
 25  2  1  0
 24  5  1  0
  1 26  1  0
  1 27  1  0
  1 28  1  0
  3 29  1  0
  4 30  1  0
  6 31  1  0
  9 32  1  0
  9 33  1  0
 15 34  1  0
 15 35  1  0
 19 36  1  6
 20 37  1  0
 20 38  1  0
 21 39  1  0
 22 40  1  0
 22 41  1  0
 22 42  1  0
 23 43  1  0
 23 44  1  0
 23 45  1  0
 25 46  1  0
M  END
>  <UniqueID>  (8) 
8

>  <SMILES>  (8) 
Cc1ccc2cc(C(N)=O)n(C(=O)OCOC(=O)[C@@H](N)C(C)C)c2c1

>  <Energy>  (8) 
75.6248844766372

>  <Genealogy>  (8) 
Cc1ccc2cc(C(N)=O)n(C(=O)OCOC(=O)[C@@H](N)C(C)C)c2c1 (chirality)
Cc1ccc2cc(C(N)=O)n(C(=O)OCOC(=O)[C@@H](N)C(C)C)c2c1 (3D coordinates assigned)
Cc1ccc2cc(C(N)=O)n(C(=O)OCOC(=O)[C@@H](N)C(C)C)c2c1 (optimized conformer: 75.6248844766372 kcal/mol)

>  <smiles>  (8) 
Cc1ccc2cc(C(N)=O)n(C(=O)OCOC(=O)C(N)C(C)C)c2c1

>  <score_type>  (8) 
oracle

>  <origin>  (8) 
adg

>  <m_score__min__energy>  (8) 
-7.4199999999999999

>  <m_primary>  (8) 
energy

$$$$
8:0
     RDKit          3D

 43 44  0  0  0  0  0  0  0  0999 V2000
  149.2660  160.4100  130.2550 C   0  0  0  0  0  0  0  0  0  0  0  0
  148.7960  159.0950  130.5260 O   0  0  0  0  0  0  0  0  0  0  0  0
  149.2400  158.3480  131.6200 C   0  0  0  0  0  0  0  0  0  0  0  0
  150.4730  158.2220  131.8570 O   0  0  0  0  0  0  0  0  0  0  0  0
  148.2430  157.6520  132.4880 C   0  0  0  0  0  0  0  0  0  0  0  0
  147.1900  158.6250  132.9410 C   0  0  0  0  0  0  0  0  0  0  0  0
  147.5460  159.9590  133.2610 C   0  0  0  0  0  0  0  0  0  0  0  0
  146.5680  160.8820  133.6650 C   0  0  0  0  0  0  0  0  0  0  0  0
  145.2460  160.4500  133.7210 C   0  0  0  0  0  0  0  0  0  0  0  0
  144.1090  161.1270  134.1020 C   0  0  0  0  0  0  0  0  0  0  0  0
  143.0710  160.2070  133.9720 C   0  0  0  0  0  0  0  0  0  0  0  0
  141.6520  160.5470  134.2020 C   0  0  0  0  0  0  0  0  0  0  0  0
  140.9590  160.0620  135.3500 N   0  0  0  0  0  0  0  0  0  0  0  0
  141.0280  161.2330  133.3490 O   0  0  0  0  0  0  0  0  0  0  0  0
  143.5470  159.0070  133.5350 N   0  0  0  0  0  0  0  0  0  0  0  0
  142.8160  157.7820  133.3730 C   0  0  0  0  0  0  0  0  0  0  0  0
  143.2760  156.8740  132.6300 O   0  0  0  0  0  0  0  0  0  0  0  0
  141.6090  157.6020  134.0660 O   0  0  0  0  0  0  0  0  0  0  0  0
  140.3150  157.3910  133.4840 C   0  0  0  0  0  0  0  0  0  0  0  0
  139.2030  157.7570  134.4850 C   0  0  0  0  0  0  0  0  0  0  0  0
  140.1630  155.9310  133.0140 C   0  0  0  0  0  0  0  0  0  0  0  0
  140.2100  158.3170  132.2630 C   0  0  0  0  0  0  0  0  0  0  0  0
  144.8800  159.1720  133.3860 C   0  0  0  0  0  0  0  0  0  0  0  0
  145.8360  158.2260  132.9990 C   0  0  0  0  0  0  0  0  0  0  0  0
  149.4536  160.9350  131.2033 H   0  0  0  0  0  0  0  0  0  0  0  0
  150.1997  160.3537  129.6761 H   0  0  0  0  0  0  0  0  0  0  0  0
  148.5082  160.9582  129.6761 H   0  0  0  0  0  0  0  0  0  0  0  0
  147.7679  156.8397  131.9184 H   0  0  0  0  0  0  0  0  0  0  0  0
  148.7563  157.2384  133.3686 H   0  0  0  0  0  0  0  0  0  0  0  0
  148.5977  160.2740  133.1923 H   0  0  0  0  0  0  0  0  0  0  0  0
  146.8383  161.9150  133.9292 H   0  0  0  0  0  0  0  0  0  0  0  0
  144.0359  162.1720  134.4376 H   0  0  0  0  0  0  0  0  0  0  0  0
  140.9120  159.0400  135.5580 H   0  0  0  0  0  0  0  0  0  0  0  0
  139.5785  157.6334  135.5115 H   0  0  0  0  0  0  0  0  0  0  0  0
  138.8990  158.8026  134.3292 H   0  0  0  0  0  0  0  0  0  0  0  0
  138.3374  157.0964  134.3292 H   0  0  0  0  0  0  0  0  0  0  0  0
  140.0941  155.2691  133.8899 H   0  0  0  0  0  0  0  0  0  0  0  0
  139.2499  155.8339  132.4083 H   0  0  0  0  0  0  0  0  0  0  0  0
  141.0365  155.6479  132.4083 H   0  0  0  0  0  0  0  0  0  0  0  0
  140.0921  159.3572  132.6008 H   0  0  0  0  0  0  0  0  0  0  0  0
  141.1238  158.2297  131.6569 H   0  0  0  0  0  0  0  0  0  0  0  0
  139.3390  158.0273  131.6569 H   0  0  0  0  0  0  0  0  0  0  0  0
  145.5404  157.1971  132.7462 H   0  0  0  0  0  0  0  0  0  0  0  0
  1  2  1  0
  2  3  1  0
  3  4  2  0
  3  5  1  0
  5  6  1  0
  6  7  2  0
  7  8  1  0
  8  9  2  0
  9 10  1  0
 10 11  2  0
 11 12  1  0
 12 13  1  0
 12 14  2  0
 11 15  1  0
 15 16  1  0
 16 17  2  0
 16 18  1  0
 18 19  1  0
 19 20  1  0
 19 21  1  0
 19 22  1  0
 15 23  1  0
 23 24  2  0
 24  6  1  0
 23  9  1  0
  1 25  1  0
  1 26  1  0
  1 27  1  0
  5 28  1  0
  5 29  1  0
  7 30  1  0
  8 31  1  0
 10 32  1  0
 13 33  1  0
 20 34  1  0
 20 35  1  0
 20 36  1  0
 21 37  1  0
 21 38  1  0
 21 39  1  0
 22 40  1  0
 22 41  1  0
 22 42  1  0
 24 43  1  0
M  CHG  1  13  -1
M  END
>  <UniqueID>  (9) 
9

>  <SMILES>  (9) 
COC(=O)Cc1ccc2cc(C([NH-])=O)n(C(=O)OC(C)(C)C)c2c1

>  <Energy>  (9) 
72.73386921862155

>  <Genealogy>  (9) 
COC(=O)Cc1ccc2cc(C([NH-])=O)n(C(=O)OC(C)(C)C)c2c1 (protonated)
COC(=O)Cc1ccc2cc(C([NH-])=O)n(C(=O)OC(C)(C)C)c2c1 (3D coordinates assigned)
COC(=O)Cc1ccc2cc(C([NH-])=O)n(C(=O)OC(C)(C)C)c2c1 (optimized conformer: 72.73386921862155 kcal/mol)

>  <smiles>  (9) 
COC(=O)Cc1ccc2cc(C(N)=O)n(C(=O)OC(C)(C)C)c2c1

>  <score_type>  (9) 
oracle

>  <origin>  (9) 
adg

>  <m_score__min__energy>  (9) 
-6.8499999999999996

>  <m_primary>  (9) 
energy

$$$$
9:0
     RDKit          3D

 46 47  0  0  0  0  0  0  0  0999 V2000
  140.2160  159.3510  130.7670 C   0  0  0  0  0  0  0  0  0  0  0  0
  138.9600  159.1300  130.3900 C   0  0  0  0  0  0  0  0  0  0  0  0
  137.8280  159.2760  131.3170 C   0  0  0  0  0  0  0  0  0  0  0  0
  136.8650  160.0230  130.9910 O   0  0  0  0  0  0  0  0  0  0  0  0
  137.8160  158.5840  132.5350 O   0  0  0  0  0  0  0  0  0  0  0  0
  138.8550  157.7060  132.9660 C   0  0  0  0  0  0  0  0  0  0  0  0
  138.8060  157.5420  134.3810 O   0  0  0  0  0  0  0  0  0  0  0  0
  139.9270  157.2590  135.1690 C   0  0  0  0  0  0  0  0  0  0  0  0
  139.9530  157.5660  136.3920 O   0  0  0  0  0  0  0  0  0  0  0  0
  141.0820  156.5160  134.5750 C   0  0  0  0  0  0  0  0  0  0  0  0
  142.2860  157.2690  134.6870 O   0  0  0  0  0  0  0  0  0  0  0  0
  143.0580  157.6570  133.5840 C   0  0  0  0  0  0  0  0  0  0  0  0
  143.1280  156.9180  132.5650 O   0  0  0  0  0  0  0  0  0  0  0  0
  143.7790  158.9000  133.6220 N   0  0  0  0  0  0  0  0  0  0  0  0
  143.2890  160.1340  133.9360 C   0  0  0  0  0  0  0  0  0  0  0  0
  141.8670  160.4750  134.1510 C   0  0  0  0  0  0  0  0  0  0  0  0
  141.1830  159.9720  135.2950 N   0  0  0  0  0  0  0  0  0  0  0  0
  141.2610  161.2420  133.3580 O   0  0  0  0  0  0  0  0  0  0  0  0
  144.3110  161.0790  133.9380 C   0  0  0  0  0  0  0  0  0  0  0  0
  145.4500  160.3850  133.6030 C   0  0  0  0  0  0  0  0  0  0  0  0
  146.7570  160.8330  133.4600 C   0  0  0  0  0  0  0  0  0  0  0  0
  147.7430  159.8940  133.1210 C   0  0  0  0  0  0  0  0  0  0  0  0
  147.4190  158.5210  132.9370 C   0  0  0  0  0  0  0  0  0  0  0  0
  148.4500  157.5580  132.5910 N   0  0  0  0  0  0  0  0  0  0  0  0
  148.2980  156.1410  132.9460 C   0  0  0  0  0  0  0  0  0  0  0  0
  149.6590  157.9860  131.8780 C   0  0  0  0  0  0  0  0  0  0  0  0
  146.0710  158.1090  133.1000 C   0  0  0  0  0  0  0  0  0  0  0  0
  145.1050  159.0730  133.4180 C   0  0  0  0  0  0  0  0  0  0  0  0
  141.0364  159.2313  130.0441 H   0  0  0  0  0  0  0  0  0  0  0  0
  140.4345  159.6535  131.8018 H   0  0  0  0  0  0  0  0  0  0  0  0
  138.7615  158.8282  129.3510 H   0  0  0  0  0  0  0  0  0  0  0  0
  138.7269  156.7265  132.4821 H   0  0  0  0  0  0  0  0  0  0  0  0
  139.8278  158.1379  132.6884 H   0  0  0  0  0  0  0  0  0  0  0  0
  141.2052  155.5599  135.1047 H   0  0  0  0  0  0  0  0  0  0  0  0
  140.8755  156.3423  133.5086 H   0  0  0  0  0  0  0  0  0  0  0  0
  141.3380  158.9940  135.6270 H   0  0  0  0  0  0  0  0  0  0  0  0
  144.2257  162.1529  134.1603 H   0  0  0  0  0  0  0  0  0  0  0  0
  147.0116  161.8928  133.6082 H   0  0  0  0  0  0  0  0  0  0  0  0
  148.7844  160.2252  132.9953 H   0  0  0  0  0  0  0  0  0  0  0  0
  148.2868  156.0365  134.0410 H   0  0  0  0  0  0  0  0  0  0  0  0
  147.3537  155.7584  132.5315 H   0  0  0  0  0  0  0  0  0  0  0  0
  149.1397  155.5668  132.5315 H   0  0  0  0  0  0  0  0  0  0  0  0
  150.4361  158.2611  132.6063 H   0  0  0  0  0  0  0  0  0  0  0  0
  150.0233  157.1622  131.2466 H   0  0  0  0  0  0  0  0  0  0  0  0
  149.4239  158.8555  131.2466 H   0  0  0  0  0  0  0  0  0  0  0  0
  145.7895  157.0525  132.9790 H   0  0  0  0  0  0  0  0  0  0  0  0
  1  2  2  0
  2  3  1  0
  3  4  2  0
  3  5  1  0
  5  6  1  0
  6  7  1  0
  7  8  1  0
  8  9  2  0
  8 10  1  0
 10 11  1  0
 11 12  1  0
 12 13  2  0
 12 14  1  0
 14 15  1  0
 15 16  1  0
 16 17  1  0
 16 18  2  0
 15 19  2  0
 19 20  1  0
 20 21  2  0
 21 22  1  0
 22 23  2  0
 23 24  1  0
 24 25  1  0
 24 26  1  0
 23 27  1  0
 27 28  2  0
 28 14  1  0
 28 20  1  0
  1 29  1  0
  1 30  1  0
  2 31  1  0
  6 32  1  0
  6 33  1  0
 10 34  1  0
 10 35  1  0
 17 36  1  0
 19 37  1  0
 21 38  1  0
 22 39  1  0
 25 40  1  0
 25 41  1  0
 25 42  1  0
 26 43  1  0
 26 44  1  0
 26 45  1  0
 27 46  1  0
M  CHG  1  17  -1
M  END
>  <UniqueID>  (10) 
10

>  <SMILES>  (10) 
C=CC(=O)OCOC(=O)COC(=O)n1c(C([NH-])=O)cc2ccc(N(C)C)cc21

>  <Energy>  (10) 
79.37561236729852

>  <Genealogy>  (10) 
C=CC(=O)OCOC(=O)COC(=O)n1c(C([NH-])=O)cc2ccc(N(C)C)cc21 (protonated)
C=CC(=O)OCOC(=O)COC(=O)n1c(C([NH-])=O)cc2ccc(N(C)C)cc21 (3D coordinates assigned)
C=CC(=O)OCOC(=O)COC(=O)n1c(C([NH-])=O)cc2ccc(N(C)C)cc21 (optimized conformer: 79.37561236729852 kcal/mol)

>  <smiles>  (10) 
C=CC(=O)OCOC(=O)COC(=O)n1c(C(N)=O)cc2ccc(N(C)C)cc21

>  <score_type>  (10) 
oracle

>  <origin>  (10) 
adg

>  <m_score__min__energy>  (10) 
-6.2699999999999996

>  <m_primary>  (10) 
energy

$$$$
10:0
     RDKit          3D

 38 39  0  0  0  0  0  0  0  0999 V2000
  148.8610  154.0100  132.5360 C   0  0  0  0  0  0  0  0  0  0  0  0
  148.5730  155.1760  132.6470 C   0  0  0  0  0  0  0  0  0  0  0  0
  148.2290  156.5680  132.7790 C   0  0  0  0  0  0  0  0  0  0  0  0
  149.2020  157.5620  132.5220 C   0  0  0  0  0  0  0  0  0  0  0  0
  148.8810  158.9230  132.6560 C   0  0  0  0  0  0  0  0  0  0  0  0
  147.5850  159.2530  133.0430 C   0  0  0  0  0  0  0  0  0  0  0  0
  147.0080  160.4840  133.2610 C   0  0  0  0  0  0  0  0  0  0  0  0
  145.6910  160.2160  133.6320 C   0  0  0  0  0  0  0  0  0  0  0  0
  144.6680  161.2570  133.8710 C   0  0  0  0  0  0  0  0  0  0  0  0
  143.2820  160.9810  133.6620 N   0  0  0  0  0  0  0  0  0  0  0  0
  145.0110  162.3930  134.2880 O   0  0  0  0  0  0  0  0  0  0  0  0
  145.4660  158.8710  133.6470 N   0  0  0  0  0  0  0  0  0  0  0  0
  144.2690  158.1770  134.0310 C   0  0  0  0  0  0  0  0  0  0  0  0
  143.4830  158.7090  134.8620 O   0  0  0  0  0  0  0  0  0  0  0  0
  143.8720  156.9020  133.3370 C   0  0  0  0  0  0  0  0  0  0  0  0
  142.7560  157.1230  132.3150 C   0  0  0  0  0  0  0  0  0  0  0  0
  142.1010  158.3400  132.6070 O   0  0  0  0  0  0  0  0  0  0  0  0
  140.7000  158.1460  132.6830 C   0  0  0  0  0  0  0  0  0  0  0  0
  140.0070  159.4120  133.1910 C   0  0  0  0  0  0  0  0  0  0  0  0
  140.9160  160.2310  133.8760 O   0  0  0  0  0  0  0  0  0  0  0  0
  146.6310  158.2970  133.2810 C   0  0  0  0  0  0  0  0  0  0  0  0
  146.9250  156.9340  133.1680 C   0  0  0  0  0  0  0  0  0  0  0  0
  149.1236  152.9466  132.4348 H   0  0  0  0  0  0  0  0  0  0  0  0
  150.2164  157.2674  132.2153 H   0  0  0  0  0  0  0  0  0  0  0  0
  149.6306  159.7041  132.4611 H   0  0  0  0  0  0  0  0  0  0  0  0
  147.4851  161.4703  133.1632 H   0  0  0  0  0  0  0  0  0  0  0  0
  142.9610  160.0730  133.2600 H   0  0  0  0  0  0  0  0  0  0  0  0
  142.5660  161.7130  133.8700 H   0  0  0  0  0  0  0  0  0  0  0  0
  144.7513  156.4926  132.8182 H   0  0  0  0  0  0  0  0  0  0  0  0
  143.4968  156.2049  134.1007 H   0  0  0  0  0  0  0  0  0  0  0  0
  143.1857  157.1687  131.3034 H   0  0  0  0  0  0  0  0  0  0  0  0
  142.0367  156.2922  132.3639 H   0  0  0  0  0  0  0  0  0  0  0  0
  140.3145  157.8996  131.6826 H   0  0  0  0  0  0  0  0  0  0  0  0
  140.4937  157.3237  133.3839 H   0  0  0  0  0  0  0  0  0  0  0  0
  139.5945  159.9666  132.3352 H   0  0  0  0  0  0  0  0  0  0  0  0
  139.2007  159.1225  133.8810 H   0  0  0  0  0  0  0  0  0  0  0  0
  141.6550  159.6430  134.1800 H   0  0  0  0  0  0  0  0  0  0  0  0
  146.1610  156.1706  133.3766 H   0  0  0  0  0  0  0  0  0  0  0  0
  1  2  3  0
  2  3  1  0
  3  4  2  0
  4  5  1  0
  5  6  2  0
  6  7  1  0
  7  8  2  0
  8  9  1  0
  9 10  1  0
  9 11  2  0
  8 12  1  0
 12 13  1  0
 13 14  2  0
 13 15  1  0
 15 16  1  0
 16 17  1  0
 17 18  1  0
 18 19  1  0
 19 20  1  0
 12 21  1  0
 21 22  2  0
 22  3  1  0
 21  6  1  0
  1 23  1  0
  4 24  1  0
  5 25  1  0
  7 26  1  0
 10 27  1  0
 10 28  1  0
 15 29  1  0
 15 30  1  0
 16 31  1  0
 16 32  1  0
 18 33  1  0
 18 34  1  0
 19 35  1  0
 19 36  1  0
 20 37  1  0
 22 38  1  0
M  END
>  <UniqueID>  (11) 
11

>  <SMILES>  (11) 
C#Cc1ccc2cc(C(N)=O)n(C(=O)CCOCCO)c2c1

>  <Energy>  (11) 
73.77603845151074

>  <Genealogy>  (11) 
C#Cc1ccc2cc(C(N)=O)n(C(=O)CCOCCO)c2c1 (3D coordinates assigned)
C#Cc1ccc2cc(C(N)=O)n(C(=O)CCOCCO)c2c1 (optimized conformer: 73.77603845151074 kcal/mol)

>  <smiles>  (11) 
C#Cc1ccc2cc(C(N)=O)n(C(=O)CCOCCO)c2c1

>  <score_type>  (11) 
oracle

>  <origin>  (11) 
adg

>  <m_score__min__energy>  (11) 
-5.8499999999999996

>  <m_primary>  (11) 
energy

$$$$
11:0
     RDKit          3D

 38 39  0  0  0  0  0  0  0  0999 V2000
  142.6410  149.4060  132.2330 C   0  0  0  0  0  0  0  0  0  0  0  0
  141.4380  150.2410  132.2930 N   0  0  0  0  0  0  0  0  0  0  0  0
  140.1800  149.7620  131.7060 C   0  0  0  0  0  0  0  0  0  0  0  0
  141.5120  151.5350  132.9310 C   0  0  0  0  0  0  0  0  0  0  0  0
  142.6010  151.9210  133.4380 O   0  0  0  0  0  0  0  0  0  0  0  0
  140.3340  152.4630  132.9780 C   0  0  0  0  0  0  0  0  0  0  0  0
  140.7790  153.7980  132.7660 O   0  0  0  0  0  0  0  0  0  0  0  0
  139.9880  154.9140  133.0480 C   0  0  0  0  0  0  0  0  0  0  0  0
  138.7320  154.8400  132.9670 O   0  0  0  0  0  0  0  0  0  0  0  0
  140.6110  156.1420  133.4570 N   0  0  0  0  0  0  0  0  0  0  0  0
  141.7140  156.3040  134.2430 C   0  0  0  0  0  0  0  0  0  0  0  0
  142.4360  155.2320  134.9590 C   0  0  0  0  0  0  0  0  0  0  0  0
  141.7290  154.0760  135.4040 N   0  0  0  0  0  0  0  0  0  0  0  0
  143.6790  155.3060  135.1500 O   0  0  0  0  0  0  0  0  0  0  0  0
  142.0370  157.6550  134.3590 C   0  0  0  0  0  0  0  0  0  0  0  0
  141.0850  158.3220  133.6230 C   0  0  0  0  0  0  0  0  0  0  0  0
  140.9360  159.6840  133.3800 C   0  0  0  0  0  0  0  0  0  0  0  0
  139.8760  160.0940  132.5540 C   0  0  0  0  0  0  0  0  0  0  0  0
  138.9810  159.1440  131.9980 C   0  0  0  0  0  0  0  0  0  0  0  0
  137.8850  159.5900  131.0630 C   0  0  0  0  0  0  0  0  0  0  0  0
  138.3510  159.6630  129.7620 F   0  0  0  0  0  0  0  0  0  0  0  0
  137.4150  160.8410  131.4260 F   0  0  0  0  0  0  0  0  0  0  0  0
  136.8430  158.6840  131.1190 F   0  0  0  0  0  0  0  0  0  0  0  0
  139.1820  157.7670  132.2490 C   0  0  0  0  0  0  0  0  0  0  0  0
  140.2360  157.3890  133.0900 C   0  0  0  0  0  0  0  0  0  0  0  0
  142.9768  149.1729  133.2542 H   0  0  0  0  0  0  0  0  0  0  0  0
  142.4124  148.4714  131.6999 H   0  0  0  0  0  0  0  0  0  0  0  0
  143.4367  149.9470  131.6999 H   0  0  0  0  0  0  0  0  0  0  0  0
  139.4785  149.4949  132.5101 H   0  0  0  0  0  0  0  0  0  0  0  0
  139.7400  150.5555  131.0841 H   0  0  0  0  0  0  0  0  0  0  0  0
  140.3792  148.8768  131.0841 H   0  0  0  0  0  0  0  0  0  0  0  0
  139.6160  152.1857  132.1921 H   0  0  0  0  0  0  0  0  0  0  0  0
  139.8451  152.3889  133.9606 H   0  0  0  0  0  0  0  0  0  0  0  0
  141.5180  153.2910  134.7480 H   0  0  0  0  0  0  0  0  0  0  0  0
  142.8750  158.0945  134.9198 H   0  0  0  0  0  0  0  0  0  0  0  0
  141.6271  160.4174  133.8212 H   0  0  0  0  0  0  0  0  0  0  0  0
  139.7385  161.1634  132.3360 H   0  0  0  0  0  0  0  0  0  0  0  0
  138.5257  157.0104  131.7942 H   0  0  0  0  0  0  0  0  0  0  0  0
  1  2  1  0
  2  3  1  0
  2  4  1  0
  4  5  2  0
  4  6  1  0
  6  7  1  0
  7  8  1  0
  8  9  2  0
  8 10  1  0
 10 11  1  0
 11 12  1  0
 12 13  1  0
 12 14  2  0
 11 15  2  0
 15 16  1  0
 16 17  2  0
 17 18  1  0
 18 19  2  0
 19 20  1  0
 20 21  1  0
 20 22  1  0
 20 23  1  0
 19 24  1  0
 24 25  2  0
 25 10  1  0
 25 16  1  0
  1 26  1  0
  1 27  1  0
  1 28  1  0
  3 29  1  0
  3 30  1  0
  3 31  1  0
  6 32  1  0
  6 33  1  0
 13 34  1  0
 15 35  1  0
 17 36  1  0
 18 37  1  0
 24 38  1  0
M  CHG  1  13  -1
M  END
>  <UniqueID>  (12) 
12

>  <SMILES>  (12) 
CN(C)C(=O)COC(=O)n1c(C([NH-])=O)cc2ccc(C(F)(F)F)cc21

>  <Energy>  (12) 
71.67905867992381

>  <Genealogy>  (12) 
CN(C)C(=O)COC(=O)n1c(C([NH-])=O)cc2ccc(C(F)(F)F)cc21 (protonated)
CN(C)C(=O)COC(=O)n1c(C([NH-])=O)cc2ccc(C(F)(F)F)cc21 (3D coordinates assigned)
CN(C)C(=O)COC(=O)n1c(C([NH-])=O)cc2ccc(C(F)(F)F)cc21 (optimized conformer: 71.67905867992381 kcal/mol)

>  <smiles>  (12) 
CN(C)C(=O)COC(=O)n1c(C(N)=O)cc2ccc(C(F)(F)F)cc21

>  <score_type>  (12) 
oracle

>  <origin>  (12) 
adg

>  <m_score__min__energy>  (12) 
-5.8399999999999999

>  <m_primary>  (12) 
energy

$$$$
12:0
     RDKit          3D

 38 39  0  0  0  0  0  0  0  0999 V2000
  148.1600  159.3990  133.6230 C   0  0  0  0  0  0  0  0  0  0  0  0
  147.0890  157.9670  133.2920 S   0  0  0  0  0  0  0  0  0  0  0  0
  145.5950  158.9590  133.2170 C   0  0  0  0  0  0  0  0  0  0  0  0
  145.6210  160.1130  132.6310 N   0  0  0  0  0  0  0  0  0  0  0  0
  144.3910  158.4610  133.8250 N   0  0  0  0  0  0  0  0  0  0  0  0
  143.1220  159.1390  133.7990 C   0  0  0  0  0  0  0  0  0  0  0  0
  142.9900  160.2270  133.1760 O   0  0  0  0  0  0  0  0  0  0  0  0
  141.9520  158.5630  134.4900 C   0  0  0  0  0  0  0  0  0  0  0  0
  141.5750  159.0410  135.5930 O   0  0  0  0  0  0  0  0  0  0  0  0
  141.2360  157.4590  133.9160 N   0  0  0  0  0  0  0  0  0  0  0  0
  140.2010  157.5060  133.0310 C   0  0  0  0  0  0  0  0  0  0  0  0
  139.5200  158.7290  132.5570 C   0  0  0  0  0  0  0  0  0  0  0  0
  140.2590  159.8190  132.0120 N   0  0  0  0  0  0  0  0  0  0  0  0
  138.2670  158.8240  132.6590 O   0  0  0  0  0  0  0  0  0  0  0  0
  139.8210  156.2160  132.6600 C   0  0  0  0  0  0  0  0  0  0  0  0
  140.6630  155.3730  133.3500 C   0  0  0  0  0  0  0  0  0  0  0  0
  140.7350  153.9830  133.3580 C   0  0  0  0  0  0  0  0  0  0  0  0
  141.7210  153.3790  134.1550 C   0  0  0  0  0  0  0  0  0  0  0  0
  142.6240  154.1700  134.9110 C   0  0  0  0  0  0  0  0  0  0  0  0
  143.6560  153.5140  135.7820 C   0  0  0  0  0  0  0  0  0  0  0  0
  145.3230  154.0560  135.2980 P   0  0  0  0  0  0  0  0  0  0  0  0
  145.6710  153.4900  133.9400 O   0  0  0  0  0  0  0  0  0  0  0  0
  146.4520  153.5180  136.4370 O   0  0  0  0  0  0  0  0  0  0  0  0
  145.3620  155.7450  135.2270 O   0  0  0  0  0  0  0  0  0  0  0  0
  142.5170  155.5770  134.8820 C   0  0  0  0  0  0  0  0  0  0  0  0
  141.5110  156.1490  134.0970 C   0  0  0  0  0  0  0  0  0  0  0  0
  148.2629  159.5366  134.7095 H   0  0  0  0  0  0  0  0  0  0  0  0
  149.1517  159.2254  133.1799 H   0  0  0  0  0  0  0  0  0  0  0  0
  147.7132  160.3012  133.1799 H   0  0  0  0  0  0  0  0  0  0  0  0
  146.4950  160.4810  132.1930 H   0  0  0  0  0  0  0  0  0  0  0  0
  144.4540  157.5420  134.3160 H   0  0  0  0  0  0  0  0  0  0  0  0
  141.2920  159.7500  131.8730 H   0  0  0  0  0  0  0  0  0  0  0  0
  139.0183  155.9323  131.9634 H   0  0  0  0  0  0  0  0  0  0  0  0
  140.0407  153.3761  132.7583 H   0  0  0  0  0  0  0  0  0  0  0  0
  141.7938  152.2821  134.1935 H   0  0  0  0  0  0  0  0  0  0  0  0
  143.4745  153.7901  136.8312 H   0  0  0  0  0  0  0  0  0  0  0  0
  143.5848  152.4228  135.6630 H   0  0  0  0  0  0  0  0  0  0  0  0
  143.2071  156.2074  135.4619 H   0  0  0  0  0  0  0  0  0  0  0  0
  1  2  1  0
  2  3  1  0
  3  4  2  3
  3  5  1  0
  5  6  1  0
  6  7  2  0
  6  8  1  0
  8  9  2  0
  8 10  1  0
 10 11  1  0
 11 12  1  0
 12 13  1  0
 12 14  2  0
 11 15  2  0
 15 16  1  0
 16 17  2  0
 17 18  1  0
 18 19  2  0
 19 20  1  0
 20 21  1  0
 21 22  2  0
 21 23  1  0
 21 24  1  0
 19 25  1  0
 25 26  2  0
 26 10  1  0
 26 16  1  0
  1 27  1  0
  1 28  1  0
  1 29  1  0
  4 30  1  0
  5 31  1  0
 13 32  1  0
 15 33  1  0
 17 34  1  0
 18 35  1  0
 20 36  1  0
 20 37  1  0
 25 38  1  0
M  CHG  3  13  -1  23  -1  24  -1
M  END
>  <UniqueID>  (13) 
13

>  <SMILES>  (13) 
CSC(=N)NC(=O)C(=O)n1c(C([NH-])=O)cc2ccc(CP(=O)([O-])[O-])cc21

>  <Energy>  (13) 
68.27853393500986

>  <Genealogy>  (13) 
CSC(=N)NC(=O)C(=O)n1c(C([NH-])=O)cc2ccc(CP(=O)([O-])[O-])cc21 (protonated)
CSC(=N)NC(=O)C(=O)n1c(C([NH-])=O)cc2ccc(CP(=O)([O-])[O-])cc21 (3D coordinates assigned)
CSC(=N)NC(=O)C(=O)n1c(C([NH-])=O)cc2ccc(CP(=O)([O-])[O-])cc21 (optimized conformer: 68.27853393500986 kcal/mol)

>  <smiles>  (13) 
CSC(=N)NC(=O)C(=O)n1c(C(N)=O)cc2ccc(CP(=O)(O)O)cc21

>  <score_type>  (13) 
oracle

>  <origin>  (13) 
adg

>  <m_score__min__energy>  (13) 
-7.8600000000000003

>  <m_primary>  (13) 
energy

$$$$
13:0
     RDKit          3D

 38 40  0  0  0  0  0  0  0  0999 V2000
  138.2930  158.1390  131.3290 N   0  0  0  0  0  0  0  0  0  0  0  0
  139.5640  158.5990  131.7900 C   0  0  0  0  0  0  0  0  0  0  0  0
  140.3480  159.1570  130.9760 O   0  0  0  0  0  0  0  0  0  0  0  0
  139.9990  158.3860  133.1860 C   0  0  0  0  0  0  0  0  0  0  0  0
  140.3010  159.4230  134.0640 C   0  0  0  0  0  0  0  0  0  0  0  0
  140.6770  158.8080  135.2360 C   0  0  0  0  0  0  0  0  0  0  0  0
  141.0650  159.3620  136.4520 C   0  0  0  0  0  0  0  0  0  0  0  0
  141.3560  158.4880  137.5120 C   0  0  0  0  0  0  0  0  0  0  0  0
  141.2260  157.0840  137.3500 C   0  0  0  0  0  0  0  0  0  0  0  0
  141.5740  156.1520  138.4840 C   0  0  0  0  0  0  0  0  0  0  0  0
  140.4340  155.5560  138.9940 F   0  0  0  0  0  0  0  0  0  0  0  0
  142.1980  156.8410  139.5100 F   0  0  0  0  0  0  0  0  0  0  0  0
  142.4270  155.1690  138.0190 F   0  0  0  0  0  0  0  0  0  0  0  0
  140.8480  156.5590  136.0920 C   0  0  0  0  0  0  0  0  0  0  0  0
  140.5880  157.4530  135.0480 C   0  0  0  0  0  0  0  0  0  0  0  0
  140.1770  157.1770  133.7880 N   0  0  0  0  0  0  0  0  0  0  0  0
  139.8320  155.8860  133.2590 C   0  0  0  0  0  0  0  0  0  0  0  0
  138.7630  155.7520  132.6040 O   0  0  0  0  0  0  0  0  0  0  0  0
  140.7480  154.7360  133.4130 C   0  0  0  0  0  0  0  0  0  0  0  0
  141.9850  154.9470  133.5170 O   0  0  0  0  0  0  0  0  0  0  0  0
  140.2850  153.3800  133.3560 N   0  0  0  0  0  0  0  0  0  0  0  0
  141.0520  152.2290  132.9770 C   0  0  0  0  0  0  0  0  0  0  0  0
  142.4180  152.1960  133.2950 C   0  0  0  0  0  0  0  0  0  0  0  0
  143.1950  151.0830  132.9610 C   0  0  0  0  0  0  0  0  0  0  0  0
  142.6090  149.9860  132.3250 C   0  0  0  0  0  0  0  0  0  0  0  0
  141.2430  149.9960  132.0340 C   0  0  0  0  0  0  0  0  0  0  0  0
  140.4600  151.1070  132.3650 C   0  0  0  0  0  0  0  0  0  0  0  0
  139.1260  151.0650  132.1260 F   0  0  0  0  0  0  0  0  0  0  0  0
  137.9830  158.3480  130.3540 H   0  0  0  0  0  0  0  0  0  0  0  0
  137.6990  157.5120  131.9150 H   0  0  0  0  0  0  0  0  0  0  0  0
  140.2500  160.5034  133.8637 H   0  0  0  0  0  0  0  0  0  0  0  0
  141.1415  160.4519  136.5792 H   0  0  0  0  0  0  0  0  0  0  0  0
  141.6882  158.8959  138.4781 H   0  0  0  0  0  0  0  0  0  0  0  0
  140.7606  155.4733  135.9383 H   0  0  0  0  0  0  0  0  0  0  0  0
  142.8803  153.0509  133.8102 H   0  0  0  0  0  0  0  0  0  0  0  0
  144.2688  151.0710  133.1992 H   0  0  0  0  0  0  0  0  0  0  0  0
  143.2231  149.1147  132.0535 H   0  0  0  0  0  0  0  0  0  0  0  0
  140.7811  149.1270  131.5427 H   0  0  0  0  0  0  0  0  0  0  0  0
  1  2  1  0
  2  3  2  0
  2  4  1  0
  4  5  2  0
  5  6  1  0
  6  7  2  0
  7  8  1  0
  8  9  2  0
  9 10  1  0
 10 11  1  0
 10 12  1  0
 10 13  1  0
  9 14  1  0
 14 15  2  0
 15 16  1  0
 16 17  1  0
 17 18  2  0
 17 19  1  0
 19 20  2  0
 19 21  1  0
 21 22  1  0
 22 23  2  0
 23 24  1  0
 24 25  2  0
 25 26  1  0
 26 27  2  0
 27 28  1  0
 16  4  1  0
 27 22  1  0
 15  6  1  0
  1 29  1  0
  1 30  1  0
  5 31  1  0
  7 32  1  0
  8 33  1  0
 14 34  1  0
 23 35  1  0
 24 36  1  0
 25 37  1  0
 26 38  1  0
M  CHG  1  21  -1
M  END
>  <UniqueID>  (14) 
14

>  <SMILES>  (14) 
NC(=O)c1cc2ccc(C(F)(F)F)cc2n1C(=O)C(=O)[N-]c1ccccc1F

>  <Energy>  (14) 
87.95017188385141

>  <Genealogy>  (14) 
NC(=O)c1cc2ccc(C(F)(F)F)cc2n1C(=O)C(=O)[N-]c1ccccc1F (protonated)
NC(=O)c1cc2ccc(C(F)(F)F)cc2n1C(=O)C(=O)[N-]c1ccccc1F (3D coordinates assigned)
NC(=O)c1cc2ccc(C(F)(F)F)cc2n1C(=O)C(=O)[N-]c1ccccc1F (optimized conformer: 87.95017188385141 kcal/mol)

>  <smiles>  (14) 
NC(=O)c1cc2ccc(C(F)(F)F)cc2n1C(=O)C(=O)Nc1ccccc1F

>  <score_type>  (14) 
oracle

>  <origin>  (14) 
adg

>  <m_score__min__energy>  (14) 
-7.5800000000000001

>  <m_primary>  (14) 
energy

$$$$
14:0
     RDKit          3D

 43 44  0  0  0  0  0  0  0  0999 V2000
  147.8010  154.7690  132.9170 C   0  0  0  0  0  0  0  0  0  0  0  0
  147.4630  156.2250  133.0260 C   0  0  0  0  0  0  0  0  0  0  0  0
  148.4970  157.1920  133.0830 C   0  0  0  0  0  0  0  0  0  0  0  0
  148.1960  158.5550  133.2360 C   0  0  0  0  0  0  0  0  0  0  0  0
  146.8550  158.9200  133.3290 C   0  0  0  0  0  0  0  0  0  0  0  0
  146.2850  160.1580  133.5180 C   0  0  0  0  0  0  0  0  0  0  0  0
  144.9110  159.9290  133.5710 C   0  0  0  0  0  0  0  0  0  0  0  0
  143.9090  161.0030  133.7350 C   0  0  0  0  0  0  0  0  0  0  0  0
  142.5230  160.7140  133.5590 N   0  0  0  0  0  0  0  0  0  0  0  0
  144.2580  162.1730  134.0430 O   0  0  0  0  0  0  0  0  0  0  0  0
  144.6430  158.6020  133.4110 N   0  0  0  0  0  0  0  0  0  0  0  0
  143.3620  157.9500  133.4440 C   0  0  0  0  0  0  0  0  0  0  0  0
  142.8660  157.5010  132.3770 O   0  0  0  0  0  0  0  0  0  0  0  0
  142.6170  157.8200  134.7160 C   0  0  0  0  0  0  0  0  0  0  0  0
  142.8550  156.8280  135.4590 O   0  0  0  0  0  0  0  0  0  0  0  0
  141.6330  158.8090  135.1050 N   0  0  2  0  0  0  0  0  0  0  0  0
  141.5890  159.0120  136.5670 C   0  0  0  0  0  0  0  0  0  0  0  0
  140.2900  158.6220  134.4820 C   0  0  0  0  0  0  0  0  0  0  0  0
  140.2070  158.8040  133.0100 N   0  0  0  0  0  0  0  0  0  0  0  0
  139.5820  157.7090  132.2540 C   0  0  0  0  0  0  0  0  0  0  0  0
  139.8240  160.1350  132.5280 C   0  0  0  0  0  0  0  0  0  0  0  0
  145.8430  157.9980  133.2720 C   0  0  0  0  0  0  0  0  0  0  0  0
  146.1160  156.6310  133.1440 C   0  0  0  0  0  0  0  0  0  0  0  0
  147.9007  154.3393  133.9247 H   0  0  0  0  0  0  0  0  0  0  0  0
  147.0003  154.2464  132.3732 H   0  0  0  0  0  0  0  0  0  0  0  0
  148.7500  154.6526  132.3732 H   0  0  0  0  0  0  0  0  0  0  0  0
  149.5465  156.8717  133.0066 H   0  0  0  0  0  0  0  0  0  0  0  0
  148.9941  159.3107  133.2810 H   0  0  0  0  0  0  0  0  0  0  0  0
  146.8037  161.1238  133.6082 H   0  0  0  0  0  0  0  0  0  0  0  0
  142.2120  159.7930  133.1780 H   0  0  0  0  0  0  0  0  0  0  0  0
  141.9790  159.7270  134.7360 H   0  0  0  0  0  0  0  0  0  0  0  0
  141.7956  158.0589  137.0759 H   0  0  0  0  0  0  0  0  0  0  0  0
  142.3471  159.7544  136.8571 H   0  0  0  0  0  0  0  0  0  0  0  0
  140.5916  159.3739  136.8571 H   0  0  0  0  0  0  0  0  0  0  0  0
  139.9557  157.5993  134.7109 H   0  0  0  0  0  0  0  0  0  0  0  0
  139.6602  159.4169  134.9079 H   0  0  0  0  0  0  0  0  0  0  0  0
  139.1617  156.9727  132.9549 H   0  0  0  0  0  0  0  0  0  0  0  0
  138.7783  158.1127  131.6207 H   0  0  0  0  0  0  0  0  0  0  0  0
  140.3383  157.2223  131.6207 H   0  0  0  0  0  0  0  0  0  0  0  0
  139.6340  160.7954  133.3870 H   0  0  0  0  0  0  0  0  0  0  0  0
  140.6385  160.5524  131.9177 H   0  0  0  0  0  0  0  0  0  0  0  0
  138.9123  160.0556  131.9177 H   0  0  0  0  0  0  0  0  0  0  0  0
  145.3015  155.8917  133.1356 H   0  0  0  0  0  0  0  0  0  0  0  0
  1  2  1  0
  2  3  2  0
  3  4  1  0
  4  5  2  0
  5  6  1  0
  6  7  2  0
  7  8  1  0
  8  9  1  0
  8 10  2  0
  7 11  1  0
 11 12  1  0
 12 13  2  0
 12 14  1  0
 14 15  2  0
 14 16  1  0
 16 17  1  0
 16 18  1  0
 18 19  1  0
 19 20  1  0
 19 21  1  0
 11 22  1  0
 22 23  2  0
 23  2  1  0
 22  5  1  0
  1 24  1  0
  1 25  1  0
  1 26  1  0
  3 27  1  0
  4 28  1  0
  6 29  1  0
  9 30  1  0
 16 31  1  6
 17 32  1  0
 17 33  1  0
 17 34  1  0
 18 35  1  0
 18 36  1  0
 20 37  1  0
 20 38  1  0
 20 39  1  0
 21 40  1  0
 21 41  1  0
 21 42  1  0
 23 43  1  0
M  CHG  2   9  -1  16   1
M  END
>  <UniqueID>  (15) 
15

>  <SMILES>  (15) 
Cc1ccc2cc(C([NH-])=O)n(C(=O)C(=O)[N@H+](C)CN(C)C)c2c1

>  <Energy>  (15) 
97.53071391893268

>  <Genealogy>  (15) 
Cc1ccc2cc(C([NH-])=O)n(C(=O)C(=O)[NH+](C)CN(C)C)c2c1 (protonated)
Cc1ccc2cc(C([NH-])=O)n(C(=O)C(=O)[N@H+](C)CN(C)C)c2c1 (chirality)
Cc1ccc2cc(C([NH-])=O)n(C(=O)C(=O)[N@H+](C)CN(C)C)c2c1 (3D coordinates assigned)
Cc1ccc2cc(C([NH-])=O)n(C(=O)C(=O)[N@H+](C)CN(C)C)c2c1 (optimized conformer: 97.53071391893268 kcal/mol)

>  <smiles>  (15) 
Cc1ccc2cc(C(N)=O)n(C(=O)C(=O)N(C)CN(C)C)c2c1

>  <score_type>  (15) 
oracle

>  <origin>  (15) 
adg

>  <m_score__min__energy>  (15) 
-5.8799999999999999

>  <m_primary>  (15) 
energy

$$$$
15:0
     RDKit          3D

 83 89  0  0  0  0  0  0  0  0999 V2000
  143.4620  159.7850  133.5080 N   0  0  0  0  0  0  0  0  0  0  0  0
  142.2340  159.6560  134.2190 C   0  0  0  0  0  0  0  0  0  0  0  0
  141.3970  160.5960  134.1840 O   0  0  0  0  0  0  0  0  0  0  0  0
  141.9040  158.4110  134.9420 C   0  0  0  0  0  0  0  0  0  0  0  0
  142.1040  157.1390  134.4090 C   0  0  0  0  0  0  0  0  0  0  0  0
  141.7770  156.2640  135.4200 C   0  0  0  0  0  0  0  0  0  0  0  0
  141.8070  154.8720  135.4450 C   0  0  0  0  0  0  0  0  0  0  0  0
  141.4210  154.2270  136.6330 C   0  0  0  0  0  0  0  0  0  0  0  0
  141.0000  154.9760  137.7600 C   0  0  0  0  0  0  0  0  0  0  0  0
  140.6430  154.2990  138.9810 N   0  0  0  0  0  0  0  0  0  0  0  0
  140.0780  155.0370  140.1150 C   0  0  0  0  0  0  0  0  0  0  0  0
  141.1410  155.2310  141.2130 C   0  0  0  0  0  0  0  0  0  0  0  0
  142.3810  154.3400  141.0080 C   0  0  0  0  0  0  0  0  0  0  0  0
  141.9880  152.9230  140.5580 C   0  0  2  0  0  0  0  0  0  0  0  0
  143.2040  152.1340  140.3680 N   0  0  0  0  0  0  0  0  0  0  0  0
  144.5210  152.6760  140.1980 C   0  0  0  0  0  0  0  0  0  0  0  0
  145.2570  152.8230  141.2080 O   0  0  0  0  0  0  0  0  0  0  0  0
  145.0590  152.9960  138.8670 C   0  0  0  0  0  0  0  0  0  0  0  0
  144.1850  153.3570  137.8360 C   0  0  0  0  0  0  0  0  0  0  0  0
  144.6830  153.6730  136.5690 C   0  0  0  0  0  0  0  0  0  0  0  0
  146.0610  153.6250  136.3180 C   0  0  0  0  0  0  0  0  0  0  0  0
  146.5680  153.9290  135.0080 N   0  0  0  0  0  0  0  0  0  0  0  0
  148.0130  154.1100  134.8210 C   0  0  0  0  0  0  0  0  0  0  0  0
  148.3710  154.1810  133.3240 C   0  0  1  0  0  0  0  0  0  0  0  0
  147.7500  152.9700  132.6030 C   0  0  0  0  0  0  0  0  0  0  0  0
  146.2220  152.8840  132.7930 C   0  0  0  0  0  0  0  0  0  0  0  0
  145.6810  153.8880  133.8340 C   0  0  2  0  0  0  0  0  0  0  0  0
  145.4950  155.3030  133.2360 C   0  0  0  0  0  0  0  0  0  0  0  0
  146.7220  156.1340  133.2110 N   0  0  0  0  0  0  0  0  0  0  0  0
  146.7990  157.2170  134.2370 C   0  0  2  0  0  0  0  0  0  0  0  0
  146.0550  158.4700  133.7250 C   0  0  0  0  0  0  0  0  0  0  0  0
  146.7290  159.0580  132.4750 C   0  0  0  0  0  0  0  0  0  0  0  0
  148.1920  159.3000  132.7140 C   0  0  0  0  0  0  0  0  0  0  0  0
  148.8230  160.0910  131.9640 O   0  0  0  0  0  0  0  0  0  0  0  0
  148.8870  158.6040  133.7560 N   0  0  0  0  0  0  0  0  0  0  0  0
  148.2090  157.6490  134.5810 C   0  0  0  0  0  0  0  0  0  0  0  0
  148.7940  157.1690  135.5870 O   0  0  0  0  0  0  0  0  0  0  0  0
  147.9460  155.5130  132.6470 C   0  0  0  0  0  0  0  0  0  0  0  0
  146.9350  153.2410  137.3480 C   0  0  0  0  0  0  0  0  0  0  0  0
  146.4370  152.9310  138.6180 C   0  0  0  0  0  0  0  0  0  0  0  0
  141.1590  152.9490  139.2470 C   0  0  0  0  0  0  0  0  0  0  0  0
  140.9750  156.3880  137.6900 C   0  0  0  0  0  0  0  0  0  0  0  0
  141.3910  157.0050  136.5060 C   0  0  0  0  0  0  0  0  0  0  0  0
  141.4590  158.3270  136.2280 N   0  0  0  0  0  0  0  0  0  0  0  0
  141.0830  159.4040  137.1000 C   0  0  0  0  0  0  0  0  0  0  0  0
  140.5270  160.4340  136.6350 O   0  0  0  0  0  0  0  0  0  0  0  0
  141.3490  159.3320  138.4620 O   0  0  0  0  0  0  0  0  0  0  0  0
  143.4850  159.7390  132.4650 H   0  0  0  0  0  0  0  0  0  0  0  0
  142.4498  156.8876  133.3955 H   0  0  0  0  0  0  0  0  0  0  0  0
  142.1228  154.2953  134.5631 H   0  0  0  0  0  0  0  0  0  0  0  0
  141.4460  153.1287  136.6884 H   0  0  0  0  0  0  0  0  0  0  0  0
  139.7300  156.0216  139.7694 H   0  0  0  0  0  0  0  0  0  0  0  0
  139.2366  154.4631  140.5305 H   0  0  0  0  0  0  0  0  0  0  0  0
  141.4604  156.2836  141.2108 H   0  0  0  0  0  0  0  0  0  0  0  0
  140.6829  154.9454  142.1714 H   0  0  0  0  0  0  0  0  0  0  0  0
  143.0241  154.7937  140.2395 H   0  0  0  0  0  0  0  0  0  0  0  0
  142.9130  154.2625  141.9677 H   0  0  0  0  0  0  0  0  0  0  0  0
  141.3574  152.4685  141.3363 H   0  0  0  0  0  0  0  0  0  0  0  0
  143.1016  153.3922  138.0233 H   0  0  0  0  0  0  0  0  0  0  0  0
  143.9899  153.9608  135.7647 H   0  0  0  0  0  0  0  0  0  0  0  0
  148.3248  155.0446  135.3102 H   0  0  0  0  0  0  0  0  0  0  0  0
  148.5346  153.2497  135.2658 H   0  0  0  0  0  0  0  0  0  0  0  0
  149.4676  154.1508  133.2425 H   0  0  0  0  0  0  0  0  0  0  0  0
  147.9670  153.0513  131.5277 H   0  0  0  0  0  0  0  0  0  0  0  0
  148.1909  152.0615  133.0392 H   0  0  0  0  0  0  0  0  0  0  0  0
  145.7375  153.0873  131.8266 H   0  0  0  0  0  0  0  0  0  0  0  0
  145.9951  151.8738  133.1645 H   0  0  0  0  0  0  0  0  0  0  0  0
  144.6863  153.5391  134.1482 H   0  0  0  0  0  0  0  0  0  0  0  0
  145.1352  155.1930  132.2023 H   0  0  0  0  0  0  0  0  0  0  0  0
  144.7815  155.8244  133.8910 H   0  0  0  0  0  0  0  0  0  0  0  0
  146.3432  156.7914  135.1432 H   0  0  0  0  0  0  0  0  0  0  0  0
  145.0200  158.1933  133.4755 H   0  0  0  0  0  0  0  0  0  0  0  0
  146.0782  159.2316  134.5184 H   0  0  0  0  0  0  0  0  0  0  0  0
  146.6132  158.3527  131.6388 H   0  0  0  0  0  0  0  0  0  0  0  0
  146.2495  160.0193  132.2385 H   0  0  0  0  0  0  0  0  0  0  0  0
  149.8940  158.8190  133.9370 H   0  0  0  0  0  0  0  0  0  0  0  0
  147.7680  155.3132  131.5801 H   0  0  0  0  0  0  0  0  0  0  0  0
  148.7649  156.2258  132.8239 H   0  0  0  0  0  0  0  0  0  0  0  0
  148.0165  153.1837  137.1552 H   0  0  0  0  0  0  0  0  0  0  0  0
  147.1274  152.6360  139.4220 H   0  0  0  0  0  0  0  0  0  0  0  0
  141.7997  152.6365  138.4092 H   0  0  0  0  0  0  0  0  0  0  0  0
  140.3071  152.2616  139.3555 H   0  0  0  0  0  0  0  0  0  0  0  0
  140.6360  156.9877  138.5476 H   0  0  0  0  0  0  0  0  0  0  0  0
  1  2  1  0
  2  3  2  0
  2  4  1  0
  4  5  2  0
  5  6  1  0
  6  7  2  0
  7  8  1  0
  8  9  2  0
  9 10  1  0
 10 11  1  0
 11 12  1  0
 12 13  1  0
 13 14  1  0
 14 15  1  0
 15 16  1  0
 16 17  2  0
 16 18  1  0
 18 19  2  0
 19 20  1  0
 20 21  2  0
 21 22  1  0
 22 23  1  0
 23 24  1  0
 24 25  1  0
 25 26  1  0
 26 27  1  0
 27 28  1  0
 28 29  1  0
 29 30  1  0
 30 31  1  0
 31 32  1  0
 32 33  1  0
 33 34  2  0
 33 35  1  0
 35 36  1  0
 36 37  2  0
 29 38  1  0
 21 39  1  0
 39 40  2  0
 14 41  1  0
  9 42  1  0
 42 43  2  0
 43 44  1  0
 44 45  1  0
 45 46  2  0
 45 47  1  0
 44  4  1  0
 43  6  1  0
 41 10  1  0
 40 18  1  0
 27 22  1  0
 36 30  1  0
 38 24  1  0
  1 48  1  0
  5 49  1  0
  7 50  1  0
  8 51  1  0
 11 52  1  0
 11 53  1  0
 12 54  1  0
 12 55  1  0
 13 56  1  0
 13 57  1  0
 14 58  1  1
 19 59  1  0
 20 60  1  0
 23 61  1  0
 23 62  1  0
 24 63  1  1
 25 64  1  0
 25 65  1  0
 26 66  1  0
 26 67  1  0
 27 68  1  1
 28 69  1  0
 28 70  1  0
 30 71  1  1
 31 72  1  0
 31 73  1  0
 32 74  1  0
 32 75  1  0
 35 76  1  0
 38 77  1  0
 38 78  1  0
 39 79  1  0
 40 80  1  0
 41 81  1  0
 41 82  1  0
 42 83  1  0
M  CHG  3   1  -1  15  -1  47  -1
M  END
>  <UniqueID>  (16) 
16

>  <SMILES>  (16) 
[NH-]C(=O)c1cc2ccc(N3CCC[C@H]([N-]C(=O)c4ccc(N5C[C@H]6CCC5CN(C5CCC(=O)NC5=O)C6)cc4)C3)cc2n1C(=O)[O-]

>  <Energy>  (16) 
172.58998053190507

>  <Genealogy>  (16) 
[NH-]C(=O)c1cc2ccc(N3CCCC([N-]C(=O)c4ccc(N5CC6CCC5CN(C5CCC(=O)NC5=O)C6)cc4)C3)cc2n1C(=O)[O-] (protonated)
[NH-]C(=O)c1cc2ccc(N3CCC[C@H]([N-]C(=O)c4ccc(N5C[C@H]6CCC5CN(C5CCC(=O)NC5=O)C6)cc4)C3)cc2n1C(=O)[O-] (chirality)
[NH-]C(=O)c1cc2ccc(N3CCC[C@H]([N-]C(=O)c4ccc(N5C[C@H]6CCC5CN(C5CCC(=O)NC5=O)C6)cc4)C3)cc2n1C(=O)[O-] (3D coordinates assigned)
[NH-]C(=O)c1cc2ccc(N3CCC[C@H]([N-]C(=O)c4ccc(N5C[C@H]6CCC5CN(C5CCC(=O)NC5=O)C6)cc4)C3)cc2n1C(=O)[O-] (nonaromatic ring conformer: 172.58998053190507 kcal/mol)

>  <smiles>  (16) 
NC(=O)c1cc2ccc(N3CCCC(NC(=O)c4ccc(N5CC6CCC5CN(C5CCC(=O)NC5=O)C6)cc4)C3)cc2n1C(=O)O

>  <score_type>  (16) 
oracle

>  <origin>  (16) 
adg

>  <m_score__min__energy>  (16) 
-10.470000000000001

>  <m_primary>  (16) 
energy

$$$$
16:0
     RDKit          3D

 43 44  0  0  0  0  0  0  0  0999 V2000
  138.7500  158.3520  132.1860 C   0  0  0  0  0  0  0  0  0  0  0  0
  138.3620  157.8590  133.3600 C   0  0  0  0  0  0  0  0  0  0  0  0
  139.2640  157.7580  134.5240 C   0  0  0  0  0  0  0  0  0  0  0  0
  138.7970  157.9680  135.6780 O   0  0  0  0  0  0  0  0  0  0  0  0
  140.6560  157.4330  134.3780 N   0  0  0  0  0  0  0  0  0  0  0  0
  141.7150  158.2820  134.4770 C   0  0  0  0  0  0  0  0  0  0  0  0
  141.6420  159.7030  134.8800 C   0  0  0  0  0  0  0  0  0  0  0  0
  140.9150  160.0710  136.0510 N   0  0  0  0  0  0  0  0  0  0  0  0
  142.2020  160.5990  134.1950 O   0  0  0  0  0  0  0  0  0  0  0  0
  142.9020  157.6170  134.1700 C   0  0  0  0  0  0  0  0  0  0  0  0
  142.5280  156.3250  133.8670 C   0  0  0  0  0  0  0  0  0  0  0  0
  143.2970  155.2420  133.4500 C   0  0  0  0  0  0  0  0  0  0  0  0
  142.6350  154.0380  133.1560 C   0  0  0  0  0  0  0  0  0  0  0  0
  141.2260  153.9360  133.2870 C   0  0  0  0  0  0  0  0  0  0  0  0
  140.5220  152.6510  132.9320 C   0  0  0  0  0  0  0  0  0  0  0  0
  141.4640  151.4910  133.0290 C   0  0  0  0  0  0  0  0  0  0  0  0
  142.1370  151.3120  134.0820 O   0  0  0  0  0  0  0  0  0  0  0  0
  141.5880  150.6150  131.9460 O   0  0  0  0  0  0  0  0  0  0  0  0
  141.3110  149.2180  132.0410 C   0  0  1  0  0  0  0  0  0  0  0  0
  140.5930  148.9320  133.3570 C   0  0  0  0  0  0  0  0  0  0  0  0
  140.4520  148.7980  130.8840 C   0  0  0  0  0  0  0  0  0  0  0  0
  140.5940  147.6500  130.3820 O   0  0  0  0  0  0  0  0  0  0  0  0
  139.4850  149.6800  130.3880 O   0  0  0  0  0  0  0  0  0  0  0  0
  138.3790  149.2400  129.6110 C   0  0  0  0  0  0  0  0  0  0  0  0
  140.4770  155.0600  133.7090 C   0  0  0  0  0  0  0  0  0  0  0  0
  141.1660  156.2420  133.9980 C   0  0  0  0  0  0  0  0  0  0  0  0
  138.0378  158.4053  131.3494 H   0  0  0  0  0  0  0  0  0  0  0  0
  139.7829  158.7061  132.0524 H   0  0  0  0  0  0  0  0  0  0  0  0
  137.3238  157.5117  133.4674 H   0  0  0  0  0  0  0  0  0  0  0  0
  139.9360  159.7370  136.2030 H   0  0  0  0  0  0  0  0  0  0  0  0
  143.9197  158.0344  134.1697 H   0  0  0  0  0  0  0  0  0  0  0  0
  144.3895  155.3263  133.3536 H   0  0  0  0  0  0  0  0  0  0  0  0
  143.2151  153.1656  132.8209 H   0  0  0  0  0  0  0  0  0  0  0  0
  139.6830  152.4946  133.6260 H   0  0  0  0  0  0  0  0  0  0  0  0
  140.1521  152.7226  131.8985 H   0  0  0  0  0  0  0  0  0  0  0  0
  142.2528  148.6504  132.0134 H   0  0  0  0  0  0  0  0  0  0  0  0
  141.2513  149.1942  134.1984 H   0  0  0  0  0  0  0  0  0  0  0  0
  139.6727  149.5322  133.4106 H   0  0  0  0  0  0  0  0  0  0  0  0
  140.3375  147.8634  133.4106 H   0  0  0  0  0  0  0  0  0  0  0  0
  137.5670  148.9170  130.2790 H   0  0  0  0  0  0  0  0  0  0  0  0
  138.0251  150.0658  128.9763 H   0  0  0  0  0  0  0  0  0  0  0  0
  138.6891  148.3968  128.9763 H   0  0  0  0  0  0  0  0  0  0  0  0
  139.3827  155.0054  133.8070 H   0  0  0  0  0  0  0  0  0  0  0  0
  1  2  2  0
  2  3  1  0
  3  4  2  0
  3  5  1  0
  5  6  1  0
  6  7  1  0
  7  8  1  0
  7  9  2  0
  6 10  2  0
 10 11  1  0
 11 12  2  0
 12 13  1  0
 13 14  2  0
 14 15  1  0
 15 16  1  0
 16 17  2  0
 16 18  1  0
 18 19  1  0
 19 20  1  0
 19 21  1  0
 21 22  2  0
 21 23  1  0
 23 24  1  0
 14 25  1  0
 25 26  2  0
 26  5  1  0
 26 11  1  0
  1 27  1  0
  1 28  1  0
  2 29  1  0
  8 30  1  0
 10 31  1  0
 12 32  1  0
 13 33  1  0
 15 34  1  0
 15 35  1  0
 19 36  1  1
 20 37  1  0
 20 38  1  0
 20 39  1  0
 24 40  1  0
 24 41  1  0
 24 42  1  0
 25 43  1  0
M  CHG  1   8  -1
M  END
>  <UniqueID>  (17) 
17

>  <SMILES>  (17) 
C=CC(=O)n1c(C([NH-])=O)cc2ccc(CC(=O)O[C@@H](C)C(=O)OC)cc21

>  <Energy>  (17) 
71.13909255045704

>  <Genealogy>  (17) 
C=CC(=O)n1c(C([NH-])=O)cc2ccc(CC(=O)OC(C)C(=O)OC)cc21 (protonated)
C=CC(=O)n1c(C([NH-])=O)cc2ccc(CC(=O)O[C@@H](C)C(=O)OC)cc21 (chirality)
C=CC(=O)n1c(C([NH-])=O)cc2ccc(CC(=O)O[C@@H](C)C(=O)OC)cc21 (3D coordinates assigned)
C=CC(=O)n1c(C([NH-])=O)cc2ccc(CC(=O)O[C@@H](C)C(=O)OC)cc21 (optimized conformer: 71.13909255045704 kcal/mol)

>  <smiles>  (17) 
C=CC(=O)n1c(C(N)=O)cc2ccc(CC(=O)OC(C)C(=O)OC)cc21

>  <score_type>  (17) 
oracle

>  <origin>  (17) 
adg

>  <m_score__min__energy>  (17) 
-6.7300000000000004

>  <m_primary>  (17) 
energy

$$$$
17:0
     RDKit          3D

 39 40  0  0  0  0  0  0  0  0999 V2000
  138.7630  160.0080  131.0970 C   0  0  0  0  0  0  0  0  0  0  0  0
  139.1160  158.6550  131.6960 C   0  0  0  0  0  0  0  0  0  0  0  0
  138.8690  158.6740  133.1310 N   0  0  0  0  0  0  0  0  0  0  0  0
  139.7720  158.1030  134.0810 C   0  0  0  0  0  0  0  0  0  0  0  0
  139.5900  158.2710  135.3180 O   0  0  0  0  0  0  0  0  0  0  0  0
  140.9670  157.3450  133.6000 C   0  0  0  0  0  0  0  0  0  0  0  0
  142.1830  158.2270  133.6370 C   0  0  0  0  0  0  0  0  0  0  0  0
  142.0410  159.6340  133.7540 C   0  0  0  0  0  0  0  0  0  0  0  0
  143.1690  160.4710  133.7410 C   0  0  0  0  0  0  0  0  0  0  0  0
  144.4210  159.8780  133.6090 C   0  0  0  0  0  0  0  0  0  0  0  0
  145.6700  160.4490  133.5300 C   0  0  0  0  0  0  0  0  0  0  0  0
  146.5550  159.3840  133.3690 C   0  0  0  0  0  0  0  0  0  0  0  0
  148.0230  159.5390  133.2780 C   0  0  0  0  0  0  0  0  0  0  0  0
  148.8570  159.0180  134.3100 N   0  0  0  0  0  0  0  0  0  0  0  0
  148.5500  160.1110  132.2870 O   0  0  0  0  0  0  0  0  0  0  0  0
  145.8790  158.2020  133.3550 N   0  0  0  0  0  0  0  0  0  0  0  0
  146.4190  156.8860  133.1500 C   0  0  0  0  0  0  0  0  0  0  0  0
  145.7060  155.9990  132.6080 O   0  0  0  0  0  0  0  0  0  0  0  0
  147.7910  156.5610  133.5600 C   0  0  0  0  0  0  0  0  0  0  0  0
  148.7220  156.5610  132.7090 O   0  0  0  0  0  0  0  0  0  0  0  0
  148.0520  156.2380  134.8960 O   0  0  0  0  0  0  0  0  0  0  0  0
  147.3470  155.2170  135.5900 C   0  0  0  0  0  0  0  0  0  0  0  0
  144.5750  158.5200  133.5000 C   0  0  0  0  0  0  0  0  0  0  0  0
  143.4690  157.6630  133.4910 C   0  0  0  0  0  0  0  0  0  0  0  0
  138.5748  160.7293  131.9059 H   0  0  0  0  0  0  0  0  0  0  0  0
  139.5985  160.3633  130.4760 H   0  0  0  0  0  0  0  0  0  0  0  0
  137.8604  159.9098  130.4760 H   0  0  0  0  0  0  0  0  0  0  0  0
  138.4965  157.8754  131.2286 H   0  0  0  0  0  0  0  0  0  0  0  0
  140.1793  158.4415  131.5122 H   0  0  0  0  0  0  0  0  0  0  0  0
  141.1302  156.4719  134.2489 H   0  0  0  0  0  0  0  0  0  0  0  0
  140.7924  157.0132  132.5659 H   0  0  0  0  0  0  0  0  0  0  0  0
  141.0378  160.0736  133.8559 H   0  0  0  0  0  0  0  0  0  0  0  0
  143.0658  161.5623  133.8324 H   0  0  0  0  0  0  0  0  0  0  0  0
  145.9180  161.5194  133.5827 H   0  0  0  0  0  0  0  0  0  0  0  0
  149.1940  158.0300  134.2790 H   0  0  0  0  0  0  0  0  0  0  0  0
  147.4528  155.3703  136.6741 H   0  0  0  0  0  0  0  0  0  0  0  0
  146.2823  155.2557  135.3164 H   0  0  0  0  0  0  0  0  0  0  0  0
  147.7604  154.2350  135.3164 H   0  0  0  0  0  0  0  0  0  0  0  0
  143.5982  156.5770  133.3731 H   0  0  0  0  0  0  0  0  0  0  0  0
  1  2  1  0
  2  3  1  0
  3  4  1  0
  4  5  2  0
  4  6  1  0
  6  7  1  0
  7  8  2  0
  8  9  1  0
  9 10  2  0
 10 11  1  0
 11 12  2  0
 12 13  1  0
 13 14  1  0
 13 15  2  0
 12 16  1  0
 16 17  1  0
 17 18  2  0
 17 19  1  0
 19 20  2  0
 19 21  1  0
 21 22  1  0
 16 23  1  0
 23 24  2  0
 24  7  1  0
 23 10  1  0
  1 25  1  0
  1 26  1  0
  1 27  1  0
  2 28  1  0
  2 29  1  0
  6 30  1  0
  6 31  1  0
  8 32  1  0
  9 33  1  0
 11 34  1  0
 14 35  1  0
 22 36  1  0
 22 37  1  0
 22 38  1  0
 24 39  1  0
M  CHG  2   3  -1  14  -1
M  END
>  <UniqueID>  (18) 
18

>  <SMILES>  (18) 
CC[N-]C(=O)Cc1ccc2cc(C([NH-])=O)n(C(=O)C(=O)OC)c2c1

>  <Energy>  (18) 
67.93789693190563

>  <Genealogy>  (18) 
CC[N-]C(=O)Cc1ccc2cc(C([NH-])=O)n(C(=O)C(=O)OC)c2c1 (protonated)
CC[N-]C(=O)Cc1ccc2cc(C([NH-])=O)n(C(=O)C(=O)OC)c2c1 (3D coordinates assigned)
CC[N-]C(=O)Cc1ccc2cc(C([NH-])=O)n(C(=O)C(=O)OC)c2c1 (optimized conformer: 67.93789693190563 kcal/mol)

>  <smiles>  (18) 
CCNC(=O)Cc1ccc2cc(C(N)=O)n(C(=O)C(=O)OC)c2c1

>  <score_type>  (18) 
oracle

>  <origin>  (18) 
adg

>  <m_score__min__energy>  (18) 
-6.7300000000000004

>  <m_primary>  (18) 
energy

$$$$
18:0
     RDKit          3D

 44 45  0  0  0  0  0  0  0  0999 V2000
  147.5890  159.8860  131.9040 C   0  0  0  0  0  0  0  0  0  0  0  0
  148.2430  158.6540  132.5580 C   0  0  0  0  0  0  0  0  0  0  0  0
  149.5750  158.3200  131.8590 C   0  0  0  0  0  0  0  0  0  0  0  0
  148.5380  158.9820  134.0370 C   0  0  0  0  0  0  0  0  0  0  0  0
  147.3300  157.4960  132.4950 N   0  0  0  0  0  0  0  0  0  0  0  0
  147.7270  156.1220  132.6510 C   0  0  0  0  0  0  0  0  0  0  0  0
  148.9390  155.8040  132.7730 O   0  0  0  0  0  0  0  0  0  0  0  0
  146.6820  155.0480  132.6880 C   0  0  0  0  0  0  0  0  0  0  0  0
  145.3820  155.6210  132.5710 O   0  0  0  0  0  0  0  0  0  0  0  0
  144.7590  156.3250  133.6070 C   0  0  0  0  0  0  0  0  0  0  0  0
  145.3860  156.5840  134.6690 O   0  0  0  0  0  0  0  0  0  0  0  0
  143.3880  156.7320  133.4670 N   0  0  0  0  0  0  0  0  0  0  0  0
  142.8820  157.9980  133.4970 C   0  0  0  0  0  0  0  0  0  0  0  0
  143.6670  159.2510  133.5270 C   0  0  0  0  0  0  0  0  0  0  0  0
  145.0720  159.2440  133.2950 N   0  0  0  0  0  0  0  0  0  0  0  0
  143.0780  160.3510  133.7110 O   0  0  0  0  0  0  0  0  0  0  0  0
  141.4920  157.9690  133.4130 C   0  0  0  0  0  0  0  0  0  0  0  0
  141.1580  156.6370  133.3190 C   0  0  0  0  0  0  0  0  0  0  0  0
  139.9100  156.0310  133.2330 C   0  0  0  0  0  0  0  0  0  0  0  0
  139.8590  154.6290  133.1820 C   0  0  0  0  0  0  0  0  0  0  0  0
  141.0510  153.8580  133.2080 C   0  0  0  0  0  0  0  0  0  0  0  0
  140.9970  152.3510  133.2060 C   0  0  0  0  0  0  0  0  0  0  0  0
  141.0180  151.8730  134.5030 F   0  0  0  0  0  0  0  0  0  0  0  0
  142.0770  151.8140  132.5280 F   0  0  0  0  0  0  0  0  0  0  0  0
  139.8300  151.9370  132.5920 F   0  0  0  0  0  0  0  0  0  0  0  0
  142.3000  154.5120  133.3190 C   0  0  0  0  0  0  0  0  0  0  0  0
  142.3210  155.9110  133.3510 C   0  0  0  0  0  0  0  0  0  0  0  0
  147.2269  160.5681  132.6873 H   0  0  0  0  0  0  0  0  0  0  0  0
  148.3299  160.4059  131.2788 H   0  0  0  0  0  0  0  0  0  0  0  0
  146.7433  159.5637  131.2788 H   0  0  0  0  0  0  0  0  0  0  0  0
  150.3483  158.1261  132.6169 H   0  0  0  0  0  0  0  0  0  0  0  0
  149.4453  157.4266  131.2305 H   0  0  0  0  0  0  0  0  0  0  0  0
  149.8822  159.1689  131.2305 H   0  0  0  0  0  0  0  0  0  0  0  0
  147.9435  158.3210  134.6848 H   0  0  0  0  0  0  0  0  0  0  0  0
  149.6082  158.8288  134.2402 H   0  0  0  0  0  0  0  0  0  0  0  0
  148.2726  160.0300  134.2402 H   0  0  0  0  0  0  0  0  0  0  0  0
  146.3090  157.6710  132.3520 H   0  0  0  0  0  0  0  0  0  0  0  0
  146.8481  154.3507  131.8536 H   0  0  0  0  0  0  0  0  0  0  0  0
  146.7527  154.5117  133.6458 H   0  0  0  0  0  0  0  0  0  0  0  0
  145.6560  158.4170  133.5500 H   0  0  0  0  0  0  0  0  0  0  0  0
  140.8061  158.8289  133.4202 H   0  0  0  0  0  0  0  0  0  0  0  0
  138.9893  156.6324  133.2057 H   0  0  0  0  0  0  0  0  0  0  0  0
  138.8846  154.1221  133.1212 H   0  0  0  0  0  0  0  0  0  0  0  0
  143.2340  153.9341  133.3789 H   0  0  0  0  0  0  0  0  0  0  0  0
  1  2  1  0
  2  3  1  0
  2  4  1  0
  2  5  1  0
  5  6  1  0
  6  7  2  0
  6  8  1  0
  8  9  1  0
  9 10  1  0
 10 11  2  0
 10 12  1  0
 12 13  1  0
 13 14  1  0
 14 15  1  0
 14 16  2  0
 13 17  2  0
 17 18  1  0
 18 19  2  0
 19 20  1  0
 20 21  2  0
 21 22  1  0
 22 23  1  0
 22 24  1  0
 22 25  1  0
 21 26  1  0
 26 27  2  0
 27 12  1  0
 27 18  1  0
  1 28  1  0
  1 29  1  0
  1 30  1  0
  3 31  1  0
  3 32  1  0
  3 33  1  0
  4 34  1  0
  4 35  1  0
  4 36  1  0
  5 37  1  0
  8 38  1  0
  8 39  1  0
 15 40  1  0
 17 41  1  0
 19 42  1  0
 20 43  1  0
 26 44  1  0
M  CHG  1  15  -1
M  END
>  <UniqueID>  (19) 
19

>  <SMILES>  (19) 
CC(C)(C)NC(=O)COC(=O)n1c(C([NH-])=O)cc2ccc(C(F)(F)F)cc21

>  <Energy>  (19) 
75.59719036401313

>  <Genealogy>  (19) 
CC(C)(C)NC(=O)COC(=O)n1c(C([NH-])=O)cc2ccc(C(F)(F)F)cc21 (protonated)
CC(C)(C)NC(=O)COC(=O)n1c(C([NH-])=O)cc2ccc(C(F)(F)F)cc21 (3D coordinates assigned)
CC(C)(C)NC(=O)COC(=O)n1c(C([NH-])=O)cc2ccc(C(F)(F)F)cc21 (optimized conformer: 75.59719036401313 kcal/mol)

>  <smiles>  (19) 
CC(C)(C)NC(=O)COC(=O)n1c(C(N)=O)cc2ccc(C(F)(F)F)cc21

>  <score_type>  (19) 
oracle

>  <origin>  (19) 
adg

>  <m_score__min__energy>  (19) 
-6.6100000000000003

>  <m_primary>  (19) 
energy

$$$$
19:0
     RDKit          3D

 48 50  0  0  0  0  0  0  0  0999 V2000
  148.8590  156.0570  132.6890 N   0  0  0  0  0  0  0  0  0  0  0  0
  148.8040  157.4780  132.5920 C   0  0  0  0  0  0  0  0  0  0  0  0
  149.8270  158.1090  132.2130 O   0  0  0  0  0  0  0  0  0  0  0  0
  147.5700  158.1950  132.9730 C   0  0  0  0  0  0  0  0  0  0  0  0
  147.5150  159.5720  133.1830 C   0  0  0  0  0  0  0  0  0  0  0  0
  146.1900  159.8490  133.4340 C   0  0  0  0  0  0  0  0  0  0  0  0
  145.5710  161.0590  133.7350 C   0  0  0  0  0  0  0  0  0  0  0  0
  144.1900  161.0470  133.9880 C   0  0  0  0  0  0  0  0  0  0  0  0
  143.4510  159.8370  133.9260 C   0  0  0  0  0  0  0  0  0  0  0  0
  141.9810  159.8280  134.2620 C   0  0  0  0  0  0  0  0  0  0  0  0
  141.3680  160.9820  133.8060 F   0  0  0  0  0  0  0  0  0  0  0  0
  141.3530  158.7430  133.6750 F   0  0  0  0  0  0  0  0  0  0  0  0
  141.8290  159.7480  135.6330 F   0  0  0  0  0  0  0  0  0  0  0  0
  144.1220  158.6250  133.6420 C   0  0  0  0  0  0  0  0  0  0  0  0
  145.4950  158.6700  133.3760 C   0  0  0  0  0  0  0  0  0  0  0  0
  146.3280  157.6430  133.0960 N   0  0  0  0  0  0  0  0  0  0  0  0
  145.9640  156.2570  133.0170 C   0  0  0  0  0  0  0  0  0  0  0  0
  146.2990  155.5750  132.0110 O   0  0  0  0  0  0  0  0  0  0  0  0
  145.2570  155.6680  134.0710 O   0  0  0  0  0  0  0  0  0  0  0  0
  145.7740  154.6110  134.8770 C   0  0  0  0  0  0  0  0  0  0  0  0
  147.2810  154.7990  135.1030 C   0  0  0  0  0  0  0  0  0  0  0  0
  148.1260  153.6120  134.5870 C   0  0  0  0  0  0  0  0  0  0  0  0
  148.1420  153.4080  133.1140 N   0  0  0  0  0  0  0  0  0  0  0  0
  149.4800  153.1010  132.5490 C   0  0  0  0  0  0  0  0  0  0  0  0
  149.6940  151.6070  132.2930 C   0  0  0  0  0  0  0  0  0  0  0  0
  148.6530  151.0980  131.4920 O   0  0  0  0  0  0  0  0  0  0  0  0
  147.4560  151.1170  132.2340 C   0  0  0  0  0  0  0  0  0  0  0  0
  147.0370  152.5560  132.5940 C   0  0  0  0  0  0  0  0  0  0  0  0
  148.4510  155.4510  131.9430 H   0  0  0  0  0  0  0  0  0  0  0  0
  148.3519  160.2853  133.1543 H   0  0  0  0  0  0  0  0  0  0  0  0
  146.1462  161.9958  133.7734 H   0  0  0  0  0  0  0  0  0  0  0  0
  143.6748  161.9864  134.2372 H   0  0  0  0  0  0  0  0  0  0  0  0
  143.5774  157.6694  133.6305 H   0  0  0  0  0  0  0  0  0  0  0  0
  145.2589  154.6110  135.8489 H   0  0  0  0  0  0  0  0  0  0  0  0
  145.6070  153.6540  134.3610 H   0  0  0  0  0  0  0  0  0  0  0  0
  147.6022  155.7111  134.5786 H   0  0  0  0  0  0  0  0  0  0  0  0
  147.4429  154.8684  136.1888 H   0  0  0  0  0  0  0  0  0  0  0  0
  149.1638  153.7714  134.9149 H   0  0  0  0  0  0  0  0  0  0  0  0
  147.6525  152.7108  135.0036 H   0  0  0  0  0  0  0  0  0  0  0  0
  147.9240  154.3680  132.7490 H   0  0  0  0  0  0  0  0  0  0  0  0
  149.5896  153.6390  131.5958 H   0  0  0  0  0  0  0  0  0  0  0  0
  150.2297  153.4182  133.2888 H   0  0  0  0  0  0  0  0  0  0  0  0
  150.6545  151.4604  131.7773 H   0  0  0  0  0  0  0  0  0  0  0  0
  149.7002  151.0746  133.2555 H   0  0  0  0  0  0  0  0  0  0  0  0
  146.6581  150.6512  131.6371 H   0  0  0  0  0  0  0  0  0  0  0  0
  147.6208  150.5615  133.1690 H   0  0  0  0  0  0  0  0  0  0  0  0
  146.6320  153.0327  131.6891 H   0  0  0  0  0  0  0  0  0  0  0  0
  146.2972  152.4736  133.4039 H   0  0  0  0  0  0  0  0  0  0  0  0
  1  2  1  0
  2  3  2  0
  2  4  1  0
  4  5  2  0
  5  6  1  0
  6  7  2  0
  7  8  1  0
  8  9  2  0
  9 10  1  0
 10 11  1  0
 10 12  1  0
 10 13  1  0
  9 14  1  0
 14 15  2  0
 15 16  1  0
 16 17  1  0
 17 18  2  0
 17 19  1  0
 19 20  1  0
 20 21  1  0
 21 22  1  0
 22 23  1  0
 23 24  1  0
 24 25  1  0
 25 26  1  0
 26 27  1  0
 27 28  1  0
 16  4  1  0
 28 23  1  0
 15  6  1  0
  1 29  1  0
  5 30  1  0
  7 31  1  0
  8 32  1  0
 14 33  1  0
 20 34  1  0
 20 35  1  0
 21 36  1  0
 21 37  1  0
 22 38  1  0
 22 39  1  0
 23 40  1  0
 24 41  1  0
 24 42  1  0
 25 43  1  0
 25 44  1  0
 27 45  1  0
 27 46  1  0
 28 47  1  0
 28 48  1  0
M  CHG  2   1  -1  23   1
M  END
>  <UniqueID>  (20) 
20

>  <SMILES>  (20) 
[NH-]C(=O)c1cc2ccc(C(F)(F)F)cc2n1C(=O)OCCC[NH+]1CCOCC1

>  <Energy>  (20) 
100.39361813399238

>  <Genealogy>  (20) 
[NH-]C(=O)c1cc2ccc(C(F)(F)F)cc2n1C(=O)OCCC[NH+]1CCOCC1 (protonated)
[NH-]C(=O)c1cc2ccc(C(F)(F)F)cc2n1C(=O)OCCC[NH+]1CCOCC1 (3D coordinates assigned)
[NH-]C(=O)c1cc2ccc(C(F)(F)F)cc2n1C(=O)OCCC[NH+]1CCOCC1 (nonaromatic ring conformer: 100.39361813399238 kcal/mol)

>  <smiles>  (20) 
NC(=O)c1cc2ccc(C(F)(F)F)cc2n1C(=O)OCCCN1CCOCC1

>  <score_type>  (20) 
oracle

>  <origin>  (20) 
adg

>  <m_score__min__energy>  (20) 
-5.5999999999999996

>  <m_primary>  (20) 
energy

$$$$
20:0
     RDKit          3D

 31 32  0  0  0  0  0  0  0  0999 V2000
  150.2619  159.0077  129.9933 H   0  0  0  0  0  0  0  0  0  0  0  0
  149.6120  159.2980  130.8320 C   0  0  0  0  0  0  0  0  0  0  0  0
  148.8390  160.5440  130.6890 C   0  0  0  0  0  0  0  0  0  0  0  0
  149.4150  161.6500  130.8560 O   0  0  0  0  0  0  0  0  0  0  0  0
  147.4690  160.5210  130.4640 O   0  0  0  0  0  0  0  0  0  0  0  0
  149.5880  158.4890  131.9010 C   0  0  0  0  0  0  0  0  0  0  0  0
  150.3517  157.6988  131.9489 H   0  0  0  0  0  0  0  0  0  0  0  0
  148.6260  158.5650  133.0210 C   0  0  0  0  0  0  0  0  0  0  0  0
  148.8450  159.3990  133.9390 O   0  0  0  0  0  0  0  0  0  0  0  0
  147.4970  157.6770  133.1280 N   0  0  0  0  0  0  0  0  0  0  0  0
  146.1880  158.0000  133.3370 C   0  0  0  0  0  0  0  0  0  0  0  0
  145.6360  159.3720  133.3660 C   0  0  0  0  0  0  0  0  0  0  0  0
  144.4570  159.5720  133.7610 O   0  0  0  0  0  0  0  0  0  0  0  0
  146.4410  160.4880  132.9820 N   0  0  0  0  0  0  0  0  0  0  0  0
  147.4040  160.3550  132.6010 H   0  0  0  0  0  0  0  0  0  0  0  0
  146.0550  161.4570  133.0390 H   0  0  0  0  0  0  0  0  0  0  0  0
  145.4060  156.8500  133.4130 C   0  0  0  0  0  0  0  0  0  0  0  0
  144.3212  156.7915  133.5857 H   0  0  0  0  0  0  0  0  0  0  0  0
  146.2790  155.8020  133.2260 C   0  0  0  0  0  0  0  0  0  0  0  0
  146.0400  154.4320  133.1970 C   0  0  0  0  0  0  0  0  0  0  0  0
  145.0245  154.0304  133.3288 H   0  0  0  0  0  0  0  0  0  0  0  0
  147.1370  153.5770  132.9940 C   0  0  0  0  0  0  0  0  0  0  0  0
  146.9795  152.4891  132.9520 H   0  0  0  0  0  0  0  0  0  0  0  0
  148.4430  154.1030  132.8430 C   0  0  0  0  0  0  0  0  0  0  0  0
  149.6010  153.1810  132.6010 C   0  0  0  0  0  0  0  0  0  0  0  0
  150.0150  152.8514  133.5653 H   0  0  0  0  0  0  0  0  0  0  0  0
  149.2592  152.3051  132.0301 H   0  0  0  0  0  0  0  0  0  0  0  0
  150.3781  153.7104  132.0301 H   0  0  0  0  0  0  0  0  0  0  0  0
  148.6450  155.5000  132.8600 C   0  0  0  0  0  0  0  0  0  0  0  0
  149.6503  155.9267  132.7282 H   0  0  0  0  0  0  0  0  0  0  0  0
  147.5320  156.3280  133.0490 C   0  0  0  0  0  0  0  0  0  0  0  0
  1  2  1  0
  2  3  1  0
  3  4  2  0
  3  5  1  0
  2  6  2  0
  6  7  1  0
  6  8  1  0
  8  9  2  0
  8 10  1  0
 10 11  1  0
 11 12  1  0
 12 13  2  0
 12 14  1  0
 14 15  1  0
 14 16  1  0
 11 17  2  0
 17 18  1  0
 17 19  1  0
 19 20  2  0
 20 21  1  0
 20 22  1  0
 22 23  1  0
 22 24  2  0
 24 25  1  0
 25 26  1  0
 25 27  1  0
 25 28  1  0
 24 29  1  0
 29 30  1  0
 29 31  2  0
 31 10  1  0
 31 19  1  0
M  CHG  1   5  -1
M  END
>  <UniqueID>  (21) 
21

>  <SMILES>  (21) 
Cc1ccc2cc(C(N)=O)n(C(=O)/C=C\C(=O)[O-])c2c1

>  <Energy>  (21) 
75.33086364209615

>  <Genealogy>  (21) 
Cc1ccc2cc(C(N)=O)n(C(=O)/C=C\C(=O)[O-])c2c1 (protonated)
Cc1ccc2cc(C(N)=O)n(C(=O)/C=C\C(=O)[O-])c2c1 (cis-trans isomerization)
Cc1ccc2cc(C(N)=O)n(C(=O)/C=C\C(=O)[O-])c2c1 (3D coordinates assigned)
Cc1ccc2cc(C(N)=O)n(C(=O)/C=C\C(=O)[O-])c2c1 (optimized conformer: 75.33086364209615 kcal/mol)

>  <smiles>  (21) 
Cc1ccc2cc(C(N)=O)n(C(=O)/C=C\C(=O)O)c2c1

>  <score_type>  (21) 
oracle

>  <origin>  (21) 
adg

>  <m_score__min__energy>  (21) 
-7.0099999999999998

>  <m_primary>  (21) 
energy

$$$$
21:0
     RDKit          3D

 38 39  0  0  0  0  0  0  0  0999 V2000
  138.7220  161.0770  130.4370 C   0  0  0  0  0  0  0  0  0  0  0  0
  137.8970  160.0760  130.7690 C   0  0  0  0  0  0  0  0  0  0  0  0
  136.4420  160.1160  130.3970 C   0  0  0  0  0  0  0  0  0  0  0  0
  138.5250  158.6810  131.6460 S   0  0  0  0  0  0  0  0  0  0  0  0
  138.6000  157.4980  130.7200 O   0  0  0  0  0  0  0  0  0  0  0  0
  137.6060  158.3470  132.7870 O   0  0  0  0  0  0  0  0  0  0  0  0
  140.1550  159.0580  132.2590 C   0  0  0  0  0  0  0  0  0  0  0  0
  140.4720  158.1850  133.4350 C   0  0  0  0  0  0  0  0  0  0  0  0
  139.7260  158.2190  134.4500 O   0  0  0  0  0  0  0  0  0  0  0  0
  141.5440  157.2340  133.3710 N   0  0  0  0  0  0  0  0  0  0  0  0
  141.4630  155.8740  133.3630 C   0  0  0  0  0  0  0  0  0  0  0  0
  140.2220  155.0800  133.2420 C   0  0  0  0  0  0  0  0  0  0  0  0
  138.9590  155.7040  133.0040 N   0  0  0  0  0  0  0  0  0  0  0  0
  140.2850  153.8230  133.3110 O   0  0  0  0  0  0  0  0  0  0  0  0
  142.7340  155.3080  133.4470 C   0  0  0  0  0  0  0  0  0  0  0  0
  143.6040  156.3740  133.4960 C   0  0  0  0  0  0  0  0  0  0  0  0
  144.9920  156.3960  133.5970 C   0  0  0  0  0  0  0  0  0  0  0  0
  145.6270  157.6480  133.6630 C   0  0  0  0  0  0  0  0  0  0  0  0
  144.8670  158.8440  133.6490 C   0  0  0  0  0  0  0  0  0  0  0  0
  145.5590  160.1740  133.6940 C   0  0  0  0  0  0  0  0  0  0  0  0
  143.4620  158.7840  133.5310 C   0  0  0  0  0  0  0  0  0  0  0  0
  142.8600  157.5240  133.4490 C   0  0  0  0  0  0  0  0  0  0  0  0
  139.7845  161.0302  130.7180 H   0  0  0  0  0  0  0  0  0  0  0  0
  138.3373  161.9461  129.8833 H   0  0  0  0  0  0  0  0  0  0  0  0
  135.8302  160.1328  131.3110 H   0  0  0  0  0  0  0  0  0  0  0  0
  136.2399  161.0200  129.8038 H   0  0  0  0  0  0  0  0  0  0  0  0
  136.1906  159.2244  129.8038 H   0  0  0  0  0  0  0  0  0  0  0  0
  140.8938  158.8809  131.4636 H   0  0  0  0  0  0  0  0  0  0  0  0
  140.1899  160.1123  132.5707 H   0  0  0  0  0  0  0  0  0  0  0  0
  138.0890  155.1280  132.9790 H   0  0  0  0  0  0  0  0  0  0  0  0
  138.8930  156.7160  132.7610 H   0  0  0  0  0  0  0  0  0  0  0  0
  142.9878  154.2379  133.4694 H   0  0  0  0  0  0  0  0  0  0  0  0
  145.5737  155.4628  133.6243 H   0  0  0  0  0  0  0  0  0  0  0  0
  146.7240  157.7001  133.7261 H   0  0  0  0  0  0  0  0  0  0  0  0
  145.7138  160.4715  134.7416 H   0  0  0  0  0  0  0  0  0  0  0  0
  146.5321  160.0984  133.1867 H   0  0  0  0  0  0  0  0  0  0  0  0
  144.9386  160.9275  133.1867 H   0  0  0  0  0  0  0  0  0  0  0  0
  142.8572  159.7024  133.5043 H   0  0  0  0  0  0  0  0  0  0  0  0
  1  2  2  0
  2  3  1  0
  2  4  1  0
  4  5  2  0
  4  6  2  0
  4  7  1  0
  7  8  1  0
  8  9  2  0
  8 10  1  0
 10 11  1  0
 11 12  1  0
 12 13  1  0
 12 14  2  0
 11 15  2  0
 15 16  1  0
 16 17  2  0
 17 18  1  0
 18 19  2  0
 19 20  1  0
 19 21  1  0
 21 22  2  0
 22 10  1  0
 22 16  1  0
  1 23  1  0
  1 24  1  0
  3 25  1  0
  3 26  1  0
  3 27  1  0
  7 28  1  0
  7 29  1  0
 13 30  1  0
 13 31  1  0
 15 32  1  0
 17 33  1  0
 18 34  1  0
 20 35  1  0
 20 36  1  0
 20 37  1  0
 21 38  1  0
M  END
>  <UniqueID>  (22) 
22

>  <SMILES>  (22) 
C=C(C)S(=O)(=O)CC(=O)n1c(C(N)=O)cc2ccc(C)cc21

>  <Energy>  (22) 
71.06330886725448

>  <Genealogy>  (22) 
C=C(C)S(=O)(=O)CC(=O)n1c(C(N)=O)cc2ccc(C)cc21 (3D coordinates assigned)
C=C(C)S(=O)(=O)CC(=O)n1c(C(N)=O)cc2ccc(C)cc21 (optimized conformer: 71.06330886725448 kcal/mol)

>  <smiles>  (22) 
C=C(C)S(=O)(=O)CC(=O)n1c(C(N)=O)cc2ccc(C)cc21

>  <score_type>  (22) 
oracle

>  <origin>  (22) 
adg

>  <m_score__min__energy>  (22) 
-7.2599999999999998

>  <m_primary>  (22) 
energy

$$$$
22:0
     RDKit          3D

 32 34  0  0  0  0  0  0  0  0999 V2000
  149.9470  160.9610  130.4450 N   0  0  0  0  0  0  0  0  0  0  0  0
  149.3090  160.2620  131.1120 C   0  0  0  0  0  0  0  0  0  0  0  0
  148.5160  159.3950  131.9420 C   0  0  0  0  0  0  0  0  0  0  0  0
  149.0740  158.2340  132.4860 C   0  0  0  0  0  0  0  0  0  0  0  0
  148.3170  157.4180  133.2660 N   0  0  0  0  0  0  0  0  0  0  0  0
  147.0150  157.6910  133.5390 C   0  0  0  0  0  0  0  0  0  0  0  0
  146.4050  158.8460  133.0170 C   0  0  0  0  0  0  0  0  0  0  0  0
  144.9830  159.1550  133.3100 C   0  0  0  0  0  0  0  0  0  0  0  0
  144.5590  160.5000  133.4670 C   0  0  0  0  0  0  0  0  0  0  0  0
  143.2140  160.8050  133.7310 C   0  0  0  0  0  0  0  0  0  0  0  0
  142.3150  159.7490  133.8440 C   0  0  0  0  0  0  0  0  0  0  0  0
  140.9580  159.7670  134.0610 C   0  0  0  0  0  0  0  0  0  0  0  0
  140.5700  158.4300  134.0640 C   0  0  0  0  0  0  0  0  0  0  0  0
  139.1860  157.9870  134.3310 C   0  0  0  0  0  0  0  0  0  0  0  0
  138.4550  157.2300  133.3680 N   0  0  0  0  0  0  0  0  0  0  0  0
  138.6630  158.2340  135.4490 O   0  0  0  0  0  0  0  0  0  0  0  0
  141.6410  157.6160  133.8450 N   0  0  0  0  0  0  0  0  0  0  0  0
  141.6260  156.1900  133.6590 C   0  0  0  0  0  0  0  0  0  0  0  0
  142.5660  155.4780  134.1030 O   0  0  0  0  0  0  0  0  0  0  0  0
  140.5770  155.5820  132.9820 O   0  0  0  0  0  0  0  0  0  0  0  0
  142.7060  158.4410  133.7160 C   0  0  0  0  0  0  0  0  0  0  0  0
  144.0360  158.1100  133.4310 C   0  0  0  0  0  0  0  0  0  0  0  0
  147.1770  159.7000  132.2100 C   0  0  0  0  0  0  0  0  0  0  0  0
  150.1251  157.9812  132.2828 H   0  0  0  0  0  0  0  0  0  0  0  0
  146.4338  157.0046  134.1723 H   0  0  0  0  0  0  0  0  0  0  0  0
  145.2935  161.3143  133.3808 H   0  0  0  0  0  0  0  0  0  0  0  0
  142.8811  161.8472  133.8450 H   0  0  0  0  0  0  0  0  0  0  0  0
  140.3159  160.6490  134.2021 H   0  0  0  0  0  0  0  0  0  0  0  0
  138.9140  156.8680  132.5030 H   0  0  0  0  0  0  0  0  0  0  0  0
  137.4650  156.9560  133.5580 H   0  0  0  0  0  0  0  0  0  0  0  0
  144.3387  157.0601  133.3038 H   0  0  0  0  0  0  0  0  0  0  0  0
  146.7270  160.6107  131.7880 H   0  0  0  0  0  0  0  0  0  0  0  0
  1  2  3  0
  2  3  1  0
  3  4  2  0
  4  5  1  0
  5  6  2  0
  6  7  1  0
  7  8  1  0
  8  9  2  0
  9 10  1  0
 10 11  2  0
 11 12  1  0
 12 13  2  0
 13 14  1  0
 14 15  1  0
 14 16  2  0
 13 17  1  0
 17 18  1  0
 18 19  2  0
 18 20  1  0
 17 21  1  0
 21 22  2  0
  7 23  2  0
 23  3  1  0
 22  8  1  0
 21 11  1  0
  4 24  1  0
  6 25  1  0
  9 26  1  0
 10 27  1  0
 12 28  1  0
 15 29  1  0
 15 30  1  0
 22 31  1  0
 23 32  1  0
M  CHG  1  20  -1
M  END
>  <UniqueID>  (23) 
23

>  <SMILES>  (23) 
N#Cc1cncc(-c2ccc3cc(C(N)=O)n(C(=O)[O-])c3c2)c1

>  <Energy>  (23) 
80.29395988041271

>  <Genealogy>  (23) 
N#Cc1cncc(-c2ccc3cc(C(N)=O)n(C(=O)[O-])c3c2)c1 (protonated)
N#Cc1cncc(-c2ccc3cc(C(N)=O)n(C(=O)[O-])c3c2)c1 (3D coordinates assigned)
N#Cc1cncc(-c2ccc3cc(C(N)=O)n(C(=O)[O-])c3c2)c1 (optimized conformer: 80.29395988041271 kcal/mol)

>  <smiles>  (23) 
N#Cc1cncc(-c2ccc3cc(C(N)=O)n(C(=O)O)c3c2)c1

>  <score_type>  (23) 
oracle

>  <origin>  (23) 
adg

>  <m_score__min__energy>  (23) 
-7.9699999999999998

>  <m_primary>  (23) 
energy

$$$$
23:0
     RDKit          3D

 52 53  0  0  0  0  0  0  0  0999 V2000
  148.0790  150.8300  132.2210 C   0  0  0  0  0  0  0  0  0  0  0  0
  149.2510  151.7030  132.3460 N   0  0  0  0  0  0  0  0  0  0  0  0
  150.5960  151.1260  132.4080 C   0  0  0  0  0  0  0  0  0  0  0  0
  149.0990  153.1370  132.3980 C   0  0  0  0  0  0  0  0  0  0  0  0
  150.1210  153.8740  132.3120 O   0  0  0  0  0  0  0  0  0  0  0  0
  147.7460  153.7740  132.6140 C   0  0  0  0  0  0  0  0  0  0  0  0
  147.7500  154.6690  133.7810 N   0  0  0  0  0  0  0  0  0  0  0  0
  148.0120  154.1000  135.1080 C   0  0  0  0  0  0  0  0  0  0  0  0
  147.4400  156.0760  133.6450 C   0  0  0  0  0  0  0  0  0  0  0  0
  148.4680  157.0130  133.3550 C   0  0  0  0  0  0  0  0  0  0  0  0
  148.1860  158.3840  133.2460 C   0  0  0  0  0  0  0  0  0  0  0  0
  146.8720  158.7960  133.4280 C   0  0  0  0  0  0  0  0  0  0  0  0
  146.3330  160.0640  133.4220 C   0  0  0  0  0  0  0  0  0  0  0  0
  144.9780  159.8900  133.6940 C   0  0  0  0  0  0  0  0  0  0  0  0
  144.0050  161.0020  133.7240 C   0  0  0  0  0  0  0  0  0  0  0  0
  142.6320  160.7860  133.4040 N   0  0  0  0  0  0  0  0  0  0  0  0
  144.3960  162.1670  133.9980 O   0  0  0  0  0  0  0  0  0  0  0  0
  144.6900  158.5680  133.8640 N   0  0  0  0  0  0  0  0  0  0  0  0
  143.4360  157.9910  134.2580 C   0  0  0  0  0  0  0  0  0  0  0  0
  142.6470  158.6370  134.9980 O   0  0  0  0  0  0  0  0  0  0  0  0
  143.0620  156.6760  133.8140 C   0  0  0  0  0  0  0  0  0  0  0  0
  142.7510  155.5740  133.4400 C   0  0  0  0  0  0  0  0  0  0  0  0
  142.3760  154.2580  132.9920 C   0  0  0  0  0  0  0  0  0  0  0  0
  141.2430  153.8050  133.3130 O   0  0  0  0  0  0  0  0  0  0  0  0
  143.2810  153.4720  132.1840 N   0  0  0  0  0  0  0  0  0  0  0  0
  143.8610  152.3860  132.9890 C   0  0  0  0  0  0  0  0  0  0  0  0
  144.3370  154.3300  131.6240 C   0  0  0  0  0  0  0  0  0  0  0  0
  145.8600  157.9120  133.6940 C   0  0  0  0  0  0  0  0  0  0  0  0
  146.1140  156.5410  133.8200 C   0  0  0  0  0  0  0  0  0  0  0  0
  147.7151  150.5590  133.2231 H   0  0  0  0  0  0  0  0  0  0  0  0
  147.2849  151.3584  131.6731 H   0  0  0  0  0  0  0  0  0  0  0  0
  148.3580  149.9179  131.6731 H   0  0  0  0  0  0  0  0  0  0  0  0
  150.8923  150.9989  133.4597 H   0  0  0  0  0  0  0  0  0  0  0  0
  150.5987  150.1475  131.9054 H   0  0  0  0  0  0  0  0  0  0  0  0
  151.3069  151.7983  131.9054 H   0  0  0  0  0  0  0  0  0  0  0  0
  147.4779  154.3550  131.7193 H   0  0  0  0  0  0  0  0  0  0  0  0
  147.0137  152.9737  132.7962 H   0  0  0  0  0  0  0  0  0  0  0  0
  147.6852  154.8097  135.8823 H   0  0  0  0  0  0  0  0  0  0  0  0
  147.4578  153.1562  135.2182 H   0  0  0  0  0  0  0  0  0  0  0  0
  149.0894  153.9075  135.2182 H   0  0  0  0  0  0  0  0  0  0  0  0
  149.4999  156.6590  133.2138 H   0  0  0  0  0  0  0  0  0  0  0  0
  148.9817  159.1101  133.0232 H   0  0  0  0  0  0  0  0  0  0  0  0
  146.8605  161.0121  133.2409 H   0  0  0  0  0  0  0  0  0  0  0  0
  142.2700  159.8260  133.2130 H   0  0  0  0  0  0  0  0  0  0  0  0
  142.7550  153.0410  131.3870 H   0  0  0  0  0  0  0  0  0  0  0  0
  143.7382  152.6159  134.0577 H   0  0  0  0  0  0  0  0  0  0  0  0
  143.3470  151.4419  132.7556 H   0  0  0  0  0  0  0  0  0  0  0  0
  144.9315  152.2881  132.7556 H   0  0  0  0  0  0  0  0  0  0  0  0
  144.9065  154.7927  132.4435 H   0  0  0  0  0  0  0  0  0  0  0  0
  145.0134  153.7223  131.0049 H   0  0  0  0  0  0  0  0  0  0  0  0
  143.8806  155.1164  131.0049 H   0  0  0  0  0  0  0  0  0  0  0  0
  145.2994  155.8387  134.0505 H   0  0  0  0  0  0  0  0  0  0  0  0
  1  2  1  0
  2  3  1  0
  2  4  1  0
  4  5  2  0
  4  6  1  0
  6  7  1  0
  7  8  1  0
  7  9  1  0
  9 10  2  0
 10 11  1  0
 11 12  2  0
 12 13  1  0
 13 14  2  0
 14 15  1  0
 15 16  1  0
 15 17  2  0
 14 18  1  0
 18 19  1  0
 19 20  2  0
 19 21  1  0
 21 22  3  0
 22 23  1  0
 23 24  2  0
 23 25  1  0
 25 26  1  0
 25 27  1  0
 18 28  1  0
 28 29  2  0
 29  9  1  0
 28 12  1  0
  1 30  1  0
  1 31  1  0
  1 32  1  0
  3 33  1  0
  3 34  1  0
  3 35  1  0
  6 36  1  0
  6 37  1  0
  8 38  1  0
  8 39  1  0
  8 40  1  0
 10 41  1  0
 11 42  1  0
 13 43  1  0
 16 44  1  0
 25 45  1  0
 26 46  1  0
 26 47  1  0
 26 48  1  0
 27 49  1  0
 27 50  1  0
 27 51  1  0
 29 52  1  0
M  CHG  2  16  -1  25   1
M  END
>  <UniqueID>  (24) 
24

>  <SMILES>  (24) 
CN(C)C(=O)CN(C)c1ccc2cc(C([NH-])=O)n(C(=O)C#CC(=O)[NH+](C)C)c2c1

>  <Energy>  (24) 
82.41250096233063

>  <Genealogy>  (24) 
CN(C)C(=O)CN(C)c1ccc2cc(C([NH-])=O)n(C(=O)C#CC(=O)[NH+](C)C)c2c1 (protonated)
CN(C)C(=O)CN(C)c1ccc2cc(C([NH-])=O)n(C(=O)C#CC(=O)[NH+](C)C)c2c1 (3D coordinates assigned)
CN(C)C(=O)CN(C)c1ccc2cc(C([NH-])=O)n(C(=O)C#CC(=O)[NH+](C)C)c2c1 (optimized conformer: 82.41250096233063 kcal/mol)

>  <smiles>  (24) 
CN(C)C(=O)C#CC(=O)n1c(C(N)=O)cc2ccc(N(C)CC(=O)N(C)C)cc21

>  <score_type>  (24) 
oracle

>  <origin>  (24) 
adg

>  <m_score__min__energy>  (24) 
-8.6500000000000004

>  <m_primary>  (24) 
energy

$$$$
24:0
     RDKit          3D

 45 47  0  0  0  0  0  0  0  0999 V2000
  141.1300  156.9650  136.3200 C   0  0  0  0  0  0  0  0  0  0  0  0
  141.2580  157.5150  134.9540 N   0  0  2  0  0  0  0  0  0  0  0  0
  142.5230  158.2080  134.7850 C   0  0  0  0  0  0  0  0  0  0  0  0
  142.8660  159.1210  135.5870 O   0  0  0  0  0  0  0  0  0  0  0  0
  143.4250  157.8780  133.6590 C   0  0  0  0  0  0  0  0  0  0  0  0
  143.4210  158.5860  132.6160 O   0  0  0  0  0  0  0  0  0  0  0  0
  144.2740  156.7230  133.7190 N   0  0  0  0  0  0  0  0  0  0  0  0
  143.9160  155.4190  133.8880 C   0  0  0  0  0  0  0  0  0  0  0  0
  142.5530  154.9290  134.1830 C   0  0  0  0  0  0  0  0  0  0  0  0
  141.4380  155.3500  133.4030 N   0  0  0  0  0  0  0  0  0  0  0  0
  142.3670  154.1550  135.1600 O   0  0  0  0  0  0  0  0  0  0  0  0
  145.0350  154.5930  133.8100 C   0  0  0  0  0  0  0  0  0  0  0  0
  146.1000  155.4410  133.5990 C   0  0  0  0  0  0  0  0  0  0  0  0
  147.4520  155.1590  133.4300 C   0  0  0  0  0  0  0  0  0  0  0  0
  148.3250  156.2370  133.2030 C   0  0  0  0  0  0  0  0  0  0  0  0
  147.8400  157.5710  133.1650 C   0  0  0  0  0  0  0  0  0  0  0  0
  148.7770  158.7130  132.8660 C   0  0  0  0  0  0  0  0  0  0  0  0
  148.1460  159.6760  132.0970 F   0  0  0  0  0  0  0  0  0  0  0  0
  149.8880  158.2640  132.1720 F   0  0  0  0  0  0  0  0  0  0  0  0
  149.1900  159.2860  134.0550 F   0  0  0  0  0  0  0  0  0  0  0  0
  146.4550  157.8110  133.3180 C   0  0  0  0  0  0  0  0  0  0  0  0
  145.6130  156.7190  133.5520 C   0  0  0  0  0  0  0  0  0  0  0  0
  140.1180  158.3810  134.5270 C   0  0  1  0  0  0  0  0  0  0  0  0
  140.5670  159.5460  133.6040 C   0  0  0  0  0  0  0  0  0  0  0  0
  140.3320  159.1960  132.1350 C   0  0  0  0  0  0  0  0  0  0  0  0
  139.0750  157.9610  132.1140 S   0  0  0  0  0  0  0  0  0  0  0  0
  137.6280  158.6010  131.5450 O   0  0  0  0  0  0  0  0  0  0  0  0
  138.9590  157.6190  133.8430 C   0  0  0  0  0  0  0  0  0  0  0  0
  141.3155  157.7620  137.0551 H   0  0  0  0  0  0  0  0  0  0  0  0
  140.1149  156.5654  136.4608 H   0  0  0  0  0  0  0  0  0  0  0  0
  141.8644  156.1583  136.4608 H   0  0  0  0  0  0  0  0  0  0  0  0
  141.2780  156.6830  134.3180 H   0  0  0  0  0  0  0  0  0  0  0  0
  141.5640  156.0000  132.5960 H   0  0  0  0  0  0  0  0  0  0  0  0
  145.0624  153.4969  133.8981 H   0  0  0  0  0  0  0  0  0  0  0  0
  147.8258  154.1253  133.4727 H   0  0  0  0  0  0  0  0  0  0  0  0
  149.3976  156.0447  133.0529 H   0  0  0  0  0  0  0  0  0  0  0  0
  146.0496  158.8316  133.2545 H   0  0  0  0  0  0  0  0  0  0  0  0
  139.7357  158.7875  135.4749 H   0  0  0  0  0  0  0  0  0  0  0  0
  139.9910  160.4485  133.8563 H   0  0  0  0  0  0  0  0  0  0  0  0
  141.6419  159.7227  133.7568 H   0  0  0  0  0  0  0  0  0  0  0  0
  140.0005  160.0860  131.5800 H   0  0  0  0  0  0  0  0  0  0  0  0
  141.2550  158.8344  131.6582 H   0  0  0  0  0  0  0  0  0  0  0  0
  136.9300  157.9650  131.8410 H   0  0  0  0  0  0  0  0  0  0  0  0
  137.9924  157.9690  134.2344 H   0  0  0  0  0  0  0  0  0  0  0  0
  139.0275  156.5385  134.0375 H   0  0  0  0  0  0  0  0  0  0  0  0
  1  2  1  0
  2  3  1  0
  3  4  2  0
  3  5  1  0
  5  6  2  0
  5  7  1  0
  7  8  1  0
  8  9  1  0
  9 10  1  0
  9 11  2  0
  8 12  2  0
 12 13  1  0
 13 14  2  0
 14 15  1  0
 15 16  2  0
 16 17  1  0
 17 18  1  0
 17 19  1  0
 17 20  1  0
 16 21  1  0
 21 22  2  0
  2 23  1  0
 23 24  1  0
 24 25  1  0
 25 26  1  0
 26 27  1  1
 26 28  1  0
 22  7  1  0
 28 23  1  0
 22 13  1  0
  1 29  1  0
  1 30  1  0
  1 31  1  0
  2 32  1  6
 10 33  1  0
 12 34  1  0
 14 35  1  0
 15 36  1  0
 21 37  1  0
 23 38  1  1
 24 39  1  0
 24 40  1  0
 25 41  1  0
 25 42  1  0
 27 43  1  0
 28 44  1  0
 28 45  1  0
M  CHG  3   2   1  10  -1  26   1
M  END
>  <UniqueID>  (25) 
25

>  <SMILES>  (25) 
C[N@H+](C(=O)C(=O)n1c(C([NH-])=O)cc2ccc(C(F)(F)F)cc21)[C@H]1CC[S+](O)C1

>  <Energy>  (25) 
94.21908901676525

>  <Genealogy>  (25) 
C[NH+](C(=O)C(=O)n1c(C([NH-])=O)cc2ccc(C(F)(F)F)cc21)C1CC[S+](O)C1 (protonated)
C[N@H+](C(=O)C(=O)n1c(C([NH-])=O)cc2ccc(C(F)(F)F)cc21)[C@H]1CC[S+](O)C1 (chirality)
C[N@H+](C(=O)C(=O)n1c(C([NH-])=O)cc2ccc(C(F)(F)F)cc21)[C@H]1CC[S+](O)C1 (3D coordinates assigned)
C[N@H+](C(=O)C(=O)n1c(C([NH-])=O)cc2ccc(C(F)(F)F)cc21)[C@H]1CC[S+](O)C1 (nonaromatic ring conformer: 94.21908901676525 kcal/mol)

>  <smiles>  (25) 
CN(C(=O)C(=O)n1c(C(N)=O)cc2ccc(C(F)(F)F)cc21)C1CC[S+]([O-])C1

>  <score_type>  (25) 
oracle

>  <origin>  (25) 
adg

>  <m_score__min__energy>  (25) 
-7.3099999999999996

>  <m_primary>  (25) 
energy

$$$$
25:0
     RDKit          3D

 42 44  0  0  0  0  0  0  0  0999 V2000
  142.0580  152.4060  136.3810 N   0  0  0  0  0  0  0  0  0  0  0  0
  142.4680  153.7670  136.4770 C   0  0  0  0  0  0  0  0  0  0  0  0
  143.5130  154.0510  137.1220 O   0  0  0  0  0  0  0  0  0  0  0  0
  141.7230  154.8380  135.7850 C   0  0  0  0  0  0  0  0  0  0  0  0
  141.2540  155.9820  136.4290 C   0  0  0  0  0  0  0  0  0  0  0  0
  140.7150  156.7650  135.4350 C   0  0  0  0  0  0  0  0  0  0  0  0
  140.0940  158.0080  135.5140 C   0  0  0  0  0  0  0  0  0  0  0  0
  139.6020  158.5750  134.3260 C   0  0  0  0  0  0  0  0  0  0  0  0
  139.7430  157.9010  133.0870 C   0  0  0  0  0  0  0  0  0  0  0  0
  139.1600  158.4910  131.8290 C   0  0  0  0  0  0  0  0  0  0  0  0
  138.7310  157.4700  131.0030 F   0  0  0  0  0  0  0  0  0  0  0  0
  138.0860  159.3130  132.1250 F   0  0  0  0  0  0  0  0  0  0  0  0
  140.1080  159.2450  131.1580 F   0  0  0  0  0  0  0  0  0  0  0  0
  140.3550  156.6260  133.0530 C   0  0  0  0  0  0  0  0  0  0  0  0
  140.8560  156.0930  134.2480 C   0  0  0  0  0  0  0  0  0  0  0  0
  141.4690  154.9050  134.4470 N   0  0  0  0  0  0  0  0  0  0  0  0
  141.7250  153.9040  133.4470 C   0  0  0  0  0  0  0  0  0  0  0  0
  142.5620  154.1330  132.5320 O   0  0  0  0  0  0  0  0  0  0  0  0
  141.0690  152.6700  133.5270 O   0  0  0  0  0  0  0  0  0  0  0  0
  141.6580  151.4210  133.2860 C   0  0  0  0  0  0  0  0  0  0  0  0
  142.8070  151.1570  133.7370 O   0  0  0  0  0  0  0  0  0  0  0  0
  140.9460  150.4340  132.5160 N   0  0  0  0  0  0  0  0  0  0  0  0
  141.5160  149.0850  132.3650 C   0  0  0  0  0  0  0  0  0  0  0  0
  140.5130  148.1150  131.7310 C   0  0  0  0  0  0  0  0  0  0  0  0
  139.9260  148.6900  130.4340 C   0  0  0  0  0  0  0  0  0  0  0  0
  139.4750  150.1630  130.5560 C   0  0  0  0  0  0  0  0  0  0  0  0
  139.6100  150.7300  131.9760 C   0  0  0  0  0  0  0  0  0  0  0  0
  141.7870  151.9890  135.4630 H   0  0  0  0  0  0  0  0  0  0  0  0
  141.3043  156.2100  137.5039 H   0  0  0  0  0  0  0  0  0  0  0  0
  139.9914  158.5304  136.4766 H   0  0  0  0  0  0  0  0  0  0  0  0
  139.1013  159.5539  134.3580 H   0  0  0  0  0  0  0  0  0  0  0  0
  140.4357  156.0658  132.1098 H   0  0  0  0  0  0  0  0  0  0  0  0
  142.4084  149.1444  131.7246 H   0  0  0  0  0  0  0  0  0  0  0  0
  141.7740  148.7072  133.3654 H   0  0  0  0  0  0  0  0  0  0  0  0
  141.0245  147.1680  131.5041 H   0  0  0  0  0  0  0  0  0  0  0  0
  139.6902  147.9515  132.4425 H   0  0  0  0  0  0  0  0  0  0  0  0
  140.6922  148.6254  129.6474 H   0  0  0  0  0  0  0  0  0  0  0  0
  139.0298  148.0980  130.1965 H   0  0  0  0  0  0  0  0  0  0  0  0
  140.0903  150.7726  129.8779 H   0  0  0  0  0  0  0  0  0  0  0  0
  138.4070  150.1967  130.2948 H   0  0  0  0  0  0  0  0  0  0  0  0
  139.4627  151.8197  131.9477 H   0  0  0  0  0  0  0  0  0  0  0  0
  138.8506  150.2652  132.6219 H   0  0  0  0  0  0  0  0  0  0  0  0
  1  2  1  0
  2  3  2  0
  2  4  1  0
  4  5  2  0
  5  6  1  0
  6  7  2  0
  7  8  1  0
  8  9  2  0
  9 10  1  0
 10 11  1  0
 10 12  1  0
 10 13  1  0
  9 14  1  0
 14 15  2  0
 15 16  1  0
 16 17  1  0
 17 18  2  0
 17 19  1  0
 19 20  1  0
 20 21  2  0
 20 22  1  0
 22 23  1  0
 23 24  1  0
 24 25  1  0
 25 26  1  0
 26 27  1  0
 16  4  1  0
 27 22  1  0
 15  6  1  0
  1 28  1  0
  5 29  1  0
  7 30  1  0
  8 31  1  0
 14 32  1  0
 23 33  1  0
 23 34  1  0
 24 35  1  0
 24 36  1  0
 25 37  1  0
 25 38  1  0
 26 39  1  0
 26 40  1  0
 27 41  1  0
 27 42  1  0
M  CHG  1   1  -1
M  END
>  <UniqueID>  (26) 
26

>  <SMILES>  (26) 
[NH-]C(=O)c1cc2ccc(C(F)(F)F)cc2n1C(=O)OC(=O)N1CCCCC1

>  <Energy>  (26) 
83.85393996286594

>  <Genealogy>  (26) 
[NH-]C(=O)c1cc2ccc(C(F)(F)F)cc2n1C(=O)OC(=O)N1CCCCC1 (protonated)
[NH-]C(=O)c1cc2ccc(C(F)(F)F)cc2n1C(=O)OC(=O)N1CCCCC1 (3D coordinates assigned)
[NH-]C(=O)c1cc2ccc(C(F)(F)F)cc2n1C(=O)OC(=O)N1CCCCC1 (nonaromatic ring conformer: 83.85393996286594 kcal/mol)

>  <smiles>  (26) 
NC(=O)c1cc2ccc(C(F)(F)F)cc2n1C(=O)OC(=O)N1CCCCC1

>  <score_type>  (26) 
oracle

>  <origin>  (26) 
adg

>  <m_score__min__energy>  (26) 
-7.5099999999999998

>  <m_primary>  (26) 
energy

$$$$
26:0
     RDKit          3D

 44 45  0  0  0  0  0  0  0  0999 V2000
  139.6460  148.9300  130.6860 C   0  0  0  0  0  0  0  0  0  0  0  0
  141.0230  148.8550  131.0350 O   0  0  0  0  0  0  0  0  0  0  0  0
  141.6090  149.7060  131.9770 C   0  0  0  0  0  0  0  0  0  0  0  0
  142.8540  149.6790  132.1840 O   0  0  0  0  0  0  0  0  0  0  0  0
  140.7460  150.6270  132.7770 C   0  0  0  0  0  0  0  0  0  0  0  0
  141.5500  151.5690  133.4820 O   0  0  0  0  0  0  0  0  0  0  0  0
  141.7820  152.8750  133.0330 C   0  0  0  0  0  0  0  0  0  0  0  0
  140.8280  153.5790  132.6030 O   0  0  0  0  0  0  0  0  0  0  0  0
  143.1490  153.4330  133.0480 C   0  0  0  0  0  0  0  0  0  0  0  0
  144.0970  152.7020  133.4490 O   0  0  0  0  0  0  0  0  0  0  0  0
  143.4150  154.7820  132.5930 N   0  0  2  0  0  0  0  0  0  0  0  0
  144.3510  154.7630  131.4600 C   0  0  0  0  0  0  0  0  0  0  0  0
  143.9450  155.5940  133.6660 C   0  0  0  0  0  0  0  0  0  0  0  0
  144.5900  155.0650  134.6140 O   0  0  0  0  0  0  0  0  0  0  0  0
  143.7980  157.0230  133.6310 N   0  0  0  0  0  0  0  0  0  0  0  0
  142.6480  157.7490  133.7280 C   0  0  0  0  0  0  0  0  0  0  0  0
  141.2840  157.2060  133.9080 C   0  0  0  0  0  0  0  0  0  0  0  0
  140.7650  156.2050  133.0370 N   0  0  0  0  0  0  0  0  0  0  0  0
  140.5670  157.6230  134.8570 O   0  0  0  0  0  0  0  0  0  0  0  0
  142.9330  159.1140  133.6860 C   0  0  0  0  0  0  0  0  0  0  0  0
  144.3000  159.2010  133.5600 C   0  0  0  0  0  0  0  0  0  0  0  0
  145.1280  160.3180  133.4820 C   0  0  0  0  0  0  0  0  0  0  0  0
  146.5110  160.1040  133.3490 C   0  0  0  0  0  0  0  0  0  0  0  0
  147.0340  158.7900  133.2710 C   0  0  0  0  0  0  0  0  0  0  0  0
  148.5140  158.5740  133.1620 C   0  0  0  0  0  0  0  0  0  0  0  0
  146.1640  157.6830  133.3620 C   0  0  0  0  0  0  0  0  0  0  0  0
  144.7970  157.9240  133.5220 C   0  0  0  0  0  0  0  0  0  0  0  0
  139.0370  148.9632  131.6014 H   0  0  0  0  0  0  0  0  0  0  0  0
  139.4669  149.8392  130.0933 H   0  0  0  0  0  0  0  0  0  0  0  0
  139.3692  148.0456  130.0933 H   0  0  0  0  0  0  0  0  0  0  0  0
  140.0649  151.1649  132.1011 H   0  0  0  0  0  0  0  0  0  0  0  0
  140.1674  150.0361  133.5023 H   0  0  0  0  0  0  0  0  0  0  0  0
  142.5310  155.2260  132.2520 H   0  0  0  0  0  0  0  0  0  0  0  0
  145.3838  154.7420  131.8380 H   0  0  0  0  0  0  0  0  0  0  0  0
  144.1666  153.8684  130.8470 H   0  0  0  0  0  0  0  0  0  0  0  0
  144.2031  155.6643  130.8470 H   0  0  0  0  0  0  0  0  0  0  0  0
  141.3970  155.6540  132.4140 H   0  0  0  0  0  0  0  0  0  0  0  0
  142.2154  159.9458  133.7419 H   0  0  0  0  0  0  0  0  0  0  0  0
  144.7129  161.3358  133.5232 H   0  0  0  0  0  0  0  0  0  0  0  0
  147.1937  160.9654  133.3051 H   0  0  0  0  0  0  0  0  0  0  0  0
  148.9505  158.5103  134.1697 H   0  0  0  0  0  0  0  0  0  0  0  0
  148.7089  157.6379  132.6182 H   0  0  0  0  0  0  0  0  0  0  0  0
  148.9683  159.4154  132.6182 H   0  0  0  0  0  0  0  0  0  0  0  0
  146.5524  156.6553  133.3083 H   0  0  0  0  0  0  0  0  0  0  0  0
  1  2  1  0
  2  3  1  0
  3  4  2  0
  3  5  1  0
  5  6  1  0
  6  7  1  0
  7  8  2  0
  7  9  1  0
  9 10  2  0
  9 11  1  0
 11 12  1  0
 11 13  1  0
 13 14  2  0
 13 15  1  0
 15 16  1  0
 16 17  1  0
 17 18  1  0
 17 19  2  0
 16 20  2  0
 20 21  1  0
 21 22  2  0
 22 23  1  0
 23 24  2  0
 24 25  1  0
 24 26  1  0
 26 27  2  0
 27 15  1  0
 27 21  1  0
  1 28  1  0
  1 29  1  0
  1 30  1  0
  5 31  1  0
  5 32  1  0
 11 33  1  6
 12 34  1  0
 12 35  1  0
 12 36  1  0
 18 37  1  0
 20 38  1  0
 22 39  1  0
 23 40  1  0
 25 41  1  0
 25 42  1  0
 25 43  1  0
 26 44  1  0
M  CHG  2  11   1  18  -1
M  END
>  <UniqueID>  (27) 
27

>  <SMILES>  (27) 
COC(=O)COC(=O)C(=O)[NH+](C)C(=O)n1c(C([NH-])=O)cc2ccc(C)cc21

>  <Energy>  (27) 
79.03292041162433

>  <Genealogy>  (27) 
COC(=O)COC(=O)C(=O)[NH+](C)C(=O)n1c(C([NH-])=O)cc2ccc(C)cc21 (protonated)
COC(=O)COC(=O)C(=O)[NH+](C)C(=O)n1c(C([NH-])=O)cc2ccc(C)cc21 (3D coordinates assigned)
COC(=O)COC(=O)C(=O)[NH+](C)C(=O)n1c(C([NH-])=O)cc2ccc(C)cc21 (optimized conformer: 79.03292041162433 kcal/mol)

>  <smiles>  (27) 
COC(=O)COC(=O)C(=O)N(C)C(=O)n1c(C(N)=O)cc2ccc(C)cc21

>  <score_type>  (27) 
oracle

>  <origin>  (27) 
adg

>  <m_score__min__energy>  (27) 
-6.2199999999999998

>  <m_primary>  (27) 
energy

$$$$
27:0
     RDKit          3D

 37 38  0  0  0  0  0  0  0  0999 V2000
  139.5600  155.0390  132.9790 C   0  0  0  0  0  0  0  0  0  0  0  0
  140.9930  155.3500  133.3980 C   0  0  0  0  0  0  0  0  0  0  0  0
  141.2060  156.8350  133.5060 C   0  0  0  0  0  0  0  0  0  0  0  0
  140.1070  157.6950  133.7540 C   0  0  0  0  0  0  0  0  0  0  0  0
  140.2990  159.0790  133.9010 C   0  0  0  0  0  0  0  0  0  0  0  0
  141.5970  159.5710  133.7960 C   0  0  0  0  0  0  0  0  0  0  0  0
  142.0710  160.8570  133.9310 C   0  0  0  0  0  0  0  0  0  0  0  0
  143.4510  160.7630  133.7530 C   0  0  0  0  0  0  0  0  0  0  0  0
  144.3550  161.9320  133.7540 C   0  0  0  0  0  0  0  0  0  0  0  0
  145.7300  161.7980  134.1020 N   0  0  0  0  0  0  0  0  0  0  0  0
  143.9160  163.0600  133.4050 O   0  0  0  0  0  0  0  0  0  0  0  0
  143.8140  159.4700  133.5190 N   0  0  0  0  0  0  0  0  0  0  0  0
  145.1400  158.9430  133.3620 C   0  0  0  0  0  0  0  0  0  0  0  0
  145.4140  157.8020  133.8230 O   0  0  0  0  0  0  0  0  0  0  0  0
  146.1410  159.7160  132.6790 N   0  0  0  0  0  0  0  0  0  0  0  0
  147.4530  159.2250  132.3560 C   0  0  0  0  0  0  0  0  0  0  0  0
  147.7850  158.0440  132.6470 O   0  0  0  0  0  0  0  0  0  0  0  0
  148.4270  160.0890  131.6720 C   0  0  0  0  0  0  0  0  0  0  0  0
  148.3390  161.3430  131.7670 O   0  0  0  0  0  0  0  0  0  0  0  0
  149.4510  159.5070  130.9180 O   0  0  0  0  0  0  0  0  0  0  0  0
  149.9780  160.1130  129.7440 C   0  0  0  0  0  0  0  0  0  0  0  0
  142.6690  158.7540  133.5500 C   0  0  0  0  0  0  0  0  0  0  0  0
  142.5100  157.3690  133.4200 C   0  0  0  0  0  0  0  0  0  0  0  0
  138.9370  154.9038  133.8754 H   0  0  0  0  0  0  0  0  0  0  0  0
  139.1642  155.8722  132.3797 H   0  0  0  0  0  0  0  0  0  0  0  0
  139.5452  154.1167  132.3797 H   0  0  0  0  0  0  0  0  0  0  0  0
  141.1925  154.8848  134.3746 H   0  0  0  0  0  0  0  0  0  0  0  0
  141.6785  154.9493  132.6367 H   0  0  0  0  0  0  0  0  0  0  0  0
  139.0935  157.2746  133.8322 H   0  0  0  0  0  0  0  0  0  0  0  0
  139.4506  159.7524  134.0930 H   0  0  0  0  0  0  0  0  0  0  0  0
  141.4854  161.7654  134.1357 H   0  0  0  0  0  0  0  0  0  0  0  0
  146.4650  161.7030  133.3670 H   0  0  0  0  0  0  0  0  0  0  0  0
  145.8920  160.6950  132.4120 H   0  0  0  0  0  0  0  0  0  0  0  0
  150.6755  160.9151  130.0269 H   0  0  0  0  0  0  0  0  0  0  0  0
  150.5107  159.3569  129.1486 H   0  0  0  0  0  0  0  0  0  0  0  0
  149.1553  160.5356  129.1486 H   0  0  0  0  0  0  0  0  0  0  0  0
  143.3783  156.7142  133.2552 H   0  0  0  0  0  0  0  0  0  0  0  0
  1  2  1  0
  2  3  1  0
  3  4  2  0
  4  5  1  0
  5  6  2  0
  6  7  1  0
  7  8  2  0
  8  9  1  0
  9 10  1  0
  9 11  2  0
  8 12  1  0
 12 13  1  0
 13 14  2  0
 13 15  1  0
 15 16  1  0
 16 17  2  0
 16 18  1  0
 18 19  2  0
 18 20  1  0
 20 21  1  0
 12 22  1  0
 22 23  2  0
 23  3  1  0
 22  6  1  0
  1 24  1  0
  1 25  1  0
  1 26  1  0
  2 27  1  0
  2 28  1  0
  4 29  1  0
  5 30  1  0
  7 31  1  0
 10 32  1  0
 15 33  1  0
 21 34  1  0
 21 35  1  0
 21 36  1  0
 23 37  1  0
M  CHG  1  10  -1
M  END
>  <UniqueID>  (28) 
28

>  <SMILES>  (28) 
CCc1ccc2cc(C([NH-])=O)n(C(=O)NC(=O)C(=O)OC)c2c1

>  <Energy>  (28) 
70.04304884549666

>  <Genealogy>  (28) 
CCc1ccc2cc(C([NH-])=O)n(C(=O)NC(=O)C(=O)OC)c2c1 (protonated)
CCc1ccc2cc(C([NH-])=O)n(C(=O)NC(=O)C(=O)OC)c2c1 (3D coordinates assigned)
CCc1ccc2cc(C([NH-])=O)n(C(=O)NC(=O)C(=O)OC)c2c1 (optimized conformer: 70.04304884549666 kcal/mol)

>  <smiles>  (28) 
CCc1ccc2cc(C(N)=O)n(C(=O)NC(=O)C(=O)OC)c2c1

>  <score_type>  (28) 
oracle

>  <origin>  (28) 
adg

>  <m_score__min__energy>  (28) 
-7.0700000000000003

>  <m_primary>  (28) 
energy

$$$$
28:0
     RDKit          3D

 43 44  0  0  0  0  0  0  0  0999 V2000
  149.0890  154.3490  132.6470 C   0  0  0  0  0  0  0  0  0  0  0  0
  147.6430  154.5980  133.0610 C   0  0  0  0  0  0  0  0  0  0  0  0
  147.3680  156.0740  133.1660 C   0  0  0  0  0  0  0  0  0  0  0  0
  148.4440  156.9940  133.2520 C   0  0  0  0  0  0  0  0  0  0  0  0
  148.2010  158.3730  133.3760 C   0  0  0  0  0  0  0  0  0  0  0  0
  146.8760  158.7990  133.4240 C   0  0  0  0  0  0  0  0  0  0  0  0
  146.3540  160.0680  133.5380 C   0  0  0  0  0  0  0  0  0  0  0  0
  144.9700  159.8990  133.5440 C   0  0  0  0  0  0  0  0  0  0  0  0
  144.0070  161.0040  133.7300 C   0  0  0  0  0  0  0  0  0  0  0  0
  142.6270  160.8010  133.4360 N   0  0  0  0  0  0  0  0  0  0  0  0
  144.3950  162.1360  134.1230 O   0  0  0  0  0  0  0  0  0  0  0  0
  144.6530  158.5790  133.4270 N   0  0  0  0  0  0  0  0  0  0  0  0
  143.3470  157.9840  133.3600 C   0  0  0  0  0  0  0  0  0  0  0  0
  142.9480  157.4950  132.2690 O   0  0  0  0  0  0  0  0  0  0  0  0
  142.4640  157.9770  134.5460 C   0  0  0  0  0  0  0  0  0  0  0  0
  142.6630  157.1160  135.4490 O   0  0  0  0  0  0  0  0  0  0  0  0
  141.3470  158.8920  134.6460 N   0  0  2  0  0  0  0  0  0  0  0  0
  141.3000  159.5540  135.9600 C   0  0  0  0  0  0  0  0  0  0  0  0
  140.1240  158.1750  134.3910 C   0  0  0  0  0  0  0  0  0  0  0  0
  139.2100  158.1370  135.2650 O   0  0  0  0  0  0  0  0  0  0  0  0
  139.9670  157.4940  133.1780 O   0  0  0  0  0  0  0  0  0  0  0  0
  139.0900  157.9290  132.1430 C   0  0  0  0  0  0  0  0  0  0  0  0
  139.1720  159.4140  131.9850 C   0  0  0  0  0  0  0  0  0  0  0  0
  140.2190  160.0310  132.3110 O   0  0  0  0  0  0  0  0  0  0  0  0
  138.0780  160.1210  131.5010 O   0  0  0  0  0  0  0  0  0  0  0  0
  145.8270  157.9190  133.3630 C   0  0  0  0  0  0  0  0  0  0  0  0
  146.0370  156.5430  133.2290 C   0  0  0  0  0  0  0  0  0  0  0  0
  149.7143  154.2413  133.5456 H   0  0  0  0  0  0  0  0  0  0  0  0
  149.1456  153.4279  132.0484 H   0  0  0  0  0  0  0  0  0  0  0  0
  149.4504  155.1981  132.0484 H   0  0  0  0  0  0  0  0  0  0  0  0
  146.9710  154.1578  132.3096 H   0  0  0  0  0  0  0  0  0  0  0  0
  147.4710  154.1347  134.0438 H   0  0  0  0  0  0  0  0  0  0  0  0
  149.4796  156.6245  133.2213 H   0  0  0  0  0  0  0  0  0  0  0  0
  149.0310  159.0926  133.4333 H   0  0  0  0  0  0  0  0  0  0  0  0
  146.9106  161.0141  133.6092 H   0  0  0  0  0  0  0  0  0  0  0  0
  142.3230  160.0300  132.8000 H   0  0  0  0  0  0  0  0  0  0  0  0
  141.4450  159.6480  133.9290 H   0  0  0  0  0  0  0  0  0  0  0  0
  141.3539  158.7955  136.7548 H   0  0  0  0  0  0  0  0  0  0  0  0
  142.1514  160.2442  136.0535 H   0  0  0  0  0  0  0  0  0  0  0  0
  140.3596  160.1170  136.0535 H   0  0  0  0  0  0  0  0  0  0  0  0
  139.3773  157.4468  131.1970 H   0  0  0  0  0  0  0  0  0  0  0  0
  138.0586  157.6532  132.4077 H   0  0  0  0  0  0  0  0  0  0  0  0
  145.1888  155.8448  133.1741 H   0  0  0  0  0  0  0  0  0  0  0  0
  1  2  1  0
  2  3  1  0
  3  4  2  0
  4  5  1  0
  5  6  2  0
  6  7  1  0
  7  8  2  0
  8  9  1  0
  9 10  1  0
  9 11  2  0
  8 12  1  0
 12 13  1  0
 13 14  2  0
 13 15  1  0
 15 16  2  0
 15 17  1  0
 17 18  1  0
 17 19  1  0
 19 20  2  0
 19 21  1  0
 21 22  1  0
 22 23  1  0
 23 24  2  0
 23 25  1  0
 12 26  1  0
 26 27  2  0
 27  3  1  0
 26  6  1  0
  1 28  1  0
  1 29  1  0
  1 30  1  0
  2 31  1  0
  2 32  1  0
  4 33  1  0
  5 34  1  0
  7 35  1  0
 10 36  1  0
 17 37  1  6
 18 38  1  0
 18 39  1  0
 18 40  1  0
 22 41  1  0
 22 42  1  0
 27 43  1  0
M  CHG  3  10  -1  17   1  25  -1
M  END
>  <UniqueID>  (29) 
29

>  <SMILES>  (29) 
CCc1ccc2cc(C([NH-])=O)n(C(=O)C(=O)[NH+](C)C(=O)OCC(=O)[O-])c2c1

>  <Energy>  (29) 
78.77318331384788

>  <Genealogy>  (29) 
CCc1ccc2cc(C([NH-])=O)n(C(=O)C(=O)[NH+](C)C(=O)OCC(=O)[O-])c2c1 (protonated)
CCc1ccc2cc(C([NH-])=O)n(C(=O)C(=O)[NH+](C)C(=O)OCC(=O)[O-])c2c1 (3D coordinates assigned)
CCc1ccc2cc(C([NH-])=O)n(C(=O)C(=O)[NH+](C)C(=O)OCC(=O)[O-])c2c1 (optimized conformer: 78.77318331384788 kcal/mol)

>  <smiles>  (29) 
CCc1ccc2cc(C(N)=O)n(C(=O)C(=O)N(C)C(=O)OCC(=O)O)c2c1

>  <score_type>  (29) 
oracle

>  <origin>  (29) 
adg

>  <m_score__min__energy>  (29) 
-5.8399999999999999

>  <m_primary>  (29) 
energy

$$$$
29:0
     RDKit          3D

 47 49  0  0  0  0  0  0  0  0999 V2000
  148.5450  153.7110  132.8090 C   0  0  0  0  0  0  0  0  0  0  0  0
  148.1280  153.8570  134.2720 C   0  0  0  0  0  0  0  0  0  0  0  0
  146.7540  154.5330  134.4610 C   0  0  2  0  0  0  0  0  0  0  0  0
  146.8180  155.9560  134.3200 O   0  0  0  0  0  0  0  0  0  0  0  0
  146.6820  156.6300  133.1000 C   0  0  0  0  0  0  0  0  0  0  0  0
  146.6490  155.9800  132.0200 O   0  0  0  0  0  0  0  0  0  0  0  0
  146.5340  158.0630  133.0830 N   0  0  0  0  0  0  0  0  0  0  0  0
  147.5060  159.0000  132.8790 C   0  0  0  0  0  0  0  0  0  0  0  0
  148.8920  158.7410  132.4410 C   0  0  0  0  0  0  0  0  0  0  0  0
  149.3480  157.4140  132.2030 N   0  0  0  0  0  0  0  0  0  0  0  0
  149.6650  159.7110  132.2140 O   0  0  0  0  0  0  0  0  0  0  0  0
  147.0050  160.2820  133.0810 C   0  0  0  0  0  0  0  0  0  0  0  0
  145.6830  160.1100  133.4120 C   0  0  0  0  0  0  0  0  0  0  0  0
  144.7150  161.0560  133.7340 C   0  0  0  0  0  0  0  0  0  0  0  0
  143.4350  160.5970  134.0820 C   0  0  0  0  0  0  0  0  0  0  0  0
  143.1490  159.2090  134.1160 C   0  0  0  0  0  0  0  0  0  0  0  0
  141.7940  158.7390  134.4960 C   0  0  0  0  0  0  0  0  0  0  0  0
  141.5490  158.3440  135.8230 C   0  0  0  0  0  0  0  0  0  0  0  0
  140.2790  157.9110  136.2100 C   0  0  0  0  0  0  0  0  0  0  0  0
  139.2430  157.8640  135.2790 C   0  0  0  0  0  0  0  0  0  0  0  0
  139.4720  158.2430  133.9550 C   0  0  0  0  0  0  0  0  0  0  0  0
  140.7500  158.6770  133.5470 C   0  0  0  0  0  0  0  0  0  0  0  0
  141.0160  159.0330  132.2130 O   0  0  0  0  0  0  0  0  0  0  0  0
  140.0210  159.3640  131.2490 C   0  0  0  0  0  0  0  0  0  0  0  0
  144.1580  158.2780  133.7750 C   0  0  0  0  0  0  0  0  0  0  0  0
  145.4210  158.7630  133.4120 C   0  0  0  0  0  0  0  0  0  0  0  0
  146.1740  154.1920  135.8020 C   0  0  0  0  0  0  0  0  0  0  0  0
  145.0500  154.6450  136.1490 O   0  0  0  0  0  0  0  0  0  0  0  0
  146.8980  153.4070  136.6900 O   0  0  0  0  0  0  0  0  0  0  0  0
  149.5821  153.3479  132.7578 H   0  0  0  0  0  0  0  0  0  0  0  0
  147.8797  152.9923  132.3081 H   0  0  0  0  0  0  0  0  0  0  0  0
  148.4733  154.6877  132.3081 H   0  0  0  0  0  0  0  0  0  0  0  0
  148.0868  152.8546  134.7230 H   0  0  0  0  0  0  0  0  0  0  0  0
  148.8741  154.5046  134.7557 H   0  0  0  0  0  0  0  0  0  0  0  0
  146.1039  154.1435  133.6637 H   0  0  0  0  0  0  0  0  0  0  0  0
  148.7000  156.6800  131.8410 H   0  0  0  0  0  0  0  0  0  0  0  0
  147.5519  161.2324  132.9940 H   0  0  0  0  0  0  0  0  0  0  0  0
  144.9458  162.1314  133.7164 H   0  0  0  0  0  0  0  0  0  0  0  0
  142.6458  161.3217  134.3309 H   0  0  0  0  0  0  0  0  0  0  0  0
  142.3635  158.3763  136.5616 H   0  0  0  0  0  0  0  0  0  0  0  0
  140.0961  157.6066  137.2511 H   0  0  0  0  0  0  0  0  0  0  0  0
  138.2424  157.5275  135.5881 H   0  0  0  0  0  0  0  0  0  0  0  0
  138.6499  158.2028  133.2252 H   0  0  0  0  0  0  0  0  0  0  0  0
  139.0989  159.6707  131.7643 H   0  0  0  0  0  0  0  0  0  0  0  0
  140.3814  160.1907  130.6191 H   0  0  0  0  0  0  0  0  0  0  0  0
  139.8144  158.4862  130.6191 H   0  0  0  0  0  0  0  0  0  0  0  0
  143.9553  157.1970  133.7945 H   0  0  0  0  0  0  0  0  0  0  0  0
  1  2  1  0
  2  3  1  0
  3  4  1  0
  4  5  1  0
  5  6  2  0
  5  7  1  0
  7  8  1  0
  8  9  1  0
  9 10  1  0
  9 11  2  0
  8 12  2  0
 12 13  1  0
 13 14  2  0
 14 15  1  0
 15 16  2  0
 16 17  1  0
 17 18  2  0
 18 19  1  0
 19 20  2  0
 20 21  1  0
 21 22  2  0
 22 23  1  0
 23 24  1  0
 16 25  1  0
 25 26  2  0
  3 27  1  0
 27 28  2  0
 27 29  1  0
 26  7  1  0
 26 13  1  0
 22 17  1  0
  1 30  1  0
  1 31  1  0
  1 32  1  0
  2 33  1  0
  2 34  1  0
  3 35  1  6
 10 36  1  0
 12 37  1  0
 14 38  1  0
 15 39  1  0
 18 40  1  0
 19 41  1  0
 20 42  1  0
 21 43  1  0
 24 44  1  0
 24 45  1  0
 24 46  1  0
 25 47  1  0
M  CHG  2  10  -1  29  -1
M  END
>  <UniqueID>  (30) 
30

>  <SMILES>  (30) 
CC[C@H](OC(=O)n1c(C([NH-])=O)cc2ccc(-c3ccccc3OC)cc21)C(=O)[O-]

>  <Energy>  (30) 
90.23815567008252

>  <Genealogy>  (30) 
CCC(OC(=O)n1c(C([NH-])=O)cc2ccc(-c3ccccc3OC)cc21)C(=O)[O-] (protonated)
CC[C@H](OC(=O)n1c(C([NH-])=O)cc2ccc(-c3ccccc3OC)cc21)C(=O)[O-] (chirality)
CC[C@H](OC(=O)n1c(C([NH-])=O)cc2ccc(-c3ccccc3OC)cc21)C(=O)[O-] (3D coordinates assigned)
CC[C@H](OC(=O)n1c(C([NH-])=O)cc2ccc(-c3ccccc3OC)cc21)C(=O)[O-] (optimized conformer: 90.23815567008252 kcal/mol)

>  <smiles>  (30) 
CCC(OC(=O)n1c(C(N)=O)cc2ccc(-c3ccccc3OC)cc21)C(=O)O

>  <score_type>  (30) 
oracle

>  <origin>  (30) 
adg

>  <m_score__min__energy>  (30) 
-8.3900000000000006

>  <m_primary>  (30) 
energy

$$$$
30:0
     RDKit          3D

 48 50  0  0  0  0  0  0  0  0999 V2000
  140.7520  154.7420  133.7060 N   0  0  0  0  0  0  0  0  0  0  0  0
  140.6940  156.1280  133.3760 C   0  0  0  0  0  0  0  0  0  0  0  0
  139.5890  156.6400  133.0570 O   0  0  0  0  0  0  0  0  0  0  0  0
  141.9230  156.9500  133.4350 C   0  0  0  0  0  0  0  0  0  0  0  0
  141.9270  158.3110  133.7330 C   0  0  0  0  0  0  0  0  0  0  0  0
  143.2430  158.7020  133.6350 C   0  0  0  0  0  0  0  0  0  0  0  0
  143.8250  159.9460  133.8530 C   0  0  0  0  0  0  0  0  0  0  0  0
  145.2190  160.0560  133.7120 C   0  0  0  0  0  0  0  0  0  0  0  0
  146.0020  158.9280  133.3490 C   0  0  0  0  0  0  0  0  0  0  0  0
  147.5030  159.0470  133.2630 C   0  0  0  0  0  0  0  0  0  0  0  0
  148.0940  158.6180  134.4380 F   0  0  0  0  0  0  0  0  0  0  0  0
  147.9610  158.2690  132.2160 F   0  0  0  0  0  0  0  0  0  0  0  0
  147.8780  160.3620  133.0450 F   0  0  0  0  0  0  0  0  0  0  0  0
  145.3740  157.6750  133.1620 C   0  0  0  0  0  0  0  0  0  0  0  0
  143.9830  157.6010  133.2910 C   0  0  0  0  0  0  0  0  0  0  0  0
  143.1870  156.5170  133.1630 N   0  0  0  0  0  0  0  0  0  0  0  0
  143.6010  155.1770  132.8450 C   0  0  0  0  0  0  0  0  0  0  0  0
  144.3440  154.9870  131.8440 O   0  0  0  0  0  0  0  0  0  0  0  0
  143.2690  154.0810  133.7320 N   0  0  1  0  0  0  0  0  0  0  0  0
  143.1060  152.7950  133.0020 C   0  0  0  0  0  0  0  0  0  0  0  0
  142.0940  151.8570  133.6060 C   0  0  0  0  0  0  0  0  0  0  0  0
  141.3820  152.2260  134.5760 O   0  0  0  0  0  0  0  0  0  0  0  0
  141.9230  150.5820  133.0790 O   0  0  0  0  0  0  0  0  0  0  0  0
  144.2460  154.0310  134.8420 C   0  0  0  0  0  0  0  0  0  0  0  0
  143.6110  154.3500  136.1660 C   0  0  0  0  0  0  0  0  0  0  0  0
  144.1190  153.9030  137.2300 O   0  0  0  0  0  0  0  0  0  0  0  0
  142.4590  155.1450  136.2020 O   0  0  0  0  0  0  0  0  0  0  0  0
  141.9860  155.7800  137.3870 C   0  0  0  0  0  0  0  0  0  0  0  0
  141.2010  157.0050  137.0380 C   0  0  0  0  0  0  0  0  0  0  0  0
  141.5970  158.3090  137.2550 C   0  0  0  0  0  0  0  0  0  0  0  0
  140.5760  159.0920  136.7590 C   0  0  0  0  0  0  0  0  0  0  0  0
  139.6250  158.2180  136.2710 C   0  0  0  0  0  0  0  0  0  0  0  0
  140.0280  156.9800  136.4500 O   0  0  0  0  0  0  0  0  0  0  0  0
  141.1590  154.4240  134.6120 H   0  0  0  0  0  0  0  0  0  0  0  0
  141.0621  158.9395  133.9917 H   0  0  0  0  0  0  0  0  0  0  0  0
  143.2128  160.8177  134.1275 H   0  0  0  0  0  0  0  0  0  0  0  0
  145.7087  161.0257  133.8846 H   0  0  0  0  0  0  0  0  0  0  0  0
  145.9654  156.7794  132.9207 H   0  0  0  0  0  0  0  0  0  0  0  0
  142.3360  154.3010  134.1560 H   0  0  0  0  0  0  0  0  0  0  0  0
  142.7923  153.0219  131.9724 H   0  0  0  0  0  0  0  0  0  0  0  0
  144.0775  152.2815  133.0528 H   0  0  0  0  0  0  0  0  0  0  0  0
  144.6779  153.0205  134.8896 H   0  0  0  0  0  0  0  0  0  0  0  0
  145.0213  154.7864  134.6464 H   0  0  0  0  0  0  0  0  0  0  0  0
  141.3421  155.0814  137.9414 H   0  0  0  0  0  0  0  0  0  0  0  0
  142.8469  156.0697  138.0074 H   0  0  0  0  0  0  0  0  0  0  0  0
  142.5307  158.6518  137.7248 H   0  0  0  0  0  0  0  0  0  0  0  0
  140.5287  160.1910  136.7533 H   0  0  0  0  0  0  0  0  0  0  0  0
  138.6742  158.5132  135.8033 H   0  0  0  0  0  0  0  0  0  0  0  0
  1  2  1  0
  2  3  2  0
  2  4  1  0
  4  5  2  0
  5  6  1  0
  6  7  2  0
  7  8  1  0
  8  9  2  0
  9 10  1  0
 10 11  1  0
 10 12  1  0
 10 13  1  0
  9 14  1  0
 14 15  2  0
 15 16  1  0
 16 17  1  0
 17 18  2  0
 17 19  1  0
 19 20  1  0
 20 21  1  0
 21 22  2  0
 21 23  1  0
 19 24  1  0
 24 25  1  0
 25 26  2  0
 25 27  1  0
 27 28  1  0
 28 29  1  0
 29 30  2  0
 30 31  1  0
 31 32  2  0
 32 33  1  0
 16  4  1  0
 33 29  1  0
 15  6  1  0
  1 34  1  0
  5 35  1  0
  7 36  1  0
  8 37  1  0
 14 38  1  0
 19 39  1  1
 20 40  1  0
 20 41  1  0
 24 42  1  0
 24 43  1  0
 28 44  1  0
 28 45  1  0
 30 46  1  0
 31 47  1  0
 32 48  1  0
M  CHG  3   1  -1  19   1  23  -1
M  END
>  <UniqueID>  (31) 
31

>  <SMILES>  (31) 
[NH-]C(=O)c1cc2ccc(C(F)(F)F)cc2n1C(=O)[N@@H+](CC(=O)[O-])CC(=O)OCc1ccco1

>  <Energy>  (31) 
118.79698972150378

>  <Genealogy>  (31) 
[NH-]C(=O)c1cc2ccc(C(F)(F)F)cc2n1C(=O)[NH+](CC(=O)[O-])CC(=O)OCc1ccco1 (protonated)
[NH-]C(=O)c1cc2ccc(C(F)(F)F)cc2n1C(=O)[N@@H+](CC(=O)[O-])CC(=O)OCc1ccco1 (chirality)
[NH-]C(=O)c1cc2ccc(C(F)(F)F)cc2n1C(=O)[N@@H+](CC(=O)[O-])CC(=O)OCc1ccco1 (3D coordinates assigned)
[NH-]C(=O)c1cc2ccc(C(F)(F)F)cc2n1C(=O)[N@@H+](CC(=O)[O-])CC(=O)OCc1ccco1 (optimized conformer: 118.79698972150378 kcal/mol)

>  <smiles>  (31) 
NC(=O)c1cc2ccc(C(F)(F)F)cc2n1C(=O)N(CC(=O)O)CC(=O)OCc1ccco1

>  <score_type>  (31) 
oracle

>  <origin>  (31) 
adg

>  <m_score__min__energy>  (31) 
-6.1399999999999997

>  <m_primary>  (31) 
energy

$$$$
31:0
     RDKit          3D

 56 57  0  0  0  0  0  0  0  0999 V2000
  141.7280  152.8320  132.7400 C   0  0  0  0  0  0  0  0  0  0  0  0
  141.2290  153.5570  133.8430 O   0  0  0  0  0  0  0  0  0  0  0  0
  141.5770  154.9240  133.7260 C   0  0  0  0  0  0  0  0  0  0  0  0
  140.3710  155.7880  133.9570 C   0  0  0  0  0  0  0  0  0  0  0  0
  139.2920  155.5150  133.3650 O   0  0  0  0  0  0  0  0  0  0  0  0
  140.4400  156.9330  134.8220 N   0  0  0  0  0  0  0  0  0  0  0  0
  139.8810  158.1590  134.6170 C   0  0  0  0  0  0  0  0  0  0  0  0
  139.1760  158.5830  133.3830 C   0  0  0  0  0  0  0  0  0  0  0  0
  138.0330  157.8700  132.9070 N   0  0  0  0  0  0  0  0  0  0  0  0
  139.5730  159.5940  132.7450 O   0  0  0  0  0  0  0  0  0  0  0  0
  140.1110  158.9860  135.7160 C   0  0  0  0  0  0  0  0  0  0  0  0
  140.8220  158.2160  136.6100 C   0  0  0  0  0  0  0  0  0  0  0  0
  141.2820  158.5240  137.8860 C   0  0  0  0  0  0  0  0  0  0  0  0
  141.9390  157.5140  138.6080 C   0  0  0  0  0  0  0  0  0  0  0  0
  142.1180  156.2220  138.0570 C   0  0  0  0  0  0  0  0  0  0  0  0
  142.7670  155.2090  138.8470 N   0  0  0  0  0  0  0  0  0  0  0  0
  142.3640  154.8320  140.2030 C   0  0  0  0  0  0  0  0  0  0  0  0
  141.8040  153.4360  140.2470 C   0  0  0  0  0  0  0  0  0  0  0  0
  142.1550  152.6710  141.1840 O   0  0  0  0  0  0  0  0  0  0  0  0
  140.8790  152.9520  139.2520 N   0  0  0  0  0  0  0  0  0  0  0  0
  139.7250  153.8180  138.9670 C   0  0  0  0  0  0  0  0  0  0  0  0
  141.1500  151.7630  138.3980 C   0  0  0  0  0  0  0  0  0  0  0  0
  139.8310  150.9900  138.1770 C   0  0  0  0  0  0  0  0  0  0  0  0
  142.1740  150.7950  139.0320 C   0  0  0  0  0  0  0  0  0  0  0  0
  141.7410  152.2300  137.0820 C   0  0  0  0  0  0  0  0  0  0  0  0
  141.3450  151.7460  135.9840 O   0  0  0  0  0  0  0  0  0  0  0  0
  142.7610  153.1890  137.1010 O   0  0  0  0  0  0  0  0  0  0  0  0
  143.5460  153.4950  135.9550 C   0  0  0  0  0  0  0  0  0  0  0  0
  141.6410  155.9530  136.7500 C   0  0  0  0  0  0  0  0  0  0  0  0
  141.0050  156.9810  136.0480 C   0  0  0  0  0  0  0  0  0  0  0  0
  142.3173  151.9758  133.1003 H   0  0  0  0  0  0  0  0  0  0  0  0
  140.8880  152.4683  132.1300 H   0  0  0  0  0  0  0  0  0  0  0  0
  142.3677  153.4867  132.1300 H   0  0  0  0  0  0  0  0  0  0  0  0
  142.3471  155.1680  134.4726 H   0  0  0  0  0  0  0  0  0  0  0  0
  141.9632  155.1105  132.7131 H   0  0  0  0  0  0  0  0  0  0  0  0
  137.7150  156.9830  133.3570 H   0  0  0  0  0  0  0  0  0  0  0  0
  137.5230  158.2070  132.0600 H   0  0  0  0  0  0  0  0  0  0  0  0
  139.7923  160.0312  135.8422 H   0  0  0  0  0  0  0  0  0  0  0  0
  141.1360  159.5260  138.3158 H   0  0  0  0  0  0  0  0  0  0  0  0
  142.3203  157.7301  139.6169 H   0  0  0  0  0  0  0  0  0  0  0  0
  143.5690  154.6860  138.4250 H   0  0  0  0  0  0  0  0  0  0  0  0
  143.2416  154.8855  140.8640 H   0  0  0  0  0  0  0  0  0  0  0  0
  141.5792  155.5279  140.5345 H   0  0  0  0  0  0  0  0  0  0  0  0
  139.2765  154.1545  139.9134 H   0  0  0  0  0  0  0  0  0  0  0  0
  140.0568  154.6920  138.3872 H   0  0  0  0  0  0  0  0  0  0  0  0
  138.9786  153.2552  138.3872 H   0  0  0  0  0  0  0  0  0  0  0  0
  139.3899  150.7315  139.1510 H   0  0  0  0  0  0  0  0  0  0  0  0
  139.1278  151.6189  137.6113 H   0  0  0  0  0  0  0  0  0  0  0  0
  140.0360  150.0691  137.6113 H   0  0  0  0  0  0  0  0  0  0  0  0
  142.1078  150.8576  140.1282 H   0  0  0  0  0  0  0  0  0  0  0  0
  141.9546  149.7665  138.7096 H   0  0  0  0  0  0  0  0  0  0  0  0
  143.1886  151.0718  138.7096 H   0  0  0  0  0  0  0  0  0  0  0  0
  144.5269  153.8773  136.2739 H   0  0  0  0  0  0  0  0  0  0  0  0
  143.6853  152.5853  135.3524 H   0  0  0  0  0  0  0  0  0  0  0  0
  143.0329  154.2590  135.3524 H   0  0  0  0  0  0  0  0  0  0  0  0
  141.7683  154.9582  136.2983 H   0  0  0  0  0  0  0  0  0  0  0  0
  1  2  1  0
  2  3  1  0
  3  4  1  0
  4  5  2  0
  4  6  1  0
  6  7  1  0
  7  8  1  0
  8  9  1  0
  8 10  2  0
  7 11  2  0
 11 12  1  0
 12 13  2  0
 13 14  1  0
 14 15  2  0
 15 16  1  0
 16 17  1  0
 17 18  1  0
 18 19  2  0
 18 20  1  0
 20 21  1  0
 20 22  1  0
 22 23  1  0
 22 24  1  0
 22 25  1  0
 25 26  2  0
 25 27  1  0
 27 28  1  0
 15 29  1  0
 29 30  2  0
 30  6  1  0
 30 12  1  0
  1 31  1  0
  1 32  1  0
  1 33  1  0
  3 34  1  0
  3 35  1  0
  9 36  1  0
  9 37  1  0
 11 38  1  0
 13 39  1  0
 14 40  1  0
 16 41  1  0
 17 42  1  0
 17 43  1  0
 21 44  1  0
 21 45  1  0
 21 46  1  0
 23 47  1  0
 23 48  1  0
 23 49  1  0
 24 50  1  0
 24 51  1  0
 24 52  1  0
 28 53  1  0
 28 54  1  0
 28 55  1  0
 29 56  1  0
M  END
>  <UniqueID>  (32) 
32

>  <SMILES>  (32) 
COCC(=O)n1c(C(N)=O)cc2ccc(NCC(=O)N(C)C(C)(C)C(=O)OC)cc21

>  <Energy>  (32) 
97.08954815179314

>  <Genealogy>  (32) 
COCC(=O)n1c(C(N)=O)cc2ccc(NCC(=O)N(C)C(C)(C)C(=O)OC)cc21 (3D coordinates assigned)
COCC(=O)n1c(C(N)=O)cc2ccc(NCC(=O)N(C)C(C)(C)C(=O)OC)cc21 (optimized conformer: 97.08954815179314 kcal/mol)

>  <smiles>  (32) 
COCC(=O)n1c(C(N)=O)cc2ccc(NCC(=O)N(C)C(C)(C)C(=O)OC)cc21

>  <score_type>  (32) 
oracle

>  <origin>  (32) 
adg

>  <m_score__min__energy>  (32) 
-7.6399999999999997

>  <m_primary>  (32) 
energy

$$$$
32:0
     RDKit          3D

 33 34  0  0  0  0  0  0  0  0999 V2000
  142.3950  160.5320  133.1440 N   0  0  0  0  0  0  0  0  0  0  0  0
  143.7650  160.7210  133.4920 C   0  0  0  0  0  0  0  0  0  0  0  0
  144.1850  161.8850  133.7270 O   0  0  0  0  0  0  0  0  0  0  0  0
  144.6840  159.5700  133.6220 C   0  0  0  0  0  0  0  0  0  0  0  0
  146.0680  159.6720  133.4960 C   0  0  0  0  0  0  0  0  0  0  0  0
  146.5530  158.4090  133.7490 C   0  0  0  0  0  0  0  0  0  0  0  0
  147.8600  157.9320  133.7530 C   0  0  0  0  0  0  0  0  0  0  0  0
  148.0640  156.5690  134.0250 C   0  0  0  0  0  0  0  0  0  0  0  0
  146.9640  155.7080  134.2670 C   0  0  0  0  0  0  0  0  0  0  0  0
  147.1960  154.2560  134.5760 C   0  0  0  0  0  0  0  0  0  0  0  0
  147.4900  154.0830  136.0310 C   0  0  0  0  0  0  0  0  0  0  0  0
  148.2590  154.8860  136.6230 O   0  0  0  0  0  0  0  0  0  0  0  0
  146.9570  153.0030  136.7240 O   0  0  0  0  0  0  0  0  0  0  0  0
  145.6510  156.2300  134.2630 C   0  0  0  0  0  0  0  0  0  0  0  0
  145.4810  157.5950  134.0110 C   0  0  0  0  0  0  0  0  0  0  0  0
  144.3280  158.2940  133.9380 N   0  0  0  0  0  0  0  0  0  0  0  0
  143.0040  157.7620  134.0890 C   0  0  0  0  0  0  0  0  0  0  0  0
  142.7200  157.0730  135.1060 O   0  0  0  0  0  0  0  0  0  0  0  0
  142.0070  158.0210  133.0900 N   0  0  0  0  0  0  0  0  0  0  0  0
  140.6390  157.5230  133.2020 C   0  0  0  0  0  0  0  0  0  0  0  0
  139.7220  158.3440  132.3520 C   0  0  0  0  0  0  0  0  0  0  0  0
  138.4760  158.1710  132.4100 O   0  0  0  0  0  0  0  0  0  0  0  0
  140.2470  159.2780  131.4690 O   0  0  0  0  0  0  0  0  0  0  0  0
  142.1260  160.1060  132.2300 H   0  0  0  0  0  0  0  0  0  0  0  0
  146.6499  160.5717  133.2470 H   0  0  0  0  0  0  0  0  0  0  0  0
  148.7082  158.6021  133.5493 H   0  0  0  0  0  0  0  0  0  0  0  0
  149.0871  156.1659  134.0504 H   0  0  0  0  0  0  0  0  0  0  0  0
  146.2959  153.6799  134.3154 H   0  0  0  0  0  0  0  0  0  0  0  0
  148.0534  153.8948  133.9892 H   0  0  0  0  0  0  0  0  0  0  0  0
  144.7847  155.5793  134.4532 H   0  0  0  0  0  0  0  0  0  0  0  0
  142.2710  158.5700  132.2420 H   0  0  0  0  0  0  0  0  0  0  0  0
  140.6046  156.4756  132.8677 H   0  0  0  0  0  0  0  0  0  0  0  0
  140.3155  157.5918  134.2511 H   0  0  0  0  0  0  0  0  0  0  0  0
  1  2  1  0
  2  3  2  0
  2  4  1  0
  4  5  2  0
  5  6  1  0
  6  7  2  0
  7  8  1  0
  8  9  2  0
  9 10  1  0
 10 11  1  0
 11 12  2  0
 11 13  1  0
  9 14  1  0
 14 15  2  0
 15 16  1  0
 16 17  1  0
 17 18  2  0
 17 19  1  0
 19 20  1  0
 20 21  1  0
 21 22  2  0
 21 23  1  0
 16  4  1  0
 15  6  1  0
  1 24  1  0
  5 25  1  0
  7 26  1  0
  8 27  1  0
 10 28  1  0
 10 29  1  0
 14 30  1  0
 19 31  1  0
 20 32  1  0
 20 33  1  0
M  CHG  3   1  -1  13  -1  23  -1
M  END
>  <UniqueID>  (33) 
33

>  <SMILES>  (33) 
[NH-]C(=O)c1cc2ccc(CC(=O)[O-])cc2n1C(=O)NCC(=O)[O-]

>  <Energy>  (33) 
67.97964527797724

>  <Genealogy>  (33) 
[NH-]C(=O)c1cc2ccc(CC(=O)[O-])cc2n1C(=O)NCC(=O)[O-] (protonated)
[NH-]C(=O)c1cc2ccc(CC(=O)[O-])cc2n1C(=O)NCC(=O)[O-] (3D coordinates assigned)
[NH-]C(=O)c1cc2ccc(CC(=O)[O-])cc2n1C(=O)NCC(=O)[O-] (optimized conformer: 67.97964527797724 kcal/mol)

>  <smiles>  (33) 
NC(=O)c1cc2ccc(CC(=O)O)cc2n1C(=O)NCC(=O)O

>  <score_type>  (33) 
oracle

>  <origin>  (33) 
adg

>  <m_score__min__energy>  (33) 
-7.1100000000000003

>  <m_primary>  (33) 
energy

$$$$
33:0
     RDKit          3D

 43 45  0  0  0  0  0  0  0  0999 V2000
  143.0870  157.2240  132.2570 N   0  0  0  0  0  0  0  0  0  0  0  0
  143.6320  156.2830  133.1850 C   0  0  0  0  0  0  0  0  0  0  0  0
  144.4070  156.6970  134.0890 O   0  0  0  0  0  0  0  0  0  0  0  0
  143.2880  154.8440  133.1060 C   0  0  0  0  0  0  0  0  0  0  0  0
  144.2000  153.8220  132.8370 C   0  0  0  0  0  0  0  0  0  0  0  0
  143.4560  152.6630  132.8210 C   0  0  0  0  0  0  0  0  0  0  0  0
  143.8510  151.3460  132.6090 C   0  0  0  0  0  0  0  0  0  0  0  0
  142.8670  150.3450  132.6740 C   0  0  0  0  0  0  0  0  0  0  0  0
  141.5190  150.6680  132.9740 C   0  0  0  0  0  0  0  0  0  0  0  0
  140.4660  149.5900  133.0020 C   0  0  0  0  0  0  0  0  0  0  0  0
  140.8960  148.4680  132.3140 F   0  0  0  0  0  0  0  0  0  0  0  0
  139.2950  150.0350  132.4140 F   0  0  0  0  0  0  0  0  0  0  0  0
  140.2080  149.2410  134.3150 F   0  0  0  0  0  0  0  0  0  0  0  0
  141.1540  152.0230  133.1610 C   0  0  0  0  0  0  0  0  0  0  0  0
  142.1510  152.9990  133.0710 C   0  0  0  0  0  0  0  0  0  0  0  0
  142.0320  154.3320  133.2360 N   0  0  0  0  0  0  0  0  0  0  0  0
  140.8330  155.0470  133.5690 C   0  0  0  0  0  0  0  0  0  0  0  0
  139.8080  154.9000  132.8510 O   0  0  0  0  0  0  0  0  0  0  0  0
  140.8010  155.9580  134.7310 C   0  0  0  0  0  0  0  0  0  0  0  0
  141.0570  155.5060  135.8790 O   0  0  0  0  0  0  0  0  0  0  0  0
  140.5110  157.3570  134.5730 N   0  0  0  0  0  0  0  0  0  0  0  0
  141.3300  158.3390  135.2980 C   0  0  0  0  0  0  0  0  0  0  0  0
  140.9840  159.7760  134.8810 C   0  0  0  0  0  0  0  0  0  0  0  0
  140.7860  159.8700  133.3570 C   0  0  0  0  0  0  0  0  0  0  0  0
  141.9860  159.5520  132.6970 O   0  0  0  0  0  0  0  0  0  0  0  0
  139.6610  158.9270  132.8610 C   0  0  0  0  0  0  0  0  0  0  0  0
  139.3130  157.8030  133.8520 C   0  0  0  0  0  0  0  0  0  0  0  0
  142.4960  156.9200  131.4530 H   0  0  0  0  0  0  0  0  0  0  0  0
  143.3150  158.2390  132.3480 H   0  0  0  0  0  0  0  0  0  0  0  0
  145.2831  153.9212  132.6727 H   0  0  0  0  0  0  0  0  0  0  0  0
  144.9010  151.0960  132.3971 H   0  0  0  0  0  0  0  0  0  0  0  0
  143.1459  149.2970  132.4898 H   0  0  0  0  0  0  0  0  0  0  0  0
  140.1109  152.3013  133.3721 H   0  0  0  0  0  0  0  0  0  0  0  0
  141.1508  158.2269  136.3775 H   0  0  0  0  0  0  0  0  0  0  0  0
  142.3869  158.1538  135.0558 H   0  0  0  0  0  0  0  0  0  0  0  0
  140.0561  160.0843  135.3850 H   0  0  0  0  0  0  0  0  0  0  0  0
  141.8144  160.4369  135.1702 H   0  0  0  0  0  0  0  0  0  0  0  0
  140.4904  160.9040  133.1258 H   0  0  0  0  0  0  0  0  0  0  0  0
  141.7360  159.1550  131.8210 H   0  0  0  0  0  0  0  0  0  0  0  0
  138.7564  159.5279  132.6861 H   0  0  0  0  0  0  0  0  0  0  0  0
  140.0284  158.4438  131.9437 H   0  0  0  0  0  0  0  0  0  0  0  0
  138.5739  158.1762  134.5762 H   0  0  0  0  0  0  0  0  0  0  0  0
  138.9011  156.9516  133.2903 H   0  0  0  0  0  0  0  0  0  0  0  0
  1  2  1  0
  2  3  2  0
  2  4  1  0
  4  5  2  0
  5  6  1  0
  6  7  2  0
  7  8  1  0
  8  9  2  0
  9 10  1  0
 10 11  1  0
 10 12  1  0
 10 13  1  0
  9 14  1  0
 14 15  2  0
 15 16  1  0
 16 17  1  0
 17 18  2  0
 17 19  1  0
 19 20  2  0
 19 21  1  0
 21 22  1  0
 22 23  1  0
 23 24  1  0
 24 25  1  0
 24 26  1  0
 26 27  1  0
 16  4  1  0
 27 21  1  0
 15  6  1  0
  1 28  1  0
  1 29  1  0
  5 30  1  0
  7 31  1  0
  8 32  1  0
 14 33  1  0
 22 34  1  0
 22 35  1  0
 23 36  1  0
 23 37  1  0
 24 38  1  0
 25 39  1  0
 26 40  1  0
 26 41  1  0
 27 42  1  0
 27 43  1  0
M  END
>  <UniqueID>  (34) 
34

>  <SMILES>  (34) 
NC(=O)c1cc2ccc(C(F)(F)F)cc2n1C(=O)C(=O)N1CCC(O)CC1

>  <Energy>  (34) 
89.66379894539567

>  <Genealogy>  (34) 
NC(=O)c1cc2ccc(C(F)(F)F)cc2n1C(=O)C(=O)N1CCC(O)CC1 (3D coordinates assigned)
NC(=O)c1cc2ccc(C(F)(F)F)cc2n1C(=O)C(=O)N1CCC(O)CC1 (nonaromatic ring conformer: 89.66379894539567 kcal/mol)

>  <smiles>  (34) 
NC(=O)c1cc2ccc(C(F)(F)F)cc2n1C(=O)C(=O)N1CCC(O)CC1

>  <score_type>  (34) 
oracle

>  <origin>  (34) 
adg

>  <m_score__min__energy>  (34) 
-7.5599999999999996

>  <m_primary>  (34) 
energy

$$$$
34:0
     RDKit          3D

 33 35  0  0  0  0  0  0  0  0999 V2000
  142.7040  160.6210  133.3560 N   0  0  0  0  0  0  0  0  0  0  0  0
  144.0760  160.8700  133.6510 C   0  0  0  0  0  0  0  0  0  0  0  0
  144.4130  161.9900  134.1200 O   0  0  0  0  0  0  0  0  0  0  0  0
  145.0970  159.8200  133.4550 C   0  0  0  0  0  0  0  0  0  0  0  0
  146.4620  160.0830  133.3480 C   0  0  0  0  0  0  0  0  0  0  0  0
  147.0660  158.8470  133.2640 C   0  0  0  0  0  0  0  0  0  0  0  0
  148.4110  158.5120  133.1500 C   0  0  0  0  0  0  0  0  0  0  0  0
  148.7450  157.1490  133.0720 C   0  0  0  0  0  0  0  0  0  0  0  0
  147.7370  156.1520  133.0890 C   0  0  0  0  0  0  0  0  0  0  0  0
  148.1140  154.6920  133.0490 C   0  0  0  0  0  0  0  0  0  0  0  0
  147.0530  153.9620  132.5460 F   0  0  0  0  0  0  0  0  0  0  0  0
  148.4170  154.2330  134.3180 F   0  0  0  0  0  0  0  0  0  0  0  0
  149.2210  154.4930  132.2420 F   0  0  0  0  0  0  0  0  0  0  0  0
  146.3810  156.5330  133.2310 C   0  0  0  0  0  0  0  0  0  0  0  0
  146.0810  157.8970  133.3160 C   0  0  0  0  0  0  0  0  0  0  0  0
  144.8680  158.4770  133.4280 N   0  0  0  0  0  0  0  0  0  0  0  0
  143.6050  157.7950  133.4450 C   0  0  0  0  0  0  0  0  0  0  0  0
  142.9040  157.7690  132.3980 O   0  0  0  0  0  0  0  0  0  0  0  0
  143.0940  157.2020  134.6990 C   0  0  0  0  0  0  0  0  0  0  0  0
  143.6780  156.1870  135.1690 O   0  0  0  0  0  0  0  0  0  0  0  0
  141.9350  157.7540  135.4290 C   0  0  0  0  0  0  0  0  0  0  0  0
  141.8780  158.9950  136.0340 C   0  0  0  0  0  0  0  0  0  0  0  0
  140.6310  159.0710  136.6180 C   0  0  0  0  0  0  0  0  0  0  0  0
  139.9690  157.9580  136.3990 O   0  0  0  0  0  0  0  0  0  0  0  0
  140.7220  157.1440  135.6940 C   0  0  0  0  0  0  0  0  0  0  0  0
  142.4270  159.8930  132.6590 H   0  0  0  0  0  0  0  0  0  0  0  0
  146.9525  161.0675  133.3337 H   0  0  0  0  0  0  0  0  0  0  0  0
  149.1889  159.2893  133.1217 H   0  0  0  0  0  0  0  0  0  0  0  0
  149.8015  156.8521  132.9969 H   0  0  0  0  0  0  0  0  0  0  0  0
  145.5838  155.7763  133.2734 H   0  0  0  0  0  0  0  0  0  0  0  0
  142.6648  159.7636  136.0471 H   0  0  0  0  0  0  0  0  0  0  0  0
  140.2483  159.9341  137.1824 H   0  0  0  0  0  0  0  0  0  0  0  0
  140.4329  156.1347  135.3657 H   0  0  0  0  0  0  0  0  0  0  0  0
  1  2  1  0
  2  3  2  0
  2  4  1  0
  4  5  2  0
  5  6  1  0
  6  7  2  0
  7  8  1  0
  8  9  2  0
  9 10  1  0
 10 11  1  0
 10 12  1  0
 10 13  1  0
  9 14  1  0
 14 15  2  0
 15 16  1  0
 16 17  1  0
 17 18  2  0
 17 19  1  0
 19 20  2  0
 19 21  1  0
 21 22  1  0
 22 23  2  0
 23 24  1  0
 24 25  1  0
 16  4  1  0
 25 21  2  0
 15  6  1  0
  1 26  1  0
  5 27  1  0
  7 28  1  0
  8 29  1  0
 14 30  1  0
 22 31  1  0
 23 32  1  0
 25 33  1  0
M  CHG  1   1  -1
M  END
>  <UniqueID>  (35) 
35

>  <SMILES>  (35) 
[NH-]C(=O)c1cc2ccc(C(F)(F)F)cc2n1C(=O)C(=O)c1ccoc1

>  <Energy>  (35) 
103.97873313295172

>  <Genealogy>  (35) 
[NH-]C(=O)c1cc2ccc(C(F)(F)F)cc2n1C(=O)C(=O)c1ccoc1 (protonated)
[NH-]C(=O)c1cc2ccc(C(F)(F)F)cc2n1C(=O)C(=O)c1ccoc1 (3D coordinates assigned)
[NH-]C(=O)c1cc2ccc(C(F)(F)F)cc2n1C(=O)C(=O)c1ccoc1 (optimized conformer: 103.97873313295172 kcal/mol)

>  <smiles>  (35) 
NC(=O)c1cc2ccc(C(F)(F)F)cc2n1C(=O)C(=O)c1ccoc1

>  <score_type>  (35) 
oracle

>  <origin>  (35) 
adg

>  <m_score__min__energy>  (35) 
-6.9299999999999997

>  <m_primary>  (35) 
energy

$$$$
35:0
     RDKit          3D

 41 42  0  0  0  0  0  0  0  0999 V2000
  148.0160  153.8930  132.7090 C   0  0  0  0  0  0  0  0  0  0  0  0
  147.8710  155.0850  132.8290 C   0  0  0  0  0  0  0  0  0  0  0  0
  147.6980  156.5060  132.9730 C   0  0  0  0  0  0  0  0  0  0  0  0
  148.8050  157.3710  132.8110 C   0  0  0  0  0  0  0  0  0  0  0  0
  148.6460  158.7610  132.9370 C   0  0  0  0  0  0  0  0  0  0  0  0
  147.3760  159.2490  133.2300 C   0  0  0  0  0  0  0  0  0  0  0  0
  146.9370  160.5440  133.3780 C   0  0  0  0  0  0  0  0  0  0  0  0
  145.5730  160.4450  133.6490 C   0  0  0  0  0  0  0  0  0  0  0  0
  144.7170  161.6090  133.9600 C   0  0  0  0  0  0  0  0  0  0  0  0
  143.3110  161.5360  133.7330 N   0  0  0  0  0  0  0  0  0  0  0  0
  145.2180  162.6810  134.3900 O   0  0  0  0  0  0  0  0  0  0  0  0
  145.1820  159.1390  133.6620 N   0  0  0  0  0  0  0  0  0  0  0  0
  143.8530  158.6220  133.8260 C   0  0  0  0  0  0  0  0  0  0  0  0
  143.2380  158.8000  134.9130 O   0  0  0  0  0  0  0  0  0  0  0  0
  143.2560  157.8970  132.7870 O   0  0  0  0  0  0  0  0  0  0  0  0
  142.6990  156.5950  132.9640 C   0  0  0  0  0  0  0  0  0  0  0  0
  141.6100  156.6070  134.0060 C   0  0  0  0  0  0  0  0  0  0  0  0
  141.6910  155.7970  134.9710 O   0  0  0  0  0  0  0  0  0  0  0  0
  140.4470  157.4600  133.8910 N   0  0  0  0  0  0  0  0  0  0  0  0
  139.7450  157.8640  135.1140 C   0  0  0  0  0  0  0  0  0  0  0  0
  139.9610  157.9480  132.5910 C   0  0  0  0  0  0  0  0  0  0  0  0
  140.5330  159.3350  132.2820 C   0  0  0  0  0  0  0  0  0  0  0  0
  141.1820  159.8670  133.4060 O   0  0  0  0  0  0  0  0  0  0  0  0
  146.2970  158.4190  133.4050 C   0  0  0  0  0  0  0  0  0  0  0  0
  146.4240  157.0300  133.2690 C   0  0  0  0  0  0  0  0  0  0  0  0
  148.1482  152.8065  132.5996 H   0  0  0  0  0  0  0  0  0  0  0  0
  149.7969  156.9527  132.5849 H   0  0  0  0  0  0  0  0  0  0  0  0
  149.4993  159.4430  132.8080 H   0  0  0  0  0  0  0  0  0  0  0  0
  147.5356  161.4635  133.2992 H   0  0  0  0  0  0  0  0  0  0  0  0
  142.7640  160.6950  134.0230 H   0  0  0  0  0  0  0  0  0  0  0  0
  142.2773  156.2517  132.0078 H   0  0  0  0  0  0  0  0  0  0  0  0
  143.4969  155.9168  133.3008 H   0  0  0  0  0  0  0  0  0  0  0  0
  140.3189  157.5337  135.9923 H   0  0  0  0  0  0  0  0  0  0  0  0
  139.6428  158.9591  135.1334 H   0  0  0  0  0  0  0  0  0  0  0  0
  138.7468  157.4022  135.1334 H   0  0  0  0  0  0  0  0  0  0  0  0
  140.2719  157.2460  131.8032 H   0  0  0  0  0  0  0  0  0  0  0  0
  138.8640  158.0196  132.6291 H   0  0  0  0  0  0  0  0  0  0  0  0
  141.2535  159.2521  131.4550 H   0  0  0  0  0  0  0  0  0  0  0  0
  139.7056  160.0038  132.0027 H   0  0  0  0  0  0  0  0  0  0  0  0
  142.1540  159.7290  133.2640 H   0  0  0  0  0  0  0  0  0  0  0  0
  145.5540  156.3678  133.3899 H   0  0  0  0  0  0  0  0  0  0  0  0
  1  2  3  0
  2  3  1  0
  3  4  2  0
  4  5  1  0
  5  6  2  0
  6  7  1  0
  7  8  2  0
  8  9  1  0
  9 10  1  0
  9 11  2  0
  8 12  1  0
 12 13  1  0
 13 14  2  0
 13 15  1  0
 15 16  1  0
 16 17  1  0
 17 18  2  0
 17 19  1  0
 19 20  1  0
 19 21  1  0
 21 22  1  0
 22 23  1  0
 12 24  1  0
 24 25  2  0
 25  3  1  0
 24  6  1  0
  1 26  1  0
  4 27  1  0
  5 28  1  0
  7 29  1  0
 10 30  1  0
 16 31  1  0
 16 32  1  0
 20 33  1  0
 20 34  1  0
 20 35  1  0
 21 36  1  0
 21 37  1  0
 22 38  1  0
 22 39  1  0
 23 40  1  0
 25 41  1  0
M  CHG  1  10  -1
M  END
>  <UniqueID>  (36) 
36

>  <SMILES>  (36) 
C#Cc1ccc2cc(C([NH-])=O)n(C(=O)OCC(=O)N(C)CCO)c2c1

>  <Energy>  (36) 
72.91193740506549

>  <Genealogy>  (36) 
C#Cc1ccc2cc(C([NH-])=O)n(C(=O)OCC(=O)N(C)CCO)c2c1 (protonated)
C#Cc1ccc2cc(C([NH-])=O)n(C(=O)OCC(=O)N(C)CCO)c2c1 (3D coordinates assigned)
C#Cc1ccc2cc(C([NH-])=O)n(C(=O)OCC(=O)N(C)CCO)c2c1 (optimized conformer: 72.91193740506549 kcal/mol)

>  <smiles>  (36) 
C#Cc1ccc2cc(C(N)=O)n(C(=O)OCC(=O)N(C)CCO)c2c1

>  <score_type>  (36) 
oracle

>  <origin>  (36) 
adg

>  <m_score__min__energy>  (36) 
-6.3600000000000003

>  <m_primary>  (36) 
energy

$$$$
36:0
     RDKit          3D

 39 41  0  0  0  0  0  0  0  0999 V2000
  143.1440  161.3730  133.7310 N   0  0  0  0  0  0  0  0  0  0  0  0
  144.5650  161.4140  133.8180 C   0  0  0  0  0  0  0  0  0  0  0  0
  145.1300  162.4880  134.1610 O   0  0  0  0  0  0  0  0  0  0  0  0
  145.3820  160.2140  133.5420 C   0  0  0  0  0  0  0  0  0  0  0  0
  146.7040  160.2630  133.0980 C   0  0  0  0  0  0  0  0  0  0  0  0
  147.1140  158.9490  133.0260 C   0  0  0  0  0  0  0  0  0  0  0  0
  148.3370  158.4100  132.6400 C   0  0  0  0  0  0  0  0  0  0  0  0
  148.4710  157.0100  132.6490 C   0  0  0  0  0  0  0  0  0  0  0  0
  147.3860  156.1820  133.0300 C   0  0  0  0  0  0  0  0  0  0  0  0
  147.5510  154.6880  133.0380 C   0  0  0  0  0  0  0  0  0  0  0  0
  148.8290  154.3550  132.6260 F   0  0  0  0  0  0  0  0  0  0  0  0
  147.3430  154.2070  134.3180 F   0  0  0  0  0  0  0  0  0  0  0  0
  146.1620  156.7670  133.4260 C   0  0  0  0  0  0  0  0  0  0  0  0
  146.0620  158.1610  133.4160 C   0  0  0  0  0  0  0  0  0  0  0  0
  144.9930  158.9210  133.7280 N   0  0  0  0  0  0  0  0  0  0  0  0
  143.7060  158.4300  134.1270 C   0  0  0  0  0  0  0  0  0  0  0  0
  143.2170  158.8020  135.2280 O   0  0  0  0  0  0  0  0  0  0  0  0
  142.9810  157.4580  133.2850 C   0  0  0  0  0  0  0  0  0  0  0  0
  143.3210  156.2450  133.3030 O   0  0  0  0  0  0  0  0  0  0  0  0
  141.8120  157.8780  132.4440 C   0  0  0  0  0  0  0  0  0  0  0  0
  140.4750  158.4600  133.4830 S   0  0  0  0  0  0  0  0  0  0  0  0
  139.1630  158.1280  132.8300 O   0  0  0  0  0  0  0  0  0  0  0  0
  140.5850  159.9530  133.6120 O   0  0  0  0  0  0  0  0  0  0  0  0
  140.4690  157.7590  135.1360 C   0  0  0  0  0  0  0  0  0  0  0  0
  140.5140  158.7940  136.2470 C   0  0  0  0  0  0  0  0  0  0  0  0
  139.2370  158.0100  135.9910 C   0  0  0  0  0  0  0  0  0  0  0  0
  142.6110  160.5290  134.0360 H   0  0  0  0  0  0  0  0  0  0  0  0
  147.2936  161.1597  132.8567 H   0  0  0  0  0  0  0  0  0  0  0  0
  149.1727  159.0581  132.3374 H   0  0  0  0  0  0  0  0  0  0  0  0
  149.4281  156.5530  132.3572 H   0  0  0  0  0  0  0  0  0  0  0  0
  146.8181  154.2402  132.3507 H   0  0  0  0  0  0  0  0  0  0  0  0
  145.3108  156.1419  133.7338 H   0  0  0  0  0  0  0  0  0  0  0  0
  142.1241  158.6871  131.7673 H   0  0  0  0  0  0  0  0  0  0  0  0
  141.4616  157.0132  131.8615 H   0  0  0  0  0  0  0  0  0  0  0  0
  141.0361  156.8566  134.8638 H   0  0  0  0  0  0  0  0  0  0  0  0
  141.1050  158.6013  137.1545 H   0  0  0  0  0  0  0  0  0  0  0  0
  140.7726  159.8616  136.3052 H   0  0  0  0  0  0  0  0  0  0  0  0
  138.9041  157.2497  136.7129 H   0  0  0  0  0  0  0  0  0  0  0  0
  138.1890  158.2748  135.7870 H   0  0  0  0  0  0  0  0  0  0  0  0
  1  2  1  0
  2  3  2  0
  2  4  1  0
  4  5  2  0
  5  6  1  0
  6  7  2  0
  7  8  1  0
  8  9  2  0
  9 10  1  0
 10 11  1  0
 10 12  1  0
  9 13  1  0
 13 14  2  0
 14 15  1  0
 15 16  1  0
 16 17  2  0
 16 18  1  0
 18 19  2  0
 18 20  1  0
 20 21  1  0
 21 22  2  0
 21 23  2  0
 21 24  1  0
 24 25  1  0
 25 26  1  0
 15  4  1  0
 26 24  1  0
 14  6  1  0
  1 27  1  0
  5 28  1  0
  7 29  1  0
  8 30  1  0
 10 31  1  0
 13 32  1  0
 20 33  1  0
 20 34  1  0
 24 35  1  0
 25 36  1  0
 25 37  1  0
 26 38  1  0
 26 39  1  0
M  CHG  1   1  -1
M  END
>  <UniqueID>  (37) 
37

>  <SMILES>  (37) 
[NH-]C(=O)c1cc2ccc(C(F)F)cc2n1C(=O)C(=O)CS(=O)(=O)C1CC1

>  <Energy>  (37) 
337.44206535813134

>  <Genealogy>  (37) 
[NH-]C(=O)c1cc2ccc(C(F)F)cc2n1C(=O)C(=O)CS(=O)(=O)C1CC1 (protonated)
[NH-]C(=O)c1cc2ccc(C(F)F)cc2n1C(=O)C(=O)CS(=O)(=O)C1CC1 (3D coordinates assigned)
[NH-]C(=O)c1cc2ccc(C(F)F)cc2n1C(=O)C(=O)CS(=O)(=O)C1CC1 (nonaromatic ring conformer: 337.44206535813134 kcal/mol)

>  <smiles>  (37) 
NC(=O)c1cc2ccc(C(F)F)cc2n1C(=O)C(=O)CS(=O)(=O)C1CC1

>  <score_type>  (37) 
oracle

>  <origin>  (37) 
adg

>  <m_score__min__energy>  (37) 
-7.5499999999999998

>  <m_primary>  (37) 
energy

$$$$
37:0
     RDKit          3D

 33 34  0  0  0  0  0  0  0  0999 V2000
  148.5190  157.6590  132.5150 C   0  0  0  0  0  0  0  0  0  0  0  0
  147.4550  158.6100  132.9740 C   0  0  0  0  0  0  0  0  0  0  0  0
  147.7930  159.9420  133.3180 C   0  0  0  0  0  0  0  0  0  0  0  0
  146.7980  160.8570  133.7040 C   0  0  0  0  0  0  0  0  0  0  0  0
  145.4790  160.4120  133.7320 C   0  0  0  0  0  0  0  0  0  0  0  0
  144.3190  161.0910  134.0320 C   0  0  0  0  0  0  0  0  0  0  0  0
  143.2940  160.1610  133.8690 C   0  0  0  0  0  0  0  0  0  0  0  0
  141.8690  160.4580  134.1310 C   0  0  0  0  0  0  0  0  0  0  0  0
  141.1960  159.8970  135.2560 N   0  0  0  0  0  0  0  0  0  0  0  0
  141.2430  161.2410  133.3680 O   0  0  0  0  0  0  0  0  0  0  0  0
  143.8000  158.9560  133.4860 N   0  0  0  0  0  0  0  0  0  0  0  0
  143.0730  157.7670  133.1420 C   0  0  0  0  0  0  0  0  0  0  0  0
  143.7050  156.7250  132.8210 O   0  0  0  0  0  0  0  0  0  0  0  0
  141.5980  157.7580  133.1580 C   0  0  0  0  0  0  0  0  0  0  0  0
  140.9920  157.0940  134.0430 O   0  0  0  0  0  0  0  0  0  0  0  0
  140.8520  158.5040  132.1870 N   0  0  0  0  0  0  0  0  0  0  0  0
  139.3890  158.5070  132.1920 C   0  0  0  0  0  0  0  0  0  0  0  0
  138.8590  159.4430  131.1520 C   0  0  0  0  0  0  0  0  0  0  0  0
  139.6450  160.0060  130.3460 O   0  0  0  0  0  0  0  0  0  0  0  0
  137.5010  159.7360  131.1080 O   0  0  0  0  0  0  0  0  0  0  0  0
  145.1370  159.1260  133.4020 C   0  0  0  0  0  0  0  0  0  0  0  0
  146.1040  158.2000  132.9960 C   0  0  0  0  0  0  0  0  0  0  0  0
  149.0160  157.2148  133.3900 H   0  0  0  0  0  0  0  0  0  0  0  0
  148.0623  156.8625  131.9091 H   0  0  0  0  0  0  0  0  0  0  0  0
  149.2594  158.2018  131.9091 H   0  0  0  0  0  0  0  0  0  0  0  0
  148.8444  160.2635  133.2827 H   0  0  0  0  0  0  0  0  0  0  0  0
  147.0535  161.8919  133.9754 H   0  0  0  0  0  0  0  0  0  0  0  0
  144.2221  162.1438  134.3357 H   0  0  0  0  0  0  0  0  0  0  0  0
  140.9460  158.8850  135.2810 H   0  0  0  0  0  0  0  0  0  0  0  0
  141.3670  159.0500  131.4580 H   0  0  0  0  0  0  0  0  0  0  0  0
  139.0250  157.4904  131.9822 H   0  0  0  0  0  0  0  0  0  0  0  0
  139.0392  158.8410  133.1800 H   0  0  0  0  0  0  0  0  0  0  0  0
  145.8192  157.1791  132.7016 H   0  0  0  0  0  0  0  0  0  0  0  0
  1  2  1  0
  2  3  2  0
  3  4  1  0
  4  5  2  0
  5  6  1  0
  6  7  2  0
  7  8  1  0
  8  9  1  0
  8 10  2  0
  7 11  1  0
 11 12  1  0
 12 13  2  0
 12 14  1  0
 14 15  2  0
 14 16  1  0
 16 17  1  0
 17 18  1  0
 18 19  2  0
 18 20  1  0
 11 21  1  0
 21 22  2  0
 22  2  1  0
 21  5  1  0
  1 23  1  0
  1 24  1  0
  1 25  1  0
  3 26  1  0
  4 27  1  0
  6 28  1  0
  9 29  1  0
 16 30  1  0
 17 31  1  0
 17 32  1  0
 22 33  1  0
M  CHG  2   9  -1  20  -1
M  END
>  <UniqueID>  (38) 
38

>  <SMILES>  (38) 
Cc1ccc2cc(C([NH-])=O)n(C(=O)C(=O)NCC(=O)[O-])c2c1

>  <Energy>  (38) 
69.2498226433655

>  <Genealogy>  (38) 
Cc1ccc2cc(C([NH-])=O)n(C(=O)C(=O)NCC(=O)[O-])c2c1 (protonated)
Cc1ccc2cc(C([NH-])=O)n(C(=O)C(=O)NCC(=O)[O-])c2c1 (3D coordinates assigned)
Cc1ccc2cc(C([NH-])=O)n(C(=O)C(=O)NCC(=O)[O-])c2c1 (optimized conformer: 69.2498226433655 kcal/mol)

>  <smiles>  (38) 
Cc1ccc2cc(C(N)=O)n(C(=O)C(=O)NCC(=O)O)c2c1

>  <score_type>  (38) 
oracle

>  <origin>  (38) 
adg

>  <m_score__min__energy>  (38) 
-6.6600000000000001

>  <m_primary>  (38) 
energy

$$$$
38:0
     RDKit          3D

 35 37  0  0  0  0  0  0  0  0999 V2000
  144.7310  160.1100  133.6950 C   0  0  0  0  0  0  0  0  0  0  0  0
  145.8910  159.1950  133.4390 C   0  0  0  0  0  0  0  0  0  0  0  0
  147.1180  159.7210  132.9640 C   0  0  0  0  0  0  0  0  0  0  0  0
  148.1990  158.8680  132.6790 C   0  0  0  0  0  0  0  0  0  0  0  0
  148.0210  157.5020  132.8750 C   0  0  0  0  0  0  0  0  0  0  0  0
  148.8870  156.4530  132.6600 C   0  0  0  0  0  0  0  0  0  0  0  0
  148.1760  155.3080  133.0120 C   0  0  0  0  0  0  0  0  0  0  0  0
  148.7540  153.9480  132.9920 C   0  0  0  0  0  0  0  0  0  0  0  0
  148.4340  152.9990  134.0060 N   0  0  0  0  0  0  0  0  0  0  0  0
  149.5680  153.6280  132.0860 O   0  0  0  0  0  0  0  0  0  0  0  0
  146.9200  155.6360  133.4260 N   0  0  0  0  0  0  0  0  0  0  0  0
  145.8560  154.7470  133.8020 C   0  0  0  0  0  0  0  0  0  0  0  0
  145.0910  154.2920  132.9080 O   0  0  0  0  0  0  0  0  0  0  0  0
  145.6290  154.4050  135.1840 N   0  0  0  0  0  0  0  0  0  0  0  0
  144.2740  154.4810  135.7370 C   0  0  0  0  0  0  0  0  0  0  0  0
  146.7290  154.1190  136.0680 C   0  0  0  0  0  0  0  0  0  0  0  0
  147.7470  154.9750  136.2990 N   0  0  0  0  0  0  0  0  0  0  0  0
  148.5230  154.3020  137.1680 C   0  0  0  0  0  0  0  0  0  0  0  0
  147.9570  153.0740  137.4260 C   0  0  0  0  0  0  0  0  0  0  0  0
  146.8510  152.9900  136.7300 O   0  0  0  0  0  0  0  0  0  0  0  0
  146.8390  156.9810  133.3320 C   0  0  0  0  0  0  0  0  0  0  0  0
  145.7400  157.8020  133.6070 C   0  0  0  0  0  0  0  0  0  0  0  0
  144.5864  160.2241  134.7795 H   0  0  0  0  0  0  0  0  0  0  0  0
  144.9341  161.0938  133.2467 H   0  0  0  0  0  0  0  0  0  0  0  0
  143.8216  159.6834  133.2467 H   0  0  0  0  0  0  0  0  0  0  0  0
  147.2258  160.8058  132.8170 H   0  0  0  0  0  0  0  0  0  0  0  0
  149.1558  159.2683  132.3124 H   0  0  0  0  0  0  0  0  0  0  0  0
  149.9211  156.5077  132.2889 H   0  0  0  0  0  0  0  0  0  0  0  0
  148.2510  153.3020  134.9880 H   0  0  0  0  0  0  0  0  0  0  0  0
  144.3257  154.4781  136.8358 H   0  0  0  0  0  0  0  0  0  0  0  0
  143.7899  155.4077  135.3952 H   0  0  0  0  0  0  0  0  0  0  0  0
  143.6893  153.6142  135.3952 H   0  0  0  0  0  0  0  0  0  0  0  0
  149.4619  154.6744  137.6037 H   0  0  0  0  0  0  0  0  0  0  0  0
  148.3614  152.3016  138.0967 H   0  0  0  0  0  0  0  0  0  0  0  0
  144.7848  157.3736  133.9448 H   0  0  0  0  0  0  0  0  0  0  0  0
  1  2  1  0
  2  3  2  0
  3  4  1  0
  4  5  2  0
  5  6  1  0
  6  7  2  0
  7  8  1  0
  8  9  1  0
  8 10  2  0
  7 11  1  0
 11 12  1  0
 12 13  2  0
 12 14  1  0
 14 15  1  0
 14 16  1  0
 16 17  2  0
 17 18  1  0
 18 19  2  0
 19 20  1  0
 11 21  1  0
 21 22  2  0
 22  2  1  0
 21  5  1  0
 20 16  1  0
  1 23  1  0
  1 24  1  0
  1 25  1  0
  3 26  1  0
  4 27  1  0
  6 28  1  0
  9 29  1  0
 15 30  1  0
 15 31  1  0
 15 32  1  0
 18 33  1  0
 19 34  1  0
 22 35  1  0
M  CHG  1   9  -1
M  END
>  <UniqueID>  (39) 
39

>  <SMILES>  (39) 
Cc1ccc2cc(C([NH-])=O)n(C(=O)N(C)c3ncco3)c2c1

>  <Energy>  (39) 
106.13901374271445

>  <Genealogy>  (39) 
Cc1ccc2cc(C([NH-])=O)n(C(=O)N(C)c3ncco3)c2c1 (protonated)
Cc1ccc2cc(C([NH-])=O)n(C(=O)N(C)c3ncco3)c2c1 (3D coordinates assigned)
Cc1ccc2cc(C([NH-])=O)n(C(=O)N(C)c3ncco3)c2c1 (optimized conformer: 106.13901374271445 kcal/mol)

>  <smiles>  (39) 
Cc1ccc2cc(C(N)=O)n(C(=O)N(C)c3ncco3)c2c1

>  <score_type>  (39) 
oracle

>  <origin>  (39) 
adg

>  <m_score__min__energy>  (39) 
-5.9500000000000002

>  <m_primary>  (39) 
energy

$$$$
39:0
     RDKit          3D

 39 40  0  0  0  0  0  0  0  0999 V2000
  148.2550  151.7750  132.4960 C   0  0  0  0  0  0  0  0  0  0  0  0
  149.1420  152.8520  132.2210 O   0  0  0  0  0  0  0  0  0  0  0  0
  148.8790  154.1650  132.6210 C   0  0  0  0  0  0  0  0  0  0  0  0
  149.6630  155.1040  132.3100 O   0  0  0  0  0  0  0  0  0  0  0  0
  147.6820  154.4460  133.4630 C   0  0  0  0  0  0  0  0  0  0  0  0
  147.5080  155.8530  133.5670 O   0  0  0  0  0  0  0  0  0  0  0  0
  146.3620  156.5120  133.1120 C   0  0  0  0  0  0  0  0  0  0  0  0
  145.4170  155.8550  132.5940 O   0  0  0  0  0  0  0  0  0  0  0  0
  146.2620  157.9400  133.2420 N   0  0  0  0  0  0  0  0  0  0  0  0
  147.2180  158.8620  132.9350 C   0  0  0  0  0  0  0  0  0  0  0  0
  148.6170  158.5690  132.5630 C   0  0  0  0  0  0  0  0  0  0  0  0
  148.9600  157.3760  131.8570 N   0  0  0  0  0  0  0  0  0  0  0  0
  149.5310  159.3580  132.9210 O   0  0  0  0  0  0  0  0  0  0  0  0
  146.7150  160.1540  133.0600 C   0  0  0  0  0  0  0  0  0  0  0  0
  145.4110  159.9970  133.4700 C   0  0  0  0  0  0  0  0  0  0  0  0
  144.4350  160.9560  133.7290 C   0  0  0  0  0  0  0  0  0  0  0  0
  143.1560  160.5100  134.0960 C   0  0  0  0  0  0  0  0  0  0  0  0
  142.8740  159.1250  134.1960 C   0  0  0  0  0  0  0  0  0  0  0  0
  141.4860  158.6570  134.5450 C   0  0  0  0  0  0  0  0  0  0  0  0
  141.0300  159.2180  135.8950 C   0  0  0  0  0  0  0  0  0  0  0  0
  139.8710  158.5640  136.3390 O   0  0  0  0  0  0  0  0  0  0  0  0
  143.8870  158.1810  133.9160 C   0  0  0  0  0  0  0  0  0  0  0  0
  145.1600  158.6520  133.5720 C   0  0  0  0  0  0  0  0  0  0  0  0
  148.1538  151.6521  133.5844 H   0  0  0  0  0  0  0  0  0  0  0  0
  147.2693  151.9909  132.0582 H   0  0  0  0  0  0  0  0  0  0  0  0
  148.6558  150.8489  132.0582 H   0  0  0  0  0  0  0  0  0  0  0  0
  146.7912  153.9978  132.9986 H   0  0  0  0  0  0  0  0  0  0  0  0
  147.8234  154.0144  134.4649 H   0  0  0  0  0  0  0  0  0  0  0  0
  149.9470  157.2070  131.5600 H   0  0  0  0  0  0  0  0  0  0  0  0
  148.2530  156.6250  131.6910 H   0  0  0  0  0  0  0  0  0  0  0  0
  147.2464  161.0985  132.8713 H   0  0  0  0  0  0  0  0  0  0  0  0
  144.6596  162.0298  133.6484 H   0  0  0  0  0  0  0  0  0  0  0  0
  142.3641  161.2433  134.3083 H   0  0  0  0  0  0  0  0  0  0  0  0
  140.7881  158.9927  133.7638 H   0  0  0  0  0  0  0  0  0  0  0  0
  141.4976  157.5591  134.6125 H   0  0  0  0  0  0  0  0  0  0  0  0
  141.8313  159.0743  136.6348 H   0  0  0  0  0  0  0  0  0  0  0  0
  140.8076  160.2886  135.7756 H   0  0  0  0  0  0  0  0  0  0  0  0
  139.4760  159.1320  137.0500 H   0  0  0  0  0  0  0  0  0  0  0  0
  143.6807  157.1017  133.9670 H   0  0  0  0  0  0  0  0  0  0  0  0
  1  2  1  0
  2  3  1  0
  3  4  2  0
  3  5  1  0
  5  6  1  0
  6  7  1  0
  7  8  2  0
  7  9  1  0
  9 10  1  0
 10 11  1  0
 11 12  1  0
 11 13  2  0
 10 14  2  0
 14 15  1  0
 15 16  2  0
 16 17  1  0
 17 18  2  0
 18 19  1  0
 19 20  1  0
 20 21  1  0
 18 22  1  0
 22 23  2  0
 23  9  1  0
 23 15  1  0
  1 24  1  0
  1 25  1  0
  1 26  1  0
  5 27  1  0
  5 28  1  0
 12 29  1  0
 12 30  1  0
 14 31  1  0
 16 32  1  0
 17 33  1  0
 19 34  1  0
 19 35  1  0
 20 36  1  0
 20 37  1  0
 21 38  1  0
 22 39  1  0
M  END
>  <UniqueID>  (40) 
40

>  <SMILES>  (40) 
COC(=O)COC(=O)n1c(C(N)=O)cc2ccc(CCO)cc21

>  <Energy>  (40) 
69.64384584161456

>  <Genealogy>  (40) 
COC(=O)COC(=O)n1c(C(N)=O)cc2ccc(CCO)cc21 (3D coordinates assigned)
COC(=O)COC(=O)n1c(C(N)=O)cc2ccc(CCO)cc21 (optimized conformer: 69.64384584161456 kcal/mol)

>  <smiles>  (40) 
COC(=O)COC(=O)n1c(C(N)=O)cc2ccc(CCO)cc21

>  <score_type>  (40) 
oracle

>  <origin>  (40) 
adg

>  <m_score__min__energy>  (40) 
-6.6200000000000001

>  <m_primary>  (40) 
energy

$$$$
40:0
     RDKit          3D

 40 42  0  0  0  0  0  0  0  0999 V2000
  143.1690  155.0170  133.2770 C   0  0  0  0  0  0  0  0  0  0  0  0
  142.8070  153.7140  133.6750 O   0  0  0  0  0  0  0  0  0  0  0  0
  142.9760  152.8280  132.5880 C   0  0  0  0  0  0  0  0  0  0  0  0
  143.7540  151.5990  133.0520 C   0  0  0  0  0  0  0  0  0  0  0  0
  144.8030  151.2810  132.1400 O   0  0  0  0  0  0  0  0  0  0  0  0
  146.0820  151.8320  132.2420 C   0  0  0  0  0  0  0  0  0  0  0  0
  147.2050  151.1730  131.9040 N   0  0  0  0  0  0  0  0  0  0  0  0
  148.2040  152.0110  132.1400 N   0  0  0  0  0  0  0  0  0  0  0  0
  147.6450  153.1430  132.6110 C   0  0  0  0  0  0  0  0  0  0  0  0
  148.4000  154.3420  132.9970 C   0  0  0  0  0  0  0  0  0  0  0  0
  149.6310  154.4160  132.7350 O   0  0  0  0  0  0  0  0  0  0  0  0
  147.7350  155.4520  133.6190 N   0  0  0  0  0  0  0  0  0  0  0  0
  146.8120  155.4250  134.6200 C   0  0  0  0  0  0  0  0  0  0  0  0
  146.4140  154.2350  135.4010 C   0  0  0  0  0  0  0  0  0  0  0  0
  145.1460  153.6170  135.1970 N   0  0  0  0  0  0  0  0  0  0  0  0
  147.2180  153.7350  136.2330 O   0  0  0  0  0  0  0  0  0  0  0  0
  146.3230  156.7070  134.8660 C   0  0  0  0  0  0  0  0  0  0  0  0
  146.9910  157.5270  133.9830 C   0  0  0  0  0  0  0  0  0  0  0  0
  146.8790  158.8970  133.7720 C   0  0  0  0  0  0  0  0  0  0  0  0
  147.6680  159.4750  132.7630 C   0  0  0  0  0  0  0  0  0  0  0  0
  148.5610  158.6820  131.9950 C   0  0  0  0  0  0  0  0  0  0  0  0
  149.3660  159.2950  130.8770 C   0  0  0  0  0  0  0  0  0  0  0  0
  150.7190  159.1220  131.1070 F   0  0  0  0  0  0  0  0  0  0  0  0
  149.0290  158.6810  129.6850 F   0  0  0  0  0  0  0  0  0  0  0  0
  149.1140  160.6510  130.7710 F   0  0  0  0  0  0  0  0  0  0  0  0
  148.6270  157.2880  132.2250 C   0  0  0  0  0  0  0  0  0  0  0  0
  147.8380  156.7440  133.2450 C   0  0  0  0  0  0  0  0  0  0  0  0
  146.3410  153.0400  132.6760 O   0  0  0  0  0  0  0  0  0  0  0  0
  143.3415  155.6380  134.1684 H   0  0  0  0  0  0  0  0  0  0  0  0
  144.0893  154.9744  132.6760 H   0  0  0  0  0  0  0  0  0  0  0  0
  142.3586  155.4553  132.6760 H   0  0  0  0  0  0  0  0  0  0  0  0
  141.9904  152.5176  132.2108 H   0  0  0  0  0  0  0  0  0  0  0  0
  143.5323  153.3335  131.7849 H   0  0  0  0  0  0  0  0  0  0  0  0
  144.1880  151.8013  134.0423 H   0  0  0  0  0  0  0  0  0  0  0  0
  143.0621  150.7452  133.1002 H   0  0  0  0  0  0  0  0  0  0  0  0
  144.8660  153.2620  134.2540 H   0  0  0  0  0  0  0  0  0  0  0  0
  145.5653  157.0013  135.6071 H   0  0  0  0  0  0  0  0  0  0  0  0
  146.1938  159.5095  134.3764 H   0  0  0  0  0  0  0  0  0  0  0  0
  147.5929  160.5546  132.5658 H   0  0  0  0  0  0  0  0  0  0  0  0
  149.2824  156.6470  131.6171 H   0  0  0  0  0  0  0  0  0  0  0  0
  1  2  1  0
  2  3  1  0
  3  4  1  0
  4  5  1  0
  5  6  1  0
  6  7  2  0
  7  8  1  0
  8  9  2  0
  9 10  1  0
 10 11  2  0
 10 12  1  0
 12 13  1  0
 13 14  1  0
 14 15  1  0
 14 16  2  0
 13 17  2  0
 17 18  1  0
 18 19  2  0
 19 20  1  0
 20 21  2  0
 21 22  1  0
 22 23  1  0
 22 24  1  0
 22 25  1  0
 21 26  1  0
 26 27  2  0
  9 28  1  0
 28  6  1  0
 27 12  1  0
 27 18  1  0
  1 29  1  0
  1 30  1  0
  1 31  1  0
  3 32  1  0
  3 33  1  0
  4 34  1  0
  4 35  1  0
 15 36  1  0
 17 37  1  0
 19 38  1  0
 20 39  1  0
 26 40  1  0
M  CHG  1  15  -1
M  END
>  <UniqueID>  (41) 
41

>  <SMILES>  (41) 
COCCOc1nnc(C(=O)n2c(C([NH-])=O)cc3ccc(C(F)(F)F)cc32)o1

>  <Energy>  (41) 
112.66528031648319

>  <Genealogy>  (41) 
COCCOc1nnc(C(=O)n2c(C([NH-])=O)cc3ccc(C(F)(F)F)cc32)o1 (protonated)
COCCOc1nnc(C(=O)n2c(C([NH-])=O)cc3ccc(C(F)(F)F)cc32)o1 (3D coordinates assigned)
COCCOc1nnc(C(=O)n2c(C([NH-])=O)cc3ccc(C(F)(F)F)cc32)o1 (optimized conformer: 112.66528031648319 kcal/mol)

>  <smiles>  (41) 
COCCOc1nnc(C(=O)n2c(C(N)=O)cc3ccc(C(F)(F)F)cc32)o1

>  <score_type>  (41) 
oracle

>  <origin>  (41) 
adg

>  <m_score__min__energy>  (41) 
-6.0599999999999996

>  <m_primary>  (41) 
energy

$$$$
41:0
     RDKit          3D

 45 46  0  0  0  0  0  0  0  0999 V2000
  147.9100  154.7250  133.3150 C   0  0  0  0  0  0  0  0  0  0  0  0
  147.4970  156.1640  133.3870 C   0  0  0  0  0  0  0  0  0  0  0  0
  148.4680  157.1720  133.6140 C   0  0  0  0  0  0  0  0  0  0  0  0
  148.0860  158.5210  133.7210 C   0  0  0  0  0  0  0  0  0  0  0  0
  146.7320  158.8270  133.6050 C   0  0  0  0  0  0  0  0  0  0  0  0
  146.0830  160.0370  133.6980 C   0  0  0  0  0  0  0  0  0  0  0  0
  144.7300  159.7450  133.5290 C   0  0  0  0  0  0  0  0  0  0  0  0
  143.6660  160.7730  133.5090 C   0  0  0  0  0  0  0  0  0  0  0  0
  142.3270  160.4390  133.1560 N   0  0  0  0  0  0  0  0  0  0  0  0
  143.9530  161.9710  133.7730 O   0  0  0  0  0  0  0  0  0  0  0  0
  144.5520  158.4100  133.3330 N   0  0  0  0  0  0  0  0  0  0  0  0
  143.3140  157.6930  133.2160 C   0  0  0  0  0  0  0  0  0  0  0  0
  142.8430  157.4680  132.0690 O   0  0  0  0  0  0  0  0  0  0  0  0
  142.6210  157.2190  134.3920 N   0  0  0  0  0  0  0  0  0  0  0  0
  143.0810  155.9910  135.0570 C   0  0  0  0  0  0  0  0  0  0  0  0
  142.3070  154.8120  134.5560 C   0  0  0  0  0  0  0  0  0  0  0  0
  141.5920  154.8980  133.3250 N   0  0  0  0  0  0  0  0  0  0  0  0
  142.2750  153.7470  135.2300 O   0  0  0  0  0  0  0  0  0  0  0  0
  141.3870  157.8430  134.8050 C   0  0  0  0  0  0  0  0  0  0  0  0
  141.0860  157.8990  136.0300 O   0  0  0  0  0  0  0  0  0  0  0  0
  140.5320  158.4060  133.8480 O   0  0  0  0  0  0  0  0  0  0  0  0
  139.2380  157.8860  133.5430 C   0  0  0  0  0  0  0  0  0  0  0  0
  138.5870  158.6520  132.3830 C   0  0  0  0  0  0  0  0  0  0  0  0
  139.5380  159.6750  131.7480 C   0  0  0  0  0  0  0  0  0  0  0  0
  140.6510  159.0390  131.1790 O   0  0  0  0  0  0  0  0  0  0  0  0
  145.7840  157.8610  133.3890 C   0  0  0  0  0  0  0  0  0  0  0  0
  146.1320  156.5110  133.2900 C   0  0  0  0  0  0  0  0  0  0  0  0
  148.0248  154.3251  134.3333 H   0  0  0  0  0  0  0  0  0  0  0  0
  147.1409  154.1491  132.7794 H   0  0  0  0  0  0  0  0  0  0  0  0
  148.8675  154.6447  132.7794 H   0  0  0  0  0  0  0  0  0  0  0  0
  149.5288  156.8964  133.7072 H   0  0  0  0  0  0  0  0  0  0  0  0
  148.8332  159.3102  133.8910 H   0  0  0  0  0  0  0  0  0  0  0  0
  146.5355  161.0249  133.8693 H   0  0  0  0  0  0  0  0  0  0  0  0
  142.0960  159.5100  132.7420 H   0  0  0  0  0  0  0  0  0  0  0  0
  144.1498  155.8411  134.8446 H   0  0  0  0  0  0  0  0  0  0  0  0
  142.9243  156.0893  136.1413 H   0  0  0  0  0  0  0  0  0  0  0  0
  141.8450  155.6140  132.6080 H   0  0  0  0  0  0  0  0  0  0  0  0
  139.3347  156.8266  133.2631 H   0  0  0  0  0  0  0  0  0  0  0  0
  138.6010  157.9975  134.4328 H   0  0  0  0  0  0  0  0  0  0  0  0
  138.2794  157.9302  131.6120 H   0  0  0  0  0  0  0  0  0  0  0  0
  137.7252  159.2028  132.7878 H   0  0  0  0  0  0  0  0  0  0  0  0
  139.0000  160.2285  130.9643 H   0  0  0  0  0  0  0  0  0  0  0  0
  139.8890  160.3620  132.5321 H   0  0  0  0  0  0  0  0  0  0  0  0
  141.3460  159.0000  131.8870 H   0  0  0  0  0  0  0  0  0  0  0  0
  145.3626  155.7392  133.1404 H   0  0  0  0  0  0  0  0  0  0  0  0
  1  2  1  0
  2  3  2  0
  3  4  1  0
  4  5  2  0
  5  6  1  0
  6  7  2  0
  7  8  1  0
  8  9  1  0
  8 10  2  0
  7 11  1  0
 11 12  1  0
 12 13  2  0
 12 14  1  0
 14 15  1  0
 15 16  1  0
 16 17  1  0
 16 18  2  0
 14 19  1  0
 19 20  2  0
 19 21  1  0
 21 22  1  0
 22 23  1  0
 23 24  1  0
 24 25  1  0
 11 26  1  0
 26 27  2  0
 27  2  1  0
 26  5  1  0
  1 28  1  0
  1 29  1  0
  1 30  1  0
  3 31  1  0
  4 32  1  0
  6 33  1  0
  9 34  1  0
 15 35  1  0
 15 36  1  0
 17 37  1  0
 22 38  1  0
 22 39  1  0
 23 40  1  0
 23 41  1  0
 24 42  1  0
 24 43  1  0
 25 44  1  0
 27 45  1  0
M  CHG  2   9  -1  17  -1
M  END
>  <UniqueID>  (42) 
42

>  <SMILES>  (42) 
Cc1ccc2cc(C([NH-])=O)n(C(=O)N(CC([NH-])=O)C(=O)OCCCO)c2c1

>  <Energy>  (42) 
77.36772453637408

>  <Genealogy>  (42) 
Cc1ccc2cc(C([NH-])=O)n(C(=O)N(CC([NH-])=O)C(=O)OCCCO)c2c1 (protonated)
Cc1ccc2cc(C([NH-])=O)n(C(=O)N(CC([NH-])=O)C(=O)OCCCO)c2c1 (3D coordinates assigned)
Cc1ccc2cc(C([NH-])=O)n(C(=O)N(CC([NH-])=O)C(=O)OCCCO)c2c1 (optimized conformer: 77.36772453637408 kcal/mol)

>  <smiles>  (42) 
Cc1ccc2cc(C(N)=O)n(C(=O)N(CC(N)=O)C(=O)OCCCO)c2c1

>  <score_type>  (42) 
oracle

>  <origin>  (42) 
adg

>  <m_score__min__energy>  (42) 
-5.2199999999999998

>  <m_primary>  (42) 
energy

$$$$
42:0
     RDKit          3D

 30 32  0  0  0  0  0  0  0  0999 V2000
  147.7430  153.7330  135.4380 N   0  0  0  0  0  0  0  0  0  0  0  0
  146.7250  154.6280  134.9990 C   0  0  0  0  0  0  0  0  0  0  0  0
  145.5250  154.3940  135.3040 O   0  0  0  0  0  0  0  0  0  0  0  0
  147.0630  155.8520  134.2450 C   0  0  0  0  0  0  0  0  0  0  0  0
  146.4560  157.0860  134.4730 C   0  0  0  0  0  0  0  0  0  0  0  0
  147.1060  157.9710  133.6440 C   0  0  0  0  0  0  0  0  0  0  0  0
  146.8950  159.3320  133.4480 C   0  0  0  0  0  0  0  0  0  0  0  0
  147.6930  159.9920  132.4970 C   0  0  0  0  0  0  0  0  0  0  0  0
  148.6900  159.2870  131.7730 C   0  0  0  0  0  0  0  0  0  0  0  0
  149.4970  159.9930  130.7120 C   0  0  0  0  0  0  0  0  0  0  0  0
  149.5030  161.3600  130.9310 F   0  0  0  0  0  0  0  0  0  0  0  0
  148.9640  159.7580  129.4560 F   0  0  0  0  0  0  0  0  0  0  0  0
  150.7970  159.5260  130.7440 F   0  0  0  0  0  0  0  0  0  0  0  0
  148.8560  157.8990  131.9850 C   0  0  0  0  0  0  0  0  0  0  0  0
  148.0590  157.2720  132.9500 C   0  0  0  0  0  0  0  0  0  0  0  0
  148.0420  155.9690  133.3040 N   0  0  0  0  0  0  0  0  0  0  0  0
  148.8320  154.9200  132.7210 C   0  0  0  0  0  0  0  0  0  0  0  0
  149.9680  155.1840  132.2440 O   0  0  0  0  0  0  0  0  0  0  0  0
  148.3080  153.5880  132.6560 N   0  0  0  0  0  0  0  0  0  0  0  0
  149.0970  152.3970  132.5690 C   0  0  0  0  0  0  0  0  0  0  0  0
  149.5470  151.7430  133.6570 N   0  0  0  0  0  0  0  0  0  0  0  0
  150.2140  150.7360  133.1820 O   0  0  0  0  0  0  0  0  0  0  0  0
  150.1750  150.7720  131.8750 C   0  0  0  0  0  0  0  0  0  0  0  0
  150.7330  149.9220  131.1340 O   0  0  0  0  0  0  0  0  0  0  0  0
  149.4720  151.8190  131.4070 N   0  0  0  0  0  0  0  0  0  0  0  0
  148.2010  153.0720  134.7720 H   0  0  0  0  0  0  0  0  0  0  0  0
  145.6322  157.3056  135.1681 H   0  0  0  0  0  0  0  0  0  0  0  0
  146.1277  159.8749  134.0193 H   0  0  0  0  0  0  0  0  0  0  0  0
  147.5432  161.0659  132.3120 H   0  0  0  0  0  0  0  0  0  0  0  0
  149.5941  157.3253  131.4053 H   0  0  0  0  0  0  0  0  0  0  0  0
  1  2  1  0
  2  3  2  0
  2  4  1  0
  4  5  2  0
  5  6  1  0
  6  7  2  0
  7  8  1  0
  8  9  2  0
  9 10  1  0
 10 11  1  0
 10 12  1  0
 10 13  1  0
  9 14  1  0
 14 15  2  0
 15 16  1  0
 16 17  1  0
 17 18  2  0
 17 19  1  0
 19 20  1  0
 20 21  2  0
 21 22  1  0
 22 23  1  0
 23 24  2  0
 23 25  1  0
 16  4  1  0
 25 20  1  0
 15  6  1  0
  1 26  1  0
  5 27  1  0
  7 28  1  0
  8 29  1  0
 14 30  1  0
M  CHG  3   1  -1  19  -1  25  -1
M  END
>  <UniqueID>  (43) 
43

>  <SMILES>  (43) 
[NH-]C(=O)c1cc2ccc(C(F)(F)F)cc2n1C(=O)[N-]c1noc(=O)[n-]1

>  <Energy>  (43) 
107.42433163708273

>  <Genealogy>  (43) 
[NH-]C(=O)c1cc2ccc(C(F)(F)F)cc2n1C(=O)[N-]c1noc(=O)[n-]1 (protonated)
[NH-]C(=O)c1cc2ccc(C(F)(F)F)cc2n1C(=O)[N-]c1noc(=O)[n-]1 (3D coordinates assigned)
[NH-]C(=O)c1cc2ccc(C(F)(F)F)cc2n1C(=O)[N-]c1noc(=O)[n-]1 (optimized conformer: 107.42433163708273 kcal/mol)

>  <smiles>  (43) 
NC(=O)c1cc2ccc(C(F)(F)F)cc2n1C(=O)Nc1noc(=O)[nH]1

>  <score_type>  (43) 
oracle

>  <origin>  (43) 
adg

>  <m_score__min__energy>  (43) 
-6.8399999999999999

>  <m_primary>  (43) 
energy

$$$$
43:0
     RDKit          3D

 46 47  0  0  0  0  0  0  0  0999 V2000
  149.5980  161.8540  130.0760 C   0  0  0  0  0  0  0  0  0  0  0  0
  149.8680  160.0590  129.9490 S   0  0  0  0  0  0  0  0  0  0  0  0
  149.3280  159.7370  131.6310 C   0  0  0  0  0  0  0  0  0  0  0  0
  148.1950  160.2730  132.0960 C   0  0  0  0  0  0  0  0  0  0  0  0
  147.7320  160.0030  133.5000 C   0  0  0  0  0  0  0  0  0  0  0  0
  146.2300  160.0330  133.5700 C   0  0  0  0  0  0  0  0  0  0  0  0
  145.5500  161.2230  133.9300 C   0  0  0  0  0  0  0  0  0  0  0  0
  144.1510  161.2330  134.0710 C   0  0  0  0  0  0  0  0  0  0  0  0
  143.4650  160.0400  133.8590 C   0  0  0  0  0  0  0  0  0  0  0  0
  142.1230  159.7490  133.9750 C   0  0  0  0  0  0  0  0  0  0  0  0
  142.0150  158.3860  133.6980 C   0  0  0  0  0  0  0  0  0  0  0  0
  140.7380  157.6400  133.7100 C   0  0  0  0  0  0  0  0  0  0  0  0
  140.6230  156.3700  133.0710 N   0  0  0  0  0  0  0  0  0  0  0  0
  139.7330  158.1320  134.2880 O   0  0  0  0  0  0  0  0  0  0  0  0
  143.2380  157.8640  133.4130 N   0  0  0  0  0  0  0  0  0  0  0  0
  143.5730  156.4970  133.1460 C   0  0  0  0  0  0  0  0  0  0  0  0
  143.6110  156.0840  131.9570 O   0  0  0  0  0  0  0  0  0  0  0  0
  143.9720  155.5860  134.2650 C   0  0  0  0  0  0  0  0  0  0  0  0
  142.9660  154.4720  134.3990 C   0  0  0  0  0  0  0  0  0  0  0  0
  142.7880  153.9650  135.4990 O   0  0  0  0  0  0  0  0  0  0  0  0
  142.2370  153.9860  133.2440 N   0  0  0  0  0  0  0  0  0  0  0  0
  140.9780  153.3500  133.6640 C   0  0  0  0  0  0  0  0  0  0  0  0
  143.0690  153.0430  132.4810 C   0  0  0  0  0  0  0  0  0  0  0  0
  144.1130  158.8840  133.5150 C   0  0  0  0  0  0  0  0  0  0  0  0
  145.4990  158.8440  133.3580 C   0  0  0  0  0  0  0  0  0  0  0  0
  149.5544  162.1441  131.1362 H   0  0  0  0  0  0  0  0  0  0  0  0
  150.4264  162.3851  129.5843 H   0  0  0  0  0  0  0  0  0  0  0  0
  148.6501  162.1179  129.5843 H   0  0  0  0  0  0  0  0  0  0  0  0
  149.9348  159.0930  132.2845 H   0  0  0  0  0  0  0  0  0  0  0  0
  147.5931  160.9208  131.4417 H   0  0  0  0  0  0  0  0  0  0  0  0
  148.0901  159.0120  133.8158 H   0  0  0  0  0  0  0  0  0  0  0  0
  148.1364  160.7800  134.1654 H   0  0  0  0  0  0  0  0  0  0  0  0
  146.1217  162.1472  134.1006 H   0  0  0  0  0  0  0  0  0  0  0  0
  143.6150  162.1550  134.3405 H   0  0  0  0  0  0  0  0  0  0  0  0
  141.3097  160.4438  134.2315 H   0  0  0  0  0  0  0  0  0  0  0  0
  141.4270  155.9580  132.5470 H   0  0  0  0  0  0  0  0  0  0  0  0
  144.9634  155.1593  134.0528 H   0  0  0  0  0  0  0  0  0  0  0  0
  144.0082  156.1579  135.2039 H   0  0  0  0  0  0  0  0  0  0  0  0
  141.9990  154.7850  132.6100 H   0  0  0  0  0  0  0  0  0  0  0  0
  140.9285  153.3250  134.7626 H   0  0  0  0  0  0  0  0  0  0  0  0
  140.1273  153.9265  133.2717 H   0  0  0  0  0  0  0  0  0  0  0  0
  140.9372  152.3232  133.2717 H   0  0  0  0  0  0  0  0  0  0  0  0
  143.6323  152.4045  133.1775 H   0  0  0  0  0  0  0  0  0  0  0  0
  142.4250  152.4154  131.8475 H   0  0  0  0  0  0  0  0  0  0  0  0
  143.7719  153.6038  131.8475 H   0  0  0  0  0  0  0  0  0  0  0  0
  146.0085  157.9107  133.0765 H   0  0  0  0  0  0  0  0  0  0  0  0
  1  2  1  0
  2  3  1  0
  3  4  2  3
  4  5  1  0
  5  6  1  0
  6  7  2  0
  7  8  1  0
  8  9  2  0
  9 10  1  0
 10 11  2  0
 11 12  1  0
 12 13  1  0
 12 14  2  0
 11 15  1  0
 15 16  1  0
 16 17  2  0
 16 18  1  0
 18 19  1  0
 19 20  2  0
 19 21  1  0
 21 22  1  0
 21 23  1  0
 15 24  1  0
 24 25  2  0
 25  6  1  0
 24  9  1  0
  1 26  1  0
  1 27  1  0
  1 28  1  0
  3 29  1  0
  4 30  1  0
  5 31  1  0
  5 32  1  0
  7 33  1  0
  8 34  1  0
 10 35  1  0
 13 36  1  0
 18 37  1  0
 18 38  1  0
 21 39  1  0
 22 40  1  0
 22 41  1  0
 22 42  1  0
 23 43  1  0
 23 44  1  0
 23 45  1  0
 25 46  1  0
M  CHG  2  13  -1  21   1
M  END
>  <UniqueID>  (44) 
44

>  <SMILES>  (44) 
CSC=CCc1ccc2cc(C([NH-])=O)n(C(=O)CC(=O)[NH+](C)C)c2c1

>  <Energy>  (44) 
73.67269424251303

>  <Genealogy>  (44) 
CSC=CCc1ccc2cc(C([NH-])=O)n(C(=O)CC(=O)[NH+](C)C)c2c1 (protonated)
CSC=CCc1ccc2cc(C([NH-])=O)n(C(=O)CC(=O)[NH+](C)C)c2c1 (3D coordinates assigned)
CSC=CCc1ccc2cc(C([NH-])=O)n(C(=O)CC(=O)[NH+](C)C)c2c1 (optimized conformer: 73.67269424251303 kcal/mol)

>  <smiles>  (44) 
CSC=CCc1ccc2cc(C(N)=O)n(C(=O)CC(=O)N(C)C)c2c1

>  <score_type>  (44) 
oracle

>  <origin>  (44) 
adg

>  <m_score__min__energy>  (44) 
-6.9000000000000004

>  <m_primary>  (44) 
energy

$$$$
44:0
     RDKit          3D

 42 43  0  0  0  0  0  0  0  0999 V2000
  139.4250  159.7100  131.5350 C   0  0  0  0  0  0  0  0  0  0  0  0
  139.9560  159.3340  132.8490 N   0  0  0  0  0  0  0  0  0  0  0  0
  141.3390  159.6630  133.2110 C   0  0  0  0  0  0  0  0  0  0  0  0
  142.2210  158.4750  132.9880 C   0  0  0  0  0  0  0  0  0  0  0  0
  141.7300  157.3820  132.6010 O   0  0  0  0  0  0  0  0  0  0  0  0
  143.5910  158.5790  133.1890 O   0  0  0  0  0  0  0  0  0  0  0  0
  139.1440  158.5590  133.7480 C   0  0  0  0  0  0  0  0  0  0  0  0
  138.1890  157.8650  133.2990 O   0  0  0  0  0  0  0  0  0  0  0  0
  139.4180  158.5670  135.1210 O   0  0  0  0  0  0  0  0  0  0  0  0
  139.9030  157.4210  135.8150 C   0  0  0  0  0  0  0  0  0  0  0  0
  141.0790  156.9400  135.1700 O   0  0  0  0  0  0  0  0  0  0  0  0
  141.6100  155.6710  135.4240 C   0  0  0  0  0  0  0  0  0  0  0  0
  141.6070  155.2010  136.5950 O   0  0  0  0  0  0  0  0  0  0  0  0
  142.1710  154.9030  134.3480 N   0  0  0  0  0  0  0  0  0  0  0  0
  141.5060  154.2750  133.3400 C   0  0  0  0  0  0  0  0  0  0  0  0
  140.0660  154.4060  133.0420 C   0  0  0  0  0  0  0  0  0  0  0  0
  139.3910  155.6570  133.1810 N   0  0  0  0  0  0  0  0  0  0  0  0
  139.4290  153.4070  132.6110 O   0  0  0  0  0  0  0  0  0  0  0  0
  142.3780  153.4880  132.5920 C   0  0  0  0  0  0  0  0  0  0  0  0
  143.6140  153.6600  133.1760 C   0  0  0  0  0  0  0  0  0  0  0  0
  144.8380  153.0730  132.8700 C   0  0  0  0  0  0  0  0  0  0  0  0
  145.9370  153.3780  133.6890 C   0  0  0  0  0  0  0  0  0  0  0  0
  145.8000  154.2640  134.7890 C   0  0  0  0  0  0  0  0  0  0  0  0
  146.9660  154.5290  135.7070 C   0  0  0  0  0  0  0  0  0  0  0  0
  147.3720  155.8500  135.6180 F   0  0  0  0  0  0  0  0  0  0  0  0
  148.0200  153.7090  135.3540 F   0  0  0  0  0  0  0  0  0  0  0  0
  146.6150  154.2730  137.0220 F   0  0  0  0  0  0  0  0  0  0  0  0
  144.5330  154.8190  135.0800 C   0  0  0  0  0  0  0  0  0  0  0  0
  143.4610  154.5170  134.2350 C   0  0  0  0  0  0  0  0  0  0  0  0
  138.5337  160.3411  131.6666 H   0  0  0  0  0  0  0  0  0  0  0  0
  140.1905  160.2685  130.9763 H   0  0  0  0  0  0  0  0  0  0  0  0
  139.1524  158.8025  130.9763 H   0  0  0  0  0  0  0  0  0  0  0  0
  141.6897  160.4994  132.5885 H   0  0  0  0  0  0  0  0  0  0  0  0
  141.3771  159.9477  134.2728 H   0  0  0  0  0  0  0  0  0  0  0  0
  140.1398  157.6940  136.8539 H   0  0  0  0  0  0  0  0  0  0  0  0
  139.1333  156.6351  135.8098 H   0  0  0  0  0  0  0  0  0  0  0  0
  139.9190  156.5390  133.3630 H   0  0  0  0  0  0  0  0  0  0  0  0
  138.3620  155.7180  133.0170 H   0  0  0  0  0  0  0  0  0  0  0  0
  142.1325  152.8627  131.7210 H   0  0  0  0  0  0  0  0  0  0  0  0
  144.9414  152.3911  132.0130 H   0  0  0  0  0  0  0  0  0  0  0  0
  146.9162  152.9246  133.4753 H   0  0  0  0  0  0  0  0  0  0  0  0
  144.3935  155.4743  135.9524 H   0  0  0  0  0  0  0  0  0  0  0  0
  1  2  1  0
  2  3  1  0
  3  4  1  0
  4  5  2  0
  4  6  1  0
  2  7  1  0
  7  8  2  0
  7  9  1  0
  9 10  1  0
 10 11  1  0
 11 12  1  0
 12 13  2  0
 12 14  1  0
 14 15  1  0
 15 16  1  0
 16 17  1  0
 16 18  2  0
 15 19  2  0
 19 20  1  0
 20 21  2  0
 21 22  1  0
 22 23  2  0
 23 24  1  0
 24 25  1  0
 24 26  1  0
 24 27  1  0
 23 28  1  0
 28 29  2  0
 29 14  1  0
 29 20  1  0
  1 30  1  0
  1 31  1  0
  1 32  1  0
  3 33  1  0
  3 34  1  0
 10 35  1  0
 10 36  1  0
 17 37  1  0
 17 38  1  0
 19 39  1  0
 21 40  1  0
 22 41  1  0
 28 42  1  0
M  CHG  1   6  -1
M  END
>  <UniqueID>  (45) 
45

>  <SMILES>  (45) 
CN(CC(=O)[O-])C(=O)OCOC(=O)n1c(C(N)=O)cc2ccc(C(F)(F)F)cc21

>  <Energy>  (45) 
73.44105342789035

>  <Genealogy>  (45) 
CN(CC(=O)[O-])C(=O)OCOC(=O)n1c(C(N)=O)cc2ccc(C(F)(F)F)cc21 (protonated)
CN(CC(=O)[O-])C(=O)OCOC(=O)n1c(C(N)=O)cc2ccc(C(F)(F)F)cc21 (3D coordinates assigned)
CN(CC(=O)[O-])C(=O)OCOC(=O)n1c(C(N)=O)cc2ccc(C(F)(F)F)cc21 (optimized conformer: 73.44105342789035 kcal/mol)

>  <smiles>  (45) 
CN(CC(=O)O)C(=O)OCOC(=O)n1c(C(N)=O)cc2ccc(C(F)(F)F)cc21

>  <score_type>  (45) 
oracle

>  <origin>  (45) 
adg

>  <m_score__min__energy>  (45) 
-6.4100000000000001

>  <m_primary>  (45) 
energy

$$$$
45:0
     RDKit          3D

 51 53  0  0  0  0  0  0  0  0999 V2000
  149.7510  150.7280  131.0950 C   0  0  0  0  0  0  0  0  0  0  0  0
  148.5840  151.2080  131.7490 O   0  0  0  0  0  0  0  0  0  0  0  0
  148.4800  152.5030  132.2690 C   0  0  0  0  0  0  0  0  0  0  0  0
  149.2670  153.4110  131.8680 O   0  0  0  0  0  0  0  0  0  0  0  0
  147.4360  152.7870  133.2350 N   0  0  0  0  0  0  0  0  0  0  0  0
  146.2430  153.3900  132.6120 C   0  0  0  0  0  0  0  0  0  0  0  0
  146.4390  154.8680  132.2380 C   0  0  0  0  0  0  0  0  0  0  0  0
  146.9640  155.6380  133.3800 N   0  0  0  0  0  0  0  0  0  0  0  0
  146.6380  157.0490  133.5320 C   0  0  0  0  0  0  0  0  0  0  0  0
  147.6370  158.0570  133.3820 C   0  0  0  0  0  0  0  0  0  0  0  0
  147.3150  159.4200  133.5000 C   0  0  0  0  0  0  0  0  0  0  0  0
  145.9850  159.7630  133.7170 C   0  0  0  0  0  0  0  0  0  0  0  0
  145.3840  161.0030  133.7550 C   0  0  0  0  0  0  0  0  0  0  0  0
  144.0170  160.7480  133.8380 C   0  0  0  0  0  0  0  0  0  0  0  0
  142.9970  161.7820  133.6010 C   0  0  0  0  0  0  0  0  0  0  0  0
  141.6150  161.4480  133.6920 N   0  0  0  0  0  0  0  0  0  0  0  0
  143.3380  162.9750  133.3940 O   0  0  0  0  0  0  0  0  0  0  0  0
  143.7820  159.4040  133.9030 N   0  0  0  0  0  0  0  0  0  0  0  0
  142.5150  158.7190  133.9640 C   0  0  0  0  0  0  0  0  0  0  0  0
  142.0210  158.2420  132.9010 O   0  0  0  0  0  0  0  0  0  0  0  0
  141.7750  158.5290  135.2700 C   0  0  1  0  0  0  0  0  0  0  0  0
  141.3280  159.7760  135.7510 O   0  0  0  0  0  0  0  0  0  0  0  0
  140.5870  157.5510  135.1570 C   0  0  0  0  0  0  0  0  0  0  0  0
  139.4940  157.9560  134.2080 C   0  0  0  0  0  0  0  0  0  0  0  0
  138.6180  157.1370  133.8120 O   0  0  0  0  0  0  0  0  0  0  0  0
  139.4770  159.2600  133.7230 O   0  0  0  0  0  0  0  0  0  0  0  0
  144.9990  158.8180  133.8220 C   0  0  0  0  0  0  0  0  0  0  0  0
  145.2990  157.4550  133.7840 C   0  0  0  0  0  0  0  0  0  0  0  0
  148.1140  155.0630  134.1010 C   0  0  0  0  0  0  0  0  0  0  0  0
  147.9240  153.5660  134.3960 C   0  0  0  0  0  0  0  0  0  0  0  0
  150.4934  150.4226  131.8471 H   0  0  0  0  0  0  0  0  0  0  0  0
  149.4898  149.8643  130.4659 H   0  0  0  0  0  0  0  0  0  0  0  0
  150.1731  151.5256  130.4659 H   0  0  0  0  0  0  0  0  0  0  0  0
  147.1270  151.8560  133.6120 H   0  0  0  0  0  0  0  0  0  0  0  0
  146.0029  152.8267  131.6982 H   0  0  0  0  0  0  0  0  0  0  0  0
  145.4291  153.3440  133.3505 H   0  0  0  0  0  0  0  0  0  0  0  0
  147.1500  154.9359  131.4014 H   0  0  0  0  0  0  0  0  0  0  0  0
  145.4639  155.2886  131.9511 H   0  0  0  0  0  0  0  0  0  0  0  0
  148.6756  157.7625  133.1707 H   0  0  0  0  0  0  0  0  0  0  0  0
  148.0932  160.1936  133.4229 H   0  0  0  0  0  0  0  0  0  0  0  0
  145.8787  161.9851  133.7260 H   0  0  0  0  0  0  0  0  0  0  0  0
  141.3030  160.4510  133.6830 H   0  0  0  0  0  0  0  0  0  0  0  0
  142.4870  158.0807  135.9785 H   0  0  0  0  0  0  0  0  0  0  0  0
  140.9210  160.2650  134.9870 H   0  0  0  0  0  0  0  0  0  0  0  0
  140.9804  156.5793  134.8237 H   0  0  0  0  0  0  0  0  0  0  0  0
  140.1233  157.5279  136.1542 H   0  0  0  0  0  0  0  0  0  0  0  0
  144.5103  156.7057  133.9468 H   0  0  0  0  0  0  0  0  0  0  0  0
  149.0175  155.1913  133.4868 H   0  0  0  0  0  0  0  0  0  0  0  0
  148.2066  155.5881  135.0632 H   0  0  0  0  0  0  0  0  0  0  0  0
  148.8916  153.1489  134.7119 H   0  0  0  0  0  0  0  0  0  0  0  0
  147.1567  153.4881  135.1804 H   0  0  0  0  0  0  0  0  0  0  0  0
  1  2  1  0
  2  3  1  0
  3  4  2  0
  3  5  1  0
  5  6  1  0
  6  7  1  0
  7  8  1  0
  8  9  1  0
  9 10  2  0
 10 11  1  0
 11 12  2  0
 12 13  1  0
 13 14  2  0
 14 15  1  0
 15 16  1  0
 15 17  2  0
 14 18  1  0
 18 19  1  0
 19 20  2  0
 19 21  1  0
 21 22  1  0
 21 23  1  0
 23 24  1  0
 24 25  2  0
 24 26  1  0
 18 27  1  0
 27 28  2  0
  8 29  1  0
 29 30  1  0
 30  5  1  0
 28  9  1  0
 27 12  1  0
  1 31  1  0
  1 32  1  0
  1 33  1  0
  5 34  1  0
  6 35  1  0
  6 36  1  0
  7 37  1  0
  7 38  1  0
 10 39  1  0
 11 40  1  0
 13 41  1  0
 16 42  1  0
 21 43  1  1
 22 44  1  0
 23 45  1  0
 23 46  1  0
 28 47  1  0
 29 48  1  0
 29 49  1  0
 30 50  1  0
 30 51  1  0
M  CHG  3   5   1  16  -1  26  -1
M  END
>  <UniqueID>  (46) 
46

>  <SMILES>  (46) 
COC(=O)[NH+]1CCN(c2ccc3cc(C([NH-])=O)n(C(=O)[C@@H](O)CC(=O)[O-])c3c2)CC1

>  <Energy>  (46) 
103.8115950487913

>  <Genealogy>  (46) 
COC(=O)[NH+]1CCN(c2ccc3cc(C([NH-])=O)n(C(=O)C(O)CC(=O)[O-])c3c2)CC1 (protonated)
COC(=O)[NH+]1CCN(c2ccc3cc(C([NH-])=O)n(C(=O)[C@@H](O)CC(=O)[O-])c3c2)CC1 (chirality)
COC(=O)[NH+]1CCN(c2ccc3cc(C([NH-])=O)n(C(=O)[C@@H](O)CC(=O)[O-])c3c2)CC1 (3D coordinates assigned)
COC(=O)[NH+]1CCN(c2ccc3cc(C([NH-])=O)n(C(=O)[C@@H](O)CC(=O)[O-])c3c2)CC1 (nonaromatic ring conformer: 103.8115950487913 kcal/mol)

>  <smiles>  (46) 
COC(=O)N1CCN(c2ccc3cc(C(N)=O)n(C(=O)C(O)CC(=O)O)c3c2)CC1

>  <score_type>  (46) 
oracle

>  <origin>  (46) 
adg

>  <m_score__min__energy>  (46) 
-6.9100000000000001

>  <m_primary>  (46) 
energy

$$$$
46:0
     RDKit          3D

 30 31  0  0  0  0  0  0  0  0999 V2000
  142.9600  161.2610  133.6980 N   0  0  0  0  0  0  0  0  0  0  0  0
  144.3670  161.4570  133.8060 C   0  0  0  0  0  0  0  0  0  0  0  0
  144.8120  162.6040  134.0710 O   0  0  0  0  0  0  0  0  0  0  0  0
  145.2880  160.3260  133.5640 C   0  0  0  0  0  0  0  0  0  0  0  0
  146.6570  160.4800  133.3610 C   0  0  0  0  0  0  0  0  0  0  0  0
  147.1580  159.2020  133.2660 C   0  0  0  0  0  0  0  0  0  0  0  0
  148.4630  158.7660  133.0630 C   0  0  0  0  0  0  0  0  0  0  0  0
  148.6910  157.3820  132.9840 C   0  0  0  0  0  0  0  0  0  0  0  0
  147.6150  156.4630  133.0820 C   0  0  0  0  0  0  0  0  0  0  0  0
  147.8770  154.9790  133.0320 C   0  0  0  0  0  0  0  0  0  0  0  0
  148.1190  154.4820  134.3020 F   0  0  0  0  0  0  0  0  0  0  0  0
  146.7870  154.3070  132.5060 F   0  0  0  0  0  0  0  0  0  0  0  0
  148.9810  154.7390  132.2360 F   0  0  0  0  0  0  0  0  0  0  0  0
  146.3050  156.9460  133.3120 C   0  0  0  0  0  0  0  0  0  0  0  0
  146.1110  158.3300  133.4040 C   0  0  0  0  0  0  0  0  0  0  0  0
  144.9540  159.0050  133.5870 N   0  0  0  0  0  0  0  0  0  0  0  0
  143.6410  158.4320  133.6970 C   0  0  0  0  0  0  0  0  0  0  0  0
  142.9700  158.1940  132.6570 O   0  0  0  0  0  0  0  0  0  0  0  0
  143.1060  158.1620  134.9610 O   0  0  0  0  0  0  0  0  0  0  0  0
  142.1830  159.0240  135.6230 C   0  0  0  0  0  0  0  0  0  0  0  0
  140.8280  158.9080  135.0030 C   0  0  0  0  0  0  0  0  0  0  0  0
  139.9290  158.2260  135.5620 O   0  0  0  0  0  0  0  0  0  0  0  0
  140.5640  159.5340  133.7910 O   0  0  0  0  0  0  0  0  0  0  0  0
  142.5610  160.3100  133.5300 H   0  0  0  0  0  0  0  0  0  0  0  0
  147.2187  161.4232  133.2913 H   0  0  0  0  0  0  0  0  0  0  0  0
  149.2916  159.4831  132.9672 H   0  0  0  0  0  0  0  0  0  0  0  0
  149.7156  157.0068  132.8445 H   0  0  0  0  0  0  0  0  0  0  0  0
  145.4589  156.2508  133.4161 H   0  0  0  0  0  0  0  0  0  0  0  0
  142.1215  158.7429  136.6847 H   0  0  0  0  0  0  0  0  0  0  0  0
  142.5322  160.0627  135.5276 H   0  0  0  0  0  0  0  0  0  0  0  0
  1  2  1  0
  2  3  2  0
  2  4  1  0
  4  5  2  0
  5  6  1  0
  6  7  2  0
  7  8  1  0
  8  9  2  0
  9 10  1  0
 10 11  1  0
 10 12  1  0
 10 13  1  0
  9 14  1  0
 14 15  2  0
 15 16  1  0
 16 17  1  0
 17 18  2  0
 17 19  1  0
 19 20  1  0
 20 21  1  0
 21 22  2  0
 21 23  1  0
 16  4  1  0
 15  6  1  0
  1 24  1  0
  5 25  1  0
  7 26  1  0
  8 27  1  0
 14 28  1  0
 20 29  1  0
 20 30  1  0
M  CHG  2   1  -1  23  -1
M  END
>  <UniqueID>  (47) 
47

>  <SMILES>  (47) 
[NH-]C(=O)c1cc2ccc(C(F)(F)F)cc2n1C(=O)OCC(=O)[O-]

>  <Energy>  (47) 
67.68077772748546

>  <Genealogy>  (47) 
[NH-]C(=O)c1cc2ccc(C(F)(F)F)cc2n1C(=O)OCC(=O)[O-] (protonated)
[NH-]C(=O)c1cc2ccc(C(F)(F)F)cc2n1C(=O)OCC(=O)[O-] (3D coordinates assigned)
[NH-]C(=O)c1cc2ccc(C(F)(F)F)cc2n1C(=O)OCC(=O)[O-] (optimized conformer: 67.68077772748546 kcal/mol)

>  <smiles>  (47) 
NC(=O)c1cc2ccc(C(F)(F)F)cc2n1C(=O)OCC(=O)O

>  <score_type>  (47) 
oracle

>  <origin>  (47) 
adg

>  <m_score__min__energy>  (47) 
-5.6200000000000001

>  <m_primary>  (47) 
energy

$$$$
47:0
     RDKit          3D

 41 42  0  0  0  0  0  0  0  0999 V2000
  138.7230  158.2340  131.1010 C   0  0  0  0  0  0  0  0  0  0  0  0
  139.1900  159.5820  131.4300 N   0  0  0  0  0  0  0  0  0  0  0  0
  138.7360  160.7450  130.6630 C   0  0  0  0  0  0  0  0  0  0  0  0
  140.1020  159.7620  132.5260 C   0  0  0  0  0  0  0  0  0  0  0  0
  140.6010  160.9000  132.7520 O   0  0  0  0  0  0  0  0  0  0  0  0
  140.4310  158.6730  133.3450 O   0  0  0  0  0  0  0  0  0  0  0  0
  140.4460  158.7340  134.7700 C   0  0  0  0  0  0  0  0  0  0  0  0
  141.5120  157.8430  135.3360 C   0  0  0  0  0  0  0  0  0  0  0  0
  141.1760  156.8090  135.9740 O   0  0  0  0  0  0  0  0  0  0  0  0
  142.8590  158.1420  135.0970 O   0  0  0  0  0  0  0  0  0  0  0  0
  143.5300  157.9450  133.8840 C   0  0  0  0  0  0  0  0  0  0  0  0
  143.0480  157.1980  132.9900 O   0  0  0  0  0  0  0  0  0  0  0  0
  144.7890  158.5960  133.6670 N   0  0  0  0  0  0  0  0  0  0  0  0
  145.0360  159.9320  133.5550 C   0  0  0  0  0  0  0  0  0  0  0  0
  144.0560  161.0180  133.7770 C   0  0  0  0  0  0  0  0  0  0  0  0
  142.6960  160.7290  134.0870 N   0  0  0  0  0  0  0  0  0  0  0  0
  144.4370  162.2180  133.7350 O   0  0  0  0  0  0  0  0  0  0  0  0
  146.3810  160.1590  133.2780 C   0  0  0  0  0  0  0  0  0  0  0  0
  146.9600  158.9110  133.2300 C   0  0  0  0  0  0  0  0  0  0  0  0
  148.2780  158.5450  132.9790 C   0  0  0  0  0  0  0  0  0  0  0  0
  148.5870  157.1750  132.9520 C   0  0  0  0  0  0  0  0  0  0  0  0
  147.5780  156.1990  133.1520 C   0  0  0  0  0  0  0  0  0  0  0  0
  147.9410  154.7350  133.1150 C   0  0  0  0  0  0  0  0  0  0  0  0
  149.0680  154.5640  132.3340 F   0  0  0  0  0  0  0  0  0  0  0  0
  146.9020  154.0010  132.5700 F   0  0  0  0  0  0  0  0  0  0  0  0
  148.1920  154.2510  134.3860 F   0  0  0  0  0  0  0  0  0  0  0  0
  146.2550  156.6120  133.4370 C   0  0  0  0  0  0  0  0  0  0  0  0
  145.9790  157.9840  133.4690 C   0  0  0  0  0  0  0  0  0  0  0  0
  138.5298  157.6762  132.0292 H   0  0  0  0  0  0  0  0  0  0  0  0
  137.7955  158.3005  130.5133 H   0  0  0  0  0  0  0  0  0  0  0  0
  139.4929  157.7125  130.5133 H   0  0  0  0  0  0  0  0  0  0  0  0
  138.4250  161.5417  131.3547 H   0  0  0  0  0  0  0  0  0  0  0  0
  139.5577  161.1098  130.0292 H   0  0  0  0  0  0  0  0  0  0  0  0
  137.8844  160.4566  130.0292 H   0  0  0  0  0  0  0  0  0  0  0  0
  140.6398  159.7704  135.0835 H   0  0  0  0  0  0  0  0  0  0  0  0
  139.4696  158.3936  135.1452 H   0  0  0  0  0  0  0  0  0  0  0  0
  142.2500  159.8390  133.7710 H   0  0  0  0  0  0  0  0  0  0  0  0
  146.8763  161.1298  133.1290 H   0  0  0  0  0  0  0  0  0  0  0  0
  149.0545  159.3049  132.8069 H   0  0  0  0  0  0  0  0  0  0  0  0
  149.6243  156.8554  132.7735 H   0  0  0  0  0  0  0  0  0  0  0  0
  145.4629  155.8732  133.6287 H   0  0  0  0  0  0  0  0  0  0  0  0
  1  2  1  0
  2  3  1  0
  2  4  1  0
  4  5  2  0
  4  6  1  0
  6  7  1  0
  7  8  1  0
  8  9  2  0
  8 10  1  0
 10 11  1  0
 11 12  2  0
 11 13  1  0
 13 14  1  0
 14 15  1  0
 15 16  1  0
 15 17  2  0
 14 18  2  0
 18 19  1  0
 19 20  2  0
 20 21  1  0
 21 22  2  0
 22 23  1  0
 23 24  1  0
 23 25  1  0
 23 26  1  0
 22 27  1  0
 27 28  2  0
 28 13  1  0
 28 19  1  0
  1 29  1  0
  1 30  1  0
  1 31  1  0
  3 32  1  0
  3 33  1  0
  3 34  1  0
  7 35  1  0
  7 36  1  0
 16 37  1  0
 18 38  1  0
 20 39  1  0
 21 40  1  0
 27 41  1  0
M  CHG  1  16  -1
M  END
>  <UniqueID>  (48) 
48

>  <SMILES>  (48) 
CN(C)C(=O)OCC(=O)OC(=O)n1c(C([NH-])=O)cc2ccc(C(F)(F)F)cc21

>  <Energy>  (48) 
73.61418464613486

>  <Genealogy>  (48) 
CN(C)C(=O)OCC(=O)OC(=O)n1c(C([NH-])=O)cc2ccc(C(F)(F)F)cc21 (protonated)
CN(C)C(=O)OCC(=O)OC(=O)n1c(C([NH-])=O)cc2ccc(C(F)(F)F)cc21 (3D coordinates assigned)
CN(C)C(=O)OCC(=O)OC(=O)n1c(C([NH-])=O)cc2ccc(C(F)(F)F)cc21 (optimized conformer: 73.61418464613486 kcal/mol)

>  <smiles>  (48) 
CN(C)C(=O)OCC(=O)OC(=O)n1c(C(N)=O)cc2ccc(C(F)(F)F)cc21

>  <score_type>  (48) 
oracle

>  <origin>  (48) 
adg

>  <m_score__min__energy>  (48) 
-6.2300000000000004

>  <m_primary>  (48) 
energy

$$$$
48:0
     RDKit          3D

 44 45  0  0  0  0  0  0  0  0999 V2000
  149.6670  158.0720  131.8640 C   0  0  0  0  0  0  0  0  0  0  0  0
  148.4720  157.6270  132.5920 N   0  0  0  0  0  0  0  0  0  0  0  0
  148.3420  156.2070  132.9420 C   0  0  0  0  0  0  0  0  0  0  0  0
  147.4350  158.5750  132.9560 C   0  0  0  0  0  0  0  0  0  0  0  0
  147.7580  159.9300  133.2530 C   0  0  0  0  0  0  0  0  0  0  0  0
  146.7600  160.8520  133.6110 C   0  0  0  0  0  0  0  0  0  0  0  0
  145.4450  160.4070  133.6590 C   0  0  0  0  0  0  0  0  0  0  0  0
  144.2940  161.0780  134.0020 C   0  0  0  0  0  0  0  0  0  0  0  0
  143.2720  160.1360  133.8950 C   0  0  0  0  0  0  0  0  0  0  0  0
  141.8450  160.4430  134.1340 C   0  0  0  0  0  0  0  0  0  0  0  0
  140.9960  159.5150  134.8020 N   0  0  0  0  0  0  0  0  0  0  0  0
  141.3630  161.5300  133.7180 O   0  0  0  0  0  0  0  0  0  0  0  0
  143.7740  158.9340  133.4980 N   0  0  0  0  0  0  0  0  0  0  0  0
  143.0650  157.6940  133.3440 C   0  0  0  0  0  0  0  0  0  0  0  0
  142.4880  157.4380  132.2530 O   0  0  0  0  0  0  0  0  0  0  0  0
  143.0050  156.7200  134.4440 C   0  0  0  0  0  0  0  0  0  0  0  0
  144.0650  156.2040  134.8910 O   0  0  0  0  0  0  0  0  0  0  0  0
  141.7450  156.3510  135.0010 N   0  0  0  0  0  0  0  0  0  0  0  0
  140.8840  155.5260  134.3130 O   0  0  0  0  0  0  0  0  0  0  0  0
  139.9780  156.0440  133.3880 C   0  0  0  0  0  0  0  0  0  0  0  0
  139.3390  155.2650  132.6260 O   0  0  0  0  0  0  0  0  0  0  0  0
  139.7820  157.4700  133.3070 N   0  0  0  0  0  0  0  0  0  0  0  0
  138.7430  157.8990  134.2550 C   0  0  0  0  0  0  0  0  0  0  0  0
  139.4330  157.8600  131.9320 C   0  0  0  0  0  0  0  0  0  0  0  0
  145.1060  159.1150  133.3630 C   0  0  0  0  0  0  0  0  0  0  0  0
  146.0770  158.1670  133.0240 C   0  0  0  0  0  0  0  0  0  0  0  0
  150.4473  158.3626  132.5829 H   0  0  0  0  0  0  0  0  0  0  0  0
  150.0379  157.2517  131.2319 H   0  0  0  0  0  0  0  0  0  0  0  0
  149.4111  158.9351  131.2319 H   0  0  0  0  0  0  0  0  0  0  0  0
  148.3321  156.0986  134.0366 H   0  0  0  0  0  0  0  0  0  0  0  0
  147.4039  155.8112  132.5258 H   0  0  0  0  0  0  0  0  0  0  0  0
  149.1927  155.6474  132.5258 H   0  0  0  0  0  0  0  0  0  0  0  0
  148.8060  160.2601  133.2013 H   0  0  0  0  0  0  0  0  0  0  0  0
  147.0128  161.8963  133.8465 H   0  0  0  0  0  0  0  0  0  0  0  0
  144.2001  162.1333  134.2978 H   0  0  0  0  0  0  0  0  0  0  0  0
  141.1650  158.4870  134.7350 H   0  0  0  0  0  0  0  0  0  0  0  0
  140.6780  157.9490  133.5650 H   0  0  0  0  0  0  0  0  0  0  0  0
  139.1019  157.7508  135.2842 H   0  0  0  0  0  0  0  0  0  0  0  0
  138.5177  158.9637  134.0950 H   0  0  0  0  0  0  0  0  0  0  0  0
  137.8321  157.3034  134.0950 H   0  0  0  0  0  0  0  0  0  0  0  0
  138.6997  158.6795  131.9582 H   0  0  0  0  0  0  0  0  0  0  0  0
  140.3385  158.1950  131.4049 H   0  0  0  0  0  0  0  0  0  0  0  0
  138.9999  156.9971  131.4049 H   0  0  0  0  0  0  0  0  0  0  0  0
  145.7937  157.1251  132.8141 H   0  0  0  0  0  0  0  0  0  0  0  0
  1  2  1  0
  2  3  1  0
  2  4  1  0
  4  5  2  0
  5  6  1  0
  6  7  2  0
  7  8  1  0
  8  9  2  0
  9 10  1  0
 10 11  1  0
 10 12  2  0
  9 13  1  0
 13 14  1  0
 14 15  2  0
 14 16  1  0
 16 17  2  0
 16 18  1  0
 18 19  1  0
 19 20  1  0
 20 21  2  0
 20 22  1  0
 22 23  1  0
 22 24  1  0
 13 25  1  0
 25 26  2  0
 26  4  1  0
 25  7  1  0
  1 27  1  0
  1 28  1  0
  1 29  1  0
  3 30  1  0
  3 31  1  0
  3 32  1  0
  5 33  1  0
  6 34  1  0
  8 35  1  0
 11 36  1  0
 22 37  1  0
 23 38  1  0
 23 39  1  0
 23 40  1  0
 24 41  1  0
 24 42  1  0
 24 43  1  0
 26 44  1  0
M  CHG  3  11  -1  18  -1  22   1
M  END
>  <UniqueID>  (49) 
49

>  <SMILES>  (49) 
CN(C)c1ccc2cc(C([NH-])=O)n(C(=O)C(=O)[N-]OC(=O)[NH+](C)C)c2c1

>  <Energy>  (49) 
81.83373823233515

>  <Genealogy>  (49) 
CN(C)c1ccc2cc(C([NH-])=O)n(C(=O)C(=O)[N-]OC(=O)[NH+](C)C)c2c1 (protonated)
CN(C)c1ccc2cc(C([NH-])=O)n(C(=O)C(=O)[N-]OC(=O)[NH+](C)C)c2c1 (3D coordinates assigned)
CN(C)c1ccc2cc(C([NH-])=O)n(C(=O)C(=O)[N-]OC(=O)[NH+](C)C)c2c1 (optimized conformer: 81.83373823233515 kcal/mol)

>  <smiles>  (49) 
CN(C)C(=O)ONC(=O)C(=O)n1c(C(N)=O)cc2ccc(N(C)C)cc21

>  <score_type>  (49) 
oracle

>  <origin>  (49) 
adg

>  <m_score__min__energy>  (49) 
-5.25

>  <m_primary>  (49) 
energy

$$$$
49:0
     RDKit          3D

 44 45  0  0  0  0  0  0  0  0999 V2000
  141.7510  157.3860  134.0600 C   0  0  0  0  0  0  0  0  0  0  0  0
  142.2610  156.3590  134.9740 N   0  0  0  0  0  0  0  0  0  0  0  0
  142.0620  156.5190  136.4220 C   0  0  0  0  0  0  0  0  0  0  0  0
  141.1620  157.6790  136.7280 C   0  0  0  0  0  0  0  0  0  0  0  0
  141.6370  158.7990  137.0590 O   0  0  0  0  0  0  0  0  0  0  0  0
  139.7860  157.5030  136.6990 O   0  0  0  0  0  0  0  0  0  0  0  0
  142.9420  155.2090  134.4320 C   0  0  0  0  0  0  0  0  0  0  0  0
  142.3270  154.4200  133.6630 O   0  0  0  0  0  0  0  0  0  0  0  0
  144.3180  154.9450  134.7410 N   0  0  0  0  0  0  0  0  0  0  0  0
  144.6290  154.4150  136.0780 C   0  0  0  0  0  0  0  0  0  0  0  0
  146.0980  154.1900  136.2620 C   0  0  0  0  0  0  0  0  0  0  0  0
  146.9210  155.0780  135.9160 O   0  0  0  0  0  0  0  0  0  0  0  0
  146.5660  152.9870  136.7750 O   0  0  0  0  0  0  0  0  0  0  0  0
  145.2450  154.8190  133.6410 C   0  0  0  0  0  0  0  0  0  0  0  0
  145.1550  153.8360  132.8550 O   0  0  0  0  0  0  0  0  0  0  0  0
  146.3290  155.7440  133.4730 N   0  0  0  0  0  0  0  0  0  0  0  0
  147.6420  155.4730  133.2310 C   0  0  0  0  0  0  0  0  0  0  0  0
  148.2400  154.1300  133.0800 C   0  0  0  0  0  0  0  0  0  0  0  0
  147.8460  153.0340  133.9050 N   0  0  0  0  0  0  0  0  0  0  0  0
  149.1430  153.9530  132.2190 O   0  0  0  0  0  0  0  0  0  0  0  0
  148.3490  156.6570  133.0230 C   0  0  0  0  0  0  0  0  0  0  0  0
  147.4230  157.6660  133.1650 C   0  0  0  0  0  0  0  0  0  0  0  0
  147.5730  159.0460  133.0640 C   0  0  0  0  0  0  0  0  0  0  0  0
  146.4320  159.8470  133.2430 C   0  0  0  0  0  0  0  0  0  0  0  0
  145.1640  159.2600  133.4970 C   0  0  0  0  0  0  0  0  0  0  0  0
  143.9570  160.1320  133.7320 C   0  0  0  0  0  0  0  0  0  0  0  0
  143.5750  160.0330  135.0570 F   0  0  0  0  0  0  0  0  0  0  0  0
  144.2450  161.4530  133.4420 F   0  0  0  0  0  0  0  0  0  0  0  0
  142.9030  159.7320  132.9280 F   0  0  0  0  0  0  0  0  0  0  0  0
  145.0600  157.8550  133.6150 C   0  0  0  0  0  0  0  0  0  0  0  0
  146.2130  157.0860  133.4340 C   0  0  0  0  0  0  0  0  0  0  0  0
  141.3360  158.2218  134.6424 H   0  0  0  0  0  0  0  0  0  0  0  0
  142.5717  157.7528  133.4260 H   0  0  0  0  0  0  0  0  0  0  0  0
  140.9628  156.9539  133.4260 H   0  0  0  0  0  0  0  0  0  0  0  0
  141.6104  155.6003  136.8244 H   0  0  0  0  0  0  0  0  0  0  0  0
  143.0409  156.7098  136.8860 H   0  0  0  0  0  0  0  0  0  0  0  0
  144.2818  155.1336  136.8350 H   0  0  0  0  0  0  0  0  0  0  0  0
  144.1195  153.4463  136.1875 H   0  0  0  0  0  0  0  0  0  0  0  0
  148.2050  152.0740  133.7020 H   0  0  0  0  0  0  0  0  0  0  0  0
  147.3290  153.1870  134.7950 H   0  0  0  0  0  0  0  0  0  0  0  0
  149.4197  156.7624  132.7940 H   0  0  0  0  0  0  0  0  0  0  0  0
  148.5539  159.4958  132.8507 H   0  0  0  0  0  0  0  0  0  0  0  0
  146.5223  160.9418  133.1857 H   0  0  0  0  0  0  0  0  0  0  0  0
  144.0952  157.3787  133.8437 H   0  0  0  0  0  0  0  0  0  0  0  0
  1  2  1  0
  2  3  1  0
  3  4  1  0
  4  5  2  0
  4  6  1  0
  2  7  1  0
  7  8  2  0
  7  9  1  0
  9 10  1  0
 10 11  1  0
 11 12  2  0
 11 13  1  0
  9 14  1  0
 14 15  2  0
 14 16  1  0
 16 17  1  0
 17 18  1  0
 18 19  1  0
 18 20  2  0
 17 21  2  0
 21 22  1  0
 22 23  2  0
 23 24  1  0
 24 25  2  0
 25 26  1  0
 26 27  1  0
 26 28  1  0
 26 29  1  0
 25 30  1  0
 30 31  2  0
 31 16  1  0
 31 22  1  0
  1 32  1  0
  1 33  1  0
  1 34  1  0
  3 35  1  0
  3 36  1  0
 10 37  1  0
 10 38  1  0
 19 39  1  0
 19 40  1  0
 21 41  1  0
 23 42  1  0
 24 43  1  0
 30 44  1  0
M  CHG  2   6  -1  13  -1
M  END
>  <UniqueID>  (50) 
50

>  <SMILES>  (50) 
CN(CC(=O)[O-])C(=O)N(CC(=O)[O-])C(=O)n1c(C(N)=O)cc2ccc(C(F)(F)F)cc21

>  <Energy>  (50) 
90.43244209437718

>  <Genealogy>  (50) 
CN(CC(=O)[O-])C(=O)N(CC(=O)[O-])C(=O)n1c(C(N)=O)cc2ccc(C(F)(F)F)cc21 (protonated)
CN(CC(=O)[O-])C(=O)N(CC(=O)[O-])C(=O)n1c(C(N)=O)cc2ccc(C(F)(F)F)cc21 (3D coordinates assigned)
CN(CC(=O)[O-])C(=O)N(CC(=O)[O-])C(=O)n1c(C(N)=O)cc2ccc(C(F)(F)F)cc21 (optimized conformer: 90.43244209437718 kcal/mol)

>  <smiles>  (50) 
CN(CC(=O)O)C(=O)N(CC(=O)O)C(=O)n1c(C(N)=O)cc2ccc(C(F)(F)F)cc21

>  <score_type>  (50) 
oracle

>  <origin>  (50) 
adg

>  <m_score__min__energy>  (50) 
-7.1299999999999999

>  <m_primary>  (50) 
energy

$$$$
50:0
     RDKit          3D

 47 48  0  0  0  0  0  0  0  0999 V2000
  141.9700  148.9200  132.0970 C   0  0  0  0  0  0  0  0  0  0  0  0
  140.9760  149.7900  132.7340 N   0  0  0  0  0  0  0  0  0  0  0  0
  139.5510  149.4660  132.6110 C   0  0  0  0  0  0  0  0  0  0  0  0
  141.3890  150.7090  133.7590 C   0  0  0  0  0  0  0  0  0  0  0  0
  140.9830  150.5240  134.9400 O   0  0  0  0  0  0  0  0  0  0  0  0
  142.1770  151.9640  133.4080 C   0  0  0  0  0  0  0  0  0  0  0  0
  141.5320  152.7350  132.2340 C   0  0  0  0  0  0  0  0  0  0  0  0
  143.5910  151.5270  132.9750 C   0  0  0  0  0  0  0  0  0  0  0  0
  142.2840  152.8580  134.5740 N   0  0  0  0  0  0  0  0  0  0  0  0
  142.8110  154.1990  134.5300 C   0  0  0  0  0  0  0  0  0  0  0  0
  142.9840  154.7790  133.4240 O   0  0  0  0  0  0  0  0  0  0  0  0
  143.1630  154.8990  135.7820 C   0  0  0  0  0  0  0  0  0  0  0  0
  144.3060  154.7340  136.2900 O   0  0  0  0  0  0  0  0  0  0  0  0
  142.2250  155.7780  136.4270 N   0  0  0  0  0  0  0  0  0  0  0  0
  141.2950  155.4500  137.3660 C   0  0  0  0  0  0  0  0  0  0  0  0
  141.1760  154.1440  138.0420 C   0  0  0  0  0  0  0  0  0  0  0  0
  141.9820  153.0350  137.6400 N   0  0  0  0  0  0  0  0  0  0  0  0
  140.3800  154.0140  139.0090 O   0  0  0  0  0  0  0  0  0  0  0  0
  140.4800  156.5470  137.6500 C   0  0  0  0  0  0  0  0  0  0  0  0
  140.9410  157.5630  136.8410 C   0  0  0  0  0  0  0  0  0  0  0  0
  140.4880  158.8720  136.6920 C   0  0  0  0  0  0  0  0  0  0  0  0
  141.1410  159.6960  135.7580 C   0  0  0  0  0  0  0  0  0  0  0  0
  142.2190  159.1950  134.9800 C   0  0  0  0  0  0  0  0  0  0  0  0
  142.9340  160.0550  133.9720 C   0  0  0  0  0  0  0  0  0  0  0  0
  142.0280  160.9160  133.3790 F   0  0  0  0  0  0  0  0  0  0  0  0
  143.5350  159.2950  132.9790 F   0  0  0  0  0  0  0  0  0  0  0  0
  143.9030  160.8020  134.6090 F   0  0  0  0  0  0  0  0  0  0  0  0
  142.6350  157.8550  135.1510 C   0  0  0  0  0  0  0  0  0  0  0  0
  141.9920  157.0710  136.1130 C   0  0  0  0  0  0  0  0  0  0  0  0
  142.5575  148.4058  132.8719 H   0  0  0  0  0  0  0  0  0  0  0  0
  141.4575  148.1750  131.4707 H   0  0  0  0  0  0  0  0  0  0  0  0
  142.6406  149.5267  131.4707 H   0  0  0  0  0  0  0  0  0  0  0  0
  139.1099  149.3657  133.6137 H   0  0  0  0  0  0  0  0  0  0  0  0
  139.0380  150.2704  132.0635 H   0  0  0  0  0  0  0  0  0  0  0  0
  139.4362  148.5188  132.0635 H   0  0  0  0  0  0  0  0  0  0  0  0
  140.8735  153.5221  132.6300 H   0  0  0  0  0  0  0  0  0  0  0  0
  142.3206  153.1921  131.6182 H   0  0  0  0  0  0  0  0  0  0  0  0
  140.9428  152.0395  131.6182 H   0  0  0  0  0  0  0  0  0  0  0  0
  144.2055  151.3371  133.8674 H   0  0  0  0  0  0  0  0  0  0  0  0
  143.5229  150.6080  132.3744 H   0  0  0  0  0  0  0  0  0  0  0  0
  144.0533  152.3242  132.3744 H   0  0  0  0  0  0  0  0  0  0  0  0
  142.0290  152.4760  135.5130 H   0  0  0  0  0  0  0  0  0  0  0  0
  142.9020  153.1850  137.1720 H   0  0  0  0  0  0  0  0  0  0  0  0
  139.6470  156.5912  138.3670 H   0  0  0  0  0  0  0  0  0  0  0  0
  139.6440  159.2501  137.2876 H   0  0  0  0  0  0  0  0  0  0  0  0
  140.8140  160.7383  135.6286 H   0  0  0  0  0  0  0  0  0  0  0  0
  143.4484  157.4376  134.5393 H   0  0  0  0  0  0  0  0  0  0  0  0
  1  2  1  0
  2  3  1  0
  2  4  1  0
  4  5  2  0
  4  6  1  0
  6  7  1  0
  6  8  1  0
  6  9  1  0
  9 10  1  0
 10 11  2  0
 10 12  1  0
 12 13  2  0
 12 14  1  0
 14 15  1  0
 15 16  1  0
 16 17  1  0
 16 18  2  0
 15 19  2  0
 19 20  1  0
 20 21  2  0
 21 22  1  0
 22 23  2  0
 23 24  1  0
 24 25  1  0
 24 26  1  0
 24 27  1  0
 23 28  1  0
 28 29  2  0
 29 14  1  0
 29 20  1  0
  1 30  1  0
  1 31  1  0
  1 32  1  0
  3 33  1  0
  3 34  1  0
  3 35  1  0
  7 36  1  0
  7 37  1  0
  7 38  1  0
  8 39  1  0
  8 40  1  0
  8 41  1  0
  9 42  1  0
 17 43  1  0
 19 44  1  0
 21 45  1  0
 22 46  1  0
 28 47  1  0
M  CHG  1  17  -1
M  END
>  <UniqueID>  (51) 
51

>  <SMILES>  (51) 
CN(C)C(=O)C(C)(C)NC(=O)C(=O)n1c(C([NH-])=O)cc2ccc(C(F)(F)F)cc21

>  <Energy>  (51) 
87.31261401959979

>  <Genealogy>  (51) 
CN(C)C(=O)C(C)(C)NC(=O)C(=O)n1c(C([NH-])=O)cc2ccc(C(F)(F)F)cc21 (protonated)
CN(C)C(=O)C(C)(C)NC(=O)C(=O)n1c(C([NH-])=O)cc2ccc(C(F)(F)F)cc21 (3D coordinates assigned)
CN(C)C(=O)C(C)(C)NC(=O)C(=O)n1c(C([NH-])=O)cc2ccc(C(F)(F)F)cc21 (optimized conformer: 87.31261401959979 kcal/mol)

>  <smiles>  (51) 
CN(C)C(=O)C(C)(C)NC(=O)C(=O)n1c(C(N)=O)cc2ccc(C(F)(F)F)cc21

>  <score_type>  (51) 
oracle

>  <origin>  (51) 
adg

>  <m_score__min__energy>  (51) 
-7.25

>  <m_primary>  (51) 
energy

$$$$
51:0
     RDKit          3D

 29 30  0  0  0  0  0  0  0  0999 V2000
  149.3550  160.1380  130.4080 C   0  0  0  0  0  0  0  0  0  0  0  0
  149.0110  159.0070  131.0200 C   0  0  0  0  0  0  0  0  0  0  0  0
  148.5800  158.9600  132.4300 C   0  0  0  0  0  0  0  0  0  0  0  0
  149.2300  159.6160  133.2870 O   0  0  0  0  0  0  0  0  0  0  0  0
  147.4420  158.1880  132.8480 N   0  0  0  0  0  0  0  0  0  0  0  0
  146.2490  158.6570  133.3050 C   0  0  0  0  0  0  0  0  0  0  0  0
  145.8520  160.0840  133.3400 C   0  0  0  0  0  0  0  0  0  0  0  0
  146.7830  161.0980  133.7250 N   0  0  0  0  0  0  0  0  0  0  0  0
  144.6750  160.4180  133.0410 O   0  0  0  0  0  0  0  0  0  0  0  0
  145.4270  157.5960  133.6900 C   0  0  0  0  0  0  0  0  0  0  0  0
  146.1690  156.4580  133.4610 C   0  0  0  0  0  0  0  0  0  0  0  0
  145.8520  155.1210  133.6810 C   0  0  0  0  0  0  0  0  0  0  0  0
  146.8260  154.1540  133.3790 C   0  0  0  0  0  0  0  0  0  0  0  0
  148.0940  154.5390  132.8730 C   0  0  0  0  0  0  0  0  0  0  0  0
  149.1380  153.5060  132.5630 C   0  0  0  0  0  0  0  0  0  0  0  0
  150.3420  154.1270  132.2850 F   0  0  0  0  0  0  0  0  0  0  0  0
  149.2970  152.6640  133.6490 F   0  0  0  0  0  0  0  0  0  0  0  0
  148.3800  155.9070  132.6670 C   0  0  0  0  0  0  0  0  0  0  0  0
  147.3840  156.8440  132.9600 C   0  0  0  0  0  0  0  0  0  0  0  0
  149.6696  160.1194  129.3541 H   0  0  0  0  0  0  0  0  0  0  0  0
  149.3247  161.0912  130.9562 H   0  0  0  0  0  0  0  0  0  0  0  0
  149.0498  158.0671  130.4498 H   0  0  0  0  0  0  0  0  0  0  0  0
  147.7850  160.8780  133.9170 H   0  0  0  0  0  0  0  0  0  0  0  0
  146.4760  162.0950  133.7770 H   0  0  0  0  0  0  0  0  0  0  0  0
  144.4044  157.6560  134.0909 H   0  0  0  0  0  0  0  0  0  0  0  0
  144.8688  154.8299  134.0792 H   0  0  0  0  0  0  0  0  0  0  0  0
  146.6030  153.0884  133.5365 H   0  0  0  0  0  0  0  0  0  0  0  0
  148.8171  152.9212  131.6883 H   0  0  0  0  0  0  0  0  0  0  0  0
  149.3610  156.2270  132.2859 H   0  0  0  0  0  0  0  0  0  0  0  0
  1  2  2  0
  2  3  1  0
  3  4  2  0
  3  5  1  0
  5  6  1  0
  6  7  1  0
  7  8  1  0
  7  9  2  0
  6 10  2  0
 10 11  1  0
 11 12  2  0
 12 13  1  0
 13 14  2  0
 14 15  1  0
 15 16  1  0
 15 17  1  0
 14 18  1  0
 18 19  2  0
 19  5  1  0
 19 11  1  0
  1 20  1  0
  1 21  1  0
  2 22  1  0
  8 23  1  0
  8 24  1  0
 10 25  1  0
 12 26  1  0
 13 27  1  0
 15 28  1  0
 18 29  1  0
M  END
>  <UniqueID>  (52) 
52

>  <SMILES>  (52) 
C=CC(=O)n1c(C(N)=O)cc2ccc(C(F)F)cc21

>  <Energy>  (52) 
67.20030467323492

>  <Genealogy>  (52) 
C=CC(=O)n1c(C(N)=O)cc2ccc(C(F)F)cc21 (3D coordinates assigned)
C=CC(=O)n1c(C(N)=O)cc2ccc(C(F)F)cc21 (optimized conformer: 67.20030467323492 kcal/mol)

>  <smiles>  (52) 
C=CC(=O)n1c(C(N)=O)cc2ccc(C(F)F)cc21

>  <score_type>  (52) 
oracle

>  <origin>  (52) 
adg

>  <m_score__min__energy>  (52) 
-6.6200000000000001

>  <m_primary>  (52) 
energy

$$$$
52:0
     RDKit          3D

 38 39  0  0  0  0  0  0  0  0999 V2000
  148.7780  161.2380  130.9120 C   0  0  0  0  0  0  0  0  0  0  0  0
  149.3350  159.8480  130.8300 C   0  0  0  0  0  0  0  0  0  0  0  0
  149.6130  159.3850  129.7350 O   0  0  0  0  0  0  0  0  0  0  0  0
  149.5970  159.0300  132.0740 C   0  0  0  0  0  0  0  0  0  0  0  0
  148.4360  159.0410  133.0390 C   0  0  0  0  0  0  0  0  0  0  0  0
  148.1770  160.0790  133.6990 O   0  0  0  0  0  0  0  0  0  0  0  0
  147.5540  157.9180  133.1620 N   0  0  0  0  0  0  0  0  0  0  0  0
  146.2100  157.9600  133.7290 C   0  0  0  0  0  0  0  0  0  0  0  0
  145.4040  159.0210  133.0420 C   0  0  0  0  0  0  0  0  0  0  0  0
  145.9180  159.6730  132.0930 O   0  0  0  0  0  0  0  0  0  0  0  0
  144.0860  159.3560  133.5000 N   0  0  0  0  0  0  0  0  0  0  0  0
  143.5810  160.5900  133.7800 C   0  0  0  0  0  0  0  0  0  0  0  0
  144.3550  161.8480  133.8340 C   0  0  0  0  0  0  0  0  0  0  0  0
  145.7560  161.8380  134.0820 N   0  0  0  0  0  0  0  0  0  0  0  0
  143.7630  162.9520  133.6840 O   0  0  0  0  0  0  0  0  0  0  0  0
  142.2270  160.5010  134.1010 C   0  0  0  0  0  0  0  0  0  0  0  0
  141.9180  159.1630  134.0080 C   0  0  0  0  0  0  0  0  0  0  0  0
  140.7060  158.5080  134.1950 C   0  0  0  0  0  0  0  0  0  0  0  0
  140.6730  157.1200  133.9920 C   0  0  0  0  0  0  0  0  0  0  0  0
  141.8390  156.4140  133.5950 C   0  0  0  0  0  0  0  0  0  0  0  0
  141.7760  154.9180  133.4100 C   0  0  0  0  0  0  0  0  0  0  0  0
  142.8580  154.5100  132.6490 F   0  0  0  0  0  0  0  0  0  0  0  0
  141.8270  154.2830  134.6430 F   0  0  0  0  0  0  0  0  0  0  0  0
  140.6040  154.5390  132.7720 F   0  0  0  0  0  0  0  0  0  0  0  0
  143.0570  157.1140  133.4350 C   0  0  0  0  0  0  0  0  0  0  0  0
  143.0590  158.4930  133.6500 C   0  0  0  0  0  0  0  0  0  0  0  0
  148.6629  161.5252  131.9676 H   0  0  0  0  0  0  0  0  0  0  0  0
  149.4650  161.9383  130.4143 H   0  0  0  0  0  0  0  0  0  0  0  0
  147.7976  161.2701  130.4143 H   0  0  0  0  0  0  0  0  0  0  0  0
  149.7953  157.9901  131.7751 H   0  0  0  0  0  0  0  0  0  0  0  0
  150.4590  159.4790  132.5891 H   0  0  0  0  0  0  0  0  0  0  0  0
  145.7236  156.9834  133.5891 H   0  0  0  0  0  0  0  0  0  0  0  0
  146.2749  158.1902  134.8027 H   0  0  0  0  0  0  0  0  0  0  0  0
  146.4160  161.3590  133.4290 H   0  0  0  0  0  0  0  0  0  0  0  0
  141.5499  161.3248  134.3711 H   0  0  0  0  0  0  0  0  0  0  0  0
  139.8022  159.0600  134.4925 H   0  0  0  0  0  0  0  0  0  0  0  0
  139.7313  156.5717  134.1424 H   0  0  0  0  0  0  0  0  0  0  0  0
  143.9784  156.5858  133.1487 H   0  0  0  0  0  0  0  0  0  0  0  0
  1  2  1  0
  2  3  2  0
  2  4  1  0
  4  5  1  0
  5  6  2  0
  5  7  1  0
  7  8  1  0
  8  9  1  0
  9 10  2  0
  9 11  1  0
 11 12  1  0
 12 13  1  0
 13 14  1  0
 13 15  2  0
 12 16  2  0
 16 17  1  0
 17 18  2  0
 18 19  1  0
 19 20  2  0
 20 21  1  0
 21 22  1  0
 21 23  1  0
 21 24  1  0
 20 25  1  0
 25 26  2  0
 26 11  1  0
 26 17  1  0
  1 27  1  0
  1 28  1  0
  1 29  1  0
  4 30  1  0
  4 31  1  0
  8 32  1  0
  8 33  1  0
 14 34  1  0
 16 35  1  0
 18 36  1  0
 19 37  1  0
 25 38  1  0
M  CHG  2   7  -1  14  -1
M  END
>  <UniqueID>  (53) 
53

>  <SMILES>  (53) 
CC(=O)CC(=O)[N-]CC(=O)n1c(C([NH-])=O)cc2ccc(C(F)(F)F)cc21

>  <Energy>  (53) 
71.0240855415306

>  <Genealogy>  (53) 
CC(=O)CC(=O)[N-]CC(=O)n1c(C([NH-])=O)cc2ccc(C(F)(F)F)cc21 (protonated)
CC(=O)CC(=O)[N-]CC(=O)n1c(C([NH-])=O)cc2ccc(C(F)(F)F)cc21 (3D coordinates assigned)
CC(=O)CC(=O)[N-]CC(=O)n1c(C([NH-])=O)cc2ccc(C(F)(F)F)cc21 (optimized conformer: 71.0240855415306 kcal/mol)

>  <smiles>  (53) 
CC(=O)CC(=O)NCC(=O)n1c(C(N)=O)cc2ccc(C(F)(F)F)cc21

>  <score_type>  (53) 
oracle

>  <origin>  (53) 
adg

>  <m_score__min__energy>  (53) 
-6.5599999999999996

>  <m_primary>  (53) 
energy

$$$$
53:0
     RDKit          3D

 61 64  0  0  0  0  0  0  0  0999 V2000
  146.3820  159.0720  133.2230 C   0  0  0  0  0  0  0  0  0  0  0  0
  145.3630  160.0080  132.9580 O   0  0  0  0  0  0  0  0  0  0  0  0
  144.2120  159.6740  133.7050 C   0  0  0  0  0  0  0  0  0  0  0  0
  143.2350  160.8490  133.7020 C   0  0  0  0  0  0  0  0  0  0  0  0
  141.9220  160.4140  133.3500 O   0  0  0  0  0  0  0  0  0  0  0  0
  141.1290  159.5990  134.1680 C   0  0  0  0  0  0  0  0  0  0  0  0
  140.9520  159.8920  135.3820 O   0  0  0  0  0  0  0  0  0  0  0  0
  140.5140  158.4250  133.6160 N   0  0  0  0  0  0  0  0  0  0  0  0
  139.5170  158.3720  132.6900 C   0  0  0  0  0  0  0  0  0  0  0  0
  138.7390  159.5230  132.1890 C   0  0  0  0  0  0  0  0  0  0  0  0
  139.2820  160.8440  132.1970 N   0  0  0  0  0  0  0  0  0  0  0  0
  137.5540  159.3460  131.7970 O   0  0  0  0  0  0  0  0  0  0  0  0
  139.2810  157.0570  132.2960 C   0  0  0  0  0  0  0  0  0  0  0  0
  140.1660  156.2960  133.0240 C   0  0  0  0  0  0  0  0  0  0  0  0
  140.3800  154.9220  133.0160 C   0  0  0  0  0  0  0  0  0  0  0  0
  141.3940  154.4070  133.8400 C   0  0  0  0  0  0  0  0  0  0  0  0
  142.1820  155.2690  134.6500 C   0  0  0  0  0  0  0  0  0  0  0  0
  143.2610  154.7160  135.5070 C   0  0  0  0  0  0  0  0  0  0  0  0
  142.9680  154.0430  136.7020 C   0  0  0  0  0  0  0  0  0  0  0  0
  143.9710  153.5460  137.4700 N   0  0  0  0  0  0  0  0  0  0  0  0
  145.2730  153.6900  137.1090 C   0  0  0  0  0  0  0  0  0  0  0  0
  146.3060  153.1580  137.9470 N   0  0  0  0  0  0  0  0  0  0  0  0
  147.6790  152.9480  137.4670 C   0  0  0  0  0  0  0  0  0  0  0  0
  148.3990  151.8920  138.3240 C   0  0  0  0  0  0  0  0  0  0  0  0
  148.7380  152.4180  139.7330 C   0  0  0  0  0  0  0  0  0  0  0  0
  149.2520  153.8130  139.7580 N   0  0  0  0  0  0  0  0  0  0  0  0
  148.3470  154.7260  140.4760 C   0  0  0  0  0  0  0  0  0  0  0  0
  149.6270  154.3400  138.4300 C   0  0  0  0  0  0  0  0  0  0  0  0
  148.4600  154.2860  137.4280 C   0  0  0  0  0  0  0  0  0  0  0  0
  145.5810  154.3380  135.9540 N   0  0  0  0  0  0  0  0  0  0  0  0
  144.6120  154.8490  135.1520 C   0  0  0  0  0  0  0  0  0  0  0  0
  141.9320  156.6620  134.6270 C   0  0  0  0  0  0  0  0  0  0  0  0
  140.9000  157.1440  133.8130 C   0  0  0  0  0  0  0  0  0  0  0  0
  146.5035  158.9604  134.3106 H   0  0  0  0  0  0  0  0  0  0  0  0
  146.1115  158.1010  132.7827 H   0  0  0  0  0  0  0  0  0  0  0  0
  147.3266  159.4239  132.7827 H   0  0  0  0  0  0  0  0  0  0  0  0
  143.7273  158.7947  133.2557 H   0  0  0  0  0  0  0  0  0  0  0  0
  144.5042  159.4468  134.7409 H   0  0  0  0  0  0  0  0  0  0  0  0
  143.2091  161.2993  134.7053 H   0  0  0  0  0  0  0  0  0  0  0  0
  143.5731  161.5874  132.9601 H   0  0  0  0  0  0  0  0  0  0  0  0
  138.7300  161.6390  131.8040 H   0  0  0  0  0  0  0  0  0  0  0  0
  140.1870  161.0530  132.6730 H   0  0  0  0  0  0  0  0  0  0  0  0
  138.5443  156.7027  131.5599 H   0  0  0  0  0  0  0  0  0  0  0  0
  139.7730  154.2581  132.3830 H   0  0  0  0  0  0  0  0  0  0  0  0
  141.5806  153.3231  133.8587 H   0  0  0  0  0  0  0  0  0  0  0  0
  141.9219  153.9174  137.0180 H   0  0  0  0  0  0  0  0  0  0  0  0
  146.0400  152.8600  138.9130 H   0  0  0  0  0  0  0  0  0  0  0  0
  147.6339  152.5640  136.4372 H   0  0  0  0  0  0  0  0  0  0  0  0
  147.7475  151.0111  138.4220 H   0  0  0  0  0  0  0  0  0  0  0  0
  149.3441  151.6371  137.8223 H   0  0  0  0  0  0  0  0  0  0  0  0
  147.8251  152.3762  140.3452 H   0  0  0  0  0  0  0  0  0  0  0  0
  149.5437  151.7784  140.1226 H   0  0  0  0  0  0  0  0  0  0  0  0
  148.4777  154.5942  141.5602 H   0  0  0  0  0  0  0  0  0  0  0  0
  148.5815  155.7652  140.2021 H   0  0  0  0  0  0  0  0  0  0  0  0
  147.3058  154.5006  140.2021 H   0  0  0  0  0  0  0  0  0  0  0  0
  149.9482  155.3860  138.5426 H   0  0  0  0  0  0  0  0  0  0  0  0
  150.4381  153.7103  138.0354 H   0  0  0  0  0  0  0  0  0  0  0  0
  147.7624  155.1042  137.6603 H   0  0  0  0  0  0  0  0  0  0  0  0
  148.8913  154.3819  136.4206 H   0  0  0  0  0  0  0  0  0  0  0  0
  144.8866  155.3683  134.2220 H   0  0  0  0  0  0  0  0  0  0  0  0
  142.5357  157.3512  135.2357 H   0  0  0  0  0  0  0  0  0  0  0  0
  1  2  1  0
  2  3  1  0
  3  4  1  0
  4  5  1  0
  5  6  1  0
  6  7  2  0
  6  8  1  0
  8  9  1  0
  9 10  1  0
 10 11  1  0
 10 12  2  0
  9 13  2  0
 13 14  1  0
 14 15  2  0
 15 16  1  0
 16 17  2  0
 17 18  1  0
 18 19  2  0
 19 20  1  0
 20 21  2  0
 21 22  1  0
 22 23  1  0
 23 24  1  0
 24 25  1  0
 25 26  1  0
 26 27  1  0
 26 28  1  0
 28 29  1  0
 21 30  1  0
 30 31  2  0
 17 32  1  0
 32 33  2  0
 33  8  1  0
 33 14  1  0
 31 18  1  0
 29 23  1  0
  1 34  1  0
  1 35  1  0
  1 36  1  0
  3 37  1  0
  3 38  1  0
  4 39  1  0
  4 40  1  0
 11 41  1  0
 11 42  1  0
 13 43  1  0
 15 44  1  0
 16 45  1  0
 19 46  1  0
 22 47  1  0
 23 48  1  0
 24 49  1  0
 24 50  1  0
 25 51  1  0
 25 52  1  0
 27 53  1  0
 27 54  1  0
 27 55  1  0
 28 56  1  0
 28 57  1  0
 29 58  1  0
 29 59  1  0
 31 60  1  0
 32 61  1  0
M  END
>  <UniqueID>  (54) 
54

>  <SMILES>  (54) 
COCCOC(=O)n1c(C(N)=O)cc2ccc(-c3cnc(NC4CCN(C)CC4)nc3)cc21

>  <Energy>  (54) 
114.13743485139662

>  <Genealogy>  (54) 
COCCOC(=O)n1c(C(N)=O)cc2ccc(-c3cnc(NC4CCN(C)CC4)nc3)cc21 (3D coordinates assigned)
COCCOC(=O)n1c(C(N)=O)cc2ccc(-c3cnc(NC4CCN(C)CC4)nc3)cc21 (nonaromatic ring conformer: 114.13743485139662 kcal/mol)

>  <smiles>  (54) 
COCCOC(=O)n1c(C(N)=O)cc2ccc(-c3cnc(NC4CCN(C)CC4)nc3)cc21

>  <score_type>  (54) 
oracle

>  <origin>  (54) 
adg

>  <m_score__min__energy>  (54) 
-8.6199999999999992

>  <m_primary>  (54) 
energy

$$$$
54:0
     RDKit          3D

 57 59  0  0  0  0  0  0  0  0999 V2000
  149.5510  154.2490  138.4950 C   0  0  0  0  0  0  0  0  0  0  0  0
  148.7460  154.5060  137.3100 N   0  0  0  0  0  0  0  0  0  0  0  0
  147.8070  153.5550  136.7930 C   0  0  0  0  0  0  0  0  0  0  0  0
  147.4940  152.5390  137.4680 O   0  0  0  0  0  0  0  0  0  0  0  0
  147.1430  153.7980  135.4670 C   0  0  1  0  0  0  0  0  0  0  0  0
  146.0000  154.8020  135.5970 C   0  0  0  0  0  0  0  0  0  0  0  0
  146.1470  155.6720  134.4480 N   0  0  0  0  0  0  0  0  0  0  0  0
  145.2000  156.6970  134.0690 C   0  0  0  0  0  0  0  0  0  0  0  0
  145.6480  157.9380  133.5360 C   0  0  0  0  0  0  0  0  0  0  0  0
  144.7340  158.9400  133.1680 C   0  0  0  0  0  0  0  0  0  0  0  0
  143.3790  158.6830  133.3440 C   0  0  0  0  0  0  0  0  0  0  0  0
  142.2830  159.4610  133.0480 C   0  0  0  0  0  0  0  0  0  0  0  0
  141.1750  158.6960  133.4110 C   0  0  0  0  0  0  0  0  0  0  0  0
  139.7810  159.1790  133.3120 C   0  0  0  0  0  0  0  0  0  0  0  0
  138.7220  158.5200  134.0030 N   0  0  0  0  0  0  0  0  0  0  0  0
  139.5250  160.2100  132.6350 O   0  0  0  0  0  0  0  0  0  0  0  0
  141.5730  157.4910  133.9110 N   0  0  0  0  0  0  0  0  0  0  0  0
  140.7470  156.3870  134.3140 C   0  0  0  0  0  0  0  0  0  0  0  0
  140.2960  156.3510  135.4870 O   0  0  0  0  0  0  0  0  0  0  0  0
  140.4900  155.2760  133.3770 C   0  0  0  0  0  0  0  0  0  0  0  0
  139.3300  155.1650  132.9020 O   0  0  0  0  0  0  0  0  0  0  0  0
  141.4840  154.3240  132.9570 N   0  0  0  0  0  0  0  0  0  0  0  0
  142.0320  153.1210  133.6030 C   0  0  0  0  0  0  0  0  0  0  0  0
  143.4450  152.9200  133.0200 C   0  0  0  0  0  0  0  0  0  0  0  0
  142.1640  153.3380  135.1250 C   0  0  0  0  0  0  0  0  0  0  0  0
  141.1730  151.8750  133.2820 C   0  0  0  0  0  0  0  0  0  0  0  0
  139.9960  152.2420  132.6130 O   0  0  0  0  0  0  0  0  0  0  0  0
  142.9240  157.5010  133.8630 C   0  0  0  0  0  0  0  0  0  0  0  0
  143.8090  156.4800  134.2250 C   0  0  0  0  0  0  0  0  0  0  0  0
  147.3680  155.3700  133.7200 C   0  0  0  0  0  0  0  0  0  0  0  0
  148.1060  154.3690  134.5060 N   0  0  0  0  0  0  0  0  0  0  0  0
  148.7090  153.3380  133.6480 C   0  0  0  0  0  0  0  0  0  0  0  0
  148.9494  154.4411  139.3957 H   0  0  0  0  0  0  0  0  0  0  0  0
  149.8828  153.2002  138.4925 H   0  0  0  0  0  0  0  0  0  0  0  0
  150.4292  154.9114  138.4925 H   0  0  0  0  0  0  0  0  0  0  0  0
  146.7623  152.8264  135.1190 H   0  0  0  0  0  0  0  0  0  0  0  0
  145.0274  154.2887  135.5738 H   0  0  0  0  0  0  0  0  0  0  0  0
  146.0360  155.3552  136.5471 H   0  0  0  0  0  0  0  0  0  0  0  0
  146.7262  158.1157  133.4101 H   0  0  0  0  0  0  0  0  0  0  0  0
  145.0800  159.8983  132.7534 H   0  0  0  0  0  0  0  0  0  0  0  0
  142.2814  160.4727  132.6162 H   0  0  0  0  0  0  0  0  0  0  0  0
  138.8570  157.5660  134.4040 H   0  0  0  0  0  0  0  0  0  0  0  0
  144.1693  152.8170  133.8414 H   0  0  0  0  0  0  0  0  0  0  0  0
  143.4604  152.0106  132.4013 H   0  0  0  0  0  0  0  0  0  0  0  0
  143.7134  153.7890  132.4013 H   0  0  0  0  0  0  0  0  0  0  0  0
  141.6637  152.5156  135.6574 H   0  0  0  0  0  0  0  0  0  0  0  0
  143.2285  153.3598  135.4013 H   0  0  0  0  0  0  0  0  0  0  0  0
  141.6939  154.2933  135.4013 H   0  0  0  0  0  0  0  0  0  0  0  0
  141.7527  151.1916  132.6440 H   0  0  0  0  0  0  0  0  0  0  0  0
  140.9028  151.3795  134.2262 H   0  0  0  0  0  0  0  0  0  0  0  0
  140.1120  153.1900  132.3480 H   0  0  0  0  0  0  0  0  0  0  0  0
  143.4318  155.5265  134.6233 H   0  0  0  0  0  0  0  0  0  0  0  0
  147.1243  154.9646  132.7269 H   0  0  0  0  0  0  0  0  0  0  0  0
  147.9725  156.2778  133.5771 H   0  0  0  0  0  0  0  0  0  0  0  0
  149.1648  152.5586  134.2764 H   0  0  0  0  0  0  0  0  0  0  0  0
  147.9313  152.8887  133.0129 H   0  0  0  0  0  0  0  0  0  0  0  0
  149.4819  153.7955  133.0129 H   0  0  0  0  0  0  0  0  0  0  0  0
  1  2  1  0
  2  3  1  0
  3  4  2  0
  3  5  1  0
  5  6  1  0
  6  7  1  0
  7  8  1  0
  8  9  2  0
  9 10  1  0
 10 11  2  0
 11 12  1  0
 12 13  2  0
 13 14  1  0
 14 15  1  0
 14 16  2  0
 13 17  1  0
 17 18  1  0
 18 19  2  0
 18 20  1  0
 20 21  2  0
 20 22  1  0
 22 23  1  0
 23 24  1  0
 23 25  1  0
 23 26  1  0
 26 27  1  0
 17 28  1  0
 28 29  2  0
  7 30  1  0
 30 31  1  0
 31 32  1  0
 31  5  1  0
 29  8  1  0
 28 11  1  0
  1 33  1  0
  1 34  1  0
  1 35  1  0
  5 36  1  6
  6 37  1  0
  6 38  1  0
  9 39  1  0
 10 40  1  0
 12 41  1  0
 15 42  1  0
 24 43  1  0
 24 44  1  0
 24 45  1  0
 25 46  1  0
 25 47  1  0
 25 48  1  0
 26 49  1  0
 26 50  1  0
 27 51  1  0
 29 52  1  0
 30 53  1  0
 30 54  1  0
 32 55  1  0
 32 56  1  0
 32 57  1  0
M  CHG  3   2  -1  15  -1  22  -1
M  END
>  <UniqueID>  (55) 
55

>  <SMILES>  (55) 
C[N-]C(=O)[C@H]1CN(c2ccc3cc(C([NH-])=O)n(C(=O)C(=O)[N-]C(C)(C)CO)c3c2)CN1C

>  <Energy>  (55) 
101.01691940193955

>  <Genealogy>  (55) 
C[N-]C(=O)[C@H]1CN(c2ccc3cc(C([NH-])=O)n(C(=O)C(=O)[N-]C(C)(C)CO)c3c2)CN1C (protonated)
C[N-]C(=O)[C@H]1CN(c2ccc3cc(C([NH-])=O)n(C(=O)C(=O)[N-]C(C)(C)CO)c3c2)CN1C (3D coordinates assigned)
C[N-]C(=O)[C@H]1CN(c2ccc3cc(C([NH-])=O)n(C(=O)C(=O)[N-]C(C)(C)CO)c3c2)CN1C (nonaromatic ring conformer: 101.01691940193955 kcal/mol)

>  <smiles>  (55) 
CNC(=O)[C@H]1CN(c2ccc3cc(C(N)=O)n(C(=O)C(=O)NC(C)(C)CO)c3c2)CN1C

>  <score_type>  (55) 
oracle

>  <origin>  (55) 
adg

>  <m_score__min__energy>  (55) 
-7.6799999999999997

>  <m_primary>  (55) 
energy

$$$$
55:0
     RDKit          3D

 44 45  0  0  0  0  0  0  0  0999 V2000
  142.0580  154.7490  138.6760 C   0  0  0  0  0  0  0  0  0  0  0  0
  141.5620  155.9090  137.8650 C   0  0  0  0  0  0  0  0  0  0  0  0
  141.5460  157.2110  138.4250 C   0  0  0  0  0  0  0  0  0  0  0  0
  141.1290  158.3130  137.6590 C   0  0  0  0  0  0  0  0  0  0  0  0
  140.7370  158.0830  136.3430 C   0  0  0  0  0  0  0  0  0  0  0  0
  140.3210  158.9670  135.3720 C   0  0  0  0  0  0  0  0  0  0  0  0
  140.0860  158.1890  134.2390 C   0  0  0  0  0  0  0  0  0  0  0  0
  139.5760  158.7340  132.9640 C   0  0  0  0  0  0  0  0  0  0  0  0
  138.3520  158.2660  132.4010 N   0  0  0  0  0  0  0  0  0  0  0  0
  140.2140  159.6470  132.3750 O   0  0  0  0  0  0  0  0  0  0  0  0
  140.3450  156.8780  134.5010 N   0  0  0  0  0  0  0  0  0  0  0  0
  140.3000  155.7720  133.5850 C   0  0  0  0  0  0  0  0  0  0  0  0
  139.2600  155.5700  132.9030 O   0  0  0  0  0  0  0  0  0  0  0  0
  141.4580  154.8810  133.4270 C   0  0  0  0  0  0  0  0  0  0  0  0
  142.6030  155.2860  133.7600 O   0  0  0  0  0  0  0  0  0  0  0  0
  141.2670  153.5660  132.8860 N   0  0  0  0  0  0  0  0  0  0  0  0
  141.9420  152.3120  133.2620 C   0  0  1  0  0  0  0  0  0  0  0  0
  141.6870  152.1110  134.7520 C   0  0  0  0  0  0  0  0  0  0  0  0
  142.0640  152.9830  135.5810 O   0  0  0  0  0  0  0  0  0  0  0  0
  140.9920  151.0040  135.2240 O   0  0  0  0  0  0  0  0  0  0  0  0
  141.3300  151.1100  132.4430 C   0  0  0  0  0  0  0  0  0  0  0  0
  141.7480  149.7190  132.9570 C   0  0  0  0  0  0  0  0  0  0  0  0
  139.7920  151.1770  132.3620 C   0  0  0  0  0  0  0  0  0  0  0  0
  143.4720  152.4910  133.0130 C   0  0  0  0  0  0  0  0  0  0  0  0
  144.1400  152.9240  134.1440 F   0  0  0  0  0  0  0  0  0  0  0  0
  143.6750  153.4300  132.0150 F   0  0  0  0  0  0  0  0  0  0  0  0
  144.0540  151.3020  132.6120 F   0  0  0  0  0  0  0  0  0  0  0  0
  140.7460  156.8290  135.7900 C   0  0  0  0  0  0  0  0  0  0  0  0
  141.1760  155.7170  136.5210 C   0  0  0  0  0  0  0  0  0  0  0  0
  141.9588  154.9810  139.7467 H   0  0  0  0  0  0  0  0  0  0  0  0
  141.4637  153.8545  138.4381 H   0  0  0  0  0  0  0  0  0  0  0  0
  143.1153  154.5607  138.4381 H   0  0  0  0  0  0  0  0  0  0  0  0
  141.8626  157.3601  139.4678 H   0  0  0  0  0  0  0  0  0  0  0  0
  141.1128  159.3265  138.0862 H   0  0  0  0  0  0  0  0  0  0  0  0
  140.1999  160.0559  135.4697 H   0  0  0  0  0  0  0  0  0  0  0  0
  137.9960  157.3080  132.6110 H   0  0  0  0  0  0  0  0  0  0  0  0
  141.7560  151.2329  131.4363 H   0  0  0  0  0  0  0  0  0  0  0  0
  141.7479  149.7193  134.0570 H   0  0  0  0  0  0  0  0  0  0  0  0
  141.0371  148.9638  132.5905 H   0  0  0  0  0  0  0  0  0  0  0  0
  142.7574  149.4808  132.5905 H   0  0  0  0  0  0  0  0  0  0  0  0
  139.3718  151.1953  133.3784 H   0  0  0  0  0  0  0  0  0  0  0  0
  139.4925  152.0890  131.8249 H   0  0  0  0  0  0  0  0  0  0  0  0
  139.4143  150.2945  131.8249 H   0  0  0  0  0  0  0  0  0  0  0  0
  141.2124  154.7187  136.0605 H   0  0  0  0  0  0  0  0  0  0  0  0
  1  2  1  0
  2  3  2  0
  3  4  1  0
  4  5  2  0
  5  6  1  0
  6  7  2  0
  7  8  1  0
  8  9  1  0
  8 10  2  0
  7 11  1  0
 11 12  1  0
 12 13  2  0
 12 14  1  0
 14 15  2  0
 14 16  1  0
 17 16  1  6
 17 18  1  0
 18 19  2  0
 18 20  1  0
 17 21  1  0
 21 22  1  0
 21 23  1  0
 17 24  1  0
 24 25  1  0
 24 26  1  0
 24 27  1  0
 11 28  1  0
 28 29  2  0
 29  2  1  0
 28  5  1  0
  1 30  1  0
  1 31  1  0
  1 32  1  0
  3 33  1  0
  4 34  1  0
  6 35  1  0
  9 36  1  0
 21 37  1  0
 22 38  1  0
 22 39  1  0
 22 40  1  0
 23 41  1  0
 23 42  1  0
 23 43  1  0
 29 44  1  0
M  CHG  3   9  -1  16  -1  20  -1
M  END
>  <UniqueID>  (56) 
56

>  <SMILES>  (56) 
Cc1ccc2cc(C([NH-])=O)n(C(=O)C(=O)[N-][C@@](C(=O)[O-])(C(C)C)C(F)(F)F)c2c1

>  <Energy>  (56) 
85.46847726538006

>  <Genealogy>  (56) 
Cc1ccc2cc(C([NH-])=O)n(C(=O)C(=O)[N-]C(C(=O)[O-])(C(C)C)C(F)(F)F)c2c1 (protonated)
Cc1ccc2cc(C([NH-])=O)n(C(=O)C(=O)[N-][C@@](C(=O)[O-])(C(C)C)C(F)(F)F)c2c1 (chirality)
Cc1ccc2cc(C([NH-])=O)n(C(=O)C(=O)[N-][C@@](C(=O)[O-])(C(C)C)C(F)(F)F)c2c1 (3D coordinates assigned)
Cc1ccc2cc(C([NH-])=O)n(C(=O)C(=O)[N-][C@@](C(=O)[O-])(C(C)C)C(F)(F)F)c2c1 (optimized conformer: 85.46847726538006 kcal/mol)

>  <smiles>  (56) 
Cc1ccc2cc(C(N)=O)n(C(=O)C(=O)NC(C(=O)O)(C(C)C)C(F)(F)F)c2c1

>  <score_type>  (56) 
oracle

>  <origin>  (56) 
adg

>  <m_score__min__energy>  (56) 
-7.6500000000000004

>  <m_primary>  (56) 
energy

$$$$
56:0
     RDKit          3D

 38 40  0  0  0  0  0  0  0  0999 V2000
  141.2150  159.2210  136.8370 N   0  0  0  0  0  0  0  0  0  0  0  0
  141.6470  158.8220  135.8390 C   0  0  0  0  0  0  0  0  0  0  0  0
  142.1970  158.3100  134.5650 C   0  0  0  0  0  0  0  0  0  0  0  0
  143.5470  158.9010  134.1310 C   0  0  0  0  0  0  0  0  0  0  0  0
  143.7450  160.3130  134.1180 C   0  0  0  0  0  0  0  0  0  0  0  0
  144.9660  160.8730  133.7110 C   0  0  0  0  0  0  0  0  0  0  0  0
  145.9840  160.0100  133.3280 C   0  0  0  0  0  0  0  0  0  0  0  0
  147.2510  160.2850  132.8660 C   0  0  0  0  0  0  0  0  0  0  0  0
  147.8320  159.0430  132.6200 C   0  0  0  0  0  0  0  0  0  0  0  0
  149.2320  158.8700  132.1810 C   0  0  0  0  0  0  0  0  0  0  0  0
  149.7380  157.5630  131.9180 N   0  0  0  0  0  0  0  0  0  0  0  0
  149.9790  159.8680  131.9990 O   0  0  0  0  0  0  0  0  0  0  0  0
  146.9580  158.0400  132.9150 N   0  0  0  0  0  0  0  0  0  0  0  0
  147.1450  156.6290  132.7300 C   0  0  0  0  0  0  0  0  0  0  0  0
  146.9820  156.1190  131.5880 O   0  0  0  0  0  0  0  0  0  0  0  0
  147.5190  155.8300  133.8170 O   0  0  0  0  0  0  0  0  0  0  0  0
  147.4620  154.4050  133.8080 C   0  0  0  0  0  0  0  0  0  0  0  0
  148.5510  153.8240  132.9080 C   0  0  0  0  0  0  0  0  0  0  0  0
  149.4930  154.8100  132.5890 O   0  0  0  0  0  0  0  0  0  0  0  0
  145.8310  158.6490  133.3480 C   0  0  0  0  0  0  0  0  0  0  0  0
  144.6200  158.0620  133.7300 C   0  0  0  0  0  0  0  0  0  0  0  0
  142.1050  156.7960  134.4720 C   0  0  0  0  0  0  0  0  0  0  0  0
  141.1400  156.8500  133.4460 O   0  0  0  0  0  0  0  0  0  0  0  0
  141.1430  158.2580  133.4710 C   0  0  0  0  0  0  0  0  0  0  0  0
  142.9255  160.9758  134.4328 H   0  0  0  0  0  0  0  0  0  0  0  0
  145.1121  161.9632  133.6959 H   0  0  0  0  0  0  0  0  0  0  0  0
  147.7078  161.2752  132.7217 H   0  0  0  0  0  0  0  0  0  0  0  0
  149.0920  156.7590  131.7590 H   0  0  0  0  0  0  0  0  0  0  0  0
  147.6043  154.0320  134.8330 H   0  0  0  0  0  0  0  0  0  0  0  0
  146.4809  154.0939  133.4199 H   0  0  0  0  0  0  0  0  0  0  0  0
  149.0534  152.9980  133.4327 H   0  0  0  0  0  0  0  0  0  0  0  0
  148.0900  153.4549  131.9800 H   0  0  0  0  0  0  0  0  0  0  0  0
  148.9770  155.5750  132.2240 H   0  0  0  0  0  0  0  0  0  0  0  0
  144.5010  156.9685  133.7199 H   0  0  0  0  0  0  0  0  0  0  0  0
  143.0464  156.3179  134.1634 H   0  0  0  0  0  0  0  0  0  0  0  0
  141.8824  156.2196  135.3820 H   0  0  0  0  0  0  0  0  0  0  0  0
  141.4713  158.7122  132.5245 H   0  0  0  0  0  0  0  0  0  0  0  0
  140.1919  158.7891  133.6233 H   0  0  0  0  0  0  0  0  0  0  0  0
  1  2  3  0
  2  3  1  0
  3  4  1  0
  4  5  2  0
  5  6  1  0
  6  7  2  0
  7  8  1  0
  8  9  2  0
  9 10  1  0
 10 11  1  0
 10 12  2  0
  9 13  1  0
 13 14  1  0
 14 15  2  0
 14 16  1  0
 16 17  1  0
 17 18  1  0
 18 19  1  0
 13 20  1  0
 20 21  2  0
  3 22  1  0
 22 23  1  0
 23 24  1  0
 24  3  1  0
 21  4  1  0
 20  7  1  0
  5 25  1  0
  6 26  1  0
  8 27  1  0
 11 28  1  0
 17 29  1  0
 17 30  1  0
 18 31  1  0
 18 32  1  0
 19 33  1  0
 21 34  1  0
 22 35  1  0
 22 36  1  0
 24 37  1  0
 24 38  1  0
M  CHG  1  11  -1
M  END
>  <UniqueID>  (57) 
57

>  <SMILES>  (57) 
N#CC1(c2ccc3cc(C([NH-])=O)n(C(=O)OCCO)c3c2)COC1

>  <Energy>  (57) 
144.27986145805698

>  <Genealogy>  (57) 
N#CC1(c2ccc3cc(C([NH-])=O)n(C(=O)OCCO)c3c2)COC1 (protonated)
N#CC1(c2ccc3cc(C([NH-])=O)n(C(=O)OCCO)c3c2)COC1 (3D coordinates assigned)
N#CC1(c2ccc3cc(C([NH-])=O)n(C(=O)OCCO)c3c2)COC1 (nonaromatic ring conformer: 144.27986145805698 kcal/mol)

>  <smiles>  (57) 
N#CC1(c2ccc3cc(C(N)=O)n(C(=O)OCCO)c3c2)COC1

>  <score_type>  (57) 
oracle

>  <origin>  (57) 
adg

>  <m_score__min__energy>  (57) 
-6.1399999999999997

>  <m_primary>  (57) 
energy

$$$$
57:0
     RDKit          3D

 40 41  0  0  0  0  0  0  0  0999 V2000
  141.2110  155.2390  138.0860 C   0  0  0  0  0  0  0  0  0  0  0  0
  141.9100  156.3150  137.2460 C   0  0  2  0  0  0  0  0  0  0  0  0
  141.1110  157.5930  137.1740 C   0  0  0  0  0  0  0  0  0  0  0  0
  139.8870  157.5790  137.4680 O   0  0  0  0  0  0  0  0  0  0  0  0
  141.7180  158.7980  136.8370 O   0  0  0  0  0  0  0  0  0  0  0  0
  142.2200  155.8060  135.8960 N   0  0  0  0  0  0  0  0  0  0  0  0
  143.1380  154.6670  135.7670 C   0  0  0  0  0  0  0  0  0  0  0  0
  141.5430  156.3230  134.7270 C   0  0  0  0  0  0  0  0  0  0  0  0
  140.2900  156.2180  134.6400 O   0  0  0  0  0  0  0  0  0  0  0  0
  142.2690  156.9960  133.6260 C   0  0  0  0  0  0  0  0  0  0  0  0
  142.6580  156.3460  132.6200 O   0  0  0  0  0  0  0  0  0  0  0  0
  142.5580  158.4010  133.7030 N   0  0  0  0  0  0  0  0  0  0  0  0
  141.6680  159.4310  133.6760 C   0  0  0  0  0  0  0  0  0  0  0  0
  140.1940  159.2830  133.6720 C   0  0  0  0  0  0  0  0  0  0  0  0
  139.5220  158.5710  134.7140 N   0  0  0  0  0  0  0  0  0  0  0  0
  139.5130  159.7760  132.7340 O   0  0  0  0  0  0  0  0  0  0  0  0
  142.3420  160.6520  133.7050 C   0  0  0  0  0  0  0  0  0  0  0  0
  143.6810  160.3310  133.7420 C   0  0  0  0  0  0  0  0  0  0  0  0
  144.8010  161.1560  133.7510 C   0  0  0  0  0  0  0  0  0  0  0  0
  146.0680  160.5470  133.7480 C   0  0  0  0  0  0  0  0  0  0  0  0
  146.1940  159.1330  133.7450 C   0  0  0  0  0  0  0  0  0  0  0  0
  147.5570  158.4920  133.6790 C   0  0  0  0  0  0  0  0  0  0  0  0
  147.6280  157.4050  134.5340 F   0  0  0  0  0  0  0  0  0  0  0  0
  147.8280  158.0500  132.3960 F   0  0  0  0  0  0  0  0  0  0  0  0
  148.5140  159.4180  134.0480 F   0  0  0  0  0  0  0  0  0  0  0  0
  145.0300  158.3320  133.7100 C   0  0  0  0  0  0  0  0  0  0  0  0
  143.7840  158.9660  133.7350 C   0  0  0  0  0  0  0  0  0  0  0  0
  141.3533  155.4581  139.1545 H   0  0  0  0  0  0  0  0  0  0  0  0
  140.1360  155.2328  137.8530 H   0  0  0  0  0  0  0  0  0  0  0  0
  141.6423  154.2543  137.8530 H   0  0  0  0  0  0  0  0  0  0  0  0
  142.8558  156.5585  137.7521 H   0  0  0  0  0  0  0  0  0  0  0  0
  143.4244  154.3117  136.7679 H   0  0  0  0  0  0  0  0  0  0  0  0
  142.6393  153.8545  135.2182 H   0  0  0  0  0  0  0  0  0  0  0  0
  144.0379  154.9817  135.2182 H   0  0  0  0  0  0  0  0  0  0  0  0
  140.0350  158.2040  135.5440 H   0  0  0  0  0  0  0  0  0  0  0  0
  138.4860  158.4470  134.6760 H   0  0  0  0  0  0  0  0  0  0  0  0
  141.8980  161.6584  133.6995 H   0  0  0  0  0  0  0  0  0  0  0  0
  144.6984  162.2512  133.7602 H   0  0  0  0  0  0  0  0  0  0  0  0
  146.9722  161.1734  133.7480 H   0  0  0  0  0  0  0  0  0  0  0  0
  145.1026  157.2354  133.6642 H   0  0  0  0  0  0  0  0  0  0  0  0
  1  2  1  0
  2  3  1  0
  3  4  2  0
  3  5  1  0
  2  6  1  0
  6  7  1  0
  6  8  1  0
  8  9  2  0
  8 10  1  0
 10 11  2  0
 10 12  1  0
 12 13  1  0
 13 14  1  0
 14 15  1  0
 14 16  2  0
 13 17  2  0
 17 18  1  0
 18 19  2  0
 19 20  1  0
 20 21  2  0
 21 22  1  0
 22 23  1  0
 22 24  1  0
 22 25  1  0
 21 26  1  0
 26 27  2  0
 27 12  1  0
 27 18  1  0
  1 28  1  0
  1 29  1  0
  1 30  1  0
  2 31  1  1
  7 32  1  0
  7 33  1  0
  7 34  1  0
 15 35  1  0
 15 36  1  0
 17 37  1  0
 19 38  1  0
 20 39  1  0
 26 40  1  0
M  CHG  1   5  -1
M  END
>  <UniqueID>  (58) 
58

>  <SMILES>  (58) 
C[C@H](C(=O)[O-])N(C)C(=O)C(=O)n1c(C(N)=O)cc2ccc(C(F)(F)F)cc21

>  <Energy>  (58) 
80.90050025495844

>  <Genealogy>  (58) 
CC(C(=O)[O-])N(C)C(=O)C(=O)n1c(C(N)=O)cc2ccc(C(F)(F)F)cc21 (protonated)
C[C@H](C(=O)[O-])N(C)C(=O)C(=O)n1c(C(N)=O)cc2ccc(C(F)(F)F)cc21 (chirality)
C[C@H](C(=O)[O-])N(C)C(=O)C(=O)n1c(C(N)=O)cc2ccc(C(F)(F)F)cc21 (3D coordinates assigned)
C[C@H](C(=O)[O-])N(C)C(=O)C(=O)n1c(C(N)=O)cc2ccc(C(F)(F)F)cc21 (optimized conformer: 80.90050025495844 kcal/mol)

>  <smiles>  (58) 
CC(C(=O)O)N(C)C(=O)C(=O)n1c(C(N)=O)cc2ccc(C(F)(F)F)cc21

>  <score_type>  (58) 
oracle

>  <origin>  (58) 
adg

>  <m_score__min__energy>  (58) 
-7.0899999999999999

>  <m_primary>  (58) 
energy

$$$$
58:0
     RDKit          3D

 42 44  0  0  0  0  0  0  0  0999 V2000
  140.7480  159.7280  132.9280 N   0  0  0  0  0  0  0  0  0  0  0  0
  141.6460  160.0760  133.9770 C   0  0  0  0  0  0  0  0  0  0  0  0
  141.1800  160.4780  135.0770 O   0  0  0  0  0  0  0  0  0  0  0  0
  143.1120  159.9790  133.7960 C   0  0  0  0  0  0  0  0  0  0  0  0
  143.9880  161.0450  134.0020 C   0  0  0  0  0  0  0  0  0  0  0  0
  145.2380  160.5560  133.7010 C   0  0  0  0  0  0  0  0  0  0  0  0
  146.4790  161.1840  133.7330 C   0  0  0  0  0  0  0  0  0  0  0  0
  147.6100  160.4270  133.3820 C   0  0  0  0  0  0  0  0  0  0  0  0
  147.4870  159.0570  133.0340 C   0  0  0  0  0  0  0  0  0  0  0  0
  148.7020  158.2650  132.6220 C   0  0  0  0  0  0  0  0  0  0  0  0
  148.7820  157.1210  133.3930 F   0  0  0  0  0  0  0  0  0  0  0  0
  149.8550  159.0100  132.8000 F   0  0  0  0  0  0  0  0  0  0  0  0
  148.6210  157.9050  131.2880 F   0  0  0  0  0  0  0  0  0  0  0  0
  146.2040  158.4620  132.9920 C   0  0  0  0  0  0  0  0  0  0  0  0
  145.0960  159.2450  133.3310 C   0  0  0  0  0  0  0  0  0  0  0  0
  143.7990  158.8790  133.3780 N   0  0  0  0  0  0  0  0  0  0  0  0
  143.2700  157.5890  133.0380 C   0  0  0  0  0  0  0  0  0  0  0  0
  142.4470  157.4810  132.0900 O   0  0  0  0  0  0  0  0  0  0  0  0
  143.7210  156.3670  133.7810 C   0  0  0  0  0  0  0  0  0  0  0  0
  142.5770  155.7970  134.5690 C   0  0  0  0  0  0  0  0  0  0  0  0
  142.5010  154.5460  134.7080 O   0  0  0  0  0  0  0  0  0  0  0  0
  141.5390  156.6360  135.1060 N   0  0  0  0  0  0  0  0  0  0  0  0
  140.2500  156.8600  134.4710 C   0  0  0  0  0  0  0  0  0  0  0  0
  139.5370  157.8860  135.3420 C   0  0  0  0  0  0  0  0  0  0  0  0
  140.2770  157.8770  136.6820 C   0  0  2  0  0  0  0  0  0  0  0  0
  140.3650  159.1670  137.2260 O   0  0  0  0  0  0  0  0  0  0  0  0
  141.6650  157.3250  136.3780 C   0  0  0  0  0  0  0  0  0  0  0  0
  141.0780  159.2040  132.0870 H   0  0  0  0  0  0  0  0  0  0  0  0
  143.7330  162.0619  134.3349 H   0  0  0  0  0  0  0  0  0  0  0  0
  146.5722  162.2407  134.0241 H   0  0  0  0  0  0  0  0  0  0  0  0
  148.6021  160.9022  133.3770 H   0  0  0  0  0  0  0  0  0  0  0  0
  146.0810  157.4087  132.6997 H   0  0  0  0  0  0  0  0  0  0  0  0
  144.0797  155.6150  133.0627 H   0  0  0  0  0  0  0  0  0  0  0  0
  144.5340  156.6411  134.4694 H   0  0  0  0  0  0  0  0  0  0  0  0
  140.3868  157.2504  133.4517 H   0  0  0  0  0  0  0  0  0  0  0  0
  139.6719  155.9282  134.3837 H   0  0  0  0  0  0  0  0  0  0  0  0
  139.5900  158.8834  134.8812 H   0  0  0  0  0  0  0  0  0  0  0  0
  138.4711  157.6437  135.4650 H   0  0  0  0  0  0  0  0  0  0  0  0
  139.7459  157.2662  137.4269 H   0  0  0  0  0  0  0  0  0  0  0  0
  139.8490  159.7630  136.6210 H   0  0  0  0  0  0  0  0  0  0  0  0
  142.3958  158.1436  136.3010 H   0  0  0  0  0  0  0  0  0  0  0  0
  142.0195  156.6523  137.1729 H   0  0  0  0  0  0  0  0  0  0  0  0
  1  2  1  0
  2  3  2  0
  2  4  1  0
  4  5  2  0
  5  6  1  0
  6  7  2  0
  7  8  1  0
  8  9  2  0
  9 10  1  0
 10 11  1  0
 10 12  1  0
 10 13  1  0
  9 14  1  0
 14 15  2  0
 15 16  1  0
 16 17  1  0
 17 18  2  0
 17 19  1  0
 19 20  1  0
 20 21  2  0
 20 22  1  0
 22 23  1  0
 23 24  1  0
 24 25  1  0
 25 26  1  0
 25 27  1  0
 16  4  1  0
 27 22  1  0
 15  6  1  0
  1 28  1  0
  5 29  1  0
  7 30  1  0
  8 31  1  0
 14 32  1  0
 19 33  1  0
 19 34  1  0
 23 35  1  0
 23 36  1  0
 24 37  1  0
 24 38  1  0
 25 39  1  1
 26 40  1  0
 27 41  1  0
 27 42  1  0
M  CHG  1   1  -1
M  END
>  <UniqueID>  (59) 
59

>  <SMILES>  (59) 
[NH-]C(=O)c1cc2ccc(C(F)(F)F)cc2n1C(=O)CC(=O)N1CC[C@H](O)C1

>  <Energy>  (59) 
80.19430546696789

>  <Genealogy>  (59) 
[NH-]C(=O)c1cc2ccc(C(F)(F)F)cc2n1C(=O)CC(=O)N1CCC(O)C1 (protonated)
[NH-]C(=O)c1cc2ccc(C(F)(F)F)cc2n1C(=O)CC(=O)N1CC[C@H](O)C1 (chirality)
[NH-]C(=O)c1cc2ccc(C(F)(F)F)cc2n1C(=O)CC(=O)N1CC[C@H](O)C1 (3D coordinates assigned)
[NH-]C(=O)c1cc2ccc(C(F)(F)F)cc2n1C(=O)CC(=O)N1CC[C@H](O)C1 (nonaromatic ring conformer: 80.19430546696789 kcal/mol)

>  <smiles>  (59) 
NC(=O)c1cc2ccc(C(F)(F)F)cc2n1C(=O)CC(=O)N1CCC(O)C1

>  <score_type>  (59) 
oracle

>  <origin>  (59) 
adg

>  <m_score__min__energy>  (59) 
-7.1900000000000004

>  <m_primary>  (59) 
energy

$$$$
59:0
     RDKit          3D

 37 38  0  0  0  0  0  0  0  0999 V2000
  148.1890  154.9880  132.5600 C   0  0  0  0  0  0  0  0  0  0  0  0
  147.1990  155.0820  133.6490 N   0  0  2  0  0  0  0  0  0  0  0  0
  147.0990  153.8280  134.4310 C   0  0  0  0  0  0  0  0  0  0  0  0
  147.4110  154.0070  135.8940 C   0  0  0  0  0  0  0  0  0  0  0  0
  147.1270  153.0980  136.7180 O   0  0  0  0  0  0  0  0  0  0  0  0
  148.0000  155.1820  136.3440 O   0  0  0  0  0  0  0  0  0  0  0  0
  145.9010  155.5040  133.1560 C   0  0  0  0  0  0  0  0  0  0  0  0
  145.5450  155.2240  131.9760 O   0  0  0  0  0  0  0  0  0  0  0  0
  144.9450  156.2010  134.0410 C   0  0  0  0  0  0  0  0  0  0  0  0
  144.2950  155.5510  134.9030 O   0  0  0  0  0  0  0  0  0  0  0  0
  144.7390  157.6180  133.9230 N   0  0  0  0  0  0  0  0  0  0  0  0
  145.6810  158.5780  133.7030 C   0  0  0  0  0  0  0  0  0  0  0  0
  147.1410  158.3560  133.6410 C   0  0  0  0  0  0  0  0  0  0  0  0
  147.7610  157.4580  134.5590 N   0  0  0  0  0  0  0  0  0  0  0  0
  147.8460  158.9380  132.7760 O   0  0  0  0  0  0  0  0  0  0  0  0
  145.0790  159.8290  133.5830 C   0  0  0  0  0  0  0  0  0  0  0  0
  143.7290  159.6020  133.7340 C   0  0  0  0  0  0  0  0  0  0  0  0
  142.6600  160.4910  133.6920 C   0  0  0  0  0  0  0  0  0  0  0  0
  141.3640  159.9700  133.8530 C   0  0  0  0  0  0  0  0  0  0  0  0
  141.1560  158.5780  134.0290 C   0  0  0  0  0  0  0  0  0  0  0  0
  139.7540  158.0560  134.2240 C   0  0  0  0  0  0  0  0  0  0  0  0
  138.8950  158.7350  133.3810 F   0  0  0  0  0  0  0  0  0  0  0  0
  139.3280  158.2270  135.5300 F   0  0  0  0  0  0  0  0  0  0  0  0
  139.7090  156.7070  133.9240 F   0  0  0  0  0  0  0  0  0  0  0  0
  142.2720  157.7090  134.0770 C   0  0  0  0  0  0  0  0  0  0  0  0
  143.5510  158.2590  133.9350 C   0  0  0  0  0  0  0  0  0  0  0  0
  149.1975  154.8923  132.9886 H   0  0  0  0  0  0  0  0  0  0  0  0
  147.9690  154.1067  131.9396 H   0  0  0  0  0  0  0  0  0  0  0  0
  148.1388  155.8950  131.9396 H   0  0  0  0  0  0  0  0  0  0  0  0
  147.5570  155.8220  134.2980 H   0  0  0  0  0  0  0  0  0  0  0  0
  146.0737  153.4404  134.3383 H   0  0  0  0  0  0  0  0  0  0  0  0
  147.8462  153.1313  134.0232 H   0  0  0  0  0  0  0  0  0  0  0  0
  147.1940  156.7750  135.1090 H   0  0  0  0  0  0  0  0  0  0  0  0
  145.5767  160.7937  133.4053 H   0  0  0  0  0  0  0  0  0  0  0  0
  142.8234  161.5678  133.5377 H   0  0  0  0  0  0  0  0  0  0  0  0
  140.5001  160.6508  133.8423 H   0  0  0  0  0  0  0  0  0  0  0  0
  142.1373  156.6270  134.2224 H   0  0  0  0  0  0  0  0  0  0  0  0
  1  2  1  0
  2  3  1  0
  3  4  1  0
  4  5  2  0
  4  6  1  0
  2  7  1  0
  7  8  2  0
  7  9  1  0
  9 10  2  0
  9 11  1  0
 11 12  1  0
 12 13  1  0
 13 14  1  0
 13 15  2  0
 12 16  2  0
 16 17  1  0
 17 18  2  0
 18 19  1  0
 19 20  2  0
 20 21  1  0
 21 22  1  0
 21 23  1  0
 21 24  1  0
 20 25  1  0
 25 26  2  0
 26 11  1  0
 26 17  1  0
  1 27  1  0
  1 28  1  0
  1 29  1  0
  2 30  1  1
  3 31  1  0
  3 32  1  0
 14 33  1  0
 16 34  1  0
 18 35  1  0
 19 36  1  0
 25 37  1  0
M  CHG  3   2   1   6  -1  14  -1
M  END
>  <UniqueID>  (60) 
60

>  <SMILES>  (60) 
C[N@H+](CC(=O)[O-])C(=O)C(=O)n1c(C([NH-])=O)cc2ccc(C(F)(F)F)cc21

>  <Energy>  (60) 
80.68236107953213

>  <Genealogy>  (60) 
C[NH+](CC(=O)[O-])C(=O)C(=O)n1c(C([NH-])=O)cc2ccc(C(F)(F)F)cc21 (protonated)
C[N@H+](CC(=O)[O-])C(=O)C(=O)n1c(C([NH-])=O)cc2ccc(C(F)(F)F)cc21 (chirality)
C[N@H+](CC(=O)[O-])C(=O)C(=O)n1c(C([NH-])=O)cc2ccc(C(F)(F)F)cc21 (3D coordinates assigned)
C[N@H+](CC(=O)[O-])C(=O)C(=O)n1c(C([NH-])=O)cc2ccc(C(F)(F)F)cc21 (optimized conformer: 80.68236107953213 kcal/mol)

>  <smiles>  (60) 
CN(CC(=O)O)C(=O)C(=O)n1c(C(N)=O)cc2ccc(C(F)(F)F)cc21

>  <score_type>  (60) 
oracle

>  <origin>  (60) 
adg

>  <m_score__min__energy>  (60) 
-4.8700000000000001

>  <m_primary>  (60) 
energy

$$$$
60:0
     RDKit          3D

 42 43  0  0  0  0  0  0  0  0999 V2000
  145.6320  158.3800  133.2960 C   0  0  0  0  0  0  0  0  0  0  0  0
  144.1630  158.4600  133.2440 N   0  0  0  0  0  0  0  0  0  0  0  0
  143.7310  159.7880  133.7150 C   0  0  0  0  0  0  0  0  0  0  0  0
  143.5640  157.3830  134.0630 C   0  0  0  0  0  0  0  0  0  0  0  0
  143.3760  156.1120  133.2340 C   0  0  0  0  0  0  0  0  0  0  0  0
  142.3750  155.2610  133.8670 N   0  0  0  0  0  0  0  0  0  0  0  0
  141.0540  155.0010  133.3710 C   0  0  0  0  0  0  0  0  0  0  0  0
  140.8020  153.8530  132.9210 O   0  0  0  0  0  0  0  0  0  0  0  0
  139.9780  156.0190  133.3710 C   0  0  0  0  0  0  0  0  0  0  0  0
  138.8300  155.7370  132.9370 O   0  0  0  0  0  0  0  0  0  0  0  0
  140.2480  157.3580  133.8200 N   0  0  0  0  0  0  0  0  0  0  0  0
  140.0390  158.5150  133.1330 C   0  0  0  0  0  0  0  0  0  0  0  0
  139.6300  158.6170  131.7170 C   0  0  0  0  0  0  0  0  0  0  0  0
  138.4850  157.9220  131.2210 N   0  0  0  0  0  0  0  0  0  0  0  0
  140.3290  159.2980  130.9190 O   0  0  0  0  0  0  0  0  0  0  0  0
  140.2680  159.6180  133.9510 C   0  0  0  0  0  0  0  0  0  0  0  0
  140.6320  159.0970  135.1720 C   0  0  0  0  0  0  0  0  0  0  0  0
  140.9320  159.7410  136.3680 C   0  0  0  0  0  0  0  0  0  0  0  0
  141.2100  158.9480  137.4930 C   0  0  0  0  0  0  0  0  0  0  0  0
  141.1880  157.5320  137.4060 C   0  0  0  0  0  0  0  0  0  0  0  0
  141.4220  156.6920  138.6360 C   0  0  0  0  0  0  0  0  0  0  0  0
  142.4650  155.8050  138.4300 F   0  0  0  0  0  0  0  0  0  0  0  0
  140.2890  155.9620  138.9500 F   0  0  0  0  0  0  0  0  0  0  0  0
  141.7360  157.5180  139.6980 F   0  0  0  0  0  0  0  0  0  0  0  0
  140.8500  156.9150  136.1790 C   0  0  0  0  0  0  0  0  0  0  0  0
  140.6040  157.7300  135.0690 C   0  0  0  0  0  0  0  0  0  0  0  0
  145.9613  158.3621  134.3454 H   0  0  0  0  0  0  0  0  0  0  0  0
  145.9674  157.4623  132.7907 H   0  0  0  0  0  0  0  0  0  0  0  0
  146.0650  159.2559  132.7907 H   0  0  0  0  0  0  0  0  0  0  0  0
  143.7261  159.8032  134.8149 H   0  0  0  0  0  0  0  0  0  0  0  0
  144.4264  160.5538  133.3408 H   0  0  0  0  0  0  0  0  0  0  0  0
  142.7182  159.9981  133.3408 H   0  0  0  0  0  0  0  0  0  0  0  0
  144.2274  157.1646  134.9128 H   0  0  0  0  0  0  0  0  0  0  0  0
  142.5800  157.7187  134.4223 H   0  0  0  0  0  0  0  0  0  0  0  0
  143.0408  156.3811  132.2215 H   0  0  0  0  0  0  0  0  0  0  0  0
  144.3313  155.5702  133.1727 H   0  0  0  0  0  0  0  0  0  0  0  0
  137.9980  157.2010  131.7960 H   0  0  0  0  0  0  0  0  0  0  0  0
  138.1830  158.0530  130.2300 H   0  0  0  0  0  0  0  0  0  0  0  0
  140.1773  160.6801  133.6794 H   0  0  0  0  0  0  0  0  0  0  0  0
  140.9509  160.8391  136.4306 H   0  0  0  0  0  0  0  0  0  0  0  0
  141.4476  159.4301  138.4527 H   0  0  0  0  0  0  0  0  0  0  0  0
  140.7822  155.8200  136.0994 H   0  0  0  0  0  0  0  0  0  0  0  0
  1  2  1  0
  2  3  1  0
  2  4  1  0
  4  5  1  0
  5  6  1  0
  6  7  1  0
  7  8  2  0
  7  9  1  0
  9 10  2  0
  9 11  1  0
 11 12  1  0
 12 13  1  0
 13 14  1  0
 13 15  2  0
 12 16  2  0
 16 17  1  0
 17 18  2  0
 18 19  1  0
 19 20  2  0
 20 21  1  0
 21 22  1  0
 21 23  1  0
 21 24  1  0
 20 25  1  0
 25 26  2  0
 26 11  1  0
 26 17  1  0
  1 27  1  0
  1 28  1  0
  1 29  1  0
  3 30  1  0
  3 31  1  0
  3 32  1  0
  4 33  1  0
  4 34  1  0
  5 35  1  0
  5 36  1  0
 14 37  1  0
 14 38  1  0
 16 39  1  0
 18 40  1  0
 19 41  1  0
 25 42  1  0
M  CHG  1   6  -1
M  END
>  <UniqueID>  (61) 
61

>  <SMILES>  (61) 
CN(C)CC[N-]C(=O)C(=O)n1c(C(N)=O)cc2ccc(C(F)(F)F)cc21

>  <Energy>  (61) 
81.29227825866427

>  <Genealogy>  (61) 
CN(C)CC[N-]C(=O)C(=O)n1c(C(N)=O)cc2ccc(C(F)(F)F)cc21 (protonated)
CN(C)CC[N-]C(=O)C(=O)n1c(C(N)=O)cc2ccc(C(F)(F)F)cc21 (3D coordinates assigned)
CN(C)CC[N-]C(=O)C(=O)n1c(C(N)=O)cc2ccc(C(F)(F)F)cc21 (optimized conformer: 81.29227825866427 kcal/mol)

>  <smiles>  (61) 
CN(C)CCNC(=O)C(=O)n1c(C(N)=O)cc2ccc(C(F)(F)F)cc21

>  <score_type>  (61) 
oracle

>  <origin>  (61) 
adg

>  <m_score__min__energy>  (61) 
-6.7199999999999998

>  <m_primary>  (61) 
energy

$$$$
62:0
     RDKit          3D

 46 47  0  0  0  0  0  0  0  0999 V2000
  139.3610  158.2170  135.4150 C   0  0  0  0  0  0  0  0  0  0  0  0
  140.1980  157.8880  134.1590 C   0  0  0  0  0  0  0  0  0  0  0  0
  139.6810  158.6660  132.9220 C   0  0  0  0  0  0  0  0  0  0  0  0
  140.6320  158.7130  131.8930 O   0  0  0  0  0  0  0  0  0  0  0  0
  140.0740  156.3770  133.8600 C   0  0  0  0  0  0  0  0  0  0  0  0
  140.6470  156.0720  132.6170 O   0  0  0  0  0  0  0  0  0  0  0  0
  141.6210  158.1740  134.3850 N   0  0  0  0  0  0  0  0  0  0  0  0
  142.7420  157.3000  134.1930 C   0  0  0  0  0  0  0  0  0  0  0  0
  142.9890  156.3730  135.0090 O   0  0  0  0  0  0  0  0  0  0  0  0
  143.6150  157.4910  133.0250 C   0  0  0  0  0  0  0  0  0  0  0  0
  143.2470  157.0630  131.8980 O   0  0  0  0  0  0  0  0  0  0  0  0
  144.8760  158.1670  133.1500 N   0  0  0  0  0  0  0  0  0  0  0  0
  145.0830  159.5020  133.3310 C   0  0  0  0  0  0  0  0  0  0  0  0
  144.0190  160.5090  133.5510 C   0  0  0  0  0  0  0  0  0  0  0  0
  142.6800  160.2720  133.1120 N   0  0  0  0  0  0  0  0  0  0  0  0
  144.2920  161.6000  134.1180 O   0  0  0  0  0  0  0  0  0  0  0  0
  146.4500  159.7820  133.3410 C   0  0  0  0  0  0  0  0  0  0  0  0
  147.0730  158.5690  133.1500 C   0  0  0  0  0  0  0  0  0  0  0  0
  148.4260  158.2610  133.0570 C   0  0  0  0  0  0  0  0  0  0  0  0
  148.7840  156.9220  132.8240 C   0  0  0  0  0  0  0  0  0  0  0  0
  147.7880  155.9170  132.6820 C   0  0  0  0  0  0  0  0  0  0  0  0
  148.1290  154.5390  132.4320 N   0  0  0  0  0  0  0  0  0  0  0  0
  148.4780  153.5700  133.4700 C   0  0  0  0  0  0  0  0  0  0  0  0
  149.2620  152.4360  132.8900 C   0  0  0  0  0  0  0  0  0  0  0  0
  149.7560  151.5570  133.6440 O   0  0  0  0  0  0  0  0  0  0  0  0
  149.4310  152.3360  131.5150 O   0  0  0  0  0  0  0  0  0  0  0  0
  146.4250  156.2760  132.7800 C   0  0  0  0  0  0  0  0  0  0  0  0
  146.1010  157.6120  133.0340 C   0  0  0  0  0  0  0  0  0  0  0  0
  139.9471  157.9866  136.3169 H   0  0  0  0  0  0  0  0  0  0  0  0
  139.0985  159.2852  135.4112 H   0  0  0  0  0  0  0  0  0  0  0  0
  138.4414  157.6134  135.4112 H   0  0  0  0  0  0  0  0  0  0  0  0
  138.7744  158.1703  132.5447 H   0  0  0  0  0  0  0  0  0  0  0  0
  139.4700  159.6990  133.2356 H   0  0  0  0  0  0  0  0  0  0  0  0
  141.3920  158.1380  132.1720 H   0  0  0  0  0  0  0  0  0  0  0  0
  140.5925  155.8090  134.6464 H   0  0  0  0  0  0  0  0  0  0  0  0
  139.0081  156.1062  133.8356 H   0  0  0  0  0  0  0  0  0  0  0  0
  141.3530  156.7520  132.4640 H   0  0  0  0  0  0  0  0  0  0  0  0
  141.9500  161.0070  133.2430 H   0  0  0  0  0  0  0  0  0  0  0  0
  142.3940  159.3590  132.6980 H   0  0  0  0  0  0  0  0  0  0  0  0
  146.9284  160.7636  133.4734 H   0  0  0  0  0  0  0  0  0  0  0  0
  149.1932  159.0422  133.1627 H   0  0  0  0  0  0  0  0  0  0  0  0
  149.8469  156.6483  132.7506 H   0  0  0  0  0  0  0  0  0  0  0  0
  148.1200  154.1960  131.4440 H   0  0  0  0  0  0  0  0  0  0  0  0
  149.0818  154.0692  134.2422 H   0  0  0  0  0  0  0  0  0  0  0  0
  147.5514  153.1721  133.9094 H   0  0  0  0  0  0  0  0  0  0  0  0
  145.6352  155.5200  132.6590 H   0  0  0  0  0  0  0  0  0  0  0  0
  1  2  1  0
  2  3  1  0
  3  4  1  0
  2  5  1  0
  5  6  1  0
  2  7  1  0
  7  8  1  0
  8  9  2  0
  8 10  1  0
 10 11  2  0
 10 12  1  0
 12 13  1  0
 13 14  1  0
 14 15  1  0
 14 16  2  0
 13 17  2  0
 17 18  1  0
 18 19  2  0
 19 20  1  0
 20 21  2  0
 21 22  1  0
 22 23  1  0
 23 24  1  0
 24 25  2  0
 24 26  1  0
 21 27  1  0
 27 28  2  0
 28 12  1  0
 28 18  1  0
  1 29  1  0
  1 30  1  0
  1 31  1  0
  3 32  1  0
  3 33  1  0
  4 34  1  0
  5 35  1  0
  5 36  1  0
  6 37  1  0
 15 38  1  0
 15 39  1  0
 17 40  1  0
 19 41  1  0
 20 42  1  0
 22 43  1  0
 23 44  1  0
 23 45  1  0
 27 46  1  0
M  CHG  2   7  -1  26  -1
M  END
>  <UniqueID>  (62) 
62

>  <SMILES>  (62) 
CC(CO)(CO)[N-]C(=O)C(=O)n1c(C(N)=O)cc2ccc(NCC(=O)[O-])cc21

>  <Energy>  (62) 
81.50865014461775

>  <Genealogy>  (62) 
CC(CO)(CO)[N-]C(=O)C(=O)n1c(C(N)=O)cc2ccc(NCC(=O)[O-])cc21 (protonated)
CC(CO)(CO)[N-]C(=O)C(=O)n1c(C(N)=O)cc2ccc(NCC(=O)[O-])cc21 (3D coordinates assigned)
CC(CO)(CO)[N-]C(=O)C(=O)n1c(C(N)=O)cc2ccc(NCC(=O)[O-])cc21 (optimized conformer: 81.50865014461775 kcal/mol)

>  <smiles>  (62) 
CC(CO)(CO)NC(=O)C(=O)n1c(C(N)=O)cc2ccc(NCC(=O)O)cc21

>  <score_type>  (62) 
oracle

>  <origin>  (62) 
adg

>  <m_score__min__energy>  (62) 
-6.4000000000000004

>  <m_primary>  (62) 
energy

$$$$
63:0
     RDKit          3D

 41 44  0  0  0  0  0  0  0  0999 V2000
  140.6080  150.5010  136.4680 N   0  0  0  0  0  0  0  0  0  0  0  0
  140.8250  151.0860  137.4420 C   0  0  0  0  0  0  0  0  0  0  0  0
  141.1000  151.8300  138.6790 C   0  0  0  0  0  0  0  0  0  0  0  0
  141.0510  153.3320  138.6400 C   0  0  0  0  0  0  0  0  0  0  0  0
  140.7660  154.0650  139.8200 C   0  0  0  0  0  0  0  0  0  0  0  0
  140.7460  155.4710  139.8010 C   0  0  0  0  0  0  0  0  0  0  0  0
  141.0300  156.1110  138.5990 C   0  0  0  0  0  0  0  0  0  0  0  0
  141.0770  157.4540  138.2940 C   0  0  0  0  0  0  0  0  0  0  0  0
  141.4170  157.5150  136.9430 C   0  0  0  0  0  0  0  0  0  0  0  0
  141.6410  158.7780  136.2080 C   0  0  0  0  0  0  0  0  0  0  0  0
  140.6220  159.7710  136.1260 N   0  0  0  0  0  0  0  0  0  0  0  0
  142.7390  158.9710  135.6210 O   0  0  0  0  0  0  0  0  0  0  0  0
  141.5650  156.2590  136.4340 N   0  0  0  0  0  0  0  0  0  0  0  0
  141.8640  155.8770  135.0850 C   0  0  0  0  0  0  0  0  0  0  0  0
  143.0310  155.5020  134.7980 O   0  0  0  0  0  0  0  0  0  0  0  0
  140.8080  155.9120  134.0480 C   0  0  0  0  0  0  0  0  0  0  0  0
  140.2400  154.8350  133.7230 O   0  0  0  0  0  0  0  0  0  0  0  0
  140.3870  157.1700  133.3900 C   0  0  0  0  0  0  0  0  0  0  0  0
  141.3160  158.1840  133.0910 C   0  0  0  0  0  0  0  0  0  0  0  0
  140.9000  159.3580  132.4540 C   0  0  0  0  0  0  0  0  0  0  0  0
  139.5600  159.5270  132.1000 C   0  0  0  0  0  0  0  0  0  0  0  0
  138.6320  158.5180  132.3760 C   0  0  0  0  0  0  0  0  0  0  0  0
  137.3320  158.6800  132.0260 F   0  0  0  0  0  0  0  0  0  0  0  0
  139.0430  157.3420  133.0120 C   0  0  0  0  0  0  0  0  0  0  0  0
  141.3320  155.4140  137.4580 C   0  0  0  0  0  0  0  0  0  0  0  0
  141.3530  154.0170  137.4420 C   0  0  0  0  0  0  0  0  0  0  0  0
  142.1210  151.2000  139.6160 C   0  0  0  0  0  0  0  0  0  0  0  0
  140.6400  151.1610  139.9680 C   0  0  0  0  0  0  0  0  0  0  0  0
  140.5588  153.5293  140.7581 H   0  0  0  0  0  0  0  0  0  0  0  0
  140.5129  156.0470  140.7087 H   0  0  0  0  0  0  0  0  0  0  0  0
  140.8867  158.2987  138.9724 H   0  0  0  0  0  0  0  0  0  0  0  0
  139.7890  159.7380  136.7540 H   0  0  0  0  0  0  0  0  0  0  0  0
  142.3746  158.0528  133.3596 H   0  0  0  0  0  0  0  0  0  0  0  0
  141.6303  160.1499  132.2315 H   0  0  0  0  0  0  0  0  0  0  0  0
  139.2344  160.4534  131.6042 H   0  0  0  0  0  0  0  0  0  0  0  0
  138.3110  156.5471  133.2177 H   0  0  0  0  0  0  0  0  0  0  0  0
  141.5979  153.4659  136.5221 H   0  0  0  0  0  0  0  0  0  0  0  0
  142.6408  150.2763  139.3219 H   0  0  0  0  0  0  0  0  0  0  0  0
  143.0318  151.5513  140.1230 H   0  0  0  0  0  0  0  0  0  0  0  0
  140.0899  150.2093  139.9279 H   0  0  0  0  0  0  0  0  0  0  0  0
  140.0377  151.4724  140.8342 H   0  0  0  0  0  0  0  0  0  0  0  0
  1  2  3  0
  2  3  1  0
  3  4  1  0
  4  5  2  0
  5  6  1  0
  6  7  2  0
  7  8  1  0
  8  9  2  0
  9 10  1  0
 10 11  1  0
 10 12  2  0
  9 13  1  0
 13 14  1  0
 14 15  2  0
 14 16  1  0
 16 17  2  0
 16 18  1  0
 18 19  2  0
 19 20  1  0
 20 21  2  0
 21 22  1  0
 22 23  1  0
 22 24  2  0
 13 25  1  0
 25 26  2  0
  3 27  1  0
 27 28  1  0
 28  3  1  0
 26  4  1  0
 25  7  1  0
 24 18  1  0
  5 29  1  0
  6 30  1  0
  8 31  1  0
 11 32  1  0
 19 33  1  0
 20 34  1  0
 21 35  1  0
 24 36  1  0
 26 37  1  0
 27 38  1  0
 27 39  1  0
 28 40  1  0
 28 41  1  0
M  CHG  1  11  -1
M  END
>  <UniqueID>  (63) 
63

>  <SMILES>  (63) 
N#CC1(c2ccc3cc(C([NH-])=O)n(C(=O)C(=O)c4cccc(F)c4)c3c2)CC1

>  <Energy>  (63) 
354.77264603937516

>  <Genealogy>  (63) 
N#CC1(c2ccc3cc(C([NH-])=O)n(C(=O)C(=O)c4cccc(F)c4)c3c2)CC1 (protonated)
N#CC1(c2ccc3cc(C([NH-])=O)n(C(=O)C(=O)c4cccc(F)c4)c3c2)CC1 (3D coordinates assigned)
N#CC1(c2ccc3cc(C([NH-])=O)n(C(=O)C(=O)c4cccc(F)c4)c3c2)CC1 (nonaromatic ring conformer: 354.77264603937516 kcal/mol)

>  <smiles>  (63) 
N#CC1(c2ccc3cc(C(N)=O)n(C(=O)C(=O)c4cccc(F)c4)c3c2)CC1

>  <score_type>  (63) 
oracle

>  <origin>  (63) 
adg

>  <m_score__min__energy>  (63) 
-8.8100000000000005

>  <m_primary>  (63) 
energy

$$$$
64:0
     RDKit          3D

 53 55  0  0  0  0  0  0  0  0999 V2000
  138.9060  161.2350  130.3120 C   0  0  0  0  0  0  0  0  0  0  0  0
  138.3490  159.9930  130.8570 N   0  0  0  0  0  0  0  0  0  0  0  0
  136.9080  159.7330  130.7680 C   0  0  0  0  0  0  0  0  0  0  0  0
  139.2340  159.0540  131.5080 C   0  0  0  0  0  0  0  0  0  0  0  0
  140.4480  159.3630  131.6770 O   0  0  0  0  0  0  0  0  0  0  0  0
  138.7270  157.7410  132.0520 C   0  0  0  0  0  0  0  0  0  0  0  0
  139.2920  157.4380  133.4160 C   0  0  0  0  0  0  0  0  0  0  0  0
  138.8960  158.2070  134.5400 C   0  0  0  0  0  0  0  0  0  0  0  0
  139.4620  157.9700  135.8040 C   0  0  0  0  0  0  0  0  0  0  0  0
  140.4150  156.9610  135.9130 C   0  0  0  0  0  0  0  0  0  0  0  0
  141.1460  156.5480  137.0030 C   0  0  0  0  0  0  0  0  0  0  0  0
  141.9730  155.5260  136.5320 C   0  0  0  0  0  0  0  0  0  0  0  0
  142.9220  154.7530  137.3750 C   0  0  0  0  0  0  0  0  0  0  0  0
  143.9910  154.0040  136.7910 N   0  0  0  0  0  0  0  0  0  0  0  0
  142.8010  154.7530  138.6280 O   0  0  0  0  0  0  0  0  0  0  0  0
  141.7480  155.3150  135.2030 N   0  0  0  0  0  0  0  0  0  0  0  0
  142.3730  154.3440  134.3480 C   0  0  0  0  0  0  0  0  0  0  0  0
  142.3410  153.1240  134.6600 O   0  0  0  0  0  0  0  0  0  0  0  0
  143.0030  154.7620  133.0540 C   0  0  0  0  0  0  0  0  0  0  0  0
  144.3900  155.8380  133.3620 S   0  0  0  0  0  0  0  0  0  0  0  0
  144.0440  157.2180  132.8770 O   0  0  0  0  0  0  0  0  0  0  0  0
  144.6510  155.8800  134.8430 O   0  0  0  0  0  0  0  0  0  0  0  0
  145.8030  155.2090  132.5310 N   0  0  0  0  0  0  0  0  0  0  0  0
  146.9880  156.0290  132.8260 C   0  0  0  0  0  0  0  0  0  0  0  0
  147.7150  154.8850  133.5220 C   0  0  2  0  0  0  0  0  0  0  0  0
  148.9330  154.4580  132.8110 C   0  0  0  0  0  0  0  0  0  0  0  0
  149.8890  154.1210  132.2530 N   0  0  0  0  0  0  0  0  0  0  0  0
  146.4810  154.0550  133.1600 C   0  0  1  0  0  0  0  0  0  0  0  0
  145.7740  153.3880  134.3200 C   0  0  0  0  0  0  0  0  0  0  0  0
  144.7670  152.6530  134.1410 O   0  0  0  0  0  0  0  0  0  0  0  0
  146.2410  153.5990  135.6110 O   0  0  0  0  0  0  0  0  0  0  0  0
  140.8000  156.2040  134.8390 C   0  0  0  0  0  0  0  0  0  0  0  0
  140.2720  156.4330  133.5630 C   0  0  0  0  0  0  0  0  0  0  0  0
  139.2030  161.8973  131.1385 H   0  0  0  0  0  0  0  0  0  0  0  0
  139.7859  161.0022  129.6943 H   0  0  0  0  0  0  0  0  0  0  0  0
  138.1469  161.7373  129.6943 H   0  0  0  0  0  0  0  0  0  0  0  0
  136.4859  159.6568  131.7809 H   0  0  0  0  0  0  0  0  0  0  0  0
  136.4193  160.5575  130.2282 H   0  0  0  0  0  0  0  0  0  0  0  0
  136.7383  158.7897  130.2282 H   0  0  0  0  0  0  0  0  0  0  0  0
  137.6303  157.7864  132.1242 H   0  0  0  0  0  0  0  0  0  0  0  0
  139.0484  156.9429  131.3666 H   0  0  0  0  0  0  0  0  0  0  0  0
  138.1389  158.9961  134.4211 H   0  0  0  0  0  0  0  0  0  0  0  0
  139.1615  158.5633  136.6802 H   0  0  0  0  0  0  0  0  0  0  0  0
  141.0907  156.9402  138.0292 H   0  0  0  0  0  0  0  0  0  0  0  0
  144.1480  153.9690  135.7630 H   0  0  0  0  0  0  0  0  0  0  0  0
  144.6500  153.4760  137.4060 H   0  0  0  0  0  0  0  0  0  0  0  0
  143.3495  153.8687  132.5136 H   0  0  0  0  0  0  0  0  0  0  0  0
  142.2581  155.3015  132.4506 H   0  0  0  0  0  0  0  0  0  0  0  0
  147.5045  156.3892  131.9241 H   0  0  0  0  0  0  0  0  0  0  0  0
  146.8519  156.9754  133.3699 H   0  0  0  0  0  0  0  0  0  0  0  0
  148.1125  154.9557  134.5452 H   0  0  0  0  0  0  0  0  0  0  0  0
  146.6048  153.1407  132.5611 H   0  0  0  0  0  0  0  0  0  0  0  0
  140.6119  155.8452  132.6976 H   0  0  0  0  0  0  0  0  0  0  0  0
  1  2  1  0
  2  3  1  0
  2  4  1  0
  4  5  2  0
  4  6  1  0
  6  7  1  0
  7  8  2  0
  8  9  1  0
  9 10  2  0
 10 11  1  0
 11 12  2  0
 12 13  1  0
 13 14  1  0
 13 15  2  0
 12 16  1  0
 16 17  1  0
 17 18  2  0
 17 19  1  0
 19 20  1  0
 20 21  2  0
 20 22  2  0
 20 23  1  0
 23 24  1  0
 24 25  1  0
 25 26  1  0
 26 27  3  0
 25 28  1  0
 28 29  1  0
 29 30  2  0
 29 31  1  0
 16 32  1  0
 32 33  2  0
 33  7  1  0
 32 10  1  0
 28 23  1  0
  1 34  1  0
  1 35  1  0
  1 36  1  0
  3 37  1  0
  3 38  1  0
  3 39  1  0
  6 40  1  0
  6 41  1  0
  8 42  1  0
  9 43  1  0
 11 44  1  0
 14 45  1  0
 14 46  1  0
 19 47  1  0
 19 48  1  0
 24 49  1  0
 24 50  1  0
 25 51  1  1
 28 52  1  6
 33 53  1  0
M  CHG  1  31  -1
M  END
>  <UniqueID>  (64) 
64

>  <SMILES>  (64) 
CN(C)C(=O)Cc1ccc2cc(C(N)=O)n(C(=O)CS(=O)(=O)N3C[C@H](C#N)[C@H]3C(=O)[O-])c2c1

>  <Energy>  (64) 
159.79832449872367

>  <Genealogy>  (64) 
CN(C)C(=O)Cc1ccc2cc(C(N)=O)n(C(=O)CS(=O)(=O)N3C[C@H](C#N)[C@H]3C(=O)[O-])c2c1 (protonated)
CN(C)C(=O)Cc1ccc2cc(C(N)=O)n(C(=O)CS(=O)(=O)N3C[C@H](C#N)[C@H]3C(=O)[O-])c2c1 (3D coordinates assigned)
CN(C)C(=O)Cc1ccc2cc(C(N)=O)n(C(=O)CS(=O)(=O)N3C[C@H](C#N)[C@H]3C(=O)[O-])c2c1 (nonaromatic ring conformer: 159.79832449872367 kcal/mol)

>  <smiles>  (64) 
CN(C)C(=O)Cc1ccc2cc(C(N)=O)n(C(=O)CS(=O)(=O)N3C[C@H](C#N)[C@H]3C(=O)O)c2c1

>  <score_type>  (64) 
oracle

>  <origin>  (64) 
adg

>  <m_score__min__energy>  (64) 
-9.8399999999999999

>  <m_primary>  (64) 
energy

$$$$
65:0
     RDKit          3D

 52 54  0  0  0  0  0  0  0  0999 V2000
  150.0380  159.7400  129.6160 C   0  0  0  0  0  0  0  0  0  0  0  0
  149.3970  159.7470  130.9330 N   0  0  0  0  0  0  0  0  0  0  0  0
  149.3800  158.5560  131.7900 C   0  0  0  0  0  0  0  0  0  0  0  0
  147.9520  158.2810  132.2930 C   0  0  0  0  0  0  0  0  0  0  0  0
  147.2630  159.5140  132.7220 N   0  0  0  0  0  0  0  0  0  0  0  0
  145.8940  159.4290  133.1480 C   0  0  0  0  0  0  0  0  0  0  0  0
  145.1460  160.6060  133.3970 C   0  0  0  0  0  0  0  0  0  0  0  0
  143.7980  160.5280  133.7910 C   0  0  0  0  0  0  0  0  0  0  0  0
  143.2340  159.2630  133.9390 C   0  0  0  0  0  0  0  0  0  0  0  0
  141.9510  158.8970  134.2720 C   0  0  0  0  0  0  0  0  0  0  0  0
  141.9470  157.5030  134.2510 C   0  0  0  0  0  0  0  0  0  0  0  0
  140.7760  156.6820  134.6260 C   0  0  0  0  0  0  0  0  0  0  0  0
  140.8240  155.2660  134.4700 N   0  0  0  0  0  0  0  0  0  0  0  0
  139.7190  157.2220  135.0460 O   0  0  0  0  0  0  0  0  0  0  0  0
  143.1780  157.0270  133.9170 N   0  0  0  0  0  0  0  0  0  0  0  0
  143.5700  155.6620  133.7140 C   0  0  0  0  0  0  0  0  0  0  0  0
  143.8440  154.9310  134.7070 O   0  0  0  0  0  0  0  0  0  0  0  0
  143.6890  155.1620  132.4140 O   0  0  0  0  0  0  0  0  0  0  0  0
  144.2040  153.8660  132.1140 C   0  0  0  0  0  0  0  0  0  0  0  0
  143.3690  152.7620  132.7210 C   0  0  0  0  0  0  0  0  0  0  0  0
  143.7730  151.6080  132.6150 O   0  0  0  0  0  0  0  0  0  0  0  0
  142.1500  153.0420  133.4660 N   0  0  0  0  0  0  0  0  0  0  0  0
  140.9660  152.6790  132.6670 C   0  0  0  0  0  0  0  0  0  0  0  0
  142.1630  152.3110  134.7470 C   0  0  0  0  0  0  0  0  0  0  0  0
  143.9530  158.1170  133.7280 C   0  0  0  0  0  0  0  0  0  0  0  0
  145.2900  158.1660  133.3190 C   0  0  0  0  0  0  0  0  0  0  0  0
  147.9290  160.8250  132.6730 C   0  0  0  0  0  0  0  0  0  0  0  0
  148.7430  160.9250  131.4220 C   0  0  0  0  0  0  0  0  0  0  0  0
  148.8610  162.0280  130.8270 O   0  0  0  0  0  0  0  0  0  0  0  0
  151.1309  159.7281  129.7402 H   0  0  0  0  0  0  0  0  0  0  0  0
  149.7224  158.8452  129.0594 H   0  0  0  0  0  0  0  0  0  0  0  0
  149.7420  160.6414  129.0594 H   0  0  0  0  0  0  0  0  0  0  0  0
  149.7351  157.6890  131.2136 H   0  0  0  0  0  0  0  0  0  0  0  0
  150.0374  158.7279  132.6550 H   0  0  0  0  0  0  0  0  0  0  0  0
  147.3738  157.8169  131.4804 H   0  0  0  0  0  0  0  0  0  0  0  0
  148.0245  157.6147  133.1652 H   0  0  0  0  0  0  0  0  0  0  0  0
  145.6238  161.5900  133.2812 H   0  0  0  0  0  0  0  0  0  0  0  0
  143.2077  161.4375  133.9764 H   0  0  0  0  0  0  0  0  0  0  0  0
  141.1070  159.5628  134.5054 H   0  0  0  0  0  0  0  0  0  0  0  0
  141.6860  154.7290  134.7110 H   0  0  0  0  0  0  0  0  0  0  0  0
  144.2215  153.7365  131.0218 H   0  0  0  0  0  0  0  0  0  0  0  0
  145.2146  153.7980  132.5430 H   0  0  0  0  0  0  0  0  0  0  0  0
  142.0810  154.0610  133.6900 H   0  0  0  0  0  0  0  0  0  0  0  0
  140.1339  152.4239  133.3397 H   0  0  0  0  0  0  0  0  0  0  0  0
  140.6769  153.5298  132.0325 H   0  0  0  0  0  0  0  0  0  0  0  0
  141.2035  151.8124  132.0325 H   0  0  0  0  0  0  0  0  0  0  0  0
  142.1502  153.0299  135.5795 H   0  0  0  0  0  0  0  0  0  0  0  0
  141.2762  151.6630  134.8084 H   0  0  0  0  0  0  0  0  0  0  0  0
  143.0722  151.6950  134.8084 H   0  0  0  0  0  0  0  0  0  0  0  0
  145.8568  157.2414  133.1351 H   0  0  0  0  0  0  0  0  0  0  0  0
  147.1708  161.6219  132.6816 H   0  0  0  0  0  0  0  0  0  0  0  0
  148.5867  160.9348  133.5479 H   0  0  0  0  0  0  0  0  0  0  0  0
  1  2  1  0
  2  3  1  0
  3  4  1  0
  4  5  1  0
  5  6  1  0
  6  7  2  0
  7  8  1  0
  8  9  2  0
  9 10  1  0
 10 11  2  0
 11 12  1  0
 12 13  1  0
 12 14  2  0
 11 15  1  0
 15 16  1  0
 16 17  2  0
 16 18  1  0
 18 19  1  0
 19 20  1  0
 20 21  2  0
 20 22  1  0
 22 23  1  0
 22 24  1  0
 15 25  1  0
 25 26  2  0
  5 27  1  0
 27 28  1  0
 28 29  2  0
 28  2  1  0
 26  6  1  0
 25  9  1  0
  1 30  1  0
  1 31  1  0
  1 32  1  0
  3 33  1  0
  3 34  1  0
  4 35  1  0
  4 36  1  0
  7 37  1  0
  8 38  1  0
 10 39  1  0
 13 40  1  0
 19 41  1  0
 19 42  1  0
 22 43  1  0
 23 44  1  0
 23 45  1  0
 23 46  1  0
 24 47  1  0
 24 48  1  0
 24 49  1  0
 26 50  1  0
 27 51  1  0
 27 52  1  0
M  CHG  2  13  -1  22   1
M  END
>  <UniqueID>  (65) 
65

>  <SMILES>  (65) 
CN1CCN(c2ccc3cc(C([NH-])=O)n(C(=O)OCC(=O)[NH+](C)C)c3c2)CC1=O

>  <Energy>  (65) 
92.20975130239476

>  <Genealogy>  (65) 
CN1CCN(c2ccc3cc(C([NH-])=O)n(C(=O)OCC(=O)[NH+](C)C)c3c2)CC1=O (protonated)
CN1CCN(c2ccc3cc(C([NH-])=O)n(C(=O)OCC(=O)[NH+](C)C)c3c2)CC1=O (3D coordinates assigned)
CN1CCN(c2ccc3cc(C([NH-])=O)n(C(=O)OCC(=O)[NH+](C)C)c3c2)CC1=O (nonaromatic ring conformer: 92.20975130239476 kcal/mol)

>  <smiles>  (65) 
CN(C)C(=O)COC(=O)n1c(C(N)=O)cc2ccc(N3CCN(C)C(=O)C3)cc21

>  <score_type>  (65) 
oracle

>  <origin>  (65) 
adg

>  <m_score__min__energy>  (65) 
-6.7400000000000002

>  <m_primary>  (65) 
energy

$$$$
66:0
     RDKit          3D

 43 45  0  0  0  0  0  0  0  0999 V2000
  140.8150  159.9510  133.3140 C   0  0  0  0  0  0  0  0  0  0  0  0
  140.0430  158.7620  132.9310 N   0  0  0  0  0  0  0  0  0  0  0  0
  140.6540  157.4610  133.0440 C   0  0  0  0  0  0  0  0  0  0  0  0
  141.9080  157.3480  132.9680 O   0  0  0  0  0  0  0  0  0  0  0  0
  139.8200  156.2180  133.1940 C   0  0  0  0  0  0  0  0  0  0  0  0
  140.6510  155.0760  133.3970 O   0  0  0  0  0  0  0  0  0  0  0  0
  140.2920  153.7890  132.9800 C   0  0  0  0  0  0  0  0  0  0  0  0
  139.1030  153.5340  132.6450 O   0  0  0  0  0  0  0  0  0  0  0  0
  141.2870  152.7540  132.9340 N   0  0  0  0  0  0  0  0  0  0  0  0
  142.5450  152.7900  133.4580 C   0  0  0  0  0  0  0  0  0  0  0  0
  143.1830  153.9760  134.0710 C   0  0  0  0  0  0  0  0  0  0  0  0
  143.0790  155.2600  133.4540 N   0  0  0  0  0  0  0  0  0  0  0  0
  143.8020  153.8670  135.1630 O   0  0  0  0  0  0  0  0  0  0  0  0
  143.1900  151.5720  133.2610 C   0  0  0  0  0  0  0  0  0  0  0  0
  142.2800  150.7810  132.5940 C   0  0  0  0  0  0  0  0  0  0  0  0
  142.3820  149.4570  132.1790 C   0  0  0  0  0  0  0  0  0  0  0  0
  141.2590  148.8660  131.5780 C   0  0  0  0  0  0  0  0  0  0  0  0
  140.0620  149.6060  131.3900 C   0  0  0  0  0  0  0  0  0  0  0  0
  138.8390  148.9200  130.8460 C   0  0  0  0  0  0  0  0  0  0  0  0
  137.6960  149.4440  131.4300 F   0  0  0  0  0  0  0  0  0  0  0  0
  138.7830  149.1160  129.4810 F   0  0  0  0  0  0  0  0  0  0  0  0
  138.8750  147.5590  131.1020 F   0  0  0  0  0  0  0  0  0  0  0  0
  139.9980  150.9510  131.8280 C   0  0  0  0  0  0  0  0  0  0  0  0
  141.1390  151.5170  132.4120 C   0  0  0  0  0  0  0  0  0  0  0  0
  138.7380  158.8630  132.2530 C   0  0  0  0  0  0  0  0  0  0  0  0
  138.6280  160.1210  131.4030 C   0  0  0  0  0  0  0  0  0  0  0  0
  138.6890  158.7570  130.7290 C   0  0  0  0  0  0  0  0  0  0  0  0
  140.8605  160.0210  134.4108 H   0  0  0  0  0  0  0  0  0  0  0  0
  141.8347  159.8722  132.9090 H   0  0  0  0  0  0  0  0  0  0  0  0
  140.3281  160.8504  132.9090 H   0  0  0  0  0  0  0  0  0  0  0  0
  139.1493  156.3350  134.0580 H   0  0  0  0  0  0  0  0  0  0  0  0
  139.2346  156.0711  132.2744 H   0  0  0  0  0  0  0  0  0  0  0  0
  143.4630  156.1070  133.9310 H   0  0  0  0  0  0  0  0  0  0  0  0
  142.6550  155.3710  132.5070 H   0  0  0  0  0  0  0  0  0  0  0  0
  144.2093  151.2992  133.5717 H   0  0  0  0  0  0  0  0  0  0  0  0
  143.3145  148.8902  132.3176 H   0  0  0  0  0  0  0  0  0  0  0  0
  141.3072  147.8175  131.2490 H   0  0  0  0  0  0  0  0  0  0  0  0
  139.0746  151.5375  131.7126 H   0  0  0  0  0  0  0  0  0  0  0  0
  138.1696  158.3619  133.0504 H   0  0  0  0  0  0  0  0  0  0  0  0
  137.6910  160.6971  131.3932 H   0  0  0  0  0  0  0  0  0  0  0  0
  139.2040  161.0544  131.3198 H   0  0  0  0  0  0  0  0  0  0  0  0
  137.7961  158.3472  130.2342 H   0  0  0  0  0  0  0  0  0  0  0  0
  139.3261  158.2964  129.9596 H   0  0  0  0  0  0  0  0  0  0  0  0
  1  2  1  0
  2  3  1  0
  3  4  2  0
  3  5  1  0
  5  6  1  0
  6  7  1  0
  7  8  2  0
  7  9  1  0
  9 10  1  0
 10 11  1  0
 11 12  1  0
 11 13  2  0
 10 14  2  0
 14 15  1  0
 15 16  2  0
 16 17  1  0
 17 18  2  0
 18 19  1  0
 19 20  1  0
 19 21  1  0
 19 22  1  0
 18 23  1  0
 23 24  2  0
  2 25  1  0
 25 26  1  0
 26 27  1  0
 24  9  1  0
 27 25  1  0
 24 15  1  0
  1 28  1  0
  1 29  1  0
  1 30  1  0
  5 31  1  0
  5 32  1  0
 12 33  1  0
 12 34  1  0
 14 35  1  0
 16 36  1  0
 17 37  1  0
 23 38  1  0
 25 39  1  0
 26 40  1  0
 26 41  1  0
 27 42  1  0
 27 43  1  0
M  END
>  <UniqueID>  (66) 
66

>  <SMILES>  (66) 
CN(C(=O)COC(=O)n1c(C(N)=O)cc2ccc(C(F)(F)F)cc21)C1CC1

>  <Energy>  (66) 
350.368225375892

>  <Genealogy>  (66) 
CN(C(=O)COC(=O)n1c(C(N)=O)cc2ccc(C(F)(F)F)cc21)C1CC1 (3D coordinates assigned)
CN(C(=O)COC(=O)n1c(C(N)=O)cc2ccc(C(F)(F)F)cc21)C1CC1 (nonaromatic ring conformer: 350.368225375892 kcal/mol)

>  <smiles>  (66) 
CN(C(=O)COC(=O)n1c(C(N)=O)cc2ccc(C(F)(F)F)cc21)C1CC1

>  <score_type>  (66) 
oracle

>  <origin>  (66) 
adg

>  <m_score__min__energy>  (66) 
-6.9000000000000004

>  <m_primary>  (66) 
energy

$$$$
67:0
     RDKit          3D

 44 45  0  0  0  0  0  0  0  0999 V2000
  148.1830  153.3820  137.3230 C   0  0  0  0  0  0  0  0  0  0  0  0
  147.0010  153.4370  136.5350 O   0  0  0  0  0  0  0  0  0  0  0  0
  146.7090  154.5130  135.6920 C   0  0  0  0  0  0  0  0  0  0  0  0
  147.4750  155.5140  135.6350 O   0  0  0  0  0  0  0  0  0  0  0  0
  145.4570  154.4890  134.8730 C   0  0  0  0  0  0  0  0  0  0  0  0
  145.0470  155.8150  134.5510 O   0  0  0  0  0  0  0  0  0  0  0  0
  145.7010  156.6120  133.6030 C   0  0  0  0  0  0  0  0  0  0  0  0
  146.5030  156.0910  132.7800 O   0  0  0  0  0  0  0  0  0  0  0  0
  145.4520  158.0250  133.5630 N   0  0  0  0  0  0  0  0  0  0  0  0
  146.3720  159.0300  133.5850 C   0  0  0  0  0  0  0  0  0  0  0  0
  147.8360  158.8620  133.4910 C   0  0  0  0  0  0  0  0  0  0  0  0
  148.4750  157.6690  133.9510 N   0  0  0  0  0  0  0  0  0  0  0  0
  148.5290  159.7620  132.9480 O   0  0  0  0  0  0  0  0  0  0  0  0
  145.7450  160.2700  133.6540 C   0  0  0  0  0  0  0  0  0  0  0  0
  144.3960  159.9950  133.6590 C   0  0  0  0  0  0  0  0  0  0  0  0
  143.3090  160.8590  133.7280 C   0  0  0  0  0  0  0  0  0  0  0  0
  142.0220  160.2970  133.7520 C   0  0  0  0  0  0  0  0  0  0  0  0
  141.8420  158.8880  133.7170 C   0  0  0  0  0  0  0  0  0  0  0  0
  140.4540  158.2820  133.7570 C   0  0  2  0  0  0  0  0  0  0  0  0
  140.5050  156.8010  134.1560 C   0  0  0  0  0  0  0  0  0  0  0  0
  139.7480  158.4890  132.4440 C   0  0  0  0  0  0  0  0  0  0  0  0
  139.1660  157.5270  131.8710 O   0  0  0  0  0  0  0  0  0  0  0  0
  139.7900  159.7500  131.8440 O   0  0  0  0  0  0  0  0  0  0  0  0
  138.7890  160.2010  130.9390 C   0  0  0  0  0  0  0  0  0  0  0  0
  142.9760  158.0450  133.6480 C   0  0  0  0  0  0  0  0  0  0  0  0
  144.2450  158.6330  133.6040 C   0  0  0  0  0  0  0  0  0  0  0  0
  147.9136  153.3945  138.3894 H   0  0  0  0  0  0  0  0  0  0  0  0
  148.7332  152.4573  137.0946 H   0  0  0  0  0  0  0  0  0  0  0  0
  148.8167  154.2516  137.0946 H   0  0  0  0  0  0  0  0  0  0  0  0
  145.6431  153.9316  133.9431 H   0  0  0  0  0  0  0  0  0  0  0  0
  144.6606  154.0011  135.4541 H   0  0  0  0  0  0  0  0  0  0  0  0
  149.5150  157.5850  133.9150 H   0  0  0  0  0  0  0  0  0  0  0  0
  147.9180  156.8360  134.2430 H   0  0  0  0  0  0  0  0  0  0  0  0
  146.2247  161.2590  133.6957 H   0  0  0  0  0  0  0  0  0  0  0  0
  143.4525  161.9490  133.7627 H   0  0  0  0  0  0  0  0  0  0  0  0
  141.1424  160.9559  133.7985 H   0  0  0  0  0  0  0  0  0  0  0  0
  139.8711  158.8008  134.5323 H   0  0  0  0  0  0  0  0  0  0  0  0
  140.5079  156.7166  135.2528 H   0  0  0  0  0  0  0  0  0  0  0  0
  139.6242  156.2815  133.7506 H   0  0  0  0  0  0  0  0  0  0  0  0
  141.4194  156.3433  133.7506 H   0  0  0  0  0  0  0  0  0  0  0  0
  137.9296  160.5882  131.5060 H   0  0  0  0  0  0  0  0  0  0  0  0
  139.2007  161.0006  130.3056 H   0  0  0  0  0  0  0  0  0  0  0  0
  138.4628  159.3629  130.3056 H   0  0  0  0  0  0  0  0  0  0  0  0
  142.8626  156.9510  133.6293 H   0  0  0  0  0  0  0  0  0  0  0  0
  1  2  1  0
  2  3  1  0
  3  4  2  0
  3  5  1  0
  5  6  1  0
  6  7  1  0
  7  8  2  0
  7  9  1  0
  9 10  1  0
 10 11  1  0
 11 12  1  0
 11 13  2  0
 10 14  2  0
 14 15  1  0
 15 16  2  0
 16 17  1  0
 17 18  2  0
 18 19  1  0
 19 20  1  0
 19 21  1  0
 21 22  2  0
 21 23  1  0
 23 24  1  0
 18 25  1  0
 25 26  2  0
 26  9  1  0
 26 15  1  0
  1 27  1  0
  1 28  1  0
  1 29  1  0
  5 30  1  0
  5 31  1  0
 12 32  1  0
 12 33  1  0
 14 34  1  0
 16 35  1  0
 17 36  1  0
 19 37  1  1
 20 38  1  0
 20 39  1  0
 20 40  1  0
 24 41  1  0
 24 42  1  0
 24 43  1  0
 25 44  1  0
M  END
>  <UniqueID>  (67) 
67

>  <SMILES>  (67) 
COC(=O)COC(=O)n1c(C(N)=O)cc2ccc([C@H](C)C(=O)OC)cc21

>  <Energy>  (67) 
74.3037232559206

>  <Genealogy>  (67) 
COC(=O)COC(=O)n1c(C(N)=O)cc2ccc([C@H](C)C(=O)OC)cc21 (chirality)
COC(=O)COC(=O)n1c(C(N)=O)cc2ccc([C@H](C)C(=O)OC)cc21 (3D coordinates assigned)
COC(=O)COC(=O)n1c(C(N)=O)cc2ccc([C@H](C)C(=O)OC)cc21 (optimized conformer: 74.3037232559206 kcal/mol)

>  <smiles>  (67) 
COC(=O)COC(=O)n1c(C(N)=O)cc2ccc(C(C)C(=O)OC)cc21

>  <score_type>  (67) 
oracle

>  <origin>  (67) 
adg

>  <m_score__min__energy>  (67) 
-6.6200000000000001

>  <m_primary>  (67) 
energy

$$$$
68:0
     RDKit          3D

 35 36  0  0  0  0  0  0  0  0999 V2000
  146.6550  160.9090  133.3690 N   0  0  0  0  0  0  0  0  0  0  0  0
  145.4750  161.2310  134.1060 C   0  0  0  0  0  0  0  0  0  0  0  0
  145.5050  162.1810  134.9330 O   0  0  0  0  0  0  0  0  0  0  0  0
  144.2040  160.5170  133.8700 C   0  0  0  0  0  0  0  0  0  0  0  0
  142.9920  161.1670  133.6630 C   0  0  0  0  0  0  0  0  0  0  0  0
  142.0790  160.1670  133.4250 C   0  0  0  0  0  0  0  0  0  0  0  0
  140.7120  160.2470  133.1780 C   0  0  0  0  0  0  0  0  0  0  0  0
  140.0000  159.0490  133.0100 C   0  0  0  0  0  0  0  0  0  0  0  0
  140.6630  157.7970  133.0820 C   0  0  0  0  0  0  0  0  0  0  0  0
  139.8770  156.5150  132.9650 C   0  0  0  0  0  0  0  0  0  0  0  0
  140.7210  155.4200  133.0080 F   0  0  0  0  0  0  0  0  0  0  0  0
  138.9790  156.4340  134.0120 F   0  0  0  0  0  0  0  0  0  0  0  0
  139.1810  156.4760  131.7700 F   0  0  0  0  0  0  0  0  0  0  0  0
  142.0480  157.7560  133.3610 C   0  0  0  0  0  0  0  0  0  0  0  0
  142.7390  158.9670  133.5010 C   0  0  0  0  0  0  0  0  0  0  0  0
  144.0480  159.1650  133.7800 N   0  0  0  0  0  0  0  0  0  0  0  0
  145.0390  158.1520  134.0250 C   0  0  0  0  0  0  0  0  0  0  0  0
  144.7060  157.0630  134.5670 O   0  0  0  0  0  0  0  0  0  0  0  0
  146.3720  158.3760  133.6600 O   0  0  0  0  0  0  0  0  0  0  0  0
  147.0720  157.5720  132.7140 C   0  0  0  0  0  0  0  0  0  0  0  0
  148.2920  158.3140  132.1630 C   0  0  0  0  0  0  0  0  0  0  0  0
  147.8920  159.3680  131.2870 O   0  0  0  0  0  0  0  0  0  0  0  0
  148.6760  160.4920  131.0110 C   0  0  0  0  0  0  0  0  0  0  0  0
  148.5050  161.5750  131.6310 O   0  0  0  0  0  0  0  0  0  0  0  0
  149.9280  160.3860  129.7940 Cl  0  0  0  0  0  0  0  0  0  0  0  0
  147.5520  161.4010  133.5760 H   0  0  0  0  0  0  0  0  0  0  0  0
  146.6240  160.2450  132.5650 H   0  0  0  0  0  0  0  0  0  0  0  0
  142.8039  162.2506  133.6850 H   0  0  0  0  0  0  0  0  0  0  0  0
  140.2040  161.2207  133.1162 H   0  0  0  0  0  0  0  0  0  0  0  0
  138.9169  159.0814  132.8206 H   0  0  0  0  0  0  0  0  0  0  0  0
  142.5720  156.7945  133.4659 H   0  0  0  0  0  0  0  0  0  0  0  0
  147.4053  156.6459  133.2052 H   0  0  0  0  0  0  0  0  0  0  0  0
  146.3942  157.3416  131.8789 H   0  0  0  0  0  0  0  0  0  0  0  0
  148.8642  158.7391  133.0008 H   0  0  0  0  0  0  0  0  0  0  0  0
  148.9117  157.6022  131.5979 H   0  0  0  0  0  0  0  0  0  0  0  0
  1  2  1  0
  2  3  2  0
  2  4  1  0
  4  5  2  0
  5  6  1  0
  6  7  2  0
  7  8  1  0
  8  9  2  0
  9 10  1  0
 10 11  1  0
 10 12  1  0
 10 13  1  0
  9 14  1  0
 14 15  2  0
 15 16  1  0
 16 17  1  0
 17 18  2  0
 17 19  1  0
 19 20  1  0
 20 21  1  0
 21 22  1  0
 22 23  1  0
 23 24  2  0
 23 25  1  0
 16  4  1  0
 15  6  1  0
  1 26  1  0
  1 27  1  0
  5 28  1  0
  7 29  1  0
  8 30  1  0
 14 31  1  0
 20 32  1  0
 20 33  1  0
 21 34  1  0
 21 35  1  0
M  END
>  <UniqueID>  (68) 
68

>  <SMILES>  (68) 
NC(=O)c1cc2ccc(C(F)(F)F)cc2n1C(=O)OCCOC(=O)Cl

>  <Energy>  (68) 
70.59429391682586

>  <Genealogy>  (68) 
NC(=O)c1cc2ccc(C(F)(F)F)cc2n1C(=O)OCCOC(=O)Cl (3D coordinates assigned)
NC(=O)c1cc2ccc(C(F)(F)F)cc2n1C(=O)OCCOC(=O)Cl (optimized conformer: 70.59429391682586 kcal/mol)

>  <smiles>  (68) 
NC(=O)c1cc2ccc(C(F)(F)F)cc2n1C(=O)OCCOC(=O)Cl

>  <score_type>  (68) 
oracle

>  <origin>  (68) 
adg

>  <m_score__min__energy>  (68) 
-5.79

>  <m_primary>  (68) 
energy

$$$$
69:0
     RDKit          3D

 45 48  0  0  0  0  0  0  0  0999 V2000
  141.3790  158.8280  137.7530 C   0  0  0  0  0  0  0  0  0  0  0  0
  140.6870  159.2810  136.5540 N   0  0  0  0  0  0  0  0  0  0  0  0
  139.9020  158.4300  135.7120 C   0  0  0  0  0  0  0  0  0  0  0  0
  139.2620  157.4790  136.2330 O   0  0  0  0  0  0  0  0  0  0  0  0
  139.8040  158.6520  134.2580 C   0  0  0  0  0  0  0  0  0  0  0  0
  138.7410  158.2660  133.4650 C   0  0  0  0  0  0  0  0  0  0  0  0
  139.0570  158.6500  132.1770 C   0  0  0  0  0  0  0  0  0  0  0  0
  140.2980  159.2530  132.2340 C   0  0  0  0  0  0  0  0  0  0  0  0
  140.7450  159.2630  133.5060 N   0  0  0  0  0  0  0  0  0  0  0  0
  142.0750  159.7020  133.9340 C   0  0  0  0  0  0  0  0  0  0  0  0
  143.0630  158.5770  133.7820 C   0  0  0  0  0  0  0  0  0  0  0  0
  142.6270  157.2300  133.8100 C   0  0  0  0  0  0  0  0  0  0  0  0
  143.5350  156.1790  133.6000 C   0  0  0  0  0  0  0  0  0  0  0  0
  144.8690  156.5060  133.3690 C   0  0  0  0  0  0  0  0  0  0  0  0
  145.9450  155.6930  133.0980 C   0  0  0  0  0  0  0  0  0  0  0  0
  147.0270  156.5560  132.9300 C   0  0  0  0  0  0  0  0  0  0  0  0
  148.4110  156.0920  132.7040 C   0  0  0  0  0  0  0  0  0  0  0  0
  148.7040  154.7050  132.5570 N   0  0  0  0  0  0  0  0  0  0  0  0
  149.3410  156.9340  132.5910 O   0  0  0  0  0  0  0  0  0  0  0  0
  146.6320  157.8520  133.0830 N   0  0  0  0  0  0  0  0  0  0  0  0
  147.4160  159.0390  132.8870 C   0  0  0  0  0  0  0  0  0  0  0  0
  148.1440  159.4670  133.8210 O   0  0  0  0  0  0  0  0  0  0  0  0
  147.3220  159.7520  131.6480 N   0  0  0  0  0  0  0  0  0  0  0  0
  148.4110  160.2840  130.8830 C   0  0  0  0  0  0  0  0  0  0  0  0
  148.8660  161.5840  130.8060 C   0  0  0  0  0  0  0  0  0  0  0  0
  149.9330  161.6060  129.9840 N   0  0  0  0  0  0  0  0  0  0  0  0
  150.1350  160.3840  129.5730 O   0  0  0  0  0  0  0  0  0  0  0  0
  149.2560  159.5530  130.0840 C   0  0  0  0  0  0  0  0  0  0  0  0
  145.3100  157.8040  133.3550 C   0  0  0  0  0  0  0  0  0  0  0  0
  144.4250  158.8700  133.5480 C   0  0  0  0  0  0  0  0  0  0  0  0
  140.8389  159.1815  138.6437 H   0  0  0  0  0  0  0  0  0  0  0  0
  141.4184  157.7287  137.7604 H   0  0  0  0  0  0  0  0  0  0  0  0
  142.4022  159.2316  137.7604 H   0  0  0  0  0  0  0  0  0  0  0  0
  137.8246  157.7543  133.7942 H   0  0  0  0  0  0  0  0  0  0  0  0
  138.4393  158.5038  131.2786 H   0  0  0  0  0  0  0  0  0  0  0  0
  140.8411  159.6640  131.3702 H   0  0  0  0  0  0  0  0  0  0  0  0
  142.3943  160.5532  133.3147 H   0  0  0  0  0  0  0  0  0  0  0  0
  142.0323  160.0042  134.9908 H   0  0  0  0  0  0  0  0  0  0  0  0
  141.5669  157.0045  133.9980 H   0  0  0  0  0  0  0  0  0  0  0  0
  143.2029  155.1305  133.6175 H   0  0  0  0  0  0  0  0  0  0  0  0
  145.9506  154.5952  133.0286 H   0  0  0  0  0  0  0  0  0  0  0  0
  148.1900  154.1180  131.8630 H   0  0  0  0  0  0  0  0  0  0  0  0
  148.4329  162.4516  131.3254 H   0  0  0  0  0  0  0  0  0  0  0  0
  149.2055  158.4689  129.9048 H   0  0  0  0  0  0  0  0  0  0  0  0
  144.7808  159.9105  133.5183 H   0  0  0  0  0  0  0  0  0  0  0  0
  1  2  1  0
  2  3  1  0
  3  4  2  0
  3  5  1  0
  5  6  2  0
  6  7  1  0
  7  8  2  0
  8  9  1  0
  9 10  1  0
 10 11  1  0
 11 12  2  0
 12 13  1  0
 13 14  2  0
 14 15  1  0
 15 16  2  0
 16 17  1  0
 17 18  1  0
 17 19  2  0
 16 20  1  0
 20 21  1  0
 21 22  2  0
 21 23  1  0
 23 24  1  0
 24 25  1  0
 25 26  2  0
 26 27  1  0
 27 28  1  0
 20 29  1  0
 29 30  2  0
  9  5  1  0
 30 11  1  0
 29 14  1  0
 28 24  2  0
  1 31  1  0
  1 32  1  0
  1 33  1  0
  6 34  1  0
  7 35  1  0
  8 36  1  0
 10 37  1  0
 10 38  1  0
 12 39  1  0
 13 40  1  0
 15 41  1  0
 18 42  1  0
 25 43  1  0
 28 44  1  0
 30 45  1  0
M  CHG  3   2  -1  18  -1  23  -1
M  END
>  <UniqueID>  (69) 
69

>  <SMILES>  (69) 
C[N-]C(=O)c1cccn1Cc1ccc2cc(C([NH-])=O)n(C(=O)[N-]c3cnoc3)c2c1

>  <Energy>  (69) 
148.3669817600778

>  <Genealogy>  (69) 
C[N-]C(=O)c1cccn1Cc1ccc2cc(C([NH-])=O)n(C(=O)[N-]c3cnoc3)c2c1 (protonated)
C[N-]C(=O)c1cccn1Cc1ccc2cc(C([NH-])=O)n(C(=O)[N-]c3cnoc3)c2c1 (3D coordinates assigned)
C[N-]C(=O)c1cccn1Cc1ccc2cc(C([NH-])=O)n(C(=O)[N-]c3cnoc3)c2c1 (optimized conformer: 148.3669817600778 kcal/mol)

>  <smiles>  (69) 
CNC(=O)c1cccn1Cc1ccc2cc(C(N)=O)n(C(=O)Nc3cnoc3)c2c1

>  <score_type>  (69) 
oracle

>  <origin>  (69) 
adg

>  <m_score__min__energy>  (69) 
-8.8200000000000003

>  <m_primary>  (69) 
energy

$$$$
70:0
     RDKit          3D

 43 44  0  0  0  0  0  0  0  0999 V2000
  142.9760  155.6790  133.2630 C   0  0  0  0  0  0  0  0  0  0  0  0
  141.8460  155.0370  133.5840 C   0  0  0  0  0  0  0  0  0  0  0  0
  141.8730  153.5480  133.8250 C   0  0  0  0  0  0  0  0  0  0  0  0
  142.8260  153.2500  134.8870 N   0  0  0  0  0  0  0  0  0  0  0  0
  142.4970  153.2700  136.2760 C   0  0  0  0  0  0  0  0  0  0  0  0
  143.2530  153.8480  137.1040 O   0  0  0  0  0  0  0  0  0  0  0  0
  141.3560  152.5880  136.7080 O   0  0  0  0  0  0  0  0  0  0  0  0
  141.3210  151.7700  137.8750 C   0  0  1  0  0  0  0  0  0  0  0  0
  140.9650  152.6090  139.1060 C   0  0  0  0  0  0  0  0  0  0  0  0
  140.3130  150.6790  137.6650 C   0  0  0  0  0  0  0  0  0  0  0  0
  139.5340  150.3520  138.5990 O   0  0  0  0  0  0  0  0  0  0  0  0
  140.2830  149.9700  136.4700 O   0  0  0  0  0  0  0  0  0  0  0  0
  140.5680  155.7870  133.7370 C   0  0  0  0  0  0  0  0  0  0  0  0
  139.4910  155.3200  133.2750 O   0  0  0  0  0  0  0  0  0  0  0  0
  140.5470  157.0680  134.3830 N   0  0  0  0  0  0  0  0  0  0  0  0
  140.2460  158.2740  133.8260 C   0  0  0  0  0  0  0  0  0  0  0  0
  139.9100  158.5120  132.4070 C   0  0  0  0  0  0  0  0  0  0  0  0
  138.8410  157.8100  131.7760 N   0  0  0  0  0  0  0  0  0  0  0  0
  140.5890  159.3350  131.7340 O   0  0  0  0  0  0  0  0  0  0  0  0
  140.3670  159.2890  134.7760 C   0  0  0  0  0  0  0  0  0  0  0  0
  140.7480  158.6580  135.9390 C   0  0  0  0  0  0  0  0  0  0  0  0
  141.0240  159.1810  137.1990 C   0  0  0  0  0  0  0  0  0  0  0  0
  141.3960  158.2870  138.2170 C   0  0  0  0  0  0  0  0  0  0  0  0
  141.4710  156.8960  137.9620 C   0  0  0  0  0  0  0  0  0  0  0  0
  141.9040  155.9570  139.0480 C   0  0  0  0  0  0  0  0  0  0  0  0
  141.2040  156.4020  136.6670 C   0  0  0  0  0  0  0  0  0  0  0  0
  140.8420  157.3160  135.6750 C   0  0  0  0  0  0  0  0  0  0  0  0
  142.9606  156.7646  133.0865 H   0  0  0  0  0  0  0  0  0  0  0  0
  143.9199  155.1209  133.1758 H   0  0  0  0  0  0  0  0  0  0  0  0
  140.8711  153.2057  134.1234 H   0  0  0  0  0  0  0  0  0  0  0  0
  142.1749  153.0304  132.9025 H   0  0  0  0  0  0  0  0  0  0  0  0
  142.3121  151.3258  138.0495 H   0  0  0  0  0  0  0  0  0  0  0  0
  141.2054  152.0425  140.0178 H   0  0  0  0  0  0  0  0  0  0  0  0
  141.5438  153.5443  139.0921 H   0  0  0  0  0  0  0  0  0  0  0  0
  139.8902  152.8427  139.0921 H   0  0  0  0  0  0  0  0  0  0  0  0
  138.5290  156.8790  132.1310 H   0  0  0  0  0  0  0  0  0  0  0  0
  140.1945  160.3652  134.6273 H   0  0  0  0  0  0  0  0  0  0  0  0
  140.9530  160.2616  137.3919 H   0  0  0  0  0  0  0  0  0  0  0  0
  141.6310  158.6708  139.2207 H   0  0  0  0  0  0  0  0  0  0  0  0
  141.6954  156.4095  140.0287 H   0  0  0  0  0  0  0  0  0  0  0  0
  141.3516  155.0103  138.9560 H   0  0  0  0  0  0  0  0  0  0  0  0
  142.9828  155.7625  138.9560 H   0  0  0  0  0  0  0  0  0  0  0  0
  141.2789  155.3272  136.4453 H   0  0  0  0  0  0  0  0  0  0  0  0
  1  2  2  0
  2  3  1  0
  3  4  1  0
  4  5  1  0
  5  6  2  0
  5  7  1  0
  7  8  1  0
  8  9  1  0
  8 10  1  0
 10 11  2  0
 10 12  1  0
  2 13  1  0
 13 14  2  0
 13 15  1  0
 15 16  1  0
 16 17  1  0
 17 18  1  0
 17 19  2  0
 16 20  2  0
 20 21  1  0
 21 22  2  0
 22 23  1  0
 23 24  2  0
 24 25  1  0
 24 26  1  0
 26 27  2  0
 27 15  1  0
 27 21  1  0
  1 28  1  0
  1 29  1  0
  3 30  1  0
  3 31  1  0
  8 32  1  1
  9 33  1  0
  9 34  1  0
  9 35  1  0
 18 36  1  0
 20 37  1  0
 22 38  1  0
 23 39  1  0
 25 40  1  0
 25 41  1  0
 25 42  1  0
 26 43  1  0
M  CHG  3   4  -1  12  -1  18  -1
M  END
>  <UniqueID>  (70) 
70

>  <SMILES>  (70) 
C=C(C[N-]C(=O)O[C@@H](C)C(=O)[O-])C(=O)n1c(C([NH-])=O)cc2ccc(C)cc21

>  <Energy>  (70) 
74.5736558488748

>  <Genealogy>  (70) 
C=C(C[N-]C(=O)OC(C)C(=O)[O-])C(=O)n1c(C([NH-])=O)cc2ccc(C)cc21 (protonated)
C=C(C[N-]C(=O)O[C@@H](C)C(=O)[O-])C(=O)n1c(C([NH-])=O)cc2ccc(C)cc21 (chirality)
C=C(C[N-]C(=O)O[C@@H](C)C(=O)[O-])C(=O)n1c(C([NH-])=O)cc2ccc(C)cc21 (3D coordinates assigned)
C=C(C[N-]C(=O)O[C@@H](C)C(=O)[O-])C(=O)n1c(C([NH-])=O)cc2ccc(C)cc21 (optimized conformer: 74.5736558488748 kcal/mol)

>  <smiles>  (70) 
C=C(CNC(=O)OC(C)C(=O)O)C(=O)n1c(C(N)=O)cc2ccc(C)cc21

>  <score_type>  (70) 
oracle

>  <origin>  (70) 
adg

>  <m_score__min__energy>  (70) 
-7.5700000000000003

>  <m_primary>  (70) 
energy

$$$$
71:0
     RDKit          3D

 35 36  0  0  0  0  0  0  0  0999 V2000
  143.1630  161.3210  133.6970 N   0  0  0  0  0  0  0  0  0  0  0  0
  144.5680  161.4350  133.9110 C   0  0  0  0  0  0  0  0  0  0  0  0
  145.0290  162.4880  134.4270 O   0  0  0  0  0  0  0  0  0  0  0  0
  145.4790  160.3180  133.5880 C   0  0  0  0  0  0  0  0  0  0  0  0
  146.8470  160.4800  133.3780 C   0  0  0  0  0  0  0  0  0  0  0  0
  147.3410  159.2090  133.1910 C   0  0  0  0  0  0  0  0  0  0  0  0
  148.6390  158.7830  132.9260 C   0  0  0  0  0  0  0  0  0  0  0  0
  148.8560  157.4080  132.7420 C   0  0  0  0  0  0  0  0  0  0  0  0
  147.7790  156.4890  132.8180 C   0  0  0  0  0  0  0  0  0  0  0  0
  148.0310  155.0260  132.5990 C   0  0  0  0  0  0  0  0  0  0  0  0
  147.6050  154.3080  133.7010 F   0  0  0  0  0  0  0  0  0  0  0  0
  149.3830  154.8090  132.4050 F   0  0  0  0  0  0  0  0  0  0  0  0
  146.4730  156.9600  133.0850 C   0  0  0  0  0  0  0  0  0  0  0  0
  146.2900  158.3330  133.2830 C   0  0  0  0  0  0  0  0  0  0  0  0
  145.1390  159.0000  133.5260 N   0  0  0  0  0  0  0  0  0  0  0  0
  143.8230  158.4290  133.5860 C   0  0  0  0  0  0  0  0  0  0  0  0
  143.3700  157.7900  132.5980 O   0  0  0  0  0  0  0  0  0  0  0  0
  143.0420  158.6070  134.7350 O   0  0  0  0  0  0  0  0  0  0  0  0
  141.6920  158.1610  134.8450 C   0  0  0  0  0  0  0  0  0  0  0  0
  140.7050  159.3020  134.5790 C   0  0  0  0  0  0  0  0  0  0  0  0
  140.2590  159.3380  133.1140 C   0  0  0  0  0  0  0  0  0  0  0  0
  141.3310  159.7100  132.2910 O   0  0  0  0  0  0  0  0  0  0  0  0
  142.6980  160.3880  133.6710 H   0  0  0  0  0  0  0  0  0  0  0  0
  147.4122  161.4236  133.3646 H   0  0  0  0  0  0  0  0  0  0  0  0
  149.4696  159.5014  132.8626 H   0  0  0  0  0  0  0  0  0  0  0  0
  149.8721  157.0400  132.5368 H   0  0  0  0  0  0  0  0  0  0  0  0
  147.4752  154.6950  131.7094 H   0  0  0  0  0  0  0  0  0  0  0  0
  145.6222  156.2646  133.1358 H   0  0  0  0  0  0  0  0  0  0  0  0
  141.5187  157.3593  134.1121 H   0  0  0  0  0  0  0  0  0  0  0  0
  141.5302  157.7939  135.8692 H   0  0  0  0  0  0  0  0  0  0  0  0
  139.8200  159.1634  135.2174 H   0  0  0  0  0  0  0  0  0  0  0  0
  141.2111  160.2519  134.8059 H   0  0  0  0  0  0  0  0  0  0  0  0
  139.9027  158.3403  132.8180 H   0  0  0  0  0  0  0  0  0  0  0  0
  139.4490  160.0740  133.0032 H   0  0  0  0  0  0  0  0  0  0  0  0
  142.1580  159.5670  132.8220 H   0  0  0  0  0  0  0  0  0  0  0  0
  1  2  1  0
  2  3  2  0
  2  4  1  0
  4  5  2  0
  5  6  1  0
  6  7  2  0
  7  8  1  0
  8  9  2  0
  9 10  1  0
 10 11  1  0
 10 12  1  0
  9 13  1  0
 13 14  2  0
 14 15  1  0
 15 16  1  0
 16 17  2  0
 16 18  1  0
 18 19  1  0
 19 20  1  0
 20 21  1  0
 21 22  1  0
 15  4  1  0
 14  6  1  0
  1 23  1  0
  5 24  1  0
  7 25  1  0
  8 26  1  0
 10 27  1  0
 13 28  1  0
 19 29  1  0
 19 30  1  0
 20 31  1  0
 20 32  1  0
 21 33  1  0
 21 34  1  0
 22 35  1  0
M  CHG  1   1  -1
M  END
>  <UniqueID>  (71) 
71

>  <SMILES>  (71) 
[NH-]C(=O)c1cc2ccc(C(F)F)cc2n1C(=O)OCCCO

>  <Energy>  (71) 
68.23391377154128

>  <Genealogy>  (71) 
[NH-]C(=O)c1cc2ccc(C(F)F)cc2n1C(=O)OCCCO (protonated)
[NH-]C(=O)c1cc2ccc(C(F)F)cc2n1C(=O)OCCCO (3D coordinates assigned)
[NH-]C(=O)c1cc2ccc(C(F)F)cc2n1C(=O)OCCCO (optimized conformer: 68.23391377154128 kcal/mol)

>  <smiles>  (71) 
NC(=O)c1cc2ccc(C(F)F)cc2n1C(=O)OCCCO

>  <score_type>  (71) 
oracle

>  <origin>  (71) 
adg

>  <m_score__min__energy>  (71) 
-5.25

>  <m_primary>  (71) 
energy

$$$$
72:0
     RDKit          3D

 46 47  0  0  0  0  0  0  0  0999 V2000
  148.4680  155.1530  132.6060 C   0  0  0  0  0  0  0  0  0  0  0  0
  148.0850  156.5880  132.8140 C   0  0  0  0  0  0  0  0  0  0  0  0
  149.0580  157.6080  132.6750 C   0  0  0  0  0  0  0  0  0  0  0  0
  148.7060  158.9600  132.8220 C   0  0  0  0  0  0  0  0  0  0  0  0
  147.3760  159.2590  133.1010 C   0  0  0  0  0  0  0  0  0  0  0  0
  146.7570  160.4780  133.2600 C   0  0  0  0  0  0  0  0  0  0  0  0
  145.4180  160.1830  133.4990 C   0  0  0  0  0  0  0  0  0  0  0  0
  144.3980  161.2020  133.8150 C   0  0  0  0  0  0  0  0  0  0  0  0
  143.0130  160.8770  133.7180 N   0  0  0  0  0  0  0  0  0  0  0  0
  144.7410  162.3730  134.1270 O   0  0  0  0  0  0  0  0  0  0  0  0
  145.2130  158.8370  133.4830 N   0  0  0  0  0  0  0  0  0  0  0  0
  143.9570  158.1470  133.5630 C   0  0  0  0  0  0  0  0  0  0  0  0
  143.4230  157.6940  132.5140 O   0  0  0  0  0  0  0  0  0  0  0  0
  143.3230  158.0170  134.8060 O   0  0  0  0  0  0  0  0  0  0  0  0
  142.5740  156.9070  135.2220 C   0  0  0  0  0  0  0  0  0  0  0  0
  143.1370  155.9290  135.7840 O   0  0  0  0  0  0  0  0  0  0  0  0
  141.0820  156.8400  134.9850 C   0  0  0  0  0  0  0  0  0  0  0  0
  140.3650  158.2050  134.6920 C   0  0  0  0  0  0  0  0  0  0  0  0
  140.6770  159.1550  135.8440 C   0  0  0  0  0  0  0  0  0  0  0  0
  141.5050  160.0440  135.7120 O   0  0  0  0  0  0  0  0  0  0  0  0
  138.8610  157.9560  134.6290 C   0  0  0  0  0  0  0  0  0  0  0  0
  138.3370  157.4720  133.6370 O   0  0  0  0  0  0  0  0  0  0  0  0
  140.8740  158.8010  133.4020 N   0  0  0  0  0  0  0  0  0  0  0  0
  140.2300  160.0900  133.0530 C   0  0  0  0  0  0  0  0  0  0  0  0
  140.7670  157.8880  132.2410 C   0  0  0  0  0  0  0  0  0  0  0  0
  146.4220  158.2830  133.2420 C   0  0  0  0  0  0  0  0  0  0  0  0
  146.7420  156.9300  133.0800 C   0  0  0  0  0  0  0  0  0  0  0  0
  148.5987  154.6632  133.5822 H   0  0  0  0  0  0  0  0  0  0  0  0
  147.6753  154.6400  132.0416 H   0  0  0  0  0  0  0  0  0  0  0  0
  149.4109  155.1032  132.0416 H   0  0  0  0  0  0  0  0  0  0  0  0
  150.1004  157.3386  132.4495 H   0  0  0  0  0  0  0  0  0  0  0  0
  149.4576  159.7567  132.7198 H   0  0  0  0  0  0  0  0  0  0  0  0
  147.2218  161.4737  133.2090 H   0  0  0  0  0  0  0  0  0  0  0  0
  142.6760  159.9120  133.9270 H   0  0  0  0  0  0  0  0  0  0  0  0
  140.9084  156.1781  134.1238 H   0  0  0  0  0  0  0  0  0  0  0  0
  140.6499  156.4772  135.9293 H   0  0  0  0  0  0  0  0  0  0  0  0
  140.1513  159.0386  136.8032 H   0  0  0  0  0  0  0  0  0  0  0  0
  138.2352  158.2177  135.4950 H   0  0  0  0  0  0  0  0  0  0  0  0
  141.8950  159.0040  133.5210 H   0  0  0  0  0  0  0  0  0  0  0  0
  139.9616  160.6272  133.9746 H   0  0  0  0  0  0  0  0  0  0  0  0
  140.9287  160.7010  132.4627 H   0  0  0  0  0  0  0  0  0  0  0  0
  139.3218  159.8982  132.4627 H   0  0  0  0  0  0  0  0  0  0  0  0
  140.6459  156.8544  132.5973 H   0  0  0  0  0  0  0  0  0  0  0  0
  139.8958  158.1703  131.6316 H   0  0  0  0  0  0  0  0  0  0  0  0
  141.6799  157.9612  131.6316 H   0  0  0  0  0  0  0  0  0  0  0  0
  145.9668  156.1535  133.1580 H   0  0  0  0  0  0  0  0  0  0  0  0
  1  2  1  0
  2  3  2  0
  3  4  1  0
  4  5  2  0
  5  6  1  0
  6  7  2  0
  7  8  1  0
  8  9  1  0
  8 10  2  0
  7 11  1  0
 11 12  1  0
 12 13  2  0
 12 14  1  0
 14 15  1  0
 15 16  2  0
 15 17  1  0
 17 18  1  0
 18 19  1  0
 19 20  2  0
 18 21  1  0
 21 22  2  0
 18 23  1  0
 23 24  1  0
 23 25  1  0
 11 26  1  0
 26 27  2  0
 27  2  1  0
 26  5  1  0
  1 28  1  0
  1 29  1  0
  1 30  1  0
  3 31  1  0
  4 32  1  0
  6 33  1  0
  9 34  1  0
 17 35  1  0
 17 36  1  0
 19 37  1  0
 21 38  1  0
 23 39  1  0
 24 40  1  0
 24 41  1  0
 24 42  1  0
 25 43  1  0
 25 44  1  0
 25 45  1  0
 27 46  1  0
M  CHG  2   9  -1  23   1
M  END
>  <UniqueID>  (72) 
72

>  <SMILES>  (72) 
Cc1ccc2cc(C([NH-])=O)n(C(=O)OC(=O)CC(C=O)(C=O)[NH+](C)C)c2c1

>  <Energy>  (72) 
95.69375086444181

>  <Genealogy>  (72) 
Cc1ccc2cc(C([NH-])=O)n(C(=O)OC(=O)CC(C=O)(C=O)[NH+](C)C)c2c1 (protonated)
Cc1ccc2cc(C([NH-])=O)n(C(=O)OC(=O)CC(C=O)(C=O)[NH+](C)C)c2c1 (3D coordinates assigned)
Cc1ccc2cc(C([NH-])=O)n(C(=O)OC(=O)CC(C=O)(C=O)[NH+](C)C)c2c1 (optimized conformer: 95.69375086444181 kcal/mol)

>  <smiles>  (72) 
Cc1ccc2cc(C(N)=O)n(C(=O)OC(=O)CC(C=O)(C=O)N(C)C)c2c1

>  <score_type>  (72) 
oracle

>  <origin>  (72) 
adg

>  <m_score__min__energy>  (72) 
-5.5800000000000001

>  <m_primary>  (72) 
energy

$$$$
73:0
     RDKit          3D

 40 42  0  0  0  0  0  0  0  0999 V2000
  144.4530  161.9390  133.9050 C   0  0  0  0  0  0  0  0  0  0  0  0
  144.0650  160.4990  133.7500 C   0  0  0  0  0  0  0  0  0  0  0  0
  145.0620  159.4910  133.7430 C   0  0  0  0  0  0  0  0  0  0  0  0
  144.7070  158.1360  133.6220 C   0  0  0  0  0  0  0  0  0  0  0  0
  143.3540  157.8220  133.5330 C   0  0  0  0  0  0  0  0  0  0  0  0
  142.7350  156.6000  133.3880 C   0  0  0  0  0  0  0  0  0  0  0  0
  141.3700  156.8790  133.3530 C   0  0  0  0  0  0  0  0  0  0  0  0
  140.3280  155.8340  133.2820 C   0  0  0  0  0  0  0  0  0  0  0  0
  139.1280  156.0410  132.5410 N   0  0  0  0  0  0  0  0  0  0  0  0
  140.4790  154.7580  133.9210 O   0  0  0  0  0  0  0  0  0  0  0  0
  141.1550  158.2200  133.4670 N   0  0  0  0  0  0  0  0  0  0  0  0
  139.9030  158.9210  133.4090 C   0  0  0  0  0  0  0  0  0  0  0  0
  138.9180  158.5050  134.0770 O   0  0  0  0  0  0  0  0  0  0  0  0
  139.7760  160.0860  132.5860 N   0  0  0  0  0  0  0  0  0  0  0  0
  139.6810  160.0390  131.1280 C   0  0  2  0  0  0  0  0  0  0  0  0
  138.6690  161.0890  130.6110 C   0  0  0  0  0  0  0  0  0  0  0  0
  137.3170  160.4750  130.2130 C   0  0  0  0  0  0  0  0  0  0  0  0
  136.9450  159.3230  131.1540 C   0  0  0  0  0  0  0  0  0  0  0  0
  137.9400  158.2320  131.1540 N   0  0  0  0  0  0  0  0  0  0  0  0
  139.2870  158.6190  130.6910 C   0  0  0  0  0  0  0  0  0  0  0  0
  142.3780  158.7820  133.5760 C   0  0  0  0  0  0  0  0  0  0  0  0
  142.7020  160.1400  133.6720 C   0  0  0  0  0  0  0  0  0  0  0  0
  144.5200  162.1876  134.9744 H   0  0  0  0  0  0  0  0  0  0  0  0
  145.4290  162.1092  133.4271 H   0  0  0  0  0  0  0  0  0  0  0  0
  143.6946  162.5766  133.4271 H   0  0  0  0  0  0  0  0  0  0  0  0
  146.1219  159.7713  133.8330 H   0  0  0  0  0  0  0  0  0  0  0  0
  145.4747  157.3485  133.5984 H   0  0  0  0  0  0  0  0  0  0  0  0
  143.2160  155.6134  133.3153 H   0  0  0  0  0  0  0  0  0  0  0  0
  138.4840  156.8310  132.7700 H   0  0  0  0  0  0  0  0  0  0  0  0
  140.6593  160.2855  130.6896 H   0  0  0  0  0  0  0  0  0  0  0  0
  138.4970  161.8307  131.4049 H   0  0  0  0  0  0  0  0  0  0  0  0
  139.1012  161.5461  129.7086 H   0  0  0  0  0  0  0  0  0  0  0  0
  136.5387  161.2505  130.2669 H   0  0  0  0  0  0  0  0  0  0  0  0
  137.3956  160.0825  129.1884 H   0  0  0  0  0  0  0  0  0  0  0  0
  136.8600  159.7195  132.1765 H   0  0  0  0  0  0  0  0  0  0  0  0
  135.9945  158.9006  130.7962 H   0  0  0  0  0  0  0  0  0  0  0  0
  138.0190  157.8580  132.1290 H   0  0  0  0  0  0  0  0  0  0  0  0
  140.0183  157.9085  131.1037 H   0  0  0  0  0  0  0  0  0  0  0  0
  139.2774  158.6013  129.5912 H   0  0  0  0  0  0  0  0  0  0  0  0
  141.9147  160.9081  133.6863 H   0  0  0  0  0  0  0  0  0  0  0  0
  1  2  1  0
  2  3  2  0
  3  4  1  0
  4  5  2  0
  5  6  1  0
  6  7  2  0
  7  8  1  0
  8  9  1  0
  8 10  2  0
  7 11  1  0
 11 12  1  0
 12 13  2  0
 12 14  1  0
 14 15  1  0
 15 16  1  0
 16 17  1  0
 17 18  1  0
 18 19  1  0
 19 20  1  0
 11 21  1  0
 21 22  2  0
 22  2  1  0
 21  5  1  0
 20 15  1  0
  1 23  1  0
  1 24  1  0
  1 25  1  0
  3 26  1  0
  4 27  1  0
  6 28  1  0
  9 29  1  0
 15 30  1  6
 16 31  1  0
 16 32  1  0
 17 33  1  0
 17 34  1  0
 18 35  1  0
 18 36  1  0
 19 37  1  0
 20 38  1  0
 20 39  1  0
 22 40  1  0
M  CHG  2   9  -1  14  -1
M  END
>  <UniqueID>  (73) 
73

>  <SMILES>  (73) 
Cc1ccc2cc(C([NH-])=O)n(C(=O)[N-][C@@H]3CCCNC3)c2c1

>  <Energy>  (73) 
83.313449529519

>  <Genealogy>  (73) 
Cc1ccc2cc(C([NH-])=O)n(C(=O)[N-]C3CCCNC3)c2c1 (protonated)
Cc1ccc2cc(C([NH-])=O)n(C(=O)[N-][C@@H]3CCCNC3)c2c1 (chirality)
Cc1ccc2cc(C([NH-])=O)n(C(=O)[N-][C@@H]3CCCNC3)c2c1 (3D coordinates assigned)
Cc1ccc2cc(C([NH-])=O)n(C(=O)[N-][C@@H]3CCCNC3)c2c1 (nonaromatic ring conformer: 83.313449529519 kcal/mol)

>  <smiles>  (73) 
Cc1ccc2cc(C(N)=O)n(C(=O)NC3CCCNC3)c2c1

>  <score_type>  (73) 
oracle

>  <origin>  (73) 
adg

>  <m_score__min__energy>  (73) 
-7.5800000000000001

>  <m_primary>  (73) 
energy

$$$$
74:0
     RDKit          3D

 43 44  0  0  0  0  0  0  0  0999 V2000
  146.4580  153.9800  133.1490 C   0  0  0  0  0  0  0  0  0  0  0  0
  147.4310  154.8500  133.9540 C   0  0  2  0  0  0  0  0  0  0  0  0
  147.4550  154.4500  135.4050 C   0  0  0  0  0  0  0  0  0  0  0  0
  146.9220  153.3690  135.7670 O   0  0  0  0  0  0  0  0  0  0  0  0
  148.1130  155.2340  136.3470 O   0  0  0  0  0  0  0  0  0  0  0  0
  147.1030  156.3230  133.8180 C   0  0  0  0  0  0  0  0  0  0  0  0
  148.1370  157.2540  133.5370 C   0  0  0  0  0  0  0  0  0  0  0  0
  147.8590  158.6270  133.4300 C   0  0  0  0  0  0  0  0  0  0  0  0
  146.5420  159.0420  133.6000 C   0  0  0  0  0  0  0  0  0  0  0  0
  146.0030  160.3080  133.5690 C   0  0  0  0  0  0  0  0  0  0  0  0
  144.6400  160.1340  133.8010 C   0  0  0  0  0  0  0  0  0  0  0  0
  143.6620  161.2400  133.7550 C   0  0  0  0  0  0  0  0  0  0  0  0
  142.2630  160.9800  133.6840 N   0  0  0  0  0  0  0  0  0  0  0  0
  144.0700  162.4320  133.7250 O   0  0  0  0  0  0  0  0  0  0  0  0
  144.3510  158.8130  133.9860 N   0  0  0  0  0  0  0  0  0  0  0  0
  143.0820  158.2220  134.3080 C   0  0  0  0  0  0  0  0  0  0  0  0
  142.2050  158.0810  133.4130 O   0  0  0  0  0  0  0  0  0  0  0  0
  142.8200  157.8280  135.6210 O   0  0  0  0  0  0  0  0  0  0  0  0
  141.6210  157.1670  136.0110 C   0  0  0  0  0  0  0  0  0  0  0  0
  140.5220  158.2000  136.3210 C   0  0  1  0  0  0  0  0  0  0  0  0
  140.9920  159.5340  135.9400 N   0  0  0  0  0  0  0  0  0  0  0  0
  139.2100  157.8860  135.5660 C   0  0  0  0  0  0  0  0  0  0  0  0
  139.2910  158.2270  134.1090 C   0  0  0  0  0  0  0  0  0  0  0  0
  139.8110  159.3120  133.7380 O   0  0  0  0  0  0  0  0  0  0  0  0
  138.7800  157.3510  133.1580 O   0  0  0  0  0  0  0  0  0  0  0  0
  145.5260  158.1590  133.8540 C   0  0  0  0  0  0  0  0  0  0  0  0
  145.7770  156.7880  133.9880 C   0  0  0  0  0  0  0  0  0  0  0  0
  145.8195  153.4091  133.8392 H   0  0  0  0  0  0  0  0  0  0  0  0
  145.8296  154.6229  132.5152 H   0  0  0  0  0  0  0  0  0  0  0  0
  147.0269  153.2839  132.5152 H   0  0  0  0  0  0  0  0  0  0  0  0
  148.4340  154.6829  133.5345 H   0  0  0  0  0  0  0  0  0  0  0  0
  149.1683  156.8962  133.4014 H   0  0  0  0  0  0  0  0  0  0  0  0
  148.6586  159.3521  133.2181 H   0  0  0  0  0  0  0  0  0  0  0  0
  146.5349  161.2555  133.3976 H   0  0  0  0  0  0  0  0  0  0  0  0
  141.8670  160.0770  134.0240 H   0  0  0  0  0  0  0  0  0  0  0  0
  141.2844  156.5124  135.1936 H   0  0  0  0  0  0  0  0  0  0  0  0
  141.8174  156.5695  136.9135 H   0  0  0  0  0  0  0  0  0  0  0  0
  140.3108  158.1583  137.3997 H   0  0  0  0  0  0  0  0  0  0  0  0
  141.5290  159.4540  135.0450 H   0  0  0  0  0  0  0  0  0  0  0  0
  140.1610  160.1280  135.7150 H   0  0  0  0  0  0  0  0  0  0  0  0
  138.9940  156.8120  135.6655 H   0  0  0  0  0  0  0  0  0  0  0  0
  138.4134  158.5014  136.0096 H   0  0  0  0  0  0  0  0  0  0  0  0
  144.9613  156.0875  134.2204 H   0  0  0  0  0  0  0  0  0  0  0  0
  1  2  1  0
  2  3  1  0
  3  4  2  0
  3  5  1  0
  2  6  1  0
  6  7  2  0
  7  8  1  0
  8  9  2  0
  9 10  1  0
 10 11  2  0
 11 12  1  0
 12 13  1  0
 12 14  2  0
 11 15  1  0
 15 16  1  0
 16 17  2  0
 16 18  1  0
 18 19  1  0
 19 20  1  0
 20 21  1  0
 20 22  1  0
 22 23  1  0
 23 24  2  0
 23 25  1  0
 15 26  1  0
 26 27  2  0
 27  6  1  0
 26  9  1  0
  1 28  1  0
  1 29  1  0
  1 30  1  0
  2 31  1  6
  7 32  1  0
  8 33  1  0
 10 34  1  0
 13 35  1  0
 19 36  1  0
 19 37  1  0
 20 38  1  1
 21 39  1  0
 21 40  1  0
 22 41  1  0
 22 42  1  0
 27 43  1  0
M  CHG  3   5  -1  13  -1  25  -1
M  END
>  <UniqueID>  (74) 
74

>  <SMILES>  (74) 
C[C@H](C(=O)[O-])c1ccc2cc(C([NH-])=O)n(C(=O)OC[C@@H](N)CC(=O)[O-])c2c1

>  <Energy>  (74) 
73.3892235232523

>  <Genealogy>  (74) 
CC(C(=O)[O-])c1ccc2cc(C([NH-])=O)n(C(=O)OC[C@@H](N)CC(=O)[O-])c2c1 (protonated)
C[C@H](C(=O)[O-])c1ccc2cc(C([NH-])=O)n(C(=O)OC[C@@H](N)CC(=O)[O-])c2c1 (chirality)
C[C@H](C(=O)[O-])c1ccc2cc(C([NH-])=O)n(C(=O)OC[C@@H](N)CC(=O)[O-])c2c1 (3D coordinates assigned)
C[C@H](C(=O)[O-])c1ccc2cc(C([NH-])=O)n(C(=O)OC[C@@H](N)CC(=O)[O-])c2c1 (optimized conformer: 73.3892235232523 kcal/mol)

>  <smiles>  (74) 
CC(C(=O)O)c1ccc2cc(C(N)=O)n(C(=O)OC[C@@H](N)CC(=O)O)c2c1

>  <score_type>  (74) 
oracle

>  <origin>  (74) 
adg

>  <m_score__min__energy>  (74) 
-6.6200000000000001

>  <m_primary>  (74) 
energy

$$$$
75:0
     RDKit          3D

 41 43  0  0  0  0  0  0  0  0999 V2000
  140.1280  157.1000  135.5410 C   0  0  0  0  0  0  0  0  0  0  0  0
  140.0140  157.1560  134.0800 N   0  0  0  0  0  0  0  0  0  0  0  0
  139.8290  158.4330  133.4410 C   0  0  0  0  0  0  0  0  0  0  0  0
  140.8040  159.2260  133.3200 O   0  0  0  0  0  0  0  0  0  0  0  0
  138.5360  158.8170  132.9610 N   0  0  0  0  0  0  0  0  0  0  0  0
  138.3330  159.5020  131.6910 C   0  0  0  0  0  0  0  0  0  0  0  0
  136.9640  159.4680  131.0860 C   0  0  0  0  0  0  0  0  0  0  0  0
  136.1250  158.6130  131.4750 O   0  0  0  0  0  0  0  0  0  0  0  0
  136.6340  160.3390  130.0560 O   0  0  0  0  0  0  0  0  0  0  0  0
  139.1090  160.7990  131.5550 C   0  0  0  0  0  0  0  0  0  0  0  0
  139.5390  159.5620  130.7710 C   0  0  0  0  0  0  0  0  0  0  0  0
  140.2970  155.9800  133.2920 C   0  0  0  0  0  0  0  0  0  0  0  0
  139.4270  155.5230  132.5030 O   0  0  0  0  0  0  0  0  0  0  0  0
  141.5660  155.3170  133.3970 N   0  0  0  0  0  0  0  0  0  0  0  0
  142.7930  155.8800  133.5850 C   0  0  0  0  0  0  0  0  0  0  0  0
  143.0570  157.3100  133.8510 C   0  0  0  0  0  0  0  0  0  0  0  0
  143.3770  158.2090  132.7920 N   0  0  0  0  0  0  0  0  0  0  0  0
  142.9660  157.7530  135.0280 O   0  0  0  0  0  0  0  0  0  0  0  0
  143.7850  154.9020  133.5520 C   0  0  0  0  0  0  0  0  0  0  0  0
  143.1220  153.7150  133.3380 C   0  0  0  0  0  0  0  0  0  0  0  0
  143.6150  152.4210  133.2000 C   0  0  0  0  0  0  0  0  0  0  0  0
  142.6950  151.3870  132.9640 C   0  0  0  0  0  0  0  0  0  0  0  0
  141.3040  151.6550  132.8810 C   0  0  0  0  0  0  0  0  0  0  0  0
  140.3370  150.5400  132.5740 C   0  0  0  0  0  0  0  0  0  0  0  0
  140.7740  149.8520  131.4570 F   0  0  0  0  0  0  0  0  0  0  0  0
  139.0690  151.0370  132.3290 F   0  0  0  0  0  0  0  0  0  0  0  0
  140.2590  149.6620  133.6410 F   0  0  0  0  0  0  0  0  0  0  0  0
  140.8450  152.9880  132.9990 C   0  0  0  0  0  0  0  0  0  0  0  0
  141.7840  153.9940  133.2440 C   0  0  0  0  0  0  0  0  0  0  0  0
  139.2292  157.5415  135.9961 H   0  0  0  0  0  0  0  0  0  0  0  0
  140.2242  156.0521  135.8614 H   0  0  0  0  0  0  0  0  0  0  0  0
  141.0162  157.6644  135.8614 H   0  0  0  0  0  0  0  0  0  0  0  0
  138.6616  161.6557  131.0297 H   0  0  0  0  0  0  0  0  0  0  0  0
  139.6035  161.4878  132.2557 H   0  0  0  0  0  0  0  0  0  0  0  0
  139.4017  159.5263  129.6802 H   0  0  0  0  0  0  0  0  0  0  0  0
  140.4722  158.9882  130.6715 H   0  0  0  0  0  0  0  0  0  0  0  0
  142.6280  158.7340  132.2880 H   0  0  0  0  0  0  0  0  0  0  0  0
  144.8687  155.0478  133.6717 H   0  0  0  0  0  0  0  0  0  0  0  0
  144.6929  152.2145  133.2736 H   0  0  0  0  0  0  0  0  0  0  0  0
  143.0573  150.3556  132.8419 H   0  0  0  0  0  0  0  0  0  0  0  0
  139.7758  153.2268  132.9004 H   0  0  0  0  0  0  0  0  0  0  0  0
  1  2  1  0
  2  3  1  0
  3  4  2  0
  3  5  1  0
  5  6  1  0
  6  7  1  0
  7  8  2  0
  7  9  1  0
  6 10  1  0
 10 11  1  0
  2 12  1  0
 12 13  2  0
 12 14  1  0
 14 15  1  0
 15 16  1  0
 16 17  1  0
 16 18  2  0
 15 19  2  0
 19 20  1  0
 20 21  2  0
 21 22  1  0
 22 23  2  0
 23 24  1  0
 24 25  1  0
 24 26  1  0
 24 27  1  0
 23 28  1  0
 28 29  2  0
 11  6  1  0
 29 14  1  0
 29 20  1  0
  1 30  1  0
  1 31  1  0
  1 32  1  0
 10 33  1  0
 10 34  1  0
 11 35  1  0
 11 36  1  0
 17 37  1  0
 19 38  1  0
 21 39  1  0
 22 40  1  0
 28 41  1  0
M  CHG  3   5  -1   9  -1  17  -1
M  END
>  <UniqueID>  (75) 
75

>  <SMILES>  (75) 
CN(C(=O)[N-]C1(C(=O)[O-])CC1)C(=O)n1c(C([NH-])=O)cc2ccc(C(F)(F)F)cc21

>  <Energy>  (75) 
350.5270541956181

>  <Genealogy>  (75) 
CN(C(=O)[N-]C1(C(=O)[O-])CC1)C(=O)n1c(C([NH-])=O)cc2ccc(C(F)(F)F)cc21 (protonated)
CN(C(=O)[N-]C1(C(=O)[O-])CC1)C(=O)n1c(C([NH-])=O)cc2ccc(C(F)(F)F)cc21 (3D coordinates assigned)
CN(C(=O)[N-]C1(C(=O)[O-])CC1)C(=O)n1c(C([NH-])=O)cc2ccc(C(F)(F)F)cc21 (nonaromatic ring conformer: 350.5270541956181 kcal/mol)

>  <smiles>  (75) 
CN(C(=O)NC1(C(=O)O)CC1)C(=O)n1c(C(N)=O)cc2ccc(C(F)(F)F)cc21

>  <score_type>  (75) 
oracle

>  <origin>  (75) 
adg

>  <m_score__min__energy>  (75) 
-7.5499999999999998

>  <m_primary>  (75) 
energy

$$$$
76:0
     RDKit          3D

 41 42  0  0  0  0  0  0  0  0999 V2000
  138.0310  156.9120  133.0030 H   0  0  0  0  0  0  0  0  0  0  0  0
  138.3020  157.8340  133.4110 N   0  0  0  0  0  0  0  0  0  0  0  0
  139.3180  157.9240  134.4050 C   0  0  0  0  0  0  0  0  0  0  0  0
  138.9990  158.2200  135.5880 O   0  0  0  0  0  0  0  0  0  0  0  0
  140.7340  157.6520  134.0760 C   0  0  0  0  0  0  0  0  0  0  0  0
  141.7560  158.5900  134.2160 C   0  0  0  0  0  0  0  0  0  0  0  0
  141.6608  159.6351  134.5458 H   0  0  0  0  0  0  0  0  0  0  0  0
  142.9100  157.9310  133.8540 C   0  0  0  0  0  0  0  0  0  0  0  0
  144.2240  158.3860  133.7950 C   0  0  0  0  0  0  0  0  0  0  0  0
  144.4801  159.4173  134.0792 H   0  0  0  0  0  0  0  0  0  0  0  0
  145.2140  157.4870  133.3610 C   0  0  0  0  0  0  0  0  0  0  0  0
  146.2625  157.8152  133.3072 H   0  0  0  0  0  0  0  0  0  0  0  0
  144.8730  156.1610  132.9920 C   0  0  0  0  0  0  0  0  0  0  0  0
  145.9290  155.2080  132.5070 C   0  0  0  0  0  0  0  0  0  0  0  0
  145.9317  155.2043  131.4070 H   0  0  0  0  0  0  0  0  0  0  0  0
  145.6570  153.9360  132.9750 F   0  0  0  0  0  0  0  0  0  0  0  0
  147.1690  155.6080  132.9690 F   0  0  0  0  0  0  0  0  0  0  0  0
  143.5280  155.7380  133.0600 C   0  0  0  0  0  0  0  0  0  0  0  0
  143.2418  154.7174  132.7658 H   0  0  0  0  0  0  0  0  0  0  0  0
  142.5690  156.6500  133.5110 C   0  0  0  0  0  0  0  0  0  0  0  0
  141.2380  156.4610  133.6480 N   0  0  0  0  0  0  0  0  0  0  0  0
  140.5160  155.2630  133.3280 C   0  0  0  0  0  0  0  0  0  0  0  0
  139.4670  155.3380  132.6320 O   0  0  0  0  0  0  0  0  0  0  0  0
  140.9870  153.9380  133.7700 C   0  0  0  0  0  0  0  0  0  0  0  0
  141.3539  153.8220  134.8005 H   0  0  0  0  0  0  0  0  0  0  0  0
  140.9840  152.8740  132.9640 C   0  0  0  0  0  0  0  0  0  0  0  0
  140.6428  152.9866  131.9243 H   0  0  0  0  0  0  0  0  0  0  0  0
  141.5140  151.2970  133.5300 S   0  0  0  0  0  0  0  0  0  0  0  0
  143.0010  151.1980  133.3290 O   0  0  0  0  0  0  0  0  0  0  0  0
  141.2200  151.1530  134.9980 O   0  0  0  0  0  0  0  0  0  0  0  0
  140.6850  149.9960  132.5990 C   0  0  0  0  0  0  0  0  0  0  0  0
  139.8730  149.2390  133.4610 O   0  0  0  0  0  0  0  0  0  0  0  0
  139.6880  149.7930  134.2640 H   0  0  0  0  0  0  0  0  0  0  0  0
  139.8280  150.6170  131.4830 C   0  0  0  0  0  0  0  0  0  0  0  0
  139.0143  151.2066  131.9306 H   0  0  0  0  0  0  0  0  0  0  0  0
  140.4554  151.2716  130.8601 H   0  0  0  0  0  0  0  0  0  0  0  0
  139.4014  149.8170  130.8601 H   0  0  0  0  0  0  0  0  0  0  0  0
  141.7320  149.0620  131.9810 C   0  0  0  0  0  0  0  0  0  0  0  0
  142.2944  148.5603  132.7823 H   0  0  0  0  0  0  0  0  0  0  0  0
  141.2285  148.3075  131.3586 H   0  0  0  0  0  0  0  0  0  0  0  0
  142.4243  149.6480  131.3586 H   0  0  0  0  0  0  0  0  0  0  0  0
  1  2  1  0
  2  3  1  0
  3  4  2  0
  3  5  1  0
  5  6  2  0
  6  7  1  0
  6  8  1  0
  8  9  2  0
  9 10  1  0
  9 11  1  0
 11 12  1  0
 11 13  2  0
 13 14  1  0
 14 15  1  0
 14 16  1  0
 14 17  1  0
 13 18  1  0
 18 19  1  0
 18 20  2  0
 20 21  1  0
 21 22  1  0
 22 23  2  0
 22 24  1  0
 24 25  1  0
 24 26  2  0
 26 27  1  0
 26 28  1  0
 28 29  2  0
 28 30  2  0
 28 31  1  0
 31 32  1  0
 32 33  1  0
 31 34  1  0
 34 35  1  0
 34 36  1  0
 34 37  1  0
 31 38  1  0
 38 39  1  0
 38 40  1  0
 38 41  1  0
 21  5  1  0
 20  8  1  0
M  CHG  1   2  -1
M  END
>  <UniqueID>  (76) 
76

>  <SMILES>  (76) 
CC(C)(O)S(=O)(=O)/C=C/C(=O)n1c(C([NH-])=O)cc2ccc(C(F)F)cc21

>  <Energy>  (76) 
71.82449647025642

>  <Genealogy>  (76) 
CC(C)(O)S(=O)(=O)/C=C/C(=O)n1c(C([NH-])=O)cc2ccc(C(F)F)cc21 (protonated)
CC(C)(O)S(=O)(=O)/C=C/C(=O)n1c(C([NH-])=O)cc2ccc(C(F)F)cc21 (cis-trans isomerization)
CC(C)(O)S(=O)(=O)/C=C/C(=O)n1c(C([NH-])=O)cc2ccc(C(F)F)cc21 (3D coordinates assigned)
CC(C)(O)S(=O)(=O)/C=C/C(=O)n1c(C([NH-])=O)cc2ccc(C(F)F)cc21 (optimized conformer: 71.82449647025642 kcal/mol)

>  <smiles>  (76) 
CC(C)(O)S(=O)(=O)/C=C/C(=O)n1c(C(N)=O)cc2ccc(C(F)F)cc21

>  <score_type>  (76) 
oracle

>  <origin>  (76) 
adg

>  <m_score__min__energy>  (76) 
-7.5099999999999998

>  <m_primary>  (76) 
energy

$$$$
77:0
     RDKit          3D

 35 36  0  0  0  0  0  0  0  0999 V2000
  138.9710  160.0070  131.4320 C   0  0  0  0  0  0  0  0  0  0  0  0
  138.1810  158.9670  131.9940 O   0  0  0  0  0  0  0  0  0  0  0  0
  138.6820  158.0660  132.9380 C   0  0  0  0  0  0  0  0  0  0  0  0
  138.3620  158.1710  134.1550 O   0  0  0  0  0  0  0  0  0  0  0  0
  139.5400  157.0500  132.5150 O   0  0  0  0  0  0  0  0  0  0  0  0
  140.6090  156.5620  133.3210 C   0  0  0  0  0  0  0  0  0  0  0  0
  141.8250  157.1940  132.9390 O   0  0  0  0  0  0  0  0  0  0  0  0
  142.8550  157.4700  133.8430 C   0  0  0  0  0  0  0  0  0  0  0  0
  143.1370  156.6480  134.7570 O   0  0  0  0  0  0  0  0  0  0  0  0
  143.6120  158.6840  133.7120 N   0  0  0  0  0  0  0  0  0  0  0  0
  143.1670  159.9660  133.8450 C   0  0  0  0  0  0  0  0  0  0  0  0
  141.7580  160.3870  133.9980 C   0  0  0  0  0  0  0  0  0  0  0  0
  140.7620  159.4680  134.4400 N   0  0  0  0  0  0  0  0  0  0  0  0
  141.4210  161.5600  133.6870 O   0  0  0  0  0  0  0  0  0  0  0  0
  144.2270  160.8640  133.7350 C   0  0  0  0  0  0  0  0  0  0  0  0
  145.3410  160.0870  133.5190 C   0  0  0  0  0  0  0  0  0  0  0  0
  146.6730  160.4590  133.3580 C   0  0  0  0  0  0  0  0  0  0  0  0
  147.6250  159.4410  133.1870 C   0  0  0  0  0  0  0  0  0  0  0  0
  147.2330  158.0760  133.1680 C   0  0  0  0  0  0  0  0  0  0  0  0
  148.2730  156.9910  133.0460 C   0  0  0  0  0  0  0  0  0  0  0  0
  148.5600  156.4930  134.3030 F   0  0  0  0  0  0  0  0  0  0  0  0
  149.4350  157.4880  132.4820 F   0  0  0  0  0  0  0  0  0  0  0  0
  147.8110  155.9600  132.2480 F   0  0  0  0  0  0  0  0  0  0  0  0
  145.8730  157.7400  133.3590 C   0  0  0  0  0  0  0  0  0  0  0  0
  144.9440  158.7760  133.5080 C   0  0  0  0  0  0  0  0  0  0  0  0
  139.4227  160.6016  132.2397 H   0  0  0  0  0  0  0  0  0  0  0  0
  139.7659  159.5687  130.8108 H   0  0  0  0  0  0  0  0  0  0  0  0
  138.3355  160.6553  130.8108 H   0  0  0  0  0  0  0  0  0  0  0  0
  140.3993  156.7814  134.3783 H   0  0  0  0  0  0  0  0  0  0  0  0
  140.7038  155.4751  133.1810 H   0  0  0  0  0  0  0  0  0  0  0  0
  140.4750  158.6600  133.8430 H   0  0  0  0  0  0  0  0  0  0  0  0
  144.1822  161.9608  133.8059 H   0  0  0  0  0  0  0  0  0  0  0  0
  146.9705  161.5180  133.3646 H   0  0  0  0  0  0  0  0  0  0  0  0
  148.6863  159.7037  133.0664 H   0  0  0  0  0  0  0  0  0  0  0  0
  145.5524  156.6882  133.3898 H   0  0  0  0  0  0  0  0  0  0  0  0
  1  2  1  0
  2  3  1  0
  3  4  2  0
  3  5  1  0
  5  6  1  0
  6  7  1  0
  7  8  1  0
  8  9  2  0
  8 10  1  0
 10 11  1  0
 11 12  1  0
 12 13  1  0
 12 14  2  0
 11 15  2  0
 15 16  1  0
 16 17  2  0
 17 18  1  0
 18 19  2  0
 19 20  1  0
 20 21  1  0
 20 22  1  0
 20 23  1  0
 19 24  1  0
 24 25  2  0
 25 10  1  0
 25 16  1  0
  1 26  1  0
  1 27  1  0
  1 28  1  0
  6 29  1  0
  6 30  1  0
 13 31  1  0
 15 32  1  0
 17 33  1  0
 18 34  1  0
 24 35  1  0
M  CHG  1  13  -1
M  END
>  <UniqueID>  (77) 
77

>  <SMILES>  (77) 
COC(=O)OCOC(=O)n1c(C([NH-])=O)cc2ccc(C(F)(F)F)cc21

>  <Energy>  (77) 
69.63064891121056

>  <Genealogy>  (77) 
COC(=O)OCOC(=O)n1c(C([NH-])=O)cc2ccc(C(F)(F)F)cc21 (protonated)
COC(=O)OCOC(=O)n1c(C([NH-])=O)cc2ccc(C(F)(F)F)cc21 (3D coordinates assigned)
COC(=O)OCOC(=O)n1c(C([NH-])=O)cc2ccc(C(F)(F)F)cc21 (optimized conformer: 69.63064891121056 kcal/mol)

>  <smiles>  (77) 
COC(=O)OCOC(=O)n1c(C(N)=O)cc2ccc(C(F)(F)F)cc21

>  <score_type>  (77) 
oracle

>  <origin>  (77) 
adg

>  <m_score__min__energy>  (77) 
-4.9299999999999997

>  <m_primary>  (77) 
energy

$$$$
78:0
     RDKit          3D

 42 44  0  0  0  0  0  0  0  0999 V2000
  137.8470  159.0290  131.5480 C   0  0  0  0  0  0  0  0  0  0  0  0
  138.5140  158.6720  132.7520 O   0  0  0  0  0  0  0  0  0  0  0  0
  139.9050  158.5500  132.8370 C   0  0  0  0  0  0  0  0  0  0  0  0
  140.6580  159.3010  132.1550 O   0  0  0  0  0  0  0  0  0  0  0  0
  140.5020  157.5220  133.7580 C   0  0  0  0  0  0  0  0  0  0  0  0
  141.2190  158.0800  135.0110 C   0  0  0  0  0  0  0  0  0  0  0  0
  142.6440  158.0810  134.8090 O   0  0  0  0  0  0  0  0  0  0  0  0
  143.3410  158.1360  133.5880 C   0  0  0  0  0  0  0  0  0  0  0  0
  142.8960  157.5640  132.5580 O   0  0  0  0  0  0  0  0  0  0  0  0
  144.5930  158.8360  133.5270 N   0  0  0  0  0  0  0  0  0  0  0  0
  144.8050  160.1740  133.6800 C   0  0  0  0  0  0  0  0  0  0  0  0
  143.7570  161.2140  133.7540 C   0  0  0  0  0  0  0  0  0  0  0  0
  142.3750  160.8630  133.7130 N   0  0  0  0  0  0  0  0  0  0  0  0
  144.0870  162.4280  133.7990 O   0  0  0  0  0  0  0  0  0  0  0  0
  146.1680  160.4570  133.6860 C   0  0  0  0  0  0  0  0  0  0  0  0
  146.7940  159.2430  133.5230 C   0  0  0  0  0  0  0  0  0  0  0  0
  148.1500  158.9330  133.4880 C   0  0  0  0  0  0  0  0  0  0  0  0
  148.5150  157.5830  133.3630 C   0  0  0  0  0  0  0  0  0  0  0  0
  147.5260  156.5690  133.2600 C   0  0  0  0  0  0  0  0  0  0  0  0
  147.9310  155.1190  133.1950 C   0  0  0  0  0  0  0  0  0  0  0  0
  148.1110  154.6020  134.4670 F   0  0  0  0  0  0  0  0  0  0  0  0
  149.1190  154.9740  132.4990 F   0  0  0  0  0  0  0  0  0  0  0  0
  146.9420  154.3980  132.5530 F   0  0  0  0  0  0  0  0  0  0  0  0
  146.1570  156.9240  133.3190 C   0  0  0  0  0  0  0  0  0  0  0  0
  145.8220  158.2790  133.4300 C   0  0  0  0  0  0  0  0  0  0  0  0
  140.7770  157.4950  136.3390 C   0  0  0  0  0  0  0  0  0  0  0  0
  140.3090  158.7440  136.8000 O   0  0  0  0  0  0  0  0  0  0  0  0
  140.6710  159.3730  135.5900 C   0  0  0  0  0  0  0  0  0  0  0  0
  136.9008  159.5354  131.7893 H   0  0  0  0  0  0  0  0  0  0  0  0
  138.4859  159.7057  130.9617 H   0  0  0  0  0  0  0  0  0  0  0  0
  137.6383  158.1220  130.9617 H   0  0  0  0  0  0  0  0  0  0  0  0
  139.6909  156.8616  134.0986 H   0  0  0  0  0  0  0  0  0  0  0  0
  141.2783  157.0086  133.1717 H   0  0  0  0  0  0  0  0  0  0  0  0
  142.0740  159.8650  133.6740 H   0  0  0  0  0  0  0  0  0  0  0  0
  146.6436  161.4426  133.7975 H   0  0  0  0  0  0  0  0  0  0  0  0
  148.9133  159.7221  133.5562 H   0  0  0  0  0  0  0  0  0  0  0  0
  149.5798  157.3074  133.3446 H   0  0  0  0  0  0  0  0  0  0  0  0
  145.3738  156.1526  133.2786 H   0  0  0  0  0  0  0  0  0  0  0  0
  139.9857  156.7368  136.2439 H   0  0  0  0  0  0  0  0  0  0  0  0
  141.5046  156.9380  136.9475 H   0  0  0  0  0  0  0  0  0  0  0  0
  139.8144  159.7773  135.0308 H   0  0  0  0  0  0  0  0  0  0  0  0
  141.3169  160.2629  135.6206 H   0  0  0  0  0  0  0  0  0  0  0  0
  1  2  1  0
  2  3  1  0
  3  4  2  0
  3  5  1  0
  5  6  1  0
  6  7  1  0
  7  8  1  0
  8  9  2  0
  8 10  1  0
 10 11  1  0
 11 12  1  0
 12 13  1  0
 12 14  2  0
 11 15  2  0
 15 16  1  0
 16 17  2  0
 17 18  1  0
 18 19  2  0
 19 20  1  0
 20 21  1  0
 20 22  1  0
 20 23  1  0
 19 24  1  0
 24 25  2  0
  6 26  1  0
 26 27  1  0
 27 28  1  0
 28  6  1  0
 25 10  1  0
 25 16  1  0
  1 29  1  0
  1 30  1  0
  1 31  1  0
  5 32  1  0
  5 33  1  0
 13 34  1  0
 15 35  1  0
 17 36  1  0
 18 37  1  0
 24 38  1  0
 26 39  1  0
 26 40  1  0
 28 41  1  0
 28 42  1  0
M  CHG  1  13  -1
M  END
>  <UniqueID>  (78) 
78

>  <SMILES>  (78) 
COC(=O)CC1(OC(=O)n2c(C([NH-])=O)cc3ccc(C(F)(F)F)cc32)COC1

>  <Energy>  (78) 
149.80409937550763

>  <Genealogy>  (78) 
COC(=O)CC1(OC(=O)n2c(C([NH-])=O)cc3ccc(C(F)(F)F)cc32)COC1 (protonated)
COC(=O)CC1(OC(=O)n2c(C([NH-])=O)cc3ccc(C(F)(F)F)cc32)COC1 (3D coordinates assigned)
COC(=O)CC1(OC(=O)n2c(C([NH-])=O)cc3ccc(C(F)(F)F)cc32)COC1 (nonaromatic ring conformer: 149.80409937550763 kcal/mol)

>  <smiles>  (78) 
COC(=O)CC1(OC(=O)n2c(C(N)=O)cc3ccc(C(F)(F)F)cc32)COC1

>  <score_type>  (78) 
oracle

>  <origin>  (78) 
adg

>  <m_score__min__energy>  (78) 
-6.3200000000000003

>  <m_primary>  (78) 
energy

$$$$
79:0
     RDKit          3D

 40 41  0  0  0  0  0  0  0  0999 V2000
  148.3870  154.9570  132.6080 C   0  0  0  0  0  0  0  0  0  0  0  0
  147.9190  156.3610  132.8480 C   0  0  0  0  0  0  0  0  0  0  0  0
  148.8530  157.4260  132.8340 C   0  0  0  0  0  0  0  0  0  0  0  0
  148.4280  158.7530  133.0160 C   0  0  0  0  0  0  0  0  0  0  0  0
  147.0680  158.9810  133.2090 C   0  0  0  0  0  0  0  0  0  0  0  0
  146.3840  160.1630  133.3810 C   0  0  0  0  0  0  0  0  0  0  0  0
  145.0430  159.7990  133.5070 C   0  0  0  0  0  0  0  0  0  0  0  0
  143.9430  160.7510  133.7760 C   0  0  0  0  0  0  0  0  0  0  0  0
  142.6250  160.2840  134.0710 N   0  0  0  0  0  0  0  0  0  0  0  0
  144.1550  161.9900  133.7270 O   0  0  0  0  0  0  0  0  0  0  0  0
  144.9090  158.4450  133.4210 N   0  0  0  0  0  0  0  0  0  0  0  0
  143.6920  157.6820  133.4490 C   0  0  0  0  0  0  0  0  0  0  0  0
  142.8230  157.8720  132.5580 O   0  0  0  0  0  0  0  0  0  0  0  0
  143.4510  156.7110  134.5400 C   0  0  0  0  0  0  0  0  0  0  0  0
  144.4580  156.2390  135.1360 O   0  0  0  0  0  0  0  0  0  0  0  0
  142.1260  156.2690  134.9250 N   0  0  0  0  0  0  0  0  0  0  0  0
  141.3680  155.3170  134.1050 C   0  0  0  0  0  0  0  0  0  0  0  0
  141.5450  156.7380  136.1940 C   0  0  0  0  0  0  0  0  0  0  0  0
  140.2990  157.5990  135.9530 C   0  0  0  0  0  0  0  0  0  0  0  0
  140.6640  158.9570  135.4400 C   0  0  0  0  0  0  0  0  0  0  0  0
  141.3810  159.7250  136.1320 O   0  0  0  0  0  0  0  0  0  0  0  0
  140.2410  159.3600  134.1800 O   0  0  0  0  0  0  0  0  0  0  0  0
  146.1560  157.9610  133.2330 C   0  0  0  0  0  0  0  0  0  0  0  0
  146.5470  156.6320  133.0310 C   0  0  0  0  0  0  0  0  0  0  0  0
  148.5539  154.4561  133.5730 H   0  0  0  0  0  0  0  0  0  0  0  0
  147.6231  154.4084  132.0374 H   0  0  0  0  0  0  0  0  0  0  0  0
  149.3273  154.9764  132.0374 H   0  0  0  0  0  0  0  0  0  0  0  0
  149.9209  157.2122  132.6792 H   0  0  0  0  0  0  0  0  0  0  0  0
  149.1470  159.5854  133.0063 H   0  0  0  0  0  0  0  0  0  0  0  0
  146.8051  161.1787  133.4124 H   0  0  0  0  0  0  0  0  0  0  0  0
  142.4200  159.2680  134.1910 H   0  0  0  0  0  0  0  0  0  0  0  0
  141.8470  160.9660  134.2070 H   0  0  0  0  0  0  0  0  0  0  0  0
  140.8176  154.6257  134.7602 H   0  0  0  0  0  0  0  0  0  0  0  0
  140.6565  155.8653  133.4701 H   0  0  0  0  0  0  0  0  0  0  0  0
  142.0617  154.7464  133.4701 H   0  0  0  0  0  0  0  0  0  0  0  0
  141.2654  155.8662  136.8037 H   0  0  0  0  0  0  0  0  0  0  0  0
  142.2957  157.3520  136.7131 H   0  0  0  0  0  0  0  0  0  0  0  0
  139.6556  157.0985  135.2144 H   0  0  0  0  0  0  0  0  0  0  0  0
  139.7721  157.7210  136.9109 H   0  0  0  0  0  0  0  0  0  0  0  0
  145.8041  155.8209  133.0154 H   0  0  0  0  0  0  0  0  0  0  0  0
  1  2  1  0
  2  3  2  0
  3  4  1  0
  4  5  2  0
  5  6  1  0
  6  7  2  0
  7  8  1  0
  8  9  1  0
  8 10  2  0
  7 11  1  0
 11 12  1  0
 12 13  2  0
 12 14  1  0
 14 15  2  0
 14 16  1  0
 16 17  1  0
 16 18  1  0
 18 19  1  0
 19 20  1  0
 20 21  2  0
 20 22  1  0
 11 23  1  0
 23 24  2  0
 24  2  1  0
 23  5  1  0
  1 25  1  0
  1 26  1  0
  1 27  1  0
  3 28  1  0
  4 29  1  0
  6 30  1  0
  9 31  1  0
  9 32  1  0
 17 33  1  0
 17 34  1  0
 17 35  1  0
 18 36  1  0
 18 37  1  0
 19 38  1  0
 19 39  1  0
 24 40  1  0
M  CHG  1  22  -1
M  END
>  <UniqueID>  (79) 
79

>  <SMILES>  (79) 
Cc1ccc2cc(C(N)=O)n(C(=O)C(=O)N(C)CCC(=O)[O-])c2c1

>  <Energy>  (79) 
75.5310860839553

>  <Genealogy>  (79) 
Cc1ccc2cc(C(N)=O)n(C(=O)C(=O)N(C)CCC(=O)[O-])c2c1 (protonated)
Cc1ccc2cc(C(N)=O)n(C(=O)C(=O)N(C)CCC(=O)[O-])c2c1 (3D coordinates assigned)
Cc1ccc2cc(C(N)=O)n(C(=O)C(=O)N(C)CCC(=O)[O-])c2c1 (optimized conformer: 75.5310860839553 kcal/mol)

>  <smiles>  (79) 
Cc1ccc2cc(C(N)=O)n(C(=O)C(=O)N(C)CCC(=O)O)c2c1

>  <score_type>  (79) 
oracle

>  <origin>  (79) 
adg

>  <m_score__min__energy>  (79) 
-7.2999999999999998

>  <m_primary>  (79) 
energy

$$$$
80:0
     RDKit          3D

 51 52  0  0  0  0  0  0  0  0999 V2000
  139.1240  160.3660  132.1590 C   0  0  0  0  0  0  0  0  0  0  0  0
  138.5330  159.1570  131.4050 C   0  0  0  0  0  0  0  0  0  0  0  0
  137.0360  159.3770  131.1110 C   0  0  0  0  0  0  0  0  0  0  0  0
  139.2810  158.9880  130.0740 C   0  0  0  0  0  0  0  0  0  0  0  0
  138.7280  157.9510  132.1560 O   0  0  0  0  0  0  0  0  0  0  0  0
  139.3370  157.8510  133.4160 C   0  0  0  0  0  0  0  0  0  0  0  0
  138.9350  158.5410  134.3920 O   0  0  0  0  0  0  0  0  0  0  0  0
  140.4980  156.9110  133.6020 C   0  0  0  0  0  0  0  0  0  0  0  0
  141.3160  157.2100  134.8020 N   0  0  1  0  0  0  0  0  0  0  0  0
  140.8840  156.4230  135.9820 C   0  0  0  0  0  0  0  0  0  0  0  0
  141.1530  157.1480  137.2370 C   0  0  0  0  0  0  0  0  0  0  0  0
  141.3650  157.7170  138.2220 N   0  0  0  0  0  0  0  0  0  0  0  0
  142.7310  157.0430  134.5180 C   0  0  0  0  0  0  0  0  0  0  0  0
  143.4470  156.3180  135.2650 O   0  0  0  0  0  0  0  0  0  0  0  0
  143.3540  157.6850  133.3400 C   0  0  0  0  0  0  0  0  0  0  0  0
  143.2290  157.1690  132.1970 O   0  0  0  0  0  0  0  0  0  0  0  0
  144.0920  158.9090  133.4820 N   0  0  0  0  0  0  0  0  0  0  0  0
  143.5980  160.1480  133.7610 C   0  0  0  0  0  0  0  0  0  0  0  0
  142.1840  160.4660  134.0510 C   0  0  0  0  0  0  0  0  0  0  0  0
  141.5120  159.8050  135.1210 N   0  0  0  0  0  0  0  0  0  0  0  0
  141.5550  161.3030  133.3510 O   0  0  0  0  0  0  0  0  0  0  0  0
  144.6290  161.0860  133.7920 C   0  0  0  0  0  0  0  0  0  0  0  0
  145.7770  160.3760  133.5190 C   0  0  0  0  0  0  0  0  0  0  0  0
  147.0970  160.8060  133.4170 C   0  0  0  0  0  0  0  0  0  0  0  0
  148.0790  159.8480  133.1100 C   0  0  0  0  0  0  0  0  0  0  0  0
  147.7270  158.4920  132.9000 C   0  0  0  0  0  0  0  0  0  0  0  0
  148.7890  157.4840  132.5700 C   0  0  0  0  0  0  0  0  0  0  0  0
  149.5320  157.9260  131.4910 F   0  0  0  0  0  0  0  0  0  0  0  0
  148.2010  156.2720  132.2560 F   0  0  0  0  0  0  0  0  0  0  0  0
  146.3750  158.0960  133.0030 C   0  0  0  0  0  0  0  0  0  0  0  0
  145.4230  159.0660  133.3320 C   0  0  0  0  0  0  0  0  0  0  0  0
  139.0418  160.1979  133.2430 H   0  0  0  0  0  0  0  0  0  0  0  0
  140.1827  160.4867  131.8858 H   0  0  0  0  0  0  0  0  0  0  0  0
  138.5689  161.2755  131.8858 H   0  0  0  0  0  0  0  0  0  0  0  0
  136.4842  159.4581  132.0591 H   0  0  0  0  0  0  0  0  0  0  0  0
  136.9083  160.3036  130.5320 H   0  0  0  0  0  0  0  0  0  0  0  0
  136.6472  158.5264  130.5320 H   0  0  0  0  0  0  0  0  0  0  0  0
  140.3361  158.7496  130.2740 H   0  0  0  0  0  0  0  0  0  0  0  0
  138.8234  158.1706  129.4974 H   0  0  0  0  0  0  0  0  0  0  0  0
  139.2192  159.9227  129.4974 H   0  0  0  0  0  0  0  0  0  0  0  0
  140.1057  155.8875  133.6945 H   0  0  0  0  0  0  0  0  0  0  0  0
  141.1533  157.0297  132.7265 H   0  0  0  0  0  0  0  0  0  0  0  0
  141.1370  158.2170  135.0310 H   0  0  0  0  0  0  0  0  0  0  0  0
  139.8044  156.2266  135.9060 H   0  0  0  0  0  0  0  0  0  0  0  0
  141.4509  155.4805  135.9972 H   0  0  0  0  0  0  0  0  0  0  0  0
  140.5570  159.4030  134.9890 H   0  0  0  0  0  0  0  0  0  0  0  0
  144.5436  162.1643  133.9921 H   0  0  0  0  0  0  0  0  0  0  0  0
  147.3633  161.8620  133.5717 H   0  0  0  0  0  0  0  0  0  0  0  0
  149.1325  160.1548  133.0320 H   0  0  0  0  0  0  0  0  0  0  0  0
  149.4478  157.3567  133.4416 H   0  0  0  0  0  0  0  0  0  0  0  0
  146.0786  157.0511  132.8288 H   0  0  0  0  0  0  0  0  0  0  0  0
  1  2  1  0
  2  3  1  0
  2  4  1  0
  2  5  1  0
  5  6  1  0
  6  7  2  0
  6  8  1  0
  8  9  1  0
  9 10  1  0
 10 11  1  0
 11 12  3  0
  9 13  1  0
 13 14  2  0
 13 15  1  0
 15 16  2  0
 15 17  1  0
 17 18  1  0
 18 19  1  0
 19 20  1  0
 19 21  2  0
 18 22  2  0
 22 23  1  0
 23 24  2  0
 24 25  1  0
 25 26  2  0
 26 27  1  0
 27 28  1  0
 27 29  1  0
 26 30  1  0
 30 31  2  0
 31 17  1  0
 31 23  1  0
  1 32  1  0
  1 33  1  0
  1 34  1  0
  3 35  1  0
  3 36  1  0
  3 37  1  0
  4 38  1  0
  4 39  1  0
  4 40  1  0
  8 41  1  0
  8 42  1  0
  9 43  1  1
 10 44  1  0
 10 45  1  0
 20 46  1  0
 22 47  1  0
 24 48  1  0
 25 49  1  0
 27 50  1  0
 30 51  1  0
M  CHG  2   9   1  20  -1
M  END
>  <UniqueID>  (80) 
80

>  <SMILES>  (80) 
CC(C)(C)OC(=O)C[N@@H+](CC#N)C(=O)C(=O)n1c(C([NH-])=O)cc2ccc(C(F)F)cc21

>  <Energy>  (80) 
87.34842504016167

>  <Genealogy>  (80) 
CC(C)(C)OC(=O)C[NH+](CC#N)C(=O)C(=O)n1c(C([NH-])=O)cc2ccc(C(F)F)cc21 (protonated)
CC(C)(C)OC(=O)C[N@@H+](CC#N)C(=O)C(=O)n1c(C([NH-])=O)cc2ccc(C(F)F)cc21 (chirality)
CC(C)(C)OC(=O)C[N@@H+](CC#N)C(=O)C(=O)n1c(C([NH-])=O)cc2ccc(C(F)F)cc21 (3D coordinates assigned)
CC(C)(C)OC(=O)C[N@@H+](CC#N)C(=O)C(=O)n1c(C([NH-])=O)cc2ccc(C(F)F)cc21 (optimized conformer: 87.34842504016167 kcal/mol)

>  <smiles>  (80) 
CC(C)(C)OC(=O)CN(CC#N)C(=O)C(=O)n1c(C(N)=O)cc2ccc(C(F)F)cc21

>  <score_type>  (80) 
oracle

>  <origin>  (80) 
adg

>  <m_score__min__energy>  (80) 
-6.6500000000000004

>  <m_primary>  (80) 
energy

$$$$
81:0
     RDKit          3D

 35 36  0  0  0  0  0  0  0  0999 V2000
  138.1509  159.0274  132.2002 H   0  0  0  0  0  0  0  0  0  0  0  0
  139.1640  158.9090  132.6120 C   0  0  0  0  0  0  0  0  0  0  0  0
  139.5310  157.5870  133.1530 C   0  0  0  0  0  0  0  0  0  0  0  0
  139.8370  156.6580  132.3620 O   0  0  0  0  0  0  0  0  0  0  0  0
  139.6240  157.3750  134.5220 O   0  0  0  0  0  0  0  0  0  0  0  0
  139.9730  159.9760  132.5850 C   0  0  0  0  0  0  0  0  0  0  0  0
  139.6526  160.8432  131.9890 H   0  0  0  0  0  0  0  0  0  0  0  0
  141.2610  160.0740  133.2950 C   0  0  0  0  0  0  0  0  0  0  0  0
  141.3620  160.8920  134.2490 O   0  0  0  0  0  0  0  0  0  0  0  0
  142.3390  159.1750  132.9860 N   0  0  0  0  0  0  0  0  0  0  0  0
  142.1440  158.3810  132.3370 H   0  0  0  0  0  0  0  0  0  0  0  0
  143.6080  159.1960  133.6640 C   0  0  0  0  0  0  0  0  0  0  0  0
  143.9450  160.1980  134.3510 O   0  0  0  0  0  0  0  0  0  0  0  0
  144.4840  158.0610  133.5930 N   0  0  0  0  0  0  0  0  0  0  0  0
  144.2590  156.7950  134.0440 C   0  0  0  0  0  0  0  0  0  0  0  0
  142.9680  156.2680  134.5290 C   0  0  0  0  0  0  0  0  0  0  0  0
  142.8550  155.9240  135.7360 O   0  0  0  0  0  0  0  0  0  0  0  0
  141.8660  156.0820  133.6420 N   0  0  0  0  0  0  0  0  0  0  0  0
  140.9570  155.7230  134.0080 H   0  0  0  0  0  0  0  0  0  0  0  0
  141.9720  156.2180  132.6120 H   0  0  0  0  0  0  0  0  0  0  0  0
  145.4070  156.0170  133.9230 C   0  0  0  0  0  0  0  0  0  0  0  0
  145.5330  154.9632  134.2121 H   0  0  0  0  0  0  0  0  0  0  0  0
  146.3510  156.8490  133.3640 C   0  0  0  0  0  0  0  0  0  0  0  0
  147.6760  156.5980  133.0220 C   0  0  0  0  0  0  0  0  0  0  0  0
  148.1206  155.6026  133.1687 H   0  0  0  0  0  0  0  0  0  0  0  0
  148.4280  157.6540  132.4840 C   0  0  0  0  0  0  0  0  0  0  0  0
  149.4725  157.4803  132.1859 H   0  0  0  0  0  0  0  0  0  0  0  0
  147.8580  158.9420  132.3200 C   0  0  0  0  0  0  0  0  0  0  0  0
  148.6650  160.0580  131.7040 C   0  0  0  0  0  0  0  0  0  0  0  0
  149.9910  159.9740  132.0930 F   0  0  0  0  0  0  0  0  0  0  0  0
  148.6150  159.9930  130.3230 F   0  0  0  0  0  0  0  0  0  0  0  0
  148.1510  161.2720  132.1180 F   0  0  0  0  0  0  0  0  0  0  0  0
  146.5000  159.1510  132.6590 C   0  0  0  0  0  0  0  0  0  0  0  0
  146.0298  160.1356  132.5192 H   0  0  0  0  0  0  0  0  0  0  0  0
  145.7700  158.0760  133.1760 C   0  0  0  0  0  0  0  0  0  0  0  0
  1  2  1  0
  2  3  1  0
  3  4  2  0
  3  5  1  0
  2  6  2  0
  6  7  1  0
  6  8  1  0
  8  9  2  0
  8 10  1  0
 10 11  1  0
 10 12  1  0
 12 13  2  0
 12 14  1  0
 14 15  1  0
 15 16  1  0
 16 17  2  0
 16 18  1  0
 18 19  1  0
 18 20  1  0
 15 21  2  0
 21 22  1  0
 21 23  1  0
 23 24  2  0
 24 25  1  0
 24 26  1  0
 26 27  1  0
 26 28  2  0
 28 29  1  0
 29 30  1  0
 29 31  1  0
 29 32  1  0
 28 33  1  0
 33 34  1  0
 33 35  2  0
 35 14  1  0
 35 23  1  0
M  CHG  1   5  -1
M  END
>  <UniqueID>  (81) 
81

>  <SMILES>  (81) 
NC(=O)c1cc2ccc(C(F)(F)F)cc2n1C(=O)NC(=O)/C=C\C(=O)[O-]

>  <Energy>  (81) 
82.33043884900938

>  <Genealogy>  (81) 
NC(=O)c1cc2ccc(C(F)(F)F)cc2n1C(=O)NC(=O)/C=C\C(=O)[O-] (protonated)
NC(=O)c1cc2ccc(C(F)(F)F)cc2n1C(=O)NC(=O)/C=C\C(=O)[O-] (cis-trans isomerization)
NC(=O)c1cc2ccc(C(F)(F)F)cc2n1C(=O)NC(=O)/C=C\C(=O)[O-] (3D coordinates assigned)
NC(=O)c1cc2ccc(C(F)(F)F)cc2n1C(=O)NC(=O)/C=C\C(=O)[O-] (optimized conformer: 82.33043884900938 kcal/mol)

>  <smiles>  (81) 
NC(=O)c1cc2ccc(C(F)(F)F)cc2n1C(=O)NC(=O)/C=C\C(=O)O

>  <score_type>  (81) 
oracle

>  <origin>  (81) 
adg

>  <m_score__min__energy>  (81) 
-6.8799999999999999

>  <m_primary>  (81) 
energy

$$$$
82:0
     RDKit          3D

 53 54  0  0  0  0  0  0  0  0999 V2000
  140.2650  157.3420  133.8440 C   0  0  0  0  0  0  0  0  0  0  0  0
  140.9220  156.6850  135.0520 C   0  0  1  0  0  0  0  0  0  0  0  0
  142.2900  157.0770  135.1030 O   0  0  0  0  0  0  0  0  0  0  0  0
  143.0440  157.3580  133.9580 C   0  0  0  0  0  0  0  0  0  0  0  0
  143.0330  156.5650  132.9770 O   0  0  0  0  0  0  0  0  0  0  0  0
  143.8210  158.5630  133.8970 N   0  0  0  0  0  0  0  0  0  0  0  0
  143.3610  159.8460  133.8680 C   0  0  0  0  0  0  0  0  0  0  0  0
  141.9590  160.2690  134.0690 C   0  0  0  0  0  0  0  0  0  0  0  0
  141.2470  159.9070  135.2490 N   0  0  0  0  0  0  0  0  0  0  0  0
  141.3990  160.9990  133.2090 O   0  0  0  0  0  0  0  0  0  0  0  0
  144.4180  160.7380  133.7040 C   0  0  0  0  0  0  0  0  0  0  0  0
  145.5490  159.9570  133.6410 C   0  0  0  0  0  0  0  0  0  0  0  0
  146.8810  160.3210  133.4720 C   0  0  0  0  0  0  0  0  0  0  0  0
  147.8430  159.2990  133.4140 C   0  0  0  0  0  0  0  0  0  0  0  0
  147.4590  157.9340  133.5170 C   0  0  0  0  0  0  0  0  0  0  0  0
  148.4270  156.8710  133.4480 N   0  0  0  0  0  0  0  0  0  0  0  0
  148.1000  155.4680  133.7210 C   0  0  0  0  0  0  0  0  0  0  0  0
  147.6330  155.2680  135.1680 C   0  0  0  0  0  0  0  0  0  0  0  0
  147.7420  153.8330  135.5840 C   0  0  0  0  0  0  0  0  0  0  0  0
  148.4850  153.0410  134.9460 O   0  0  0  0  0  0  0  0  0  0  0  0
  146.9950  153.3630  136.6560 O   0  0  0  0  0  0  0  0  0  0  0  0
  146.0950  157.6080  133.6870 C   0  0  0  0  0  0  0  0  0  0  0  0
  145.1630  158.6480  133.7600 C   0  0  0  0  0  0  0  0  0  0  0  0
  140.2740  157.1050  136.2520 O   0  0  0  0  0  0  0  0  0  0  0  0
  140.9500  157.3780  137.4480 C   0  0  0  0  0  0  0  0  0  0  0  0
  141.2380  158.5690  137.7560 O   0  0  0  0  0  0  0  0  0  0  0  0
  141.3910  156.2380  138.3460 C   0  0  0  0  0  0  0  0  0  0  0  0
  140.2020  155.3040  138.6520 C   0  0  0  0  0  0  0  0  0  0  0  0
  141.9360  156.7990  139.6760 C   0  0  0  0  0  0  0  0  0  0  0  0
  142.4940  155.4410  137.6300 C   0  0  0  0  0  0  0  0  0  0  0  0
  139.5256  158.0813  134.1856 H   0  0  0  0  0  0  0  0  0  0  0  0
  141.0327  157.8445  133.2372 H   0  0  0  0  0  0  0  0  0  0  0  0
  139.7625  156.5743  133.2372 H   0  0  0  0  0  0  0  0  0  0  0  0
  140.8395  155.5919  134.9602 H   0  0  0  0  0  0  0  0  0  0  0  0
  141.2850  158.9330  135.6240 H   0  0  0  0  0  0  0  0  0  0  0  0
  144.3607  161.8346  133.6387 H   0  0  0  0  0  0  0  0  0  0  0  0
  147.1724  161.3782  133.3863 H   0  0  0  0  0  0  0  0  0  0  0  0
  148.9047  159.5576  133.2876 H   0  0  0  0  0  0  0  0  0  0  0  0
  149.4110  157.1190  133.1960 H   0  0  0  0  0  0  0  0  0  0  0  0
  147.2973  155.1495  133.0396 H   0  0  0  0  0  0  0  0  0  0  0  0
  149.0082  154.8669  133.5666 H   0  0  0  0  0  0  0  0  0  0  0  0
  148.2573  155.8821  135.8337 H   0  0  0  0  0  0  0  0  0  0  0  0
  146.5771  155.5689  135.2358 H   0  0  0  0  0  0  0  0  0  0  0  0
  145.7730  156.5588  133.7604 H   0  0  0  0  0  0  0  0  0  0  0  0
  140.0812  155.2091  139.7412 H   0  0  0  0  0  0  0  0  0  0  0  0
  139.2837  155.7247  138.2165 H   0  0  0  0  0  0  0  0  0  0  0  0
  140.3933  154.3122  138.2165 H   0  0  0  0  0  0  0  0  0  0  0  0
  141.4426  156.2911  140.5178 H   0  0  0  0  0  0  0  0  0  0  0  0
  143.0212  156.6271  139.7292 H   0  0  0  0  0  0  0  0  0  0  0  0
  141.7328  157.8788  139.7292 H   0  0  0  0  0  0  0  0  0  0  0  0
  143.1484  154.9681  138.3771 H   0  0  0  0  0  0  0  0  0  0  0  0
  142.0353  154.6644  137.0004 H   0  0  0  0  0  0  0  0  0  0  0  0
  143.0873  156.1203  137.0004 H   0  0  0  0  0  0  0  0  0  0  0  0
  1  2  1  0
  2  3  1  0
  3  4  1  0
  4  5  2  0
  4  6  1  0
  6  7  1  0
  7  8  1  0
  8  9  1  0
  8 10  2  0
  7 11  2  0
 11 12  1  0
 12 13  2  0
 13 14  1  0
 14 15  2  0
 15 16  1  0
 16 17  1  0
 17 18  1  0
 18 19  1  0
 19 20  2  0
 19 21  1  0
 15 22  1  0
 22 23  2  0
  2 24  1  0
 24 25  1  0
 25 26  2  0
 25 27  1  0
 27 28  1  0
 27 29  1  0
 27 30  1  0
 23  6  1  0
 23 12  1  0
  1 31  1  0
  1 32  1  0
  1 33  1  0
  2 34  1  6
  9 35  1  0
 11 36  1  0
 13 37  1  0
 14 38  1  0
 16 39  1  0
 17 40  1  0
 17 41  1  0
 18 42  1  0
 18 43  1  0
 22 44  1  0
 28 45  1  0
 28 46  1  0
 28 47  1  0
 29 48  1  0
 29 49  1  0
 29 50  1  0
 30 51  1  0
 30 52  1  0
 30 53  1  0
M  CHG  2   9  -1  21  -1
M  END
>  <UniqueID>  (82) 
82

>  <SMILES>  (82) 
C[C@@H](OC(=O)n1c(C([NH-])=O)cc2ccc(NCCC(=O)[O-])cc21)OC(=O)C(C)(C)C

>  <Energy>  (82) 
78.00820106644359

>  <Genealogy>  (82) 
CC(OC(=O)n1c(C([NH-])=O)cc2ccc(NCCC(=O)[O-])cc21)OC(=O)C(C)(C)C (protonated)
C[C@@H](OC(=O)n1c(C([NH-])=O)cc2ccc(NCCC(=O)[O-])cc21)OC(=O)C(C)(C)C (chirality)
C[C@@H](OC(=O)n1c(C([NH-])=O)cc2ccc(NCCC(=O)[O-])cc21)OC(=O)C(C)(C)C (3D coordinates assigned)
C[C@@H](OC(=O)n1c(C([NH-])=O)cc2ccc(NCCC(=O)[O-])cc21)OC(=O)C(C)(C)C (optimized conformer: 78.00820106644359 kcal/mol)

>  <smiles>  (82) 
CC(OC(=O)n1c(C(N)=O)cc2ccc(NCCC(=O)O)cc21)OC(=O)C(C)(C)C

>  <score_type>  (82) 
oracle

>  <origin>  (82) 
adg

>  <m_score__min__energy>  (82) 
-8.3399999999999999

>  <m_primary>  (82) 
energy

$$$$
83:0
     RDKit          3D

 65 67  0  0  0  0  0  0  0  0999 V2000
  139.1300  158.6130  131.8550 C   0  0  0  0  0  0  0  0  0  0  0  0
  139.4100  158.9440  133.1960 O   0  0  0  0  0  0  0  0  0  0  0  0
  139.0660  157.8600  134.0350 C   0  0  0  0  0  0  0  0  0  0  0  0
  139.4520  156.5180  133.3740 C   0  0  0  0  0  0  0  0  0  0  0  0
  140.8100  156.0280  133.7080 N   0  0  0  0  0  0  0  0  0  0  0  0
  141.4500  156.7270  134.8470 C   0  0  0  0  0  0  0  0  0  0  0  0
  141.6820  155.7900  136.0320 C   0  0  0  0  0  0  0  0  0  0  0  0
  142.5730  154.6960  135.6170 N   0  0  0  0  0  0  0  0  0  0  0  0
  143.0230  153.7790  136.6910 C   0  0  0  0  0  0  0  0  0  0  0  0
  144.5490  153.7440  136.9400 C   0  0  0  0  0  0  0  0  0  0  0  0
  145.3840  154.4710  135.8750 C   0  0  2  0  0  0  0  0  0  0  0  0
  145.0510  153.9440  134.5920 O   0  0  0  0  0  0  0  0  0  0  0  0
  145.9520  153.8760  133.5240 C   0  0  0  0  0  0  0  0  0  0  0  0
  145.9880  152.8490  132.7970 O   0  0  0  0  0  0  0  0  0  0  0  0
  146.8000  155.0020  133.2300 N   0  0  0  0  0  0  0  0  0  0  0  0
  148.1380  154.9720  132.9880 C   0  0  0  0  0  0  0  0  0  0  0  0
  148.9610  153.7560  132.9240 C   0  0  0  0  0  0  0  0  0  0  0  0
  148.5790  152.5890  133.6510 N   0  0  0  0  0  0  0  0  0  0  0  0
  150.0040  153.7440  132.2210 O   0  0  0  0  0  0  0  0  0  0  0  0
  148.6530  156.2550  132.8570 C   0  0  0  0  0  0  0  0  0  0  0  0
  147.5720  157.0920  133.0110 C   0  0  0  0  0  0  0  0  0  0  0  0
  147.5030  158.4800  132.9450 C   0  0  0  0  0  0  0  0  0  0  0  0
  146.2480  159.0870  133.1170 C   0  0  0  0  0  0  0  0  0  0  0  0
  145.0920  158.3030  133.3660 C   0  0  0  0  0  0  0  0  0  0  0  0
  143.7400  158.9580  133.4940 C   0  0  0  0  0  0  0  0  0  0  0  0
  142.8220  158.2610  132.7290 F   0  0  0  0  0  0  0  0  0  0  0  0
  143.3230  158.9570  134.8130 F   0  0  0  0  0  0  0  0  0  0  0  0
  143.7860  160.2700  133.0570 F   0  0  0  0  0  0  0  0  0  0  0  0
  145.2000  156.8940  133.4050 C   0  0  0  0  0  0  0  0  0  0  0  0
  146.4650  156.3150  133.2380 C   0  0  0  0  0  0  0  0  0  0  0  0
  146.8530  154.2840  136.1270 C   0  0  0  0  0  0  0  0  0  0  0  0
  147.6270  155.2780  136.1050 O   0  0  0  0  0  0  0  0  0  0  0  0
  147.3510  152.9970  136.3560 O   0  0  0  0  0  0  0  0  0  0  0  0
  148.5160  152.7560  137.1350 C   0  0  0  0  0  0  0  0  0  0  0  0
  142.2550  154.0680  134.3130 C   0  0  0  0  0  0  0  0  0  0  0  0
  140.9190  154.5520  133.7210 C   0  0  0  0  0  0  0  0  0  0  0  0
  138.4198  157.7735  131.8251 H   0  0  0  0  0  0  0  0  0  0  0  0
  138.6901  159.4837  131.3466 H   0  0  0  0  0  0  0  0  0  0  0  0
  140.0615  158.3235  131.3466 H   0  0  0  0  0  0  0  0  0  0  0  0
  139.6005  157.9590  134.9913 H   0  0  0  0  0  0  0  0  0  0  0  0
  137.9791  157.8728  134.2039 H   0  0  0  0  0  0  0  0  0  0  0  0
  138.7253  155.7571  133.6948 H   0  0  0  0  0  0  0  0  0  0  0  0
  139.4452  156.6947  132.2883 H   0  0  0  0  0  0  0  0  0  0  0  0
  142.4188  157.1308  134.5177 H   0  0  0  0  0  0  0  0  0  0  0  0
  140.7763  157.5322  135.1754 H   0  0  0  0  0  0  0  0  0  0  0  0
  142.1462  156.3492  136.8577 H   0  0  0  0  0  0  0  0  0  0  0  0
  140.7204  155.3755  136.3688 H   0  0  0  0  0  0  0  0  0  0  0  0
  142.5338  154.0871  137.6268 H   0  0  0  0  0  0  0  0  0  0  0  0
  142.7477  152.7670  136.3593 H   0  0  0  0  0  0  0  0  0  0  0  0
  144.7493  154.2144  137.9140 H   0  0  0  0  0  0  0  0  0  0  0  0
  144.8481  152.6861  136.9043 H   0  0  0  0  0  0  0  0  0  0  0  0
  145.1604  155.5472  135.9178 H   0  0  0  0  0  0  0  0  0  0  0  0
  147.6900  152.5740  134.1950 H   0  0  0  0  0  0  0  0  0  0  0  0
  149.1790  151.7350  133.6310 H   0  0  0  0  0  0  0  0  0  0  0  0
  149.6988  156.5403  132.6705 H   0  0  0  0  0  0  0  0  0  0  0  0
  148.4043  159.0840  132.7636 H   0  0  0  0  0  0  0  0  0  0  0  0
  146.1605  160.1819  133.0580 H   0  0  0  0  0  0  0  0  0  0  0  0
  144.3107  156.2661  133.5629 H   0  0  0  0  0  0  0  0  0  0  0  0
  148.2601  152.8089  138.2035 H   0  0  0  0  0  0  0  0  0  0  0  0
  148.9126  151.7568  136.9020 H   0  0  0  0  0  0  0  0  0  0  0  0
  149.2765  153.5158  136.9020 H   0  0  0  0  0  0  0  0  0  0  0  0
  143.0602  154.3079  133.6030 H   0  0  0  0  0  0  0  0  0  0  0  0
  142.1659  152.9849  134.4830 H   0  0  0  0  0  0  0  0  0  0  0  0
  140.8356  154.1824  132.6883 H   0  0  0  0  0  0  0  0  0  0  0  0
  140.1097  154.1613  134.3553 H   0  0  0  0  0  0  0  0  0  0  0  0
  1  2  1  0
  2  3  1  0
  3  4  1  0
  4  5  1  0
  5  6  1  0
  6  7  1  0
  7  8  1  0
  8  9  1  0
  9 10  1  0
 10 11  1  0
 11 12  1  0
 12 13  1  0
 13 14  2  0
 13 15  1  0
 15 16  1  0
 16 17  1  0
 17 18  1  0
 17 19  2  0
 16 20  2  0
 20 21  1  0
 21 22  2  0
 22 23  1  0
 23 24  2  0
 24 25  1  0
 25 26  1  0
 25 27  1  0
 25 28  1  0
 24 29  1  0
 29 30  2  0
 11 31  1  0
 31 32  2  0
 31 33  1  0
 33 34  1  0
  8 35  1  0
 35 36  1  0
 36  5  1  0
 30 15  1  0
 30 21  1  0
  1 37  1  0
  1 38  1  0
  1 39  1  0
  3 40  1  0
  3 41  1  0
  4 42  1  0
  4 43  1  0
  6 44  1  0
  6 45  1  0
  7 46  1  0
  7 47  1  0
  9 48  1  0
  9 49  1  0
 10 50  1  0
 10 51  1  0
 11 52  1  6
 18 53  1  0
 18 54  1  0
 20 55  1  0
 22 56  1  0
 23 57  1  0
 29 58  1  0
 34 59  1  0
 34 60  1  0
 34 61  1  0
 35 62  1  0
 35 63  1  0
 36 64  1  0
 36 65  1  0
M  END
>  <UniqueID>  (83) 
83

>  <SMILES>  (83) 
COCCN1CCN(CC[C@H](OC(=O)n2c(C(N)=O)cc3ccc(C(F)(F)F)cc32)C(=O)OC)CC1

>  <Energy>  (83) 
121.12603728160624

>  <Genealogy>  (83) 
COCCN1CCN(CC[C@H](OC(=O)n2c(C(N)=O)cc3ccc(C(F)(F)F)cc32)C(=O)OC)CC1 (chirality)
COCCN1CCN(CC[C@H](OC(=O)n2c(C(N)=O)cc3ccc(C(F)(F)F)cc32)C(=O)OC)CC1 (3D coordinates assigned)
COCCN1CCN(CC[C@H](OC(=O)n2c(C(N)=O)cc3ccc(C(F)(F)F)cc32)C(=O)OC)CC1 (nonaromatic ring conformer: 121.12603728160624 kcal/mol)

>  <smiles>  (83) 
COCCN1CCN(CCC(OC(=O)n2c(C(N)=O)cc3ccc(C(F)(F)F)cc32)C(=O)OC)CC1

>  <score_type>  (83) 
oracle

>  <origin>  (83) 
adg

>  <m_score__min__energy>  (83) 
-8.0999999999999996

>  <m_primary>  (83) 
energy

$$$$
84:0
     RDKit          3D

 39 40  0  0  0  0  0  0  0  0999 V2000
  148.4870  153.0600  132.5990 C   0  0  0  0  0  0  0  0  0  0  0  0
  147.3100  153.6550  133.3590 C   0  0  2  0  0  0  0  0  0  0  0  0
  147.7120  153.8950  134.7080 O   0  0  0  0  0  0  0  0  0  0  0  0
  146.8240  154.1490  135.7590 C   0  0  0  0  0  0  0  0  0  0  0  0
  146.7210  153.3550  136.7320 O   0  0  0  0  0  0  0  0  0  0  0  0
  146.0280  155.2850  135.7180 O   0  0  0  0  0  0  0  0  0  0  0  0
  146.2310  152.7220  133.3360 O   0  0  0  0  0  0  0  0  0  0  0  0
  144.8980  153.0800  133.1180 C   0  0  0  0  0  0  0  0  0  0  0  0
  144.3420  152.8360  132.0120 O   0  0  0  0  0  0  0  0  0  0  0  0
  144.1700  153.7230  134.1730 N   0  0  0  0  0  0  0  0  0  0  0  0
  142.7910  154.1100  134.0830 C   0  0  0  0  0  0  0  0  0  0  0  0
  142.0900  153.7620  133.0950 O   0  0  0  0  0  0  0  0  0  0  0  0
  142.1960  154.8940  135.1310 N   0  0  0  0  0  0  0  0  0  0  0  0
  142.2010  154.6330  136.4680 C   0  0  0  0  0  0  0  0  0  0  0  0
  142.9440  153.5320  137.1220 C   0  0  0  0  0  0  0  0  0  0  0  0
  144.3520  153.6290  137.3460 N   0  0  0  0  0  0  0  0  0  0  0  0
  142.3400  152.4830  137.4730 O   0  0  0  0  0  0  0  0  0  0  0  0
  141.4650  155.5990  137.1540 C   0  0  0  0  0  0  0  0  0  0  0  0
  141.0030  156.4610  136.1850 C   0  0  0  0  0  0  0  0  0  0  0  0
  140.1930  157.5860  136.3020 C   0  0  0  0  0  0  0  0  0  0  0  0
  139.8360  158.2660  135.1250 C   0  0  0  0  0  0  0  0  0  0  0  0
  140.2970  157.8180  133.8590 C   0  0  0  0  0  0  0  0  0  0  0  0
  139.8530  158.5170  132.5990 C   0  0  0  0  0  0  0  0  0  0  0  0
  140.9460  158.9190  131.8520 F   0  0  0  0  0  0  0  0  0  0  0  0
  139.1020  159.6270  132.9350 F   0  0  0  0  0  0  0  0  0  0  0  0
  139.0830  157.6710  131.8190 F   0  0  0  0  0  0  0  0  0  0  0  0
  141.0980  156.6550  133.7820 C   0  0  0  0  0  0  0  0  0  0  0  0
  141.4550  156.0130  134.9730 C   0  0  0  0  0  0  0  0  0  0  0  0
  149.2326  152.6831  133.3145 H   0  0  0  0  0  0  0  0  0  0  0  0
  148.1343  152.2319  131.9666 H   0  0  0  0  0  0  0  0  0  0  0  0
  148.9447  153.8350  131.9666 H   0  0  0  0  0  0  0  0  0  0  0  0
  146.9884  154.5998  132.8964 H   0  0  0  0  0  0  0  0  0  0  0  0
  144.6800  153.9150  135.0640 H   0  0  0  0  0  0  0  0  0  0  0  0
  144.8800  154.5020  137.1300 H   0  0  0  0  0  0  0  0  0  0  0  0
  144.8700  152.8290  137.7750 H   0  0  0  0  0  0  0  0  0  0  0  0
  141.2908  155.6593  138.2384 H   0  0  0  0  0  0  0  0  0  0  0  0
  139.8427  157.9326  137.2855 H   0  0  0  0  0  0  0  0  0  0  0  0
  139.1919  159.1557  135.1853 H   0  0  0  0  0  0  0  0  0  0  0  0
  141.4323  156.2646  132.8095 H   0  0  0  0  0  0  0  0  0  0  0  0
  1  2  1  0
  2  3  1  0
  3  4  1  0
  4  5  2  0
  4  6  1  0
  2  7  1  0
  7  8  1  0
  8  9  2  0
  8 10  1  0
 10 11  1  0
 11 12  2  0
 11 13  1  0
 13 14  1  0
 14 15  1  0
 15 16  1  0
 15 17  2  0
 14 18  2  0
 18 19  1  0
 19 20  2  0
 20 21  1  0
 21 22  2  0
 22 23  1  0
 23 24  1  0
 23 25  1  0
 23 26  1  0
 22 27  1  0
 27 28  2  0
 28 13  1  0
 28 19  1  0
  1 29  1  0
  1 30  1  0
  1 31  1  0
  2 32  1  6
 10 33  1  0
 16 34  1  0
 16 35  1  0
 18 36  1  0
 20 37  1  0
 21 38  1  0
 27 39  1  0
M  CHG  1   6  -1
M  END
>  <UniqueID>  (84) 
84

>  <SMILES>  (84) 
C[C@H](OC(=O)[O-])OC(=O)NC(=O)n1c(C(N)=O)cc2ccc(C(F)(F)F)cc21

>  <Energy>  (84) 
75.20456850949549

>  <Genealogy>  (84) 
CC(OC(=O)[O-])OC(=O)NC(=O)n1c(C(N)=O)cc2ccc(C(F)(F)F)cc21 (protonated)
C[C@H](OC(=O)[O-])OC(=O)NC(=O)n1c(C(N)=O)cc2ccc(C(F)(F)F)cc21 (chirality)
C[C@H](OC(=O)[O-])OC(=O)NC(=O)n1c(C(N)=O)cc2ccc(C(F)(F)F)cc21 (3D coordinates assigned)
C[C@H](OC(=O)[O-])OC(=O)NC(=O)n1c(C(N)=O)cc2ccc(C(F)(F)F)cc21 (optimized conformer: 75.20456850949549 kcal/mol)

>  <smiles>  (84) 
CC(OC(=O)O)OC(=O)NC(=O)n1c(C(N)=O)cc2ccc(C(F)(F)F)cc21

>  <score_type>  (84) 
oracle

>  <origin>  (84) 
adg

>  <m_score__min__energy>  (84) 
-6.4800000000000004

>  <m_primary>  (84) 
energy

$$$$
85:0
     RDKit          3D

 39 40  0  0  0  0  0  0  0  0999 V2000
  141.0660  159.9490  133.6930 N   0  0  0  0  0  0  0  0  0  0  0  0
  142.4240  160.3920  133.7040 C   0  0  0  0  0  0  0  0  0  0  0  0
  142.6670  161.6280  133.7330 O   0  0  0  0  0  0  0  0  0  0  0  0
  143.5470  159.4330  133.7300 C   0  0  0  0  0  0  0  0  0  0  0  0
  144.7930  159.6870  133.1600 C   0  0  0  0  0  0  0  0  0  0  0  0
  145.5410  158.5570  133.4070 C   0  0  0  0  0  0  0  0  0  0  0  0
  146.8430  158.2470  133.0270 C   0  0  0  0  0  0  0  0  0  0  0  0
  147.3420  156.9770  133.3620 C   0  0  0  0  0  0  0  0  0  0  0  0
  146.5390  156.0450  134.0710 C   0  0  0  0  0  0  0  0  0  0  0  0
  147.0630  154.6620  134.3660 C   0  0  0  0  0  0  0  0  0  0  0  0
  146.0980  153.7070  134.0960 F   0  0  0  0  0  0  0  0  0  0  0  0
  148.1750  154.3870  133.5920 F   0  0  0  0  0  0  0  0  0  0  0  0
  147.4120  154.5850  135.7020 F   0  0  0  0  0  0  0  0  0  0  0  0
  145.2110  156.3900  134.4130 C   0  0  0  0  0  0  0  0  0  0  0  0
  144.7510  157.6720  134.0910 C   0  0  0  0  0  0  0  0  0  0  0  0
  143.5240  158.1970  134.3030 N   0  0  0  0  0  0  0  0  0  0  0  0
  142.3890  157.5200  134.8620 C   0  0  0  0  0  0  0  0  0  0  0  0
  141.6610  158.1160  135.7010 O   0  0  0  0  0  0  0  0  0  0  0  0
  142.0840  156.1280  134.4980 C   0  0  0  0  0  0  0  0  0  0  0  0
  142.5210  155.1800  135.2060 O   0  0  0  0  0  0  0  0  0  0  0  0
  141.2700  155.8560  133.3560 N   0  0  0  0  0  0  0  0  0  0  0  0
  139.8220  156.0060  133.3660 C   0  0  0  0  0  0  0  0  0  0  0  0
  139.4670  157.4610  133.2850 C   0  0  0  0  0  0  0  0  0  0  0  0
  138.8930  158.0070  134.2620 O   0  0  0  0  0  0  0  0  0  0  0  0
  139.7230  158.2400  132.1080 N   0  0  0  0  0  0  0  0  0  0  0  0
  138.7170  158.6630  131.1400 C   0  0  0  0  0  0  0  0  0  0  0  0
  138.3010  160.0750  131.4000 C   0  0  0  0  0  0  0  0  0  0  0  0
  139.1270  160.9060  131.8600 O   0  0  0  0  0  0  0  0  0  0  0  0
  137.0070  160.4860  131.1020 O   0  0  0  0  0  0  0  0  0  0  0  0
  140.2910  160.6440  133.6150 H   0  0  0  0  0  0  0  0  0  0  0  0
  140.8200  158.9510  133.8670 H   0  0  0  0  0  0  0  0  0  0  0  0
  145.1110  160.5952  132.6271 H   0  0  0  0  0  0  0  0  0  0  0  0
  147.4626  158.9737  132.4811 H   0  0  0  0  0  0  0  0  0  0  0  0
  148.3666  156.7016  133.0717 H   0  0  0  0  0  0  0  0  0  0  0  0
  144.5547  155.6676  134.9203 H   0  0  0  0  0  0  0  0  0  0  0  0
  139.3930  155.4758  132.5030 H   0  0  0  0  0  0  0  0  0  0  0  0
  139.4170  155.5821  134.2967 H   0  0  0  0  0  0  0  0  0  0  0  0
  139.1373  158.5903  130.1260 H   0  0  0  0  0  0  0  0  0  0  0  0
  137.8368  158.0100  131.2335 H   0  0  0  0  0  0  0  0  0  0  0  0
  1  2  1  0
  2  3  2  0
  2  4  1  0
  4  5  2  0
  5  6  1  0
  6  7  2  0
  7  8  1  0
  8  9  2  0
  9 10  1  0
 10 11  1  0
 10 12  1  0
 10 13  1  0
  9 14  1  0
 14 15  2  0
 15 16  1  0
 16 17  1  0
 17 18  2  0
 17 19  1  0
 19 20  2  0
 19 21  1  0
 21 22  1  0
 22 23  1  0
 23 24  2  0
 23 25  1  0
 25 26  1  0
 26 27  1  0
 27 28  2  0
 27 29  1  0
 16  4  1  0
 15  6  1  0
  1 30  1  0
  1 31  1  0
  5 32  1  0
  7 33  1  0
  8 34  1  0
 14 35  1  0
 22 36  1  0
 22 37  1  0
 26 38  1  0
 26 39  1  0
M  CHG  3  21  -1  25  -1  29  -1
M  END
>  <UniqueID>  (85) 
85

>  <SMILES>  (85) 
NC(=O)c1cc2ccc(C(F)(F)F)cc2n1C(=O)C(=O)[N-]CC(=O)[N-]CC(=O)[O-]

>  <Energy>  (85) 
73.74846660235066

>  <Genealogy>  (85) 
NC(=O)c1cc2ccc(C(F)(F)F)cc2n1C(=O)C(=O)[N-]CC(=O)[N-]CC(=O)[O-] (protonated)
NC(=O)c1cc2ccc(C(F)(F)F)cc2n1C(=O)C(=O)[N-]CC(=O)[N-]CC(=O)[O-] (3D coordinates assigned)
NC(=O)c1cc2ccc(C(F)(F)F)cc2n1C(=O)C(=O)[N-]CC(=O)[N-]CC(=O)[O-] (optimized conformer: 73.74846660235066 kcal/mol)

>  <smiles>  (85) 
NC(=O)c1cc2ccc(C(F)(F)F)cc2n1C(=O)C(=O)NCC(=O)NCC(=O)O

>  <score_type>  (85) 
oracle

>  <origin>  (85) 
adg

>  <m_score__min__energy>  (85) 
-7.54

>  <m_primary>  (85) 
energy

$$$$
86:0
     RDKit          3D

 43 44  0  0  0  0  0  0  0  0999 V2000
  139.4870  158.2160  135.1960 C   0  0  0  0  0  0  0  0  0  0  0  0
  139.0900  157.4140  133.9530 C   0  0  0  0  0  0  0  0  0  0  0  0
  138.3520  158.2890  132.9310 C   0  0  0  0  0  0  0  0  0  0  0  0
  140.2710  156.7620  133.3490 N   0  0  0  0  0  0  0  0  0  0  0  0
  140.2610  155.3240  133.0440 C   0  0  0  0  0  0  0  0  0  0  0  0
  141.3910  157.5720  132.9220 C   0  0  0  0  0  0  0  0  0  0  0  0
  141.1820  158.6260  132.2600 O   0  0  0  0  0  0  0  0  0  0  0  0
  142.8150  157.1530  133.1840 C   0  0  0  0  0  0  0  0  0  0  0  0
  143.4830  158.1060  134.1320 C   0  0  0  0  0  0  0  0  0  0  0  0
  142.9260  158.3870  135.2270 O   0  0  0  0  0  0  0  0  0  0  0  0
  144.6960  158.7770  133.7580 N   0  0  0  0  0  0  0  0  0  0  0  0
  144.9140  160.1160  133.6410 C   0  0  0  0  0  0  0  0  0  0  0  0
  143.8850  161.1720  133.7320 C   0  0  0  0  0  0  0  0  0  0  0  0
  142.4970  160.8450  133.7380 N   0  0  0  0  0  0  0  0  0  0  0  0
  144.2330  162.3820  133.7710 O   0  0  0  0  0  0  0  0  0  0  0  0
  146.2520  160.3650  133.3410 C   0  0  0  0  0  0  0  0  0  0  0  0
  146.8480  159.1250  133.2720 C   0  0  0  0  0  0  0  0  0  0  0  0
  148.1670  158.7760  133.0010 C   0  0  0  0  0  0  0  0  0  0  0  0
  148.5020  157.4110  133.0070 C   0  0  0  0  0  0  0  0  0  0  0  0
  147.5240  156.4250  133.3030 C   0  0  0  0  0  0  0  0  0  0  0  0
  147.8850  154.9610  133.2670 C   0  0  0  0  0  0  0  0  0  0  0  0
  149.0790  154.7690  132.5940 F   0  0  0  0  0  0  0  0  0  0  0  0
  148.0260  154.4620  134.5510 F   0  0  0  0  0  0  0  0  0  0  0  0
  146.8840  154.2620  132.6190 F   0  0  0  0  0  0  0  0  0  0  0  0
  146.1890  156.8200  133.5480 C   0  0  0  0  0  0  0  0  0  0  0  0
  145.8860  158.1840  133.5250 C   0  0  0  0  0  0  0  0  0  0  0  0
  139.2087  157.6537  136.0995 H   0  0  0  0  0  0  0  0  0  0  0  0
  140.5737  158.3867  135.1906 H   0  0  0  0  0  0  0  0  0  0  0  0
  138.9638  159.1836  135.1906 H   0  0  0  0  0  0  0  0  0  0  0  0
  138.3924  156.6252  134.2709 H   0  0  0  0  0  0  0  0  0  0  0  0
  137.7303  159.0261  133.4604 H   0  0  0  0  0  0  0  0  0  0  0  0
  139.0849  158.8131  132.3000 H   0  0  0  0  0  0  0  0  0  0  0  0
  137.7118  157.6550  132.3000 H   0  0  0  0  0  0  0  0  0  0  0  0
  140.2570  154.7502  133.9825 H   0  0  0  0  0  0  0  0  0  0  0  0
  139.3611  155.0791  132.4607 H   0  0  0  0  0  0  0  0  0  0  0  0
  141.1574  155.0667  132.4607 H   0  0  0  0  0  0  0  0  0  0  0  0
  142.8196  156.1444  133.6230 H   0  0  0  0  0  0  0  0  0  0  0  0
  143.3657  157.1575  132.2318 H   0  0  0  0  0  0  0  0  0  0  0  0
  142.1790  159.8520  133.7570 H   0  0  0  0  0  0  0  0  0  0  0  0
  146.7306  161.3440  133.1911 H   0  0  0  0  0  0  0  0  0  0  0  0
  148.9246  159.5447  132.7885 H   0  0  0  0  0  0  0  0  0  0  0  0
  149.5333  157.1031  132.7799 H   0  0  0  0  0  0  0  0  0  0  0  0
  145.4082  156.0724  133.7517 H   0  0  0  0  0  0  0  0  0  0  0  0
  1  2  1  0
  2  3  1  0
  2  4  1  0
  4  5  1  0
  4  6  1  0
  6  7  2  0
  6  8  1  0
  8  9  1  0
  9 10  2  0
  9 11  1  0
 11 12  1  0
 12 13  1  0
 13 14  1  0
 13 15  2  0
 12 16  2  0
 16 17  1  0
 17 18  2  0
 18 19  1  0
 19 20  2  0
 20 21  1  0
 21 22  1  0
 21 23  1  0
 21 24  1  0
 20 25  1  0
 25 26  2  0
 26 11  1  0
 26 17  1  0
  1 27  1  0
  1 28  1  0
  1 29  1  0
  2 30  1  0
  3 31  1  0
  3 32  1  0
  3 33  1  0
  5 34  1  0
  5 35  1  0
  5 36  1  0
  8 37  1  0
  8 38  1  0
 14 39  1  0
 16 40  1  0
 18 41  1  0
 19 42  1  0
 25 43  1  0
M  CHG  1  14  -1
M  END
>  <UniqueID>  (86) 
86

>  <SMILES>  (86) 
CC(C)N(C)C(=O)CC(=O)n1c(C([NH-])=O)cc2ccc(C(F)(F)F)cc21

>  <Energy>  (86) 
79.31409566787707

>  <Genealogy>  (86) 
CC(C)N(C)C(=O)CC(=O)n1c(C([NH-])=O)cc2ccc(C(F)(F)F)cc21 (protonated)
CC(C)N(C)C(=O)CC(=O)n1c(C([NH-])=O)cc2ccc(C(F)(F)F)cc21 (3D coordinates assigned)
CC(C)N(C)C(=O)CC(=O)n1c(C([NH-])=O)cc2ccc(C(F)(F)F)cc21 (optimized conformer: 79.31409566787707 kcal/mol)

>  <smiles>  (86) 
CC(C)N(C)C(=O)CC(=O)n1c(C(N)=O)cc2ccc(C(F)(F)F)cc21

>  <score_type>  (86) 
oracle

>  <origin>  (86) 
adg

>  <m_score__min__energy>  (86) 
-6.54

>  <m_primary>  (86) 
energy

$$$$
87:0
     RDKit          3D

 37 38  0  0  0  0  0  0  0  0999 V2000
  149.5810  158.6950  132.1490 C   0  0  0  0  0  0  0  0  0  0  0  0
  148.3040  159.4160  132.0990 N   0  0  0  0  0  0  0  0  0  0  0  0
  148.1720  160.5920  131.2330 C   0  0  0  0  0  0  0  0  0  0  0  0
  147.1800  158.8870  132.8410 C   0  0  0  0  0  0  0  0  0  0  0  0
  147.2290  157.7010  133.2700 O   0  0  0  0  0  0  0  0  0  0  0  0
  145.9640  159.6740  133.1340 C   0  0  0  0  0  0  0  0  0  0  0  0
  146.0370  160.7720  133.7470 O   0  0  0  0  0  0  0  0  0  0  0  0
  144.7220  159.1540  132.7440 O   0  0  0  0  0  0  0  0  0  0  0  0
  143.4950  159.4470  133.3540 C   0  0  0  0  0  0  0  0  0  0  0  0
  143.2850  160.5790  133.8690 O   0  0  0  0  0  0  0  0  0  0  0  0
  142.4650  158.4450  133.3970 N   0  0  0  0  0  0  0  0  0  0  0  0
  142.6090  157.1190  133.6780 C   0  0  0  0  0  0  0  0  0  0  0  0
  143.8420  156.4650  134.1600 C   0  0  0  0  0  0  0  0  0  0  0  0
  145.0640  156.5580  133.4270 N   0  0  0  0  0  0  0  0  0  0  0  0
  143.8290  155.8600  135.2650 O   0  0  0  0  0  0  0  0  0  0  0  0
  141.4040  156.4450  133.5020 C   0  0  0  0  0  0  0  0  0  0  0  0
  140.5020  157.4090  133.1120 C   0  0  0  0  0  0  0  0  0  0  0  0
  139.1540  157.2920  132.7880 C   0  0  0  0  0  0  0  0  0  0  0  0
  138.4720  158.4500  132.3800 C   0  0  0  0  0  0  0  0  0  0  0  0
  139.1480  159.6910  132.2960 C   0  0  0  0  0  0  0  0  0  0  0  0
  138.4450  160.8600  131.8660 N   0  0  0  0  0  0  0  0  0  0  0  0
  140.5160  159.7730  132.6290 C   0  0  0  0  0  0  0  0  0  0  0  0
  141.1670  158.6080  133.0540 C   0  0  0  0  0  0  0  0  0  0  0  0
  149.8693  158.5322  133.1980 H   0  0  0  0  0  0  0  0  0  0  0  0
  149.4739  157.7241  131.6433 H   0  0  0  0  0  0  0  0  0  0  0  0
  150.3571  159.2882  131.6433 H   0  0  0  0  0  0  0  0  0  0  0  0
  148.0707  161.4947  131.8534 H   0  0  0  0  0  0  0  0  0  0  0  0
  149.0657  160.6819  130.5980 H   0  0  0  0  0  0  0  0  0  0  0  0
  147.2806  160.4815  130.5980 H   0  0  0  0  0  0  0  0  0  0  0  0
  145.9150  156.0560  133.7630 H   0  0  0  0  0  0  0  0  0  0  0  0
  145.1500  157.1910  132.6010 H   0  0  0  0  0  0  0  0  0  0  0  0
  141.2132  155.3711  133.6442 H   0  0  0  0  0  0  0  0  0  0  0  0
  138.6383  156.3224  132.8495 H   0  0  0  0  0  0  0  0  0  0  0  0
  137.4039  158.3922  132.1236 H   0  0  0  0  0  0  0  0  0  0  0  0
  137.4060  160.9180  131.9460 H   0  0  0  0  0  0  0  0  0  0  0  0
  138.9600  161.6750  131.4650 H   0  0  0  0  0  0  0  0  0  0  0  0
  141.0579  160.7275  132.5568 H   0  0  0  0  0  0  0  0  0  0  0  0
  1  2  1  0
  2  3  1  0
  2  4  1  0
  4  5  2  0
  4  6  1  0
  6  7  2  0
  6  8  1  0
  8  9  1  0
  9 10  2  0
  9 11  1  0
 11 12  1  0
 12 13  1  0
 13 14  1  0
 13 15  2  0
 12 16  2  0
 16 17  1  0
 17 18  2  0
 18 19  1  0
 19 20  2  0
 20 21  1  0
 20 22  1  0
 22 23  2  0
 23 11  1  0
 23 17  1  0
  1 24  1  0
  1 25  1  0
  1 26  1  0
  3 27  1  0
  3 28  1  0
  3 29  1  0
 14 30  1  0
 14 31  1  0
 16 32  1  0
 18 33  1  0
 19 34  1  0
 21 35  1  0
 21 36  1  0
 22 37  1  0
M  END
>  <UniqueID>  (87) 
87

>  <SMILES>  (87) 
CN(C)C(=O)C(=O)OC(=O)n1c(C(N)=O)cc2ccc(N)cc21

>  <Energy>  (87) 
76.31112476521186

>  <Genealogy>  (87) 
CN(C)C(=O)C(=O)OC(=O)n1c(C(N)=O)cc2ccc(N)cc21 (3D coordinates assigned)
CN(C)C(=O)C(=O)OC(=O)n1c(C(N)=O)cc2ccc(N)cc21 (optimized conformer: 76.31112476521186 kcal/mol)

>  <smiles>  (87) 
CN(C)C(=O)C(=O)OC(=O)n1c(C(N)=O)cc2ccc(N)cc21

>  <score_type>  (87) 
oracle

>  <origin>  (87) 
adg

>  <m_score__min__energy>  (87) 
-6.79

>  <m_primary>  (87) 
energy

$$$$
88:0
     RDKit          3D

 41 42  0  0  0  0  0  0  0  0999 V2000
  148.6160  161.6440  130.7330 C   0  0  0  0  0  0  0  0  0  0  0  0
  148.5090  160.3340  131.4550 C   0  0  0  0  0  0  0  0  0  0  0  0
  149.6530  159.5150  131.6230 C   0  0  0  0  0  0  0  0  0  0  0  0
  149.5620  158.2940  132.3150 C   0  0  0  0  0  0  0  0  0  0  0  0
  148.3280  157.9380  132.8500 C   0  0  0  0  0  0  0  0  0  0  0  0
  147.9500  156.7970  133.5220 C   0  0  0  0  0  0  0  0  0  0  0  0
  146.5950  156.9660  133.7990 C   0  0  0  0  0  0  0  0  0  0  0  0
  145.7770  155.9700  134.5190 C   0  0  0  0  0  0  0  0  0  0  0  0
  144.4500  155.6580  134.0950 N   0  0  0  0  0  0  0  0  0  0  0  0
  146.2440  155.4110  135.5480 O   0  0  0  0  0  0  0  0  0  0  0  0
  146.1500  158.1600  133.3180 N   0  0  0  0  0  0  0  0  0  0  0  0
  144.7920  158.6250  133.2740 C   0  0  0  0  0  0  0  0  0  0  0  0
  143.9520  158.0310  132.5450 O   0  0  0  0  0  0  0  0  0  0  0  0
  144.3580  159.7740  134.0820 C   0  0  0  0  0  0  0  0  0  0  0  0
  144.9570  160.8770  133.9780 O   0  0  0  0  0  0  0  0  0  0  0  0
  143.2630  159.6190  134.9980 N   0  0  0  0  0  0  0  0  0  0  0  0
  141.8420  159.4860  134.6570 C   0  0  0  0  0  0  0  0  0  0  0  0
  141.5320  160.4980  133.5400 C   0  0  0  0  0  0  0  0  0  0  0  0
  140.9790  159.8290  135.8870 C   0  0  0  0  0  0  0  0  0  0  0  0
  141.5220  158.0540  134.1620 C   0  0  0  0  0  0  0  0  0  0  0  0
  142.4690  157.1320  134.6340 O   0  0  0  0  0  0  0  0  0  0  0  0
  147.2210  158.7410  132.7310 C   0  0  0  0  0  0  0  0  0  0  0  0
  147.2760  159.9430  132.0150 C   0  0  0  0  0  0  0  0  0  0  0  0
  148.6828  162.4620  131.4654 H   0  0  0  0  0  0  0  0  0  0  0  0
  149.5170  161.6424  130.1020 H   0  0  0  0  0  0  0  0  0  0  0  0
  147.7267  161.7886  130.1020 H   0  0  0  0  0  0  0  0  0  0  0  0
  150.6200  159.8367  131.2089 H   0  0  0  0  0  0  0  0  0  0  0  0
  150.4394  157.6406  132.4297 H   0  0  0  0  0  0  0  0  0  0  0  0
  148.5826  155.9361  133.7841 H   0  0  0  0  0  0  0  0  0  0  0  0
  143.9160  154.8930  134.5660 H   0  0  0  0  0  0  0  0  0  0  0  0
  143.9600  156.2410  133.3820 H   0  0  0  0  0  0  0  0  0  0  0  0
  141.2376  161.4589  133.9872 H   0  0  0  0  0  0  0  0  0  0  0  0
  142.4271  160.6423  132.9172 H   0  0  0  0  0  0  0  0  0  0  0  0
  140.7096  160.1162  132.9172 H   0  0  0  0  0  0  0  0  0  0  0  0
  141.5428  159.6049  136.8045 H   0  0  0  0  0  0  0  0  0  0  0  0
  140.7208  160.8981  135.8672 H   0  0  0  0  0  0  0  0  0  0  0  0
  140.0574  159.2288  135.8672 H   0  0  0  0  0  0  0  0  0  0  0  0
  140.5253  157.7628  134.5252 H   0  0  0  0  0  0  0  0  0  0  0  0
  141.5495  158.0506  133.0624 H   0  0  0  0  0  0  0  0  0  0  0  0
  143.3550  157.5760  134.5790 H   0  0  0  0  0  0  0  0  0  0  0  0
  146.3786  160.5672  131.8925 H   0  0  0  0  0  0  0  0  0  0  0  0
  1  2  1  0
  2  3  2  0
  3  4  1  0
  4  5  2  0
  5  6  1  0
  6  7  2  0
  7  8  1  0
  8  9  1  0
  8 10  2  0
  7 11  1  0
 11 12  1  0
 12 13  2  0
 12 14  1  0
 14 15  2  0
 14 16  1  0
 16 17  1  0
 17 18  1  0
 17 19  1  0
 17 20  1  0
 20 21  1  0
 11 22  1  0
 22 23  2  0
 23  2  1  0
 22  5  1  0
  1 24  1  0
  1 25  1  0
  1 26  1  0
  3 27  1  0
  4 28  1  0
  6 29  1  0
  9 30  1  0
  9 31  1  0
 18 32  1  0
 18 33  1  0
 18 34  1  0
 19 35  1  0
 19 36  1  0
 19 37  1  0
 20 38  1  0
 20 39  1  0
 21 40  1  0
 23 41  1  0
M  CHG  1  16  -1
M  END
>  <UniqueID>  (88) 
88

>  <SMILES>  (88) 
Cc1ccc2cc(C(N)=O)n(C(=O)C(=O)[N-]C(C)(C)CO)c2c1

>  <Energy>  (88) 
75.4092024858942

>  <Genealogy>  (88) 
Cc1ccc2cc(C(N)=O)n(C(=O)C(=O)[N-]C(C)(C)CO)c2c1 (protonated)
Cc1ccc2cc(C(N)=O)n(C(=O)C(=O)[N-]C(C)(C)CO)c2c1 (3D coordinates assigned)
Cc1ccc2cc(C(N)=O)n(C(=O)C(=O)[N-]C(C)(C)CO)c2c1 (optimized conformer: 75.4092024858942 kcal/mol)

>  <smiles>  (88) 
Cc1ccc2cc(C(N)=O)n(C(=O)C(=O)NC(C)(C)CO)c2c1

>  <score_type>  (88) 
oracle

>  <origin>  (88) 
adg

>  <m_score__min__energy>  (88) 
-6.7000000000000002

>  <m_primary>  (88) 
energy

$$$$
89:0
     RDKit          3D

 38 39  0  0  0  0  0  0  0  0999 V2000
  137.5970  160.0920  130.8990 C   0  0  0  0  0  0  0  0  0  0  0  0
  139.0850  159.7940  130.7950 C   0  0  0  0  0  0  0  0  0  0  0  0
  139.4650  158.8280  131.8190 N   0  0  0  0  0  0  0  0  0  0  0  0
  140.4460  159.0710  132.8330 C   0  0  0  0  0  0  0  0  0  0  0  0
  140.5770  160.2380  133.2860 O   0  0  0  0  0  0  0  0  0  0  0  0
  141.3240  157.9740  133.3680 C   0  0  0  0  0  0  0  0  0  0  0  0
  142.6730  158.1450  132.9380 O   0  0  0  0  0  0  0  0  0  0  0  0
  143.7800  157.9400  133.7660 C   0  0  0  0  0  0  0  0  0  0  0  0
  143.6710  157.2100  134.7890 O   0  0  0  0  0  0  0  0  0  0  0  0
  145.0350  158.5850  133.4710 N   0  0  0  0  0  0  0  0  0  0  0  0
  145.3050  159.9210  133.5160 C   0  0  0  0  0  0  0  0  0  0  0  0
  144.3280  160.9880  133.7850 C   0  0  0  0  0  0  0  0  0  0  0  0
  142.9740  160.8600  133.3570 N   0  0  0  0  0  0  0  0  0  0  0  0
  144.7090  162.0530  134.3410 O   0  0  0  0  0  0  0  0  0  0  0  0
  146.6610  160.1640  133.3310 C   0  0  0  0  0  0  0  0  0  0  0  0
  147.2260  158.9250  133.1420 C   0  0  0  0  0  0  0  0  0  0  0  0
  148.5510  158.5800  132.8950 C   0  0  0  0  0  0  0  0  0  0  0  0
  148.8560  157.2200  132.7260 C   0  0  0  0  0  0  0  0  0  0  0  0
  147.8390  156.2370  132.8010 C   0  0  0  0  0  0  0  0  0  0  0  0
  148.1850  154.7900  132.5960 C   0  0  0  0  0  0  0  0  0  0  0  0
  147.8700  154.0680  133.7320 F   0  0  0  0  0  0  0  0  0  0  0  0
  149.5380  154.6670  132.3390 F   0  0  0  0  0  0  0  0  0  0  0  0
  146.5040  156.6260  133.0510 C   0  0  0  0  0  0  0  0  0  0  0  0
  146.2280  157.9880  133.2310 C   0  0  0  0  0  0  0  0  0  0  0  0
  137.3078  160.1499  131.9587 H   0  0  0  0  0  0  0  0  0  0  0  0
  137.3799  161.0514  130.4067 H   0  0  0  0  0  0  0  0  0  0  0  0
  137.0272  159.2901  130.4067 H   0  0  0  0  0  0  0  0  0  0  0  0
  139.3063  159.3790  129.8006 H   0  0  0  0  0  0  0  0  0  0  0  0
  139.6541  160.7238  130.9419 H   0  0  0  0  0  0  0  0  0  0  0  0
  141.2918  157.9911  134.4674 H   0  0  0  0  0  0  0  0  0  0  0  0
  140.9537  157.0108  132.9871 H   0  0  0  0  0  0  0  0  0  0  0  0
  142.6720  160.0370  132.7900 H   0  0  0  0  0  0  0  0  0  0  0  0
  142.2810  161.6130  133.5650 H   0  0  0  0  0  0  0  0  0  0  0  0
  147.1721  161.1381  133.3349 H   0  0  0  0  0  0  0  0  0  0  0  0
  149.3353  159.3489  132.8340 H   0  0  0  0  0  0  0  0  0  0  0  0
  149.8951  156.9148  132.5334 H   0  0  0  0  0  0  0  0  0  0  0  0
  147.6102  154.4008  131.7427 H   0  0  0  0  0  0  0  0  0  0  0  0
  145.6999  155.8771  133.1031 H   0  0  0  0  0  0  0  0  0  0  0  0
  1  2  1  0
  2  3  1  0
  3  4  1  0
  4  5  2  0
  4  6  1  0
  6  7  1  0
  7  8  1  0
  8  9  2  0
  8 10  1  0
 10 11  1  0
 11 12  1  0
 12 13  1  0
 12 14  2  0
 11 15  2  0
 15 16  1  0
 16 17  2  0
 17 18  1  0
 18 19  2  0
 19 20  1  0
 20 21  1  0
 20 22  1  0
 19 23  1  0
 23 24  2  0
 24 10  1  0
 24 16  1  0
  1 25  1  0
  1 26  1  0
  1 27  1  0
  2 28  1  0
  2 29  1  0
  6 30  1  0
  6 31  1  0
 13 32  1  0
 13 33  1  0
 15 34  1  0
 17 35  1  0
 18 36  1  0
 20 37  1  0
 23 38  1  0
M  CHG  1   3  -1
M  END
>  <UniqueID>  (89) 
89

>  <SMILES>  (89) 
CC[N-]C(=O)COC(=O)n1c(C(N)=O)cc2ccc(C(F)F)cc21

>  <Energy>  (89) 
72.05271507426973

>  <Genealogy>  (89) 
CC[N-]C(=O)COC(=O)n1c(C(N)=O)cc2ccc(C(F)F)cc21 (protonated)
CC[N-]C(=O)COC(=O)n1c(C(N)=O)cc2ccc(C(F)F)cc21 (3D coordinates assigned)
CC[N-]C(=O)COC(=O)n1c(C(N)=O)cc2ccc(C(F)F)cc21 (optimized conformer: 72.05271507426973 kcal/mol)

>  <smiles>  (89) 
CCNC(=O)COC(=O)n1c(C(N)=O)cc2ccc(C(F)F)cc21

>  <score_type>  (89) 
oracle

>  <origin>  (89) 
adg

>  <m_score__min__energy>  (89) 
-6.2199999999999998

>  <m_primary>  (89) 
energy

$$$$
90:0
     RDKit          3D

 38 39  0  0  0  0  0  0  0  0999 V2000
  141.6800  158.9530  136.0600 C   0  0  0  0  0  0  0  0  0  0  0  0
  142.0410  158.6840  134.5920 C   0  0  1  0  0  0  0  0  0  0  0  0
  140.9520  159.1990  133.6700 C   0  0  0  0  0  0  0  0  0  0  0  0
  140.9460  160.4320  133.3980 O   0  0  0  0  0  0  0  0  0  0  0  0
  139.9700  158.3390  133.0470 N   0  0  0  0  0  0  0  0  0  0  0  0
  139.3940  158.7550  131.7640 C   0  0  0  0  0  0  0  0  0  0  0  0
  139.4660  157.1350  133.7140 C   0  0  0  0  0  0  0  0  0  0  0  0
  143.4240  159.1470  134.1600 C   0  0  0  0  0  0  0  0  0  0  0  0
  143.6780  160.5430  134.1010 C   0  0  0  0  0  0  0  0  0  0  0  0
  144.9350  161.0350  133.7140 C   0  0  0  0  0  0  0  0  0  0  0  0
  145.9270  160.1140  133.3970 C   0  0  0  0  0  0  0  0  0  0  0  0
  147.2200  160.3180  132.9770 C   0  0  0  0  0  0  0  0  0  0  0  0
  147.7570  159.0450  132.8020 C   0  0  0  0  0  0  0  0  0  0  0  0
  149.1680  158.8000  132.4350 C   0  0  0  0  0  0  0  0  0  0  0  0
  149.6290  157.4650  132.2430 N   0  0  0  0  0  0  0  0  0  0  0  0
  149.9640  159.7590  132.2530 O   0  0  0  0  0  0  0  0  0  0  0  0
  146.8280  158.0900  133.0950 N   0  0  0  0  0  0  0  0  0  0  0  0
  146.9650  156.6630  132.9940 C   0  0  0  0  0  0  0  0  0  0  0  0
  146.9590  156.1040  131.8650 O   0  0  0  0  0  0  0  0  0  0  0  0
  147.0830  155.8910  134.1460 O   0  0  0  0  0  0  0  0  0  0  0  0
  147.7450  156.3540  135.2210 F   0  0  0  0  0  0  0  0  0  0  0  0
  145.7130  158.7630  133.4590 C   0  0  0  0  0  0  0  0  0  0  0  0
  144.4650  158.2420  133.8190 C   0  0  0  0  0  0  0  0  0  0  0  0
  142.3889  158.4248  136.7146 H   0  0  0  0  0  0  0  0  0  0  0  0
  141.7329  160.0336  136.2585 H   0  0  0  0  0  0  0  0  0  0  0  0
  140.6596  158.5933  136.2585 H   0  0  0  0  0  0  0  0  0  0  0  0
  142.0995  157.5889  134.5061 H   0  0  0  0  0  0  0  0  0  0  0  0
  138.5145  159.3902  131.9457 H   0  0  0  0  0  0  0  0  0  0  0  0
  140.1436  159.3215  131.1920 H   0  0  0  0  0  0  0  0  0  0  0  0
  139.0919  157.8653  131.1920 H   0  0  0  0  0  0  0  0  0  0  0  0
  139.5222  157.2691  134.8043 H   0  0  0  0  0  0  0  0  0  0  0  0
  138.4203  156.9630  133.4191 H   0  0  0  0  0  0  0  0  0  0  0  0
  140.0773  156.2693  133.4191 H   0  0  0  0  0  0  0  0  0  0  0  0
  142.8772  161.2503  134.3627 H   0  0  0  0  0  0  0  0  0  0  0  0
  145.1289  162.1166  133.6632 H   0  0  0  0  0  0  0  0  0  0  0  0
  147.7236  161.2822  132.8138 H   0  0  0  0  0  0  0  0  0  0  0  0
  149.0040  156.7340  131.8350 H   0  0  0  0  0  0  0  0  0  0  0  0
  144.2937  157.1556  133.8376 H   0  0  0  0  0  0  0  0  0  0  0  0
  1  2  1  0
  2  3  1  0
  3  4  2  0
  3  5  1  0
  5  6  1  0
  5  7  1  0
  2  8  1  0
  8  9  2  0
  9 10  1  0
 10 11  2  0
 11 12  1  0
 12 13  2  0
 13 14  1  0
 14 15  1  0
 14 16  2  0
 13 17  1  0
 17 18  1  0
 18 19  2  0
 18 20  1  0
 20 21  1  0
 17 22  1  0
 22 23  2  0
 23  8  1  0
 22 11  1  0
  1 24  1  0
  1 25  1  0
  1 26  1  0
  2 27  1  1
  6 28  1  0
  6 29  1  0
  6 30  1  0
  7 31  1  0
  7 32  1  0
  7 33  1  0
  9 34  1  0
 10 35  1  0
 12 36  1  0
 15 37  1  0
 23 38  1  0
M  CHG  1  15  -1
M  END
>  <UniqueID>  (90) 
90

>  <SMILES>  (90) 
C[C@@H](C(=O)N(C)C)c1ccc2cc(C([NH-])=O)n(C(=O)OF)c2c1

>  <Energy>  (90) 
77.4929480696728

>  <Genealogy>  (90) 
CC(C(=O)N(C)C)c1ccc2cc(C([NH-])=O)n(C(=O)OF)c2c1 (protonated)
C[C@@H](C(=O)N(C)C)c1ccc2cc(C([NH-])=O)n(C(=O)OF)c2c1 (chirality)
C[C@@H](C(=O)N(C)C)c1ccc2cc(C([NH-])=O)n(C(=O)OF)c2c1 (3D coordinates assigned)
C[C@@H](C(=O)N(C)C)c1ccc2cc(C([NH-])=O)n(C(=O)OF)c2c1 (optimized conformer: 77.4929480696728 kcal/mol)

>  <smiles>  (90) 
CC(C(=O)N(C)C)c1ccc2cc(C(N)=O)n(C(=O)OF)c2c1

>  <score_type>  (90) 
oracle

>  <origin>  (90) 
adg

>  <m_score__min__energy>  (90) 
-6.79

>  <m_primary>  (90) 
energy

$$$$
91:0
     RDKit          3D

 40 41  0  0  0  0  0  0  0  0999 V2000
  141.5570  158.9860  135.9360 C   0  0  0  0  0  0  0  0  0  0  0  0
  142.0090  158.5370  134.5340 C   0  0  1  0  0  0  0  0  0  0  0  0
  140.9080  158.7930  133.5190 C   0  0  0  0  0  0  0  0  0  0  0  0
  140.8590  159.9370  132.9830 O   0  0  0  0  0  0  0  0  0  0  0  0
  139.9000  157.8120  133.1800 N   0  0  0  0  0  0  0  0  0  0  0  0
  138.6290  158.2800  132.6130 C   0  0  0  0  0  0  0  0  0  0  0  0
  140.1450  156.3730  133.3250 C   0  0  0  0  0  0  0  0  0  0  0  0
  143.3650  159.0920  134.0940 C   0  0  0  0  0  0  0  0  0  0  0  0
  143.6190  160.4940  134.0590 C   0  0  0  0  0  0  0  0  0  0  0  0
  144.8880  160.9920  133.7200 C   0  0  0  0  0  0  0  0  0  0  0  0
  145.8950  160.0790  133.4320 C   0  0  0  0  0  0  0  0  0  0  0  0
  147.2120  160.2930  133.0960 C   0  0  0  0  0  0  0  0  0  0  0  0
  147.7590  159.0250  132.9230 C   0  0  0  0  0  0  0  0  0  0  0  0
  149.1420  158.7970  132.4520 C   0  0  0  0  0  0  0  0  0  0  0  0
  149.6250  157.4800  132.2090 N   0  0  0  0  0  0  0  0  0  0  0  0
  149.8890  159.7810  132.2090 O   0  0  0  0  0  0  0  0  0  0  0  0
  146.8220  158.0610  133.1590 N   0  0  0  0  0  0  0  0  0  0  0  0
  147.0110  156.6340  133.1600 C   0  0  0  0  0  0  0  0  0  0  0  0
  146.9640  155.9940  132.0720 O   0  0  0  0  0  0  0  0  0  0  0  0
  147.2290  155.9650  134.3740 O   0  0  0  0  0  0  0  0  0  0  0  0
  146.2830  155.1800  135.0440 C   0  0  0  0  0  0  0  0  0  0  0  0
  145.0640  155.4950  135.0660 O   0  0  0  0  0  0  0  0  0  0  0  0
  146.7000  154.0290  135.6970 O   0  0  0  0  0  0  0  0  0  0  0  0
  145.6840  158.7250  133.4650 C   0  0  0  0  0  0  0  0  0  0  0  0
  144.4390  158.2000  133.8330 C   0  0  0  0  0  0  0  0  0  0  0  0
  142.1192  158.4275  136.6989 H   0  0  0  0  0  0  0  0  0  0  0  0
  141.7474  160.0628  136.0553 H   0  0  0  0  0  0  0  0  0  0  0  0
  140.4815  158.7884  136.0553 H   0  0  0  0  0  0  0  0  0  0  0  0
  142.1828  157.4525  134.5937 H   0  0  0  0  0  0  0  0  0  0  0  0
  137.9358  158.5352  133.4281 H   0  0  0  0  0  0  0  0  0  0  0  0
  138.8098  159.1705  131.9931 H   0  0  0  0  0  0  0  0  0  0  0  0
  138.1892  157.4849  131.9931 H   0  0  0  0  0  0  0  0  0  0  0  0
  140.1890  156.1144  134.3933 H   0  0  0  0  0  0  0  0  0  0  0  0
  139.3294  155.8120  132.8452 H   0  0  0  0  0  0  0  0  0  0  0  0
  141.1003  156.1135  132.8452 H   0  0  0  0  0  0  0  0  0  0  0  0
  142.8085  161.1972  134.3013 H   0  0  0  0  0  0  0  0  0  0  0  0
  145.0792  162.0747  133.6836 H   0  0  0  0  0  0  0  0  0  0  0  0
  147.7238  161.2606  132.9872 H   0  0  0  0  0  0  0  0  0  0  0  0
  148.9900  156.7320  131.8430 H   0  0  0  0  0  0  0  0  0  0  0  0
  144.2950  157.1128  133.9186 H   0  0  0  0  0  0  0  0  0  0  0  0
  1  2  1  0
  2  3  1  0
  3  4  2  0
  3  5  1  0
  5  6  1  0
  5  7  1  0
  2  8  1  0
  8  9  2  0
  9 10  1  0
 10 11  2  0
 11 12  1  0
 12 13  2  0
 13 14  1  0
 14 15  1  0
 14 16  2  0
 13 17  1  0
 17 18  1  0
 18 19  2  0
 18 20  1  0
 20 21  1  0
 21 22  2  0
 21 23  1  0
 17 24  1  0
 24 25  2  0
 25  8  1  0
 24 11  1  0
  1 26  1  0
  1 27  1  0
  1 28  1  0
  2 29  1  1
  6 30  1  0
  6 31  1  0
  6 32  1  0
  7 33  1  0
  7 34  1  0
  7 35  1  0
  9 36  1  0
 10 37  1  0
 12 38  1  0
 15 39  1  0
 25 40  1  0
M  CHG  2  15  -1  23  -1
M  END
>  <UniqueID>  (91) 
91

>  <SMILES>  (91) 
C[C@@H](C(=O)N(C)C)c1ccc2cc(C([NH-])=O)n(C(=O)OC(=O)[O-])c2c1

>  <Energy>  (91) 
82.63551957211065

>  <Genealogy>  (91) 
CC(C(=O)N(C)C)c1ccc2cc(C([NH-])=O)n(C(=O)OC(=O)[O-])c2c1 (protonated)
C[C@@H](C(=O)N(C)C)c1ccc2cc(C([NH-])=O)n(C(=O)OC(=O)[O-])c2c1 (chirality)
C[C@@H](C(=O)N(C)C)c1ccc2cc(C([NH-])=O)n(C(=O)OC(=O)[O-])c2c1 (3D coordinates assigned)
C[C@@H](C(=O)N(C)C)c1ccc2cc(C([NH-])=O)n(C(=O)OC(=O)[O-])c2c1 (optimized conformer: 82.63551957211065 kcal/mol)

>  <smiles>  (91) 
CC(C(=O)N(C)C)c1ccc2cc(C(N)=O)n(C(=O)OC(=O)O)c2c1

>  <score_type>  (91) 
oracle

>  <origin>  (91) 
adg

>  <m_score__min__energy>  (91) 
-6.8600000000000003

>  <m_primary>  (91) 
energy

$$$$
92:0
     RDKit          3D

 43 45  0  0  0  0  0  0  0  0999 V2000
  143.1030  160.2680  133.2320 N   0  0  0  0  0  0  0  0  0  0  0  0
  144.4380  160.4660  133.7000 C   0  0  0  0  0  0  0  0  0  0  0  0
  144.7370  161.5520  134.2620 O   0  0  0  0  0  0  0  0  0  0  0  0
  145.4850  159.4440  133.4940 C   0  0  0  0  0  0  0  0  0  0  0  0
  146.8050  159.7510  133.1700 C   0  0  0  0  0  0  0  0  0  0  0  0
  147.4310  158.5370  133.0050 C   0  0  0  0  0  0  0  0  0  0  0  0
  148.7550  158.2460  132.6830 C   0  0  0  0  0  0  0  0  0  0  0  0
  149.1310  156.8930  132.6050 C   0  0  0  0  0  0  0  0  0  0  0  0
  148.1850  155.8720  132.8540 C   0  0  0  0  0  0  0  0  0  0  0  0
  148.5850  154.4910  132.7800 C   0  0  0  0  0  0  0  0  0  0  0  0
  148.9200  153.3350  132.7180 C   0  0  0  0  0  0  0  0  0  0  0  0
  149.3280  151.9210  132.6400 C   0  0  0  0  0  0  0  0  0  0  0  0
  150.0090  151.4640  133.7780 O   0  0  0  0  0  0  0  0  0  0  0  0
  148.2330  150.9800  132.1970 C   0  0  0  0  0  0  0  0  0  0  0  0
  148.9080  150.6520  131.0030 O   0  0  0  0  0  0  0  0  0  0  0  0
  149.9740  151.5110  131.3350 C   0  0  0  0  0  0  0  0  0  0  0  0
  146.8540  156.1990  133.1780 C   0  0  0  0  0  0  0  0  0  0  0  0
  146.5040  157.5530  133.2360 C   0  0  0  0  0  0  0  0  0  0  0  0
  145.3060  158.0940  133.5450 N   0  0  0  0  0  0  0  0  0  0  0  0
  144.1290  157.3670  133.9360 C   0  0  0  0  0  0  0  0  0  0  0  0
  144.1330  156.7060  135.0090 O   0  0  0  0  0  0  0  0  0  0  0  0
  142.9060  157.4080  133.1210 C   0  0  0  0  0  0  0  0  0  0  0  0
  142.9880  157.4300  131.8630 O   0  0  0  0  0  0  0  0  0  0  0  0
  141.6590  157.4300  133.7550 O   0  0  0  0  0  0  0  0  0  0  0  0
  140.4160  157.3200  133.0630 C   0  0  0  0  0  0  0  0  0  0  0  0
  139.8500  158.7000  132.7370 C   0  0  0  0  0  0  0  0  0  0  0  0
  140.8820  159.5730  132.3720 O   0  0  0  0  0  0  0  0  0  0  0  0
  142.8610  159.4710  132.6030 H   0  0  0  0  0  0  0  0  0  0  0  0
  142.3660  160.9780  133.4400 H   0  0  0  0  0  0  0  0  0  0  0  0
  147.2515  160.7511  133.0679 H   0  0  0  0  0  0  0  0  0  0  0  0
  149.4831  159.0490  132.4957 H   0  0  0  0  0  0  0  0  0  0  0  0
  150.1673  156.6275  132.3487 H   0  0  0  0  0  0  0  0  0  0  0  0
  150.5880  150.7160  133.4790 H   0  0  0  0  0  0  0  0  0  0  0  0
  148.0925  150.1223  132.8712 H   0  0  0  0  0  0  0  0  0  0  0  0
  147.2000  151.3537  132.1398 H   0  0  0  0  0  0  0  0  0  0  0  0
  150.9336  150.9893  131.4653 H   0  0  0  0  0  0  0  0  0  0  0  0
  150.2728  152.2913  130.6196 H   0  0  0  0  0  0  0  0  0  0  0  0
  146.1111  155.4132  133.3796 H   0  0  0  0  0  0  0  0  0  0  0  0
  140.5731  156.7647  132.1265 H   0  0  0  0  0  0  0  0  0  0  0  0
  139.7001  156.7900  133.7085 H   0  0  0  0  0  0  0  0  0  0  0  0
  139.1367  158.6125  131.9042 H   0  0  0  0  0  0  0  0  0  0  0  0
  139.3415  159.0984  133.6273 H   0  0  0  0  0  0  0  0  0  0  0  0
  141.6600  159.0000  132.1430 H   0  0  0  0  0  0  0  0  0  0  0  0
  1  2  1  0
  2  3  2  0
  2  4  1  0
  4  5  2  0
  5  6  1  0
  6  7  2  0
  7  8  1  0
  8  9  2  0
  9 10  1  0
 10 11  3  0
 11 12  1  0
 12 13  1  0
 12 14  1  0
 14 15  1  0
 15 16  1  0
  9 17  1  0
 17 18  2  0
 18 19  1  0
 19 20  1  0
 20 21  2  0
 20 22  1  0
 22 23  2  0
 22 24  1  0
 24 25  1  0
 25 26  1  0
 26 27  1  0
 19  4  1  0
 18  6  1  0
 16 12  1  0
  1 28  1  0
  1 29  1  0
  5 30  1  0
  7 31  1  0
  8 32  1  0
 13 33  1  0
 14 34  1  0
 14 35  1  0
 16 36  1  0
 16 37  1  0
 17 38  1  0
 25 39  1  0
 25 40  1  0
 26 41  1  0
 26 42  1  0
 27 43  1  0
M  END
>  <UniqueID>  (92) 
92

>  <SMILES>  (92) 
NC(=O)c1cc2ccc(C#CC3(O)COC3)cc2n1C(=O)C(=O)OCCO

>  <Energy>  (92) 
141.90093574346264

>  <Genealogy>  (92) 
NC(=O)c1cc2ccc(C#CC3(O)COC3)cc2n1C(=O)C(=O)OCCO (3D coordinates assigned)
NC(=O)c1cc2ccc(C#CC3(O)COC3)cc2n1C(=O)C(=O)OCCO (nonaromatic ring conformer: 141.90093574346264 kcal/mol)

>  <smiles>  (92) 
NC(=O)c1cc2ccc(C#CC3(O)COC3)cc2n1C(=O)C(=O)OCCO

>  <score_type>  (92) 
oracle

>  <origin>  (92) 
adg

>  <m_score__min__energy>  (92) 
-7.4100000000000001

>  <m_primary>  (92) 
energy

$$$$
93:0
     RDKit          3D

 47 49  0  0  0  0  0  0  0  0999 V2000
  140.2440  158.6810  132.2250 C   0  0  0  0  0  0  0  0  0  0  0  0
  140.8980  158.1120  133.4150 N   0  0  0  0  0  0  0  0  0  0  0  0
  140.2380  158.5760  134.6450 C   0  0  0  0  0  0  0  0  0  0  0  0
  140.8800  156.6630  133.3480 C   0  0  0  0  0  0  0  0  0  0  0  0
  139.8150  156.0620  133.2430 O   0  0  0  0  0  0  0  0  0  0  0  0
  142.1620  155.8720  133.3590 C   0  0  0  0  0  0  0  0  0  0  0  0
  143.2750  156.7050  133.0380 O   0  0  0  0  0  0  0  0  0  0  0  0
  143.8250  157.6360  133.9260 C   0  0  0  0  0  0  0  0  0  0  0  0
  143.2550  157.8790  135.0240 O   0  0  0  0  0  0  0  0  0  0  0  0
  145.0200  158.3480  133.5650 N   0  0  0  0  0  0  0  0  0  0  0  0
  145.2120  159.6970  133.5540 C   0  0  0  0  0  0  0  0  0  0  0  0
  144.1670  160.7230  133.7430 C   0  0  0  0  0  0  0  0  0  0  0  0
  142.7930  160.3740  133.5850 N   0  0  0  0  0  0  0  0  0  0  0  0
  144.4700  161.8940  134.0900 O   0  0  0  0  0  0  0  0  0  0  0  0
  146.5370  160.0020  133.2480 C   0  0  0  0  0  0  0  0  0  0  0  0
  147.1580  158.7890  133.0650 C   0  0  0  0  0  0  0  0  0  0  0  0
  148.4830  158.5010  132.7500 C   0  0  0  0  0  0  0  0  0  0  0  0
  148.8540  157.1500  132.6430 C   0  0  0  0  0  0  0  0  0  0  0  0
  147.9040  156.1240  132.8600 C   0  0  0  0  0  0  0  0  0  0  0  0
  148.2930  154.7560  132.7350 N   0  0  0  0  0  0  0  0  0  0  0  0
  147.6850  153.4270  132.9560 C   0  0  0  0  0  0  0  0  0  0  0  0
  148.9170  152.6390  132.6380 C   0  0  0  0  0  0  0  0  0  0  0  0
  148.7950  151.9010  131.4730 F   0  0  0  0  0  0  0  0  0  0  0  0
  149.4700  151.8530  133.7970 C   0  0  0  0  0  0  0  0  0  0  0  0
  149.2090  152.1790  134.9850 O   0  0  0  0  0  0  0  0  0  0  0  0
  150.2400  150.7220  133.5540 O   0  0  0  0  0  0  0  0  0  0  0  0
  149.5140  153.9950  132.4070 C   0  0  0  0  0  0  0  0  0  0  0  0
  146.5730  156.4510  133.1860 C   0  0  0  0  0  0  0  0  0  0  0  0
  146.2230  157.8050  133.2640 C   0  0  0  0  0  0  0  0  0  0  0  0
  139.4487  159.3729  132.5393 H   0  0  0  0  0  0  0  0  0  0  0  0
  140.9869  159.2252  131.6233 H   0  0  0  0  0  0  0  0  0  0  0  0
  139.8078  157.8700  131.6233 H   0  0  0  0  0  0  0  0  0  0  0  0
  141.8860  158.4570  133.4310 H   0  0  0  0  0  0  0  0  0  0  0  0
  140.7829  158.1929  135.5204 H   0  0  0  0  0  0  0  0  0  0  0  0
  140.2353  159.6758  134.6672 H   0  0  0  0  0  0  0  0  0  0  0  0
  139.2022  158.2063  134.6672 H   0  0  0  0  0  0  0  0  0  0  0  0
  142.3111  155.4411  134.3600 H   0  0  0  0  0  0  0  0  0  0  0  0
  142.0901  155.0742  132.6051 H   0  0  0  0  0  0  0  0  0  0  0  0
  142.4040  159.5120  134.0330 H   0  0  0  0  0  0  0  0  0  0  0  0
  146.9900  161.0013  133.1695 H   0  0  0  0  0  0  0  0  0  0  0  0
  149.2161  159.3053  132.5900 H   0  0  0  0  0  0  0  0  0  0  0  0
  149.8915  156.8878  132.3885 H   0  0  0  0  0  0  0  0  0  0  0  0
  147.3432  153.2825  133.9915 H   0  0  0  0  0  0  0  0  0  0  0  0
  146.7751  153.1894  132.3853 H   0  0  0  0  0  0  0  0  0  0  0  0
  150.3482  154.2144  133.0896 H   0  0  0  0  0  0  0  0  0  0  0  0
  149.9741  154.1812  131.4253 H   0  0  0  0  0  0  0  0  0  0  0  0
  145.8282  155.6637  133.3743 H   0  0  0  0  0  0  0  0  0  0  0  0
  1  2  1  0
  2  3  1  0
  2  4  1  0
  4  5  2  0
  4  6  1  0
  6  7  1  0
  7  8  1  0
  8  9  2  0
  8 10  1  0
 10 11  1  0
 11 12  1  0
 12 13  1  0
 12 14  2  0
 11 15  2  0
 15 16  1  0
 16 17  2  0
 17 18  1  0
 18 19  2  0
 19 20  1  0
 20 21  1  0
 21 22  1  0
 22 23  1  0
 22 24  1  0
 24 25  2  0
 24 26  1  0
 22 27  1  0
 19 28  1  0
 28 29  2  0
 29 10  1  0
 29 16  1  0
 27 20  1  0
  1 30  1  0
  1 31  1  0
  1 32  1  0
  2 33  1  0
  3 34  1  0
  3 35  1  0
  3 36  1  0
  6 37  1  0
  6 38  1  0
 13 39  1  0
 15 40  1  0
 17 41  1  0
 18 42  1  0
 21 43  1  0
 21 44  1  0
 27 45  1  0
 27 46  1  0
 28 47  1  0
M  CHG  3   2   1  13  -1  26  -1
M  END
>  <UniqueID>  (93) 
93

>  <SMILES>  (93) 
C[NH+](C)C(=O)COC(=O)n1c(C([NH-])=O)cc2ccc(N3CC(F)(C(=O)[O-])C3)cc21

>  <Energy>  (93) 
130.39251881607706

>  <Genealogy>  (93) 
C[NH+](C)C(=O)COC(=O)n1c(C([NH-])=O)cc2ccc(N3CC(F)(C(=O)[O-])C3)cc21 (protonated)
C[NH+](C)C(=O)COC(=O)n1c(C([NH-])=O)cc2ccc(N3CC(F)(C(=O)[O-])C3)cc21 (3D coordinates assigned)
C[NH+](C)C(=O)COC(=O)n1c(C([NH-])=O)cc2ccc(N3CC(F)(C(=O)[O-])C3)cc21 (nonaromatic ring conformer: 130.39251881607706 kcal/mol)

>  <smiles>  (93) 
CN(C)C(=O)COC(=O)n1c(C(N)=O)cc2ccc(N3CC(F)(C(=O)O)C3)cc21

>  <score_type>  (93) 
oracle

>  <origin>  (93) 
adg

>  <m_score__min__energy>  (93) 
-6.5599999999999996

>  <m_primary>  (93) 
energy

$$$$
94:0
     RDKit          3D

 41 42  0  0  0  0  0  0  0  0999 V2000
  148.4850  159.1010  134.1180 C   0  0  0  0  0  0  0  0  0  0  0  0
  147.3420  158.5740  133.6560 C   0  0  0  0  0  0  0  0  0  0  0  0
  147.0690  157.1260  133.8310 C   0  0  0  0  0  0  0  0  0  0  0  0
  147.2770  156.3130  132.8900 O   0  0  0  0  0  0  0  0  0  0  0  0
  146.5940  156.6390  135.0440 O   0  0  0  0  0  0  0  0  0  0  0  0
  146.3560  159.4430  132.9620 C   0  0  0  0  0  0  0  0  0  0  0  0
  146.6860  160.0520  131.9090 O   0  0  0  0  0  0  0  0  0  0  0  0
  145.0190  159.5990  133.4680 N   0  0  0  0  0  0  0  0  0  0  0  0
  144.4250  160.7350  133.9300 C   0  0  0  0  0  0  0  0  0  0  0  0
  145.0840  162.0480  134.1060 C   0  0  0  0  0  0  0  0  0  0  0  0
  146.5050  162.1630  134.1140 N   0  0  0  0  0  0  0  0  0  0  0  0
  144.3820  163.0790  134.2820 O   0  0  0  0  0  0  0  0  0  0  0  0
  143.1030  160.4810  134.2910 C   0  0  0  0  0  0  0  0  0  0  0  0
  142.9050  159.1430  134.0350 C   0  0  0  0  0  0  0  0  0  0  0  0
  141.7760  158.3490  134.2220 C   0  0  0  0  0  0  0  0  0  0  0  0
  141.8640  156.9890  133.8770 C   0  0  0  0  0  0  0  0  0  0  0  0
  143.0630  156.4560  133.3410 C   0  0  0  0  0  0  0  0  0  0  0  0
  143.1560  154.9910  133.0150 C   0  0  0  0  0  0  0  0  0  0  0  0
  144.5500  154.6180  132.5490 C   0  0  0  0  0  0  0  0  0  0  0  0
  144.7400  154.5040  131.3460 O   0  0  0  0  0  0  0  0  0  0  0  0
  145.6430  154.3190  133.4620 N   0  0  0  0  0  0  0  0  0  0  0  0
  145.1880  154.0770  134.8410 C   0  0  0  0  0  0  0  0  0  0  0  0
  146.4430  153.1880  132.9660 C   0  0  0  0  0  0  0  0  0  0  0  0
  144.1790  157.2980  133.1460 C   0  0  0  0  0  0  0  0  0  0  0  0
  144.0730  158.6380  133.5300 C   0  0  0  0  0  0  0  0  0  0  0  0
  148.6876  160.1744  133.9884 H   0  0  0  0  0  0  0  0  0  0  0  0
  149.2201  158.4600  134.6266 H   0  0  0  0  0  0  0  0  0  0  0  0
  147.0810  161.7630  133.3410 H   0  0  0  0  0  0  0  0  0  0  0  0
  142.3727  161.1977  134.6948 H   0  0  0  0  0  0  0  0  0  0  0  0
  140.8450  158.7726  134.6268 H   0  0  0  0  0  0  0  0  0  0  0  0
  140.9940  156.3322  134.0244 H   0  0  0  0  0  0  0  0  0  0  0  0
  142.9107  154.4074  133.9146 H   0  0  0  0  0  0  0  0  0  0  0  0
  142.4476  154.7702  132.2029 H   0  0  0  0  0  0  0  0  0  0  0  0
  146.2730  155.1570  133.4940 H   0  0  0  0  0  0  0  0  0  0  0  0
  145.9324  154.4729  135.5475 H   0  0  0  0  0  0  0  0  0  0  0  0
  144.2241  154.5816  135.0029 H   0  0  0  0  0  0  0  0  0  0  0  0
  145.0676  152.9957  135.0029 H   0  0  0  0  0  0  0  0  0  0  0  0
  146.8442  152.6208  133.8188 H   0  0  0  0  0  0  0  0  0  0  0  0
  145.8081  152.5302  132.3542 H   0  0  0  0  0  0  0  0  0  0  0  0
  147.2747  153.5675  132.3542 H   0  0  0  0  0  0  0  0  0  0  0  0
  145.1081  156.9098  132.7033 H   0  0  0  0  0  0  0  0  0  0  0  0
  1  2  2  0
  2  3  1  0
  3  4  2  0
  3  5  1  0
  2  6  1  0
  6  7  2  0
  6  8  1  0
  8  9  1  0
  9 10  1  0
 10 11  1  0
 10 12  2  0
  9 13  2  0
 13 14  1  0
 14 15  2  0
 15 16  1  0
 16 17  2  0
 17 18  1  0
 18 19  1  0
 19 20  2  0
 19 21  1  0
 21 22  1  0
 21 23  1  0
 17 24  1  0
 24 25  2  0
 25  8  1  0
 25 14  1  0
  1 26  1  0
  1 27  1  0
 11 28  1  0
 13 29  1  0
 15 30  1  0
 16 31  1  0
 18 32  1  0
 18 33  1  0
 21 34  1  0
 22 35  1  0
 22 36  1  0
 22 37  1  0
 23 38  1  0
 23 39  1  0
 23 40  1  0
 24 41  1  0
M  CHG  3   5  -1  11  -1  21   1
M  END
>  <UniqueID>  (94) 
94

>  <SMILES>  (94) 
C=C(C(=O)[O-])C(=O)n1c(C([NH-])=O)cc2ccc(CC(=O)[NH+](C)C)cc21

>  <Energy>  (94) 
81.86875952110924

>  <Genealogy>  (94) 
C=C(C(=O)[O-])C(=O)n1c(C([NH-])=O)cc2ccc(CC(=O)[NH+](C)C)cc21 (protonated)
C=C(C(=O)[O-])C(=O)n1c(C([NH-])=O)cc2ccc(CC(=O)[NH+](C)C)cc21 (3D coordinates assigned)
C=C(C(=O)[O-])C(=O)n1c(C([NH-])=O)cc2ccc(CC(=O)[NH+](C)C)cc21 (optimized conformer: 81.86875952110924 kcal/mol)

>  <smiles>  (94) 
C=C(C(=O)O)C(=O)n1c(C(N)=O)cc2ccc(CC(=O)N(C)C)cc21

>  <score_type>  (94) 
oracle

>  <origin>  (94) 
adg

>  <m_score__min__energy>  (94) 
-5.71

>  <m_primary>  (94) 
energy

$$$$
95:0
     RDKit          3D

 43 44  0  0  0  0  0  0  0  0999 V2000
  139.4770  157.5180  132.5280 C   0  0  0  0  0  0  0  0  0  0  0  0
  139.9500  157.8980  133.9390 C   0  0  2  0  0  0  0  0  0  0  0  0
  140.3800  159.3370  134.0700 C   0  0  0  0  0  0  0  0  0  0  0  0
  140.7100  159.8210  135.1870 O   0  0  0  0  0  0  0  0  0  0  0  0
  140.4400  160.1400  132.9380 O   0  0  0  0  0  0  0  0  0  0  0  0
  140.9870  156.9530  134.4140 N   0  0  0  0  0  0  0  0  0  0  0  0
  140.9750  156.5690  135.8320 C   0  0  0  0  0  0  0  0  0  0  0  0
  142.0040  156.3490  133.5710 C   0  0  0  0  0  0  0  0  0  0  0  0
  141.9810  155.0990  133.3850 O   0  0  0  0  0  0  0  0  0  0  0  0
  143.1330  157.1350  132.9510 C   0  0  0  0  0  0  0  0  0  0  0  0
  143.7760  158.0550  133.9520 C   0  0  0  0  0  0  0  0  0  0  0  0
  143.2400  158.2120  135.0820 O   0  0  0  0  0  0  0  0  0  0  0  0
  144.9670  158.7890  133.6210 N   0  0  0  0  0  0  0  0  0  0  0  0
  145.1400  160.1410  133.5930 C   0  0  0  0  0  0  0  0  0  0  0  0
  144.0760  161.1540  133.7450 C   0  0  0  0  0  0  0  0  0  0  0  0
  142.7130  160.7760  133.9330 N   0  0  0  0  0  0  0  0  0  0  0  0
  144.3720  162.3770  133.6630 O   0  0  0  0  0  0  0  0  0  0  0  0
  146.4740  160.4580  133.3460 C   0  0  0  0  0  0  0  0  0  0  0  0
  147.1170  159.2480  133.2080 C   0  0  0  0  0  0  0  0  0  0  0  0
  148.4540  158.9680  132.9500 C   0  0  0  0  0  0  0  0  0  0  0  0
  148.8430  157.6190  132.8810 C   0  0  0  0  0  0  0  0  0  0  0  0
  147.9010  156.5800  133.0940 C   0  0  0  0  0  0  0  0  0  0  0  0
  148.3250  155.1380  132.9750 C   0  0  0  0  0  0  0  0  0  0  0  0
  147.3820  154.4450  132.2410 F   0  0  0  0  0  0  0  0  0  0  0  0
  148.4410  154.5550  134.2250 F   0  0  0  0  0  0  0  0  0  0  0  0
  149.5510  155.0420  132.3380 F   0  0  0  0  0  0  0  0  0  0  0  0
  146.5450  156.9070  133.3310 C   0  0  0  0  0  0  0  0  0  0  0  0
  146.1840  158.2580  133.3780 C   0  0  0  0  0  0  0  0  0  0  0  0
  138.6213  156.8306  132.6008 H   0  0  0  0  0  0  0  0  0  0  0  0
  139.1730  158.4258  131.9863 H   0  0  0  0  0  0  0  0  0  0  0  0
  140.2980  157.0255  131.9863 H   0  0  0  0  0  0  0  0  0  0  0  0
  139.0748  157.8087  134.5993 H   0  0  0  0  0  0  0  0  0  0  0  0
  141.0033  157.4737  136.4571 H   0  0  0  0  0  0  0  0  0  0  0  0
  140.0587  156.0009  136.0503 H   0  0  0  0  0  0  0  0  0  0  0  0
  141.8541  155.9449  136.0503 H   0  0  0  0  0  0  0  0  0  0  0  0
  143.8907  156.4339  132.5710 H   0  0  0  0  0  0  0  0  0  0  0  0
  142.7216  157.7458  132.1339 H   0  0  0  0  0  0  0  0  0  0  0  0
  141.9840  161.5070  134.0940 H   0  0  0  0  0  0  0  0  0  0  0  0
  142.4050  159.7850  133.8240 H   0  0  0  0  0  0  0  0  0  0  0  0
  146.9191  161.4615  133.2761 H   0  0  0  0  0  0  0  0  0  0  0  0
  149.1849  159.7771  132.8044 H   0  0  0  0  0  0  0  0  0  0  0  0
  149.8903  157.3660  132.6592 H   0  0  0  0  0  0  0  0  0  0  0  0
  145.7924  156.1178  133.4749 H   0  0  0  0  0  0  0  0  0  0  0  0
  1  2  1  0
  2  3  1  0
  3  4  2  0
  3  5  1  0
  2  6  1  0
  6  7  1  0
  6  8  1  0
  8  9  2  0
  8 10  1  0
 10 11  1  0
 11 12  2  0
 11 13  1  0
 13 14  1  0
 14 15  1  0
 15 16  1  0
 15 17  2  0
 14 18  2  0
 18 19  1  0
 19 20  2  0
 20 21  1  0
 21 22  2  0
 22 23  1  0
 23 24  1  0
 23 25  1  0
 23 26  1  0
 22 27  1  0
 27 28  2  0
 28 13  1  0
 28 19  1  0
  1 29  1  0
  1 30  1  0
  1 31  1  0
  2 32  1  1
  7 33  1  0
  7 34  1  0
  7 35  1  0
 10 36  1  0
 10 37  1  0
 16 38  1  0
 16 39  1  0
 18 40  1  0
 20 41  1  0
 21 42  1  0
 27 43  1  0
M  CHG  1   5  -1
M  END
>  <UniqueID>  (95) 
95

>  <SMILES>  (95) 
C[C@H](C(=O)[O-])N(C)C(=O)CC(=O)n1c(C(N)=O)cc2ccc(C(F)(F)F)cc21

>  <Energy>  (95) 
84.82490067142983

>  <Genealogy>  (95) 
CC(C(=O)[O-])N(C)C(=O)CC(=O)n1c(C(N)=O)cc2ccc(C(F)(F)F)cc21 (protonated)
C[C@H](C(=O)[O-])N(C)C(=O)CC(=O)n1c(C(N)=O)cc2ccc(C(F)(F)F)cc21 (chirality)
C[C@H](C(=O)[O-])N(C)C(=O)CC(=O)n1c(C(N)=O)cc2ccc(C(F)(F)F)cc21 (3D coordinates assigned)
C[C@H](C(=O)[O-])N(C)C(=O)CC(=O)n1c(C(N)=O)cc2ccc(C(F)(F)F)cc21 (optimized conformer: 84.82490067142983 kcal/mol)

>  <smiles>  (95) 
CC(C(=O)O)N(C)C(=O)CC(=O)n1c(C(N)=O)cc2ccc(C(F)(F)F)cc21

>  <score_type>  (95) 
oracle

>  <origin>  (95) 
adg

>  <m_score__min__energy>  (95) 
-6.4500000000000002

>  <m_primary>  (95) 
energy

$$$$
96:0
     RDKit          3D

 33 34  0  0  0  0  0  0  0  0999 V2000
  148.4450  153.8580  133.4760 C   0  0  0  0  0  0  0  0  0  0  0  0
  148.1260  154.8000  132.4080 N   0  0  0  0  0  0  0  0  0  0  0  0
  147.8360  156.1910  132.6350 C   0  0  0  0  0  0  0  0  0  0  0  0
  148.8590  157.1780  132.6150 C   0  0  0  0  0  0  0  0  0  0  0  0
  148.5560  158.5310  132.8470 C   0  0  0  0  0  0  0  0  0  0  0  0
  147.2300  158.8700  133.0930 C   0  0  0  0  0  0  0  0  0  0  0  0
  146.6600  160.0950  133.3590 C   0  0  0  0  0  0  0  0  0  0  0  0
  145.2990  159.8430  133.5230 C   0  0  0  0  0  0  0  0  0  0  0  0
  144.2930  160.9000  133.7560 C   0  0  0  0  0  0  0  0  0  0  0  0
  142.9350  160.7220  133.3650 N   0  0  0  0  0  0  0  0  0  0  0  0
  144.6460  161.9920  134.2780 O   0  0  0  0  0  0  0  0  0  0  0  0
  145.0440  158.5110  133.3860 N   0  0  0  0  0  0  0  0  0  0  0  0
  143.7840  157.8290  133.4970 C   0  0  0  0  0  0  0  0  0  0  0  0
  142.9790  157.8670  132.5290 O   0  0  0  0  0  0  0  0  0  0  0  0
  143.3760  157.1180  134.7290 C   0  0  0  0  0  0  0  0  0  0  0  0
  142.2840  157.3860  135.4630 C   0  0  0  0  0  0  0  0  0  0  0  0
  141.3280  158.5000  135.1580 C   0  0  0  0  0  0  0  0  0  0  0  0
  142.0290  156.5950  136.5780 O   0  0  0  0  0  0  0  0  0  0  0  0
  146.2310  157.9340  133.1070 C   0  0  0  0  0  0  0  0  0  0  0  0
  146.5020  156.5800  132.8890 C   0  0  0  0  0  0  0  0  0  0  0  0
  148.2817  154.3402  134.4511 H   0  0  0  0  0  0  0  0  0  0  0  0
  147.7962  152.9738  133.3909 H   0  0  0  0  0  0  0  0  0  0  0  0
  149.4976  153.5500  133.3909 H   0  0  0  0  0  0  0  0  0  0  0  0
  148.1110  154.4340  131.4280 H   0  0  0  0  0  0  0  0  0  0  0  0
  149.8989  156.8798  132.4159 H   0  0  0  0  0  0  0  0  0  0  0  0
  149.3440  159.2984  132.8343 H   0  0  0  0  0  0  0  0  0  0  0  0
  147.1707  161.0668  133.4275 H   0  0  0  0  0  0  0  0  0  0  0  0
  142.6730  160.0210  132.6370 H   0  0  0  0  0  0  0  0  0  0  0  0
  144.0238  156.2985  135.0736 H   0  0  0  0  0  0  0  0  0  0  0  0
  140.9568  158.9325  136.0988 H   0  0  0  0  0  0  0  0  0  0  0  0
  141.8445  159.2773  134.5757 H   0  0  0  0  0  0  0  0  0  0  0  0
  140.4813  158.1075  134.5757 H   0  0  0  0  0  0  0  0  0  0  0  0
  145.6941  155.8339  132.9147 H   0  0  0  0  0  0  0  0  0  0  0  0
  1  2  1  0
  2  3  1  0
  3  4  2  0
  4  5  1  0
  5  6  2  0
  6  7  1  0
  7  8  2  0
  8  9  1  0
  9 10  1  0
  9 11  2  0
  8 12  1  0
 12 13  1  0
 13 14  2  0
 13 15  1  0
 15 16  2  3
 16 17  1  0
 16 18  1  0
 12 19  1  0
 19 20  2  0
 20  3  1  0
 19  6  1  0
  1 21  1  0
  1 22  1  0
  1 23  1  0
  2 24  1  0
  4 25  1  0
  5 26  1  0
  7 27  1  0
 10 28  1  0
 15 29  1  0
 17 30  1  0
 17 31  1  0
 17 32  1  0
 20 33  1  0
M  CHG  2  10  -1  18  -1
M  END
>  <UniqueID>  (96) 
96

>  <SMILES>  (96) 
CNc1ccc2cc(C([NH-])=O)n(C(=O)C=C(C)[O-])c2c1

>  <Energy>  (96) 
73.39610669752672

>  <Genealogy>  (96) 
CNc1ccc2cc(C([NH-])=O)n(C(=O)C=C(C)[O-])c2c1 (protonated)
CNc1ccc2cc(C([NH-])=O)n(C(=O)C=C(C)[O-])c2c1 (3D coordinates assigned)
CNc1ccc2cc(C([NH-])=O)n(C(=O)C=C(C)[O-])c2c1 (optimized conformer: 73.39610669752672 kcal/mol)

>  <smiles>  (96) 
CNc1ccc2cc(C(N)=O)n(C(=O)C=C(C)O)c2c1

>  <score_type>  (96) 
oracle

>  <origin>  (96) 
adg

>  <m_score__min__energy>  (96) 
-6.6200000000000001

>  <m_primary>  (96) 
energy

$$$$
97:0
     RDKit          3D

 55 58  0  0  0  0  0  0  0  0999 V2000
  141.0540  154.0460  133.3830 C   0  0  0  0  0  0  0  0  0  0  0  0
  141.2380  155.3260  133.6950 C   0  0  0  0  0  0  0  0  0  0  0  0
  140.4350  156.4070  133.0950 C   0  0  0  0  0  0  0  0  0  0  0  0
  139.3940  156.1430  132.4250 O   0  0  0  0  0  0  0  0  0  0  0  0
  140.8200  157.7750  133.2990 N   0  0  0  0  0  0  0  0  0  0  0  0
  140.0520  158.8880  133.1350 C   0  0  0  0  0  0  0  0  0  0  0  0
  138.6010  158.9040  132.8470 C   0  0  0  0  0  0  0  0  0  0  0  0
  137.7380  157.8530  133.2860 N   0  0  0  0  0  0  0  0  0  0  0  0
  138.1090  159.8820  132.2240 O   0  0  0  0  0  0  0  0  0  0  0  0
  140.8310  160.0390  133.2440 C   0  0  0  0  0  0  0  0  0  0  0  0
  142.1130  159.5920  133.4730 C   0  0  0  0  0  0  0  0  0  0  0  0
  143.3040  160.3040  133.5780 C   0  0  0  0  0  0  0  0  0  0  0  0
  144.5000  159.5750  133.6810 C   0  0  0  0  0  0  0  0  0  0  0  0
  144.4840  158.1580  133.6850 C   0  0  0  0  0  0  0  0  0  0  0  0
  145.7180  157.4220  133.6710 N   0  0  0  0  0  0  0  0  0  0  0  0
  146.0330  156.5690  134.8270 C   0  0  0  0  0  0  0  0  0  0  0  0
  147.4880  156.0840  134.7920 C   0  0  0  0  0  0  0  0  0  0  0  0
  148.4600  157.2440  134.5180 C   0  0  0  0  0  0  0  0  0  0  0  0
  148.0380  158.1330  133.3110 C   0  0  1  0  0  0  0  0  0  0  0  0
  149.1500  158.3480  132.3020 C   0  0  0  0  0  0  0  0  0  0  0  0
  150.0460  157.4650  132.2120 O   0  0  0  0  0  0  0  0  0  0  0  0
  149.2110  159.4890  131.4240 N   0  0  0  0  0  0  0  0  0  0  0  0
  148.7710  160.8370  131.7560 C   0  0  0  0  0  0  0  0  0  0  0  0
  149.2320  161.7160  130.5970 C   0  0  0  0  0  0  0  0  0  0  0  0
  149.5720  160.7590  129.4580 C   0  0  0  0  0  0  0  0  0  0  0  0
  149.8590  159.4250  130.1230 C   0  0  0  0  0  0  0  0  0  0  0  0
  146.7330  157.6680  132.6410 C   0  0  0  0  0  0  0  0  0  0  0  0
  143.2530  157.4700  133.5990 C   0  0  0  0  0  0  0  0  0  0  0  0
  142.0780  158.2230  133.5000 C   0  0  0  0  0  0  0  0  0  0  0  0
  141.6754  153.2702  133.8542 H   0  0  0  0  0  0  0  0  0  0  0  0
  140.2805  153.7634  132.6538 H   0  0  0  0  0  0  0  0  0  0  0  0
  142.0169  155.5871  134.4266 H   0  0  0  0  0  0  0  0  0  0  0  0
  136.7400  157.8420  132.9830 H   0  0  0  0  0  0  0  0  0  0  0  0
  138.0610  157.1340  133.9690 H   0  0  0  0  0  0  0  0  0  0  0  0
  140.4931  161.0828  133.1640 H   0  0  0  0  0  0  0  0  0  0  0  0
  143.3086  161.4040  133.5803 H   0  0  0  0  0  0  0  0  0  0  0  0
  145.4584  160.1091  133.7593 H   0  0  0  0  0  0  0  0  0  0  0  0
  145.8709  157.1448  135.7501 H   0  0  0  0  0  0  0  0  0  0  0  0
  145.3759  155.6875  134.7930 H   0  0  0  0  0  0  0  0  0  0  0  0
  147.7373  155.6299  135.7624 H   0  0  0  0  0  0  0  0  0  0  0  0
  147.5884  155.3491  133.9797 H   0  0  0  0  0  0  0  0  0  0  0  0
  148.5098  157.8767  135.4164 H   0  0  0  0  0  0  0  0  0  0  0  0
  149.4344  156.7989  134.2682 H   0  0  0  0  0  0  0  0  0  0  0  0
  147.8275  159.1194  133.7501 H   0  0  0  0  0  0  0  0  0  0  0  0
  147.6757  160.8708  131.8516 H   0  0  0  0  0  0  0  0  0  0  0  0
  149.1881  161.1767  132.7155 H   0  0  0  0  0  0  0  0  0  0  0  0
  148.4277  162.4022  130.2934 H   0  0  0  0  0  0  0  0  0  0  0  0
  150.0973  162.3345  130.8776 H   0  0  0  0  0  0  0  0  0  0  0  0
  148.7225  160.6685  128.7650 H   0  0  0  0  0  0  0  0  0  0  0  0
  150.4297  161.1144  128.8679 H   0  0  0  0  0  0  0  0  0  0  0  0
  149.4414  158.6007  129.5262 H   0  0  0  0  0  0  0  0  0  0  0  0
  150.9394  159.2402  130.2151 H   0  0  0  0  0  0  0  0  0  0  0  0
  146.3757  158.4479  131.9524 H   0  0  0  0  0  0  0  0  0  0  0  0
  146.9184  156.7409  132.0787 H   0  0  0  0  0  0  0  0  0  0  0  0
  143.2193  156.3706  133.6096 H   0  0  0  0  0  0  0  0  0  0  0  0
  1  2  2  0
  2  3  1  0
  3  4  2  0
  3  5  1  0
  5  6  1  0
  6  7  1  0
  7  8  1  0
  7  9  2  0
  6 10  2  0
 10 11  1  0
 11 12  2  0
 12 13  1  0
 13 14  2  0
 14 15  1  0
 15 16  1  0
 16 17  1  0
 17 18  1  0
 18 19  1  0
 19 20  1  0
 20 21  2  0
 20 22  1  0
 22 23  1  0
 23 24  1  0
 24 25  1  0
 25 26  1  0
 19 27  1  0
 14 28  1  0
 28 29  2  0
 29  5  1  0
 29 11  1  0
 27 15  1  0
 26 22  1  0
  1 30  1  0
  1 31  1  0
  2 32  1  0
  8 33  1  0
  8 34  1  0
 10 35  1  0
 12 36  1  0
 13 37  1  0
 16 38  1  0
 16 39  1  0
 17 40  1  0
 17 41  1  0
 18 42  1  0
 18 43  1  0
 19 44  1  1
 23 45  1  0
 23 46  1  0
 24 47  1  0
 24 48  1  0
 25 49  1  0
 25 50  1  0
 26 51  1  0
 26 52  1  0
 27 53  1  0
 27 54  1  0
 28 55  1  0
M  END
>  <UniqueID>  (97) 
97

>  <SMILES>  (97) 
C=CC(=O)n1c(C(N)=O)cc2ccc(N3CCC[C@@H](C(=O)N4CCCC4)C3)cc21

>  <Energy>  (97) 
105.23370634594485

>  <Genealogy>  (97) 
C=CC(=O)n1c(C(N)=O)cc2ccc(N3CCC[C@@H](C(=O)N4CCCC4)C3)cc21 (chirality)
C=CC(=O)n1c(C(N)=O)cc2ccc(N3CCC[C@@H](C(=O)N4CCCC4)C3)cc21 (3D coordinates assigned)
C=CC(=O)n1c(C(N)=O)cc2ccc(N3CCC[C@@H](C(=O)N4CCCC4)C3)cc21 (nonaromatic ring conformer: 105.23370634594485 kcal/mol)

>  <smiles>  (97) 
C=CC(=O)n1c(C(N)=O)cc2ccc(N3CCCC(C(=O)N4CCCC4)C3)cc21

>  <score_type>  (97) 
oracle

>  <origin>  (97) 
adg

>  <m_score__min__energy>  (97) 
-9.9299999999999997

>  <m_primary>  (97) 
energy

$$$$
98:0
     RDKit          3D

 41 42  0  0  0  0  0  0  0  0999 V2000
  143.9050  155.7700  134.9850 C   0  0  0  0  0  0  0  0  0  0  0  0
  143.1990  156.9810  134.5390 N   0  0  0  0  0  0  0  0  0  0  0  0
  143.7030  157.6100  133.3390 C   0  0  0  0  0  0  0  0  0  0  0  0
  143.0320  157.5440  132.2730 O   0  0  0  0  0  0  0  0  0  0  0  0
  144.9560  158.3120  133.3400 N   0  0  0  0  0  0  0  0  0  0  0  0
  145.1600  159.6540  133.4510 C   0  0  0  0  0  0  0  0  0  0  0  0
  144.1120  160.6570  133.7330 C   0  0  0  0  0  0  0  0  0  0  0  0
  142.7780  160.4780  133.2530 N   0  0  0  0  0  0  0  0  0  0  0  0
  144.3970  161.7010  134.3750 O   0  0  0  0  0  0  0  0  0  0  0  0
  146.5180  159.9500  133.3440 C   0  0  0  0  0  0  0  0  0  0  0  0
  147.1430  158.7350  133.1750 C   0  0  0  0  0  0  0  0  0  0  0  0
  148.4920  158.4360  133.0060 C   0  0  0  0  0  0  0  0  0  0  0  0
  148.8500  157.0890  132.8270 C   0  0  0  0  0  0  0  0  0  0  0  0
  147.8630  156.0730  132.8200 C   0  0  0  0  0  0  0  0  0  0  0  0
  148.2640  154.6420  132.6070 C   0  0  0  0  0  0  0  0  0  0  0  0
  149.5980  154.5840  132.2440 F   0  0  0  0  0  0  0  0  0  0  0  0
  148.0780  153.9240  133.7750 F   0  0  0  0  0  0  0  0  0  0  0  0
  146.5020  156.4150  132.9910 C   0  0  0  0  0  0  0  0  0  0  0  0
  146.1780  157.7630  133.1820 C   0  0  0  0  0  0  0  0  0  0  0  0
  141.7980  157.2440  134.9780 C   0  0  0  0  0  0  0  0  0  0  0  0
  141.4930  156.5910  136.3480 C   0  0  0  0  0  0  0  0  0  0  0  0
  140.8260  156.6430  133.9380 C   0  0  0  0  0  0  0  0  0  0  0  0
  141.5560  158.7370  135.1300 C   0  0  0  0  0  0  0  0  0  0  0  0
  141.9850  159.3660  136.1340 O   0  0  0  0  0  0  0  0  0  0  0  0
  140.8160  159.4230  134.1720 O   0  0  0  0  0  0  0  0  0  0  0  0
  143.9226  155.7398  136.0844 H   0  0  0  0  0  0  0  0  0  0  0  0
  143.3842  154.8800  134.6020 H   0  0  0  0  0  0  0  0  0  0  0  0
  144.9361  155.7847  134.6020 H   0  0  0  0  0  0  0  0  0  0  0  0
  142.4890  159.5950  132.7770 H   0  0  0  0  0  0  0  0  0  0  0  0
  142.0540  161.2110  133.4260 H   0  0  0  0  0  0  0  0  0  0  0  0
  146.9897  160.9428  133.3857 H   0  0  0  0  0  0  0  0  0  0  0  0
  149.2539  159.2294  133.0124 H   0  0  0  0  0  0  0  0  0  0  0  0
  149.9081  156.8207  132.6908 H   0  0  0  0  0  0  0  0  0  0  0  0
  147.6434  154.2092  131.8085 H   0  0  0  0  0  0  0  0  0  0  0  0
  145.7190  155.6426  132.9744 H   0  0  0  0  0  0  0  0  0  0  0  0
  141.8092  157.2679  137.1554 H   0  0  0  0  0  0  0  0  0  0  0  0
  140.4128  156.4006  136.4311 H   0  0  0  0  0  0  0  0  0  0  0  0
  142.0403  155.6404  136.4311 H   0  0  0  0  0  0  0  0  0  0  0  0
  140.0017  156.1333  134.4582 H   0  0  0  0  0  0  0  0  0  0  0  0
  140.4199  157.4478  133.3077 H   0  0  0  0  0  0  0  0  0  0  0  0
  141.3645  155.9200  133.3077 H   0  0  0  0  0  0  0  0  0  0  0  0
  1  2  1  0
  2  3  1  0
  3  4  2  0
  3  5  1  0
  5  6  1  0
  6  7  1  0
  7  8  1  0
  7  9  2  0
  6 10  2  0
 10 11  1  0
 11 12  2  0
 12 13  1  0
 13 14  2  0
 14 15  1  0
 15 16  1  0
 15 17  1  0
 14 18  1  0
 18 19  2  0
  2 20  1  0
 20 21  1  0
 20 22  1  0
 20 23  1  0
 23 24  2  0
 23 25  1  0
 19  5  1  0
 19 11  1  0
  1 26  1  0
  1 27  1  0
  1 28  1  0
  8 29  1  0
  8 30  1  0
 10 31  1  0
 12 32  1  0
 13 33  1  0
 15 34  1  0
 18 35  1  0
 21 36  1  0
 21 37  1  0
 21 38  1  0
 22 39  1  0
 22 40  1  0
 22 41  1  0
M  CHG  1  25  -1
M  END
>  <UniqueID>  (98) 
98

>  <SMILES>  (98) 
CN(C(=O)n1c(C(N)=O)cc2ccc(C(F)F)cc21)C(C)(C)C(=O)[O-]

>  <Energy>  (98) 
84.85346414277956

>  <Genealogy>  (98) 
CN(C(=O)n1c(C(N)=O)cc2ccc(C(F)F)cc21)C(C)(C)C(=O)[O-] (protonated)
CN(C(=O)n1c(C(N)=O)cc2ccc(C(F)F)cc21)C(C)(C)C(=O)[O-] (3D coordinates assigned)
CN(C(=O)n1c(C(N)=O)cc2ccc(C(F)F)cc21)C(C)(C)C(=O)[O-] (optimized conformer: 84.85346414277956 kcal/mol)

>  <smiles>  (98) 
CN(C(=O)n1c(C(N)=O)cc2ccc(C(F)F)cc21)C(C)(C)C(=O)O

>  <score_type>  (98) 
oracle

>  <origin>  (98) 
adg

>  <m_score__min__energy>  (98) 
-6.5999999999999996

>  <m_primary>  (98) 
energy

$$$$
99:0
     RDKit          3D

 50 51  0  0  0  0  0  0  0  0999 V2000
  149.5750  161.6590  130.3090 C   0  0  0  0  0  0  0  0  0  0  0  0
  148.4400  160.6430  130.3850 C   0  0  0  0  0  0  0  0  0  0  0  0
  148.9590  159.3240  130.5380 O   0  0  0  0  0  0  0  0  0  0  0  0
  149.3130  158.7770  131.7760 C   0  0  0  0  0  0  0  0  0  0  0  0
  150.3150  158.0170  131.8860 O   0  0  0  0  0  0  0  0  0  0  0  0
  148.5200  159.1360  132.9920 C   0  0  0  0  0  0  0  0  0  0  0  0
  147.7120  157.9520  133.4450 C   0  0  0  0  0  0  0  0  0  0  0  0
  148.3620  156.8240  134.0020 C   0  0  0  0  0  0  0  0  0  0  0  0
  147.6240  155.6970  134.4050 C   0  0  0  0  0  0  0  0  0  0  0  0
  146.2430  155.7260  134.2280 C   0  0  0  0  0  0  0  0  0  0  0  0
  145.2900  154.7900  134.5560 C   0  0  0  0  0  0  0  0  0  0  0  0
  144.0730  155.3520  134.1770 C   0  0  0  0  0  0  0  0  0  0  0  0
  142.7800  154.6470  134.2820 C   0  0  0  0  0  0  0  0  0  0  0  0
  141.6730  155.0710  133.4900 N   0  0  0  0  0  0  0  0  0  0  0  0
  142.6300  153.6960  135.0950 O   0  0  0  0  0  0  0  0  0  0  0  0
  144.2650  156.5910  133.6400 N   0  0  0  0  0  0  0  0  0  0  0  0
  143.2570  157.5360  133.2460 C   0  0  0  0  0  0  0  0  0  0  0  0
  142.7880  157.5020  132.0760 O   0  0  0  0  0  0  0  0  0  0  0  0
  142.8280  158.5010  134.1650 O   0  0  0  0  0  0  0  0  0  0  0  0
  142.4440  159.8100  133.8440 C   0  0  0  0  0  0  0  0  0  0  0  0
  143.2980  160.7260  133.6960 O   0  0  0  0  0  0  0  0  0  0  0  0
  140.9910  160.1120  133.6480 C   0  0  0  0  0  0  0  0  0  0  0  0
  140.2870  158.9410  133.0010 C   0  0  0  0  0  0  0  0  0  0  0  0
  139.7470  159.1160  131.9170 O   0  0  0  0  0  0  0  0  0  0  0  0
  140.2530  157.6220  133.6080 N   0  0  0  0  0  0  0  0  0  0  0  0
  139.2690  156.7540  132.9400 C   0  0  0  0  0  0  0  0  0  0  0  0
  139.9870  157.7130  135.0520 C   0  0  0  0  0  0  0  0  0  0  0  0
  145.5990  156.8030  133.6750 C   0  0  0  0  0  0  0  0  0  0  0  0
  146.3090  157.9430  133.2780 C   0  0  0  0  0  0  0  0  0  0  0  0
  149.8864  161.9377  131.3265 H   0  0  0  0  0  0  0  0  0  0  0  0
  150.4276  161.2168  129.7728 H   0  0  0  0  0  0  0  0  0  0  0  0
  149.2296  162.5552  129.7728 H   0  0  0  0  0  0  0  0  0  0  0  0
  147.7980  160.8814  131.2458 H   0  0  0  0  0  0  0  0  0  0  0  0
  147.8579  160.6900  129.4528 H   0  0  0  0  0  0  0  0  0  0  0  0
  149.2050  159.4396  133.7974 H   0  0  0  0  0  0  0  0  0  0  0  0
  147.8404  159.9660  132.7487 H   0  0  0  0  0  0  0  0  0  0  0  0
  149.4556  156.8294  134.1206 H   0  0  0  0  0  0  0  0  0  0  0  0
  148.1215  154.8206  134.8459 H   0  0  0  0  0  0  0  0  0  0  0  0
  145.4541  153.8060  135.0195 H   0  0  0  0  0  0  0  0  0  0  0  0
  141.8190  155.6570  132.6390 H   0  0  0  0  0  0  0  0  0  0  0  0
  140.5292  160.3165  134.6252 H   0  0  0  0  0  0  0  0  0  0  0  0
  140.8965  160.9895  132.9915 H   0  0  0  0  0  0  0  0  0  0  0  0
  141.1920  157.1730  133.4900 H   0  0  0  0  0  0  0  0  0  0  0  0
  138.6711  156.2266  133.6979 H   0  0  0  0  0  0  0  0  0  0  0  0
  138.6062  157.3670  132.3115 H   0  0  0  0  0  0  0  0  0  0  0  0
  139.7945  156.0199  132.3115 H   0  0  0  0  0  0  0  0  0  0  0  0
  140.8839  157.4062  135.6101 H   0  0  0  0  0  0  0  0  0  0  0  0
  139.7298  158.7502  135.3128 H   0  0  0  0  0  0  0  0  0  0  0  0
  139.1484  157.0506  135.3128 H   0  0  0  0  0  0  0  0  0  0  0  0
  145.7873  158.8101  132.8468 H   0  0  0  0  0  0  0  0  0  0  0  0
  1  2  1  0
  2  3  1  0
  3  4  1  0
  4  5  2  0
  4  6  1  0
  6  7  1  0
  7  8  2  0
  8  9  1  0
  9 10  2  0
 10 11  1  0
 11 12  2  0
 12 13  1  0
 13 14  1  0
 13 15  2  0
 12 16  1  0
 16 17  1  0
 17 18  2  0
 17 19  1  0
 19 20  1  0
 20 21  2  0
 20 22  1  0
 22 23  1  0
 23 24  2  0
 23 25  1  0
 25 26  1  0
 25 27  1  0
 16 28  1  0
 28 29  2  0
 29  7  1  0
 28 10  1  0
  1 30  1  0
  1 31  1  0
  1 32  1  0
  2 33  1  0
  2 34  1  0
  6 35  1  0
  6 36  1  0
  8 37  1  0
  9 38  1  0
 11 39  1  0
 14 40  1  0
 22 41  1  0
 22 42  1  0
 25 43  1  0
 26 44  1  0
 26 45  1  0
 26 46  1  0
 27 47  1  0
 27 48  1  0
 27 49  1  0
 29 50  1  0
M  CHG  2  14  -1  25   1
M  END
>  <UniqueID>  (99) 
99

>  <SMILES>  (99) 
CCOC(=O)Cc1ccc2cc(C([NH-])=O)n(C(=O)OC(=O)CC(=O)[NH+](C)C)c2c1

>  <Energy>  (99) 
80.8833766064606

>  <Genealogy>  (99) 
CCOC(=O)Cc1ccc2cc(C([NH-])=O)n(C(=O)OC(=O)CC(=O)[NH+](C)C)c2c1 (protonated)
CCOC(=O)Cc1ccc2cc(C([NH-])=O)n(C(=O)OC(=O)CC(=O)[NH+](C)C)c2c1 (3D coordinates assigned)
CCOC(=O)Cc1ccc2cc(C([NH-])=O)n(C(=O)OC(=O)CC(=O)[NH+](C)C)c2c1 (optimized conformer: 80.8833766064606 kcal/mol)

>  <smiles>  (99) 
CCOC(=O)Cc1ccc2cc(C(N)=O)n(C(=O)OC(=O)CC(=O)N(C)C)c2c1

>  <score_type>  (99) 
oracle

>  <origin>  (99) 
adg

>  <m_score__min__energy>  (99) 
-5.5

>  <m_primary>  (99) 
energy

$$$$
