0:0
     RDKit          3D

 37 38  0  0  0  0  0  0  0  0999 V2000
  149.2360  151.8390  133.7840 C   0  0  0  0  0  0  0  0  0  0  0  0
  148.5760  151.9850  132.4050 C   0  0  0  0  0  0  0  0  0  0  0  0
  147.4420  150.9480  132.2850 C   0  0  0  0  0  0  0  0  0  0  0  0
  149.6410  151.7530  131.3170 C   0  0  0  0  0  0  0  0  0  0  0  0
  148.0530  153.3180  132.3250 O   0  0  0  0  0  0  0  0  0  0  0  0
  148.7440  154.5030  132.6190 C   0  0  0  0  0  0  0  0  0  0  0  0
  149.9580  154.6380  132.3090 O   0  0  0  0  0  0  0  0  0  0  0  0
  148.0640  155.5660  133.3030 N   0  0  0  0  0  0  0  0  0  0  0  0
  147.2920  155.4750  134.4240 C   0  0  0  0  0  0  0  0  0  0  0  0
  146.8650  154.2220  135.0820 C   0  0  0  0  0  0  0  0  0  0  0  0
  146.0400  153.2970  134.3770 N   0  0  0  0  0  0  0  0  0  0  0  0
  147.2520  153.9410  136.2460 O   0  0  0  0  0  0  0  0  0  0  0  0
  146.8790  156.7400  134.8370 C   0  0  0  0  0  0  0  0  0  0  0  0
  147.4190  157.6160  133.9250 C   0  0  0  0  0  0  0  0  0  0  0  0
  147.3500  159.0040  133.8680 C   0  0  0  0  0  0  0  0  0  0  0  0
  148.0390  159.6580  132.8340 C   0  0  0  0  0  0  0  0  0  0  0  0
  148.7760  158.9190  131.8720 C   0  0  0  0  0  0  0  0  0  0  0  0
  149.5640  159.6350  130.8060 C   0  0  0  0  0  0  0  0  0  0  0  0
  149.3720  160.9970  130.9350 F   0  0  0  0  0  0  0  0  0  0  0  0
  150.9140  159.3560  130.9260 F   0  0  0  0  0  0  0  0  0  0  0  0
  149.1520  159.2390  129.5450 F   0  0  0  0  0  0  0  0  0  0  0  0
  148.8430  157.5100  131.9800 C   0  0  0  0  0  0  0  0  0  0  0  0
  148.1310  156.8840  133.0090 C   0  0  0  0  0  0  0  0  0  0  0  0
  148.4843  152.0053  134.5697 H   0  0  0  0  0  0  0  0  0  0  0  0
  149.6542  150.8266  133.8850 H   0  0  0  0  0  0  0  0  0  0  0  0
  150.0422  152.5805  133.8850 H   0  0  0  0  0  0  0  0  0  0  0  0
  147.1127  150.6468  133.2904 H   0  0  0  0  0  0  0  0  0  0  0  0
  146.5959  151.3913  131.7395 H   0  0  0  0  0  0  0  0  0  0  0  0
  147.8081  150.0658  131.7395 H   0  0  0  0  0  0  0  0  0  0  0  0
  150.6104  151.5418  131.7920 H   0  0  0  0  0  0  0  0  0  0  0  0
  149.3455  150.8982  130.6910 H   0  0  0  0  0  0  0  0  0  0  0  0
  149.7278  152.6533  130.6910 H   0  0  0  0  0  0  0  0  0  0  0  0
  146.4540  152.6100  133.7090 H   0  0  0  0  0  0  0  0  0  0  0  0
  146.2536  156.9858  135.7079 H   0  0  0  0  0  0  0  0  0  0  0  0
  146.7724  159.5729  134.6114 H   0  0  0  0  0  0  0  0  0  0  0  0
  148.0072  160.7556  132.7687 H   0  0  0  0  0  0  0  0  0  0  0  0
  149.4416  156.9196  131.2707 H   0  0  0  0  0  0  0  0  0  0  0  0
  1  2  1  0
  2  3  1  0
  2  4  1  0
  2  5  1  0
  5  6  1  0
  6  7  2  0
  6  8  1  0
  8  9  1  0
  9 10  1  0
 10 11  1  0
 10 12  2  0
  9 13  2  0
 13 14  1  0
 14 15  2  0
 15 16  1  0
 16 17  2  0
 17 18  1  0
 18 19  1  0
 18 20  1  0
 18 21  1  0
 17 22  1  0
 22 23  2  0
 23  8  1  0
 23 14  1  0
  1 24  1  0
  1 25  1  0
  1 26  1  0
  3 27  1  0
  3 28  1  0
  3 29  1  0
  4 30  1  0
  4 31  1  0
  4 32  1  0
 11 33  1  0
 13 34  1  0
 15 35  1  0
 16 36  1  0
 22 37  1  0
M  CHG  1  11  -1
M  END
>  <UniqueID>  (1) 
1

>  <SMILES>  (1) 
CC(C)(C)OC(=O)n1c(C([NH-])=O)cc2ccc(C(F)(F)F)cc21

>  <Energy>  (1) 
71.49758448818991

>  <Genealogy>  (1) 
CC(C)(C)OC(=O)n1c(C([NH-])=O)cc2ccc(C(F)(F)F)cc21 (protonated)
CC(C)(C)OC(=O)n1c(C([NH-])=O)cc2ccc(C(F)(F)F)cc21 (3D coordinates assigned)
CC(C)(C)OC(=O)n1c(C([NH-])=O)cc2ccc(C(F)(F)F)cc21 (optimized conformer: 71.49758448818991 kcal/mol)

>  <smiles>  (1) 
CC(C)(C)OC(=O)n1c(C(N)=O)cc2ccc(C(F)(F)F)cc21

>  <score_type>  (1) 
oracle

>  <origin>  (1) 
adg

>  <m_score__min__energy>  (1) 
-6.21

>  <m_primary>  (1) 
energy

$$$$
1:0
     RDKit          3D

 41 44  0  0  0  0  0  0  0  0999 V2000
  148.0160  151.4120  132.9500 N   0  0  0  0  0  0  0  0  0  0  0  0
  148.8590  152.5160  132.6190 C   0  0  0  0  0  0  0  0  0  0  0  0
  150.0070  152.2970  132.1510 O   0  0  0  0  0  0  0  0  0  0  0  0
  148.3840  153.9070  132.7530 C   0  0  0  0  0  0  0  0  0  0  0  0
  149.2120  155.0150  132.6100 C   0  0  0  0  0  0  0  0  0  0  0  0
  148.3860  156.1070  132.7440 C   0  0  0  0  0  0  0  0  0  0  0  0
  148.6870  157.4640  132.7020 C   0  0  0  0  0  0  0  0  0  0  0  0
  147.6410  158.3770  132.9100 C   0  0  0  0  0  0  0  0  0  0  0  0
  146.3200  157.9250  133.1670 C   0  0  0  0  0  0  0  0  0  0  0  0
  145.2260  158.9000  133.4020 C   0  0  0  0  0  0  0  0  0  0  0  0
  145.5100  160.2480  133.6750 C   0  0  0  0  0  0  0  0  0  0  0  0
  144.5010  161.1320  133.8870 N   0  0  0  0  0  0  0  0  0  0  0  0
  143.1960  160.7570  133.8500 C   0  0  0  0  0  0  0  0  0  0  0  0
  142.8490  159.4240  133.5820 C   0  0  0  0  0  0  0  0  0  0  0  0
  141.4260  159.0010  133.5370 C   0  0  0  0  0  0  0  0  0  0  0  0
  140.8750  158.2260  134.5750 C   0  0  0  0  0  0  0  0  0  0  0  0
  139.5350  157.8290  134.5290 C   0  0  0  0  0  0  0  0  0  0  0  0
  138.7310  158.2000  133.4500 C   0  0  0  0  0  0  0  0  0  0  0  0
  139.2630  158.9700  132.4130 C   0  0  0  0  0  0  0  0  0  0  0  0
  138.2490  159.4410  131.0610 Cl  0  0  0  0  0  0  0  0  0  0  0  0
  140.6040  159.3700  132.4540 C   0  0  0  0  0  0  0  0  0  0  0  0
  143.8810  158.4970  133.3600 C   0  0  0  0  0  0  0  0  0  0  0  0
  146.0570  156.5350  133.2030 C   0  0  0  0  0  0  0  0  0  0  0  0
  147.1150  155.6470  132.9690 C   0  0  0  0  0  0  0  0  0  0  0  0
  147.0960  154.2940  132.9800 N   0  0  0  0  0  0  0  0  0  0  0  0
  145.9730  153.4520  133.2940 C   0  0  0  0  0  0  0  0  0  0  0  0
  145.5140  153.4150  134.4650 O   0  0  0  0  0  0  0  0  0  0  0  0
  145.3820  152.6700  132.3090 O   0  0  0  0  0  0  0  0  0  0  0  0
  147.0070  151.5520  133.1770 H   0  0  0  0  0  0  0  0  0  0  0  0
  148.3820  150.4350  132.8850 H   0  0  0  0  0  0  0  0  0  0  0  0
  150.2969  155.0178  132.4283 H   0  0  0  0  0  0  0  0  0  0  0  0
  149.7132  157.8114  132.5116 H   0  0  0  0  0  0  0  0  0  0  0  0
  147.8477  159.4568  132.8734 H   0  0  0  0  0  0  0  0  0  0  0  0
  146.5548  160.5895  133.7173 H   0  0  0  0  0  0  0  0  0  0  0  0
  142.4072  161.5020  134.0311 H   0  0  0  0  0  0  0  0  0  0  0  0
  141.5031  157.9306  135.4284 H   0  0  0  0  0  0  0  0  0  0  0  0
  139.1137  157.2231  135.3447 H   0  0  0  0  0  0  0  0  0  0  0  0
  137.6774  157.8857  133.4162 H   0  0  0  0  0  0  0  0  0  0  0  0
  141.0186  159.9764  131.6352 H   0  0  0  0  0  0  0  0  0  0  0  0
  143.6335  157.4457  133.1513 H   0  0  0  0  0  0  0  0  0  0  0  0
  145.0439  156.1599  133.4102 H   0  0  0  0  0  0  0  0  0  0  0  0
  1  2  1  0
  2  3  2  0
  2  4  1  0
  4  5  2  0
  5  6  1  0
  6  7  2  0
  7  8  1  0
  8  9  2  0
  9 10  1  0
 10 11  2  0
 11 12  1  0
 12 13  2  0
 13 14  1  0
 14 15  1  0
 15 16  2  0
 16 17  1  0
 17 18  2  0
 18 19  1  0
 19 20  1  0
 19 21  2  0
 14 22  2  0
  9 23  1  0
 23 24  2  0
 24 25  1  0
 25 26  1  0
 26 27  2  0
 26 28  1  0
 25  4  1  0
 24  6  1  0
 22 10  1  0
 21 15  1  0
  1 29  1  0
  1 30  1  0
  5 31  1  0
  7 32  1  0
  8 33  1  0
 11 34  1  0
 13 35  1  0
 16 36  1  0
 17 37  1  0
 18 38  1  0
 21 39  1  0
 22 40  1  0
 23 41  1  0
M  CHG  1  28  -1
M  END
>  <UniqueID>  (2) 
2

>  <SMILES>  (2) 
NC(=O)c1cc2ccc(-c3cncc(-c4cccc(Cl)c4)c3)cc2n1C(=O)[O-]

>  <Energy>  (2) 
97.25251875610104

>  <Genealogy>  (2) 
NC(=O)c1cc2ccc(-c3cncc(-c4cccc(Cl)c4)c3)cc2n1C(=O)[O-] (protonated)
NC(=O)c1cc2ccc(-c3cncc(-c4cccc(Cl)c4)c3)cc2n1C(=O)[O-] (3D coordinates assigned)
NC(=O)c1cc2ccc(-c3cncc(-c4cccc(Cl)c4)c3)cc2n1C(=O)[O-] (optimized conformer: 97.25251875610104 kcal/mol)

>  <smiles>  (2) 
NC(=O)c1cc2ccc(-c3cncc(-c4cccc(Cl)c4)c3)cc2n1C(=O)O

>  <score_type>  (2) 
oracle

>  <origin>  (2) 
adg

>  <m_score__min__energy>  (2) 
-9.7899999999999991

>  <m_primary>  (2) 
energy

$$$$
2:0
     RDKit          3D

 42 43  0  0  0  0  0  0  0  0999 V2000
  139.4880  160.1100  132.1660 C   0  0  0  0  0  0  0  0  0  0  0  0
  140.2310  159.3250  132.6070 N   0  0  0  0  0  0  0  0  0  0  0  0
  141.1310  158.3790  133.1600 C   0  0  0  0  0  0  0  0  0  0  0  0
  141.8100  158.9760  134.3900 C   0  0  0  0  0  0  0  0  0  0  0  0
  143.1850  159.4360  134.0390 C   0  0  0  0  0  0  0  0  0  0  0  0
  143.4820  160.7760  134.1090 C   0  0  0  0  0  0  0  0  0  0  0  0
  144.7470  161.2070  133.7870 C   0  0  0  0  0  0  0  0  0  0  0  0
  145.7030  160.2860  133.3980 C   0  0  0  0  0  0  0  0  0  0  0  0
  147.0110  160.4350  133.0320 C   0  0  0  0  0  0  0  0  0  0  0  0
  147.5690  159.1840  132.7210 C   0  0  0  0  0  0  0  0  0  0  0  0
  148.9310  159.0250  132.3020 C   0  0  0  0  0  0  0  0  0  0  0  0
  149.5090  157.6980  132.2690 N   0  0  0  0  0  0  0  0  0  0  0  0
  149.7180  159.9340  131.9450 O   0  0  0  0  0  0  0  0  0  0  0  0
  146.5800  158.2950  132.9080 N   0  0  0  0  0  0  0  0  0  0  0  0
  146.6650  156.8950  132.7190 C   0  0  0  0  0  0  0  0  0  0  0  0
  147.3750  156.3210  131.8600 O   0  0  0  0  0  0  0  0  0  0  0  0
  145.9150  156.0240  133.5310 O   0  0  0  0  0  0  0  0  0  0  0  0
  146.5990  155.1940  134.4530 C   0  0  0  0  0  0  0  0  0  0  0  0
  147.7250  155.9920  135.0580 C   0  0  0  0  0  0  0  0  0  0  0  0
  145.6880  154.7270  135.5630 C   0  0  0  0  0  0  0  0  0  0  0  0
  147.1900  153.9780  133.7900 C   0  0  0  0  0  0  0  0  0  0  0  0
  145.4470  158.9290  133.3150 C   0  0  0  0  0  0  0  0  0  0  0  0
  144.1700  158.5280  133.6440 C   0  0  0  0  0  0  0  0  0  0  0  0
  140.5777  157.4738  133.4505 H   0  0  0  0  0  0  0  0  0  0  0  0
  141.8941  158.1199  132.4113 H   0  0  0  0  0  0  0  0  0  0  0  0
  141.2209  159.8313  134.7525 H   0  0  0  0  0  0  0  0  0  0  0  0
  141.8747  158.2088  135.1756 H   0  0  0  0  0  0  0  0  0  0  0  0
  142.7131  161.4984  134.4204 H   0  0  0  0  0  0  0  0  0  0  0  0
  144.9973  162.2769  133.8383 H   0  0  0  0  0  0  0  0  0  0  0  0
  147.5482  161.3939  132.9874 H   0  0  0  0  0  0  0  0  0  0  0  0
  149.9780  157.4110  133.1590 H   0  0  0  0  0  0  0  0  0  0  0  0
  149.4490  157.0970  131.4170 H   0  0  0  0  0  0  0  0  0  0  0  0
  147.6593  155.9454  136.1550 H   0  0  0  0  0  0  0  0  0  0  0  0
  148.6882  155.5738  134.7303 H   0  0  0  0  0  0  0  0  0  0  0  0
  147.6495  157.0393  134.7303 H   0  0  0  0  0  0  0  0  0  0  0  0
  146.1452  154.9614  136.5356 H   0  0  0  0  0  0  0  0  0  0  0  0
  144.7179  155.2390  135.4810 H   0  0  0  0  0  0  0  0  0  0  0  0
  145.5373  153.6405  135.4810 H   0  0  0  0  0  0  0  0  0  0  0  0
  147.5335  153.2712  134.5597 H   0  0  0  0  0  0  0  0  0  0  0  0
  146.4263  153.4946  133.1630 H   0  0  0  0  0  0  0  0  0  0  0  0
  148.0419  154.2798  133.1630 H   0  0  0  0  0  0  0  0  0  0  0  0
  143.9185  157.4583  133.5938 H   0  0  0  0  0  0  0  0  0  0  0  0
  1  2  3  0
  2  3  1  0
  3  4  1  0
  4  5  1  0
  5  6  2  0
  6  7  1  0
  7  8  2  0
  8  9  1  0
  9 10  2  0
 10 11  1  0
 11 12  1  0
 11 13  2  0
 10 14  1  0
 14 15  1  0
 15 16  2  0
 15 17  1  0
 17 18  1  0
 18 19  1  0
 18 20  1  0
 18 21  1  0
 14 22  1  0
 22 23  2  0
 23  5  1  0
 22  8  1  0
  3 24  1  0
  3 25  1  0
  4 26  1  0
  4 27  1  0
  6 28  1  0
  7 29  1  0
  9 30  1  0
 12 31  1  0
 12 32  1  0
 19 33  1  0
 19 34  1  0
 19 35  1  0
 20 36  1  0
 20 37  1  0
 20 38  1  0
 21 39  1  0
 21 40  1  0
 21 41  1  0
 23 42  1  0
M  CHG  2   1  -1   2   1
M  END
>  <smiles>  (3) 
[C-]#[N+]CCc1ccc2cc(C(N)=O)n(C(=O)OC(C)(C)C)c2c1

>  <score_type>  (3) 
oracle

>  <origin>  (3) 
adg

>  <m_score__min__energy>  (3) 
-7.0599999999999996

>  <m_primary>  (3) 
energy

$$$$
3:0
     RDKit          3D

 46 47  0  0  0  0  0  0  0  0999 V2000
  143.0170  154.0160  133.3820 C   0  0  0  0  0  0  0  0  0  0  0  0
  144.4330  154.1400  132.7850 C   0  0  0  0  0  0  0  0  0  0  0  0
  144.3640  154.5390  131.2990 C   0  0  0  0  0  0  0  0  0  0  0  0
  145.1410  152.7830  132.9040 C   0  0  0  0  0  0  0  0  0  0  0  0
  145.2110  155.0890  133.5270 O   0  0  0  0  0  0  0  0  0  0  0  0
  146.0560  156.0720  132.9940 C   0  0  0  0  0  0  0  0  0  0  0  0
  147.0200  155.7600  132.2420 O   0  0  0  0  0  0  0  0  0  0  0  0
  145.8180  157.4540  133.3070 N   0  0  0  0  0  0  0  0  0  0  0  0
  146.7440  158.4330  133.5110 C   0  0  0  0  0  0  0  0  0  0  0  0
  148.2050  158.2380  133.5980 C   0  0  0  0  0  0  0  0  0  0  0  0
  148.9280  157.5770  132.5580 N   0  0  0  0  0  0  0  0  0  0  0  0
  148.8180  158.6130  134.6330 O   0  0  0  0  0  0  0  0  0  0  0  0
  146.1230  159.6670  133.6850 C   0  0  0  0  0  0  0  0  0  0  0  0
  144.7730  159.4100  133.5960 C   0  0  0  0  0  0  0  0  0  0  0  0
  143.6900  160.2790  133.6880 C   0  0  0  0  0  0  0  0  0  0  0  0
  142.4010  159.7440  133.5250 C   0  0  0  0  0  0  0  0  0  0  0  0
  142.2200  158.3620  133.2610 C   0  0  0  0  0  0  0  0  0  0  0  0
  140.8340  157.7930  133.0950 C   0  0  0  0  0  0  0  0  0  0  0  0
  139.7840  158.8900  132.8460 C   0  0  0  0  0  0  0  0  0  0  0  0
  138.8800  158.6110  131.6350 C   0  0  0  0  0  0  0  0  0  0  0  0
  138.2220  159.8590  131.1310 C   0  0  0  0  0  0  0  0  0  0  0  0
  136.9670  159.9340  131.0740 O   0  0  0  0  0  0  0  0  0  0  0  0
  138.9940  160.9330  130.7060 O   0  0  0  0  0  0  0  0  0  0  0  0
  143.3450  157.5130  133.1720 C   0  0  0  0  0  0  0  0  0  0  0  0
  144.6160  158.0680  133.3640 C   0  0  0  0  0  0  0  0  0  0  0  0
  143.0803  154.0215  134.4802 H   0  0  0  0  0  0  0  0  0  0  0  0
  142.4018  154.8637  133.0459 H   0  0  0  0  0  0  0  0  0  0  0  0
  142.5585  153.0743  133.0459 H   0  0  0  0  0  0  0  0  0  0  0  0
  144.1771  155.6200  131.2179 H   0  0  0  0  0  0  0  0  0  0  0  0
  145.3178  154.2941  130.8089 H   0  0  0  0  0  0  0  0  0  0  0  0
  143.5478  153.9880  130.8089 H   0  0  0  0  0  0  0  0  0  0  0  0
  145.2729  152.5302  133.9664 H   0  0  0  0  0  0  0  0  0  0  0  0
  144.5324  152.0078  132.4154 H   0  0  0  0  0  0  0  0  0  0  0  0
  146.1250  152.8387  132.4154 H   0  0  0  0  0  0  0  0  0  0  0  0
  149.9660  157.4870  132.6190 H   0  0  0  0  0  0  0  0  0  0  0  0
  148.4300  157.1020  131.7730 H   0  0  0  0  0  0  0  0  0  0  0  0
  146.6073  160.6396  133.8569 H   0  0  0  0  0  0  0  0  0  0  0  0
  143.8384  161.3515  133.8823 H   0  0  0  0  0  0  0  0  0  0  0  0
  141.5238  160.4031  133.6028 H   0  0  0  0  0  0  0  0  0  0  0  0
  140.8345  157.1017  132.2394 H   0  0  0  0  0  0  0  0  0  0  0  0
  140.5670  157.2739  134.0273 H   0  0  0  0  0  0  0  0  0  0  0  0
  139.1503  158.9748  133.7411 H   0  0  0  0  0  0  0  0  0  0  0  0
  140.3321  159.8195  132.6327 H   0  0  0  0  0  0  0  0  0  0  0  0
  139.4899  158.1794  130.8277 H   0  0  0  0  0  0  0  0  0  0  0  0
  138.0909  157.9131  131.9517 H   0  0  0  0  0  0  0  0  0  0  0  0
  143.2255  156.4409  132.9569 H   0  0  0  0  0  0  0  0  0  0  0  0
  1  2  1  0
  2  3  1  0
  2  4  1  0
  2  5  1  0
  5  6  1  0
  6  7  2  0
  6  8  1  0
  8  9  1  0
  9 10  1  0
 10 11  1  0
 10 12  2  0
  9 13  2  0
 13 14  1  0
 14 15  2  0
 15 16  1  0
 16 17  2  0
 17 18  1  0
 18 19  1  0
 19 20  1  0
 20 21  1  0
 21 22  2  0
 21 23  1  0
 17 24  1  0
 24 25  2  0
 25  8  1  0
 25 14  1  0
  1 26  1  0
  1 27  1  0
  1 28  1  0
  3 29  1  0
  3 30  1  0
  3 31  1  0
  4 32  1  0
  4 33  1  0
  4 34  1  0
 11 35  1  0
 11 36  1  0
 13 37  1  0
 15 38  1  0
 16 39  1  0
 18 40  1  0
 18 41  1  0
 19 42  1  0
 19 43  1  0
 20 44  1  0
 20 45  1  0
 24 46  1  0
M  CHG  1  23  -1
M  END
>  <UniqueID>  (4) 
3

>  <SMILES>  (4) 
CC(C)(C)OC(=O)n1c(C(N)=O)cc2ccc(CCCC(=O)[O-])cc21

>  <Energy>  (4) 
74.88686365312728

>  <Genealogy>  (4) 
CC(C)(C)OC(=O)n1c(C(N)=O)cc2ccc(CCCC(=O)[O-])cc21 (protonated)
CC(C)(C)OC(=O)n1c(C(N)=O)cc2ccc(CCCC(=O)[O-])cc21 (3D coordinates assigned)
CC(C)(C)OC(=O)n1c(C(N)=O)cc2ccc(CCCC(=O)[O-])cc21 (optimized conformer: 74.88686365312728 kcal/mol)

>  <smiles>  (4) 
CC(C)(C)OC(=O)n1c(C(N)=O)cc2ccc(CCCC(=O)O)cc21

>  <score_type>  (4) 
oracle

>  <origin>  (4) 
adg

>  <m_score__min__energy>  (4) 
-8.0800000000000001

>  <m_primary>  (4) 
energy

$$$$
4:0
     RDKit          3D

 45 47  0  0  0  0  0  0  0  0999 V2000
  144.7290  153.5130  134.2960 C   0  0  0  0  0  0  0  0  0  0  0  0
  144.2440  154.9350  133.9720 C   0  0  0  0  0  0  0  0  0  0  0  0
  142.9690  155.2240  134.7860 C   0  0  0  0  0  0  0  0  0  0  0  0
  143.9590  155.0300  132.4600 C   0  0  0  0  0  0  0  0  0  0  0  0
  145.2960  155.8350  134.3420 O   0  0  0  0  0  0  0  0  0  0  0  0
  146.0690  156.6170  133.4700 C   0  0  0  0  0  0  0  0  0  0  0  0
  146.8730  156.0820  132.6610 O   0  0  0  0  0  0  0  0  0  0  0  0
  145.9560  158.0480  133.5210 N   0  0  0  0  0  0  0  0  0  0  0  0
  146.9620  158.9630  133.6330 C   0  0  0  0  0  0  0  0  0  0  0  0
  148.4090  158.6590  133.5650 C   0  0  0  0  0  0  0  0  0  0  0  0
  148.9200  157.7590  132.5800 N   0  0  0  0  0  0  0  0  0  0  0  0
  149.2020  159.1710  134.3980 O   0  0  0  0  0  0  0  0  0  0  0  0
  146.4400  160.2510  133.7300 C   0  0  0  0  0  0  0  0  0  0  0  0
  145.0740  160.0980  133.6740 C   0  0  0  0  0  0  0  0  0  0  0  0
  144.0620  161.0520  133.7370 C   0  0  0  0  0  0  0  0  0  0  0  0
  142.7310  160.6050  133.6820 C   0  0  0  0  0  0  0  0  0  0  0  0
  142.4360  159.2220  133.5810 C   0  0  0  0  0  0  0  0  0  0  0  0
  141.0300  158.7680  133.5170 C   0  0  0  0  0  0  0  0  0  0  0  0
  140.3630  158.7890  132.2790 C   0  0  0  0  0  0  0  0  0  0  0  0
  139.0410  158.3480  132.1780 C   0  0  0  0  0  0  0  0  0  0  0  0
  138.4110  158.3670  130.9780 F   0  0  0  0  0  0  0  0  0  0  0  0
  138.3710  157.8850  133.3110 C   0  0  0  0  0  0  0  0  0  0  0  0
  139.0170  157.8680  134.5490 C   0  0  0  0  0  0  0  0  0  0  0  0
  140.3420  158.3080  134.6630 C   0  0  0  0  0  0  0  0  0  0  0  0
  141.1310  158.3310  136.4130 Br  0  0  0  0  0  0  0  0  0  0  0  0
  143.4900  158.2860  133.5050 C   0  0  0  0  0  0  0  0  0  0  0  0
  144.8070  158.7590  133.5470 C   0  0  0  0  0  0  0  0  0  0  0  0
  144.7741  153.3807  135.3871 H   0  0  0  0  0  0  0  0  0  0  0  0
  144.0299  152.7804  133.8664 H   0  0  0  0  0  0  0  0  0  0  0  0
  145.7301  153.3602  133.8664 H   0  0  0  0  0  0  0  0  0  0  0  0
  143.2000  155.1716  135.8602 H   0  0  0  0  0  0  0  0  0  0  0  0
  142.5967  156.2293  134.5396 H   0  0  0  0  0  0  0  0  0  0  0  0
  142.1996  154.4775  134.5396 H   0  0  0  0  0  0  0  0  0  0  0  0
  142.9262  155.3743  132.3025 H   0  0  0  0  0  0  0  0  0  0  0  0
  144.6577  155.7438  131.9993 H   0  0  0  0  0  0  0  0  0  0  0  0
  144.0897  154.0397  131.9993 H   0  0  0  0  0  0  0  0  0  0  0  0
  148.3040  157.3590  131.8390 H   0  0  0  0  0  0  0  0  0  0  0  0
  149.9360  157.5200  132.5670 H   0  0  0  0  0  0  0  0  0  0  0  0
  147.0015  161.1916  133.8302 H   0  0  0  0  0  0  0  0  0  0  0  0
  144.2971  162.1228  133.8271 H   0  0  0  0  0  0  0  0  0  0  0  0
  141.9095  161.3356  133.7177 H   0  0  0  0  0  0  0  0  0  0  0  0
  140.8861  159.1554  131.3834 H   0  0  0  0  0  0  0  0  0  0  0  0
  137.3322  157.5328  133.2289 H   0  0  0  0  0  0  0  0  0  0  0  0
  138.4822  157.5070  135.4399 H   0  0  0  0  0  0  0  0  0  0  0  0
  143.2813  157.2097  133.4149 H   0  0  0  0  0  0  0  0  0  0  0  0
  1  2  1  0
  2  3  1  0
  2  4  1  0
  2  5  1  0
  5  6  1  0
  6  7  2  0
  6  8  1  0
  8  9  1  0
  9 10  1  0
 10 11  1  0
 10 12  2  0
  9 13  2  0
 13 14  1  0
 14 15  2  0
 15 16  1  0
 16 17  2  0
 17 18  1  0
 18 19  2  0
 19 20  1  0
 20 21  1  0
 20 22  2  0
 22 23  1  0
 23 24  2  0
 24 25  1  0
 17 26  1  0
 26 27  2  0
 27  8  1  0
 27 14  1  0
 24 18  1  0
  1 28  1  0
  1 29  1  0
  1 30  1  0
  3 31  1  0
  3 32  1  0
  3 33  1  0
  4 34  1  0
  4 35  1  0
  4 36  1  0
 11 37  1  0
 11 38  1  0
 13 39  1  0
 15 40  1  0
 16 41  1  0
 19 42  1  0
 22 43  1  0
 23 44  1  0
 26 45  1  0
M  END
>  <UniqueID>  (5) 
4

>  <SMILES>  (5) 
CC(C)(C)OC(=O)n1c(C(N)=O)cc2ccc(-c3cc(F)ccc3Br)cc21

>  <Energy>  (5) 
88.10214912862784

>  <Genealogy>  (5) 
CC(C)(C)OC(=O)n1c(C(N)=O)cc2ccc(-c3cc(F)ccc3Br)cc21 (3D coordinates assigned)
CC(C)(C)OC(=O)n1c(C(N)=O)cc2ccc(-c3cc(F)ccc3Br)cc21 (optimized conformer: 88.10214912862784 kcal/mol)

>  <smiles>  (5) 
CC(C)(C)OC(=O)n1c(C(N)=O)cc2ccc(-c3cc(F)ccc3Br)cc21

>  <score_type>  (5) 
oracle

>  <origin>  (5) 
adg

>  <m_score__min__energy>  (5) 
-8.9399999999999995

>  <m_primary>  (5) 
energy

$$$$
5:0
     RDKit          3D

 64 67  0  0  0  0  0  0  0  0999 V2000
  140.6100  151.2260  137.9060 C   0  0  0  0  0  0  0  0  0  0  0  0
  141.1220  151.4270  136.5930 O   0  0  0  0  0  0  0  0  0  0  0  0
  141.7090  152.6090  136.1090 C   0  0  0  0  0  0  0  0  0  0  0  0
  141.8800  153.7720  136.8930 C   0  0  0  0  0  0  0  0  0  0  0  0
  141.4500  153.8320  138.2140 O   0  0  0  0  0  0  0  0  0  0  0  0
  142.4840  154.9040  136.3430 C   0  0  0  0  0  0  0  0  0  0  0  0
  142.9290  154.9120  135.0110 C   0  0  0  0  0  0  0  0  0  0  0  0
  143.6080  156.1120  134.4450 C   0  0  0  0  0  0  0  0  0  0  0  0
  142.9400  157.3670  134.4040 C   0  0  0  0  0  0  0  0  0  0  0  0
  143.5730  158.5070  133.8820 C   0  0  0  0  0  0  0  0  0  0  0  0
  144.8800  158.3770  133.4260 C   0  0  0  0  0  0  0  0  0  0  0  0
  145.7230  159.3170  132.8800 C   0  0  0  0  0  0  0  0  0  0  0  0
  146.9130  158.6380  132.6250 C   0  0  0  0  0  0  0  0  0  0  0  0
  148.1310  159.3050  132.1200 C   0  0  0  0  0  0  0  0  0  0  0  0
  149.0340  158.6280  131.2490 N   0  0  0  0  0  0  0  0  0  0  0  0
  148.4030  160.4760  132.5010 O   0  0  0  0  0  0  0  0  0  0  0  0
  146.8040  157.3280  132.9830 N   0  0  0  0  0  0  0  0  0  0  0  0
  147.7830  156.2860  132.8470 C   0  0  0  0  0  0  0  0  0  0  0  0
  148.9920  156.5300  133.0920 O   0  0  0  0  0  0  0  0  0  0  0  0
  147.3790  155.0190  132.4000 O   0  0  0  0  0  0  0  0  0  0  0  0
  147.4190  153.7960  133.1480 C   0  0  0  0  0  0  0  0  0  0  0  0
  147.6070  154.0710  134.6550 C   0  0  0  0  0  0  0  0  0  0  0  0
  148.6280  152.9950  132.6350 C   0  0  0  0  0  0  0  0  0  0  0  0
  146.1340  152.9810  132.9020 C   0  0  0  0  0  0  0  0  0  0  0  0
  145.5520  157.1850  133.4750 C   0  0  0  0  0  0  0  0  0  0  0  0
  144.9340  156.0240  133.9550 C   0  0  0  0  0  0  0  0  0  0  0  0
  142.7390  153.7620  134.2290 C   0  0  0  0  0  0  0  0  0  0  0  0
  142.1380  152.6100  134.7720 C   0  0  0  0  0  0  0  0  0  0  0  0
  141.9550  151.4330  134.0240 O   0  0  0  0  0  0  0  0  0  0  0  0
  141.7410  151.3490  132.6110 C   0  0  0  0  0  0  0  0  0  0  0  0
  142.3750  150.0680  132.0410 C   0  0  0  0  0  0  0  0  0  0  0  0
  141.7290  148.7950  132.6340 C   0  0  0  0  0  0  0  0  0  0  0  0
  140.4220  149.0610  133.2610 N   0  0  0  0  0  0  0  0  0  0  0  0
  139.6020  149.9380  132.4210 C   0  0  0  0  0  0  0  0  0  0  0  0
  140.2240  151.3480  132.3360 C   0  0  0  0  0  0  0  0  0  0  0  0
  141.3685  151.5238  138.6449 H   0  0  0  0  0  0  0  0  0  0  0  0
  139.7047  151.8355  138.0438 H   0  0  0  0  0  0  0  0  0  0  0  0
  140.3611  150.1634  138.0438 H   0  0  0  0  0  0  0  0  0  0  0  0
  142.6134  155.8037  136.9625 H   0  0  0  0  0  0  0  0  0  0  0  0
  141.9119  157.4460  134.7870 H   0  0  0  0  0  0  0  0  0  0  0  0
  143.0503  159.4738  133.8354 H   0  0  0  0  0  0  0  0  0  0  0  0
  145.5046  160.3775  132.6862 H   0  0  0  0  0  0  0  0  0  0  0  0
  149.0410  157.5850  131.1880 H   0  0  0  0  0  0  0  0  0  0  0  0
  147.0802  153.3003  135.2369 H   0  0  0  0  0  0  0  0  0  0  0  0
  148.6789  154.0475  134.9011 H   0  0  0  0  0  0  0  0  0  0  0  0
  147.1959  155.0612  134.9011 H   0  0  0  0  0  0  0  0  0  0  0  0
  149.2045  152.6131  133.4904 H   0  0  0  0  0  0  0  0  0  0  0  0
  148.2760  152.1509  132.0239 H   0  0  0  0  0  0  0  0  0  0  0  0
  149.2681  153.6483  132.0239 H   0  0  0  0  0  0  0  0  0  0  0  0
  145.6886  152.6985  133.8673 H   0  0  0  0  0  0  0  0  0  0  0  0
  145.4172  153.5899  132.3316 H   0  0  0  0  0  0  0  0  0  0  0  0
  146.3793  152.0730  132.3316 H   0  0  0  0  0  0  0  0  0  0  0  0
  145.4679  155.0622  133.9516 H   0  0  0  0  0  0  0  0  0  0  0  0
  143.0639  153.7606  133.1781 H   0  0  0  0  0  0  0  0  0  0  0  0
  142.2128  152.2138  132.1216 H   0  0  0  0  0  0  0  0  0  0  0  0
  142.2411  150.0598  130.9492 H   0  0  0  0  0  0  0  0  0  0  0  0
  143.4420  150.0663  132.3084 H   0  0  0  0  0  0  0  0  0  0  0  0
  141.5892  148.0619  131.8259 H   0  0  0  0  0  0  0  0  0  0  0  0
  142.4019  148.4139  133.4163 H   0  0  0  0  0  0  0  0  0  0  0  0
  139.9220  148.1480  133.3690 H   0  0  0  0  0  0  0  0  0  0  0  0
  139.5357  149.5108  131.4095 H   0  0  0  0  0  0  0  0  0  0  0  0
  138.5997  150.0194  132.8668 H   0  0  0  0  0  0  0  0  0  0  0  0
  140.0495  151.7489  131.3266 H   0  0  0  0  0  0  0  0  0  0  0  0
  139.7467  151.9679  133.1093 H   0  0  0  0  0  0  0  0  0  0  0  0
  1  2  1  0
  2  3  1  0
  3  4  2  0
  4  5  1  0
  4  6  1  0
  6  7  2  0
  7  8  1  0
  8  9  2  0
  9 10  1  0
 10 11  2  0
 11 12  1  0
 12 13  2  0
 13 14  1  0
 14 15  1  0
 14 16  2  0
 13 17  1  0
 17 18  1  0
 18 19  2  0
 18 20  1  0
 20 21  1  0
 21 22  1  0
 21 23  1  0
 21 24  1  0
 17 25  1  0
 25 26  2  0
  7 27  1  0
 27 28  2  0
 28 29  1  0
 29 30  1  0
 30 31  1  0
 31 32  1  0
 32 33  1  0
 33 34  1  0
 34 35  1  0
 28  3  1  0
 35 30  1  0
 26  8  1  0
 25 11  1  0
  1 36  1  0
  1 37  1  0
  1 38  1  0
  6 39  1  0
  9 40  1  0
 10 41  1  0
 12 42  1  0
 15 43  1  0
 22 44  1  0
 22 45  1  0
 22 46  1  0
 23 47  1  0
 23 48  1  0
 23 49  1  0
 24 50  1  0
 24 51  1  0
 24 52  1  0
 26 53  1  0
 27 54  1  0
 30 55  1  0
 31 56  1  0
 31 57  1  0
 32 58  1  0
 32 59  1  0
 33 60  1  0
 34 61  1  0
 34 62  1  0
 35 63  1  0
 35 64  1  0
M  CHG  2   5  -1  15  -1
M  END
>  <UniqueID>  (6) 
5

>  <SMILES>  (6) 
COc1c([O-])cc(-c2ccc3cc(C([NH-])=O)n(C(=O)OC(C)(C)C)c3c2)cc1OC1CCNCC1

>  <Energy>  (6) 
112.3225513067328

>  <Genealogy>  (6) 
COc1c([O-])cc(-c2ccc3cc(C([NH-])=O)n(C(=O)OC(C)(C)C)c3c2)cc1OC1CCNCC1 (protonated)
COc1c([O-])cc(-c2ccc3cc(C([NH-])=O)n(C(=O)OC(C)(C)C)c3c2)cc1OC1CCNCC1 (3D coordinates assigned)
COc1c([O-])cc(-c2ccc3cc(C([NH-])=O)n(C(=O)OC(C)(C)C)c3c2)cc1OC1CCNCC1 (nonaromatic ring conformer: 112.3225513067328 kcal/mol)

>  <smiles>  (6) 
COc1c(O)cc(-c2ccc3cc(C(N)=O)n(C(=O)OC(C)(C)C)c3c2)cc1OC1CCNCC1

>  <score_type>  (6) 
oracle

>  <origin>  (6) 
adg

>  <m_score__min__energy>  (6) 
-9.2599999999999998

>  <m_primary>  (6) 
energy

$$$$
6:0
     RDKit          3D

 61 63  0  0  0  0  0  0  0  0999 V2000
  149.3670  158.5980  132.1140 C   0  0  0  0  0  0  0  0  0  0  0  0
  148.1660  158.1200  132.9510 C   0  0  0  0  0  0  0  0  0  0  0  0
  147.8660  156.6540  132.6040 C   0  0  0  0  0  0  0  0  0  0  0  0
  148.4750  158.2230  134.4570 C   0  0  0  0  0  0  0  0  0  0  0  0
  146.9930  158.8770  132.6260 O   0  0  0  0  0  0  0  0  0  0  0  0
  146.5020  159.9970  133.3120 C   0  0  0  0  0  0  0  0  0  0  0  0
  147.2790  160.8990  133.7270 O   0  0  0  0  0  0  0  0  0  0  0  0
  145.0930  160.0940  133.5700 N   0  0  0  0  0  0  0  0  0  0  0  0
  144.3860  161.1680  134.0220 C   0  0  0  0  0  0  0  0  0  0  0  0
  144.9210  162.5250  134.2630 C   0  0  0  0  0  0  0  0  0  0  0  0
  145.9750  162.7450  135.1960 N   0  0  0  0  0  0  0  0  0  0  0  0
  144.4720  163.4980  133.6000 O   0  0  0  0  0  0  0  0  0  0  0  0
  143.0350  160.8440  134.1410 C   0  0  0  0  0  0  0  0  0  0  0  0
  142.9370  159.5330  133.7290 C   0  0  0  0  0  0  0  0  0  0  0  0
  141.8230  158.7080  133.6220 C   0  0  0  0  0  0  0  0  0  0  0  0
  142.0130  157.3940  133.1600 C   0  0  0  0  0  0  0  0  0  0  0  0
  143.3160  156.9230  132.8210 C   0  0  0  0  0  0  0  0  0  0  0  0
  143.5930  155.5080  132.3390 C   0  0  1  0  0  0  0  0  0  0  0  0
  145.0390  155.1250  132.0260 C   0  0  0  0  0  0  0  0  0  0  0  0
  145.0310  153.5980  132.0130 C   0  0  0  0  0  0  0  0  0  0  0  0
  143.6740  153.1570  132.4020 N   0  0  1  0  0  0  0  0  0  0  0  0
  143.6150  151.8370  132.9820 C   0  0  0  0  0  0  0  0  0  0  0  0
  144.6180  151.0710  132.9820 O   0  0  0  0  0  0  0  0  0  0  0  0
  142.4240  151.3860  133.5390 O   0  0  0  0  0  0  0  0  0  0  0  0
  143.0190  154.2890  133.1210 C   0  0  1  0  0  0  0  0  0  0  0  0
  143.1250  154.3040  134.7310 C   0  0  0  0  0  0  0  0  0  0  0  0
  142.1190  153.3050  135.3670 C   0  0  0  0  0  0  0  0  0  0  0  0
  142.8520  155.6920  135.3450 C   0  0  0  0  0  0  0  0  0  0  0  0
  144.5240  153.8160  135.2110 C   0  0  0  0  0  0  0  0  0  0  0  0
  144.4210  157.7920  132.9770 C   0  0  0  0  0  0  0  0  0  0  0  0
  144.1920  159.1040  133.3990 C   0  0  0  0  0  0  0  0  0  0  0  0
  150.1767  158.9203  132.7852 H   0  0  0  0  0  0  0  0  0  0  0  0
  149.7232  157.7731  131.4794 H   0  0  0  0  0  0  0  0  0  0  0  0
  149.0590  159.4421  131.4794 H   0  0  0  0  0  0  0  0  0  0  0  0
  147.7474  156.0746  133.5315 H   0  0  0  0  0  0  0  0  0  0  0  0
  146.9380  156.5989  132.0160 H   0  0  0  0  0  0  0  0  0  0  0  0
  148.6978  156.2388  132.0160 H   0  0  0  0  0  0  0  0  0  0  0  0
  147.5869  157.9269  135.0346 H   0  0  0  0  0  0  0  0  0  0  0  0
  149.3134  157.5558  134.7058 H   0  0  0  0  0  0  0  0  0  0  0  0
  148.7453  159.2599  134.7058 H   0  0  0  0  0  0  0  0  0  0  0  0
  146.9750  162.6770  134.9030 H   0  0  0  0  0  0  0  0  0  0  0  0
  142.2208  161.4963  134.4896 H   0  0  0  0  0  0  0  0  0  0  0  0
  140.8210  159.0733  133.8913 H   0  0  0  0  0  0  0  0  0  0  0  0
  141.1479  156.7221  133.0589 H   0  0  0  0  0  0  0  0  0  0  0  0
  143.0032  155.6606  131.4231 H   0  0  0  0  0  0  0  0  0  0  0  0
  145.3436  155.5214  131.0462 H   0  0  0  0  0  0  0  0  0  0  0  0
  145.7501  155.5351  132.7582 H   0  0  0  0  0  0  0  0  0  0  0  0
  145.2709  153.2298  131.0046 H   0  0  0  0  0  0  0  0  0  0  0  0
  145.7824  153.2008  132.7113 H   0  0  0  0  0  0  0  0  0  0  0  0
  143.1500  153.0540  131.4980 H   0  0  0  0  0  0  0  0  0  0  0  0
  141.9199  154.2471  133.1033 H   0  0  0  0  0  0  0  0  0  0  0  0
  142.1828  153.3684  136.4633 H   0  0  0  0  0  0  0  0  0  0  0  0
  141.0982  153.5570  135.0440 H   0  0  0  0  0  0  0  0  0  0  0  0
  142.3639  152.2824  135.0440 H   0  0  0  0  0  0  0  0  0  0  0  0
  142.8668  155.6169  136.4423 H   0  0  0  0  0  0  0  0  0  0  0  0
  143.6285  156.3979  135.0153 H   0  0  0  0  0  0  0  0  0  0  0  0
  141.8660  156.0513  135.0153 H   0  0  0  0  0  0  0  0  0  0  0  0
  144.5516  153.8064  136.3106 H   0  0  0  0  0  0  0  0  0  0  0  0
  144.7084  152.8004  134.8307 H   0  0  0  0  0  0  0  0  0  0  0  0
  145.3001  154.4965  134.8307 H   0  0  0  0  0  0  0  0  0  0  0  0
  145.4427  157.4410  132.7697 H   0  0  0  0  0  0  0  0  0  0  0  0
  1  2  1  0
  2  3  1  0
  2  4  1  0
  2  5  1  0
  5  6  1  0
  6  7  2  0
  6  8  1  0
  8  9  1  0
  9 10  1  0
 10 11  1  0
 10 12  2  0
  9 13  2  0
 13 14  1  0
 14 15  2  0
 15 16  1  0
 16 17  2  0
 17 18  1  0
 18 19  1  0
 19 20  1  0
 20 21  1  0
 21 22  1  0
 22 23  2  0
 22 24  1  0
 21 25  1  0
 25 26  1  0
 26 27  1  0
 26 28  1  0
 26 29  1  0
 17 30  1  0
 30 31  2  0
 31  8  1  0
 31 14  1  0
 25 18  1  0
  1 32  1  0
  1 33  1  0
  1 34  1  0
  3 35  1  0
  3 36  1  0
  3 37  1  0
  4 38  1  0
  4 39  1  0
  4 40  1  0
 11 41  1  0
 13 42  1  0
 15 43  1  0
 16 44  1  0
 18 45  1  6
 19 46  1  0
 19 47  1  0
 20 48  1  0
 20 49  1  0
 21 50  1  6
 25 51  1  1
 27 52  1  0
 27 53  1  0
 27 54  1  0
 28 55  1  0
 28 56  1  0
 28 57  1  0
 29 58  1  0
 29 59  1  0
 29 60  1  0
 30 61  1  0
M  CHG  3  11  -1  21   1  24  -1
M  END
>  <UniqueID>  (7) 
6

>  <SMILES>  (7) 
CC(C)(C)OC(=O)n1c(C([NH-])=O)cc2ccc([C@H]3CC[N@@H+](C(=O)[O-])C3C(C)(C)C)cc21

>  <Energy>  (7) 
130.7101250232331

>  <Genealogy>  (7) 
CC(C)(C)OC(=O)n1c(C([NH-])=O)cc2ccc(C3CC[NH+](C(=O)[O-])C3C(C)(C)C)cc21 (protonated)
CC(C)(C)OC(=O)n1c(C([NH-])=O)cc2ccc([C@H]3CC[N@@H+](C(=O)[O-])C3C(C)(C)C)cc21 (chirality)
CC(C)(C)OC(=O)n1c(C([NH-])=O)cc2ccc([C@H]3CC[N@@H+](C(=O)[O-])C3C(C)(C)C)cc21 (3D coordinates assigned)
CC(C)(C)OC(=O)n1c(C([NH-])=O)cc2ccc([C@H]3CC[N@@H+](C(=O)[O-])C3C(C)(C)C)cc21 (nonaromatic ring conformer: 130.7101250232331 kcal/mol)

>  <smiles>  (7) 
CC(C)(C)OC(=O)n1c(C(N)=O)cc2ccc(C3CCN(C(=O)O)C3C(C)(C)C)cc21

>  <score_type>  (7) 
oracle

>  <origin>  (7) 
adg

>  <m_score__min__energy>  (7) 
-8.0099999999999998

>  <m_primary>  (7) 
energy

$$$$
7:0
     RDKit          3D

 44 46  0  0  0  0  0  0  0  0999 V2000
  140.6140  158.1760  136.9590 C   0  0  0  0  0  0  0  0  0  0  0  0
  141.4890  159.2150  136.2630 C   0  0  0  0  0  0  0  0  0  0  0  0
  141.9660  158.7070  134.9650 N   0  0  0  0  0  0  0  0  0  0  0  0
  141.1260  157.8210  134.1970 C   0  0  0  0  0  0  0  0  0  0  0  0
  140.0270  158.3330  133.4890 C   0  0  0  0  0  0  0  0  0  0  0  0
  139.2050  157.4820  132.7490 C   0  0  0  0  0  0  0  0  0  0  0  0
  139.4750  156.1140  132.6980 C   0  0  0  0  0  0  0  0  0  0  0  0
  140.5830  155.5880  133.3800 C   0  0  0  0  0  0  0  0  0  0  0  0
  140.8580  154.1140  133.3500 C   0  0  0  0  0  0  0  0  0  0  0  0
  141.3970  156.4430  134.1390 C   0  0  0  0  0  0  0  0  0  0  0  0
  143.2300  159.1480  134.4170 C   0  0  0  0  0  0  0  0  0  0  0  0
  143.5460  160.5300  134.3280 C   0  0  0  0  0  0  0  0  0  0  0  0
  144.7730  160.9560  133.7940 C   0  0  0  0  0  0  0  0  0  0  0  0
  145.6640  159.9840  133.3510 C   0  0  0  0  0  0  0  0  0  0  0  0
  146.9220  160.1160  132.8060 C   0  0  0  0  0  0  0  0  0  0  0  0
  147.3510  158.8150  132.5500 C   0  0  0  0  0  0  0  0  0  0  0  0
  148.6240  158.4930  131.8730 C   0  0  0  0  0  0  0  0  0  0  0  0
  149.4190  157.4030  132.3360 N   0  0  0  0  0  0  0  0  0  0  0  0
  149.0360  159.1900  130.9090 O   0  0  0  0  0  0  0  0  0  0  0  0
  146.4010  157.9150  132.9330 N   0  0  0  0  0  0  0  0  0  0  0  0
  146.4740  156.4820  132.8910 C   0  0  0  0  0  0  0  0  0  0  0  0
  147.2700  155.8250  131.9050 N   0  0  0  0  0  0  0  0  0  0  0  0
  145.8600  155.7950  133.7520 O   0  0  0  0  0  0  0  0  0  0  0  0
  145.3740  158.6480  133.4140 C   0  0  0  0  0  0  0  0  0  0  0  0
  144.1670  158.1930  133.9540 C   0  0  0  0  0  0  0  0  0  0  0  0
  140.7084  158.2881  138.0492 H   0  0  0  0  0  0  0  0  0  0  0  0
  139.5645  158.3241  136.6647 H   0  0  0  0  0  0  0  0  0  0  0  0
  140.9385  157.1670  136.6647 H   0  0  0  0  0  0  0  0  0  0  0  0
  140.9017  160.1305  136.0990 H   0  0  0  0  0  0  0  0  0  0  0  0
  142.3592  159.4297  136.9007 H   0  0  0  0  0  0  0  0  0  0  0  0
  139.8126  159.4115  133.5178 H   0  0  0  0  0  0  0  0  0  0  0  0
  138.3414  157.8910  132.2041 H   0  0  0  0  0  0  0  0  0  0  0  0
  138.8178  155.4462  132.1218 H   0  0  0  0  0  0  0  0  0  0  0  0
  140.9290  153.7332  134.3796 H   0  0  0  0  0  0  0  0  0  0  0  0
  140.0404  153.5991  132.8242 H   0  0  0  0  0  0  0  0  0  0  0  0
  141.8062  153.9285  132.8242 H   0  0  0  0  0  0  0  0  0  0  0  0
  142.2537  156.0315  134.6928 H   0  0  0  0  0  0  0  0  0  0  0  0
  142.8199  161.2766  134.6821 H   0  0  0  0  0  0  0  0  0  0  0  0
  145.0218  162.0254  133.7281 H   0  0  0  0  0  0  0  0  0  0  0  0
  147.4711  161.0495  132.6137 H   0  0  0  0  0  0  0  0  0  0  0  0
  149.5910  157.2600  133.3560 H   0  0  0  0  0  0  0  0  0  0  0  0
  147.8520  156.3790  131.2390 H   0  0  0  0  0  0  0  0  0  0  0  0
  147.3110  154.7830  131.8690 H   0  0  0  0  0  0  0  0  0  0  0  0
  143.9503  157.1164  134.0176 H   0  0  0  0  0  0  0  0  0  0  0  0
  1  2  1  0
  2  3  1  0
  3  4  1  0
  4  5  2  0
  5  6  1  0
  6  7  2  0
  7  8  1  0
  8  9  1  0
  8 10  2  0
  3 11  1  0
 11 12  2  0
 12 13  1  0
 13 14  2  0
 14 15  1  0
 15 16  2  0
 16 17  1  0
 17 18  1  0
 17 19  2  0
 16 20  1  0
 20 21  1  0
 21 22  1  0
 21 23  2  0
 20 24  1  0
 24 25  2  0
 10  4  1  0
 25 11  1  0
 24 14  1  0
  1 26  1  0
  1 27  1  0
  1 28  1  0
  2 29  1  0
  2 30  1  0
  5 31  1  0
  6 32  1  0
  7 33  1  0
  9 34  1  0
  9 35  1  0
  9 36  1  0
 10 37  1  0
 12 38  1  0
 13 39  1  0
 15 40  1  0
 18 41  1  0
 22 42  1  0
 22 43  1  0
 25 44  1  0
M  CHG  1  18  -1
M  END
>  <UniqueID>  (8) 
7

>  <SMILES>  (8) 
CCN(c1cccc(C)c1)c1ccc2cc(C([NH-])=O)n(C(N)=O)c2c1

>  <Energy>  (8) 
89.45529006353358

>  <Genealogy>  (8) 
CCN(c1cccc(C)c1)c1ccc2cc(C([NH-])=O)n(C(N)=O)c2c1 (protonated)
CCN(c1cccc(C)c1)c1ccc2cc(C([NH-])=O)n(C(N)=O)c2c1 (3D coordinates assigned)
CCN(c1cccc(C)c1)c1ccc2cc(C([NH-])=O)n(C(N)=O)c2c1 (optimized conformer: 89.45529006353358 kcal/mol)

>  <smiles>  (8) 
CCN(c1cccc(C)c1)c1ccc2cc(C(N)=O)n(C(N)=O)c2c1

>  <score_type>  (8) 
oracle

>  <origin>  (8) 
adg

>  <m_score__min__energy>  (8) 
-8.9800000000000004

>  <m_primary>  (8) 
energy

$$$$
8:0
     RDKit          3D

 34 35  0  0  0  0  0  0  0  0999 V2000
  148.8590  154.8680  132.6580 C   0  0  0  0  0  0  0  0  0  0  0  0
  147.5760  155.5910  132.9370 C   0  0  0  0  0  0  0  0  0  0  0  0
  146.4170  154.8630  133.2990 C   0  0  0  0  0  0  0  0  0  0  0  0
  145.2140  155.5300  133.5870 C   0  0  0  0  0  0  0  0  0  0  0  0
  145.2080  156.9200  133.5260 C   0  0  0  0  0  0  0  0  0  0  0  0
  144.1800  157.8110  133.7320 C   0  0  0  0  0  0  0  0  0  0  0  0
  144.7380  159.0720  133.5340 C   0  0  0  0  0  0  0  0  0  0  0  0
  143.9930  160.3300  133.7420 C   0  0  0  0  0  0  0  0  0  0  0  0
  144.6790  161.5580  133.9710 N   0  0  0  0  0  0  0  0  0  0  0  0
  142.7330  160.3130  133.7670 O   0  0  0  0  0  0  0  0  0  0  0  0
  146.0580  158.9660  133.2100 N   0  0  0  0  0  0  0  0  0  0  0  0
  146.9540  160.0240  132.8300 C   0  0  0  0  0  0  0  0  0  0  0  0
  147.3560  160.8480  133.6960 O   0  0  0  0  0  0  0  0  0  0  0  0
  147.4050  160.1110  131.5080 O   0  0  0  0  0  0  0  0  0  0  0  0
  148.7730  160.3000  131.1490 C   0  0  0  0  0  0  0  0  0  0  0  0
  149.6260  159.2800  131.9000 C   0  0  0  0  0  0  0  0  0  0  0  0
  148.9550  160.1380  129.6360 C   0  0  0  0  0  0  0  0  0  0  0  0
  146.3310  157.6420  133.2100 C   0  0  0  0  0  0  0  0  0  0  0  0
  147.5380  157.0020  132.9000 C   0  0  0  0  0  0  0  0  0  0  0  0
  149.3410  154.5964  133.6087 H   0  0  0  0  0  0  0  0  0  0  0  0
  148.6478  153.9561  132.0803 H   0  0  0  0  0  0  0  0  0  0  0  0
  149.5297  155.5210  132.0803 H   0  0  0  0  0  0  0  0  0  0  0  0
  146.4585  153.7652  133.3554 H   0  0  0  0  0  0  0  0  0  0  0  0
  144.3050  154.9703  133.8525 H   0  0  0  0  0  0  0  0  0  0  0  0
  143.1383  157.5772  133.9969 H   0  0  0  0  0  0  0  0  0  0  0  0
  145.4760  161.8490  133.3620 H   0  0  0  0  0  0  0  0  0  0  0  0
  149.0889  161.3174  131.4229 H   0  0  0  0  0  0  0  0  0  0  0  0
  149.5036  159.4263  132.9833 H   0  0  0  0  0  0  0  0  0  0  0  0
  149.3054  158.2633  131.6288 H   0  0  0  0  0  0  0  0  0  0  0  0
  150.6834  159.4156  131.6288 H   0  0  0  0  0  0  0  0  0  0  0  0
  149.7634  159.4185  129.4389 H   0  0  0  0  0  0  0  0  0  0  0  0
  148.0190  159.7687  129.1916 H   0  0  0  0  0  0  0  0  0  0  0  0
  149.2133  161.1105  129.1916 H   0  0  0  0  0  0  0  0  0  0  0  0
  148.4331  157.5837  132.6346 H   0  0  0  0  0  0  0  0  0  0  0  0
  1  2  1  0
  2  3  2  0
  3  4  1  0
  4  5  2  0
  5  6  1  0
  6  7  2  0
  7  8  1  0
  8  9  1  0
  8 10  2  0
  7 11  1  0
 11 12  1  0
 12 13  2  0
 12 14  1  0
 14 15  1  0
 15 16  1  0
 15 17  1  0
 11 18  1  0
 18 19  2  0
 19  2  1  0
 18  5  1  0
  1 20  1  0
  1 21  1  0
  1 22  1  0
  3 23  1  0
  4 24  1  0
  6 25  1  0
  9 26  1  0
 15 27  1  0
 16 28  1  0
 16 29  1  0
 16 30  1  0
 17 31  1  0
 17 32  1  0
 17 33  1  0
 19 34  1  0
M  CHG  1   9  -1
M  END
>  <UniqueID>  (9) 
8

>  <SMILES>  (9) 
Cc1ccc2cc(C([NH-])=O)n(C(=O)OC(C)C)c2c1

>  <Energy>  (9) 
66.29234933831476

>  <Genealogy>  (9) 
Cc1ccc2cc(C([NH-])=O)n(C(=O)OC(C)C)c2c1 (protonated)
Cc1ccc2cc(C([NH-])=O)n(C(=O)OC(C)C)c2c1 (3D coordinates assigned)
Cc1ccc2cc(C([NH-])=O)n(C(=O)OC(C)C)c2c1 (optimized conformer: 66.29234933831476 kcal/mol)

>  <smiles>  (9) 
Cc1ccc2cc(C(N)=O)n(C(=O)OC(C)C)c2c1

>  <score_type>  (9) 
oracle

>  <origin>  (9) 
adg

>  <m_score__min__energy>  (9) 
-6.2699999999999996

>  <m_primary>  (9) 
energy

$$$$
9:0
     RDKit          3D

 78 81  0  0  0  0  0  0  0  0999 V2000
  144.3310  163.7080  133.7490 C   0  0  0  0  0  0  0  0  0  0  0  0
  144.6910  162.6110  134.0950 C   0  0  0  0  0  0  0  0  0  0  0  0
  145.1100  161.2740  134.5270 C   0  0  0  0  0  0  0  0  0  0  0  0
  144.3880  160.2400  133.7690 N   0  0  0  0  0  0  0  0  0  0  0  0
  145.1570  159.3310  132.8940 C   0  0  0  0  0  0  0  0  0  0  0  0
  146.4540  158.7850  133.5590 C   0  0  0  0  0  0  0  0  0  0  0  0
  147.6550  159.0780  132.6630 C   0  0  0  0  0  0  0  0  0  0  0  0
  147.7930  160.3100  131.9920 C   0  0  0  0  0  0  0  0  0  0  0  0
  148.9320  160.5810  131.2290 C   0  0  0  0  0  0  0  0  0  0  0  0
  149.9480  159.6290  131.1280 C   0  0  0  0  0  0  0  0  0  0  0  0
  149.8300  158.4070  131.7950 C   0  0  0  0  0  0  0  0  0  0  0  0
  148.6950  158.1340  132.5630 C   0  0  0  0  0  0  0  0  0  0  0  0
  146.3620  157.3360  134.0620 C   0  0  0  0  0  0  0  0  0  0  0  0
  145.1390  156.6340  133.9780 C   0  0  0  0  0  0  0  0  0  0  0  0
  145.0250  155.3280  134.4640 C   0  0  0  0  0  0  0  0  0  0  0  0
  146.1080  154.7160  135.0910 C   0  0  0  0  0  0  0  0  0  0  0  0
  147.2980  155.4190  135.2620 C   0  0  0  0  0  0  0  0  0  0  0  0
  147.4190  156.7250  134.7770 C   0  0  0  0  0  0  0  0  0  0  0  0
  142.9360  160.2120  133.7390 C   0  0  0  0  0  0  0  0  0  0  0  0
  142.2950  161.3000  133.7320 O   0  0  0  0  0  0  0  0  0  0  0  0
  142.1610  158.9180  133.6130 C   0  0  0  0  0  0  0  0  0  0  0  0
  140.6540  159.1180  133.8520 C   0  0  0  0  0  0  0  0  0  0  0  0
  139.9250  157.8040  134.1770 C   0  0  0  0  0  0  0  0  0  0  0  0
  140.4810  157.1420  135.4150 C   0  0  0  0  0  0  0  0  0  0  0  0
  140.5450  157.8600  136.6340 C   0  0  0  0  0  0  0  0  0  0  0  0
  141.1430  157.2910  137.7700 C   0  0  0  0  0  0  0  0  0  0  0  0
  141.6620  156.0050  137.6580 C   0  0  0  0  0  0  0  0  0  0  0  0
  142.2870  155.2230  138.6020 C   0  0  0  0  0  0  0  0  0  0  0  0
  142.5870  154.0300  137.9510 C   0  0  0  0  0  0  0  0  0  0  0  0
  143.3530  152.9360  138.5800 C   0  0  0  0  0  0  0  0  0  0  0  0
  144.7780  152.9380  138.5670 N   0  0  0  0  0  0  0  0  0  0  0  0
  142.7420  152.0130  139.1860 O   0  0  0  0  0  0  0  0  0  0  0  0
  142.1520  154.0640  136.6570 N   0  0  0  0  0  0  0  0  0  0  0  0
  142.1310  152.9790  135.7130 C   0  0  0  0  0  0  0  0  0  0  0  0
  141.3660  151.9970  135.9070 O   0  0  0  0  0  0  0  0  0  0  0  0
  142.9330  153.0440  134.5620 O   0  0  0  0  0  0  0  0  0  0  0  0
  142.4870  152.8810  133.2070 C   0  0  0  0  0  0  0  0  0  0  0  0
  141.0290  153.3520  133.0610 C   0  0  0  0  0  0  0  0  0  0  0  0
  142.5630  151.3820  132.8800 C   0  0  0  0  0  0  0  0  0  0  0  0
  143.4070  153.6440  132.2340 C   0  0  0  0  0  0  0  0  0  0  0  0
  141.5980  155.2870  136.4910 C   0  0  0  0  0  0  0  0  0  0  0  0
  140.9970  155.8290  135.3470 C   0  0  0  0  0  0  0  0  0  0  0  0
  144.0024  164.7092  133.4332 H   0  0  0  0  0  0  0  0  0  0  0  0
  146.1907  161.1602  134.3564 H   0  0  0  0  0  0  0  0  0  0  0  0
  144.8816  161.1569  135.5966 H   0  0  0  0  0  0  0  0  0  0  0  0
  144.5158  158.4778  132.6276 H   0  0  0  0  0  0  0  0  0  0  0  0
  145.4637  159.9115  132.0114 H   0  0  0  0  0  0  0  0  0  0  0  0
  146.6001  159.3340  134.5009 H   0  0  0  0  0  0  0  0  0  0  0  0
  146.9968  161.0650  132.0697 H   0  0  0  0  0  0  0  0  0  0  0  0
  149.0280  161.5449  130.7078 H   0  0  0  0  0  0  0  0  0  0  0  0
  150.8419  159.8410  130.5230 H   0  0  0  0  0  0  0  0  0  0  0  0
  150.6321  157.6584  131.7154 H   0  0  0  0  0  0  0  0  0  0  0  0
  148.6133  157.1740  133.0937 H   0  0  0  0  0  0  0  0  0  0  0  0
  144.2639  157.1218  133.5238 H   0  0  0  0  0  0  0  0  0  0  0  0
  144.0769  154.7819  134.3509 H   0  0  0  0  0  0  0  0  0  0  0  0
  146.0235  153.6798  135.4503 H   0  0  0  0  0  0  0  0  0  0  0  0
  148.1451  154.9456  135.7800 H   0  0  0  0  0  0  0  0  0  0  0  0
  148.3490  157.2852  134.9539 H   0  0  0  0  0  0  0  0  0  0  0  0
  142.3086  158.5137  132.6007 H   0  0  0  0  0  0  0  0  0  0  0  0
  142.5355  158.2238  134.3797 H   0  0  0  0  0  0  0  0  0  0  0  0
  140.5205  159.8122  134.6948 H   0  0  0  0  0  0  0  0  0  0  0  0
  140.2206  159.5174  132.9232 H   0  0  0  0  0  0  0  0  0  0  0  0
  138.8584  158.0196  134.3378 H   0  0  0  0  0  0  0  0  0  0  0  0
  140.0678  157.1168  133.3300 H   0  0  0  0  0  0  0  0  0  0  0  0
  140.1219  158.8738  136.6915 H   0  0  0  0  0  0  0  0  0  0  0  0
  141.1994  157.8447  138.7188 H   0  0  0  0  0  0  0  0  0  0  0  0
  142.5034  155.4849  139.6482 H   0  0  0  0  0  0  0  0  0  0  0  0
  145.3100  153.7750  138.2410 H   0  0  0  0  0  0  0  0  0  0  0  0
  140.5881  153.4945  134.0586 H   0  0  0  0  0  0  0  0  0  0  0  0
  141.0046  154.3037  132.5100 H   0  0  0  0  0  0  0  0  0  0  0  0
  140.4524  152.5944  132.5100 H   0  0  0  0  0  0  0  0  0  0  0  0
  142.5923  150.8037  133.8153 H   0  0  0  0  0  0  0  0  0  0  0  0
  141.6786  151.0890  132.2953 H   0  0  0  0  0  0  0  0  0  0  0  0
  143.4725  151.1799  132.2953 H   0  0  0  0  0  0  0  0  0  0  0  0
  144.1298  154.2435  132.8068 H   0  0  0  0  0  0  0  0  0  0  0  0
  143.9472  152.9252  131.6004 H   0  0  0  0  0  0  0  0  0  0  0  0
  142.8005  154.3079  131.6004 H   0  0  0  0  0  0  0  0  0  0  0  0
  140.9286  155.2452  134.4172 H   0  0  0  0  0  0  0  0  0  0  0  0
  1  2  3  0
  2  3  1  0
  3  4  1  0
  4  5  1  0
  5  6  1  0
  6  7  1  0
  7  8  2  0
  8  9  1  0
  9 10  2  0
 10 11  1  0
 11 12  2  0
  6 13  1  0
 13 14  2  0
 14 15  1  0
 15 16  2  0
 16 17  1  0
 17 18  2  0
  4 19  1  0
 19 20  2  0
 19 21  1  0
 21 22  1  0
 22 23  1  0
 23 24  1  0
 24 25  2  0
 25 26  1  0
 26 27  2  0
 27 28  1  0
 28 29  2  0
 29 30  1  0
 30 31  1  0
 30 32  2  0
 29 33  1  0
 33 34  1  0
 34 35  2  0
 34 36  1  0
 36 37  1  0
 37 38  1  0
 37 39  1  0
 37 40  1  0
 33 41  1  0
 41 42  2  0
 12  7  1  0
 18 13  1  0
 42 24  1  0
 41 27  1  0
  1 43  1  0
  3 44  1  0
  3 45  1  0
  5 46  1  0
  5 47  1  0
  6 48  1  0
  8 49  1  0
  9 50  1  0
 10 51  1  0
 11 52  1  0
 12 53  1  0
 14 54  1  0
 15 55  1  0
 16 56  1  0
 17 57  1  0
 18 58  1  0
 21 59  1  0
 21 60  1  0
 22 61  1  0
 22 62  1  0
 23 63  1  0
 23 64  1  0
 25 65  1  0
 26 66  1  0
 28 67  1  0
 31 68  1  0
 38 69  1  0
 38 70  1  0
 38 71  1  0
 39 72  1  0
 39 73  1  0
 39 74  1  0
 40 75  1  0
 40 76  1  0
 40 77  1  0
 42 78  1  0
M  CHG  1  31  -1
M  END
>  <UniqueID>  (10) 
9

>  <SMILES>  (10) 
C#CCN(CC(c1ccccc1)c1ccccc1)C(=O)CCCc1ccc2cc(C([NH-])=O)n(C(=O)OC(C)(C)C)c2c1

>  <Energy>  (10) 
114.52339474974252

>  <Genealogy>  (10) 
C#CCN(CC(c1ccccc1)c1ccccc1)C(=O)CCCc1ccc2cc(C([NH-])=O)n(C(=O)OC(C)(C)C)c2c1 (protonated)
C#CCN(CC(c1ccccc1)c1ccccc1)C(=O)CCCc1ccc2cc(C([NH-])=O)n(C(=O)OC(C)(C)C)c2c1 (3D coordinates assigned)
C#CCN(CC(c1ccccc1)c1ccccc1)C(=O)CCCc1ccc2cc(C([NH-])=O)n(C(=O)OC(C)(C)C)c2c1 (optimized conformer: 114.52339474974252 kcal/mol)

>  <smiles>  (10) 
C#CCN(CC(c1ccccc1)c1ccccc1)C(=O)CCCc1ccc2cc(C(N)=O)n(C(=O)OC(C)(C)C)c2c1

>  <score_type>  (10) 
oracle

>  <origin>  (10) 
adg

>  <m_score__min__energy>  (10) 
-11.279999999999999

>  <m_primary>  (10) 
energy

$$$$
10:0
     RDKit          3D

 43 45  0  0  0  0  0  0  0  0999 V2000
  143.2560  161.5800  133.7180 N   0  0  0  0  0  0  0  0  0  0  0  0
  144.6620  161.5880  133.9480 C   0  0  0  0  0  0  0  0  0  0  0  0
  145.2000  162.6100  134.4540 O   0  0  0  0  0  0  0  0  0  0  0  0
  145.4840  160.3970  133.6580 C   0  0  0  0  0  0  0  0  0  0  0  0
  146.8660  160.4410  133.4870 C   0  0  0  0  0  0  0  0  0  0  0  0
  147.2570  159.1310  133.3320 C   0  0  0  0  0  0  0  0  0  0  0  0
  148.5220  158.5950  133.1110 C   0  0  0  0  0  0  0  0  0  0  0  0
  148.6290  157.2030  132.9510 C   0  0  0  0  0  0  0  0  0  0  0  0
  147.4770  156.3780  133.0200 C   0  0  0  0  0  0  0  0  0  0  0  0
  147.5990  154.8950  132.8000 C   0  0  0  0  0  0  0  0  0  0  0  0
  149.0600  154.4990  132.6040 C   0  0  0  0  0  0  0  0  0  0  0  0
  149.2110  152.7250  132.5440 Cl  0  0  0  0  0  0  0  0  0  0  0  0
  146.2080  156.9610  133.2350 C   0  0  0  0  0  0  0  0  0  0  0  0
  146.1340  158.3470  133.4080 C   0  0  0  0  0  0  0  0  0  0  0  0
  145.0360  159.1110  133.6040 N   0  0  0  0  0  0  0  0  0  0  0  0
  143.6750  158.6550  133.6290 C   0  0  0  0  0  0  0  0  0  0  0  0
  143.2150  157.9960  132.6570 O   0  0  0  0  0  0  0  0  0  0  0  0
  142.8540  158.9770  134.7170 O   0  0  0  0  0  0  0  0  0  0  0  0
  141.5820  158.3740  134.9490 C   0  0  0  0  0  0  0  0  0  0  0  0
  140.6070  158.7780  133.8780 C   0  0  0  0  0  0  0  0  0  0  0  0
  140.7050  160.0320  133.2560 C   0  0  0  0  0  0  0  0  0  0  0  0
  139.8160  160.3890  132.2390 C   0  0  0  0  0  0  0  0  0  0  0  0
  138.8130  159.4950  131.8230 C   0  0  0  0  0  0  0  0  0  0  0  0
  137.8990  159.8640  130.7730 N   0  0  0  0  0  0  0  0  0  0  0  0
  138.3120  160.4380  129.7430 O   0  0  0  0  0  0  0  0  0  0  0  0
  136.5560  159.5890  130.8860 O   0  0  0  0  0  0  0  0  0  0  0  0
  138.7200  158.2380  132.4470 C   0  0  0  0  0  0  0  0  0  0  0  0
  139.6100  157.8840  133.4650 C   0  0  0  0  0  0  0  0  0  0  0  0
  142.6090  161.0800  134.3680 H   0  0  0  0  0  0  0  0  0  0  0  0
  147.5084  161.3339  133.4778 H   0  0  0  0  0  0  0  0  0  0  0  0
  149.4110  159.2411  133.0630 H   0  0  0  0  0  0  0  0  0  0  0  0
  149.6146  156.7491  132.7707 H   0  0  0  0  0  0  0  0  0  0  0  0
  147.1953  154.3653  133.6755 H   0  0  0  0  0  0  0  0  0  0  0  0
  147.0337  154.6230  131.8964 H   0  0  0  0  0  0  0  0  0  0  0  0
  149.4297  154.9277  131.6608 H   0  0  0  0  0  0  0  0  0  0  0  0
  149.6531  154.8824  133.4474 H   0  0  0  0  0  0  0  0  0  0  0  0
  145.3005  156.3401  133.2656 H   0  0  0  0  0  0  0  0  0  0  0  0
  141.6933  157.2797  134.9436 H   0  0  0  0  0  0  0  0  0  0  0  0
  141.2003  158.7104  135.9242 H   0  0  0  0  0  0  0  0  0  0  0  0
  141.4869  160.7386  133.5712 H   0  0  0  0  0  0  0  0  0  0  0  0
  139.9010  161.3758  131.7605 H   0  0  0  0  0  0  0  0  0  0  0  0
  137.9411  157.5282  132.1316 H   0  0  0  0  0  0  0  0  0  0  0  0
  139.5273  156.8977  133.9449 H   0  0  0  0  0  0  0  0  0  0  0  0
  1  2  1  0
  2  3  2  0
  2  4  1  0
  4  5  2  0
  5  6  1  0
  6  7  2  0
  7  8  1  0
  8  9  2  0
  9 10  1  0
 10 11  1  0
 11 12  1  0
  9 13  1  0
 13 14  2  0
 14 15  1  0
 15 16  1  0
 16 17  2  0
 16 18  1  0
 18 19  1  0
 19 20  1  0
 20 21  2  0
 21 22  1  0
 22 23  2  0
 23 24  1  0
 24 25  2  0
 24 26  1  0
 23 27  1  0
 27 28  2  0
 15  4  1  0
 28 20  1  0
 14  6  1  0
  1 29  1  0
  5 30  1  0
  7 31  1  0
  8 32  1  0
 10 33  1  0
 10 34  1  0
 11 35  1  0
 11 36  1  0
 13 37  1  0
 19 38  1  0
 19 39  1  0
 21 40  1  0
 22 41  1  0
 27 42  1  0
 28 43  1  0
M  CHG  3   1  -1  24   1  26  -1
M  END
>  <UniqueID>  (11) 
10

>  <SMILES>  (11) 
[NH-]C(=O)c1cc2ccc(CCCl)cc2n1C(=O)OCc1ccc([N+](=O)[O-])cc1

>  <Energy>  (11) 
80.16260057184985

>  <Genealogy>  (11) 
[NH-]C(=O)c1cc2ccc(CCCl)cc2n1C(=O)OCc1ccc([N+](=O)[O-])cc1 (protonated)
[NH-]C(=O)c1cc2ccc(CCCl)cc2n1C(=O)OCc1ccc([N+](=O)[O-])cc1 (3D coordinates assigned)
[NH-]C(=O)c1cc2ccc(CCCl)cc2n1C(=O)OCc1ccc([N+](=O)[O-])cc1 (optimized conformer: 80.16260057184985 kcal/mol)

>  <smiles>  (11) 
NC(=O)c1cc2ccc(CCCl)cc2n1C(=O)OCc1ccc([N+](=O)[O-])cc1

>  <score_type>  (11) 
oracle

>  <origin>  (11) 
adg

>  <m_score__min__energy>  (11) 
-9.1600000000000001

>  <m_primary>  (11) 
energy

$$$$
11:0
     RDKit          3D

 49 51  0  0  0  0  0  0  0  0999 V2000
  150.7220  150.2760  130.3540 C   0  0  0  0  0  0  0  0  0  0  0  0
  150.4790  150.7000  131.6910 O   0  0  0  0  0  0  0  0  0  0  0  0
  149.5690  151.7050  132.0520 C   0  0  0  0  0  0  0  0  0  0  0  0
  149.9570  153.0440  132.2410 C   0  0  0  0  0  0  0  0  0  0  0  0
  149.0100  154.0090  132.6010 C   0  0  0  0  0  0  0  0  0  0  0  0
  147.6630  153.6530  132.7850 C   0  0  0  0  0  0  0  0  0  0  0  0
  146.6550  154.6740  133.1710 C   0  0  0  0  0  0  0  0  0  0  0  0
  145.3880  154.2700  133.6620 C   0  0  0  0  0  0  0  0  0  0  0  0
  144.4110  155.2210  133.9920 C   0  0  0  0  0  0  0  0  0  0  0  0
  144.7230  156.5640  133.8240 C   0  0  0  0  0  0  0  0  0  0  0  0
  143.9440  157.6720  134.0390 C   0  0  0  0  0  0  0  0  0  0  0  0
  144.7360  158.7530  133.6740 C   0  0  0  0  0  0  0  0  0  0  0  0
  144.2270  160.1390  133.6640 C   0  0  0  0  0  0  0  0  0  0  0  0
  145.0950  161.2360  133.3740 N   0  0  0  0  0  0  0  0  0  0  0  0
  142.9930  160.3490  133.8310 O   0  0  0  0  0  0  0  0  0  0  0  0
  145.9760  158.3430  133.2750 N   0  0  0  0  0  0  0  0  0  0  0  0
  147.1090  159.1900  132.9670 C   0  0  0  0  0  0  0  0  0  0  0  0
  147.7230  159.7900  133.8860 O   0  0  0  0  0  0  0  0  0  0  0  0
  147.5020  159.3690  131.6310 O   0  0  0  0  0  0  0  0  0  0  0  0
  148.8440  159.4640  131.1340 C   0  0  0  0  0  0  0  0  0  0  0  0
  149.7660  158.4940  131.9020 C   0  0  0  0  0  0  0  0  0  0  0  0
  148.8930  159.1850  129.6160 C   0  0  0  0  0  0  0  0  0  0  0  0
  149.3160  160.9090  131.3860 C   0  0  0  0  0  0  0  0  0  0  0  0
  145.9460  156.9870  133.3590 C   0  0  0  0  0  0  0  0  0  0  0  0
  146.9400  156.0530  133.0260 C   0  0  0  0  0  0  0  0  0  0  0  0
  147.2810  152.3140  132.5950 C   0  0  0  0  0  0  0  0  0  0  0  0
  148.2270  151.3520  132.2310 C   0  0  0  0  0  0  0  0  0  0  0  0
  151.2689  149.3217  130.3657 H   0  0  0  0  0  0  0  0  0  0  0  0
  149.7632  150.1428  129.8316 H   0  0  0  0  0  0  0  0  0  0  0  0
  151.3217  151.0359  129.8316 H   0  0  0  0  0  0  0  0  0  0  0  0
  151.0095  153.3336  132.1052 H   0  0  0  0  0  0  0  0  0  0  0  0
  149.3222  155.0544  132.7411 H   0  0  0  0  0  0  0  0  0  0  0  0
  145.1686  153.1992  133.7856 H   0  0  0  0  0  0  0  0  0  0  0  0
  143.4263  154.9121  134.3728 H   0  0  0  0  0  0  0  0  0  0  0  0
  142.9122  157.6988  134.4193 H   0  0  0  0  0  0  0  0  0  0  0  0
  146.0970  161.0770  133.1210 H   0  0  0  0  0  0  0  0  0  0  0  0
  144.7300  162.2140  133.4030 H   0  0  0  0  0  0  0  0  0  0  0  0
  149.6295  158.6376  132.9840 H   0  0  0  0  0  0  0  0  0  0  0  0
  149.5119  157.4577  131.6347 H   0  0  0  0  0  0  0  0  0  0  0  0
  150.8139  158.6952  131.6347 H   0  0  0  0  0  0  0  0  0  0  0  0
  149.0810  158.1146  129.4458 H   0  0  0  0  0  0  0  0  0  0  0  0
  147.9318  159.4654  129.1604 H   0  0  0  0  0  0  0  0  0  0  0  0
  149.7011  159.7762  129.1604 H   0  0  0  0  0  0  0  0  0  0  0  0
  149.3756  161.0916  132.4691 H   0  0  0  0  0  0  0  0  0  0  0  0
  150.3084  161.0546  130.9344 H   0  0  0  0  0  0  0  0  0  0  0  0
  148.6009  161.6123  130.9344 H   0  0  0  0  0  0  0  0  0  0  0  0
  147.9219  156.3866  132.6593 H   0  0  0  0  0  0  0  0  0  0  0  0
  146.2299  152.0211  132.7338 H   0  0  0  0  0  0  0  0  0  0  0  0
  147.9138  150.3079  132.0839 H   0  0  0  0  0  0  0  0  0  0  0  0
  1  2  1  0
  2  3  1  0
  3  4  2  0
  4  5  1  0
  5  6  2  0
  6  7  1  0
  7  8  2  0
  8  9  1  0
  9 10  2  0
 10 11  1  0
 11 12  2  0
 12 13  1  0
 13 14  1  0
 13 15  2  0
 12 16  1  0
 16 17  1  0
 17 18  2  0
 17 19  1  0
 19 20  1  0
 20 21  1  0
 20 22  1  0
 20 23  1  0
 16 24  1  0
 24 25  2  0
  6 26  1  0
 26 27  2  0
 27  3  1  0
 25  7  1  0
 24 10  1  0
  1 28  1  0
  1 29  1  0
  1 30  1  0
  4 31  1  0
  5 32  1  0
  8 33  1  0
  9 34  1  0
 11 35  1  0
 14 36  1  0
 14 37  1  0
 21 38  1  0
 21 39  1  0
 21 40  1  0
 22 41  1  0
 22 42  1  0
 22 43  1  0
 23 44  1  0
 23 45  1  0
 23 46  1  0
 25 47  1  0
 26 48  1  0
 27 49  1  0
M  END
>  <UniqueID>  (12) 
11

>  <SMILES>  (12) 
COc1ccc(-c2ccc3cc(C(N)=O)n(C(=O)OC(C)(C)C)c3c2)cc1

>  <Energy>  (12) 
91.99477799937372

>  <Genealogy>  (12) 
COc1ccc(-c2ccc3cc(C(N)=O)n(C(=O)OC(C)(C)C)c3c2)cc1 (3D coordinates assigned)
COc1ccc(-c2ccc3cc(C(N)=O)n(C(=O)OC(C)(C)C)c3c2)cc1 (optimized conformer: 91.99477799937372 kcal/mol)

>  <smiles>  (12) 
COc1ccc(-c2ccc3cc(C(N)=O)n(C(=O)OC(C)(C)C)c3c2)cc1

>  <score_type>  (12) 
oracle

>  <origin>  (12) 
adg

>  <m_score__min__energy>  (12) 
-8.3200000000000003

>  <m_primary>  (12) 
energy

$$$$
12:0
     RDKit          3D

 50 52  0  0  0  0  0  0  0  0999 V2000
  141.3700  157.0010  134.9730 C   0  0  0  0  0  0  0  0  0  0  0  0
  141.7370  158.4900  135.1150 C   0  0  0  0  0  0  0  0  0  0  0  0
  140.9720  159.2930  134.0520 C   0  0  0  0  0  0  0  0  0  0  0  0
  141.3510  159.0160  136.5100 C   0  0  0  0  0  0  0  0  0  0  0  0
  143.1360  158.6900  134.8690 O   0  0  0  0  0  0  0  0  0  0  0  0
  143.8080  158.4720  133.6570 C   0  0  0  0  0  0  0  0  0  0  0  0
  143.2400  157.8810  132.6990 O   0  0  0  0  0  0  0  0  0  0  0  0
  145.1510  158.9550  133.5010 N   0  0  0  0  0  0  0  0  0  0  0  0
  145.6140  160.2250  133.6800 C   0  0  0  0  0  0  0  0  0  0  0  0
  144.7870  161.4210  133.9490 C   0  0  0  0  0  0  0  0  0  0  0  0
  143.3810  161.3780  133.7160 N   0  0  0  0  0  0  0  0  0  0  0  0
  145.3030  162.4700  134.4160 O   0  0  0  0  0  0  0  0  0  0  0  0
  146.9930  160.2720  133.4910 C   0  0  0  0  0  0  0  0  0  0  0  0
  147.3630  158.9840  133.1800 C   0  0  0  0  0  0  0  0  0  0  0  0
  148.6190  158.4560  132.9040 C   0  0  0  0  0  0  0  0  0  0  0  0
  148.7140  157.0790  132.6410 C   0  0  0  0  0  0  0  0  0  0  0  0
  147.5560  156.2510  132.6670 C   0  0  0  0  0  0  0  0  0  0  0  0
  147.6260  154.8340  132.4120 N   0  0  0  0  0  0  0  0  0  0  0  0
  147.2340  153.7930  133.3750 C   0  0  0  0  0  0  0  0  0  0  0  0
  148.4780  153.1740  134.0380 C   0  0  0  0  0  0  0  0  0  0  0  0
  149.2830  152.2990  133.0470 C   0  0  0  0  0  0  0  0  0  0  0  0
  148.5860  152.0300  131.8410 O   0  0  0  0  0  0  0  0  0  0  0  0
  147.2860  151.5580  132.1280 C   0  0  0  0  0  0  0  0  0  0  0  0
  146.4010  152.6920  132.6780 C   0  0  0  0  0  0  0  0  0  0  0  0
  146.3000  156.8310  132.9540 C   0  0  0  0  0  0  0  0  0  0  0  0
  146.2340  158.2080  133.1930 C   0  0  0  0  0  0  0  0  0  0  0  0
  141.2597  156.5537  135.9719 H   0  0  0  0  0  0  0  0  0  0  0  0
  140.4220  156.9079  134.4229 H   0  0  0  0  0  0  0  0  0  0  0  0
  142.1661  156.4780  134.4229 H   0  0  0  0  0  0  0  0  0  0  0  0
  140.2944  160.0042  134.5470 H   0  0  0  0  0  0  0  0  0  0  0  0
  141.6872  159.8444  133.4239 H   0  0  0  0  0  0  0  0  0  0  0  0
  140.3866  158.6054  133.4239 H   0  0  0  0  0  0  0  0  0  0  0  0
  141.8149  158.3839  137.2815 H   0  0  0  0  0  0  0  0  0  0  0  0
  141.7053  160.0513  136.6224 H   0  0  0  0  0  0  0  0  0  0  0  0
  140.2571  158.9886  136.6224 H   0  0  0  0  0  0  0  0  0  0  0  0
  142.8760  160.4670  133.6460 H   0  0  0  0  0  0  0  0  0  0  0  0
  147.6475  161.1523  133.5730 H   0  0  0  0  0  0  0  0  0  0  0  0
  149.5125  159.0975  132.8919 H   0  0  0  0  0  0  0  0  0  0  0  0
  149.6944  156.6356  132.4124 H   0  0  0  0  0  0  0  0  0  0  0  0
  148.0170  154.5330  131.4890 H   0  0  0  0  0  0  0  0  0  0  0  0
  146.6152  154.2623  134.1540 H   0  0  0  0  0  0  0  0  0  0  0  0
  149.1257  153.9837  134.4051 H   0  0  0  0  0  0  0  0  0  0  0  0
  148.1405  152.5316  134.8647 H   0  0  0  0  0  0  0  0  0  0  0  0
  150.2187  152.8220  132.8001 H   0  0  0  0  0  0  0  0  0  0  0  0
  149.4655  151.3327  133.5400 H   0  0  0  0  0  0  0  0  0  0  0  0
  146.8342  151.1629  131.2062 H   0  0  0  0  0  0  0  0  0  0  0  0
  147.3583  150.7669  132.8889 H   0  0  0  0  0  0  0  0  0  0  0  0
  145.8435  153.1433  131.8440 H   0  0  0  0  0  0  0  0  0  0  0  0
  145.7196  152.2585  133.4248 H   0  0  0  0  0  0  0  0  0  0  0  0
  145.3915  156.2118  132.9889 H   0  0  0  0  0  0  0  0  0  0  0  0
  1  2  1  0
  2  3  1  0
  2  4  1  0
  2  5  1  0
  5  6  1  0
  6  7  2  0
  6  8  1  0
  8  9  1  0
  9 10  1  0
 10 11  1  0
 10 12  2  0
  9 13  2  0
 13 14  1  0
 14 15  2  0
 15 16  1  0
 16 17  2  0
 17 18  1  0
 18 19  1  0
 19 20  1  0
 20 21  1  0
 21 22  1  0
 22 23  1  0
 23 24  1  0
 17 25  1  0
 25 26  2  0
 26  8  1  0
 26 14  1  0
 24 19  1  0
  1 27  1  0
  1 28  1  0
  1 29  1  0
  3 30  1  0
  3 31  1  0
  3 32  1  0
  4 33  1  0
  4 34  1  0
  4 35  1  0
 11 36  1  0
 13 37  1  0
 15 38  1  0
 16 39  1  0
 18 40  1  0
 19 41  1  0
 20 42  1  0
 20 43  1  0
 21 44  1  0
 21 45  1  0
 23 46  1  0
 23 47  1  0
 24 48  1  0
 24 49  1  0
 25 50  1  0
M  CHG  1  11  -1
M  END
>  <UniqueID>  (13) 
12

>  <SMILES>  (13) 
CC(C)(C)OC(=O)n1c(C([NH-])=O)cc2ccc(NC3CCOCC3)cc21

>  <Energy>  (13) 
91.86728131977637

>  <Genealogy>  (13) 
CC(C)(C)OC(=O)n1c(C([NH-])=O)cc2ccc(NC3CCOCC3)cc21 (protonated)
CC(C)(C)OC(=O)n1c(C([NH-])=O)cc2ccc(NC3CCOCC3)cc21 (3D coordinates assigned)
CC(C)(C)OC(=O)n1c(C([NH-])=O)cc2ccc(NC3CCOCC3)cc21 (nonaromatic ring conformer: 91.86728131977637 kcal/mol)

>  <smiles>  (13) 
CC(C)(C)OC(=O)n1c(C(N)=O)cc2ccc(NC3CCOCC3)cc21

>  <score_type>  (13) 
oracle

>  <origin>  (13) 
adg

>  <m_score__min__energy>  (13) 
-8.2300000000000004

>  <m_primary>  (13) 
energy

$$$$
13:0
     RDKit          3D

 56 59  0  0  0  0  0  0  0  0999 V2000
  145.0410  154.8240  134.7980 C   0  0  0  0  0  0  0  0  0  0  0  0
  144.7830  154.7780  133.2800 C   0  0  0  0  0  0  0  0  0  0  0  0
  145.0160  153.3440  132.7790 C   0  0  0  0  0  0  0  0  0  0  0  0
  143.3330  155.1880  132.9590 C   0  0  0  0  0  0  0  0  0  0  0  0
  145.7110  155.6230  132.5840 O   0  0  0  0  0  0  0  0  0  0  0  0
  146.6410  156.4960  133.1660 C   0  0  0  0  0  0  0  0  0  0  0  0
  147.6150  156.0540  133.8340 O   0  0  0  0  0  0  0  0  0  0  0  0
  146.4620  157.9120  133.0210 N   0  0  0  0  0  0  0  0  0  0  0  0
  147.3230  158.8190  132.4770 C   0  0  0  0  0  0  0  0  0  0  0  0
  148.5950  158.5040  131.7920 C   0  0  0  0  0  0  0  0  0  0  0  0
  149.4520  157.4940  132.3190 N   0  0  0  0  0  0  0  0  0  0  0  0
  148.9520  159.1420  130.7670 O   0  0  0  0  0  0  0  0  0  0  0  0
  146.8030  160.1070  132.5750 C   0  0  0  0  0  0  0  0  0  0  0  0
  145.5820  159.9610  133.1940 C   0  0  0  0  0  0  0  0  0  0  0  0
  144.6400  160.9200  133.5510 C   0  0  0  0  0  0  0  0  0  0  0  0
  143.4710  160.4860  134.1980 C   0  0  0  0  0  0  0  0  0  0  0  0
  143.2660  159.1090  134.4760 C   0  0  0  0  0  0  0  0  0  0  0  0
  142.0390  158.6500  135.1650 C   0  0  0  0  0  0  0  0  0  0  0  0
  141.9920  158.7000  136.5240 N   0  0  0  0  0  0  0  0  0  0  0  0
  140.8780  158.3350  137.2070 C   0  0  0  0  0  0  0  0  0  0  0  0
  139.7750  157.9160  136.5380 N   0  0  0  0  0  0  0  0  0  0  0  0
  139.7700  157.8340  135.1820 C   0  0  0  0  0  0  0  0  0  0  0  0
  138.7370  157.4330  134.5850 O   0  0  0  0  0  0  0  0  0  0  0  0
  140.9160  158.1780  134.4570 C   0  0  0  0  0  0  0  0  0  0  0  0
  140.9270  158.0370  133.0660 O   0  0  0  0  0  0  0  0  0  0  0  0
  140.9890  159.1640  132.1980 C   0  0  0  0  0  0  0  0  0  0  0  0
  139.6280  159.4200  131.6220 C   0  0  0  0  0  0  0  0  0  0  0  0
  138.5310  158.6500  132.0400 C   0  0  0  0  0  0  0  0  0  0  0  0
  137.2540  158.9100  131.5320 C   0  0  0  0  0  0  0  0  0  0  0  0
  137.0630  159.9470  130.6140 C   0  0  0  0  0  0  0  0  0  0  0  0
  138.1490  160.7250  130.2020 C   0  0  0  0  0  0  0  0  0  0  0  0
  139.4270  160.4660  130.7050 C   0  0  0  0  0  0  0  0  0  0  0  0
  144.2560  158.1690  134.1160 C   0  0  0  0  0  0  0  0  0  0  0  0
  145.4000  158.6270  133.4520 C   0  0  0  0  0  0  0  0  0  0  0  0
  144.0963  154.6555  135.3358 H   0  0  0  0  0  0  0  0  0  0  0  0
  145.7631  154.0405  135.0711 H   0  0  0  0  0  0  0  0  0  0  0  0
  145.4478  155.8089  135.0711 H   0  0  0  0  0  0  0  0  0  0  0  0
  145.1258  152.6681  133.6399 H   0  0  0  0  0  0  0  0  0  0  0  0
  144.1580  153.0247  132.1693 H   0  0  0  0  0  0  0  0  0  0  0  0
  145.9310  153.3127  132.1693 H   0  0  0  0  0  0  0  0  0  0  0  0
  142.7800  155.3444  133.8969 H   0  0  0  0  0  0  0  0  0  0  0  0
  143.3362  156.1204  132.3754 H   0  0  0  0  0  0  0  0  0  0  0  0
  142.8475  154.3919  132.3754 H   0  0  0  0  0  0  0  0  0  0  0  0
  149.3850  157.2000  133.3190 H   0  0  0  0  0  0  0  0  0  0  0  0
  147.2688  161.0423  132.2310 H   0  0  0  0  0  0  0  0  0  0  0  0
  144.8053  161.9855  133.3334 H   0  0  0  0  0  0  0  0  0  0  0  0
  142.7068  161.2205  134.4922 H   0  0  0  0  0  0  0  0  0  0  0  0
  140.8693  158.3790  138.3061 H   0  0  0  0  0  0  0  0  0  0  0  0
  141.3204  160.0467  132.7646 H   0  0  0  0  0  0  0  0  0  0  0  0
  141.7023  158.9646  131.3847 H   0  0  0  0  0  0  0  0  0  0  0  0
  138.6763  157.8395  132.7694 H   0  0  0  0  0  0  0  0  0  0  0  0
  136.3991  158.2979  131.8551 H   0  0  0  0  0  0  0  0  0  0  0  0
  136.0581  160.1508  130.2158 H   0  0  0  0  0  0  0  0  0  0  0  0
  137.9975  161.5419  129.4811 H   0  0  0  0  0  0  0  0  0  0  0  0
  140.2785  161.0830  130.3821 H   0  0  0  0  0  0  0  0  0  0  0  0
  144.1313  157.1018  134.3518 H   0  0  0  0  0  0  0  0  0  0  0  0
  1  2  1  0
  2  3  1  0
  2  4  1  0
  2  5  1  0
  5  6  1  0
  6  7  2  0
  6  8  1  0
  8  9  1  0
  9 10  1  0
 10 11  1  0
 10 12  2  0
  9 13  2  0
 13 14  1  0
 14 15  2  0
 15 16  1  0
 16 17  2  0
 17 18  1  0
 18 19  1  0
 19 20  2  0
 20 21  1  0
 21 22  1  0
 22 23  2  0
 22 24  1  0
 24 25  1  0
 25 26  1  0
 26 27  1  0
 27 28  2  0
 28 29  1  0
 29 30  2  0
 30 31  1  0
 31 32  2  0
 17 33  1  0
 33 34  2  0
 34  8  1  0
 34 14  1  0
 24 18  2  0
 32 27  1  0
  1 35  1  0
  1 36  1  0
  1 37  1  0
  3 38  1  0
  3 39  1  0
  3 40  1  0
  4 41  1  0
  4 42  1  0
  4 43  1  0
 11 44  1  0
 13 45  1  0
 15 46  1  0
 16 47  1  0
 20 48  1  0
 26 49  1  0
 26 50  1  0
 28 51  1  0
 29 52  1  0
 30 53  1  0
 31 54  1  0
 32 55  1  0
 33 56  1  0
M  CHG  2  11  -1  21  -1
M  END
>  <UniqueID>  (14) 
13

>  <SMILES>  (14) 
CC(C)(C)OC(=O)n1c(C([NH-])=O)cc2ccc(-c3nc[n-]c(=O)c3OCc3ccccc3)cc21

>  <Energy>  (14) 
104.60346303812402

>  <Genealogy>  (14) 
CC(C)(C)OC(=O)n1c(C([NH-])=O)cc2ccc(-c3nc[n-]c(=O)c3OCc3ccccc3)cc21 (protonated)
CC(C)(C)OC(=O)n1c(C([NH-])=O)cc2ccc(-c3nc[n-]c(=O)c3OCc3ccccc3)cc21 (3D coordinates assigned)
CC(C)(C)OC(=O)n1c(C([NH-])=O)cc2ccc(-c3nc[n-]c(=O)c3OCc3ccccc3)cc21 (optimized conformer: 104.60346303812402 kcal/mol)

>  <smiles>  (14) 
CC(C)(C)OC(=O)n1c(C(N)=O)cc2ccc(-c3nc[nH]c(=O)c3OCc3ccccc3)cc21

>  <score_type>  (14) 
oracle

>  <origin>  (14) 
adg

>  <m_score__min__energy>  (14) 
-9.6999999999999993

>  <m_primary>  (14) 
energy

$$$$
14:0
     RDKit          3D

 48 49  0  0  0  0  0  0  0  0999 V2000
  149.5410  161.9490  130.7150 C   0  0  0  0  0  0  0  0  0  0  0  0
  148.9200  160.5550  130.9300 C   0  0  0  0  0  0  0  0  0  0  0  0
  148.1190  160.1180  129.6890 C   0  0  0  0  0  0  0  0  0  0  0  0
  150.0510  159.5440  131.1770 C   0  0  0  0  0  0  0  0  0  0  0  0
  148.0860  160.5490  132.0970 O   0  0  0  0  0  0  0  0  0  0  0  0
  148.0730  159.5760  133.1070 C   0  0  0  0  0  0  0  0  0  0  0  0
  149.0430  159.4590  133.9030 O   0  0  0  0  0  0  0  0  0  0  0  0
  146.9570  158.6770  133.2080 N   0  0  0  0  0  0  0  0  0  0  0  0
  145.6590  158.9770  133.4990 C   0  0  0  0  0  0  0  0  0  0  0  0
  145.0850  160.3350  133.6090 C   0  0  0  0  0  0  0  0  0  0  0  0
  145.9220  161.4340  133.9610 N   0  0  0  0  0  0  0  0  0  0  0  0
  143.8530  160.5300  133.4320 O   0  0  0  0  0  0  0  0  0  0  0  0
  144.9000  157.8140  133.6090 C   0  0  0  0  0  0  0  0  0  0  0  0
  145.7760  156.7820  133.3630 C   0  0  0  0  0  0  0  0  0  0  0  0
  145.5620  155.4060  133.3640 C   0  0  0  0  0  0  0  0  0  0  0  0
  146.6620  154.5690  133.1120 C   0  0  0  0  0  0  0  0  0  0  0  0
  147.9450  155.1160  132.8630 C   0  0  0  0  0  0  0  0  0  0  0  0
  149.1200  154.2070  132.6150 C   0  0  0  0  0  0  0  0  0  0  0  0
  148.8900  152.7860  133.1580 C   0  0  0  0  0  0  0  0  0  0  0  0
  149.8670  151.7200  132.6160 C   0  0  0  0  0  0  0  0  0  0  0  0
  149.1860  150.4340  132.1270 C   0  0  0  0  0  0  0  0  0  0  0  0
  148.0950  150.0420  133.0170 N   0  0  0  0  0  0  0  0  0  0  0  0
  148.1230  156.5170  132.8770 C   0  0  0  0  0  0  0  0  0  0  0  0
  147.0100  157.3290  133.1200 C   0  0  0  0  0  0  0  0  0  0  0  0
  149.7476  162.4128  131.6908 H   0  0  0  0  0  0  0  0  0  0  0  0
  150.4797  161.8491  130.1504 H   0  0  0  0  0  0  0  0  0  0  0  0
  148.8389  162.5801  130.1504 H   0  0  0  0  0  0  0  0  0  0  0  0
  147.1948  159.6138  130.0079 H   0  0  0  0  0  0  0  0  0  0  0  0
  147.8649  161.0025  129.0864 H   0  0  0  0  0  0  0  0  0  0  0  0
  148.7252  159.4256  129.0864 H   0  0  0  0  0  0  0  0  0  0  0  0
  150.1965  159.4139  132.2595 H   0  0  0  0  0  0  0  0  0  0  0  0
  149.7844  158.5777  130.7241 H   0  0  0  0  0  0  0  0  0  0  0  0
  150.9815  159.9169  130.7241 H   0  0  0  0  0  0  0  0  0  0  0  0
  146.7360  161.7020  133.3650 H   0  0  0  0  0  0  0  0  0  0  0  0
  143.8279  157.7371  133.8429 H   0  0  0  0  0  0  0  0  0  0  0  0
  144.5630  154.9875  133.5561 H   0  0  0  0  0  0  0  0  0  0  0  0
  146.5256  153.4775  133.1080 H   0  0  0  0  0  0  0  0  0  0  0  0
  149.2964  154.1462  131.5309 H   0  0  0  0  0  0  0  0  0  0  0  0
  149.9874  154.6303  133.1426 H   0  0  0  0  0  0  0  0  0  0  0  0
  148.9908  152.8175  134.2529 H   0  0  0  0  0  0  0  0  0  0  0  0
  147.8863  152.4851  132.8232 H   0  0  0  0  0  0  0  0  0  0  0  0
  150.4230  152.1578  131.7738 H   0  0  0  0  0  0  0  0  0  0  0  0
  150.5195  151.4336  133.4540 H   0  0  0  0  0  0  0  0  0  0  0  0
  148.7825  150.6032  131.1178 H   0  0  0  0  0  0  0  0  0  0  0  0
  149.9333  149.6269  132.1158 H   0  0  0  0  0  0  0  0  0  0  0  0
  147.3710  150.7960  133.0000 H   0  0  0  0  0  0  0  0  0  0  0  0
  148.4620  150.0280  133.9970 H   0  0  0  0  0  0  0  0  0  0  0  0
  149.1144  156.9597  132.7008 H   0  0  0  0  0  0  0  0  0  0  0  0
  1  2  1  0
  2  3  1  0
  2  4  1  0
  2  5  1  0
  5  6  1  0
  6  7  2  0
  6  8  1  0
  8  9  1  0
  9 10  1  0
 10 11  1  0
 10 12  2  0
  9 13  2  0
 13 14  1  0
 14 15  2  0
 15 16  1  0
 16 17  2  0
 17 18  1  0
 18 19  1  0
 19 20  1  0
 20 21  1  0
 21 22  1  0
 17 23  1  0
 23 24  2  0
 24  8  1  0
 24 14  1  0
  1 25  1  0
  1 26  1  0
  1 27  1  0
  3 28  1  0
  3 29  1  0
  3 30  1  0
  4 31  1  0
  4 32  1  0
  4 33  1  0
 11 34  1  0
 13 35  1  0
 15 36  1  0
 16 37  1  0
 18 38  1  0
 18 39  1  0
 19 40  1  0
 19 41  1  0
 20 42  1  0
 20 43  1  0
 21 44  1  0
 21 45  1  0
 22 46  1  0
 22 47  1  0
 23 48  1  0
M  CHG  1  11  -1
M  END
>  <UniqueID>  (15) 
14

>  <SMILES>  (15) 
CC(C)(C)OC(=O)n1c(C([NH-])=O)cc2ccc(CCCCN)cc21

>  <Energy>  (15) 
76.06942998400733

>  <Genealogy>  (15) 
CC(C)(C)OC(=O)n1c(C([NH-])=O)cc2ccc(CCCCN)cc21 (protonated)
CC(C)(C)OC(=O)n1c(C([NH-])=O)cc2ccc(CCCCN)cc21 (3D coordinates assigned)
CC(C)(C)OC(=O)n1c(C([NH-])=O)cc2ccc(CCCCN)cc21 (optimized conformer: 76.06942998400733 kcal/mol)

>  <smiles>  (15) 
CC(C)(C)OC(=O)n1c(C(N)=O)cc2ccc(CCCCN)cc21

>  <score_type>  (15) 
oracle

>  <origin>  (15) 
adg

>  <m_score__min__energy>  (15) 
-7.6699999999999999

>  <m_primary>  (15) 
energy

$$$$
15:0
     RDKit          3D

 51 54  0  0  0  0  0  0  0  0999 V2000
  139.0570  147.0330  130.1500 C   0  0  0  0  0  0  0  0  0  0  0  0
  139.2220  148.4800  130.6540 C   0  0  0  0  0  0  0  0  0  0  0  0
  137.8800  149.2340  130.5930 C   0  0  0  0  0  0  0  0  0  0  0  0
  140.2380  149.2050  129.7580 C   0  0  0  0  0  0  0  0  0  0  0  0
  139.7500  148.4930  131.9880 O   0  0  0  0  0  0  0  0  0  0  0  0
  140.9970  149.0010  132.3870 C   0  0  0  0  0  0  0  0  0  0  0  0
  141.9620  148.2230  132.6110 O   0  0  0  0  0  0  0  0  0  0  0  0
  141.1590  150.4220  132.5340 N   0  0  0  0  0  0  0  0  0  0  0  0
  140.1350  151.3070  132.6250 C   0  0  0  0  0  0  0  0  0  0  0  0
  140.6120  152.6030  132.7580 C   0  0  0  0  0  0  0  0  0  0  0  0
  141.9830  152.4890  132.7470 C   0  0  0  0  0  0  0  0  0  0  0  0
  142.9600  153.4760  132.8460 C   0  0  0  0  0  0  0  0  0  0  0  0
  144.3170  153.0840  132.8030 C   0  0  0  0  0  0  0  0  0  0  0  0
  145.3950  154.1000  132.9030 C   0  0  0  0  0  0  0  0  0  0  0  0
  146.7570  153.7030  132.8840 C   0  0  0  0  0  0  0  0  0  0  0  0
  147.7850  154.6550  132.9930 C   0  0  0  0  0  0  0  0  0  0  0  0
  147.4250  155.9930  133.1090 C   0  0  0  0  0  0  0  0  0  0  0  0
  148.2160  157.1090  133.2650 C   0  0  0  0  0  0  0  0  0  0  0  0
  147.3290  158.1780  133.3450 C   0  0  0  0  0  0  0  0  0  0  0  0
  147.7630  159.5840  133.4590 C   0  0  0  0  0  0  0  0  0  0  0  0
  146.9990  160.6440  132.8810 N   0  0  0  0  0  0  0  0  0  0  0  0
  148.8550  159.8510  134.0260 O   0  0  0  0  0  0  0  0  0  0  0  0
  146.0400  157.7440  133.2570 N   0  0  0  0  0  0  0  0  0  0  0  0
  144.8420  158.5240  133.4100 C   0  0  0  0  0  0  0  0  0  0  0  0
  144.6430  159.5340  132.6840 O   0  0  0  0  0  0  0  0  0  0  0  0
  143.8890  158.1750  134.3600 O   0  0  0  0  0  0  0  0  0  0  0  0
  146.1160  156.4020  133.1080 C   0  0  0  0  0  0  0  0  0  0  0  0
  145.0720  155.4730  133.0250 C   0  0  0  0  0  0  0  0  0  0  0  0
  144.6370  151.7090  132.6600 C   0  0  0  0  0  0  0  0  0  0  0  0
  143.6270  150.7360  132.5630 C   0  0  0  0  0  0  0  0  0  0  0  0
  142.2930  151.1590  132.6090 C   0  0  0  0  0  0  0  0  0  0  0  0
  138.9793  146.3517  131.0101 H   0  0  0  0  0  0  0  0  0  0  0  0
  138.1446  146.9590  129.5400 H   0  0  0  0  0  0  0  0  0  0  0  0
  139.9293  146.7555  129.5400 H   0  0  0  0  0  0  0  0  0  0  0  0
  137.5248  149.4336  131.6148 H   0  0  0  0  0  0  0  0  0  0  0  0
  138.0184  150.1864  130.0603 H   0  0  0  0  0  0  0  0  0  0  0  0
  137.1386  148.6204  130.0603 H   0  0  0  0  0  0  0  0  0  0  0  0
  140.9728  149.7293  130.3867 H   0  0  0  0  0  0  0  0  0  0  0  0
  140.7560  148.4713  129.1229 H   0  0  0  0  0  0  0  0  0  0  0  0
  139.7126  149.9335  129.1229 H   0  0  0  0  0  0  0  0  0  0  0  0
  139.0698  151.0339  132.5971 H   0  0  0  0  0  0  0  0  0  0  0  0
  140.0200  153.5253  132.8522 H   0  0  0  0  0  0  0  0  0  0  0  0
  142.6824  154.5348  132.9550 H   0  0  0  0  0  0  0  0  0  0  0  0
  147.0113  152.6376  132.7828 H   0  0  0  0  0  0  0  0  0  0  0  0
  148.8421  154.3509  132.9867 H   0  0  0  0  0  0  0  0  0  0  0  0
  149.3142  157.1473  133.3156 H   0  0  0  0  0  0  0  0  0  0  0  0
  147.3010  161.6350  133.0050 H   0  0  0  0  0  0  0  0  0  0  0  0
  146.1830  160.4440  132.2610 H   0  0  0  0  0  0  0  0  0  0  0  0
  144.0230  155.8028  133.0539 H   0  0  0  0  0  0  0  0  0  0  0  0
  145.6920  151.3996  132.6245 H   0  0  0  0  0  0  0  0  0  0  0  0
  143.8780  149.6706  132.4539 H   0  0  0  0  0  0  0  0  0  0  0  0
  1  2  1  0
  2  3  1  0
  2  4  1  0
  2  5  1  0
  5  6  1  0
  6  7  2  0
  6  8  1  0
  8  9  1  0
  9 10  2  0
 10 11  1  0
 11 12  2  0
 12 13  1  0
 13 14  1  0
 14 15  2  0
 15 16  1  0
 16 17  2  0
 17 18  1  0
 18 19  2  0
 19 20  1  0
 20 21  1  0
 20 22  2  0
 19 23  1  0
 23 24  1  0
 24 25  2  0
 24 26  1  0
 23 27  1  0
 27 28  2  0
 13 29  2  0
 29 30  1  0
 30 31  2  0
 31  8  1  0
 31 11  1  0
 28 14  1  0
 27 17  1  0
  1 32  1  0
  1 33  1  0
  1 34  1  0
  3 35  1  0
  3 36  1  0
  3 37  1  0
  4 38  1  0
  4 39  1  0
  4 40  1  0
  9 41  1  0
 10 42  1  0
 12 43  1  0
 15 44  1  0
 16 45  1  0
 18 46  1  0
 21 47  1  0
 21 48  1  0
 28 49  1  0
 29 50  1  0
 30 51  1  0
M  CHG  1  26  -1
M  END
>  <UniqueID>  (16) 
15

>  <SMILES>  (16) 
CC(C)(C)OC(=O)n1ccc2cc(-c3ccc4cc(C(N)=O)n(C(=O)[O-])c4c3)ccc21

>  <Energy>  (16) 
131.26300728676816

>  <Genealogy>  (16) 
CC(C)(C)OC(=O)n1ccc2cc(-c3ccc4cc(C(N)=O)n(C(=O)[O-])c4c3)ccc21 (protonated)
CC(C)(C)OC(=O)n1ccc2cc(-c3ccc4cc(C(N)=O)n(C(=O)[O-])c4c3)ccc21 (3D coordinates assigned)
CC(C)(C)OC(=O)n1ccc2cc(-c3ccc4cc(C(N)=O)n(C(=O)[O-])c4c3)ccc21 (optimized conformer: 131.26300728676816 kcal/mol)

>  <smiles>  (16) 
CC(C)(C)OC(=O)n1ccc2cc(-c3ccc4cc(C(N)=O)n(C(=O)O)c4c3)ccc21

>  <score_type>  (16) 
oracle

>  <origin>  (16) 
adg

>  <m_score__min__energy>  (16) 
-9.9199999999999999

>  <m_primary>  (16) 
energy

$$$$
16:0
     RDKit          3D

 58 60  0  0  0  0  0  0  0  0999 V2000
  138.3710  160.1500  130.6630 C   0  0  0  0  0  0  0  0  0  0  0  0
  139.3400  159.3280  131.5090 C   0  0  0  0  0  0  0  0  0  0  0  0
  138.6110  158.6150  132.6590 C   0  0  0  0  0  0  0  0  0  0  0  0
  139.5490  157.8420  133.5050 N   0  0  0  0  0  0  0  0  0  0  0  0
  139.8500  158.5630  134.7730 C   0  0  0  0  0  0  0  0  0  0  0  0
  141.2060  159.2770  134.7410 C   0  0  0  0  0  0  0  0  0  0  0  0
  142.3410  158.2450  134.5820 C   0  0  0  0  0  0  0  0  0  0  0  0
  143.6380  158.9060  134.1480 C   0  0  0  0  0  0  0  0  0  0  0  0
  143.7590  160.3210  134.1060 C   0  0  0  0  0  0  0  0  0  0  0  0
  144.9600  160.9300  133.7050 C   0  0  0  0  0  0  0  0  0  0  0  0
  146.0180  160.1060  133.3380 C   0  0  0  0  0  0  0  0  0  0  0  0
  147.2910  160.4300  132.9330 C   0  0  0  0  0  0  0  0  0  0  0  0
  147.9270  159.2130  132.7010 C   0  0  0  0  0  0  0  0  0  0  0  0
  149.3010  159.1010  132.1680 C   0  0  0  0  0  0  0  0  0  0  0  0
  149.8820  157.8290  131.8980 N   0  0  0  0  0  0  0  0  0  0  0  0
  149.9530  160.1460  131.9000 O   0  0  0  0  0  0  0  0  0  0  0  0
  147.0820  158.1760  132.9600 N   0  0  0  0  0  0  0  0  0  0  0  0
  147.3810  156.7720  132.9320 C   0  0  0  0  0  0  0  0  0  0  0  0
  147.3660  156.1530  131.8360 O   0  0  0  0  0  0  0  0  0  0  0  0
  147.6680  156.1050  134.1330 O   0  0  0  0  0  0  0  0  0  0  0  0
  147.3040  154.7580  134.4650 C   0  0  0  0  0  0  0  0  0  0  0  0
  148.1090  153.7500  133.6210 C   0  0  0  0  0  0  0  0  0  0  0  0
  147.6500  154.5480  135.9470 C   0  0  0  0  0  0  0  0  0  0  0  0
  145.7910  154.5420  134.2710 C   0  0  0  0  0  0  0  0  0  0  0  0
  145.9150  158.7400  133.3480 C   0  0  0  0  0  0  0  0  0  0  0  0
  144.7400  158.1050  133.7650 C   0  0  0  0  0  0  0  0  0  0  0  0
  141.9410  157.0740  133.6500 C   0  0  0  0  0  0  0  0  0  0  0  0
  140.7560  157.4280  132.7400 C   0  0  0  0  0  0  0  0  0  0  0  0
  137.7000  160.7192  131.3231 H   0  0  0  0  0  0  0  0  0  0  0  0
  138.9384  160.8464  130.0282 H   0  0  0  0  0  0  0  0  0  0  0  0
  137.7764  159.4766  130.0282 H   0  0  0  0  0  0  0  0  0  0  0  0
  139.8237  158.5748  130.8697 H   0  0  0  0  0  0  0  0  0  0  0  0
  140.0875  160.0094  131.9413 H   0  0  0  0  0  0  0  0  0  0  0  0
  138.1060  159.3677  133.2823 H   0  0  0  0  0  0  0  0  0  0  0  0
  137.8845  157.9137  132.2226 H   0  0  0  0  0  0  0  0  0  0  0  0
  139.0627  159.3110  134.9477 H   0  0  0  0  0  0  0  0  0  0  0  0
  139.8876  157.8154  135.5790 H   0  0  0  0  0  0  0  0  0  0  0  0
  141.2290  159.9776  133.8932 H   0  0  0  0  0  0  0  0  0  0  0  0
  141.3471  159.8271  135.6830 H   0  0  0  0  0  0  0  0  0  0  0  0
  142.5185  157.8043  135.5741 H   0  0  0  0  0  0  0  0  0  0  0  0
  142.9013  160.9479  134.3911 H   0  0  0  0  0  0  0  0  0  0  0  0
  145.0601  162.0252  133.6821 H   0  0  0  0  0  0  0  0  0  0  0  0
  147.7172  161.4374  132.8167 H   0  0  0  0  0  0  0  0  0  0  0  0
  149.3130  157.0530  131.4920 H   0  0  0  0  0  0  0  0  0  0  0  0
  148.6548  153.0666  134.2881 H   0  0  0  0  0  0  0  0  0  0  0  0
  147.4215  153.1716  132.9863 H   0  0  0  0  0  0  0  0  0  0  0  0
  148.8251  154.2926  132.9863 H   0  0  0  0  0  0  0  0  0  0  0  0
  146.8773  155.0170  136.5739 H   0  0  0  0  0  0  0  0  0  0  0  0
  147.6942  153.4705  136.1641 H   0  0  0  0  0  0  0  0  0  0  0  0
  148.6262  155.0061  136.1641 H   0  0  0  0  0  0  0  0  0  0  0  0
  145.3016  154.4721  135.2537 H   0  0  0  0  0  0  0  0  0  0  0  0
  145.3686  155.3890  133.7104 H   0  0  0  0  0  0  0  0  0  0  0  0
  145.6225  153.6107  133.7104 H   0  0  0  0  0  0  0  0  0  0  0  0
  144.6743  157.0074  133.7945 H   0  0  0  0  0  0  0  0  0  0  0  0
  142.8043  156.8132  133.0202 H   0  0  0  0  0  0  0  0  0  0  0  0
  141.6353  156.2295  134.2851 H   0  0  0  0  0  0  0  0  0  0  0  0
  141.0546  158.2549  132.0789 H   0  0  0  0  0  0  0  0  0  0  0  0
  140.4941  156.5252  132.1688 H   0  0  0  0  0  0  0  0  0  0  0  0
  1  2  1  0
  2  3  1  0
  3  4  1  0
  4  5  1  0
  5  6  1  0
  6  7  1  0
  7  8  1  0
  8  9  2  0
  9 10  1  0
 10 11  2  0
 11 12  1  0
 12 13  2  0
 13 14  1  0
 14 15  1  0
 14 16  2  0
 13 17  1  0
 17 18  1  0
 18 19  2  0
 18 20  1  0
 20 21  1  0
 21 22  1  0
 21 23  1  0
 21 24  1  0
 17 25  1  0
 25 26  2  0
  7 27  1  0
 27 28  1  0
 28  4  1  0
 26  8  1  0
 25 11  1  0
  1 29  1  0
  1 30  1  0
  1 31  1  0
  2 32  1  0
  2 33  1  0
  3 34  1  0
  3 35  1  0
  5 36  1  0
  5 37  1  0
  6 38  1  0
  6 39  1  0
  7 40  1  0
  9 41  1  0
 10 42  1  0
 12 43  1  0
 15 44  1  0
 22 45  1  0
 22 46  1  0
 22 47  1  0
 23 48  1  0
 23 49  1  0
 23 50  1  0
 24 51  1  0
 24 52  1  0
 24 53  1  0
 26 54  1  0
 27 55  1  0
 27 56  1  0
 28 57  1  0
 28 58  1  0
M  CHG  1  15  -1
M  END
>  <UniqueID>  (17) 
16

>  <SMILES>  (17) 
CCCN1CCC(c2ccc3cc(C([NH-])=O)n(C(=O)OC(C)(C)C)c3c2)CC1

>  <Energy>  (17) 
98.98218967635682

>  <Genealogy>  (17) 
CCCN1CCC(c2ccc3cc(C([NH-])=O)n(C(=O)OC(C)(C)C)c3c2)CC1 (protonated)
CCCN1CCC(c2ccc3cc(C([NH-])=O)n(C(=O)OC(C)(C)C)c3c2)CC1 (3D coordinates assigned)
CCCN1CCC(c2ccc3cc(C([NH-])=O)n(C(=O)OC(C)(C)C)c3c2)CC1 (nonaromatic ring conformer: 98.98218967635682 kcal/mol)

>  <smiles>  (17) 
CCCN1CCC(c2ccc3cc(C(N)=O)n(C(=O)OC(C)(C)C)c3c2)CC1

>  <score_type>  (17) 
oracle

>  <origin>  (17) 
adg

>  <m_score__min__energy>  (17) 
-9.0199999999999996

>  <m_primary>  (17) 
energy

$$$$
17:0
     RDKit          3D

 55 59  0  0  0  0  0  0  0  0999 V2000
  144.1850  154.6330  135.8760 C   0  0  0  0  0  0  0  0  0  0  0  0
  142.9160  155.1690  135.2240 C   0  0  0  0  0  0  0  0  0  0  0  0
  142.9740  156.5900  135.1080 O   0  0  0  0  0  0  0  0  0  0  0  0
  143.0580  157.2610  133.8820 C   0  0  0  0  0  0  0  0  0  0  0  0
  142.1400  157.1420  133.0260 O   0  0  0  0  0  0  0  0  0  0  0  0
  144.1830  158.1130  133.6150 N   0  0  0  0  0  0  0  0  0  0  0  0
  144.1880  159.4670  133.4510 C   0  0  0  0  0  0  0  0  0  0  0  0
  142.9950  160.3370  133.3820 C   0  0  0  0  0  0  0  0  0  0  0  0
  141.7500  159.7990  132.9430 N   0  0  0  0  0  0  0  0  0  0  0  0
  143.0540  161.5430  133.7380 O   0  0  0  0  0  0  0  0  0  0  0  0
  145.4880  159.9310  133.2690 C   0  0  0  0  0  0  0  0  0  0  0  0
  146.2860  158.8110  133.3180 C   0  0  0  0  0  0  0  0  0  0  0  0
  147.6660  158.6910  133.2010 C   0  0  0  0  0  0  0  0  0  0  0  0
  148.2270  157.4080  133.3130 C   0  0  0  0  0  0  0  0  0  0  0  0
  147.4110  156.2700  133.5530 C   0  0  0  0  0  0  0  0  0  0  0  0
  148.0270  154.9240  133.6780 C   0  0  0  0  0  0  0  0  0  0  0  0
  148.7210  154.2280  132.6760 C   0  0  0  0  0  0  0  0  0  0  0  0
  149.1800  152.9830  133.1110 C   0  0  0  0  0  0  0  0  0  0  0  0
  149.8780  152.1020  132.3500 N   0  0  0  0  0  0  0  0  0  0  0  0
  150.2830  150.9110  132.8790 C   0  0  0  0  0  0  0  0  0  0  0  0
  149.9790  150.5810  134.2140 C   0  0  0  0  0  0  0  0  0  0  0  0
  149.2380  151.4810  135.0080 C   0  0  0  0  0  0  0  0  0  0  0  0
  148.9170  151.2250  136.3490 O   0  0  0  0  0  0  0  0  0  0  0  0
  148.6320  152.2000  137.3160 C   0  0  0  0  0  0  0  0  0  0  0  0
  149.6160  153.0810  137.7960 C   0  0  0  0  0  0  0  0  0  0  0  0
  149.2960  154.0290  138.7730 C   0  0  0  0  0  0  0  0  0  0  0  0
  147.9990  154.1040  139.2940 C   0  0  0  0  0  0  0  0  0  0  0  0
  147.7280  155.0730  140.2720 O   0  0  0  0  0  0  0  0  0  0  0  0
  148.7250  155.7540  141.0260 C   0  0  0  0  0  0  0  0  0  0  0  0
  147.0190  153.2070  138.8260 C   0  0  0  0  0  0  0  0  0  0  0  0
  147.3400  152.2600  137.8490 C   0  0  0  0  0  0  0  0  0  0  0  0
  148.8640  152.6870  134.4230 C   0  0  0  0  0  0  0  0  0  0  0  0
  148.0020  153.9660  135.0830 S   0  0  0  0  0  0  0  0  0  0  0  0
  146.0090  156.4400  133.6650 C   0  0  0  0  0  0  0  0  0  0  0  0
  145.4750  157.7280  133.5280 C   0  0  0  0  0  0  0  0  0  0  0  0
  144.0816  154.6767  136.9703 H   0  0  0  0  0  0  0  0  0  0  0  0
  144.3452  153.5904  135.5642 H   0  0  0  0  0  0  0  0  0  0  0  0
  145.0441  155.2451  135.5642 H   0  0  0  0  0  0  0  0  0  0  0  0
  142.8104  154.7283  134.2217 H   0  0  0  0  0  0  0  0  0  0  0  0
  142.0533  154.8988  135.8507 H   0  0  0  0  0  0  0  0  0  0  0  0
  141.7110  159.0870  132.1800 H   0  0  0  0  0  0  0  0  0  0  0  0
  145.8091  160.9722  133.1180 H   0  0  0  0  0  0  0  0  0  0  0  0
  148.2991  159.5734  133.0261 H   0  0  0  0  0  0  0  0  0  0  0  0
  149.3153  157.2825  133.2133 H   0  0  0  0  0  0  0  0  0  0  0  0
  148.8850  154.6196  131.6612 H   0  0  0  0  0  0  0  0  0  0  0  0
  150.8514  150.2031  132.2578 H   0  0  0  0  0  0  0  0  0  0  0  0
  150.3186  149.6238  134.6364 H   0  0  0  0  0  0  0  0  0  0  0  0
  150.6414  153.0247  137.4019 H   0  0  0  0  0  0  0  0  0  0  0  0
  150.0701  154.7216  139.1351 H   0  0  0  0  0  0  0  0  0  0  0  0
  148.5282  155.6196  142.0999 H   0  0  0  0  0  0  0  0  0  0  0  0
  149.7152  155.3427  140.7804 H   0  0  0  0  0  0  0  0  0  0  0  0
  148.7021  156.8260  140.7804 H   0  0  0  0  0  0  0  0  0  0  0  0
  145.9972  153.2518  139.2308 H   0  0  0  0  0  0  0  0  0  0  0  0
  146.5709  151.5568  137.4968 H   0  0  0  0  0  0  0  0  0  0  0  0
  145.3528  155.5780  133.8557 H   0  0  0  0  0  0  0  0  0  0  0  0
  1  2  1  0
  2  3  1  0
  3  4  1  0
  4  5  2  0
  4  6  1  0
  6  7  1  0
  7  8  1  0
  8  9  1  0
  8 10  2  0
  7 11  2  0
 11 12  1  0
 12 13  2  0
 13 14  1  0
 14 15  2  0
 15 16  1  0
 16 17  2  0
 17 18  1  0
 18 19  2  0
 19 20  1  0
 20 21  2  0
 21 22  1  0
 22 23  1  0
 23 24  1  0
 24 25  2  0
 25 26  1  0
 26 27  2  0
 27 28  1  0
 28 29  1  0
 27 30  1  0
 30 31  2  0
 22 32  2  0
 32 33  1  0
 15 34  1  0
 34 35  2  0
 35  6  1  0
 35 12  1  0
 33 16  1  0
 32 18  1  0
 31 24  1  0
  1 36  1  0
  1 37  1  0
  1 38  1  0
  2 39  1  0
  2 40  1  0
  9 41  1  0
 11 42  1  0
 13 43  1  0
 14 44  1  0
 17 45  1  0
 20 46  1  0
 21 47  1  0
 25 48  1  0
 26 49  1  0
 29 50  1  0
 29 51  1  0
 29 52  1  0
 30 53  1  0
 31 54  1  0
 34 55  1  0
M  CHG  1   9  -1
M  END
>  <UniqueID>  (18) 
17

>  <SMILES>  (18) 
CCOC(=O)n1c(C([NH-])=O)cc2ccc(-c3cc4nccc(Oc5ccc(OC)cc5)c4s3)cc21

>  <Energy>  (18) 
136.62803645940602

>  <Genealogy>  (18) 
CCOC(=O)n1c(C([NH-])=O)cc2ccc(-c3cc4nccc(Oc5ccc(OC)cc5)c4s3)cc21 (protonated)
CCOC(=O)n1c(C([NH-])=O)cc2ccc(-c3cc4nccc(Oc5ccc(OC)cc5)c4s3)cc21 (3D coordinates assigned)
CCOC(=O)n1c(C([NH-])=O)cc2ccc(-c3cc4nccc(Oc5ccc(OC)cc5)c4s3)cc21 (optimized conformer: 136.62803645940602 kcal/mol)

>  <smiles>  (18) 
CCOC(=O)n1c(C(N)=O)cc2ccc(-c3cc4nccc(Oc5ccc(OC)cc5)c4s3)cc21

>  <score_type>  (18) 
oracle

>  <origin>  (18) 
adg

>  <m_score__min__energy>  (18) 
-10.130000000000001

>  <m_primary>  (18) 
energy

$$$$
18:0
     RDKit          3D

 41 44  0  0  0  0  0  0  0  0999 V2000
  144.8520  156.8660  134.0030 C   0  0  0  0  0  0  0  0  0  0  0  0
  145.1520  155.5130  134.5600 C   0  0  0  0  0  0  0  0  0  0  0  0
  145.8620  155.2930  135.6420 O   0  0  0  0  0  0  0  0  0  0  0  0
  145.8900  153.9890  135.7930 C   0  0  0  0  0  0  0  0  0  0  0  0
  146.4880  153.4080  136.7360 O   0  0  0  0  0  0  0  0  0  0  0  0
  145.2250  153.3550  134.8540 O   0  0  0  0  0  0  0  0  0  0  0  0
  144.7470  154.2870  134.0620 C   0  0  0  0  0  0  0  0  0  0  0  0
  143.9120  154.0180  132.8480 C   0  0  0  0  0  0  0  0  0  0  0  0
  142.7470  153.2790  133.2050 O   0  0  0  0  0  0  0  0  0  0  0  0
  141.4860  153.8660  133.3640 C   0  0  0  0  0  0  0  0  0  0  0  0
  140.5070  153.4680  132.6770 O   0  0  0  0  0  0  0  0  0  0  0  0
  141.3060  154.9130  134.3300 N   0  0  0  0  0  0  0  0  0  0  0  0
  141.7800  154.9620  135.6080 C   0  0  0  0  0  0  0  0  0  0  0  0
  142.4780  153.8700  136.3180 C   0  0  0  0  0  0  0  0  0  0  0  0
  143.4350  154.1790  137.3280 N   0  0  0  0  0  0  0  0  0  0  0  0
  142.2150  152.6650  136.0670 O   0  0  0  0  0  0  0  0  0  0  0  0
  141.4390  156.1730  136.2070 C   0  0  0  0  0  0  0  0  0  0  0  0
  140.7300  156.8660  135.2520 C   0  0  0  0  0  0  0  0  0  0  0  0
  140.1570  158.1310  135.3060 C   0  0  0  0  0  0  0  0  0  0  0  0
  139.5010  158.6090  134.1600 C   0  0  0  0  0  0  0  0  0  0  0  0
  139.4340  157.8190  132.9740 C   0  0  0  0  0  0  0  0  0  0  0  0
  138.7520  158.2790  131.6970 C   0  0  0  0  0  0  0  0  0  0  0  0
  139.4730  159.3250  130.8580 C   0  0  0  0  0  0  0  0  0  0  0  0
  138.2340  159.7100  131.6580 C   0  0  0  0  0  0  0  0  0  0  0  0
  140.0320  156.5390  132.9680 C   0  0  0  0  0  0  0  0  0  0  0  0
  140.6630  156.0830  134.1300 C   0  0  0  0  0  0  0  0  0  0  0  0
  144.6946  157.5757  134.8285 H   0  0  0  0  0  0  0  0  0  0  0  0
  145.6971  157.2038  133.3851 H   0  0  0  0  0  0  0  0  0  0  0  0
  143.9434  156.8149  133.3851 H   0  0  0  0  0  0  0  0  0  0  0  0
  143.6110  154.9742  132.3951 H   0  0  0  0  0  0  0  0  0  0  0  0
  144.5027  153.4311  132.1293 H   0  0  0  0  0  0  0  0  0  0  0  0
  144.4150  154.4370  137.0790 H   0  0  0  0  0  0  0  0  0  0  0  0
  141.6843  156.5048  137.2267 H   0  0  0  0  0  0  0  0  0  0  0  0
  140.2156  158.7402  136.2200 H   0  0  0  0  0  0  0  0  0  0  0  0
  139.0332  159.6044  134.1770 H   0  0  0  0  0  0  0  0  0  0  0  0
  138.3164  157.2884  131.4995 H   0  0  0  0  0  0  0  0  0  0  0  0
  140.4631  159.6911  131.1671 H   0  0  0  0  0  0  0  0  0  0  0  0
  139.7734  159.4040  129.8028 H   0  0  0  0  0  0  0  0  0  0  0  0
  138.3298  160.3541  132.5446 H   0  0  0  0  0  0  0  0  0  0  0  0
  137.2695  160.1821  131.4195 H   0  0  0  0  0  0  0  0  0  0  0  0
  140.0019  155.9117  132.0649 H   0  0  0  0  0  0  0  0  0  0  0  0
  1  2  1  0
  2  3  1  0
  3  4  1  0
  4  5  2  0
  4  6  1  0
  6  7  1  0
  7  8  1  0
  8  9  1  0
  9 10  1  0
 10 11  2  0
 10 12  1  0
 12 13  1  0
 13 14  1  0
 14 15  1  0
 14 16  2  0
 13 17  2  0
 17 18  1  0
 18 19  2  0
 19 20  1  0
 20 21  2  0
 21 22  1  0
 22 23  1  0
 23 24  1  0
 21 25  1  0
 25 26  2  0
  7  2  2  0
 26 12  1  0
 26 18  1  0
 24 22  1  0
  1 27  1  0
  1 28  1  0
  1 29  1  0
  8 30  1  0
  8 31  1  0
 15 32  1  0
 17 33  1  0
 19 34  1  0
 20 35  1  0
 22 36  1  0
 23 37  1  0
 23 38  1  0
 24 39  1  0
 24 40  1  0
 25 41  1  0
M  CHG  1  15  -1
M  END
>  <UniqueID>  (19) 
18

>  <SMILES>  (19) 
Cc1oc(=O)oc1COC(=O)n1c(C([NH-])=O)cc2ccc(C3CC3)cc21

>  <Energy>  (19) 
380.26386999171905

>  <Genealogy>  (19) 
Cc1oc(=O)oc1COC(=O)n1c(C([NH-])=O)cc2ccc(C3CC3)cc21 (protonated)
Cc1oc(=O)oc1COC(=O)n1c(C([NH-])=O)cc2ccc(C3CC3)cc21 (3D coordinates assigned)
Cc1oc(=O)oc1COC(=O)n1c(C([NH-])=O)cc2ccc(C3CC3)cc21 (nonaromatic ring conformer: 380.26386999171905 kcal/mol)

>  <smiles>  (19) 
Cc1oc(=O)oc1COC(=O)n1c(C(N)=O)cc2ccc(C3CC3)cc21

>  <score_type>  (19) 
oracle

>  <origin>  (19) 
adg

>  <m_score__min__energy>  (19) 
-7.2999999999999998

>  <m_primary>  (19) 
energy

$$$$
19:0
     RDKit          3D

 59 61  0  0  0  0  0  0  0  0999 V2000
  140.0600  158.6020  135.3940 C   0  0  0  0  0  0  0  0  0  0  0  0
  141.4500  158.4970  136.0370 C   0  0  0  0  0  0  0  0  0  0  0  0
  141.9110  157.0300  135.9790 C   0  0  0  0  0  0  0  0  0  0  0  0
  141.3610  158.9780  137.4960 C   0  0  0  0  0  0  0  0  0  0  0  0
  142.3370  159.3350  135.2790 O   0  0  0  0  0  0  0  0  0  0  0  0
  142.9260  159.0210  134.0450 C   0  0  0  0  0  0  0  0  0  0  0  0
  142.2380  158.5330  133.1060 O   0  0  0  0  0  0  0  0  0  0  0  0
  144.3290  159.2620  133.8490 N   0  0  0  0  0  0  0  0  0  0  0  0
  144.9600  160.4670  133.7610 C   0  0  0  0  0  0  0  0  0  0  0  0
  144.2980  161.7870  133.7300 C   0  0  0  0  0  0  0  0  0  0  0  0
  145.0350  162.9610  134.0550 N   0  0  0  0  0  0  0  0  0  0  0  0
  143.0970  161.8910  133.3830 O   0  0  0  0  0  0  0  0  0  0  0  0
  146.3350  160.2940  133.6180 C   0  0  0  0  0  0  0  0  0  0  0  0
  146.5290  158.9310  133.6150 C   0  0  0  0  0  0  0  0  0  0  0  0
  147.7030  158.1980  133.4930 C   0  0  0  0  0  0  0  0  0  0  0  0
  147.6140  156.7980  133.5510 C   0  0  0  0  0  0  0  0  0  0  0  0
  146.3620  156.1540  133.7550 C   0  0  0  0  0  0  0  0  0  0  0  0
  146.2400  154.6450  133.8910 C   0  0  2  0  0  0  0  0  0  0  0  0
  147.4630  153.9200  134.4500 C   0  0  0  0  0  0  0  0  0  0  0  0
  147.6080  153.0940  133.2370 N   0  0  2  0  0  0  0  0  0  0  0  0
  148.8410  153.2190  132.4960 C   0  0  0  0  0  0  0  0  0  0  0  0
  149.5650  154.2500  132.6010 O   0  0  0  0  0  0  0  0  0  0  0  0
  149.2030  152.1730  131.6300 O   0  0  0  0  0  0  0  0  0  0  0  0
  149.5230  150.8260  132.0120 C   0  0  0  0  0  0  0  0  0  0  0  0
  150.3340  150.9060  133.3160 C   0  0  0  0  0  0  0  0  0  0  0  0
  148.2360  150.0160  132.2710 C   0  0  0  0  0  0  0  0  0  0  0  0
  150.3830  150.1420  130.9290 C   0  0  0  0  0  0  0  0  0  0  0  0
  146.4950  153.8350  132.6200 C   0  0  0  0  0  0  0  0  0  0  0  0
  145.1890  156.9390  133.8540 C   0  0  0  0  0  0  0  0  0  0  0  0
  145.3050  158.3300  133.7620 C   0  0  0  0  0  0  0  0  0  0  0  0
  139.2948  158.6598  136.1821 H   0  0  0  0  0  0  0  0  0  0  0  0
  140.0122  159.5063  134.7695 H   0  0  0  0  0  0  0  0  0  0  0  0
  139.8769  157.7151  134.7695 H   0  0  0  0  0  0  0  0  0  0  0  0
  142.0326  156.6432  137.0015 H   0  0  0  0  0  0  0  0  0  0  0  0
  141.1581  156.4298  135.4470 H   0  0  0  0  0  0  0  0  0  0  0  0
  142.8718  156.9683  135.4470 H   0  0  0  0  0  0  0  0  0  0  0  0
  141.5187  158.1257  138.1733 H   0  0  0  0  0  0  0  0  0  0  0  0
  142.1335  159.7395  137.6788 H   0  0  0  0  0  0  0  0  0  0  0  0
  140.3672  159.4126  137.6788 H   0  0  0  0  0  0  0  0  0  0  0  0
  146.0070  163.1020  133.7020 H   0  0  0  0  0  0  0  0  0  0  0  0
  147.1011  161.0781  133.5270 H   0  0  0  0  0  0  0  0  0  0  0  0
  148.6725  158.6992  133.3552 H   0  0  0  0  0  0  0  0  0  0  0  0
  148.5243  156.1911  133.4372 H   0  0  0  0  0  0  0  0  0  0  0  0
  145.2681  154.6559  134.4060 H   0  0  0  0  0  0  0  0  0  0  0  0
  148.3206  154.5836  134.6346 H   0  0  0  0  0  0  0  0  0  0  0  0
  147.3887  153.4235  135.4288 H   0  0  0  0  0  0  0  0  0  0  0  0
  147.3600  152.0910  133.4160 H   0  0  0  0  0  0  0  0  0  0  0  0
  149.6522  150.8387  134.1766 H   0  0  0  0  0  0  0  0  0  0  0  0
  151.0532  150.0744  133.3521 H   0  0  0  0  0  0  0  0  0  0  0  0
  150.8768  151.8621  133.3521 H   0  0  0  0  0  0  0  0  0  0  0  0
  148.0775  149.9162  133.3549 H   0  0  0  0  0  0  0  0  0  0  0  0
  147.3780  150.5372  131.8214 H   0  0  0  0  0  0  0  0  0  0  0  0
  148.3348  149.0170  131.8214 H   0  0  0  0  0  0  0  0  0  0  0  0
  151.1571  149.5263  131.4103 H   0  0  0  0  0  0  0  0  0  0  0  0
  149.7434  149.5031  130.3023 H   0  0  0  0  0  0  0  0  0  0  0  0
  150.8616  150.9089  130.3023 H   0  0  0  0  0  0  0  0  0  0  0  0
  146.8002  154.4506  131.7610 H   0  0  0  0  0  0  0  0  0  0  0  0
  145.6638  153.2726  132.1696 H   0  0  0  0  0  0  0  0  0  0  0  0
  144.2069  156.4656  134.0002 H   0  0  0  0  0  0  0  0  0  0  0  0
  1  2  1  0
  2  3  1  0
  2  4  1  0
  2  5  1  0
  5  6  1  0
  6  7  2  0
  6  8  1  0
  8  9  1  0
  9 10  1  0
 10 11  1  0
 10 12  2  0
  9 13  2  0
 13 14  1  0
 14 15  2  0
 15 16  1  0
 16 17  2  0
 17 18  1  0
 18 19  1  0
 19 20  1  0
 20 21  1  0
 21 22  2  0
 21 23  1  0
 23 24  1  0
 24 25  1  0
 24 26  1  0
 24 27  1  0
 20 28  1  0
 17 29  1  0
 29 30  2  0
 30  8  1  0
 30 14  1  0
 28 18  1  0
  1 31  1  0
  1 32  1  0
  1 33  1  0
  3 34  1  0
  3 35  1  0
  3 36  1  0
  4 37  1  0
  4 38  1  0
  4 39  1  0
 11 40  1  0
 13 41  1  0
 15 42  1  0
 16 43  1  0
 18 44  1  1
 19 45  1  0
 19 46  1  0
 20 47  1  1
 25 48  1  0
 25 49  1  0
 25 50  1  0
 26 51  1  0
 26 52  1  0
 26 53  1  0
 27 54  1  0
 27 55  1  0
 27 56  1  0
 28 57  1  0
 28 58  1  0
 29 59  1  0
M  CHG  2  11  -1  20   1
M  END
>  <UniqueID>  (20) 
19

>  <SMILES>  (20) 
CC(C)(C)OC(=O)n1c(C([NH-])=O)cc2ccc(C3C[NH+](C(=O)OC(C)(C)C)C3)cc21

>  <Energy>  (20) 
167.9061042415538

>  <Genealogy>  (20) 
CC(C)(C)OC(=O)n1c(C([NH-])=O)cc2ccc(C3C[NH+](C(=O)OC(C)(C)C)C3)cc21 (protonated)
CC(C)(C)OC(=O)n1c(C([NH-])=O)cc2ccc(C3C[NH+](C(=O)OC(C)(C)C)C3)cc21 (3D coordinates assigned)
CC(C)(C)OC(=O)n1c(C([NH-])=O)cc2ccc(C3C[NH+](C(=O)OC(C)(C)C)C3)cc21 (nonaromatic ring conformer: 167.9061042415538 kcal/mol)

>  <smiles>  (20) 
CC(C)(C)OC(=O)N1CC(c2ccc3cc(C(N)=O)n(C(=O)OC(C)(C)C)c3c2)C1

>  <score_type>  (20) 
oracle

>  <origin>  (20) 
adg

>  <m_score__min__energy>  (20) 
-8.5600000000000005

>  <m_primary>  (20) 
energy

$$$$
20:0
     RDKit          3D

 42 44  0  0  0  0  0  0  0  0999 V2000
  139.0840  147.4130  130.0140 C   0  0  0  0  0  0  0  0  0  0  0  0
  138.3720  148.6620  130.5220 C   0  0  0  0  0  0  0  0  0  0  0  0
  139.2680  149.7710  130.5570 O   0  0  0  0  0  0  0  0  0  0  0  0
  139.4140  150.6160  131.6640 C   0  0  0  0  0  0  0  0  0  0  0  0
  138.3900  151.0930  132.2260 O   0  0  0  0  0  0  0  0  0  0  0  0
  140.7620  150.9800  132.1720 C   0  0  0  0  0  0  0  0  0  0  0  0
  141.0440  152.2980  132.4070 N   0  0  0  0  0  0  0  0  0  0  0  0
  142.2640  152.7090  132.8600 C   0  0  0  0  0  0  0  0  0  0  0  0
  142.5400  154.1510  133.0850 C   0  0  0  0  0  0  0  0  0  0  0  0
  143.8300  154.6860  132.8290 C   0  0  0  0  0  0  0  0  0  0  0  0
  144.0930  156.0510  133.0290 C   0  0  0  0  0  0  0  0  0  0  0  0
  143.0570  156.8560  133.4920 C   0  0  0  0  0  0  0  0  0  0  0  0
  143.0320  158.2070  133.7430 C   0  0  0  0  0  0  0  0  0  0  0  0
  141.7350  158.4800  134.1730 C   0  0  0  0  0  0  0  0  0  0  0  0
  141.2970  159.8140  134.6340 C   0  0  0  0  0  0  0  0  0  0  0  0
  140.8150  160.0110  135.9610 N   0  0  0  0  0  0  0  0  0  0  0  0
  141.3960  160.8040  133.8600 O   0  0  0  0  0  0  0  0  0  0  0  0
  140.9840  157.3410  134.1790 N   0  0  0  0  0  0  0  0  0  0  0  0
  139.5840  157.2080  134.4760 C   0  0  0  0  0  0  0  0  0  0  0  0
  139.0890  157.7910  135.4760 O   0  0  0  0  0  0  0  0  0  0  0  0
  138.7600  156.4580  133.6470 O   0  0  0  0  0  0  0  0  0  0  0  0
  141.8100  156.3560  133.7630 C   0  0  0  0  0  0  0  0  0  0  0  0
  141.5130  155.0040  133.5540 C   0  0  0  0  0  0  0  0  0  0  0  0
  143.2530  151.7490  133.0970 C   0  0  0  0  0  0  0  0  0  0  0  0
  142.9820  150.4400  132.8800 N   0  0  0  0  0  0  0  0  0  0  0  0
  141.7700  150.0170  132.4320 C   0  0  0  0  0  0  0  0  0  0  0  0
  141.5650  148.5420  132.2540 C   0  0  0  0  0  0  0  0  0  0  0  0
  139.4263  146.8125  130.8697 H   0  0  0  0  0  0  0  0  0  0  0  0
  138.3894  146.8179  129.4029 H   0  0  0  0  0  0  0  0  0  0  0  0
  139.9499  147.7075  129.4029 H   0  0  0  0  0  0  0  0  0  0  0  0
  137.5318  148.8970  129.8520 H   0  0  0  0  0  0  0  0  0  0  0  0
  138.0040  148.4709  131.5409 H   0  0  0  0  0  0  0  0  0  0  0  0
  140.3020  153.0150  132.2400 H   0  0  0  0  0  0  0  0  0  0  0  0
  144.6321  154.0243  132.4701 H   0  0  0  0  0  0  0  0  0  0  0  0
  145.0889  156.4714  132.8256 H   0  0  0  0  0  0  0  0  0  0  0  0
  143.8605  158.9215  133.6286 H   0  0  0  0  0  0  0  0  0  0  0  0
  139.8570  159.7010  136.2340 H   0  0  0  0  0  0  0  0  0  0  0  0
  140.5036  154.6134  133.7500 H   0  0  0  0  0  0  0  0  0  0  0  0
  144.2459  152.0556  133.4578 H   0  0  0  0  0  0  0  0  0  0  0  0
  141.4979  148.0595  133.2402 H   0  0  0  0  0  0  0  0  0  0  0  0
  140.6338  148.3660  131.6956 H   0  0  0  0  0  0  0  0  0  0  0  0
  142.4129  148.1187  131.6956 H   0  0  0  0  0  0  0  0  0  0  0  0
  1  2  1  0
  2  3  1  0
  3  4  1  0
  4  5  2  0
  4  6  1  0
  6  7  2  0
  7  8  1  0
  8  9  1  0
  9 10  2  0
 10 11  1  0
 11 12  2  0
 12 13  1  0
 13 14  2  0
 14 15  1  0
 15 16  1  0
 15 17  2  0
 14 18  1  0
 18 19  1  0
 19 20  2  0
 19 21  1  0
 18 22  1  0
 22 23  2  0
  8 24  2  0
 24 25  1  0
 25 26  2  0
 26 27  1  0
 26  6  1  0
 23  9  1  0
 22 12  1  0
  1 28  1  0
  1 29  1  0
  1 30  1  0
  2 31  1  0
  2 32  1  0
  7 33  1  0
 10 34  1  0
 11 35  1  0
 13 36  1  0
 16 37  1  0
 23 38  1  0
 24 39  1  0
 27 40  1  0
 27 41  1  0
 27 42  1  0
M  CHG  3   7   1  16  -1  21  -1
M  END
>  <UniqueID>  (21) 
20

>  <SMILES>  (21) 
CCOC(=O)c1[nH+]c(-c2ccc3cc(C([NH-])=O)n(C(=O)[O-])c3c2)cnc1C

>  <Energy>  (21) 
89.59789257836985

>  <Genealogy>  (21) 
CCOC(=O)c1[nH+]c(-c2ccc3cc(C([NH-])=O)n(C(=O)[O-])c3c2)cnc1C (protonated)
CCOC(=O)c1[nH+]c(-c2ccc3cc(C([NH-])=O)n(C(=O)[O-])c3c2)cnc1C (3D coordinates assigned)
CCOC(=O)c1[nH+]c(-c2ccc3cc(C([NH-])=O)n(C(=O)[O-])c3c2)cnc1C (optimized conformer: 89.59789257836985 kcal/mol)

>  <smiles>  (21) 
CCOC(=O)c1nc(-c2ccc3cc(C(N)=O)n(C(=O)O)c3c2)cnc1C

>  <score_type>  (21) 
oracle

>  <origin>  (21) 
adg

>  <m_score__min__energy>  (21) 
-7.2999999999999998

>  <m_primary>  (21) 
energy

$$$$
21:0
     RDKit          3D

 54 56  0  0  0  0  0  0  0  0999 V2000
  138.5200  148.9270  130.9960 C   0  0  0  0  0  0  0  0  0  0  0  0
  139.9230  148.3710  130.7430 C   0  0  0  0  0  0  0  0  0  0  0  0
  139.8190  147.1140  130.1710 F   0  0  0  0  0  0  0  0  0  0  0  0
  140.5700  149.2040  129.8470 F   0  0  0  0  0  0  0  0  0  0  0  0
  140.7610  148.2960  132.0310 C   0  0  0  0  0  0  0  0  0  0  0  0
  141.4650  149.5940  132.3450 C   0  0  0  0  0  0  0  0  0  0  0  0
  140.7240  150.7540  132.6160 C   0  0  0  0  0  0  0  0  0  0  0  0
  141.3740  151.9610  132.8870 C   0  0  0  0  0  0  0  0  0  0  0  0
  142.7790  152.0300  132.8900 C   0  0  0  0  0  0  0  0  0  0  0  0
  143.4720  153.3120  133.1810 C   0  0  0  0  0  0  0  0  0  0  0  0
  142.7350  154.4480  133.6070 C   0  0  0  0  0  0  0  0  0  0  0  0
  143.3840  155.6610  133.8950 C   0  0  0  0  0  0  0  0  0  0  0  0
  144.7660  155.7160  133.7380 C   0  0  0  0  0  0  0  0  0  0  0  0
  145.6430  156.7480  133.9760 C   0  0  0  0  0  0  0  0  0  0  0  0
  146.9000  156.2430  133.6600 C   0  0  0  0  0  0  0  0  0  0  0  0
  148.1380  157.0470  133.7110 C   0  0  0  0  0  0  0  0  0  0  0  0
  149.0860  157.0170  132.6430 N   0  0  0  0  0  0  0  0  0  0  0  0
  148.3350  157.8150  134.6900 O   0  0  0  0  0  0  0  0  0  0  0  0
  146.8080  154.9440  133.2560 N   0  0  0  0  0  0  0  0  0  0  0  0
  147.8830  154.0450  132.9410 C   0  0  0  0  0  0  0  0  0  0  0  0
  149.0000  154.5080  132.5810 O   0  0  0  0  0  0  0  0  0  0  0  0
  147.6740  152.6610  133.0410 O   0  0  0  0  0  0  0  0  0  0  0  0
  148.6100  151.6310  132.6940 C   0  0  0  0  0  0  0  0  0  0  0  0
  147.7910  150.3900  132.3060 C   0  0  0  0  0  0  0  0  0  0  0  0
  149.5010  151.2800  133.9000 C   0  0  0  0  0  0  0  0  0  0  0  0
  149.4670  152.0610  131.4890 C   0  0  0  0  0  0  0  0  0  0  0  0
  145.4930  154.6370  133.3070 C   0  0  0  0  0  0  0  0  0  0  0  0
  144.8760  153.4090  133.0380 C   0  0  0  0  0  0  0  0  0  0  0  0
  143.5180  150.8650  132.6160 C   0  0  0  0  0  0  0  0  0  0  0  0
  142.8670  149.6590  132.3450 C   0  0  0  0  0  0  0  0  0  0  0  0
  138.3432  148.9971  132.0794 H   0  0  0  0  0  0  0  0  0  0  0  0
  138.4350  149.9268  130.5452 H   0  0  0  0  0  0  0  0  0  0  0  0
  137.7732  148.2568  130.5452 H   0  0  0  0  0  0  0  0  0  0  0  0
  140.0951  148.0450  132.8698 H   0  0  0  0  0  0  0  0  0  0  0  0
  141.5333  147.5274  131.8804 H   0  0  0  0  0  0  0  0  0  0  0  0
  139.6248  150.7132  132.6152 H   0  0  0  0  0  0  0  0  0  0  0  0
  140.7826  152.8638  133.0995 H   0  0  0  0  0  0  0  0  0  0  0  0
  141.6424  154.3781  133.7130 H   0  0  0  0  0  0  0  0  0  0  0  0
  142.8169  156.5404  134.2343 H   0  0  0  0  0  0  0  0  0  0  0  0
  145.4019  157.7580  134.3390 H   0  0  0  0  0  0  0  0  0  0  0  0
  149.9750  157.5590  132.7170 H   0  0  0  0  0  0  0  0  0  0  0  0
  148.8720  156.5300  131.7440 H   0  0  0  0  0  0  0  0  0  0  0  0
  147.4513  149.8753  133.2169 H   0  0  0  0  0  0  0  0  0  0  0  0
  146.9181  150.6979  131.7117 H   0  0  0  0  0  0  0  0  0  0  0  0
  148.4173  149.7084  131.7117 H   0  0  0  0  0  0  0  0  0  0  0  0
  148.9575  151.4941  134.8321 H   0  0  0  0  0  0  0  0  0  0  0  0
  149.7618  150.2119  133.8647 H   0  0  0  0  0  0  0  0  0  0  0  0
  150.4202  151.8832  133.8647 H   0  0  0  0  0  0  0  0  0  0  0  0
  150.3964  152.5273  131.8478 H   0  0  0  0  0  0  0  0  0  0  0  0
  149.7112  151.1787  130.8792 H   0  0  0  0  0  0  0  0  0  0  0  0
  148.9056  152.7842  130.8792 H   0  0  0  0  0  0  0  0  0  0  0  0
  145.4702  152.5388  132.7223 H   0  0  0  0  0  0  0  0  0  0  0  0
  144.6173  150.9038  132.6151 H   0  0  0  0  0  0  0  0  0  0  0  0
  143.4565  148.7554  132.1304 H   0  0  0  0  0  0  0  0  0  0  0  0
  1  2  1  0
  2  3  1  0
  2  4  1  0
  2  5  1  0
  5  6  1  0
  6  7  2  0
  7  8  1  0
  8  9  2  0
  9 10  1  0
 10 11  2  0
 11 12  1  0
 12 13  2  0
 13 14  1  0
 14 15  2  0
 15 16  1  0
 16 17  1  0
 16 18  2  0
 15 19  1  0
 19 20  1  0
 20 21  2  0
 20 22  1  0
 22 23  1  0
 23 24  1  0
 23 25  1  0
 23 26  1  0
 19 27  1  0
 27 28  2  0
  9 29  1  0
 29 30  2  0
 30  6  1  0
 28 10  1  0
 27 13  1  0
  1 31  1  0
  1 32  1  0
  1 33  1  0
  5 34  1  0
  5 35  1  0
  7 36  1  0
  8 37  1  0
 11 38  1  0
 12 39  1  0
 14 40  1  0
 17 41  1  0
 17 42  1  0
 24 43  1  0
 24 44  1  0
 24 45  1  0
 25 46  1  0
 25 47  1  0
 25 48  1  0
 26 49  1  0
 26 50  1  0
 26 51  1  0
 28 52  1  0
 29 53  1  0
 30 54  1  0
M  END
>  <UniqueID>  (22) 
21

>  <SMILES>  (22) 
CC(F)(F)Cc1ccc(-c2ccc3cc(C(N)=O)n(C(=O)OC(C)(C)C)c3c2)cc1

>  <Energy>  (22) 
90.79631036912627

>  <Genealogy>  (22) 
CC(F)(F)Cc1ccc(-c2ccc3cc(C(N)=O)n(C(=O)OC(C)(C)C)c3c2)cc1 (3D coordinates assigned)
CC(F)(F)Cc1ccc(-c2ccc3cc(C(N)=O)n(C(=O)OC(C)(C)C)c3c2)cc1 (optimized conformer: 90.79631036912627 kcal/mol)

>  <smiles>  (22) 
CC(F)(F)Cc1ccc(-c2ccc3cc(C(N)=O)n(C(=O)OC(C)(C)C)c3c2)cc1

>  <score_type>  (22) 
oracle

>  <origin>  (22) 
adg

>  <m_score__min__energy>  (22) 
-9.4000000000000004

>  <m_primary>  (22) 
energy

$$$$
23:0
     RDKit          3D

 47 49  0  0  0  0  0  0  0  0999 V2000
  138.2230  158.6570  131.7260 C   0  0  0  0  0  0  0  0  0  0  0  0
  139.3530  158.4980  132.7600 C   0  0  0  0  0  0  0  0  0  0  0  0
  138.7320  158.2060  134.1350 C   0  0  0  0  0  0  0  0  0  0  0  0
  140.1880  159.7880  132.8570 C   0  0  0  0  0  0  0  0  0  0  0  0
  140.1890  157.3800  132.4290 O   0  0  0  0  0  0  0  0  0  0  0  0
  140.1420  156.1050  133.0120 C   0  0  0  0  0  0  0  0  0  0  0  0
  139.0450  155.5070  133.1790 O   0  0  0  0  0  0  0  0  0  0  0  0
  141.3680  155.4630  133.3950 N   0  0  0  0  0  0  0  0  0  0  0  0
  142.4860  156.0330  133.9270 C   0  0  0  0  0  0  0  0  0  0  0  0
  142.7350  157.4820  134.0810 C   0  0  0  0  0  0  0  0  0  0  0  0
  142.8850  158.3250  132.9410 N   0  0  0  0  0  0  0  0  0  0  0  0
  142.8640  157.9740  135.2320 O   0  0  0  0  0  0  0  0  0  0  0  0
  143.4290  155.0560  134.2410 C   0  0  0  0  0  0  0  0  0  0  0  0
  142.8540  153.8610  133.8730 C   0  0  0  0  0  0  0  0  0  0  0  0
  143.3470  152.5620  133.9680 C   0  0  0  0  0  0  0  0  0  0  0  0
  142.5210  151.5120  133.5300 C   0  0  0  0  0  0  0  0  0  0  0  0
  141.2280  151.7790  133.0220 C   0  0  0  0  0  0  0  0  0  0  0  0
  140.3940  150.7050  132.5880 N   0  0  0  0  0  0  0  0  0  0  0  0
  140.3940  149.2300  132.6480 C   0  0  0  0  0  0  0  0  0  0  0  0
  139.1090  149.0440  131.8990 C   0  0  0  0  0  0  0  0  0  0  0  0
  139.2550  148.3760  130.5530 C   0  0  0  0  0  0  0  0  0  0  0  0
  140.2360  147.3610  130.3170 N   0  0  0  0  0  0  0  0  0  0  0  0
  138.4920  148.7250  129.6130 O   0  0  0  0  0  0  0  0  0  0  0  0
  139.1220  150.5420  131.8590 C   0  0  0  0  0  0  0  0  0  0  0  0
  140.7610  153.1060  132.9420 C   0  0  0  0  0  0  0  0  0  0  0  0
  141.6100  154.1350  133.3660 C   0  0  0  0  0  0  0  0  0  0  0  0
  137.2644  158.7919  132.2483 H   0  0  0  0  0  0  0  0  0  0  0  0
  138.4239  159.5357  131.0955 H   0  0  0  0  0  0  0  0  0  0  0  0
  138.1736  157.7570  131.0955 H   0  0  0  0  0  0  0  0  0  0  0  0
  139.4236  158.5312  134.9262 H   0  0  0  0  0  0  0  0  0  0  0  0
  137.7818  158.7517  134.2315 H   0  0  0  0  0  0  0  0  0  0  0  0
  138.5461  157.1261  134.2315 H   0  0  0  0  0  0  0  0  0  0  0  0
  140.3513  160.0403  133.9151 H   0  0  0  0  0  0  0  0  0  0  0  0
  141.1586  159.6346  132.3626 H   0  0  0  0  0  0  0  0  0  0  0  0
  139.6506  160.6107  132.3626 H   0  0  0  0  0  0  0  0  0  0  0  0
  142.1360  158.3910  132.2180 H   0  0  0  0  0  0  0  0  0  0  0  0
  144.4224  155.2079  134.6882 H   0  0  0  0  0  0  0  0  0  0  0  0
  144.3505  152.3639  134.3727 H   0  0  0  0  0  0  0  0  0  0  0  0
  142.8830  150.4746  133.5827 H   0  0  0  0  0  0  0  0  0  0  0  0
  141.2560  148.7834  132.1308 H   0  0  0  0  0  0  0  0  0  0  0  0
  140.4665  148.7678  133.6435 H   0  0  0  0  0  0  0  0  0  0  0  0
  138.2628  148.4452  132.2669 H   0  0  0  0  0  0  0  0  0  0  0  0
  140.8850  147.0460  131.0700 H   0  0  0  0  0  0  0  0  0  0  0  0
  140.3140  146.9180  129.3740 H   0  0  0  0  0  0  0  0  0  0  0  0
  139.1657  150.9393  130.8342 H   0  0  0  0  0  0  0  0  0  0  0  0
  138.2415  151.0624  132.2639 H   0  0  0  0  0  0  0  0  0  0  0  0
  139.7550  153.3277  132.5562 H   0  0  0  0  0  0  0  0  0  0  0  0
  1  2  1  0
  2  3  1  0
  2  4  1  0
  2  5  1  0
  5  6  1  0
  6  7  2  0
  6  8  1  0
  8  9  1  0
  9 10  1  0
 10 11  1  0
 10 12  2  0
  9 13  2  0
 13 14  1  0
 14 15  2  0
 15 16  1  0
 16 17  2  0
 17 18  1  0
 18 19  1  0
 19 20  1  0
 20 21  1  0
 21 22  1  0
 21 23  2  0
 20 24  1  0
 17 25  1  0
 25 26  2  0
 26  8  1  0
 26 14  1  0
 24 18  1  0
  1 27  1  0
  1 28  1  0
  1 29  1  0
  3 30  1  0
  3 31  1  0
  3 32  1  0
  4 33  1  0
  4 34  1  0
  4 35  1  0
 11 36  1  0
 13 37  1  0
 15 38  1  0
 16 39  1  0
 19 40  1  0
 19 41  1  0
 20 42  1  0
 22 43  1  0
 22 44  1  0
 24 45  1  0
 24 46  1  0
 25 47  1  0
M  CHG  1  11  -1
M  END
>  <UniqueID>  (23) 
22

>  <SMILES>  (23) 
CC(C)(C)OC(=O)n1c(C([NH-])=O)cc2ccc(N3CC(C(N)=O)C3)cc21

>  <Energy>  (23) 
125.35679790093013

>  <Genealogy>  (23) 
CC(C)(C)OC(=O)n1c(C([NH-])=O)cc2ccc(N3CC(C(N)=O)C3)cc21 (protonated)
CC(C)(C)OC(=O)n1c(C([NH-])=O)cc2ccc(N3CC(C(N)=O)C3)cc21 (3D coordinates assigned)
CC(C)(C)OC(=O)n1c(C([NH-])=O)cc2ccc(N3CC(C(N)=O)C3)cc21 (nonaromatic ring conformer: 125.35679790093013 kcal/mol)

>  <smiles>  (23) 
CC(C)(C)OC(=O)n1c(C(N)=O)cc2ccc(N3CC(C(N)=O)C3)cc21

>  <score_type>  (23) 
oracle

>  <origin>  (23) 
adg

>  <m_score__min__energy>  (23) 
-8.2799999999999994

>  <m_primary>  (23) 
energy

$$$$
24:0
     RDKit          3D

 24 25  0  0  0  0  0  0  0  0999 V2000
  149.2430  162.0260  130.3550 C   0  0  0  0  0  0  0  0  0  0  0  0
  149.0490  160.7220  131.0690 C   0  0  0  0  0  0  0  0  0  0  0  0
  150.0960  159.7690  131.1020 C   0  0  0  0  0  0  0  0  0  0  0  0
  149.9350  158.5540  131.7890 C   0  0  0  0  0  0  0  0  0  0  0  0
  148.7280  158.3310  132.4460 C   0  0  0  0  0  0  0  0  0  0  0  0
  148.3030  157.2390  133.1670 C   0  0  0  0  0  0  0  0  0  0  0  0
  147.0160  157.5570  133.5960 C   0  0  0  0  0  0  0  0  0  0  0  0
  146.2170  156.6870  134.4830 C   0  0  0  0  0  0  0  0  0  0  0  0
  144.8000  156.6380  134.3410 N   0  0  0  0  0  0  0  0  0  0  0  0
  146.7760  155.9560  135.3430 O   0  0  0  0  0  0  0  0  0  0  0  0
  146.6560  158.7960  133.1520 N   0  0  0  0  0  0  0  0  0  0  0  0
  145.3890  159.4550  133.3170 C   0  0  0  0  0  0  0  0  0  0  0  0
  144.3720  159.0390  132.7030 O   0  0  0  0  0  0  0  0  0  0  0  0
  145.2700  160.5410  134.1740 O   0  0  0  0  0  0  0  0  0  0  0  0
  147.7180  159.2560  132.4520 C   0  0  0  0  0  0  0  0  0  0  0  0
  147.8440  160.4690  131.7600 C   0  0  0  0  0  0  0  0  0  0  0  0
  149.3631  162.8334  131.0923 H   0  0  0  0  0  0  0  0  0  0  0  0
  150.1425  161.9685  129.7244 H   0  0  0  0  0  0  0  0  0  0  0  0
  148.3657  162.2328  129.7244 H   0  0  0  0  0  0  0  0  0  0  0  0
  151.0435  159.9818  130.5853 H   0  0  0  0  0  0  0  0  0  0  0  0
  150.7378  157.8022  131.8072 H   0  0  0  0  0  0  0  0  0  0  0  0
  148.8609  156.3115  133.3632 H   0  0  0  0  0  0  0  0  0  0  0  0
  144.2400  157.5110  134.2250 H   0  0  0  0  0  0  0  0  0  0  0  0
  147.0257  161.2041  131.7556 H   0  0  0  0  0  0  0  0  0  0  0  0
  1  2  1  0
  2  3  2  0
  3  4  1  0
  4  5  2  0
  5  6  1  0
  6  7  2  0
  7  8  1  0
  8  9  1  0
  8 10  2  0
  7 11  1  0
 11 12  1  0
 12 13  2  0
 12 14  1  0
 11 15  1  0
 15 16  2  0
 16  2  1  0
 15  5  1  0
  1 17  1  0
  1 18  1  0
  1 19  1  0
  3 20  1  0
  4 21  1  0
  6 22  1  0
  9 23  1  0
 16 24  1  0
M  CHG  2   9  -1  14  -1
M  END
>  <UniqueID>  (24) 
23

>  <SMILES>  (24) 
Cc1ccc2cc(C([NH-])=O)n(C(=O)[O-])c2c1

>  <Energy>  (24) 
63.26296037210353

>  <Genealogy>  (24) 
Cc1ccc2cc(C([NH-])=O)n(C(=O)[O-])c2c1 (protonated)
Cc1ccc2cc(C([NH-])=O)n(C(=O)[O-])c2c1 (3D coordinates assigned)
Cc1ccc2cc(C([NH-])=O)n(C(=O)[O-])c2c1 (optimized conformer: 63.26296037210353 kcal/mol)

>  <smiles>  (24) 
Cc1ccc2cc(C(N)=O)n(C(=O)O)c2c1

>  <score_type>  (24) 
oracle

>  <origin>  (24) 
adg

>  <m_score__min__energy>  (24) 
-5.5499999999999998

>  <m_primary>  (24) 
energy

$$$$
25:0
     RDKit          3D

 53 54  0  0  0  0  0  0  0  0999 V2000
  138.3740  160.5040  130.3490 C   0  0  0  0  0  0  0  0  0  0  0  0
  137.6540  159.4250  131.1500 C   0  0  0  0  0  0  0  0  0  0  0  0
  138.5090  158.3030  131.3540 O   0  0  0  0  0  0  0  0  0  0  0  0
  139.6030  158.3200  132.2280 C   0  0  0  0  0  0  0  0  0  0  0  0
  140.6030  159.0530  131.9950 O   0  0  0  0  0  0  0  0  0  0  0  0
  139.5810  157.4610  133.4520 C   0  0  0  0  0  0  0  0  0  0  0  0
  140.8710  156.6360  133.5540 C   0  0  0  0  0  0  0  0  0  0  0  0
  141.7220  157.0340  134.7690 C   0  0  0  0  0  0  0  0  0  0  0  0
  142.8230  157.9940  134.3940 C   0  0  0  0  0  0  0  0  0  0  0  0
  142.5640  159.3850  134.3090 C   0  0  0  0  0  0  0  0  0  0  0  0
  143.5770  160.2790  133.9230 C   0  0  0  0  0  0  0  0  0  0  0  0
  144.8340  159.7550  133.6320 C   0  0  0  0  0  0  0  0  0  0  0  0
  145.9760  160.3860  133.1970 C   0  0  0  0  0  0  0  0  0  0  0  0
  146.9200  159.3730  133.0330 C   0  0  0  0  0  0  0  0  0  0  0  0
  148.3280  159.6060  132.6400 C   0  0  0  0  0  0  0  0  0  0  0  0
  149.3930  158.9270  133.3060 N   0  0  0  0  0  0  0  0  0  0  0  0
  148.6000  160.3880  131.6910 O   0  0  0  0  0  0  0  0  0  0  0  0
  146.3810  158.1640  133.3580 N   0  0  0  0  0  0  0  0  0  0  0  0
  146.9960  156.8710  133.2290 C   0  0  0  0  0  0  0  0  0  0  0  0
  148.1610  156.6890  133.6730 O   0  0  0  0  0  0  0  0  0  0  0  0
  146.2820  155.8240  132.6300 O   0  0  0  0  0  0  0  0  0  0  0  0
  145.8950  154.5910  133.2560 C   0  0  0  0  0  0  0  0  0  0  0  0
  145.8330  154.8510  134.7700 C   0  0  0  0  0  0  0  0  0  0  0  0
  146.9390  153.4940  132.9780 C   0  0  0  0  0  0  0  0  0  0  0  0
  144.4990  154.1490  132.7730 C   0  0  0  0  0  0  0  0  0  0  0  0
  145.1040  158.4150  133.7220 C   0  0  0  0  0  0  0  0  0  0  0  0
  144.1090  157.5000  134.0880 C   0  0  0  0  0  0  0  0  0  0  0  0
  138.8496  161.2168  131.0388 H   0  0  0  0  0  0  0  0  0  0  0  0
  139.1430  160.0384  129.7151 H   0  0  0  0  0  0  0  0  0  0  0  0
  137.6488  161.0354  129.7151 H   0  0  0  0  0  0  0  0  0  0  0  0
  137.3566  159.8361  132.1260 H   0  0  0  0  0  0  0  0  0  0  0  0
  136.7651  159.0988  130.5901 H   0  0  0  0  0  0  0  0  0  0  0  0
  139.4897  158.1013  134.3418 H   0  0  0  0  0  0  0  0  0  0  0  0
  138.7240  156.7743  133.3888 H   0  0  0  0  0  0  0  0  0  0  0  0
  140.6048  155.5723  133.6416 H   0  0  0  0  0  0  0  0  0  0  0  0
  141.4659  156.8277  132.6488 H   0  0  0  0  0  0  0  0  0  0  0  0
  141.0724  157.5123  135.5168 H   0  0  0  0  0  0  0  0  0  0  0  0
  142.1871  156.1226  135.1728 H   0  0  0  0  0  0  0  0  0  0  0  0
  141.5608  159.7681  134.5474 H   0  0  0  0  0  0  0  0  0  0  0  0
  143.3831  161.3595  133.8528 H   0  0  0  0  0  0  0  0  0  0  0  0
  146.1152  161.4621  133.0166 H   0  0  0  0  0  0  0  0  0  0  0  0
  150.3810  159.0810  133.0030 H   0  0  0  0  0  0  0  0  0  0  0  0
  149.2150  158.3170  134.1330 H   0  0  0  0  0  0  0  0  0  0  0  0
  146.0551  153.9196  135.3114 H   0  0  0  0  0  0  0  0  0  0  0  0
  146.5734  155.6181  135.0409 H   0  0  0  0  0  0  0  0  0  0  0  0
  144.8261  155.2013  135.0409 H   0  0  0  0  0  0  0  0  0  0  0  0
  147.3167  153.0971  133.9318 H   0  0  0  0  0  0  0  0  0  0  0  0
  146.4725  152.6814  132.4018 H   0  0  0  0  0  0  0  0  0  0  0  0
  147.7737  153.9198  132.4018 H   0  0  0  0  0  0  0  0  0  0  0  0
  143.8573  153.9458  133.6430 H   0  0  0  0  0  0  0  0  0  0  0  0
  144.0508  154.9492  132.1657 H   0  0  0  0  0  0  0  0  0  0  0  0
  144.5930  153.2367  132.1657 H   0  0  0  0  0  0  0  0  0  0  0  0
  144.3246  156.4224  134.1358 H   0  0  0  0  0  0  0  0  0  0  0  0
  1  2  1  0
  2  3  1  0
  3  4  1  0
  4  5  2  0
  4  6  1  0
  6  7  1  0
  7  8  1  0
  8  9  1  0
  9 10  2  0
 10 11  1  0
 11 12  2  0
 12 13  1  0
 13 14  2  0
 14 15  1  0
 15 16  1  0
 15 17  2  0
 14 18  1  0
 18 19  1  0
 19 20  2  0
 19 21  1  0
 21 22  1  0
 22 23  1  0
 22 24  1  0
 22 25  1  0
 18 26  1  0
 26 27  2  0
 27  9  1  0
 26 12  1  0
  1 28  1  0
  1 29  1  0
  1 30  1  0
  2 31  1  0
  2 32  1  0
  6 33  1  0
  6 34  1  0
  7 35  1  0
  7 36  1  0
  8 37  1  0
  8 38  1  0
 10 39  1  0
 11 40  1  0
 13 41  1  0
 16 42  1  0
 16 43  1  0
 23 44  1  0
 23 45  1  0
 23 46  1  0
 24 47  1  0
 24 48  1  0
 24 49  1  0
 25 50  1  0
 25 51  1  0
 25 52  1  0
 27 53  1  0
M  END
>  <UniqueID>  (25) 
24

>  <SMILES>  (25) 
CCOC(=O)CCCc1ccc2cc(C(N)=O)n(C(=O)OC(C)(C)C)c2c1

>  <Energy>  (25) 
76.26270376631504

>  <Genealogy>  (25) 
CCOC(=O)CCCc1ccc2cc(C(N)=O)n(C(=O)OC(C)(C)C)c2c1 (3D coordinates assigned)
CCOC(=O)CCCc1ccc2cc(C(N)=O)n(C(=O)OC(C)(C)C)c2c1 (optimized conformer: 76.26270376631504 kcal/mol)

>  <smiles>  (25) 
CCOC(=O)CCCc1ccc2cc(C(N)=O)n(C(=O)OC(C)(C)C)c2c1

>  <score_type>  (25) 
oracle

>  <origin>  (25) 
adg

>  <m_score__min__energy>  (25) 
-7.71

>  <m_primary>  (25) 
energy

$$$$
26:0
     RDKit          3D

 24 25  0  0  0  0  0  0  0  0999 V2000
  144.5500  156.7690  134.4340 N   0  0  0  0  0  0  0  0  0  0  0  0
  145.9700  156.6220  134.4900 C   0  0  0  0  0  0  0  0  0  0  0  0
  146.4680  155.7720  135.2730 O   0  0  0  0  0  0  0  0  0  0  0  0
  146.8470  157.4280  133.6120 C   0  0  0  0  0  0  0  0  0  0  0  0
  148.1190  157.0260  133.2070 C   0  0  0  0  0  0  0  0  0  0  0  0
  148.6280  158.0880  132.4950 C   0  0  0  0  0  0  0  0  0  0  0  0
  149.8560  158.2290  131.8560 C   0  0  0  0  0  0  0  0  0  0  0  0
  150.1080  159.4300  131.1710 C   0  0  0  0  0  0  0  0  0  0  0  0
  149.1320  160.4540  131.1330 C   0  0  0  0  0  0  0  0  0  0  0  0
  149.3950  161.6670  130.4230 N   0  0  0  0  0  0  0  0  0  0  0  0
  147.8980  160.2790  131.7940 C   0  0  0  0  0  0  0  0  0  0  0  0
  147.6800  159.0780  132.4840 C   0  0  0  0  0  0  0  0  0  0  0  0
  146.5790  158.6890  133.1650 N   0  0  0  0  0  0  0  0  0  0  0  0
  145.3530  159.4250  133.3140 C   0  0  0  0  0  0  0  0  0  0  0  0
  145.3320  160.5020  133.9670 O   0  0  0  0  0  0  0  0  0  0  0  0
  144.1820  158.9650  132.7230 O   0  0  0  0  0  0  0  0  0  0  0  0
  144.1020  157.4990  133.8360 H   0  0  0  0  0  0  0  0  0  0  0  0
  143.9370  156.1670  135.0280 H   0  0  0  0  0  0  0  0  0  0  0  0
  148.6113  156.0641  133.4129 H   0  0  0  0  0  0  0  0  0  0  0  0
  150.6064  157.4253  131.8861 H   0  0  0  0  0  0  0  0  0  0  0  0
  151.0714  159.5752  130.6604 H   0  0  0  0  0  0  0  0  0  0  0  0
  150.3600  162.0660  130.3840 H   0  0  0  0  0  0  0  0  0  0  0  0
  148.6270  162.1760  129.9300 H   0  0  0  0  0  0  0  0  0  0  0  0
  147.1275  161.0637  131.7688 H   0  0  0  0  0  0  0  0  0  0  0  0
  1  2  1  0
  2  3  2  0
  2  4  1  0
  4  5  2  0
  5  6  1  0
  6  7  2  0
  7  8  1  0
  8  9  2  0
  9 10  1  0
  9 11  1  0
 11 12  2  0
 12 13  1  0
 13 14  1  0
 14 15  2  0
 14 16  1  0
 13  4  1  0
 12  6  1  0
  1 17  1  0
  1 18  1  0
  5 19  1  0
  7 20  1  0
  8 21  1  0
 10 22  1  0
 10 23  1  0
 11 24  1  0
M  CHG  1  16  -1
M  END
>  <UniqueID>  (26) 
25

>  <SMILES>  (26) 
NC(=O)c1cc2ccc(N)cc2n1C(=O)[O-]

>  <Energy>  (26) 
62.94826917253141

>  <Genealogy>  (26) 
NC(=O)c1cc2ccc(N)cc2n1C(=O)[O-] (protonated)
NC(=O)c1cc2ccc(N)cc2n1C(=O)[O-] (3D coordinates assigned)
NC(=O)c1cc2ccc(N)cc2n1C(=O)[O-] (optimized conformer: 62.94826917253141 kcal/mol)

>  <smiles>  (26) 
NC(=O)c1cc2ccc(N)cc2n1C(=O)O

>  <score_type>  (26) 
oracle

>  <origin>  (26) 
adg

>  <m_score__min__energy>  (26) 
-5.6100000000000003

>  <m_primary>  (26) 
energy

$$$$
27:0
     RDKit          3D

 47 49  0  0  0  0  0  0  0  0999 V2000
  140.7380  158.9770  134.1090 C   0  0  0  0  0  0  0  0  0  0  0  0
  141.6220  158.3570  135.2080 C   0  0  0  0  0  0  0  0  0  0  0  0
  141.3860  156.8370  135.3010 C   0  0  0  0  0  0  0  0  0  0  0  0
  141.2610  158.9990  136.5560 C   0  0  0  0  0  0  0  0  0  0  0  0
  143.0090  158.6370  134.9640 O   0  0  0  0  0  0  0  0  0  0  0  0
  143.6870  158.4850  133.7450 C   0  0  0  0  0  0  0  0  0  0  0  0
  143.1840  157.8140  132.8040 O   0  0  0  0  0  0  0  0  0  0  0  0
  144.9820  159.0820  133.5800 N   0  0  0  0  0  0  0  0  0  0  0  0
  145.3120  160.3990  133.6960 C   0  0  0  0  0  0  0  0  0  0  0  0
  144.3630  161.5220  133.8460 C   0  0  0  0  0  0  0  0  0  0  0  0
  142.9610  161.3230  133.6870 N   0  0  0  0  0  0  0  0  0  0  0  0
  144.8010  162.6830  134.0690 O   0  0  0  0  0  0  0  0  0  0  0  0
  146.6890  160.5700  133.5760 C   0  0  0  0  0  0  0  0  0  0  0  0
  147.1970  159.3080  133.3720 C   0  0  0  0  0  0  0  0  0  0  0  0
  148.5140  158.8910  133.2050 C   0  0  0  0  0  0  0  0  0  0  0  0
  148.7530  157.5150  133.0500 C   0  0  0  0  0  0  0  0  0  0  0  0
  147.6830  156.5820  133.0740 C   0  0  0  0  0  0  0  0  0  0  0  0
  147.9500  155.1290  132.9220 C   0  0  0  0  0  0  0  0  0  0  0  0
  149.2420  154.6680  132.6110 C   0  0  0  0  0  0  0  0  0  0  0  0
  149.4930  153.3010  132.4680 C   0  0  0  0  0  0  0  0  0  0  0  0
  148.4540  152.3710  132.6190 C   0  0  0  0  0  0  0  0  0  0  0  0
  148.7320  150.9010  132.5010 C   0  0  0  0  0  0  0  0  0  0  0  0
  150.0540  150.6540  132.8190 F   0  0  0  0  0  0  0  0  0  0  0  0
  147.1680  152.8240  132.9450 C   0  0  0  0  0  0  0  0  0  0  0  0
  146.9150  154.1910  133.0900 C   0  0  0  0  0  0  0  0  0  0  0  0
  146.3590  157.0500  133.2480 C   0  0  0  0  0  0  0  0  0  0  0  0
  146.1470  158.4270  133.3800 C   0  0  0  0  0  0  0  0  0  0  0  0
  139.9220  159.5494  134.5743 H   0  0  0  0  0  0  0  0  0  0  0  0
  141.3462  159.6475  133.4840 H   0  0  0  0  0  0  0  0  0  0  0  0
  140.3147  158.1769  133.4840 H   0  0  0  0  0  0  0  0  0  0  0  0
  141.3395  156.5372  136.3583 H   0  0  0  0  0  0  0  0  0  0  0  0
  140.4375  156.5822  134.8055 H   0  0  0  0  0  0  0  0  0  0  0  0
  142.2126  156.3066  134.8055 H   0  0  0  0  0  0  0  0  0  0  0  0
  141.6209  158.3589  137.3750 H   0  0  0  0  0  0  0  0  0  0  0  0
  141.7347  159.9891  136.6291 H   0  0  0  0  0  0  0  0  0  0  0  0
  140.1689  159.1087  136.6291 H   0  0  0  0  0  0  0  0  0  0  0  0
  142.5440  160.3680  133.7360 H   0  0  0  0  0  0  0  0  0  0  0  0
  147.2510  161.5139  133.6324 H   0  0  0  0  0  0  0  0  0  0  0  0
  149.3417  159.6155  133.1947 H   0  0  0  0  0  0  0  0  0  0  0  0
  149.7830  157.1558  132.9082 H   0  0  0  0  0  0  0  0  0  0  0  0
  150.0616  155.3897  132.4793 H   0  0  0  0  0  0  0  0  0  0  0  0
  150.5102  152.9525  132.2359 H   0  0  0  0  0  0  0  0  0  0  0  0
  148.0793  150.3480  133.1925 H   0  0  0  0  0  0  0  0  0  0  0  0
  148.5361  150.5730  131.4695 H   0  0  0  0  0  0  0  0  0  0  0  0
  146.3530  152.0992  133.0876 H   0  0  0  0  0  0  0  0  0  0  0  0
  145.9000  154.5356  133.3371 H   0  0  0  0  0  0  0  0  0  0  0  0
  145.5141  156.3463  133.2789 H   0  0  0  0  0  0  0  0  0  0  0  0
  1  2  1  0
  2  3  1  0
  2  4  1  0
  2  5  1  0
  5  6  1  0
  6  7  2  0
  6  8  1  0
  8  9  1  0
  9 10  1  0
 10 11  1  0
 10 12  2  0
  9 13  2  0
 13 14  1  0
 14 15  2  0
 15 16  1  0
 16 17  2  0
 17 18  1  0
 18 19  2  0
 19 20  1  0
 20 21  2  0
 21 22  1  0
 22 23  1  0
 21 24  1  0
 24 25  2  0
 17 26  1  0
 26 27  2  0
 27  8  1  0
 27 14  1  0
 25 18  1  0
  1 28  1  0
  1 29  1  0
  1 30  1  0
  3 31  1  0
  3 32  1  0
  3 33  1  0
  4 34  1  0
  4 35  1  0
  4 36  1  0
 11 37  1  0
 13 38  1  0
 15 39  1  0
 16 40  1  0
 19 41  1  0
 20 42  1  0
 22 43  1  0
 22 44  1  0
 24 45  1  0
 25 46  1  0
 26 47  1  0
M  CHG  1  11  -1
M  END
>  <UniqueID>  (27) 
26

>  <SMILES>  (27) 
CC(C)(C)OC(=O)n1c(C([NH-])=O)cc2ccc(-c3ccc(CF)cc3)cc21

>  <Energy>  (27) 
87.73783956613762

>  <Genealogy>  (27) 
CC(C)(C)OC(=O)n1c(C([NH-])=O)cc2ccc(-c3ccc(CF)cc3)cc21 (protonated)
CC(C)(C)OC(=O)n1c(C([NH-])=O)cc2ccc(-c3ccc(CF)cc3)cc21 (3D coordinates assigned)
CC(C)(C)OC(=O)n1c(C([NH-])=O)cc2ccc(-c3ccc(CF)cc3)cc21 (optimized conformer: 87.73783956613762 kcal/mol)

>  <smiles>  (27) 
CC(C)(C)OC(=O)n1c(C(N)=O)cc2ccc(-c3ccc(CF)cc3)cc21

>  <score_type>  (27) 
oracle

>  <origin>  (27) 
adg

>  <m_score__min__energy>  (27) 
-8.3100000000000005

>  <m_primary>  (27) 
energy

$$$$
28:0
     RDKit          3D

 50 52  0  0  0  0  0  0  0  0999 V2000
  148.8540  153.7860  132.9900 C   0  0  0  0  0  0  0  0  0  0  0  0
  147.7420  154.2610  133.9210 C   0  0  0  0  0  0  0  0  0  0  0  0
  146.3820  153.9830  133.3230 C   0  0  0  0  0  0  0  0  0  0  0  0
  145.9560  152.6880  133.2260 N   0  0  0  0  0  0  0  0  0  0  0  0
  144.7450  152.3660  132.7000 C   0  0  0  0  0  0  0  0  0  0  0  0
  143.8890  153.3660  132.2430 C   0  0  0  0  0  0  0  0  0  0  0  0
  144.2840  154.6990  132.3360 C   0  0  0  0  0  0  0  0  0  0  0  0
  145.5300  155.0250  132.8840 C   0  0  0  0  0  0  0  0  0  0  0  0
  145.9100  156.4450  132.9890 C   0  0  0  0  0  0  0  0  0  0  0  0
  147.2330  156.8480  132.6870 C   0  0  0  0  0  0  0  0  0  0  0  0
  147.6060  158.1980  132.7880 C   0  0  0  0  0  0  0  0  0  0  0  0
  146.6400  159.1130  133.1980 C   0  0  0  0  0  0  0  0  0  0  0  0
  146.7250  160.4770  133.3680 C   0  0  0  0  0  0  0  0  0  0  0  0
  145.4590  160.8770  133.7920 C   0  0  0  0  0  0  0  0  0  0  0  0
  145.1350  162.2640  134.1850 C   0  0  0  0  0  0  0  0  0  0  0  0
  144.0430  162.9600  133.5880 N   0  0  0  0  0  0  0  0  0  0  0  0
  145.8010  162.8260  135.0950 O   0  0  0  0  0  0  0  0  0  0  0  0
  144.6200  159.8040  133.8680 N   0  0  0  0  0  0  0  0  0  0  0  0
  143.2230  159.7940  134.2010 C   0  0  0  0  0  0  0  0  0  0  0  0
  142.4370  160.5900  133.6220 O   0  0  0  0  0  0  0  0  0  0  0  0
  142.7500  158.8730  135.1480 O   0  0  0  0  0  0  0  0  0  0  0  0
  141.6680  157.9490  134.9710 C   0  0  0  0  0  0  0  0  0  0  0  0
  142.1020  156.6160  135.6000 C   0  0  0  0  0  0  0  0  0  0  0  0
  140.4020  158.4510  135.6900 C   0  0  0  0  0  0  0  0  0  0  0  0
  141.3900  157.7220  133.4720 C   0  0  0  0  0  0  0  0  0  0  0  0
  145.3590  158.7330  133.5050 C   0  0  0  0  0  0  0  0  0  0  0  0
  144.9520  157.4000  133.3860 C   0  0  0  0  0  0  0  0  0  0  0  0
  149.7030  153.4233  133.5881 H   0  0  0  0  0  0  0  0  0  0  0  0
  148.4775  152.9702  132.3554 H   0  0  0  0  0  0  0  0  0  0  0  0
  149.1831  154.6221  132.3554 H   0  0  0  0  0  0  0  0  0  0  0  0
  147.8273  153.7333  134.8824 H   0  0  0  0  0  0  0  0  0  0  0  0
  147.8462  155.3462  134.0676 H   0  0  0  0  0  0  0  0  0  0  0  0
  146.5730  151.9120  133.5610 H   0  0  0  0  0  0  0  0  0  0  0  0
  144.4392  151.3114  132.6347 H   0  0  0  0  0  0  0  0  0  0  0  0
  142.9107  153.1056  131.8129 H   0  0  0  0  0  0  0  0  0  0  0  0
  143.6157  155.4962  131.9783 H   0  0  0  0  0  0  0  0  0  0  0  0
  147.9738  156.0987  132.3711 H   0  0  0  0  0  0  0  0  0  0  0  0
  148.6298  158.5226  132.5505 H   0  0  0  0  0  0  0  0  0  0  0  0
  147.6056  161.1155  133.2039 H   0  0  0  0  0  0  0  0  0  0  0  0
  143.3310  162.4540  133.0180 H   0  0  0  0  0  0  0  0  0  0  0  0
  142.0741  156.7016  136.6963 H   0  0  0  0  0  0  0  0  0  0  0  0
  141.4173  155.8180  135.2770 H   0  0  0  0  0  0  0  0  0  0  0  0
  143.1253  156.3741  135.2770 H   0  0  0  0  0  0  0  0  0  0  0  0
  140.5507  158.3920  136.7783 H   0  0  0  0  0  0  0  0  0  0  0  0
  140.2066  159.4947  135.4026 H   0  0  0  0  0  0  0  0  0  0  0  0
  139.5445  157.8249  135.4026 H   0  0  0  0  0  0  0  0  0  0  0  0
  140.5426  157.0301  133.3569 H   0  0  0  0  0  0  0  0  0  0  0  0
  141.1464  158.6826  132.9947 H   0  0  0  0  0  0  0  0  0  0  0  0
  142.2825  157.2913  132.9947 H   0  0  0  0  0  0  0  0  0  0  0  0
  143.9133  157.1051  133.5963 H   0  0  0  0  0  0  0  0  0  0  0  0
  1  2  1  0
  2  3  1  0
  3  4  2  0
  4  5  1  0
  5  6  2  0
  6  7  1  0
  7  8  2  0
  8  9  1  0
  9 10  2  0
 10 11  1  0
 11 12  2  0
 12 13  1  0
 13 14  2  0
 14 15  1  0
 15 16  1  0
 15 17  2  0
 14 18  1  0
 18 19  1  0
 19 20  2  0
 19 21  1  0
 21 22  1  0
 22 23  1  0
 22 24  1  0
 22 25  1  0
 18 26  1  0
 26 27  2  0
  8  3  1  0
 27  9  1  0
 26 12  1  0
  1 28  1  0
  1 29  1  0
  1 30  1  0
  2 31  1  0
  2 32  1  0
  4 33  1  0
  5 34  1  0
  6 35  1  0
  7 36  1  0
 10 37  1  0
 11 38  1  0
 13 39  1  0
 16 40  1  0
 23 41  1  0
 23 42  1  0
 23 43  1  0
 24 44  1  0
 24 45  1  0
 24 46  1  0
 25 47  1  0
 25 48  1  0
 25 49  1  0
 27 50  1  0
M  CHG  2   4   1  16  -1
M  END
>  <UniqueID>  (28) 
27

>  <SMILES>  (28) 
CCc1[nH+]cccc1-c1ccc2cc(C([NH-])=O)n(C(=O)OC(C)(C)C)c2c1

>  <Energy>  (28) 
90.26405834149327

>  <Genealogy>  (28) 
CCc1[nH+]cccc1-c1ccc2cc(C([NH-])=O)n(C(=O)OC(C)(C)C)c2c1 (protonated)
CCc1[nH+]cccc1-c1ccc2cc(C([NH-])=O)n(C(=O)OC(C)(C)C)c2c1 (3D coordinates assigned)
CCc1[nH+]cccc1-c1ccc2cc(C([NH-])=O)n(C(=O)OC(C)(C)C)c2c1 (optimized conformer: 90.26405834149327 kcal/mol)

>  <smiles>  (28) 
CCc1ncccc1-c1ccc2cc(C(N)=O)n(C(=O)OC(C)(C)C)c2c1

>  <score_type>  (28) 
oracle

>  <origin>  (28) 
adg

>  <m_score__min__energy>  (28) 
-8.3100000000000005

>  <m_primary>  (28) 
energy

$$$$
29:0
     RDKit          3D

 49 51  0  0  0  0  0  0  0  0999 V2000
  141.1370  150.2570  133.3500 B   0  0  0  0  0  1  0  0  0  0  0  0
  142.2150  151.3770  133.3470 C   0  0  0  0  0  0  0  0  0  0  0  0
  143.3930  151.2000  132.6140 C   0  0  0  0  0  0  0  0  0  0  0  0
  144.3540  152.1890  132.6070 C   0  0  0  0  0  0  0  0  0  0  0  0
  144.1900  153.3830  133.3180 C   0  0  0  0  0  0  0  0  0  0  0  0
  145.2620  154.3710  133.2490 C   0  0  0  0  0  0  0  0  0  0  0  0
  146.5600  153.9240  133.1230 C   0  0  0  0  0  0  0  0  0  0  0  0
  147.5810  154.8480  133.0570 C   0  0  0  0  0  0  0  0  0  0  0  0
  147.2920  156.1950  133.1180 C   0  0  0  0  0  0  0  0  0  0  0  0
  148.1030  157.2910  133.0750 C   0  0  0  0  0  0  0  0  0  0  0  0
  147.3250  158.4480  133.1740 C   0  0  0  0  0  0  0  0  0  0  0  0
  147.8930  159.7690  133.1580 C   0  0  0  0  0  0  0  0  0  0  0  0
  147.0310  160.9140  133.3620 N   0  0  0  0  0  0  0  0  0  0  0  0
  149.0990  160.0610  132.9790 O   0  0  0  0  0  0  0  0  0  0  0  0
  146.0490  158.0470  133.2750 N   0  0  0  0  0  0  0  0  0  0  0  0
  144.8900  158.8510  133.3980 C   0  0  0  0  0  0  0  0  0  0  0  0
  144.7330  159.8440  132.6110 O   0  0  0  0  0  0  0  0  0  0  0  0
  143.8810  158.6690  134.3130 O   0  0  0  0  0  0  0  0  0  0  0  0
  142.5180  158.5550  134.0530 C   0  0  0  0  0  0  0  0  0  0  0  0
  142.1430  157.6000  132.9690 C   0  0  0  0  0  0  0  0  0  0  0  0
  141.8650  159.8940  133.7340 C   0  0  0  0  0  0  0  0  0  0  0  0
  141.8580  158.0870  135.3550 C   0  0  0  0  0  0  0  0  0  0  0  0
  146.0080  156.6820  133.2430 C   0  0  0  0  0  0  0  0  0  0  0  0
  144.9970  155.7450  133.3080 C   0  0  0  0  0  0  0  0  0  0  0  0
  143.0360  153.5570  134.0360 C   0  0  0  0  0  0  0  0  0  0  0  0
  142.8760  154.7510  134.7450 O   0  0  0  0  0  0  0  0  0  0  0  0
  143.1580  154.7310  136.1260 C   0  0  0  0  0  0  0  0  0  0  0  0
  142.0710  152.5620  134.0430 C   0  0  0  0  0  0  0  0  0  0  0  0
  143.5527  150.2730  132.0438 H   0  0  0  0  0  0  0  0  0  0  0  0
  145.2754  152.0350  132.0262 H   0  0  0  0  0  0  0  0  0  0  0  0
  146.7777  152.8468  133.0759 H   0  0  0  0  0  0  0  0  0  0  0  0
  148.6234  154.5117  132.9560 H   0  0  0  0  0  0  0  0  0  0  0  0
  149.1984  157.2679  132.9776 H   0  0  0  0  0  0  0  0  0  0  0  0
  147.3530  161.7500  133.8920 H   0  0  0  0  0  0  0  0  0  0  0  0
  146.0600  160.8470  132.9400 H   0  0  0  0  0  0  0  0  0  0  0  0
  141.7756  156.6643  133.4156 H   0  0  0  0  0  0  0  0  0  0  0  0
  141.3525  158.0442  132.3462 H   0  0  0  0  0  0  0  0  0  0  0  0
  143.0245  157.3877  132.3462 H   0  0  0  0  0  0  0  0  0  0  0  0
  141.6127  160.4114  134.6713 H   0  0  0  0  0  0  0  0  0  0  0  0
  142.5627  160.5124  133.1502 H   0  0  0  0  0  0  0  0  0  0  0  0
  140.9482  159.7250  133.1502 H   0  0  0  0  0  0  0  0  0  0  0  0
  142.4187  158.4846  136.2138 H   0  0  0  0  0  0  0  0  0  0  0  0
  140.8213  158.4530  135.3927 H   0  0  0  0  0  0  0  0  0  0  0  0
  141.8604  156.9877  135.3927 H   0  0  0  0  0  0  0  0  0  0  0  0
  143.9561  156.0860  133.4088 H   0  0  0  0  0  0  0  0  0  0  0  0
  142.2179  154.7977  136.6932 H   0  0  0  0  0  0  0  0  0  0  0  0
  143.6745  153.7940  136.3812 H   0  0  0  0  0  0  0  0  0  0  0  0
  143.8016  155.5857  136.3812 H   0  0  0  0  0  0  0  0  0  0  0  0
  141.1526  152.7223  134.6268 H   0  0  0  0  0  0  0  0  0  0  0  0
  1  2  1  0
  2  3  2  0
  3  4  1  0
  4  5  2  0
  5  6  1  0
  6  7  2  0
  7  8  1  0
  8  9  2  0
  9 10  1  0
 10 11  2  0
 11 12  1  0
 12 13  1  0
 12 14  2  0
 11 15  1  0
 15 16  1  0
 16 17  2  0
 16 18  1  0
 18 19  1  0
 19 20  1  0
 19 21  1  0
 19 22  1  0
 15 23  1  0
 23 24  2  0
  5 25  1  0
 25 26  1  0
 26 27  1  0
 25 28  2  0
 28  2  1  0
 24  6  1  0
 23  9  1  0
  3 29  1  0
  4 30  1  0
  7 31  1  0
  8 32  1  0
 10 33  1  0
 13 34  1  0
 13 35  1  0
 20 36  1  0
 20 37  1  0
 20 38  1  0
 21 39  1  0
 21 40  1  0
 21 41  1  0
 22 42  1  0
 22 43  1  0
 22 44  1  0
 24 45  1  0
 27 46  1  0
 27 47  1  0
 27 48  1  0
 28 49  1  0
M  RAD  1   1   3
M  END
>  <smiles>  (29) 
[B]c1ccc(-c2ccc3cc(C(N)=O)n(C(=O)OC(C)(C)C)c3c2)c(OC)c1

>  <score_type>  (29) 
oracle

>  <origin>  (29) 
adg

>  <m_score__min__energy>  (29) 
-8.4000000000000004

>  <m_primary>  (29) 
energy

$$$$
30:0
     RDKit          3D

 41 42  0  0  0  0  0  0  0  0999 V2000
  149.3650  160.4430  130.3970 C   0  0  0  0  0  0  0  0  0  0  0  0
  150.0040  159.5600  131.4640 C   0  0  0  0  0  0  0  0  0  0  0  0
  148.9580  158.7440  132.1740 C   0  0  0  0  0  0  0  0  0  0  0  0
  147.8770  159.3880  132.8250 C   0  0  0  0  0  0  0  0  0  0  0  0
  146.9030  158.6390  133.5050 C   0  0  0  0  0  0  0  0  0  0  0  0
  147.0480  157.2550  133.5350 C   0  0  0  0  0  0  0  0  0  0  0  0
  146.2380  156.2940  134.0960 C   0  0  0  0  0  0  0  0  0  0  0  0
  146.8610  155.0820  133.8190 C   0  0  0  0  0  0  0  0  0  0  0  0
  146.3530  153.7790  134.2960 C   0  0  0  0  0  0  0  0  0  0  0  0
  145.9650  152.7570  133.3780 N   0  0  0  0  0  0  0  0  0  0  0  0
  146.3140  153.5450  135.5330 O   0  0  0  0  0  0  0  0  0  0  0  0
  148.0050  155.2770  133.1030 N   0  0  0  0  0  0  0  0  0  0  0  0
  148.8510  154.2680  132.5280 C   0  0  0  0  0  0  0  0  0  0  0  0
  150.0770  154.5040  132.3540 O   0  0  0  0  0  0  0  0  0  0  0  0
  148.2980  153.0320  132.1640 O   0  0  0  0  0  0  0  0  0  0  0  0
  148.8730  151.7380  132.3970 C   0  0  0  0  0  0  0  0  0  0  0  0
  149.5280  151.6800  133.7900 C   0  0  0  0  0  0  0  0  0  0  0  0
  147.8090  150.6330  132.2500 C   0  0  0  0  0  0  0  0  0  0  0  0
  149.9570  151.5250  131.3280 C   0  0  0  0  0  0  0  0  0  0  0  0
  148.1070  156.6170  132.9390 C   0  0  0  0  0  0  0  0  0  0  0  0
  149.0790  157.3380  132.2340 C   0  0  0  0  0  0  0  0  0  0  0  0
  148.7861  161.2430  130.8816 H   0  0  0  0  0  0  0  0  0  0  0  0
  150.1517  160.8879  129.7700 H   0  0  0  0  0  0  0  0  0  0  0  0
  148.6964  159.8348  129.7700 H   0  0  0  0  0  0  0  0  0  0  0  0
  150.7278  158.8830  130.9867 H   0  0  0  0  0  0  0  0  0  0  0  0
  150.5106  160.2029  132.1989 H   0  0  0  0  0  0  0  0  0  0  0  0
  147.7999  160.4850  132.7976 H   0  0  0  0  0  0  0  0  0  0  0  0
  146.0519  159.1308  133.9986 H   0  0  0  0  0  0  0  0  0  0  0  0
  145.2984  156.4511  134.6460 H   0  0  0  0  0  0  0  0  0  0  0  0
  146.1500  152.8570  132.3550 H   0  0  0  0  0  0  0  0  0  0  0  0
  145.5360  151.8730  133.7290 H   0  0  0  0  0  0  0  0  0  0  0  0
  148.7497  151.7489  134.5643 H   0  0  0  0  0  0  0  0  0  0  0  0
  150.0718  150.7302  133.9002 H   0  0  0  0  0  0  0  0  0  0  0  0
  150.2302  152.5195  133.9002 H   0  0  0  0  0  0  0  0  0  0  0  0
  147.4872  150.2988  133.2474 H   0  0  0  0  0  0  0  0  0  0  0  0
  146.9432  151.0287  131.6988 H   0  0  0  0  0  0  0  0  0  0  0  0
  148.2371  149.7827  131.6988 H   0  0  0  0  0  0  0  0  0  0  0  0
  150.9232  151.3351  131.8183 H   0  0  0  0  0  0  0  0  0  0  0  0
  149.6886  150.6624  130.7004 H   0  0  0  0  0  0  0  0  0  0  0  0
  150.0349  152.4250  130.7004 H   0  0  0  0  0  0  0  0  0  0  0  0
  149.9154  156.8224  131.7395 H   0  0  0  0  0  0  0  0  0  0  0  0
  1  2  1  0
  2  3  1  0
  3  4  2  0
  4  5  1  0
  5  6  2  0
  6  7  1  0
  7  8  2  0
  8  9  1  0
  9 10  1  0
  9 11  2  0
  8 12  1  0
 12 13  1  0
 13 14  2  0
 13 15  1  0
 15 16  1  0
 16 17  1  0
 16 18  1  0
 16 19  1  0
 12 20  1  0
 20 21  2  0
 21  3  1  0
 20  6  1  0
  1 22  1  0
  1 23  1  0
  1 24  1  0
  2 25  1  0
  2 26  1  0
  4 27  1  0
  5 28  1  0
  7 29  1  0
 10 30  1  0
 10 31  1  0
 17 32  1  0
 17 33  1  0
 17 34  1  0
 18 35  1  0
 18 36  1  0
 18 37  1  0
 19 38  1  0
 19 39  1  0
 19 40  1  0
 21 41  1  0
M  END
>  <UniqueID>  (30) 
28

>  <SMILES>  (30) 
CCc1ccc2cc(C(N)=O)n(C(=O)OC(C)(C)C)c2c1

>  <Energy>  (30) 
71.44726593523212

>  <Genealogy>  (30) 
CCc1ccc2cc(C(N)=O)n(C(=O)OC(C)(C)C)c2c1 (3D coordinates assigned)
CCc1ccc2cc(C(N)=O)n(C(=O)OC(C)(C)C)c2c1 (optimized conformer: 71.44726593523212 kcal/mol)

>  <smiles>  (30) 
CCc1ccc2cc(C(N)=O)n(C(=O)OC(C)(C)C)c2c1

>  <score_type>  (30) 
oracle

>  <origin>  (30) 
adg

>  <m_score__min__energy>  (30) 
-7.3099999999999996

>  <m_primary>  (30) 
energy

$$$$
31:0
     RDKit          3D

 52 54  0  0  0  0  0  0  0  0999 V2000
  145.6640  153.8050  134.1920 C   0  0  0  0  0  0  0  0  0  0  0  0
  146.9800  154.5490  134.4900 C   0  0  0  0  0  0  0  0  0  0  0  0
  147.3630  154.3130  135.9580 C   0  0  0  0  0  0  0  0  0  0  0  0
  148.1160  154.0280  133.5890 C   0  0  0  0  0  0  0  0  0  0  0  0
  146.8100  155.9620  134.3200 O   0  0  0  0  0  0  0  0  0  0  0  0
  146.6440  156.6420  133.1040 C   0  0  0  0  0  0  0  0  0  0  0  0
  146.6040  156.0150  132.0110 O   0  0  0  0  0  0  0  0  0  0  0  0
  146.5200  158.0720  133.1070 N   0  0  0  0  0  0  0  0  0  0  0  0
  147.5030  158.9950  132.9050 C   0  0  0  0  0  0  0  0  0  0  0  0
  148.8870  158.7050  132.4810 C   0  0  0  0  0  0  0  0  0  0  0  0
  149.2310  157.4580  131.8750 N   0  0  0  0  0  0  0  0  0  0  0  0
  149.7710  159.5940  132.6050 O   0  0  0  0  0  0  0  0  0  0  0  0
  147.0150  160.2840  133.1010 C   0  0  0  0  0  0  0  0  0  0  0  0
  145.6850  160.1240  133.4200 C   0  0  0  0  0  0  0  0  0  0  0  0
  144.7180  161.0750  133.7300 C   0  0  0  0  0  0  0  0  0  0  0  0
  143.4310  160.6240  134.0590 C   0  0  0  0  0  0  0  0  0  0  0  0
  143.1300  159.2360  134.0850 C   0  0  0  0  0  0  0  0  0  0  0  0
  141.7690  158.7670  134.4490 C   0  0  0  0  0  0  0  0  0  0  0  0
  141.4850  158.3550  135.7630 C   0  0  0  0  0  0  0  0  0  0  0  0
  140.2060  157.9150  136.1050 C   0  0  0  0  0  0  0  0  0  0  0  0
  139.1950  157.8810  135.1430 C   0  0  0  0  0  0  0  0  0  0  0  0
  139.4520  158.2890  133.8290 C   0  0  0  0  0  0  0  0  0  0  0  0
  138.3800  158.2400  132.8780 N   0  0  0  0  0  0  0  0  0  0  0  0
  138.2670  159.1780  131.4230 S   0  0  0  0  0  0  0  0  0  0  0  0
  139.0640  160.7560  131.6470 C   0  0  0  0  0  0  0  0  0  0  0  0
  138.8960  158.4320  130.2790 O   0  0  0  0  0  0  0  0  0  0  0  0
  136.8170  159.4110  131.1100 O   0  0  0  0  0  0  0  0  0  0  0  0
  140.7430  158.7290  133.4850 C   0  0  0  0  0  0  0  0  0  0  0  0
  144.1430  158.3010  133.7680 C   0  0  0  0  0  0  0  0  0  0  0  0
  145.4110  158.7810  133.4190 C   0  0  0  0  0  0  0  0  0  0  0  0
  145.1762  153.5292  135.1386 H   0  0  0  0  0  0  0  0  0  0  0  0
  144.9961  154.4591  133.6123 H   0  0  0  0  0  0  0  0  0  0  0  0
  145.8802  152.8955  133.6123 H   0  0  0  0  0  0  0  0  0  0  0  0
  146.6103  154.7768  136.6124 H   0  0  0  0  0  0  0  0  0  0  0  0
  147.4054  153.2319  136.1566 H   0  0  0  0  0  0  0  0  0  0  0  0
  148.3477  154.7612  136.1566 H   0  0  0  0  0  0  0  0  0  0  0  0
  148.9376  153.6512  134.2158 H   0  0  0  0  0  0  0  0  0  0  0  0
  147.7363  153.2140  132.9539 H   0  0  0  0  0  0  0  0  0  0  0  0
  148.4851  154.8468  132.9539 H   0  0  0  0  0  0  0  0  0  0  0  0
  150.2240  157.2540  131.6230 H   0  0  0  0  0  0  0  0  0  0  0  0
  148.4960  156.7720  131.5940 H   0  0  0  0  0  0  0  0  0  0  0  0
  147.5727  161.2286  133.0186 H   0  0  0  0  0  0  0  0  0  0  0  0
  144.9556  162.1490  133.7175 H   0  0  0  0  0  0  0  0  0  0  0  0
  142.6448  161.3546  134.3000 H   0  0  0  0  0  0  0  0  0  0  0  0
  142.2765  158.3798  136.5264 H   0  0  0  0  0  0  0  0  0  0  0  0
  139.9936  157.5940  137.1355 H   0  0  0  0  0  0  0  0  0  0  0  0
  138.1895  157.5311  135.4195 H   0  0  0  0  0  0  0  0  0  0  0  0
  139.1692  160.9643  132.7220 H   0  0  0  0  0  0  0  0  0  0  0  0
  140.0591  160.7340  131.1787 H   0  0  0  0  0  0  0  0  0  0  0  0
  138.4557  161.5438  131.1787 H   0  0  0  0  0  0  0  0  0  0  0  0
  140.9532  159.0465  132.4530 H   0  0  0  0  0  0  0  0  0  0  0  0
  143.9390  157.2204  133.7951 H   0  0  0  0  0  0  0  0  0  0  0  0
  1  2  1  0
  2  3  1  0
  2  4  1  0
  2  5  1  0
  5  6  1  0
  6  7  2  0
  6  8  1  0
  8  9  1  0
  9 10  1  0
 10 11  1  0
 10 12  2  0
  9 13  2  0
 13 14  1  0
 14 15  2  0
 15 16  1  0
 16 17  2  0
 17 18  1  0
 18 19  2  0
 19 20  1  0
 20 21  2  0
 21 22  1  0
 22 23  1  0
 23 24  1  0
 24 25  1  0
 24 26  2  0
 24 27  2  0
 22 28  2  0
 17 29  1  0
 29 30  2  0
 30  8  1  0
 30 14  1  0
 28 18  1  0
  1 31  1  0
  1 32  1  0
  1 33  1  0
  3 34  1  0
  3 35  1  0
  3 36  1  0
  4 37  1  0
  4 38  1  0
  4 39  1  0
 11 40  1  0
 11 41  1  0
 13 42  1  0
 15 43  1  0
 16 44  1  0
 19 45  1  0
 20 46  1  0
 21 47  1  0
 25 48  1  0
 25 49  1  0
 25 50  1  0
 28 51  1  0
 29 52  1  0
M  CHG  1  23  -1
M  END
>  <UniqueID>  (31) 
29

>  <SMILES>  (31) 
CC(C)(C)OC(=O)n1c(C(N)=O)cc2ccc(-c3cccc([N-]S(C)(=O)=O)c3)cc21

>  <Energy>  (31) 
91.98594626775898

>  <Genealogy>  (31) 
CC(C)(C)OC(=O)n1c(C(N)=O)cc2ccc(-c3cccc([N-]S(C)(=O)=O)c3)cc21 (protonated)
CC(C)(C)OC(=O)n1c(C(N)=O)cc2ccc(-c3cccc([N-]S(C)(=O)=O)c3)cc21 (3D coordinates assigned)
CC(C)(C)OC(=O)n1c(C(N)=O)cc2ccc(-c3cccc([N-]S(C)(=O)=O)c3)cc21 (optimized conformer: 91.98594626775898 kcal/mol)

>  <smiles>  (31) 
CC(C)(C)OC(=O)n1c(C(N)=O)cc2ccc(-c3cccc(NS(C)(=O)=O)c3)cc21

>  <score_type>  (31) 
oracle

>  <origin>  (31) 
adg

>  <m_score__min__energy>  (31) 
-9.9000000000000004

>  <m_primary>  (31) 
energy

$$$$
32:0
     RDKit          3D

 50 53  0  0  0  0  0  0  0  0999 V2000
  146.7570  155.6110  131.8860 C   0  0  0  0  0  0  0  0  0  0  0  0
  145.5570  154.9190  132.5500 C   0  0  0  0  0  0  0  0  0  0  0  0
  146.0770  153.8560  133.5370 C   0  0  0  0  0  0  0  0  0  0  0  0
  144.6880  154.2690  131.4560 C   0  0  0  0  0  0  0  0  0  0  0  0
  144.8160  155.9320  133.2450 O   0  0  0  0  0  0  0  0  0  0  0  0
  145.3510  156.9820  134.0070 C   0  0  0  0  0  0  0  0  0  0  0  0
  146.1870  156.7570  134.9230 O   0  0  0  0  0  0  0  0  0  0  0  0
  144.9120  158.3250  133.7580 N   0  0  0  0  0  0  0  0  0  0  0  0
  145.6750  159.4160  133.4590 C   0  0  0  0  0  0  0  0  0  0  0  0
  147.1220  159.4090  133.1590 C   0  0  0  0  0  0  0  0  0  0  0  0
  148.0660  158.9220  134.1090 N   0  0  0  0  0  0  0  0  0  0  0  0
  147.5260  159.7930  132.0290 O   0  0  0  0  0  0  0  0  0  0  0  0
  144.8830  160.5610  133.3920 C   0  0  0  0  0  0  0  0  0  0  0  0
  143.6010  160.1340  133.6510 C   0  0  0  0  0  0  0  0  0  0  0  0
  142.4150  160.8580  133.7320 C   0  0  0  0  0  0  0  0  0  0  0  0
  141.2380  160.1610  134.0550 C   0  0  0  0  0  0  0  0  0  0  0  0
  141.2680  158.7630  134.2840 C   0  0  0  0  0  0  0  0  0  0  0  0
  140.0150  158.0360  134.6810 C   0  0  0  0  0  0  0  0  0  0  0  0
  139.9740  156.6980  134.0210 C   0  0  0  0  0  0  0  0  0  0  0  0
  139.1080  156.3440  133.0570 N   0  0  0  0  0  0  0  0  0  0  0  0
  139.4010  155.1070  132.6940 N   0  0  0  0  0  0  0  0  0  0  0  0
  140.4530  154.7470  133.4580 C   0  0  0  0  0  0  0  0  0  0  0  0
  141.1270  153.4370  133.3970 C   0  0  0  0  0  0  0  0  0  0  0  0
  140.6340  152.3800  132.6140 C   0  0  0  0  0  0  0  0  0  0  0  0
  141.4090  151.2330  132.6920 C   0  0  0  0  0  0  0  0  0  0  0  0
  141.0970  149.7280  131.8530 Cl  0  0  0  0  0  0  0  0  0  0  0  0
  142.7050  151.5120  133.7220 S   0  0  0  0  0  0  0  0  0  0  0  0
  142.2970  153.1020  134.0850 C   0  0  0  0  0  0  0  0  0  0  0  0
  143.2300  154.1230  135.1650 Cl  0  0  0  0  0  0  0  0  0  0  0  0
  140.8100  155.7190  134.2700 O   0  0  0  0  0  0  0  0  0  0  0  0
  142.4920  158.0640  134.2060 C   0  0  0  0  0  0  0  0  0  0  0  0
  143.6460  158.7800  133.8670 C   0  0  0  0  0  0  0  0  0  0  0  0
  147.4318  156.0001  132.6627 H   0  0  0  0  0  0  0  0  0  0  0  0
  147.2979  154.8861  131.2599 H   0  0  0  0  0  0  0  0  0  0  0  0
  146.4006  156.4422  131.2599 H   0  0  0  0  0  0  0  0  0  0  0  0
  145.9088  154.1998  134.5683 H   0  0  0  0  0  0  0  0  0  0  0  0
  145.5399  152.9101  133.3736 H   0  0  0  0  0  0  0  0  0  0  0  0
  147.1535  153.6994  133.3736 H   0  0  0  0  0  0  0  0  0  0  0  0
  143.8916  153.6733  131.9260 H   0  0  0  0  0  0  0  0  0  0  0  0
  144.2381  155.0540  130.8305 H   0  0  0  0  0  0  0  0  0  0  0  0
  145.3140  153.6156  130.8305 H   0  0  0  0  0  0  0  0  0  0  0  0
  147.8250  158.1350  134.7510 H   0  0  0  0  0  0  0  0  0  0  0  0
  145.2130  161.5882  133.1775 H   0  0  0  0  0  0  0  0  0  0  0  0
  142.3993  161.9425  133.5488 H   0  0  0  0  0  0  0  0  0  0  0  0
  140.2852  160.7055  134.1307 H   0  0  0  0  0  0  0  0  0  0  0  0
  139.9998  157.9048  135.7730 H   0  0  0  0  0  0  0  0  0  0  0  0
  139.1399  158.6229  134.3651 H   0  0  0  0  0  0  0  0  0  0  0  0
  138.3410  156.9230  132.6470 H   0  0  0  0  0  0  0  0  0  0  0  0
  139.7241  152.4548  132.0004 H   0  0  0  0  0  0  0  0  0  0  0  0
  142.5377  156.9834  134.4066 H   0  0  0  0  0  0  0  0  0  0  0  0
  1  2  1  0
  2  3  1  0
  2  4  1  0
  2  5  1  0
  5  6  1  0
  6  7  2  0
  6  8  1  0
  8  9  1  0
  9 10  1  0
 10 11  1  0
 10 12  2  0
  9 13  2  0
 13 14  1  0
 14 15  2  0
 15 16  1  0
 16 17  2  0
 17 18  1  0
 18 19  1  0
 19 20  2  0
 20 21  1  0
 21 22  2  0
 22 23  1  0
 23 24  1  0
 24 25  2  0
 25 26  1  0
 25 27  1  0
 27 28  1  0
 28 29  1  0
 22 30  1  0
 17 31  1  0
 31 32  2  0
 32  8  1  0
 32 14  1  0
 30 19  1  0
 28 23  2  0
  1 33  1  0
  1 34  1  0
  1 35  1  0
  3 36  1  0
  3 37  1  0
  3 38  1  0
  4 39  1  0
  4 40  1  0
  4 41  1  0
 11 42  1  0
 13 43  1  0
 15 44  1  0
 16 45  1  0
 18 46  1  0
 18 47  1  0
 20 48  1  0
 24 49  1  0
 31 50  1  0
M  CHG  2  11  -1  20   1
M  END
>  <UniqueID>  (32) 
30

>  <SMILES>  (32) 
CC(C)(C)OC(=O)n1c(C([NH-])=O)cc2ccc(Cc3[nH+]nc(-c4cc(Cl)sc4Cl)o3)cc21

>  <Energy>  (32) 
148.2456694437617

>  <Genealogy>  (32) 
CC(C)(C)OC(=O)n1c(C([NH-])=O)cc2ccc(Cc3[nH+]nc(-c4cc(Cl)sc4Cl)o3)cc21 (protonated)
CC(C)(C)OC(=O)n1c(C([NH-])=O)cc2ccc(Cc3[nH+]nc(-c4cc(Cl)sc4Cl)o3)cc21 (3D coordinates assigned)
CC(C)(C)OC(=O)n1c(C([NH-])=O)cc2ccc(Cc3[nH+]nc(-c4cc(Cl)sc4Cl)o3)cc21 (optimized conformer: 148.2456694437617 kcal/mol)

>  <smiles>  (32) 
CC(C)(C)OC(=O)n1c(C(N)=O)cc2ccc(Cc3nnc(-c4cc(Cl)sc4Cl)o3)cc21

>  <score_type>  (32) 
oracle

>  <origin>  (32) 
adg

>  <m_score__min__energy>  (32) 
-9.8100000000000005

>  <m_primary>  (32) 
energy

$$$$
33:0
     RDKit          3D

 53 55  0  0  0  0  0  0  0  0999 V2000
  150.3210  150.4270  130.3000 C   0  0  0  0  0  0  0  0  0  0  0  0
  150.7670  150.4260  131.6500 O   0  0  0  0  0  0  0  0  0  0  0  0
  149.9210  150.7140  132.7230 C   0  0  0  0  0  0  0  0  0  0  0  0
  150.3660  150.7570  133.9030 O   0  0  0  0  0  0  0  0  0  0  0  0
  148.4820  151.0230  132.4610 C   0  0  0  0  0  0  0  0  0  0  0  0
  148.2400  152.5000  132.6010 C   0  0  0  0  0  0  0  0  0  0  0  0
  149.2970  153.4090  132.4420 C   0  0  0  0  0  0  0  0  0  0  0  0
  149.0810  154.7800  132.6050 C   0  0  0  0  0  0  0  0  0  0  0  0
  147.8040  155.2670  132.9380 C   0  0  0  0  0  0  0  0  0  0  0  0
  147.5730  156.7250  133.1070 C   0  0  0  0  0  0  0  0  0  0  0  0
  148.6670  157.6290  133.1210 C   0  0  0  0  0  0  0  0  0  0  0  0
  148.4580  159.0090  133.2920 C   0  0  0  0  0  0  0  0  0  0  0  0
  147.1500  159.4570  133.4400 C   0  0  0  0  0  0  0  0  0  0  0  0
  146.6680  160.7310  133.6450 C   0  0  0  0  0  0  0  0  0  0  0  0
  145.2840  160.5920  133.7300 C   0  0  0  0  0  0  0  0  0  0  0  0
  144.3590  161.7370  133.8630 C   0  0  0  0  0  0  0  0  0  0  0  0
  142.9530  161.5660  133.7090 N   0  0  0  0  0  0  0  0  0  0  0  0
  144.8210  162.8910  134.0690 O   0  0  0  0  0  0  0  0  0  0  0  0
  144.9260  159.2840  133.5920 N   0  0  0  0  0  0  0  0  0  0  0  0
  143.6160  158.7100  133.6990 C   0  0  0  0  0  0  0  0  0  0  0  0
  143.1380  158.0580  132.7320 O   0  0  0  0  0  0  0  0  0  0  0  0
  142.8740  158.9070  134.8730 O   0  0  0  0  0  0  0  0  0  0  0  0
  141.4620  158.7030  135.0330 C   0  0  0  0  0  0  0  0  0  0  0  0
  141.2230  157.1860  135.0560 C   0  0  0  0  0  0  0  0  0  0  0  0
  140.9790  159.3030  136.3660 C   0  0  0  0  0  0  0  0  0  0  0  0
  140.6880  159.3120  133.8480 C   0  0  0  0  0  0  0  0  0  0  0  0
  146.0790  158.6030  133.4130 C   0  0  0  0  0  0  0  0  0  0  0  0
  146.2570  157.2240  133.2630 C   0  0  0  0  0  0  0  0  0  0  0  0
  146.7510  154.3510  133.1090 C   0  0  0  0  0  0  0  0  0  0  0  0
  146.9680  152.9800  132.9460 C   0  0  0  0  0  0  0  0  0  0  0  0
  149.2212  150.4295  130.2772 H   0  0  0  0  0  0  0  0  0  0  0  0
  150.7004  151.3243  129.7892 H   0  0  0  0  0  0  0  0  0  0  0  0
  150.6963  149.5280  129.7892 H   0  0  0  0  0  0  0  0  0  0  0  0
  148.2213  150.7062  131.4404 H   0  0  0  0  0  0  0  0  0  0  0  0
  147.8583  150.4841  133.1894 H   0  0  0  0  0  0  0  0  0  0  0  0
  150.3016  153.0402  132.1875 H   0  0  0  0  0  0  0  0  0  0  0  0
  149.9159  155.4837  132.4719 H   0  0  0  0  0  0  0  0  0  0  0  0
  149.6905  157.2456  132.9966 H   0  0  0  0  0  0  0  0  0  0  0  0
  149.3034  159.7126  133.3082 H   0  0  0  0  0  0  0  0  0  0  0  0
  147.2513  161.6602  133.7247 H   0  0  0  0  0  0  0  0  0  0  0  0
  142.5390  160.6180  133.5640 H   0  0  0  0  0  0  0  0  0  0  0  0
  141.1684  156.8392  136.0985 H   0  0  0  0  0  0  0  0  0  0  0  0
  140.2775  156.9560  134.5430 H   0  0  0  0  0  0  0  0  0  0  0  0
  142.0519  156.6764  134.5430 H   0  0  0  0  0  0  0  0  0  0  0  0
  141.4271  158.7464  137.2023 H   0  0  0  0  0  0  0  0  0  0  0  0
  141.2820  160.3588  136.4240 H   0  0  0  0  0  0  0  0  0  0  0  0
  139.8828  159.2324  136.4240 H   0  0  0  0  0  0  0  0  0  0  0  0
  139.8770  159.9501  134.2289 H   0  0  0  0  0  0  0  0  0  0  0  0
  141.3726  159.9162  133.2346 H   0  0  0  0  0  0  0  0  0  0  0  0
  140.2619  158.5045  133.2346 H   0  0  0  0  0  0  0  0  0  0  0  0
  145.3939  156.5421  133.2661 H   0  0  0  0  0  0  0  0  0  0  0  0
  145.7478  154.7166  133.3733 H   0  0  0  0  0  0  0  0  0  0  0  0
  146.1369  152.2737  133.0890 H   0  0  0  0  0  0  0  0  0  0  0  0
  1  2  1  0
  2  3  1  0
  3  4  2  0
  3  5  1  0
  5  6  1  0
  6  7  2  0
  7  8  1  0
  8  9  2  0
  9 10  1  0
 10 11  2  0
 11 12  1  0
 12 13  2  0
 13 14  1  0
 14 15  2  0
 15 16  1  0
 16 17  1  0
 16 18  2  0
 15 19  1  0
 19 20  1  0
 20 21  2  0
 20 22  1  0
 22 23  1  0
 23 24  1  0
 23 25  1  0
 23 26  1  0
 19 27  1  0
 27 28  2  0
  9 29  1  0
 29 30  2  0
 30  6  1  0
 28 10  1  0
 27 13  1  0
  1 31  1  0
  1 32  1  0
  1 33  1  0
  5 34  1  0
  5 35  1  0
  7 36  1  0
  8 37  1  0
 11 38  1  0
 12 39  1  0
 14 40  1  0
 17 41  1  0
 24 42  1  0
 24 43  1  0
 24 44  1  0
 25 45  1  0
 25 46  1  0
 25 47  1  0
 26 48  1  0
 26 49  1  0
 26 50  1  0
 28 51  1  0
 29 52  1  0
 30 53  1  0
M  CHG  1  17  -1
M  END
>  <UniqueID>  (33) 
31

>  <SMILES>  (33) 
COC(=O)Cc1ccc(-c2ccc3cc(C([NH-])=O)n(C(=O)OC(C)(C)C)c3c2)cc1

>  <Energy>  (33) 
89.95632260946157

>  <Genealogy>  (33) 
COC(=O)Cc1ccc(-c2ccc3cc(C([NH-])=O)n(C(=O)OC(C)(C)C)c3c2)cc1 (protonated)
COC(=O)Cc1ccc(-c2ccc3cc(C([NH-])=O)n(C(=O)OC(C)(C)C)c3c2)cc1 (3D coordinates assigned)
COC(=O)Cc1ccc(-c2ccc3cc(C([NH-])=O)n(C(=O)OC(C)(C)C)c3c2)cc1 (optimized conformer: 89.95632260946157 kcal/mol)

>  <smiles>  (33) 
COC(=O)Cc1ccc(-c2ccc3cc(C(N)=O)n(C(=O)OC(C)(C)C)c3c2)cc1

>  <score_type>  (33) 
oracle

>  <origin>  (33) 
adg

>  <m_score__min__energy>  (33) 
-8.9399999999999995

>  <m_primary>  (33) 
energy

$$$$
34:0
     RDKit          3D

 32 33  0  0  0  0  0  0  0  0999 V2000
  148.1230  156.7680  134.2900 C   0  0  0  0  0  0  0  0  0  0  0  0
  147.5090  155.4440  134.1590 N   0  0  0  0  0  0  0  0  0  0  0  0
  147.2330  154.6300  135.3470 C   0  0  0  0  0  0  0  0  0  0  0  0
  147.1110  154.9750  132.8570 C   0  0  0  0  0  0  0  0  0  0  0  0
  147.0920  155.7670  131.8760 O   0  0  0  0  0  0  0  0  0  0  0  0
  146.7210  153.6070  132.6570 N   0  0  0  0  0  0  0  0  0  0  0  0
  145.4660  153.1250  132.4490 C   0  0  0  0  0  0  0  0  0  0  0  0
  144.2270  153.9360  132.4920 C   0  0  0  0  0  0  0  0  0  0  0  0
  144.1530  155.2070  131.8410 N   0  0  0  0  0  0  0  0  0  0  0  0
  143.2120  153.5040  133.1020 O   0  0  0  0  0  0  0  0  0  0  0  0
  145.5100  151.7470  132.2300 C   0  0  0  0  0  0  0  0  0  0  0  0
  146.8440  151.4070  132.3010 C   0  0  0  0  0  0  0  0  0  0  0  0
  147.4680  150.1730  132.1440 C   0  0  0  0  0  0  0  0  0  0  0  0
  148.8700  150.1260  132.2450 C   0  0  0  0  0  0  0  0  0  0  0  0
  149.6140  151.3050  132.4950 C   0  0  0  0  0  0  0  0  0  0  0  0
  151.0400  151.2460  132.5890 N   0  0  0  0  0  0  0  0  0  0  0  0
  148.9480  152.5400  132.6470 C   0  0  0  0  0  0  0  0  0  0  0  0
  147.5530  152.5520  132.5540 C   0  0  0  0  0  0  0  0  0  0  0  0
  148.2376  157.0152  135.3557 H   0  0  0  0  0  0  0  0  0  0  0  0
  149.1109  156.7635  133.8063 H   0  0  0  0  0  0  0  0  0  0  0  0
  147.4814  157.5192  133.8063 H   0  0  0  0  0  0  0  0  0  0  0  0
  147.4338  155.2222  136.2520 H   0  0  0  0  0  0  0  0  0  0  0  0
  146.1785  154.3170  135.3401 H   0  0  0  0  0  0  0  0  0  0  0  0
  147.8797  153.7402  135.3401 H   0  0  0  0  0  0  0  0  0  0  0  0
  144.9830  155.6360  131.3790 H   0  0  0  0  0  0  0  0  0  0  0  0
  143.2610  155.7490  131.8560 H   0  0  0  0  0  0  0  0  0  0  0  0
  144.6601  151.0748  132.0408 H   0  0  0  0  0  0  0  0  0  0  0  0
  146.8828  149.2626  131.9470 H   0  0  0  0  0  0  0  0  0  0  0  0
  149.3932  149.1654  132.1288 H   0  0  0  0  0  0  0  0  0  0  0  0
  151.5020  150.7210  133.3640 H   0  0  0  0  0  0  0  0  0  0  0  0
  151.6420  151.7260  131.8840 H   0  0  0  0  0  0  0  0  0  0  0  0
  149.5105  153.4668  132.8334 H   0  0  0  0  0  0  0  0  0  0  0  0
  1  2  1  0
  2  3  1  0
  2  4  1  0
  4  5  2  0
  4  6  1  0
  6  7  1  0
  7  8  1  0
  8  9  1  0
  8 10  2  0
  7 11  2  0
 11 12  1  0
 12 13  2  0
 13 14  1  0
 14 15  2  0
 15 16  1  0
 15 17  1  0
 17 18  2  0
 18  6  1  0
 18 12  1  0
  1 19  1  0
  1 20  1  0
  1 21  1  0
  3 22  1  0
  3 23  1  0
  3 24  1  0
  9 25  1  0
  9 26  1  0
 11 27  1  0
 13 28  1  0
 14 29  1  0
 16 30  1  0
 16 31  1  0
 17 32  1  0
M  END
>  <UniqueID>  (34) 
32

>  <SMILES>  (34) 
CN(C)C(=O)n1c(C(N)=O)cc2ccc(N)cc21

>  <Energy>  (34) 
68.0979459940463

>  <Genealogy>  (34) 
CN(C)C(=O)n1c(C(N)=O)cc2ccc(N)cc21 (3D coordinates assigned)
CN(C)C(=O)n1c(C(N)=O)cc2ccc(N)cc21 (optimized conformer: 68.0979459940463 kcal/mol)

>  <smiles>  (34) 
CN(C)C(=O)n1c(C(N)=O)cc2ccc(N)cc21

>  <score_type>  (34) 
oracle

>  <origin>  (34) 
adg

>  <m_score__min__energy>  (34) 
-5.9000000000000004

>  <m_primary>  (34) 
energy

$$$$
35:0
     RDKit          3D

 56 59  0  0  0  0  0  0  0  0999 V2000
  144.0930  155.0590  135.1070 C   0  0  0  0  0  0  0  0  0  0  0  0
  143.7800  155.0790  133.6010 C   0  0  0  0  0  0  0  0  0  0  0  0
  142.2830  155.3510  133.3610 C   0  0  0  0  0  0  0  0  0  0  0  0
  144.1360  153.7110  133.0000 C   0  0  0  0  0  0  0  0  0  0  0  0
  144.5920  156.0580  132.9350 O   0  0  0  0  0  0  0  0  0  0  0  0
  145.6600  156.7740  133.4970 C   0  0  0  0  0  0  0  0  0  0  0  0
  146.6790  156.1790  133.9420 O   0  0  0  0  0  0  0  0  0  0  0  0
  145.5810  158.2040  133.5840 N   0  0  0  0  0  0  0  0  0  0  0  0
  146.6100  159.0940  133.5360 C   0  0  0  0  0  0  0  0  0  0  0  0
  148.0460  158.7380  133.5220 C   0  0  0  0  0  0  0  0  0  0  0  0
  148.5720  157.7790  134.4430 N   0  0  0  0  0  0  0  0  0  0  0  0
  148.8160  159.2530  132.6700 O   0  0  0  0  0  0  0  0  0  0  0  0
  146.1240  160.4000  133.5920 C   0  0  0  0  0  0  0  0  0  0  0  0
  144.7540  160.2780  133.6710 C   0  0  0  0  0  0  0  0  0  0  0  0
  143.7660  161.2580  133.7290 C   0  0  0  0  0  0  0  0  0  0  0  0
  142.4260  160.8390  133.7590 C   0  0  0  0  0  0  0  0  0  0  0  0
  142.1020  159.4610  133.7230 C   0  0  0  0  0  0  0  0  0  0  0  0
  140.7310  159.0480  133.7130 N   0  0  0  0  0  0  0  0  0  0  0  0
  140.0950  158.5970  134.9630 C   0  0  0  0  0  0  0  0  0  0  0  0
  139.1400  157.3940  134.7140 C   0  0  0  0  0  0  0  0  0  0  0  0
  138.2100  157.5550  133.5630 N   0  0  0  0  0  0  0  0  0  0  0  0
  138.5730  158.6900  132.7000 C   0  0  2  0  0  0  0  0  0  0  0  0
  137.9710  158.6810  131.3040 C   0  0  0  0  0  0  0  0  0  0  0  0
  138.9500  159.5240  130.4680 C   0  0  0  0  0  0  0  0  0  0  0  0
  140.2020  159.7440  131.3350 C   0  0  0  0  0  0  0  0  0  0  0  0
  140.0620  158.7220  132.4530 C   0  0  1  0  0  0  0  0  0  0  0  0
  143.1270  158.4950  133.6680 C   0  0  0  0  0  0  0  0  0  0  0  0
  144.4540  158.9410  133.6610 C   0  0  0  0  0  0  0  0  0  0  0  0
  143.1544  155.1189  135.6774 H   0  0  0  0  0  0  0  0  0  0  0  0
  144.6170  154.1256  135.3602 H   0  0  0  0  0  0  0  0  0  0  0  0
  144.7315  155.9182  135.3602 H   0  0  0  0  0  0  0  0  0  0  0  0
  141.7677  155.4446  134.3283 H   0  0  0  0  0  0  0  0  0  0  0  0
  142.1667  156.2850  132.7916 H   0  0  0  0  0  0  0  0  0  0  0  0
  141.8456  154.5176  132.7916 H   0  0  0  0  0  0  0  0  0  0  0  0
  144.3232  152.9917  133.8109 H   0  0  0  0  0  0  0  0  0  0  0  0
  143.3007  153.3546  132.3793 H   0  0  0  0  0  0  0  0  0  0  0  0
  145.0391  153.8070  132.3793 H   0  0  0  0  0  0  0  0  0  0  0  0
  147.9800  157.3740  135.2030 H   0  0  0  0  0  0  0  0  0  0  0  0
  149.5730  157.4920  134.3830 H   0  0  0  0  0  0  0  0  0  0  0  0
  146.7104  161.3305  133.5764 H   0  0  0  0  0  0  0  0  0  0  0  0
  144.0271  162.3263  133.7506 H   0  0  0  0  0  0  0  0  0  0  0  0
  141.6215  161.5874  133.8109 H   0  0  0  0  0  0  0  0  0  0  0  0
  140.8780  158.2911  135.6725 H   0  0  0  0  0  0  0  0  0  0  0  0
  139.5027  159.4300  135.3694 H   0  0  0  0  0  0  0  0  0  0  0  0
  139.7564  156.5013  134.5320 H   0  0  0  0  0  0  0  0  0  0  0  0
  138.5076  157.3137  135.6105 H   0  0  0  0  0  0  0  0  0  0  0  0
  138.2380  156.6740  132.9980 H   0  0  0  0  0  0  0  0  0  0  0  0
  138.1821  159.5501  133.2634 H   0  0  0  0  0  0  0  0  0  0  0  0
  137.9068  157.6549  130.9130 H   0  0  0  0  0  0  0  0  0  0  0  0
  136.9461  159.0800  131.2835 H   0  0  0  0  0  0  0  0  0  0  0  0
  139.2180  158.9885  129.5453 H   0  0  0  0  0  0  0  0  0  0  0  0
  138.4967  160.4839  130.1796 H   0  0  0  0  0  0  0  0  0  0  0  0
  141.1173  159.5629  130.7525 H   0  0  0  0  0  0  0  0  0  0  0  0
  140.2794  160.7746  131.7118 H   0  0  0  0  0  0  0  0  0  0  0  0
  140.5340  157.7789  132.1402 H   0  0  0  0  0  0  0  0  0  0  0  0
  142.8909  157.4212  133.6316 H   0  0  0  0  0  0  0  0  0  0  0  0
  1  2  1  0
  2  3  1  0
  2  4  1  0
  2  5  1  0
  5  6  1  0
  6  7  2  0
  6  8  1  0
  8  9  1  0
  9 10  1  0
 10 11  1  0
 10 12  2  0
  9 13  2  0
 13 14  1  0
 14 15  2  0
 15 16  1  0
 16 17  2  0
 17 18  1  0
 18 19  1  0
 19 20  1  0
 20 21  1  0
 21 22  1  0
 22 23  1  0
 23 24  1  0
 24 25  1  0
 25 26  1  0
 17 27  1  0
 27 28  2  0
 28  8  1  0
 28 14  1  0
 26 18  1  0
 26 22  1  0
  1 29  1  0
  1 30  1  0
  1 31  1  0
  3 32  1  0
  3 33  1  0
  3 34  1  0
  4 35  1  0
  4 36  1  0
  4 37  1  0
 11 38  1  0
 11 39  1  0
 13 40  1  0
 15 41  1  0
 16 42  1  0
 19 43  1  0
 19 44  1  0
 20 45  1  0
 20 46  1  0
 21 47  1  0
 22 48  1  1
 23 49  1  0
 23 50  1  0
 24 51  1  0
 24 52  1  0
 25 53  1  0
 25 54  1  0
 26 55  1  6
 27 56  1  0
M  END
>  <UniqueID>  (35) 
33

>  <SMILES>  (35) 
CC(C)(C)OC(=O)n1c(C(N)=O)cc2ccc(N3CCN[C@@H]4CCC[C@H]43)cc21

>  <Energy>  (35) 
111.97917578449547

>  <Genealogy>  (35) 
CC(C)(C)OC(=O)n1c(C(N)=O)cc2ccc(N3CCN[C@@H]4CCC[C@H]43)cc21 (3D coordinates assigned)
CC(C)(C)OC(=O)n1c(C(N)=O)cc2ccc(N3CCN[C@@H]4CCC[C@H]43)cc21 (nonaromatic ring conformer: 111.97917578449547 kcal/mol)

>  <smiles>  (35) 
CC(C)(C)OC(=O)n1c(C(N)=O)cc2ccc(N3CCN[C@@H]4CCC[C@H]43)cc21

>  <score_type>  (35) 
oracle

>  <origin>  (35) 
adg

>  <m_score__min__energy>  (35) 
-9.8000000000000007

>  <m_primary>  (35) 
energy

$$$$
36:0
     RDKit          3D

 33 35  0  0  0  0  0  0  0  0999 V2000
  149.8140  159.0840  131.8330 N   0  0  0  0  0  0  0  0  0  0  0  0
  148.8980  158.1610  132.4160 C   0  0  0  0  0  0  0  0  0  0  0  0
  149.2490  156.9610  132.5780 O   0  0  0  0  0  0  0  0  0  0  0  0
  147.5290  158.5790  132.7850 C   0  0  0  0  0  0  0  0  0  0  0  0
  147.1540  159.9090  132.9640 C   0  0  0  0  0  0  0  0  0  0  0  0
  145.8470  159.8650  133.3920 C   0  0  0  0  0  0  0  0  0  0  0  0
  144.9740  160.8990  133.7140 C   0  0  0  0  0  0  0  0  0  0  0  0
  143.6680  160.5620  134.1060 C   0  0  0  0  0  0  0  0  0  0  0  0
  143.2530  159.2040  134.1650 C   0  0  0  0  0  0  0  0  0  0  0  0
  141.8670  158.8590  134.5710 C   0  0  0  0  0  0  0  0  0  0  0  0
  141.5060  158.8340  135.9320 C   0  0  0  0  0  0  0  0  0  0  0  0
  140.2010  158.5090  136.3120 C   0  0  0  0  0  0  0  0  0  0  0  0
  139.2430  158.2040  135.3410 C   0  0  0  0  0  0  0  0  0  0  0  0
  139.5900  158.2230  133.9890 C   0  0  0  0  0  0  0  0  0  0  0  0
  140.8940  158.5490  133.6030 C   0  0  0  0  0  0  0  0  0  0  0  0
  144.1730  158.1820  133.8280 C   0  0  0  0  0  0  0  0  0  0  0  0
  145.4710  158.5500  133.4570 C   0  0  0  0  0  0  0  0  0  0  0  0
  146.4910  157.7470  133.0810 N   0  0  0  0  0  0  0  0  0  0  0  0
  146.4400  156.3170  132.9490 C   0  0  0  0  0  0  0  0  0  0  0  0
  147.1760  155.6590  131.9200 N   0  0  0  0  0  0  0  0  0  0  0  0
  145.7110  155.6410  133.7230 O   0  0  0  0  0  0  0  0  0  0  0  0
  150.6850  159.3640  132.3350 H   0  0  0  0  0  0  0  0  0  0  0  0
  147.7716  160.8040  132.7983 H   0  0  0  0  0  0  0  0  0  0  0  0
  145.2968  161.9493  133.6632 H   0  0  0  0  0  0  0  0  0  0  0  0
  142.9576  161.3590  134.3706 H   0  0  0  0  0  0  0  0  0  0  0  0
  142.2559  159.0718  136.7008 H   0  0  0  0  0  0  0  0  0  0  0  0
  139.9273  158.4932  137.3773 H   0  0  0  0  0  0  0  0  0  0  0  0
  138.2162  157.9491  135.6420 H   0  0  0  0  0  0  0  0  0  0  0  0
  138.8360  157.9810  133.2255 H   0  0  0  0  0  0  0  0  0  0  0  0
  141.1607  158.5632  132.5359 H   0  0  0  0  0  0  0  0  0  0  0  0
  143.8745  157.1237  133.8571 H   0  0  0  0  0  0  0  0  0  0  0  0
  147.1480  154.6190  131.8330 H   0  0  0  0  0  0  0  0  0  0  0  0
  147.7240  156.2100  131.2230 H   0  0  0  0  0  0  0  0  0  0  0  0
  1  2  1  0
  2  3  2  0
  2  4  1  0
  4  5  2  0
  5  6  1  0
  6  7  2  0
  7  8  1  0
  8  9  2  0
  9 10  1  0
 10 11  2  0
 11 12  1  0
 12 13  2  0
 13 14  1  0
 14 15  2  0
  9 16  1  0
 16 17  2  0
 17 18  1  0
 18 19  1  0
 19 20  1  0
 19 21  2  0
 18  4  1  0
 17  6  1  0
 15 10  1  0
  1 22  1  0
  5 23  1  0
  7 24  1  0
  8 25  1  0
 11 26  1  0
 12 27  1  0
 13 28  1  0
 14 29  1  0
 15 30  1  0
 16 31  1  0
 20 32  1  0
 20 33  1  0
M  CHG  1   1  -1
M  END
>  <UniqueID>  (36) 
34

>  <SMILES>  (36) 
[NH-]C(=O)c1cc2ccc(-c3ccccc3)cc2n1C(N)=O

>  <Energy>  (36) 
79.67024493828833

>  <Genealogy>  (36) 
[NH-]C(=O)c1cc2ccc(-c3ccccc3)cc2n1C(N)=O (protonated)
[NH-]C(=O)c1cc2ccc(-c3ccccc3)cc2n1C(N)=O (3D coordinates assigned)
[NH-]C(=O)c1cc2ccc(-c3ccccc3)cc2n1C(N)=O (optimized conformer: 79.67024493828833 kcal/mol)

>  <smiles>  (36) 
NC(=O)c1cc2ccc(-c3ccccc3)cc2n1C(N)=O

>  <score_type>  (36) 
oracle

>  <origin>  (36) 
adg

>  <m_score__min__energy>  (36) 
-7.7800000000000002

>  <m_primary>  (36) 
energy

$$$$
37:0
     RDKit          3D

 60 63  0  0  0  0  0  0  0  0999 V2000
  140.4520  152.1060  132.6430 C   0  0  0  0  0  0  0  0  0  0  0  0
  141.3710  151.8050  133.7560 N   0  0  0  0  0  0  0  0  0  0  0  0
  142.5720  151.1360  133.2280 C   0  0  0  0  0  0  0  0  0  0  0  0
  141.7610  153.0350  134.4790 C   0  0  0  0  0  0  0  0  0  0  0  0
  141.7100  154.2660  133.5600 C   0  0  0  0  0  0  0  0  0  0  0  0
  143.0860  154.8460  133.3610 C   0  0  0  0  0  0  0  0  0  0  0  0
  144.1600  154.0070  132.9730 C   0  0  0  0  0  0  0  0  0  0  0  0
  145.4580  154.5290  132.8200 C   0  0  0  0  0  0  0  0  0  0  0  0
  145.6470  155.8870  133.0610 C   0  0  0  0  0  0  0  0  0  0  0  0
  146.7880  156.6570  132.9800 C   0  0  0  0  0  0  0  0  0  0  0  0
  146.3850  157.9510  133.3080 C   0  0  0  0  0  0  0  0  0  0  0  0
  147.2810  159.1250  133.3120 C   0  0  0  0  0  0  0  0  0  0  0  0
  147.0470  160.2020  132.4080 N   0  0  0  0  0  0  0  0  0  0  0  0
  148.2530  159.1890  134.1100 O   0  0  0  0  0  0  0  0  0  0  0  0
  145.0560  157.9730  133.6050 N   0  0  0  0  0  0  0  0  0  0  0  0
  144.2460  159.1080  133.9430 C   0  0  0  0  0  0  0  0  0  0  0  0
  144.7880  160.2460  133.9930 O   0  0  0  0  0  0  0  0  0  0  0  0
  142.8320  158.9720  134.2020 N   0  0  0  0  0  0  0  0  0  0  0  0
  142.4000  158.3960  135.4870 C   0  0  0  0  0  0  0  0  0  0  0  0
  140.8730  158.4260  135.6410 C   0  0  0  0  0  0  0  0  0  0  0  0
  140.1880  157.8300  134.4030 C   0  0  0  0  0  0  0  0  0  0  0  0
  140.7110  158.4290  133.0650 C   0  0  1  0  0  0  0  0  0  0  0  0
  139.5870  158.9950  132.2180 C   0  0  0  0  0  0  0  0  0  0  0  0
  138.2940  158.4380  132.2660 C   0  0  0  0  0  0  0  0  0  0  0  0
  137.2580  158.9860  131.5050 C   0  0  0  0  0  0  0  0  0  0  0  0
  137.5010  160.0890  130.6840 C   0  0  0  0  0  0  0  0  0  0  0  0
  138.7810  160.6470  130.6220 C   0  0  0  0  0  0  0  0  0  0  0  0
  139.8190  160.1060  131.3840 C   0  0  0  0  0  0  0  0  0  0  0  0
  141.8210  159.4840  133.2640 C   0  0  0  0  0  0  0  0  0  0  0  0
  144.6160  156.7090  133.4370 C   0  0  0  0  0  0  0  0  0  0  0  0
  143.3190  156.2180  133.6050 C   0  0  0  0  0  0  0  0  0  0  0  0
  139.4795  152.4245  133.0464 H   0  0  0  0  0  0  0  0  0  0  0  0
  140.8750  152.9125  132.0261 H   0  0  0  0  0  0  0  0  0  0  0  0
  140.3159  151.2055  132.0261 H   0  0  0  0  0  0  0  0  0  0  0  0
  143.1959  150.7885  134.0647 H   0  0  0  0  0  0  0  0  0  0  0  0
  142.2716  150.2753  132.6125 H   0  0  0  0  0  0  0  0  0  0  0  0
  143.1457  151.8445  132.6125 H   0  0  0  0  0  0  0  0  0  0  0  0
  141.0710  153.1887  135.3217 H   0  0  0  0  0  0  0  0  0  0  0  0
  142.7938  152.9131  134.8373 H   0  0  0  0  0  0  0  0  0  0  0  0
  141.2995  153.9696  132.5835 H   0  0  0  0  0  0  0  0  0  0  0  0
  141.0717  155.0289  134.0297 H   0  0  0  0  0  0  0  0  0  0  0  0
  143.9775  152.9378  132.7897 H   0  0  0  0  0  0  0  0  0  0  0  0
  146.2969  153.8841  132.5194 H   0  0  0  0  0  0  0  0  0  0  0  0
  147.8011  156.3217  132.7132 H   0  0  0  0  0  0  0  0  0  0  0  0
  146.2910  160.9020  132.5890 H   0  0  0  0  0  0  0  0  0  0  0  0
  142.7429  157.3523  135.5425 H   0  0  0  0  0  0  0  0  0  0  0  0
  142.8370  158.9995  136.2962 H   0  0  0  0  0  0  0  0  0  0  0  0
  140.5884  157.8403  136.5276 H   0  0  0  0  0  0  0  0  0  0  0  0
  140.5506  159.4717  135.7531 H   0  0  0  0  0  0  0  0  0  0  0  0
  140.3661  156.7446  134.3934 H   0  0  0  0  0  0  0  0  0  0  0  0
  139.1173  158.0724  134.4733 H   0  0  0  0  0  0  0  0  0  0  0  0
  141.1617  157.5841  132.5237 H   0  0  0  0  0  0  0  0  0  0  0  0
  138.0985  157.5657  132.9070 H   0  0  0  0  0  0  0  0  0  0  0  0
  136.2501  158.5480  131.5528 H   0  0  0  0  0  0  0  0  0  0  0  0
  136.6844  160.5191  130.0855 H   0  0  0  0  0  0  0  0  0  0  0  0
  138.9712  161.5137  129.9719 H   0  0  0  0  0  0  0  0  0  0  0  0
  140.8239  160.5504  131.3325 H   0  0  0  0  0  0  0  0  0  0  0  0
  142.2970  159.7004  132.2962 H   0  0  0  0  0  0  0  0  0  0  0  0
  141.3786  160.4042  133.6732 H   0  0  0  0  0  0  0  0  0  0  0  0
  142.5004  156.8823  133.9191 H   0  0  0  0  0  0  0  0  0  0  0  0
  1  2  1  0
  2  3  1  0
  2  4  1  0
  4  5  1  0
  5  6  1  0
  6  7  2  0
  7  8  1  0
  8  9  2  0
  9 10  1  0
 10 11  2  0
 11 12  1  0
 12 13  1  0
 12 14  2  0
 11 15  1  0
 15 16  1  0
 16 17  2  0
 16 18  1  0
 18 19  1  0
 19 20  1  0
 20 21  1  0
 21 22  1  0
 22 23  1  0
 23 24  2  0
 24 25  1  0
 25 26  2  0
 26 27  1  0
 27 28  2  0
 22 29  1  0
 15 30  1  0
 30 31  2  0
 31  6  1  0
 30  9  1  0
 29 18  1  0
 28 23  1  0
  1 32  1  0
  1 33  1  0
  1 34  1  0
  3 35  1  0
  3 36  1  0
  3 37  1  0
  4 38  1  0
  4 39  1  0
  5 40  1  0
  5 41  1  0
  7 42  1  0
  8 43  1  0
 10 44  1  0
 13 45  1  0
 19 46  1  0
 19 47  1  0
 20 48  1  0
 20 49  1  0
 21 50  1  0
 21 51  1  0
 22 52  1  6
 24 53  1  0
 25 54  1  0
 26 55  1  0
 27 56  1  0
 28 57  1  0
 29 58  1  0
 29 59  1  0
 31 60  1  0
M  CHG  1  13  -1
M  END
>  <UniqueID>  (37) 
35

>  <SMILES>  (37) 
CN(C)CCc1ccc2cc(C([NH-])=O)n(C(=O)N3CCC[C@@H](c4ccccc4)C3)c2c1

>  <Energy>  (37) 
103.78399764077582

>  <Genealogy>  (37) 
CN(C)CCc1ccc2cc(C([NH-])=O)n(C(=O)N3CCCC(c4ccccc4)C3)c2c1 (protonated)
CN(C)CCc1ccc2cc(C([NH-])=O)n(C(=O)N3CCC[C@@H](c4ccccc4)C3)c2c1 (chirality)
CN(C)CCc1ccc2cc(C([NH-])=O)n(C(=O)N3CCC[C@@H](c4ccccc4)C3)c2c1 (3D coordinates assigned)
CN(C)CCc1ccc2cc(C([NH-])=O)n(C(=O)N3CCC[C@@H](c4ccccc4)C3)c2c1 (nonaromatic ring conformer: 103.78399764077582 kcal/mol)

>  <smiles>  (37) 
CN(C)CCc1ccc2cc(C(N)=O)n(C(=O)N3CCCC(c4ccccc4)C3)c2c1

>  <score_type>  (37) 
oracle

>  <origin>  (37) 
adg

>  <m_score__min__energy>  (37) 
-10.42

>  <m_primary>  (37) 
energy

$$$$
38:0
     RDKit          3D

 51 53  0  0  0  0  0  0  0  0999 V2000
  142.2620  153.5390  133.9270 C   0  0  0  0  0  0  0  0  0  0  0  0
  142.3280  155.0120  134.3590 C   0  0  0  0  0  0  0  0  0  0  0  0
  141.5200  155.8600  133.3580 C   0  0  0  0  0  0  0  0  0  0  0  0
  141.7450  155.1410  135.7790 C   0  0  0  0  0  0  0  0  0  0  0  0
  143.7100  155.3940  134.3490 O   0  0  0  0  0  0  0  0  0  0  0  0
  144.4300  155.8860  133.2490 C   0  0  0  0  0  0  0  0  0  0  0  0
  144.4080  155.2860  132.1410 O   0  0  0  0  0  0  0  0  0  0  0  0
  145.1860  157.1000  133.3850 N   0  0  0  0  0  0  0  0  0  0  0  0
  146.5200  157.2780  133.1710 C   0  0  0  0  0  0  0  0  0  0  0  0
  147.5080  156.2060  132.9370 C   0  0  0  0  0  0  0  0  0  0  0  0
  147.3200  155.2390  131.9030 N   0  0  0  0  0  0  0  0  0  0  0  0
  148.5100  156.1120  133.6950 O   0  0  0  0  0  0  0  0  0  0  0  0
  146.8500  158.6290  133.2370 C   0  0  0  0  0  0  0  0  0  0  0  0
  145.6690  159.2800  133.5100 C   0  0  0  0  0  0  0  0  0  0  0  0
  145.4080  160.6390  133.6540 C   0  0  0  0  0  0  0  0  0  0  0  0
  144.0780  161.0350  133.8790 C   0  0  0  0  0  0  0  0  0  0  0  0
  143.0340  160.0760  133.9330 C   0  0  0  0  0  0  0  0  0  0  0  0
  141.6160  160.5390  134.1960 C   0  0  0  0  0  0  0  0  0  0  0  0
  140.5900  159.4290  134.0300 C   0  0  0  0  0  0  0  0  0  0  0  0
  140.0150  159.2310  132.7560 C   0  0  0  0  0  0  0  0  0  0  0  0
  140.3950  159.9900  131.6960 F   0  0  0  0  0  0  0  0  0  0  0  0
  139.0270  158.2660  132.5620 C   0  0  0  0  0  0  0  0  0  0  0  0
  138.6030  157.4780  133.6270 C   0  0  0  0  0  0  0  0  0  0  0  0
  139.1620  157.6480  134.8920 C   0  0  0  0  0  0  0  0  0  0  0  0
  140.1540  158.6230  135.1230 C   0  0  0  0  0  0  0  0  0  0  0  0
  140.7540  158.7570  136.5130 C   0  0  0  0  0  0  0  0  0  0  0  0
  140.6010  160.0560  136.9620 F   0  0  0  0  0  0  0  0  0  0  0  0
  142.1060  158.4590  136.5210 F   0  0  0  0  0  0  0  0  0  0  0  0
  140.1290  157.8920  137.3900 F   0  0  0  0  0  0  0  0  0  0  0  0
  143.3460  158.7020  133.8070 C   0  0  0  0  0  0  0  0  0  0  0  0
  144.6800  158.3350  133.5960 C   0  0  0  0  0  0  0  0  0  0  0  0
  142.2332  152.8962  134.8192 H   0  0  0  0  0  0  0  0  0  0  0  0
  141.3555  153.3733  133.3263 H   0  0  0  0  0  0  0  0  0  0  0  0
  143.1500  153.2929  133.3263 H   0  0  0  0  0  0  0  0  0  0  0  0
  140.8629  156.5496  133.9082 H   0  0  0  0  0  0  0  0  0  0  0  0
  142.2103  156.4375  132.7256 H   0  0  0  0  0  0  0  0  0  0  0  0
  140.9099  155.1984  132.7256 H   0  0  0  0  0  0  0  0  0  0  0  0
  142.5397  154.9652  136.5190 H   0  0  0  0  0  0  0  0  0  0  0  0
  141.3336  156.1519  135.9160 H   0  0  0  0  0  0  0  0  0  0  0  0
  140.9455  154.3981  135.9160 H   0  0  0  0  0  0  0  0  0  0  0  0
  148.0510  154.5150  131.7250 H   0  0  0  0  0  0  0  0  0  0  0  0
  146.4230  155.1820  131.3720 H   0  0  0  0  0  0  0  0  0  0  0  0
  147.8438  159.0801  133.1000 H   0  0  0  0  0  0  0  0  0  0  0  0
  146.2177  161.3811  133.5937 H   0  0  0  0  0  0  0  0  0  0  0  0
  143.8440  162.1012  134.0148 H   0  0  0  0  0  0  0  0  0  0  0  0
  141.5568  160.9204  135.2261 H   0  0  0  0  0  0  0  0  0  0  0  0
  141.3811  161.3186  133.4564 H   0  0  0  0  0  0  0  0  0  0  0  0
  138.5824  158.1278  131.5654 H   0  0  0  0  0  0  0  0  0  0  0  0
  137.8236  156.7179  133.4700 H   0  0  0  0  0  0  0  0  0  0  0  0
  138.8242  157.0117  135.7233 H   0  0  0  0  0  0  0  0  0  0  0  0
  142.5570  157.9384  133.8735 H   0  0  0  0  0  0  0  0  0  0  0  0
  1  2  1  0
  2  3  1  0
  2  4  1  0
  2  5  1  0
  5  6  1  0
  6  7  2  0
  6  8  1  0
  8  9  1  0
  9 10  1  0
 10 11  1  0
 10 12  2  0
  9 13  2  0
 13 14  1  0
 14 15  2  0
 15 16  1  0
 16 17  2  0
 17 18  1  0
 18 19  1  0
 19 20  2  0
 20 21  1  0
 20 22  1  0
 22 23  2  0
 23 24  1  0
 24 25  2  0
 25 26  1  0
 26 27  1  0
 26 28  1  0
 26 29  1  0
 17 30  1  0
 30 31  2  0
 31  8  1  0
 31 14  1  0
 25 19  1  0
  1 32  1  0
  1 33  1  0
  1 34  1  0
  3 35  1  0
  3 36  1  0
  3 37  1  0
  4 38  1  0
  4 39  1  0
  4 40  1  0
 11 41  1  0
 11 42  1  0
 13 43  1  0
 15 44  1  0
 16 45  1  0
 18 46  1  0
 18 47  1  0
 22 48  1  0
 23 49  1  0
 24 50  1  0
 30 51  1  0
M  END
>  <UniqueID>  (38) 
36

>  <SMILES>  (38) 
CC(C)(C)OC(=O)n1c(C(N)=O)cc2ccc(Cc3c(F)cccc3C(F)(F)F)cc21

>  <Energy>  (38) 
90.62671054746619

>  <Genealogy>  (38) 
CC(C)(C)OC(=O)n1c(C(N)=O)cc2ccc(Cc3c(F)cccc3C(F)(F)F)cc21 (3D coordinates assigned)
CC(C)(C)OC(=O)n1c(C(N)=O)cc2ccc(Cc3c(F)cccc3C(F)(F)F)cc21 (optimized conformer: 90.62671054746619 kcal/mol)

>  <smiles>  (38) 
CC(C)(C)OC(=O)n1c(C(N)=O)cc2ccc(Cc3c(F)cccc3C(F)(F)F)cc21

>  <score_type>  (38) 
oracle

>  <origin>  (38) 
adg

>  <m_score__min__energy>  (38) 
-8.8499999999999996

>  <m_primary>  (38) 
energy

$$$$
39:0
     RDKit          3D

 52 54  0  0  0  0  0  0  0  0999 V2000
  138.7450  160.6460  130.9290 C   0  0  0  0  0  0  0  0  0  0  0  0
  138.1240  159.6190  131.5100 C   0  0  0  0  0  0  0  0  0  0  0  0
  138.6750  158.2240  131.4090 C   0  0  0  0  0  0  0  0  0  0  0  0
  138.7840  157.6160  132.7350 N   0  0  0  0  0  0  0  0  0  0  0  0
  139.7500  157.9980  133.7310 C   0  0  0  0  0  0  0  0  0  0  0  0
  141.0410  158.4400  133.3880 C   0  0  0  0  0  0  0  0  0  0  0  0
  141.9490  158.8060  134.3970 C   0  0  0  0  0  0  0  0  0  0  0  0
  143.3140  159.2760  134.0530 C   0  0  0  0  0  0  0  0  0  0  0  0
  143.6160  160.6630  134.0550 C   0  0  0  0  0  0  0  0  0  0  0  0
  144.9020  161.1200  133.7200 C   0  0  0  0  0  0  0  0  0  0  0  0
  145.8670  160.1740  133.3940 C   0  0  0  0  0  0  0  0  0  0  0  0
  147.1750  160.3430  133.0030 C   0  0  0  0  0  0  0  0  0  0  0  0
  147.6660  159.0560  132.7920 C   0  0  0  0  0  0  0  0  0  0  0  0
  149.0710  158.7710  132.4340 C   0  0  0  0  0  0  0  0  0  0  0  0
  149.5150  157.4340  132.2170 N   0  0  0  0  0  0  0  0  0  0  0  0
  149.9020  159.7160  132.3680 O   0  0  0  0  0  0  0  0  0  0  0  0
  146.6970  158.1280  133.0340 N   0  0  0  0  0  0  0  0  0  0  0  0
  146.7730  156.7090  132.8320 C   0  0  0  0  0  0  0  0  0  0  0  0
  146.9810  156.2530  131.6760 O   0  0  0  0  0  0  0  0  0  0  0  0
  146.6370  155.8490  133.9330 O   0  0  0  0  0  0  0  0  0  0  0  0
  147.1140  154.4980  134.0210 C   0  0  0  0  0  0  0  0  0  0  0  0
  147.3710  154.1060  135.4880 C   0  0  0  0  0  0  0  0  0  0  0  0
  146.1120  153.5270  133.3670 C   0  0  0  0  0  0  0  0  0  0  0  0
  148.4420  154.4360  133.2500 C   0  0  0  0  0  0  0  0  0  0  0  0
  145.6010  158.8290  133.4020 C   0  0  0  0  0  0  0  0  0  0  0  0
  144.3250  158.3460  133.7130 C   0  0  0  0  0  0  0  0  0  0  0  0
  141.5400  158.7220  135.7380 C   0  0  0  0  0  0  0  0  0  0  0  0
  140.2530  158.2780  136.0400 C   0  0  0  0  0  0  0  0  0  0  0  0
  139.3980  157.9310  135.0440 N   0  0  0  0  0  0  0  0  0  0  0  0
  138.3275  161.6602  131.0132 H   0  0  0  0  0  0  0  0  0  0  0  0
  139.6748  160.4790  130.3655 H   0  0  0  0  0  0  0  0  0  0  0  0
  137.1947  159.7952  132.0715 H   0  0  0  0  0  0  0  0  0  0  0  0
  138.0039  157.6145  130.7859 H   0  0  0  0  0  0  0  0  0  0  0  0
  139.6767  158.2703  130.9568 H   0  0  0  0  0  0  0  0  0  0  0  0
  138.1290  156.8350  132.9640 H   0  0  0  0  0  0  0  0  0  0  0  0
  141.3397  158.4992  132.3310 H   0  0  0  0  0  0  0  0  0  0  0  0
  142.8339  161.3889  134.3220 H   0  0  0  0  0  0  0  0  0  0  0  0
  145.1380  162.1944  133.7159 H   0  0  0  0  0  0  0  0  0  0  0  0
  147.7179  161.2921  132.8825 H   0  0  0  0  0  0  0  0  0  0  0  0
  148.9030  156.7350  131.7410 H   0  0  0  0  0  0  0  0  0  0  0  0
  146.8905  154.8388  136.1529 H   0  0  0  0  0  0  0  0  0  0  0  0
  146.9519  153.1071  135.6795 H   0  0  0  0  0  0  0  0  0  0  0  0
  148.4541  154.0920  135.6795 H   0  0  0  0  0  0  0  0  0  0  0  0
  145.5575  152.9896  134.1504 H   0  0  0  0  0  0  0  0  0  0  0  0
  145.4066  154.0941  132.7419 H   0  0  0  0  0  0  0  0  0  0  0  0
  146.6566  152.8041  132.7419 H   0  0  0  0  0  0  0  0  0  0  0  0
  149.2786  154.3970  133.9632 H   0  0  0  0  0  0  0  0  0  0  0  0
  148.4571  153.5362  132.6175 H   0  0  0  0  0  0  0  0  0  0  0  0
  148.5409  155.3305  132.6175 H   0  0  0  0  0  0  0  0  0  0  0  0
  144.1124  157.2669  133.6936 H   0  0  0  0  0  0  0  0  0  0  0  0
  142.2311  159.0049  136.5457 H   0  0  0  0  0  0  0  0  0  0  0  0
  139.9293  158.2086  137.0890 H   0  0  0  0  0  0  0  0  0  0  0  0
  1  2  2  0
  2  3  1  0
  3  4  1  0
  4  5  1  0
  5  6  2  0
  6  7  1  0
  7  8  1  0
  8  9  2  0
  9 10  1  0
 10 11  2  0
 11 12  1  0
 12 13  2  0
 13 14  1  0
 14 15  1  0
 14 16  2  0
 13 17  1  0
 17 18  1  0
 18 19  2  0
 18 20  1  0
 20 21  1  0
 21 22  1  0
 21 23  1  0
 21 24  1  0
 17 25  1  0
 25 26  2  0
  7 27  2  0
 27 28  1  0
 28 29  2  0
 29  5  1  0
 26  8  1  0
 25 11  1  0
  1 30  1  0
  1 31  1  0
  2 32  1  0
  3 33  1  0
  3 34  1  0
  4 35  1  0
  6 36  1  0
  9 37  1  0
 10 38  1  0
 12 39  1  0
 15 40  1  0
 22 41  1  0
 22 42  1  0
 22 43  1  0
 23 44  1  0
 23 45  1  0
 23 46  1  0
 24 47  1  0
 24 48  1  0
 24 49  1  0
 26 50  1  0
 27 51  1  0
 28 52  1  0
M  CHG  1  15  -1
M  END
>  <UniqueID>  (39) 
37

>  <SMILES>  (39) 
C=CCNc1cc(-c2ccc3cc(C([NH-])=O)n(C(=O)OC(C)(C)C)c3c2)ccn1

>  <Energy>  (39) 
90.37172560708709

>  <Genealogy>  (39) 
C=CCNc1cc(-c2ccc3cc(C([NH-])=O)n(C(=O)OC(C)(C)C)c3c2)ccn1 (protonated)
C=CCNc1cc(-c2ccc3cc(C([NH-])=O)n(C(=O)OC(C)(C)C)c3c2)ccn1 (3D coordinates assigned)
C=CCNc1cc(-c2ccc3cc(C([NH-])=O)n(C(=O)OC(C)(C)C)c3c2)ccn1 (optimized conformer: 90.37172560708709 kcal/mol)

>  <smiles>  (39) 
C=CCNc1cc(-c2ccc3cc(C(N)=O)n(C(=O)OC(C)(C)C)c3c2)ccn1

>  <score_type>  (39) 
oracle

>  <origin>  (39) 
adg

>  <m_score__min__energy>  (39) 
-9.1300000000000008

>  <m_primary>  (39) 
energy

$$$$
40:0
     RDKit          3D

 40 42  0  0  0  0  0  0  0  0999 V2000
  149.5980  152.6580  131.8120 C   0  0  0  0  0  0  0  0  0  0  0  0
  148.6640  152.2800  132.9710 C   0  0  0  0  0  0  0  0  0  0  0  0
  147.3000  151.8560  132.3920 C   0  0  0  0  0  0  0  0  0  0  0  0
  149.3000  151.1240  133.7670 C   0  0  0  0  0  0  0  0  0  0  0  0
  148.5220  153.4450  133.7980 O   0  0  0  0  0  0  0  0  0  0  0  0
  148.5090  154.7780  133.3610 C   0  0  0  0  0  0  0  0  0  0  0  0
  149.4180  155.2230  132.6090 O   0  0  0  0  0  0  0  0  0  0  0  0
  147.4310  155.6390  133.7590 N   0  0  0  0  0  0  0  0  0  0  0  0
  146.3580  155.3240  134.5380 C   0  0  0  0  0  0  0  0  0  0  0  0
  146.1610  154.0540  135.2690 C   0  0  0  0  0  0  0  0  0  0  0  0
  147.1380  153.6190  136.2120 N   0  0  0  0  0  0  0  0  0  0  0  0
  145.1560  153.3290  135.0430 O   0  0  0  0  0  0  0  0  0  0  0  0
  145.4840  156.4050  134.6290 C   0  0  0  0  0  0  0  0  0  0  0  0
  146.0610  157.4030  133.8780 C   0  0  0  0  0  0  0  0  0  0  0  0
  145.6150  158.6920  133.6100 C   0  0  0  0  0  0  0  0  0  0  0  0
  146.4010  159.5030  132.7750 C   0  0  0  0  0  0  0  0  0  0  0  0
  147.6120  159.0140  132.2160 C   0  0  0  0  0  0  0  0  0  0  0  0
  148.4180  159.8810  131.3280 C   0  0  0  0  0  0  0  0  0  0  0  0
  148.5370  161.2180  131.4950 N   0  0  0  0  0  0  0  0  0  0  0  0
  149.3320  161.7890  130.5510 C   0  0  0  0  0  0  0  0  0  0  0  0
  149.8600  160.9110  129.6130 C   0  0  0  0  0  0  0  0  0  0  0  0
  149.3060  159.3690  129.9890 S   0  0  0  0  0  0  0  0  0  0  0  0
  148.0290  157.6950  132.5130 C   0  0  0  0  0  0  0  0  0  0  0  0
  147.2350  156.9170  133.3640 C   0  0  0  0  0  0  0  0  0  0  0  0
  150.5465  153.0419  132.2157 H   0  0  0  0  0  0  0  0  0  0  0  0
  149.7952  151.7689  131.1951 H   0  0  0  0  0  0  0  0  0  0  0  0
  149.1213  153.4340  131.1951 H   0  0  0  0  0  0  0  0  0  0  0  0
  146.6035  151.6395  133.2154 H   0  0  0  0  0  0  0  0  0  0  0  0
  146.8949  152.6706  131.7737 H   0  0  0  0  0  0  0  0  0  0  0  0
  147.4281  150.9553  131.7737 H   0  0  0  0  0  0  0  0  0  0  0  0
  149.1931  151.3183  134.8444 H   0  0  0  0  0  0  0  0  0  0  0  0
  148.7936  150.1813  133.5124 H   0  0  0  0  0  0  0  0  0  0  0  0
  150.3674  151.0472  133.5124 H   0  0  0  0  0  0  0  0  0  0  0  0
  148.0340  153.1850  135.8960 H   0  0  0  0  0  0  0  0  0  0  0  0
  144.5349  156.4509  135.1831 H   0  0  0  0  0  0  0  0  0  0  0  0
  144.6739  159.0660  134.0394 H   0  0  0  0  0  0  0  0  0  0  0  0
  146.0749  160.5294  132.5511 H   0  0  0  0  0  0  0  0  0  0  0  0
  149.5419  162.8686  130.5316 H   0  0  0  0  0  0  0  0  0  0  0  0
  150.5214  161.1768  128.7752 H   0  0  0  0  0  0  0  0  0  0  0  0
  148.9573  157.2895  132.0844 H   0  0  0  0  0  0  0  0  0  0  0  0
  1  2  1  0
  2  3  1  0
  2  4  1  0
  2  5  1  0
  5  6  1  0
  6  7  2  0
  6  8  1  0
  8  9  1  0
  9 10  1  0
 10 11  1  0
 10 12  2  0
  9 13  2  0
 13 14  1  0
 14 15  2  0
 15 16  1  0
 16 17  2  0
 17 18  1  0
 18 19  2  0
 19 20  1  0
 20 21  2  0
 21 22  1  0
 17 23  1  0
 23 24  2  0
 24  8  1  0
 24 14  1  0
 22 18  1  0
  1 25  1  0
  1 26  1  0
  1 27  1  0
  3 28  1  0
  3 29  1  0
  3 30  1  0
  4 31  1  0
  4 32  1  0
  4 33  1  0
 11 34  1  0
 13 35  1  0
 15 36  1  0
 16 37  1  0
 20 38  1  0
 21 39  1  0
 23 40  1  0
M  CHG  1  11  -1
M  END
>  <UniqueID>  (40) 
38

>  <SMILES>  (40) 
CC(C)(C)OC(=O)n1c(C([NH-])=O)cc2ccc(-c3nccs3)cc21

>  <Energy>  (40) 
106.64123119899128

>  <Genealogy>  (40) 
CC(C)(C)OC(=O)n1c(C([NH-])=O)cc2ccc(-c3nccs3)cc21 (protonated)
CC(C)(C)OC(=O)n1c(C([NH-])=O)cc2ccc(-c3nccs3)cc21 (3D coordinates assigned)
CC(C)(C)OC(=O)n1c(C([NH-])=O)cc2ccc(-c3nccs3)cc21 (optimized conformer: 106.64123119899128 kcal/mol)

>  <smiles>  (40) 
CC(C)(C)OC(=O)n1c(C(N)=O)cc2ccc(-c3nccs3)cc21

>  <score_type>  (40) 
oracle

>  <origin>  (40) 
adg

>  <m_score__min__energy>  (40) 
-7.6500000000000004

>  <m_primary>  (40) 
energy

$$$$
41:0
     RDKit          3D

 37 39  0  0  0  0  0  0  0  0999 V2000
  140.8100  160.1030  136.1110 N   0  0  0  0  0  0  0  0  0  0  0  0
  141.4250  159.7790  134.8670 C   0  0  0  0  0  0  0  0  0  0  0  0
  141.6140  160.6900  134.0180 O   0  0  0  0  0  0  0  0  0  0  0  0
  141.7870  158.3850  134.5370 C   0  0  0  0  0  0  0  0  0  0  0  0
  143.0940  157.9740  134.2870 C   0  0  0  0  0  0  0  0  0  0  0  0
  142.9970  156.6480  133.9320 C   0  0  0  0  0  0  0  0  0  0  0  0
  143.9920  155.7390  133.5890 C   0  0  0  0  0  0  0  0  0  0  0  0
  143.6090  154.4210  133.2930 C   0  0  0  0  0  0  0  0  0  0  0  0
  142.2450  154.0300  133.3530 C   0  0  0  0  0  0  0  0  0  0  0  0
  141.8520  152.6300  133.0510 C   0  0  0  0  0  0  0  0  0  0  0  0
  142.8250  151.6190  132.9560 C   0  0  0  0  0  0  0  0  0  0  0  0
  142.4550  150.3010  132.6750 C   0  0  0  0  0  0  0  0  0  0  0  0
  141.1020  149.9670  132.5020 C   0  0  0  0  0  0  0  0  0  0  0  0
  140.6940  148.6300  132.1850 N   0  0  0  0  0  0  0  0  0  0  0  0
  139.9760  148.2040  131.0170 C   0  0  0  0  0  0  0  0  0  0  0  0
  140.1840  147.0450  130.5720 O   0  0  0  0  0  0  0  0  0  0  0  0
  139.0260  149.1050  130.2760 C   0  0  0  0  0  0  0  0  0  0  0  0
  139.7200  150.1910  129.7720 F   0  0  0  0  0  0  0  0  0  0  0  0
  138.0330  149.5750  131.1160 F   0  0  0  0  0  0  0  0  0  0  0  0
  138.4530  148.4170  129.2240 F   0  0  0  0  0  0  0  0  0  0  0  0
  140.1350  150.9750  132.5650 C   0  0  0  0  0  0  0  0  0  0  0  0
  140.5020  152.2940  132.8470 C   0  0  0  0  0  0  0  0  0  0  0  0
  141.2630  154.9860  133.7080 C   0  0  0  0  0  0  0  0  0  0  0  0
  141.6730  156.2960  133.9790 C   0  0  0  0  0  0  0  0  0  0  0  0
  140.9160  157.3520  134.3520 N   0  0  0  0  0  0  0  0  0  0  0  0
  139.5010  157.3440  134.5990 C   0  0  0  0  0  0  0  0  0  0  0  0
  138.7100  156.8460  133.7560 O   0  0  0  0  0  0  0  0  0  0  0  0
  138.9930  157.8600  135.7860 O   0  0  0  0  0  0  0  0  0  0  0  0
  139.8400  159.7870  136.3290 H   0  0  0  0  0  0  0  0  0  0  0  0
  144.0091  158.5803  134.3582 H   0  0  0  0  0  0  0  0  0  0  0  0
  145.0483  156.0437  133.5507 H   0  0  0  0  0  0  0  0  0  0  0  0
  144.3743  153.6827  133.0114 H   0  0  0  0  0  0  0  0  0  0  0  0
  143.8862  151.8678  133.1041 H   0  0  0  0  0  0  0  0  0  0  0  0
  143.2268  149.5219  132.5890 H   0  0  0  0  0  0  0  0  0  0  0  0
  139.0772  150.7281  132.3913 H   0  0  0  0  0  0  0  0  0  0  0  0
  139.7294  153.0745  132.9098 H   0  0  0  0  0  0  0  0  0  0  0  0
  140.2012  154.7051  133.7694 H   0  0  0  0  0  0  0  0  0  0  0  0
  1  2  1  0
  2  3  2  0
  2  4  1  0
  4  5  2  0
  5  6  1  0
  6  7  2  0
  7  8  1  0
  8  9  2  0
  9 10  1  0
 10 11  2  0
 11 12  1  0
 12 13  2  0
 13 14  1  0
 14 15  1  0
 15 16  2  0
 15 17  1  0
 17 18  1  0
 17 19  1  0
 17 20  1  0
 13 21  1  0
 21 22  2  0
  9 23  1  0
 23 24  2  0
 24 25  1  0
 25 26  1  0
 26 27  2  0
 26 28  1  0
 25  4  1  0
 24  6  1  0
 22 10  1  0
  1 29  1  0
  5 30  1  0
  7 31  1  0
  8 32  1  0
 11 33  1  0
 12 34  1  0
 21 35  1  0
 22 36  1  0
 23 37  1  0
M  CHG  3   1  -1  14  -1  28  -1
M  END
>  <UniqueID>  (41) 
39

>  <SMILES>  (41) 
[NH-]C(=O)c1cc2ccc(-c3ccc([N-]C(=O)C(F)(F)F)cc3)cc2n1C(=O)[O-]

>  <Energy>  (41) 
89.99760036598275

>  <Genealogy>  (41) 
[NH-]C(=O)c1cc2ccc(-c3ccc([N-]C(=O)C(F)(F)F)cc3)cc2n1C(=O)[O-] (protonated)
[NH-]C(=O)c1cc2ccc(-c3ccc([N-]C(=O)C(F)(F)F)cc3)cc2n1C(=O)[O-] (3D coordinates assigned)
[NH-]C(=O)c1cc2ccc(-c3ccc([N-]C(=O)C(F)(F)F)cc3)cc2n1C(=O)[O-] (optimized conformer: 89.99760036598275 kcal/mol)

>  <smiles>  (41) 
NC(=O)c1cc2ccc(-c3ccc(NC(=O)C(F)(F)F)cc3)cc2n1C(=O)O

>  <score_type>  (41) 
oracle

>  <origin>  (41) 
adg

>  <m_score__min__energy>  (41) 
-7.54

>  <m_primary>  (41) 
energy

$$$$
42:0
     RDKit          3D

 44 46  0  0  0  0  0  0  0  0999 V2000
  143.3330  159.8310  133.7150 C   0  0  0  0  0  0  0  0  0  0  0  0
  144.7440  160.2350  133.7600 N   0  0  0  0  0  0  0  0  0  0  0  0
  145.0750  161.6190  134.1250 C   0  0  0  0  0  0  0  0  0  0  0  0
  145.7940  159.2820  133.4470 C   0  0  0  0  0  0  0  0  0  0  0  0
  147.0360  159.7210  132.9080 C   0  0  0  0  0  0  0  0  0  0  0  0
  148.0640  158.8100  132.6180 C   0  0  0  0  0  0  0  0  0  0  0  0
  147.8310  157.4630  132.8640 C   0  0  0  0  0  0  0  0  0  0  0  0
  148.6670  156.3800  132.7140 C   0  0  0  0  0  0  0  0  0  0  0  0
  147.9220  155.2810  133.1300 C   0  0  0  0  0  0  0  0  0  0  0  0
  148.4260  153.8940  133.0930 C   0  0  0  0  0  0  0  0  0  0  0  0
  147.7120  152.8280  133.7220 N   0  0  0  0  0  0  0  0  0  0  0  0
  149.4780  153.6340  132.4490 O   0  0  0  0  0  0  0  0  0  0  0  0
  146.6790  155.6680  133.5320 N   0  0  0  0  0  0  0  0  0  0  0  0
  145.6710  154.8500  134.1470 C   0  0  0  0  0  0  0  0  0  0  0  0
  145.8000  154.4890  135.3490 O   0  0  0  0  0  0  0  0  0  0  0  0
  144.5510  154.4540  133.4070 O   0  0  0  0  0  0  0  0  0  0  0  0
  144.5580  153.3520  132.5050 C   0  0  0  0  0  0  0  0  0  0  0  0
  143.3220  152.5160  132.6910 C   0  0  0  0  0  0  0  0  0  0  0  0
  142.0710  153.1360  132.8390 C   0  0  0  0  0  0  0  0  0  0  0  0
  140.9140  152.3650  132.9830 C   0  0  0  0  0  0  0  0  0  0  0  0
  140.9970  150.9700  132.9750 C   0  0  0  0  0  0  0  0  0  0  0  0
  142.2380  150.3440  132.8210 C   0  0  0  0  0  0  0  0  0  0  0  0
  143.3980  151.1120  132.6780 C   0  0  0  0  0  0  0  0  0  0  0  0
  146.6390  157.0090  133.3610 C   0  0  0  0  0  0  0  0  0  0  0  0
  145.6050  157.8950  133.6810 C   0  0  0  0  0  0  0  0  0  0  0  0
  142.9501  159.7214  134.7404 H   0  0  0  0  0  0  0  0  0  0  0  0
  142.7487  160.5979  133.1855 H   0  0  0  0  0  0  0  0  0  0  0  0
  143.2432  158.8710  133.1855 H   0  0  0  0  0  0  0  0  0  0  0  0
  145.0977  161.7138  135.2207 H   0  0  0  0  0  0  0  0  0  0  0  0
  146.0611  161.8808  133.7138 H   0  0  0  0  0  0  0  0  0  0  0  0
  144.3141  162.2986  133.7138 H   0  0  0  0  0  0  0  0  0  0  0  0
  147.1931  160.7925  132.7154 H   0  0  0  0  0  0  0  0  0  0  0  0
  149.0255  159.1528  132.2081 H   0  0  0  0  0  0  0  0  0  0  0  0
  149.7030  156.3827  132.3442 H   0  0  0  0  0  0  0  0  0  0  0  0
  146.7560  152.9760  134.1150 H   0  0  0  0  0  0  0  0  0  0  0  0
  148.1070  151.8620  133.7220 H   0  0  0  0  0  0  0  0  0  0  0  0
  144.5888  153.7290  131.4721 H   0  0  0  0  0  0  0  0  0  0  0  0
  145.4432  152.7309  132.7066 H   0  0  0  0  0  0  0  0  0  0  0  0
  142.0011  154.2338  132.8417 H   0  0  0  0  0  0  0  0  0  0  0  0
  139.9373  152.8567  133.1027 H   0  0  0  0  0  0  0  0  0  0  0  0
  140.0860  150.3643  133.0899 H   0  0  0  0  0  0  0  0  0  0  0  0
  142.3019  149.2459  132.8123 H   0  0  0  0  0  0  0  0  0  0  0  0
  144.3723  150.6165  132.5550 H   0  0  0  0  0  0  0  0  0  0  0  0
  144.6614  157.5231  134.1068 H   0  0  0  0  0  0  0  0  0  0  0  0
  1  2  1  0
  2  3  1  0
  2  4  1  0
  4  5  2  0
  5  6  1  0
  6  7  2  0
  7  8  1  0
  8  9  2  0
  9 10  1  0
 10 11  1  0
 10 12  2  0
  9 13  1  0
 13 14  1  0
 14 15  2  0
 14 16  1  0
 16 17  1  0
 17 18  1  0
 18 19  2  0
 19 20  1  0
 20 21  2  0
 21 22  1  0
 22 23  2  0
 13 24  1  0
 24 25  2  0
 25  4  1  0
 24  7  1  0
 23 18  1  0
  1 26  1  0
  1 27  1  0
  1 28  1  0
  3 29  1  0
  3 30  1  0
  3 31  1  0
  5 32  1  0
  6 33  1  0
  8 34  1  0
 11 35  1  0
 11 36  1  0
 17 37  1  0
 17 38  1  0
 19 39  1  0
 20 40  1  0
 21 41  1  0
 22 42  1  0
 23 43  1  0
 25 44  1  0
M  END
>  <UniqueID>  (42) 
40

>  <SMILES>  (42) 
CN(C)c1ccc2cc(C(N)=O)n(C(=O)OCc3ccccc3)c2c1

>  <Energy>  (42) 
84.83245002225566

>  <Genealogy>  (42) 
CN(C)c1ccc2cc(C(N)=O)n(C(=O)OCc3ccccc3)c2c1 (3D coordinates assigned)
CN(C)c1ccc2cc(C(N)=O)n(C(=O)OCc3ccccc3)c2c1 (optimized conformer: 84.83245002225566 kcal/mol)

>  <smiles>  (42) 
CN(C)c1ccc2cc(C(N)=O)n(C(=O)OCc3ccccc3)c2c1

>  <score_type>  (42) 
oracle

>  <origin>  (42) 
adg

>  <m_score__min__energy>  (42) 
-8.0500000000000007

>  <m_primary>  (42) 
energy

$$$$
43:0
     RDKit          3D

 61 65  0  0  0  0  0  0  0  0999 V2000
  148.4340  158.2090  134.3390 C   0  0  0  0  0  0  0  0  0  0  0  0
  148.3680  157.5010  132.9740 C   0  0  0  0  0  0  0  0  0  0  0  0
  148.4890  155.9750  133.1430 C   0  0  0  0  0  0  0  0  0  0  0  0
  149.5310  158.0000  132.1020 C   0  0  0  0  0  0  0  0  0  0  0  0
  147.1530  157.8400  132.2910 O   0  0  0  0  0  0  0  0  0  0  0  0
  146.3210  158.9370  132.5620 C   0  0  0  0  0  0  0  0  0  0  0  0
  146.6240  160.0950  132.1710 O   0  0  0  0  0  0  0  0  0  0  0  0
  145.0860  158.7200  133.2640 N   0  0  0  0  0  0  0  0  0  0  0  0
  144.2510  159.6470  133.8120 C   0  0  0  0  0  0  0  0  0  0  0  0
  144.5020  161.1020  133.8940 C   0  0  0  0  0  0  0  0  0  0  0  0
  145.8210  161.5800  134.1490 N   0  0  0  0  0  0  0  0  0  0  0  0
  143.5710  161.9300  133.7090 O   0  0  0  0  0  0  0  0  0  0  0  0
  143.1370  159.0270  134.3750 C   0  0  0  0  0  0  0  0  0  0  0  0
  143.3210  157.6790  134.1580 C   0  0  0  0  0  0  0  0  0  0  0  0
  142.5220  156.5960  134.5110 C   0  0  0  0  0  0  0  0  0  0  0  0
  142.9550  155.3100  134.1410 C   0  0  0  0  0  0  0  0  0  0  0  0
  144.1570  155.1340  133.4110 C   0  0  0  0  0  0  0  0  0  0  0  0
  144.6200  153.7850  133.0190 C   0  0  0  0  0  0  0  0  0  0  0  0
  145.8890  153.5000  132.6300 N   0  0  0  0  0  0  0  0  0  0  0  0
  145.9780  152.2080  132.3210 N   0  0  0  0  0  0  0  0  0  0  0  0
  147.1740  151.5280  131.8080 C   0  0  2  0  0  0  0  0  0  0  0  0
  147.3610  150.1450  132.4870 C   0  0  0  0  0  0  0  0  0  0  0  0
  148.8370  149.7490  132.4770 C   0  0  0  0  0  0  0  0  0  0  0  0
  149.6950  150.8260  133.1580 C   0  0  0  0  0  0  0  0  0  0  0  0
  149.0200  152.2050  133.1070 C   0  0  0  0  0  0  0  0  0  0  0  0
  148.3190  152.3770  131.8890 O   0  0  0  0  0  0  0  0  0  0  0  0
  144.7570  151.6690  132.4950 C   0  0  0  0  0  0  0  0  0  0  0  0
  144.3820  150.3920  132.2300 N   0  0  0  0  0  0  0  0  0  0  0  0
  143.0740  150.0370  132.4140 C   0  0  0  0  0  0  0  0  0  0  0  0
  142.1250  150.9910  132.8480 C   0  0  0  0  0  0  0  0  0  0  0  0
  142.5260  152.3140  133.1010 C   0  0  0  0  0  0  0  0  0  0  0  0
  143.8750  152.6170  132.9300 C   0  0  0  0  0  0  0  0  0  0  0  0
  144.9450  156.2580  133.0820 C   0  0  0  0  0  0  0  0  0  0  0  0
  144.5030  157.5220  133.4850 C   0  0  0  0  0  0  0  0  0  0  0  0
  148.3643  157.4619  135.1433 H   0  0  0  0  0  0  0  0  0  0  0  0
  149.3867  158.7522  134.4246 H   0  0  0  0  0  0  0  0  0  0  0  0
  147.5982  158.9189  134.4246 H   0  0  0  0  0  0  0  0  0  0  0  0
  148.5088  155.7252  134.2141 H   0  0  0  0  0  0  0  0  0  0  0  0
  147.6270  155.4840  132.6678 H   0  0  0  0  0  0  0  0  0  0  0  0
  149.4176  155.6260  132.6678 H   0  0  0  0  0  0  0  0  0  0  0  0
  150.3492  158.3511  132.7480 H   0  0  0  0  0  0  0  0  0  0  0  0
  149.8922  157.1777  131.4670 H   0  0  0  0  0  0  0  0  0  0  0  0
  149.1840  158.8284  131.4670 H   0  0  0  0  0  0  0  0  0  0  0  0
  146.5170  161.6770  133.3750 H   0  0  0  0  0  0  0  0  0  0  0  0
  142.2907  159.5111  134.8844 H   0  0  0  0  0  0  0  0  0  0  0  0
  141.5812  156.7410  135.0622 H   0  0  0  0  0  0  0  0  0  0  0  0
  142.3546  154.4319  134.4211 H   0  0  0  0  0  0  0  0  0  0  0  0
  146.6740  154.1840  132.5730 H   0  0  0  0  0  0  0  0  0  0  0  0
  147.0370  151.3165  130.7373 H   0  0  0  0  0  0  0  0  0  0  0  0
  147.0062  150.1995  133.5268 H   0  0  0  0  0  0  0  0  0  0  0  0
  146.7827  149.3912  131.9326 H   0  0  0  0  0  0  0  0  0  0  0  0
  148.9588  148.7973  133.0150 H   0  0  0  0  0  0  0  0  0  0  0  0
  149.1668  149.6433  131.4329 H   0  0  0  0  0  0  0  0  0  0  0  0
  149.8522  150.5445  134.2097 H   0  0  0  0  0  0  0  0  0  0  0  0
  150.6527  150.8924  132.6209 H   0  0  0  0  0  0  0  0  0  0  0  0
  148.3131  152.2917  133.9453 H   0  0  0  0  0  0  0  0  0  0  0  0
  149.7967  152.9806  133.1793 H   0  0  0  0  0  0  0  0  0  0  0  0
  142.7578  149.0009  132.2228 H   0  0  0  0  0  0  0  0  0  0  0  0
  141.0740  150.6980  132.9875 H   0  0  0  0  0  0  0  0  0  0  0  0
  141.8038  153.0794  133.4211 H   0  0  0  0  0  0  0  0  0  0  0  0
  145.8846  156.1423  132.5218 H   0  0  0  0  0  0  0  0  0  0  0  0
  1  2  1  0
  2  3  1  0
  2  4  1  0
  2  5  1  0
  5  6  1  0
  6  7  2  0
  6  8  1  0
  8  9  1  0
  9 10  1  0
 10 11  1  0
 10 12  2  0
  9 13  2  0
 13 14  1  0
 14 15  2  0
 15 16  1  0
 16 17  2  0
 17 18  1  0
 18 19  2  0
 19 20  1  0
 20 21  1  0
 21 22  1  0
 22 23  1  0
 23 24  1  0
 24 25  1  0
 25 26  1  0
 20 27  1  0
 27 28  2  0
 28 29  1  0
 29 30  2  0
 30 31  1  0
 31 32  2  0
 17 33  1  0
 33 34  2  0
 34  8  1  0
 34 14  1  0
 32 18  1  0
 26 21  1  0
 32 27  1  0
  1 35  1  0
  1 36  1  0
  1 37  1  0
  3 38  1  0
  3 39  1  0
  3 40  1  0
  4 41  1  0
  4 42  1  0
  4 43  1  0
 11 44  1  0
 13 45  1  0
 15 46  1  0
 16 47  1  0
 19 48  1  0
 21 49  1  6
 22 50  1  0
 22 51  1  0
 23 52  1  0
 23 53  1  0
 24 54  1  0
 24 55  1  0
 25 56  1  0
 25 57  1  0
 29 58  1  0
 30 59  1  0
 31 60  1  0
 33 61  1  0
M  CHG  2  11  -1  19   1
M  END
>  <UniqueID>  (43) 
41

>  <SMILES>  (43) 
CC(C)(C)OC(=O)n1c(C([NH-])=O)cc2ccc(-c3[nH+]n([C@@H]4CCCCO4)c4ncccc34)cc21

>  <Energy>  (43) 
152.26472132682778

>  <Genealogy>  (43) 
CC(C)(C)OC(=O)n1c(C([NH-])=O)cc2ccc(-c3[nH+]n(C4CCCCO4)c4ncccc34)cc21 (protonated)
CC(C)(C)OC(=O)n1c(C([NH-])=O)cc2ccc(-c3[nH+]n([C@@H]4CCCCO4)c4ncccc34)cc21 (chirality)
CC(C)(C)OC(=O)n1c(C([NH-])=O)cc2ccc(-c3[nH+]n([C@@H]4CCCCO4)c4ncccc34)cc21 (3D coordinates assigned)
CC(C)(C)OC(=O)n1c(C([NH-])=O)cc2ccc(-c3[nH+]n([C@@H]4CCCCO4)c4ncccc34)cc21 (nonaromatic ring conformer: 152.26472132682778 kcal/mol)

>  <smiles>  (43) 
CC(C)(C)OC(=O)n1c(C(N)=O)cc2ccc(-c3nn(C4CCCCO4)c4ncccc34)cc21

>  <score_type>  (43) 
oracle

>  <origin>  (43) 
adg

>  <m_score__min__energy>  (43) 
-9.9900000000000002

>  <m_primary>  (43) 
energy

$$$$
44:0
     RDKit          3D

 53 55  0  0  0  0  0  0  0  0999 V2000
  141.5670  158.6880  137.7230 C   0  0  0  0  0  0  0  0  0  0  0  0
  140.6900  157.5330  137.4610 N   0  0  0  0  0  0  0  0  0  0  0  0
  139.4860  157.9060  136.6770 C   0  0  0  0  0  0  0  0  0  0  0  0
  139.6330  157.6270  135.1680 C   0  0  0  0  0  0  0  0  0  0  0  0
  141.0450  157.7610  134.7720 N   0  0  0  0  0  0  0  0  0  0  0  0
  141.2070  157.7530  133.3010 C   0  0  0  0  0  0  0  0  0  0  0  0
  141.2690  159.1900  132.7630 C   0  0  0  0  0  0  0  0  0  0  0  0
  141.6260  160.2260  133.8450 C   0  0  0  0  0  0  0  0  0  0  0  0
  143.0490  160.1070  134.4200 C   0  0  0  0  0  0  0  0  0  0  0  0
  144.1400  160.2130  133.3490 C   0  0  0  0  0  0  0  0  0  0  0  0
  145.2440  159.2270  133.6200 C   0  0  0  0  0  0  0  0  0  0  0  0
  146.5960  159.6040  133.4290 C   0  0  0  0  0  0  0  0  0  0  0  0
  147.6350  158.6880  133.6630 C   0  0  0  0  0  0  0  0  0  0  0  0
  147.2910  157.4040  134.0740 C   0  0  0  0  0  0  0  0  0  0  0  0
  148.0920  156.3330  134.3950 C   0  0  0  0  0  0  0  0  0  0  0  0
  147.2170  155.3080  134.7490 C   0  0  0  0  0  0  0  0  0  0  0  0
  147.6600  153.9400  135.0920 C   0  0  0  0  0  0  0  0  0  0  0  0
  147.3360  153.3890  136.3660 N   0  0  0  0  0  0  0  0  0  0  0  0
  148.3540  153.2660  134.2850 O   0  0  0  0  0  0  0  0  0  0  0  0
  145.9240  155.7300  134.6530 N   0  0  0  0  0  0  0  0  0  0  0  0
  144.7340  155.0030  135.0010 C   0  0  0  0  0  0  0  0  0  0  0  0
  143.8430  154.7900  134.1370 O   0  0  0  0  0  0  0  0  0  0  0  0
  144.5420  154.5480  136.3010 O   0  0  0  0  0  0  0  0  0  0  0  0
  145.9860  157.0140  134.2370 C   0  0  0  0  0  0  0  0  0  0  0  0
  144.9320  157.9100  134.0230 C   0  0  0  0  0  0  0  0  0  0  0  0
  141.8520  156.6880  135.3950 C   0  0  0  0  0  0  0  0  0  0  0  0
  141.4280  156.4070  136.8570 C   0  0  0  0  0  0  0  0  0  0  0  0
  141.6737  158.8285  138.8088 H   0  0  0  0  0  0  0  0  0  0  0  0
  142.5563  158.5057  137.2779 H   0  0  0  0  0  0  0  0  0  0  0  0
  141.1256  159.5919  137.2779 H   0  0  0  0  0  0  0  0  0  0  0  0
  138.6292  157.3303  137.0571 H   0  0  0  0  0  0  0  0  0  0  0  0
  139.3413  158.9899  136.7963 H   0  0  0  0  0  0  0  0  0  0  0  0
  139.2878  156.6056  134.9500 H   0  0  0  0  0  0  0  0  0  0  0  0
  139.0269  158.3510  134.6037 H   0  0  0  0  0  0  0  0  0  0  0  0
  142.1382  157.2280  133.0415 H   0  0  0  0  0  0  0  0  0  0  0  0
  140.3457  157.2390  132.8493 H   0  0  0  0  0  0  0  0  0  0  0  0
  142.0309  159.2345  131.9709 H   0  0  0  0  0  0  0  0  0  0  0  0
  140.2670  159.4422  132.3858 H   0  0  0  0  0  0  0  0  0  0  0  0
  141.5191  161.2285  133.4051 H   0  0  0  0  0  0  0  0  0  0  0  0
  140.9402  160.0401  134.6847 H   0  0  0  0  0  0  0  0  0  0  0  0
  143.1989  160.9128  135.1536 H   0  0  0  0  0  0  0  0  0  0  0  0
  143.1354  159.1112  134.8793 H   0  0  0  0  0  0  0  0  0  0  0  0
  143.7006  160.0021  132.3629 H   0  0  0  0  0  0  0  0  0  0  0  0
  144.5592  161.2298  133.3685 H   0  0  0  0  0  0  0  0  0  0  0  0
  146.8347  160.6242  133.0941 H   0  0  0  0  0  0  0  0  0  0  0  0
  148.6875  158.9768  133.5256 H   0  0  0  0  0  0  0  0  0  0  0  0
  149.1911  156.2939  134.3762 H   0  0  0  0  0  0  0  0  0  0  0  0
  146.3770  153.4920  136.7670 H   0  0  0  0  0  0  0  0  0  0  0  0
  143.8873  157.5962  134.1651 H   0  0  0  0  0  0  0  0  0  0  0  0
  141.7285  155.7662  134.8076 H   0  0  0  0  0  0  0  0  0  0  0  0
  142.9007  157.0197  135.4068 H   0  0  0  0  0  0  0  0  0  0  0  0
  140.7838  155.5155  136.8717 H   0  0  0  0  0  0  0  0  0  0  0  0
  142.3445  156.2556  137.4461 H   0  0  0  0  0  0  0  0  0  0  0  0
  1  2  1  0
  2  3  1  0
  3  4  1  0
  4  5  1  0
  5  6  1  0
  6  7  1  0
  7  8  1  0
  8  9  1  0
  9 10  1  0
 10 11  1  0
 11 12  2  0
 12 13  1  0
 13 14  2  0
 14 15  1  0
 15 16  2  0
 16 17  1  0
 17 18  1  0
 17 19  2  0
 16 20  1  0
 20 21  1  0
 21 22  2  0
 21 23  1  0
 20 24  1  0
 24 25  2  0
  5 26  1  0
 26 27  1  0
 27  2  1  0
 25 11  1  0
 24 14  1  0
  1 28  1  0
  1 29  1  0
  1 30  1  0
  3 31  1  0
  3 32  1  0
  4 33  1  0
  4 34  1  0
  6 35  1  0
  6 36  1  0
  7 37  1  0
  7 38  1  0
  8 39  1  0
  8 40  1  0
  9 41  1  0
  9 42  1  0
 10 43  1  0
 10 44  1  0
 12 45  1  0
 13 46  1  0
 15 47  1  0
 18 48  1  0
 25 49  1  0
 26 50  1  0
 26 51  1  0
 27 52  1  0
 27 53  1  0
M  CHG  2  18  -1  23  -1
M  END
>  <UniqueID>  (44) 
42

>  <SMILES>  (44) 
CN1CCN(CCCCCc2ccc3cc(C([NH-])=O)n(C(=O)[O-])c3c2)CC1

>  <Energy>  (44) 
98.02509836105762

>  <Genealogy>  (44) 
CN1CCN(CCCCCc2ccc3cc(C([NH-])=O)n(C(=O)[O-])c3c2)CC1 (protonated)
CN1CCN(CCCCCc2ccc3cc(C([NH-])=O)n(C(=O)[O-])c3c2)CC1 (3D coordinates assigned)
CN1CCN(CCCCCc2ccc3cc(C([NH-])=O)n(C(=O)[O-])c3c2)CC1 (nonaromatic ring conformer: 98.02509836105762 kcal/mol)

>  <smiles>  (44) 
CN1CCN(CCCCCc2ccc3cc(C(N)=O)n(C(=O)O)c3c2)CC1

>  <score_type>  (44) 
oracle

>  <origin>  (44) 
adg

>  <m_score__min__energy>  (44) 
-8.5700000000000003

>  <m_primary>  (44) 
energy

$$$$
45:0
     RDKit          3D

 46 48  0  0  0  0  0  0  0  0999 V2000
  140.3120  158.5650  134.2070 C   0  0  0  0  0  0  0  0  0  0  0  0
  141.1600  158.6460  135.4910 C   0  0  0  0  0  0  0  0  0  0  0  0
  140.2380  158.9600  136.6780 C   0  0  0  0  0  0  0  0  0  0  0  0
  141.8740  157.3070  135.7570 C   0  0  0  0  0  0  0  0  0  0  0  0
  142.1120  159.7160  135.4030 O   0  0  0  0  0  0  0  0  0  0  0  0
  142.7080  160.2040  134.2290 C   0  0  0  0  0  0  0  0  0  0  0  0
  142.0370  160.8480  133.3800 O   0  0  0  0  0  0  0  0  0  0  0  0
  144.0970  159.9380  133.9850 N   0  0  0  0  0  0  0  0  0  0  0  0
  145.1250  160.8320  133.9230 C   0  0  0  0  0  0  0  0  0  0  0  0
  145.0480  162.2680  134.2610 C   0  0  0  0  0  0  0  0  0  0  0  0
  144.0180  163.0950  133.7250 N   0  0  0  0  0  0  0  0  0  0  0  0
  145.8750  162.7630  135.0740 O   0  0  0  0  0  0  0  0  0  0  0  0
  146.3110  160.1890  133.5730 C   0  0  0  0  0  0  0  0  0  0  0  0
  145.9770  158.8620  133.4300 C   0  0  0  0  0  0  0  0  0  0  0  0
  146.7700  157.7720  133.0780 C   0  0  0  0  0  0  0  0  0  0  0  0
  146.1520  156.5130  132.9800 C   0  0  0  0  0  0  0  0  0  0  0  0
  144.7660  156.3750  133.2230 C   0  0  0  0  0  0  0  0  0  0  0  0
  144.1420  155.0840  133.1100 C   0  0  0  0  0  0  0  0  0  0  0  0
  143.6170  154.0030  133.0180 C   0  0  0  0  0  0  0  0  0  0  0  0
  142.9940  152.7100  132.9070 C   0  0  0  0  0  0  0  0  0  0  0  0
  141.6010  152.5900  133.0050 C   0  0  0  0  0  0  0  0  0  0  0  0
  140.9970  151.3330  132.8970 C   0  0  0  0  0  0  0  0  0  0  0  0
  141.7830  150.1940  132.6900 C   0  0  0  0  0  0  0  0  0  0  0  0
  141.0230  148.6180  132.5540 Cl  0  0  0  0  0  0  0  0  0  0  0  0
  143.1730  150.3120  132.5930 C   0  0  0  0  0  0  0  0  0  0  0  0
  143.7790  151.5680  132.7010 C   0  0  0  0  0  0  0  0  0  0  0  0
  143.9910  157.4990  133.5740 C   0  0  0  0  0  0  0  0  0  0  0  0
  144.6360  158.7360  133.6840 C   0  0  0  0  0  0  0  0  0  0  0  0
  139.2499  158.4636  134.4748 H   0  0  0  0  0  0  0  0  0  0  0  0
  140.4550  159.4809  133.6148 H   0  0  0  0  0  0  0  0  0  0  0  0
  140.6257  157.6927  133.6148 H   0  0  0  0  0  0  0  0  0  0  0  0
  140.7768  158.7765  137.6193 H   0  0  0  0  0  0  0  0  0  0  0  0
  139.9279  160.0144  136.6325 H   0  0  0  0  0  0  0  0  0  0  0  0
  139.3488  158.3140  136.6325 H   0  0  0  0  0  0  0  0  0  0  0  0
  141.9597  157.1463  136.8418 H   0  0  0  0  0  0  0  0  0  0  0  0
  141.2935  156.4867  135.3096 H   0  0  0  0  0  0  0  0  0  0  0  0
  142.8786  157.3319  135.3096 H   0  0  0  0  0  0  0  0  0  0  0  0
  143.0400  162.7400  133.6290 H   0  0  0  0  0  0  0  0  0  0  0  0
  147.3029  160.6453  133.4395 H   0  0  0  0  0  0  0  0  0  0  0  0
  147.8458  157.8926  132.8829 H   0  0  0  0  0  0  0  0  0  0  0  0
  146.7506  155.6297  132.7126 H   0  0  0  0  0  0  0  0  0  0  0  0
  140.9823  153.4850  133.1670 H   0  0  0  0  0  0  0  0  0  0  0  0
  139.9037  151.2398  132.9748 H   0  0  0  0  0  0  0  0  0  0  0  0
  143.7905  149.4161  132.4316 H   0  0  0  0  0  0  0  0  0  0  0  0
  144.8725  151.6592  132.6242 H   0  0  0  0  0  0  0  0  0  0  0  0
  142.9102  157.4064  133.7562 H   0  0  0  0  0  0  0  0  0  0  0  0
  1  2  1  0
  2  3  1  0
  2  4  1  0
  2  5  1  0
  5  6  1  0
  6  7  2  0
  6  8  1  0
  8  9  1  0
  9 10  1  0
 10 11  1  0
 10 12  2  0
  9 13  2  0
 13 14  1  0
 14 15  2  0
 15 16  1  0
 16 17  2  0
 17 18  1  0
 18 19  3  0
 19 20  1  0
 20 21  2  0
 21 22  1  0
 22 23  2  0
 23 24  1  0
 23 25  1  0
 25 26  2  0
 17 27  1  0
 27 28  2  0
 28  8  1  0
 28 14  1  0
 26 20  1  0
  1 29  1  0
  1 30  1  0
  1 31  1  0
  3 32  1  0
  3 33  1  0
  3 34  1  0
  4 35  1  0
  4 36  1  0
  4 37  1  0
 11 38  1  0
 13 39  1  0
 15 40  1  0
 16 41  1  0
 21 42  1  0
 22 43  1  0
 25 44  1  0
 26 45  1  0
 27 46  1  0
M  CHG  1  11  -1
M  END
>  <UniqueID>  (45) 
43

>  <SMILES>  (45) 
CC(C)(C)OC(=O)n1c(C([NH-])=O)cc2ccc(C#Cc3ccc(Cl)cc3)cc21

>  <Energy>  (45) 
78.60944470612013

>  <Genealogy>  (45) 
CC(C)(C)OC(=O)n1c(C([NH-])=O)cc2ccc(C#Cc3ccc(Cl)cc3)cc21 (protonated)
CC(C)(C)OC(=O)n1c(C([NH-])=O)cc2ccc(C#Cc3ccc(Cl)cc3)cc21 (3D coordinates assigned)
CC(C)(C)OC(=O)n1c(C([NH-])=O)cc2ccc(C#Cc3ccc(Cl)cc3)cc21 (optimized conformer: 78.60944470612013 kcal/mol)

>  <smiles>  (45) 
CC(C)(C)OC(=O)n1c(C(N)=O)cc2ccc(C#Cc3ccc(Cl)cc3)cc21

>  <score_type>  (45) 
oracle

>  <origin>  (45) 
adg

>  <m_score__min__energy>  (45) 
-10.199999999999999

>  <m_primary>  (45) 
energy

$$$$
46:0
     RDKit          3D

 34 36  0  0  0  0  0  0  0  0999 V2000
  142.9520  149.2410  131.8700 C   0  0  0  0  0  0  0  0  0  0  0  0
  141.4830  149.4100  131.5820 C   0  0  0  0  0  0  0  0  0  0  0  0
  140.8570  148.5100  130.7020 C   0  0  0  0  0  0  0  0  0  0  0  0
  139.4920  148.6190  130.4280 C   0  0  0  0  0  0  0  0  0  0  0  0
  138.8980  147.7390  129.5850 F   0  0  0  0  0  0  0  0  0  0  0  0
  138.7380  149.6290  131.0240 C   0  0  0  0  0  0  0  0  0  0  0  0
  139.3470  150.5430  131.8850 C   0  0  0  0  0  0  0  0  0  0  0  0
  140.7220  150.4570  132.1610 C   0  0  0  0  0  0  0  0  0  0  0  0
  141.3290  151.4660  133.0590 C   0  0  0  0  0  0  0  0  0  0  0  0
  142.0570  152.5560  132.5210 C   0  0  0  0  0  0  0  0  0  0  0  0
  142.6380  153.5150  133.3680 C   0  0  0  0  0  0  0  0  0  0  0  0
  142.4590  153.3680  134.7400 C   0  0  0  0  0  0  0  0  0  0  0  0
  142.9300  154.1350  135.7800 C   0  0  0  0  0  0  0  0  0  0  0  0
  142.4520  153.5230  136.9370 C   0  0  0  0  0  0  0  0  0  0  0  0
  142.6580  154.0760  138.2910 C   0  0  0  0  0  0  0  0  0  0  0  0
  143.4480  153.3840  139.2550 N   0  0  0  0  0  0  0  0  0  0  0  0
  142.0880  155.1510  138.6200 O   0  0  0  0  0  0  0  0  0  0  0  0
  141.7210  152.4130  136.6240 N   0  0  0  0  0  0  0  0  0  0  0  0
  141.1300  151.4640  137.5250 C   0  0  0  0  0  0  0  0  0  0  0  0
  141.4100  151.4930  138.7530 O   0  0  0  0  0  0  0  0  0  0  0  0
  140.2650  150.4870  137.0480 O   0  0  0  0  0  0  0  0  0  0  0  0
  141.7320  152.3360  135.2750 C   0  0  0  0  0  0  0  0  0  0  0  0
  141.1590  151.3550  134.4570 C   0  0  0  0  0  0  0  0  0  0  0  0
  143.1126  149.2225  132.9581 H   0  0  0  0  0  0  0  0  0  0  0  0
  143.3054  148.2963  131.4311 H   0  0  0  0  0  0  0  0  0  0  0  0
  143.5107  150.0808  131.4311 H   0  0  0  0  0  0  0  0  0  0  0  0
  141.4472  147.7134  130.2254 H   0  0  0  0  0  0  0  0  0  0  0  0
  137.6607  149.7056  130.8151 H   0  0  0  0  0  0  0  0  0  0  0  0
  138.7456  151.3373  132.3514 H   0  0  0  0  0  0  0  0  0  0  0  0
  142.1684  152.6524  131.4309 H   0  0  0  0  0  0  0  0  0  0  0  0
  143.2167  154.3563  132.9588 H   0  0  0  0  0  0  0  0  0  0  0  0
  143.5521  155.0397  135.7127 H   0  0  0  0  0  0  0  0  0  0  0  0
  143.1860  152.4260  139.5750 H   0  0  0  0  0  0  0  0  0  0  0  0
  140.5910  150.5192  134.8916 H   0  0  0  0  0  0  0  0  0  0  0  0
  1  2  1  0
  2  3  2  0
  3  4  1  0
  4  5  1  0
  4  6  2  0
  6  7  1  0
  7  8  2  0
  8  9  1  0
  9 10  2  0
 10 11  1  0
 11 12  2  0
 12 13  1  0
 13 14  2  0
 14 15  1  0
 15 16  1  0
 15 17  2  0
 14 18  1  0
 18 19  1  0
 19 20  2  0
 19 21  1  0
 18 22  1  0
 22 23  2  0
  8  2  1  0
 23  9  1  0
 22 12  1  0
  1 24  1  0
  1 25  1  0
  1 26  1  0
  3 27  1  0
  6 28  1  0
  7 29  1  0
 10 30  1  0
 11 31  1  0
 13 32  1  0
 16 33  1  0
 23 34  1  0
M  CHG  2  16  -1  21  -1
M  END
>  <UniqueID>  (46) 
44

>  <SMILES>  (46) 
Cc1cc(F)ccc1-c1ccc2cc(C([NH-])=O)n(C(=O)[O-])c2c1

>  <Energy>  (46) 
83.97452221916116

>  <Genealogy>  (46) 
Cc1cc(F)ccc1-c1ccc2cc(C([NH-])=O)n(C(=O)[O-])c2c1 (protonated)
Cc1cc(F)ccc1-c1ccc2cc(C([NH-])=O)n(C(=O)[O-])c2c1 (3D coordinates assigned)
Cc1cc(F)ccc1-c1ccc2cc(C([NH-])=O)n(C(=O)[O-])c2c1 (optimized conformer: 83.97452221916116 kcal/mol)

>  <smiles>  (46) 
Cc1cc(F)ccc1-c1ccc2cc(C(N)=O)n(C(=O)O)c2c1

>  <score_type>  (46) 
oracle

>  <origin>  (46) 
adg

>  <m_score__min__energy>  (46) 
-7.46

>  <m_primary>  (46) 
energy

$$$$
47:0
     RDKit          3D

 44 46  0  0  0  0  0  0  0  0999 V2000
  140.2990  158.9180  132.2370 C   0  0  0  0  0  0  0  0  0  0  0  0
  141.1250  158.1800  133.3090 C   0  0  0  0  0  0  0  0  0  0  0  0
  140.6860  156.7080  133.3480 C   0  0  0  0  0  0  0  0  0  0  0  0
  140.8950  158.8040  134.6990 C   0  0  0  0  0  0  0  0  0  0  0  0
  142.5190  158.1970  132.9740 O   0  0  0  0  0  0  0  0  0  0  0  0
  143.5920  158.0520  133.8650 C   0  0  0  0  0  0  0  0  0  0  0  0
  143.4930  157.3180  134.8850 O   0  0  0  0  0  0  0  0  0  0  0  0
  144.8300  158.7240  133.5900 N   0  0  0  0  0  0  0  0  0  0  0  0
  145.0770  160.0650  133.5960 C   0  0  0  0  0  0  0  0  0  0  0  0
  144.0660  161.1340  133.7330 C   0  0  0  0  0  0  0  0  0  0  0  0
  142.7020  160.9030  133.3900 N   0  0  0  0  0  0  0  0  0  0  0  0
  144.4200  162.2820  134.1140 O   0  0  0  0  0  0  0  0  0  0  0  0
  146.4300  160.3120  133.3680 C   0  0  0  0  0  0  0  0  0  0  0  0
  147.0060  159.0720  133.2120 C   0  0  0  0  0  0  0  0  0  0  0  0
  148.3310  158.7260  132.9710 C   0  0  0  0  0  0  0  0  0  0  0  0
  148.6490  157.3600  132.8800 C   0  0  0  0  0  0  0  0  0  0  0  0
  147.6470  156.3670  133.0390 C   0  0  0  0  0  0  0  0  0  0  0  0
  147.9960  154.9260  132.9530 C   0  0  0  0  0  0  0  0  0  0  0  0
  149.2900  154.5200  132.5870 C   0  0  0  0  0  0  0  0  0  0  0  0
  149.6030  153.1630  132.5060 C   0  0  0  0  0  0  0  0  0  0  0  0
  148.6200  152.2150  132.7910 C   0  0  0  0  0  0  0  0  0  0  0  0
  149.0350  150.3520  132.6820 Br  0  0  0  0  0  0  0  0  0  0  0  0
  147.3680  152.6150  133.1450 N   0  0  0  0  0  0  0  0  0  0  0  0
  147.0400  153.9330  133.2310 C   0  0  0  0  0  0  0  0  0  0  0  0
  146.3110  156.7630  133.2840 C   0  0  0  0  0  0  0  0  0  0  0  0
  146.0200  158.1310  133.3500 C   0  0  0  0  0  0  0  0  0  0  0  0
  139.5647  159.5741  132.7272 H   0  0  0  0  0  0  0  0  0  0  0  0
  140.9698  159.5230  131.6094 H   0  0  0  0  0  0  0  0  0  0  0  0
  139.7730  158.1835  131.6094 H   0  0  0  0  0  0  0  0  0  0  0  0
  140.5888  156.3820  134.3941 H   0  0  0  0  0  0  0  0  0  0  0  0
  139.7168  156.6008  132.8389 H   0  0  0  0  0  0  0  0  0  0  0  0
  141.4382  156.0874  132.8389 H   0  0  0  0  0  0  0  0  0  0  0  0
  141.1638  158.0747  135.4774 H   0  0  0  0  0  0  0  0  0  0  0  0
  141.5212  159.7020  134.8060 H   0  0  0  0  0  0  0  0  0  0  0  0
  139.8358  159.0808  134.8060 H   0  0  0  0  0  0  0  0  0  0  0  0
  142.4490  160.3170  132.5650 H   0  0  0  0  0  0  0  0  0  0  0  0
  146.9308  161.2903  133.3225 H   0  0  0  0  0  0  0  0  0  0  0  0
  149.1064  159.4976  132.8551 H   0  0  0  0  0  0  0  0  0  0  0  0
  149.6878  157.0564  132.6830 H   0  0  0  0  0  0  0  0  0  0  0  0
  150.0588  155.2744  132.3636 H   0  0  0  0  0  0  0  0  0  0  0  0
  150.6159  152.8433  132.2199 H   0  0  0  0  0  0  0  0  0  0  0  0
  146.6420  151.8970  133.3600 H   0  0  0  0  0  0  0  0  0  0  0  0
  146.0193  154.2237  133.5202 H   0  0  0  0  0  0  0  0  0  0  0  0
  145.5183  156.0126  133.4196 H   0  0  0  0  0  0  0  0  0  0  0  0
  1  2  1  0
  2  3  1  0
  2  4  1  0
  2  5  1  0
  5  6  1  0
  6  7  2  0
  6  8  1  0
  8  9  1  0
  9 10  1  0
 10 11  1  0
 10 12  2  0
  9 13  2  0
 13 14  1  0
 14 15  2  0
 15 16  1  0
 16 17  2  0
 17 18  1  0
 18 19  2  0
 19 20  1  0
 20 21  2  0
 21 22  1  0
 21 23  1  0
 23 24  2  0
 17 25  1  0
 25 26  2  0
 26  8  1  0
 26 14  1  0
 24 18  1  0
  1 27  1  0
  1 28  1  0
  1 29  1  0
  3 30  1  0
  3 31  1  0
  3 32  1  0
  4 33  1  0
  4 34  1  0
  4 35  1  0
 11 36  1  0
 13 37  1  0
 15 38  1  0
 16 39  1  0
 19 40  1  0
 20 41  1  0
 23 42  1  0
 24 43  1  0
 25 44  1  0
M  CHG  2  11  -1  23   1
M  END
>  <UniqueID>  (47) 
45

>  <SMILES>  (47) 
CC(C)(C)OC(=O)n1c(C([NH-])=O)cc2ccc(-c3ccc(Br)[nH+]c3)cc21

>  <Energy>  (47) 
85.38293559374624

>  <Genealogy>  (47) 
CC(C)(C)OC(=O)n1c(C([NH-])=O)cc2ccc(-c3ccc(Br)[nH+]c3)cc21 (protonated)
CC(C)(C)OC(=O)n1c(C([NH-])=O)cc2ccc(-c3ccc(Br)[nH+]c3)cc21 (3D coordinates assigned)
CC(C)(C)OC(=O)n1c(C([NH-])=O)cc2ccc(-c3ccc(Br)[nH+]c3)cc21 (optimized conformer: 85.38293559374624 kcal/mol)

>  <smiles>  (47) 
CC(C)(C)OC(=O)n1c(C(N)=O)cc2ccc(-c3ccc(Br)nc3)cc21

>  <score_type>  (47) 
oracle

>  <origin>  (47) 
adg

>  <m_score__min__energy>  (47) 
-9

>  <m_primary>  (47) 
energy

$$$$
48:0
     RDKit          3D

 55 57  0  0  0  0  0  0  0  0999 V2000
  138.7280  148.5360  129.1370 C   0  0  0  0  0  0  0  0  0  0  0  0
  139.1050  147.9770  130.2960 C   0  0  0  0  0  0  0  0  0  0  0  0
  138.9020  146.6190  130.5090 O   0  0  0  0  0  0  0  0  0  0  0  0
  139.7180  148.8180  131.2940 N   0  0  0  0  0  0  0  0  0  0  0  0
  140.9860  148.3660  131.8240 C   0  0  0  0  0  0  0  0  0  0  0  0
  141.8880  149.4710  132.2780 C   0  0  0  0  0  0  0  0  0  0  0  0
  141.1450  150.5770  132.9880 C   0  0  0  0  0  0  0  0  0  0  0  0
  142.0890  151.6940  133.2500 C   0  0  0  0  0  0  0  0  0  0  0  0
  141.5840  152.8340  133.8150 C   0  0  0  0  0  0  0  0  0  0  0  0
  142.4520  153.8680  134.0580 C   0  0  0  0  0  0  0  0  0  0  0  0
  143.7870  153.7400  133.7350 C   0  0  0  0  0  0  0  0  0  0  0  0
  144.8390  154.6180  133.8770 C   0  0  0  0  0  0  0  0  0  0  0  0
  146.0060  154.0040  133.3920 C   0  0  0  0  0  0  0  0  0  0  0  0
  147.2740  154.6850  133.4100 C   0  0  0  0  0  0  0  0  0  0  0  0
  148.1960  154.8360  132.3590 N   0  0  0  0  0  0  0  0  0  0  0  0
  147.6210  155.2250  134.5140 O   0  0  0  0  0  0  0  0  0  0  0  0
  145.6590  152.7710  132.9630 N   0  0  0  0  0  0  0  0  0  0  0  0
  146.4760  151.7840  132.3970 C   0  0  0  0  0  0  0  0  0  0  0  0
  146.0010  150.6170  132.2370 O   0  0  0  0  0  0  0  0  0  0  0  0
  147.7790  151.9380  131.9790 O   0  0  0  0  0  0  0  0  0  0  0  0
  148.8250  151.1850  132.5240 C   0  0  0  0  0  0  0  0  0  0  0  0
  149.2980  151.9010  133.7690 C   0  0  0  0  0  0  0  0  0  0  0  0
  148.4770  149.7750  132.8520 C   0  0  0  0  0  0  0  0  0  0  0  0
  149.9780  151.1860  131.5440 C   0  0  0  0  0  0  0  0  0  0  0  0
  144.3300  152.6110  133.1680 C   0  0  0  0  0  0  0  0  0  0  0  0
  143.4290  151.5690  132.9270 C   0  0  0  0  0  0  0  0  0  0  0  0
  139.9910  151.1010  132.2000 C   0  0  0  0  0  0  0  0  0  0  0  0
  139.0630  150.0390  131.7110 C   0  0  0  0  0  0  0  0  0  0  0  0
  138.8881  149.6109  128.9671 H   0  0  0  0  0  0  0  0  0  0  0  0
  138.2586  147.9196  128.3561 H   0  0  0  0  0  0  0  0  0  0  0  0
  138.0600  146.2420  130.0570 H   0  0  0  0  0  0  0  0  0  0  0  0
  140.7866  147.7081  132.6828 H   0  0  0  0  0  0  0  0  0  0  0  0
  141.5060  147.8489  131.0041 H   0  0  0  0  0  0  0  0  0  0  0  0
  142.6375  149.0528  132.9660 H   0  0  0  0  0  0  0  0  0  0  0  0
  142.3550  149.9069  131.3825 H   0  0  0  0  0  0  0  0  0  0  0  0
  140.7427  150.1564  133.9214 H   0  0  0  0  0  0  0  0  0  0  0  0
  140.5164  152.9182  134.0661 H   0  0  0  0  0  0  0  0  0  0  0  0
  142.0832  154.8001  134.5109 H   0  0  0  0  0  0  0  0  0  0  0  0
  144.7759  155.6315  134.2999 H   0  0  0  0  0  0  0  0  0  0  0  0
  148.9510  154.0960  132.2370 H   0  0  0  0  0  0  0  0  0  0  0  0
  148.1280  155.6710  131.7250 H   0  0  0  0  0  0  0  0  0  0  0  0
  148.9420  151.3622  134.6595 H   0  0  0  0  0  0  0  0  0  0  0  0
  150.3974  151.9358  133.7766 H   0  0  0  0  0  0  0  0  0  0  0  0
  148.8987  152.9259  133.7766 H   0  0  0  0  0  0  0  0  0  0  0  0
  148.4461  149.6496  133.9444 H   0  0  0  0  0  0  0  0  0  0  0  0
  147.4920  149.5321  132.4270 H   0  0  0  0  0  0  0  0  0  0  0  0
  149.2359  149.1016  132.4270 H   0  0  0  0  0  0  0  0  0  0  0  0
  150.9290  151.1868  132.0968 H   0  0  0  0  0  0  0  0  0  0  0  0
  149.9223  150.2878  130.9114 H   0  0  0  0  0  0  0  0  0  0  0  0
  149.9208  152.0841  130.9114 H   0  0  0  0  0  0  0  0  0  0  0  0
  143.7912  150.6347  132.4733 H   0  0  0  0  0  0  0  0  0  0  0  0
  139.4211  151.7926  132.8379 H   0  0  0  0  0  0  0  0  0  0  0  0
  140.4088  151.5955  131.3106 H   0  0  0  0  0  0  0  0  0  0  0  0
  138.3627  149.7936  132.5230 H   0  0  0  0  0  0  0  0  0  0  0  0
  138.5617  150.4461  130.8205 H   0  0  0  0  0  0  0  0  0  0  0  0
  1  2  2  0
  2  3  1  0
  2  4  1  0
  4  5  1  0
  5  6  1  0
  6  7  1  0
  7  8  1  0
  8  9  2  0
  9 10  1  0
 10 11  2  0
 11 12  1  0
 12 13  2  0
 13 14  1  0
 14 15  1  0
 14 16  2  0
 13 17  1  0
 17 18  1  0
 18 19  2  0
 18 20  1  0
 20 21  1  0
 21 22  1  0
 21 23  1  0
 21 24  1  0
 17 25  1  0
 25 26  2  0
  7 27  1  0
 27 28  1  0
 28  4  1  0
 26  8  1  0
 25 11  1  0
  1 29  1  0
  1 30  1  0
  3 31  1  0
  5 32  1  0
  5 33  1  0
  6 34  1  0
  6 35  1  0
  7 36  1  0
  9 37  1  0
 10 38  1  0
 12 39  1  0
 15 40  1  0
 15 41  1  0
 22 42  1  0
 22 43  1  0
 22 44  1  0
 23 45  1  0
 23 46  1  0
 23 47  1  0
 24 48  1  0
 24 49  1  0
 24 50  1  0
 26 51  1  0
 27 52  1  0
 27 53  1  0
 28 54  1  0
 28 55  1  0
M  END
>  <smiles>  (48) 
C=C(O)N1CCC(c2ccc3cc(C(N)=O)n(C(=O)OC(C)(C)C)c3c2)CC1

>  <score_type>  (48) 
oracle

>  <origin>  (48) 
adg

>  <m_score__min__energy>  (48) 
-9.0999999999999996

>  <m_primary>  (48) 
energy

$$$$
49:0
     RDKit          3D

 51 54  0  0  0  0  0  0  0  0999 V2000
  148.2190  160.8470  131.1460 C   0  0  0  0  0  0  0  0  0  0  0  0
  148.5300  159.5380  131.7990 C   0  0  0  0  0  0  0  0  0  0  0  0
  149.7000  158.8900  131.6380 N   0  0  0  0  0  0  0  0  0  0  0  0
  149.6320  157.7960  132.3400 O   0  0  0  0  0  0  0  0  0  0  0  0
  148.4790  157.6970  132.9600 C   0  0  0  0  0  0  0  0  0  0  0  0
  148.1080  156.5540  133.8450 C   0  0  0  0  0  0  0  0  0  0  0  0
  147.7110  158.8070  132.6450 C   0  0  0  0  0  0  0  0  0  0  0  0
  146.3460  159.1350  133.1090 C   0  0  0  0  0  0  0  0  0  0  0  0
  145.9580  160.4860  133.2920 C   0  0  0  0  0  0  0  0  0  0  0  0
  144.6670  160.8090  133.7420 C   0  0  0  0  0  0  0  0  0  0  0  0
  143.7840  159.7630  133.9950 C   0  0  0  0  0  0  0  0  0  0  0  0
  142.4930  159.7890  134.4700 C   0  0  0  0  0  0  0  0  0  0  0  0
  142.1030  158.4530  134.5520 C   0  0  0  0  0  0  0  0  0  0  0  0
  140.7510  158.0210  134.9650 C   0  0  0  0  0  0  0  0  0  0  0  0
  140.1570  158.5110  136.1640 N   0  0  0  0  0  0  0  0  0  0  0  0
  140.1270  157.1750  134.2690 O   0  0  0  0  0  0  0  0  0  0  0  0
  143.1140  157.6360  134.1450 N   0  0  0  0  0  0  0  0  0  0  0  0
  143.1480  156.2010  134.1690 C   0  0  0  0  0  0  0  0  0  0  0  0
  144.0400  155.6120  134.8390 O   0  0  0  0  0  0  0  0  0  0  0  0
  142.1800  155.4480  133.4210 N   0  0  0  0  0  0  0  0  0  0  0  0
  142.2090  154.0230  133.2680 C   0  0  0  0  0  0  0  0  0  0  0  0
  143.0820  153.3290  133.8590 O   0  0  0  0  0  0  0  0  0  0  0  0
  141.2550  153.4100  132.4510 O   0  0  0  0  0  0  0  0  0  0  0  0
  140.2220  152.5770  132.9660 C   0  0  0  0  0  0  0  0  0  0  0  0
  140.4390  151.1700  132.4890 C   0  0  0  0  0  0  0  0  0  0  0  0
  139.4010  150.4720  131.8510 C   0  0  0  0  0  0  0  0  0  0  0  0
  139.6140  149.1750  131.3740 C   0  0  0  0  0  0  0  0  0  0  0  0
  140.8670  148.5710  131.5220 C   0  0  0  0  0  0  0  0  0  0  0  0
  141.9090  149.2660  132.1410 C   0  0  0  0  0  0  0  0  0  0  0  0
  141.7000  150.5640  132.6180 C   0  0  0  0  0  0  0  0  0  0  0  0
  144.1360  158.4520  133.8090 C   0  0  0  0  0  0  0  0  0  0  0  0
  145.4210  158.1010  133.3790 C   0  0  0  0  0  0  0  0  0  0  0  0
  148.0381  161.6085  131.9189 H   0  0  0  0  0  0  0  0  0  0  0  0
  149.0689  161.1553  130.5194 H   0  0  0  0  0  0  0  0  0  0  0  0
  147.3213  160.7400  130.5194 H   0  0  0  0  0  0  0  0  0  0  0  0
  148.2067  156.8581  134.8975 H   0  0  0  0  0  0  0  0  0  0  0  0
  147.0676  156.2580  133.6449 H   0  0  0  0  0  0  0  0  0  0  0  0
  148.7762  155.7034  133.6449 H   0  0  0  0  0  0  0  0  0  0  0  0
  146.6765  161.2912  133.0791 H   0  0  0  0  0  0  0  0  0  0  0  0
  144.3633  161.8559  133.8898 H   0  0  0  0  0  0  0  0  0  0  0  0
  141.8956  160.6754  134.7298 H   0  0  0  0  0  0  0  0  0  0  0  0
  139.4980  159.3210  136.1450 H   0  0  0  0  0  0  0  0  0  0  0  0
  141.4090  155.9690  132.9460 H   0  0  0  0  0  0  0  0  0  0  0  0
  140.2443  152.6003  134.0655 H   0  0  0  0  0  0  0  0  0  0  0  0
  139.2448  152.9399  132.6148 H   0  0  0  0  0  0  0  0  0  0  0  0
  138.4168  150.9472  131.7260 H   0  0  0  0  0  0  0  0  0  0  0  0
  138.7955  148.6291  130.8819 H   0  0  0  0  0  0  0  0  0  0  0  0
  141.0320  147.5487  131.1510 H   0  0  0  0  0  0  0  0  0  0  0  0
  142.8951  148.7917  132.2534 H   0  0  0  0  0  0  0  0  0  0  0  0
  142.5255  151.1121  133.0956 H   0  0  0  0  0  0  0  0  0  0  0  0
  145.7042  157.0454  133.2542 H   0  0  0  0  0  0  0  0  0  0  0  0
  1  2  1  0
  2  3  2  0
  3  4  1  0
  4  5  1  0
  5  6  1  0
  5  7  2  0
  7  8  1  0
  8  9  2  0
  9 10  1  0
 10 11  2  0
 11 12  1  0
 12 13  2  0
 13 14  1  0
 14 15  1  0
 14 16  2  0
 13 17  1  0
 17 18  1  0
 18 19  2  0
 18 20  1  0
 20 21  1  0
 21 22  2  0
 21 23  1  0
 23 24  1  0
 24 25  1  0
 25 26  2  0
 26 27  1  0
 27 28  2  0
 28 29  1  0
 29 30  2  0
 17 31  1  0
 31 32  2  0
  7  2  1  0
 32  8  1  0
 31 11  1  0
 30 25  1  0
  1 33  1  0
  1 34  1  0
  1 35  1  0
  6 36  1  0
  6 37  1  0
  6 38  1  0
  9 39  1  0
 10 40  1  0
 12 41  1  0
 15 42  1  0
 20 43  1  0
 24 44  1  0
 24 45  1  0
 26 46  1  0
 27 47  1  0
 28 48  1  0
 29 49  1  0
 30 50  1  0
 32 51  1  0
M  CHG  1  15  -1
M  END
>  <UniqueID>  (49) 
46

>  <SMILES>  (49) 
Cc1noc(C)c1-c1ccc2cc(C([NH-])=O)n(C(=O)NC(=O)OCc3ccccc3)c2c1

>  <Energy>  (49) 
125.5464887641631

>  <Genealogy>  (49) 
Cc1noc(C)c1-c1ccc2cc(C([NH-])=O)n(C(=O)NC(=O)OCc3ccccc3)c2c1 (protonated)
Cc1noc(C)c1-c1ccc2cc(C([NH-])=O)n(C(=O)NC(=O)OCc3ccccc3)c2c1 (3D coordinates assigned)
Cc1noc(C)c1-c1ccc2cc(C([NH-])=O)n(C(=O)NC(=O)OCc3ccccc3)c2c1 (optimized conformer: 125.5464887641631 kcal/mol)

>  <smiles>  (49) 
Cc1noc(C)c1-c1ccc2cc(C(N)=O)n(C(=O)NC(=O)OCc3ccccc3)c2c1

>  <score_type>  (49) 
oracle

>  <origin>  (49) 
adg

>  <m_score__min__energy>  (49) 
-10.550000000000001

>  <m_primary>  (49) 
energy

$$$$
50:0
     RDKit          3D

 55 58  0  0  0  0  0  0  0  0999 V2000
  150.4560  150.3530  130.4290 C   0  0  0  0  0  0  0  0  0  0  0  0
  149.7840  150.3100  131.6820 O   0  0  0  0  0  0  0  0  0  0  0  0
  148.8650  151.2740  132.1260 C   0  0  0  0  0  0  0  0  0  0  0  0
  147.5070  151.0610  131.8820 C   0  0  0  0  0  0  0  0  0  0  0  0
  146.5510  151.9910  132.2970 C   0  0  0  0  0  0  0  0  0  0  0  0
  146.9290  153.1690  132.9880 C   0  0  0  0  0  0  0  0  0  0  0  0
  145.9130  154.2350  133.4710 C   0  0  0  0  0  0  0  0  0  0  0  0
  146.6470  155.5300  133.9500 C   0  0  0  0  0  0  0  0  0  0  0  0
  147.0310  156.4840  132.8470 C   0  0  0  0  0  0  0  0  0  0  0  0
  147.7170  156.0760  131.8700 O   0  0  0  0  0  0  0  0  0  0  0  0
  146.6720  157.8740  132.9210 N   0  0  0  0  0  0  0  0  0  0  0  0
  147.4560  158.9710  132.6990 C   0  0  0  0  0  0  0  0  0  0  0  0
  148.9190  158.9780  132.4970 C   0  0  0  0  0  0  0  0  0  0  0  0
  149.6370  157.8040  132.1310 N   0  0  0  0  0  0  0  0  0  0  0  0
  149.5440  160.0690  132.5960 O   0  0  0  0  0  0  0  0  0  0  0  0
  146.7340  160.1390  132.9500 C   0  0  0  0  0  0  0  0  0  0  0  0
  145.4810  159.7250  133.3340 C   0  0  0  0  0  0  0  0  0  0  0  0
  144.3820  160.4660  133.7500 C   0  0  0  0  0  0  0  0  0  0  0  0
  143.2410  159.7670  134.1830 C   0  0  0  0  0  0  0  0  0  0  0  0
  143.2200  158.3500  134.1870 C   0  0  0  0  0  0  0  0  0  0  0  0
  142.0280  157.6110  134.7200 C   0  0  0  0  0  0  0  0  0  0  0  0
  144.3640  157.6320  133.7760 C   0  0  0  0  0  0  0  0  0  0  0  0
  145.4760  158.3520  133.3270 C   0  0  0  0  0  0  0  0  0  0  0  0
  144.9220  153.7460  134.5540 C   0  0  0  0  0  0  0  0  0  0  0  0
  143.7860  153.0390  133.8190 C   0  0  0  0  0  0  0  0  0  0  0  0
  143.8370  153.5280  132.3760 C   0  0  0  0  0  0  0  0  0  0  0  0
  144.9510  154.5670  132.3130 C   0  0  0  0  0  0  0  0  0  0  0  0
  148.3090  153.3720  133.2210 C   0  0  0  0  0  0  0  0  0  0  0  0
  149.2610  152.4400  132.8000 C   0  0  0  0  0  0  0  0  0  0  0  0
  151.5409  150.4224  130.5970 H   0  0  0  0  0  0  0  0  0  0  0  0
  150.2307  149.4386  129.8605 H   0  0  0  0  0  0  0  0  0  0  0  0
  150.1160  151.2312  129.8605 H   0  0  0  0  0  0  0  0  0  0  0  0
  147.1859  150.1496  131.3565 H   0  0  0  0  0  0  0  0  0  0  0  0
  145.4878  151.8060  132.0840 H   0  0  0  0  0  0  0  0  0  0  0  0
  145.9826  156.0621  134.6467 H   0  0  0  0  0  0  0  0  0  0  0  0
  147.5876  155.1990  134.4145 H   0  0  0  0  0  0  0  0  0  0  0  0
  149.2000  157.0990  131.5020 H   0  0  0  0  0  0  0  0  0  0  0  0
  150.6770  157.7820  132.2270 H   0  0  0  0  0  0  0  0  0  0  0  0
  147.0930  161.1748  132.8593 H   0  0  0  0  0  0  0  0  0  0  0  0
  144.4036  161.5658  133.7410 H   0  0  0  0  0  0  0  0  0  0  0  0
  142.3561  160.3257  134.5219 H   0  0  0  0  0  0  0  0  0  0  0  0
  142.0498  157.6245  135.8197 H   0  0  0  0  0  0  0  0  0  0  0  0
  141.1069  158.0967  134.3655 H   0  0  0  0  0  0  0  0  0  0  0  0
  142.0534  156.5700  134.3655 H   0  0  0  0  0  0  0  0  0  0  0  0
  144.3805  156.5326  133.8081 H   0  0  0  0  0  0  0  0  0  0  0  0
  145.4235  153.0470  135.2394 H   0  0  0  0  0  0  0  0  0  0  0  0
  144.5435  154.5868  135.1538 H   0  0  0  0  0  0  0  0  0  0  0  0
  143.9288  151.9490  133.8566 H   0  0  0  0  0  0  0  0  0  0  0  0
  142.8128  153.2611  134.2812 H   0  0  0  0  0  0  0  0  0  0  0  0
  144.0590  152.6906  131.6981 H   0  0  0  0  0  0  0  0  0  0  0  0
  142.8729  153.9576  132.0661 H   0  0  0  0  0  0  0  0  0  0  0  0
  145.4777  154.5037  131.3494 H   0  0  0  0  0  0  0  0  0  0  0  0
  144.5527  155.5884  132.4024 H   0  0  0  0  0  0  0  0  0  0  0  0
  148.6394  154.2816  133.7440 H   0  0  0  0  0  0  0  0  0  0  0  0
  150.3278  152.6211  132.9980 H   0  0  0  0  0  0  0  0  0  0  0  0
  1  2  1  0
  2  3  1  0
  3  4  2  0
  4  5  1  0
  5  6  2  0
  6  7  1  0
  7  8  1  0
  8  9  1  0
  9 10  2  0
  9 11  1  0
 11 12  1  0
 12 13  1  0
 13 14  1  0
 13 15  2  0
 12 16  2  0
 16 17  1  0
 17 18  2  0
 18 19  1  0
 19 20  2  0
 20 21  1  0
 20 22  1  0
 22 23  2  0
  7 24  1  0
 24 25  1  0
 25 26  1  0
 26 27  1  0
  6 28  1  0
 28 29  2  0
 29  3  1  0
 27  7  1  0
 23 11  1  0
 23 17  1  0
  1 30  1  0
  1 31  1  0
  1 32  1  0
  4 33  1  0
  5 34  1  0
  8 35  1  0
  8 36  1  0
 14 37  1  0
 14 38  1  0
 16 39  1  0
 18 40  1  0
 19 41  1  0
 21 42  1  0
 21 43  1  0
 21 44  1  0
 22 45  1  0
 24 46  1  0
 24 47  1  0
 25 48  1  0
 25 49  1  0
 26 50  1  0
 26 51  1  0
 27 52  1  0
 27 53  1  0
 28 54  1  0
 29 55  1  0
M  END
>  <UniqueID>  (50) 
47

>  <SMILES>  (50) 
COc1ccc(C2(CC(=O)n3c(C(N)=O)cc4ccc(C)cc43)CCCC2)cc1

>  <Energy>  (50) 
110.73120360603326

>  <Genealogy>  (50) 
COc1ccc(C2(CC(=O)n3c(C(N)=O)cc4ccc(C)cc43)CCCC2)cc1 (3D coordinates assigned)
COc1ccc(C2(CC(=O)n3c(C(N)=O)cc4ccc(C)cc43)CCCC2)cc1 (nonaromatic ring conformer: 110.73120360603326 kcal/mol)

>  <smiles>  (50) 
COc1ccc(C2(CC(=O)n3c(C(N)=O)cc4ccc(C)cc43)CCCC2)cc1

>  <score_type>  (50) 
oracle

>  <origin>  (50) 
adg

>  <m_score__min__energy>  (50) 
-9.6899999999999995

>  <m_primary>  (50) 
energy

$$$$
51:0
     RDKit          3D

 40 42  0  0  0  0  0  0  0  0999 V2000
  142.8070  157.4020  132.5310 N   0  0  0  0  0  0  0  0  0  0  0  0
  143.4470  156.4380  133.3650 C   0  0  0  0  0  0  0  0  0  0  0  0
  144.3580  156.8110  134.1500 O   0  0  0  0  0  0  0  0  0  0  0  0
  143.0930  155.0050  133.2840 C   0  0  0  0  0  0  0  0  0  0  0  0
  144.0280  153.9960  133.0640 C   0  0  0  0  0  0  0  0  0  0  0  0
  143.2970  152.8340  132.9680 C   0  0  0  0  0  0  0  0  0  0  0  0
  143.7180  151.5260  132.7450 C   0  0  0  0  0  0  0  0  0  0  0  0
  142.7410  150.5180  132.7070 C   0  0  0  0  0  0  0  0  0  0  0  0
  141.3740  150.8290  132.9130 C   0  0  0  0  0  0  0  0  0  0  0  0
  140.3310  149.7470  132.8400 C   0  0  0  0  0  0  0  0  0  0  0  0
  139.3890  149.9900  131.6570 C   0  0  0  0  0  0  0  0  0  0  0  0
  139.3080  148.7590  130.7510 C   0  0  0  0  0  0  0  0  0  0  0  0
  137.9870  148.5510  130.3320 O   0  0  0  0  0  0  0  0  0  0  0  0
  140.9840  152.1680  133.1310 C   0  0  0  0  0  0  0  0  0  0  0  0
  141.9750  153.1570  133.1370 C   0  0  0  0  0  0  0  0  0  0  0  0
  141.8320  154.4870  133.3270 N   0  0  0  0  0  0  0  0  0  0  0  0
  140.6040  155.1870  133.5970 C   0  0  0  0  0  0  0  0  0  0  0  0
  139.5530  154.8520  132.9880 O   0  0  0  0  0  0  0  0  0  0  0  0
  140.5590  156.3100  134.5650 C   0  0  0  0  0  0  0  0  0  0  0  0
  139.9840  157.5480  134.2010 C   0  0  0  0  0  0  0  0  0  0  0  0
  139.3340  157.8470  132.5920 Cl  0  0  0  0  0  0  0  0  0  0  0  0
  139.9760  158.6000  135.1220 C   0  0  0  0  0  0  0  0  0  0  0  0
  140.5150  158.4340  136.3560 N   0  0  0  0  0  0  0  0  0  0  0  0
  141.0720  157.2570  136.7400 C   0  0  0  0  0  0  0  0  0  0  0  0
  141.1060  156.1720  135.8600 C   0  0  0  0  0  0  0  0  0  0  0  0
  141.7880  154.6560  136.4430 Cl  0  0  0  0  0  0  0  0  0  0  0  0
  142.1000  157.1110  131.8210 H   0  0  0  0  0  0  0  0  0  0  0  0
  145.1197  154.1050  132.9839 H   0  0  0  0  0  0  0  0  0  0  0  0
  144.7828  151.2894  132.6030 H   0  0  0  0  0  0  0  0  0  0  0  0
  143.0398  149.4768  132.5155 H   0  0  0  0  0  0  0  0  0  0  0  0
  140.8273  148.7735  132.7137 H   0  0  0  0  0  0  0  0  0  0  0  0
  139.7439  149.7550  133.7702 H   0  0  0  0  0  0  0  0  0  0  0  0
  138.3839  150.2201  132.0402 H   0  0  0  0  0  0  0  0  0  0  0  0
  139.7814  150.8312  131.0668 H   0  0  0  0  0  0  0  0  0  0  0  0
  139.9483  148.9138  129.8700 H   0  0  0  0  0  0  0  0  0  0  0  0
  139.6486  147.8771  131.3134 H   0  0  0  0  0  0  0  0  0  0  0  0
  137.4970  148.1790  131.1110 H   0  0  0  0  0  0  0  0  0  0  0  0
  139.9274  152.4280  133.2922 H   0  0  0  0  0  0  0  0  0  0  0  0
  139.5306  159.5668  134.8448 H   0  0  0  0  0  0  0  0  0  0  0  0
  141.4987  157.1569  137.7489 H   0  0  0  0  0  0  0  0  0  0  0  0
  1  2  1  0
  2  3  2  0
  2  4  1  0
  4  5  2  0
  5  6  1  0
  6  7  2  0
  7  8  1  0
  8  9  2  0
  9 10  1  0
 10 11  1  0
 11 12  1  0
 12 13  1  0
  9 14  1  0
 14 15  2  0
 15 16  1  0
 16 17  1  0
 17 18  2  0
 17 19  1  0
 19 20  2  0
 20 21  1  0
 20 22  1  0
 22 23  2  0
 23 24  1  0
 24 25  2  0
 25 26  1  0
 16  4  1  0
 25 19  1  0
 15  6  1  0
  1 27  1  0
  5 28  1  0
  7 29  1  0
  8 30  1  0
 10 31  1  0
 10 32  1  0
 11 33  1  0
 11 34  1  0
 12 35  1  0
 12 36  1  0
 13 37  1  0
 14 38  1  0
 22 39  1  0
 24 40  1  0
M  CHG  1   1  -1
M  END
>  <UniqueID>  (51) 
48

>  <SMILES>  (51) 
[NH-]C(=O)c1cc2ccc(CCCO)cc2n1C(=O)c1c(Cl)cncc1Cl

>  <Energy>  (51) 
83.46800704935382

>  <Genealogy>  (51) 
[NH-]C(=O)c1cc2ccc(CCCO)cc2n1C(=O)c1c(Cl)cncc1Cl (protonated)
[NH-]C(=O)c1cc2ccc(CCCO)cc2n1C(=O)c1c(Cl)cncc1Cl (3D coordinates assigned)
[NH-]C(=O)c1cc2ccc(CCCO)cc2n1C(=O)c1c(Cl)cncc1Cl (optimized conformer: 83.46800704935382 kcal/mol)

>  <smiles>  (51) 
NC(=O)c1cc2ccc(CCCO)cc2n1C(=O)c1c(Cl)cncc1Cl

>  <score_type>  (51) 
oracle

>  <origin>  (51) 
adg

>  <m_score__min__energy>  (51) 
-8.1500000000000004

>  <m_primary>  (51) 
energy

$$$$
52:0
     RDKit          3D

 37 40  0  0  0  0  0  0  0  0999 V2000
  148.9850  157.4830  131.8560 N   0  0  0  0  0  0  0  0  0  0  0  0
  148.6490  158.4980  132.8050 C   0  0  0  0  0  0  0  0  0  0  0  0
  149.5730  159.1180  133.3960 O   0  0  0  0  0  0  0  0  0  0  0  0
  147.2420  158.7980  133.1430 C   0  0  0  0  0  0  0  0  0  0  0  0
  146.7370  160.0910  133.2610 C   0  0  0  0  0  0  0  0  0  0  0  0
  145.4090  159.9320  133.5910 C   0  0  0  0  0  0  0  0  0  0  0  0
  144.4190  160.8850  133.8050 C   0  0  0  0  0  0  0  0  0  0  0  0
  143.1190  160.4330  134.0870 C   0  0  0  0  0  0  0  0  0  0  0  0
  142.8260  159.0440  134.1370 C   0  0  0  0  0  0  0  0  0  0  0  0
  141.4470  158.5880  134.4280 C   0  0  0  0  0  0  0  0  0  0  0  0
  140.9830  158.3650  135.6780 N   0  0  0  0  0  0  0  0  0  0  0  0
  139.6890  157.9480  135.6810 C   0  0  0  0  0  0  0  0  0  0  0  0
  139.1020  157.8320  134.4280 C   0  0  0  0  0  0  0  0  0  0  0  0
  140.2510  158.2680  133.2820 S   0  0  0  0  0  0  0  0  0  0  0  0
  143.8610  158.1080  133.9040 C   0  0  0  0  0  0  0  0  0  0  0  0
  145.1510  158.5880  133.6520 C   0  0  0  0  0  0  0  0  0  0  0  0
  146.2690  157.8790  133.3880 N   0  0  0  0  0  0  0  0  0  0  0  0
  146.3570  156.4530  133.2220 C   0  0  0  0  0  0  0  0  0  0  0  0
  146.6410  155.9850  132.0870 O   0  0  0  0  0  0  0  0  0  0  0  0
  146.1350  155.5340  134.3630 C   0  0  0  0  0  0  0  0  0  0  0  0
  144.8390  155.2940  134.8470 C   0  0  0  0  0  0  0  0  0  0  0  0
  144.6410  154.4280  135.9230 C   0  0  0  0  0  0  0  0  0  0  0  0
  145.7420  153.8000  136.5070 C   0  0  0  0  0  0  0  0  0  0  0  0
  146.9910  154.0300  136.0250 N   0  0  0  0  0  0  0  0  0  0  0  0
  147.2100  154.8710  134.9780 C   0  0  0  0  0  0  0  0  0  0  0  0
  149.9820  157.3280  131.5900 H   0  0  0  0  0  0  0  0  0  0  0  0
  148.2660  156.8190  131.4960 H   0  0  0  0  0  0  0  0  0  0  0  0
  147.2818  161.0362  133.1207 H   0  0  0  0  0  0  0  0  0  0  0  0
  144.6469  161.9600  133.7550 H   0  0  0  0  0  0  0  0  0  0  0  0
  142.3180  161.1640  134.2714 H   0  0  0  0  0  0  0  0  0  0  0  0
  139.1458  157.7189  136.6097 H   0  0  0  0  0  0  0  0  0  0  0  0
  138.0698  157.5120  134.2224 H   0  0  0  0  0  0  0  0  0  0  0  0
  143.6562  157.0274  133.9206 H   0  0  0  0  0  0  0  0  0  0  0  0
  143.9773  155.7901  134.3766 H   0  0  0  0  0  0  0  0  0  0  0  0
  143.6272  154.2421  136.3071 H   0  0  0  0  0  0  0  0  0  0  0  0
  145.5983  153.1183  137.3582 H   0  0  0  0  0  0  0  0  0  0  0  0
  148.2344  155.0326  134.6112 H   0  0  0  0  0  0  0  0  0  0  0  0
  1  2  1  0
  2  3  2  0
  2  4  1  0
  4  5  2  0
  5  6  1  0
  6  7  2  0
  7  8  1  0
  8  9  2  0
  9 10  1  0
 10 11  2  0
 11 12  1  0
 12 13  2  0
 13 14  1  0
  9 15  1  0
 15 16  2  0
 16 17  1  0
 17 18  1  0
 18 19  2  0
 18 20  1  0
 20 21  2  0
 21 22  1  0
 22 23  2  0
 23 24  1  0
 24 25  2  0
 17  4  1  0
 25 20  1  0
 16  6  1  0
 14 10  1  0
  1 26  1  0
  1 27  1  0
  5 28  1  0
  7 29  1  0
  8 30  1  0
 12 31  1  0
 13 32  1  0
 15 33  1  0
 21 34  1  0
 22 35  1  0
 23 36  1  0
 25 37  1  0
M  END
>  <UniqueID>  (52) 
49

>  <SMILES>  (52) 
NC(=O)c1cc2ccc(-c3nccs3)cc2n1C(=O)c1cccnc1

>  <Energy>  (52) 
114.6339314667094

>  <Genealogy>  (52) 
NC(=O)c1cc2ccc(-c3nccs3)cc2n1C(=O)c1cccnc1 (3D coordinates assigned)
NC(=O)c1cc2ccc(-c3nccs3)cc2n1C(=O)c1cccnc1 (optimized conformer: 114.6339314667094 kcal/mol)

>  <smiles>  (52) 
NC(=O)c1cc2ccc(-c3nccs3)cc2n1C(=O)c1cccnc1

>  <score_type>  (52) 
oracle

>  <origin>  (52) 
adg

>  <m_score__min__energy>  (52) 
-8.4800000000000004

>  <m_primary>  (52) 
energy

$$$$
53:0
     RDKit          3D

 54 56  0  0  0  0  0  0  0  0999 V2000
  145.7210  154.2040  134.7200 C   0  0  0  0  0  0  0  0  0  0  0  0
  146.4480  154.8210  133.5060 C   0  0  0  0  0  0  0  0  0  0  0  0
  147.6180  153.9270  133.0530 C   0  0  0  0  0  0  0  0  0  0  0  0
  145.4440  154.9540  132.3470 C   0  0  0  0  0  0  0  0  0  0  0  0
  146.9190  156.1420  133.8110 O   0  0  0  0  0  0  0  0  0  0  0  0
  147.3150  157.1270  132.8900 C   0  0  0  0  0  0  0  0  0  0  0  0
  148.0280  156.8100  131.8980 O   0  0  0  0  0  0  0  0  0  0  0  0
  146.8710  158.4930  133.0620 N   0  0  0  0  0  0  0  0  0  0  0  0
  147.6320  159.6210  132.9370 C   0  0  0  0  0  0  0  0  0  0  0  0
  149.0080  159.6830  132.4130 C   0  0  0  0  0  0  0  0  0  0  0  0
  149.9090  158.5930  132.6070 N   0  0  0  0  0  0  0  0  0  0  0  0
  149.3730  160.6800  131.7350 O   0  0  0  0  0  0  0  0  0  0  0  0
  146.9230  160.7530  133.3200 C   0  0  0  0  0  0  0  0  0  0  0  0
  145.6750  160.2960  133.6640 C   0  0  0  0  0  0  0  0  0  0  0  0
  144.5600  161.0080  134.0970 C   0  0  0  0  0  0  0  0  0  0  0  0
  143.3840  160.2920  134.3710 C   0  0  0  0  0  0  0  0  0  0  0  0
  143.3420  158.8860  134.2040 C   0  0  0  0  0  0  0  0  0  0  0  0
  142.0630  158.1280  134.4670 C   0  0  0  0  0  0  0  0  0  0  0  0
  140.8070  158.9480  134.0890 C   0  0  0  0  0  0  0  0  0  0  0  0
  140.8590  159.3210  132.5860 C   0  0  0  0  0  0  0  0  0  0  0  0
  139.4830  159.7490  132.0690 C   0  0  0  0  0  0  0  0  0  0  0  0
  138.4490  158.6120  132.1850 C   0  0  0  0  0  0  0  0  0  0  0  0
  138.7930  157.5740  133.2720 C   0  0  0  0  0  0  0  0  0  0  0  0
  139.4820  158.2230  134.4760 C   0  0  0  0  0  0  0  0  0  0  0  0
  144.4960  158.1950  133.7710 C   0  0  0  0  0  0  0  0  0  0  0  0
  145.6610  158.9310  133.5020 C   0  0  0  0  0  0  0  0  0  0  0  0
  146.1701  154.5852  135.6490 H   0  0  0  0  0  0  0  0  0  0  0  0
  144.6562  154.4783  134.6881 H   0  0  0  0  0  0  0  0  0  0  0  0
  145.8186  153.1088  134.6881 H   0  0  0  0  0  0  0  0  0  0  0  0
  148.1388  153.5291  133.9364 H   0  0  0  0  0  0  0  0  0  0  0  0
  147.2300  153.0931  132.4496 H   0  0  0  0  0  0  0  0  0  0  0  0
  148.3206  154.5205  132.4496 H   0  0  0  0  0  0  0  0  0  0  0  0
  144.4306  155.0882  132.7533 H   0  0  0  0  0  0  0  0  0  0  0  0
  145.7099  155.8248  131.7297 H   0  0  0  0  0  0  0  0  0  0  0  0
  145.4740  154.0440  131.7297 H   0  0  0  0  0  0  0  0  0  0  0  0
  149.5990  157.7230  133.0890 H   0  0  0  0  0  0  0  0  0  0  0  0
  150.8960  158.6620  132.2700 H   0  0  0  0  0  0  0  0  0  0  0  0
  147.2840  161.7918  133.3427 H   0  0  0  0  0  0  0  0  0  0  0  0
  144.5992  162.1003  134.2209 H   0  0  0  0  0  0  0  0  0  0  0  0
  142.4879  160.8272  134.7182 H   0  0  0  0  0  0  0  0  0  0  0  0
  142.0724  157.2016  133.8740 H   0  0  0  0  0  0  0  0  0  0  0  0
  142.0138  157.9142  135.5449 H   0  0  0  0  0  0  0  0  0  0  0  0
  140.8123  159.8775  134.6773 H   0  0  0  0  0  0  0  0  0  0  0  0
  141.5674  160.1510  132.4475 H   0  0  0  0  0  0  0  0  0  0  0  0
  141.1811  158.4344  132.0201 H   0  0  0  0  0  0  0  0  0  0  0  0
  139.1333  160.6097  132.6579 H   0  0  0  0  0  0  0  0  0  0  0  0
  139.5839  160.0122  131.0057 H   0  0  0  0  0  0  0  0  0  0  0  0
  137.4707  159.0546  132.4238 H   0  0  0  0  0  0  0  0  0  0  0  0
  138.4438  158.0809  131.2217 H   0  0  0  0  0  0  0  0  0  0  0  0
  137.8645  157.0907  133.6102 H   0  0  0  0  0  0  0  0  0  0  0  0
  139.4844  156.8374  132.8367 H   0  0  0  0  0  0  0  0  0  0  0  0
  138.7952  158.9580  134.9211 H   0  0  0  0  0  0  0  0  0  0  0  0
  139.7353  157.4225  135.1866 H   0  0  0  0  0  0  0  0  0  0  0  0
  144.4819  157.1021  133.6471 H   0  0  0  0  0  0  0  0  0  0  0  0
  1  2  1  0
  2  3  1  0
  2  4  1  0
  2  5  1  0
  5  6  1  0
  6  7  2  0
  6  8  1  0
  8  9  1  0
  9 10  1  0
 10 11  1  0
 10 12  2  0
  9 13  2  0
 13 14  1  0
 14 15  2  0
 15 16  1  0
 16 17  2  0
 17 18  1  0
 18 19  1  0
 19 20  1  0
 20 21  1  0
 21 22  1  0
 22 23  1  0
 23 24  1  0
 17 25  1  0
 25 26  2  0
 26  8  1  0
 26 14  1  0
 24 19  1  0
  1 27  1  0
  1 28  1  0
  1 29  1  0
  3 30  1  0
  3 31  1  0
  3 32  1  0
  4 33  1  0
  4 34  1  0
  4 35  1  0
 11 36  1  0
 11 37  1  0
 13 38  1  0
 15 39  1  0
 16 40  1  0
 18 41  1  0
 18 42  1  0
 19 43  1  0
 20 44  1  0
 20 45  1  0
 21 46  1  0
 21 47  1  0
 22 48  1  0
 22 49  1  0
 23 50  1  0
 23 51  1  0
 24 52  1  0
 24 53  1  0
 25 54  1  0
M  END
>  <UniqueID>  (53) 
50

>  <SMILES>  (53) 
CC(C)(C)OC(=O)n1c(C(N)=O)cc2ccc(CC3CCCCC3)cc21

>  <Energy>  (53) 
91.44115157106371

>  <Genealogy>  (53) 
CC(C)(C)OC(=O)n1c(C(N)=O)cc2ccc(CC3CCCCC3)cc21 (3D coordinates assigned)
CC(C)(C)OC(=O)n1c(C(N)=O)cc2ccc(CC3CCCCC3)cc21 (nonaromatic ring conformer: 91.44115157106371 kcal/mol)

>  <smiles>  (53) 
CC(C)(C)OC(=O)n1c(C(N)=O)cc2ccc(CC3CCCCC3)cc21

>  <score_type>  (53) 
oracle

>  <origin>  (53) 
adg

>  <m_score__min__energy>  (53) 
-9.4100000000000001

>  <m_primary>  (53) 
energy

$$$$
54:0
     RDKit          3D

 39 40  0  0  0  0  0  0  0  0999 V2000
  149.9710  159.7800  129.6980 C   0  0  0  0  0  0  0  0  0  0  0  0
  148.8990  160.6990  130.1140 N   0  0  0  0  0  0  0  0  0  0  0  0
  149.4720  162.0330  130.3660 C   0  0  0  0  0  0  0  0  0  0  0  0
  148.2200  160.1750  131.3200 C   0  0  0  0  0  0  0  0  0  0  0  0
  149.2490  159.6890  132.3550 C   0  0  0  0  0  0  0  0  0  0  0  0
  148.6010  159.3360  133.7020 C   0  0  0  0  0  0  0  0  0  0  0  0
  147.5670  158.2480  133.5600 C   0  0  0  0  0  0  0  0  0  0  0  0
  146.1880  158.5580  133.6580 C   0  0  0  0  0  0  0  0  0  0  0  0
  145.2170  157.5530  133.5080 C   0  0  0  0  0  0  0  0  0  0  0  0
  145.6520  156.2570  133.2500 C   0  0  0  0  0  0  0  0  0  0  0  0
  144.9300  155.0990  133.0910 C   0  0  0  0  0  0  0  0  0  0  0  0
  145.8750  154.1040  132.8620 C   0  0  0  0  0  0  0  0  0  0  0  0
  145.5210  152.7000  132.5720 C   0  0  0  0  0  0  0  0  0  0  0  0
  146.4210  151.8410  131.8710 N   0  0  0  0  0  0  0  0  0  0  0  0
  144.3830  152.2700  132.8970 O   0  0  0  0  0  0  0  0  0  0  0  0
  147.1360  154.6200  132.8910 N   0  0  0  0  0  0  0  0  0  0  0  0
  148.3750  153.8940  132.8180 C   0  0  0  0  0  0  0  0  0  0  0  0
  148.4470  152.7070  133.2320 O   0  0  0  0  0  0  0  0  0  0  0  0
  149.5090  154.4940  132.2830 O   0  0  0  0  0  0  0  0  0  0  0  0
  146.9830  155.9430  133.1270 C   0  0  0  0  0  0  0  0  0  0  0  0
  147.9730  156.9210  133.2930 C   0  0  0  0  0  0  0  0  0  0  0  0
  150.4605  159.3603  130.5892 H   0  0  0  0  0  0  0  0  0  0  0  0
  149.5422  158.9646  129.0970 H   0  0  0  0  0  0  0  0  0  0  0  0
  150.7113  160.3283  129.0970 H   0  0  0  0  0  0  0  0  0  0  0  0
  149.5446  162.2020  131.4505 H   0  0  0  0  0  0  0  0  0  0  0  0
  150.4748  162.0920  129.9178 H   0  0  0  0  0  0  0  0  0  0  0  0
  148.8243  162.8009  129.9178 H   0  0  0  0  0  0  0  0  0  0  0  0
  147.6087  160.9734  131.7659 H   0  0  0  0  0  0  0  0  0  0  0  0
  147.5844  159.3262  131.0275 H   0  0  0  0  0  0  0  0  0  0  0  0
  149.7524  158.7944  131.9597 H   0  0  0  0  0  0  0  0  0  0  0  0
  149.9622  160.5080  132.5298 H   0  0  0  0  0  0  0  0  0  0  0  0
  149.3841  158.9942  134.3947 H   0  0  0  0  0  0  0  0  0  0  0  0
  148.0984  160.2363  134.0851 H   0  0  0  0  0  0  0  0  0  0  0  0
  145.8746  159.5942  133.8532 H   0  0  0  0  0  0  0  0  0  0  0  0
  144.1449  157.7843  133.5921 H   0  0  0  0  0  0  0  0  0  0  0  0
  143.8370  154.9832  133.1353 H   0  0  0  0  0  0  0  0  0  0  0  0
  147.2990  152.2120  131.4440 H   0  0  0  0  0  0  0  0  0  0  0  0
  146.1700  150.8410  131.7060 H   0  0  0  0  0  0  0  0  0  0  0  0
  149.0394  156.6622  133.2173 H   0  0  0  0  0  0  0  0  0  0  0  0
  1  2  1  0
  2  3  1  0
  2  4  1  0
  4  5  1  0
  5  6  1  0
  6  7  1  0
  7  8  2  0
  8  9  1  0
  9 10  2  0
 10 11  1  0
 11 12  2  0
 12 13  1  0
 13 14  1  0
 13 15  2  0
 12 16  1  0
 16 17  1  0
 17 18  2  0
 17 19  1  0
 16 20  1  0
 20 21  2  0
 21  7  1  0
 20 10  1  0
  1 22  1  0
  1 23  1  0
  1 24  1  0
  3 25  1  0
  3 26  1  0
  3 27  1  0
  4 28  1  0
  4 29  1  0
  5 30  1  0
  5 31  1  0
  6 32  1  0
  6 33  1  0
  8 34  1  0
  9 35  1  0
 11 36  1  0
 14 37  1  0
 14 38  1  0
 21 39  1  0
M  CHG  1  19  -1
M  END
>  <UniqueID>  (54) 
51

>  <SMILES>  (54) 
CN(C)CCCc1ccc2cc(C(N)=O)n(C(=O)[O-])c2c1

>  <Energy>  (54) 
75.18835950128332

>  <Genealogy>  (54) 
CN(C)CCCc1ccc2cc(C(N)=O)n(C(=O)[O-])c2c1 (protonated)
CN(C)CCCc1ccc2cc(C(N)=O)n(C(=O)[O-])c2c1 (3D coordinates assigned)
CN(C)CCCc1ccc2cc(C(N)=O)n(C(=O)[O-])c2c1 (optimized conformer: 75.18835950128332 kcal/mol)

>  <smiles>  (54) 
CN(C)CCCc1ccc2cc(C(N)=O)n(C(=O)O)c2c1

>  <score_type>  (54) 
oracle

>  <origin>  (54) 
adg

>  <m_score__min__energy>  (54) 
-6.7599999999999998

>  <m_primary>  (54) 
energy

$$$$
55:0
     RDKit          3D

 47 49  0  0  0  0  0  0  0  0999 V2000
  141.8910  158.3260  135.4320 C   0  0  0  0  0  0  0  0  0  0  0  0
  140.9450  157.4830  134.5580 C   0  0  0  0  0  0  0  0  0  0  0  0
  141.1640  157.7880  133.0640 C   0  0  0  0  0  0  0  0  0  0  0  0
  139.4930  157.8250  134.9260 C   0  0  0  0  0  0  0  0  0  0  0  0
  141.1280  156.0840  134.8200 O   0  0  0  0  0  0  0  0  0  0  0  0
  141.1620  155.0550  133.8660 C   0  0  0  0  0  0  0  0  0  0  0  0
  140.1600  154.8130  133.1410 O   0  0  0  0  0  0  0  0  0  0  0  0
  142.3600  154.2800  133.7070 N   0  0  0  0  0  0  0  0  0  0  0  0
  142.4770  152.9230  133.7350 C   0  0  0  0  0  0  0  0  0  0  0  0
  141.3490  151.9650  133.7780 C   0  0  0  0  0  0  0  0  0  0  0  0
  140.2220  152.1290  132.9160 N   0  0  0  0  0  0  0  0  0  0  0  0
  141.3600  151.0120  134.6000 O   0  0  0  0  0  0  0  0  0  0  0  0
  143.8140  152.5450  133.6250 C   0  0  0  0  0  0  0  0  0  0  0  0
  144.5180  153.7220  133.5260 C   0  0  0  0  0  0  0  0  0  0  0  0
  145.8880  153.9370  133.4090 C   0  0  0  0  0  0  0  0  0  0  0  0
  146.3440  155.2640  133.3560 C   0  0  0  0  0  0  0  0  0  0  0  0
  145.4330  156.3510  133.4290 C   0  0  0  0  0  0  0  0  0  0  0  0
  145.9280  157.7500  133.3870 C   0  0  0  0  0  0  0  0  0  0  0  0
  147.2650  158.0210  133.0470 C   0  0  0  0  0  0  0  0  0  0  0  0
  147.7320  159.3360  133.0070 C   0  0  0  0  0  0  0  0  0  0  0  0
  146.8740  160.3960  133.3040 C   0  0  0  0  0  0  0  0  0  0  0  0
  145.5330  160.1510  133.6460 C   0  0  0  0  0  0  0  0  0  0  0  0
  144.6180  161.2720  133.9560 C   0  0  0  0  0  0  0  0  0  0  0  0
  143.3780  161.1600  133.7620 O   0  0  0  0  0  0  0  0  0  0  0  0
  145.1150  162.4680  134.4650 O   0  0  0  0  0  0  0  0  0  0  0  0
  145.0680  158.8240  133.6840 C   0  0  0  0  0  0  0  0  0  0  0  0
  144.0470  156.0880  133.5490 C   0  0  0  0  0  0  0  0  0  0  0  0
  143.6200  154.7560  133.5790 C   0  0  0  0  0  0  0  0  0  0  0  0
  141.6767  158.1350  136.4939 H   0  0  0  0  0  0  0  0  0  0  0  0
  142.9337  158.0522  135.2133 H   0  0  0  0  0  0  0  0  0  0  0  0
  141.7386  159.3932  135.2133 H   0  0  0  0  0  0  0  0  0  0  0  0
  141.8028  158.6776  132.9612 H   0  0  0  0  0  0  0  0  0  0  0  0
  141.6524  156.9282  132.5820 H   0  0  0  0  0  0  0  0  0  0  0  0
  140.1933  157.9759  132.5820 H   0  0  0  0  0  0  0  0  0  0  0  0
  139.3883  157.8497  136.0207 H   0  0  0  0  0  0  0  0  0  0  0  0
  139.2315  158.8093  134.5104 H   0  0  0  0  0  0  0  0  0  0  0  0
  138.8197  157.0609  134.5104 H   0  0  0  0  0  0  0  0  0  0  0  0
  140.2000  152.8730  132.1860 H   0  0  0  0  0  0  0  0  0  0  0  0
  139.4140  151.4700  132.9800 H   0  0  0  0  0  0  0  0  0  0  0  0
  144.2197  151.5226  133.6187 H   0  0  0  0  0  0  0  0  0  0  0  0
  146.5920  153.0933  133.3595 H   0  0  0  0  0  0  0  0  0  0  0  0
  147.4210  155.4642  133.2566 H   0  0  0  0  0  0  0  0  0  0  0  0
  147.9476  157.1914  132.8109 H   0  0  0  0  0  0  0  0  0  0  0  0
  148.7800  159.5375  132.7404 H   0  0  0  0  0  0  0  0  0  0  0  0
  147.2496  161.4293  133.2702 H   0  0  0  0  0  0  0  0  0  0  0  0
  144.0195  158.6231  133.9491 H   0  0  0  0  0  0  0  0  0  0  0  0
  143.3221  156.9125  133.6171 H   0  0  0  0  0  0  0  0  0  0  0  0
  1  2  1  0
  2  3  1  0
  2  4  1  0
  2  5  1  0
  5  6  1  0
  6  7  2  0
  6  8  1  0
  8  9  1  0
  9 10  1  0
 10 11  1  0
 10 12  2  0
  9 13  2  0
 13 14  1  0
 14 15  2  0
 15 16  1  0
 16 17  2  0
 17 18  1  0
 18 19  2  0
 19 20  1  0
 20 21  2  0
 21 22  1  0
 22 23  1  0
 23 24  2  0
 23 25  1  0
 22 26  2  0
 17 27  1  0
 27 28  2  0
 28  8  1  0
 28 14  1  0
 26 18  1  0
  1 29  1  0
  1 30  1  0
  1 31  1  0
  3 32  1  0
  3 33  1  0
  3 34  1  0
  4 35  1  0
  4 36  1  0
  4 37  1  0
 11 38  1  0
 11 39  1  0
 13 40  1  0
 15 41  1  0
 16 42  1  0
 19 43  1  0
 20 44  1  0
 21 45  1  0
 26 46  1  0
 27 47  1  0
M  CHG  1  25  -1
M  END
>  <UniqueID>  (55) 
52

>  <SMILES>  (55) 
CC(C)(C)OC(=O)n1c(C(N)=O)cc2ccc(-c3cccc(C(=O)[O-])c3)cc21

>  <Energy>  (55) 
88.828312585628

>  <Genealogy>  (55) 
CC(C)(C)OC(=O)n1c(C(N)=O)cc2ccc(-c3cccc(C(=O)[O-])c3)cc21 (protonated)
CC(C)(C)OC(=O)n1c(C(N)=O)cc2ccc(-c3cccc(C(=O)[O-])c3)cc21 (3D coordinates assigned)
CC(C)(C)OC(=O)n1c(C(N)=O)cc2ccc(-c3cccc(C(=O)[O-])c3)cc21 (optimized conformer: 88.828312585628 kcal/mol)

>  <smiles>  (55) 
CC(C)(C)OC(=O)n1c(C(N)=O)cc2ccc(-c3cccc(C(=O)O)c3)cc21

>  <score_type>  (55) 
oracle

>  <origin>  (55) 
adg

>  <m_score__min__energy>  (55) 
-8.9600000000000009

>  <m_primary>  (55) 
energy

$$$$
56:0
     RDKit          3D

 82 87  0  0  0  0  0  0  0  0999 V2000
  140.9780  154.3130  133.4980 C   0  0  0  0  0  0  0  0  0  0  0  0
  141.8920  153.0750  133.5520 C   0  0  0  0  0  0  0  0  0  0  0  0
  143.2390  153.3620  132.8540 C   0  0  0  0  0  0  0  0  0  0  0  0
  141.2000  151.9100  132.8280 C   0  0  0  0  0  0  0  0  0  0  0  0
  142.0990  152.6640  134.9130 O   0  0  0  0  0  0  0  0  0  0  0  0
  142.7120  153.4220  135.9240 C   0  0  0  0  0  0  0  0  0  0  0  0
  143.9550  153.3720  136.1040 O   0  0  0  0  0  0  0  0  0  0  0  0
  141.9090  154.2580  136.7690 N   0  0  0  0  0  0  0  0  0  0  0  0
  141.0450  153.8740  137.7510 C   0  0  0  0  0  0  0  0  0  0  0  0
  140.8170  152.4960  138.2240 C   0  0  0  0  0  0  0  0  0  0  0  0
  140.6660  151.4180  137.3040 N   0  0  0  0  0  0  0  0  0  0  0  0
  140.7930  152.2580  139.4630 O   0  0  0  0  0  0  0  0  0  0  0  0
  140.4370  154.9920  138.3190 C   0  0  0  0  0  0  0  0  0  0  0  0
  140.9680  156.0760  137.6620 C   0  0  0  0  0  0  0  0  0  0  0  0
  140.7280  157.4380  137.8380 C   0  0  0  0  0  0  0  0  0  0  0  0
  141.3950  158.3430  136.9910 C   0  0  0  0  0  0  0  0  0  0  0  0
  142.2710  157.8700  135.9830 C   0  0  0  0  0  0  0  0  0  0  0  0
  142.9240  158.8390  135.0260 C   0  0  0  0  0  0  0  0  0  0  0  0
  142.0460  159.2050  133.8090 C   0  0  1  0  0  0  0  0  0  0  0  0
  140.5400  159.0470  134.1200 C   0  0  0  0  0  0  0  0  0  0  0  0
  139.6920  159.2280  132.8830 C   0  0  0  0  0  0  0  0  0  0  0  0
  139.5160  160.5050  132.3210 C   0  0  0  0  0  0  0  0  0  0  0  0
  138.8000  160.6520  131.1300 C   0  0  0  0  0  0  0  0  0  0  0  0
  138.2400  159.5340  130.5040 C   0  0  0  0  0  0  0  0  0  0  0  0
  138.3930  158.2660  131.0730 C   0  0  0  0  0  0  0  0  0  0  0  0
  139.1230  158.1100  132.2520 C   0  0  0  0  0  0  0  0  0  0  0  0
  142.3350  160.5950  133.4410 N   0  0  0  0  0  0  0  0  0  0  0  0
  143.5680  161.2680  133.7390 C   0  0  0  0  0  0  0  0  0  0  0  0
  143.6620  162.5020  133.4870 O   0  0  0  0  0  0  0  0  0  0  0  0
  144.6530  160.5610  134.2770 O   0  0  0  0  0  0  0  0  0  0  0  0
  145.9640  160.6260  133.7080 C   0  0  0  0  0  0  0  0  0  0  0  0
  146.2670  159.4870  132.7040 C   0  0  0  0  0  0  0  0  0  0  0  0
  146.4360  158.1190  133.3200 C   0  0  0  0  0  0  0  0  0  0  0  0
  145.4640  157.3420  133.9610 C   0  0  0  0  0  0  0  0  0  0  0  0
  145.8060  156.0470  134.3810 C   0  0  0  0  0  0  0  0  0  0  0  0
  147.0900  155.5290  134.1190 C   0  0  0  0  0  0  0  0  0  0  0  0
  148.0460  156.3090  133.4500 C   0  0  0  0  0  0  0  0  0  0  0  0
  147.6900  157.6000  133.0600 C   0  0  0  0  0  0  0  0  0  0  0  0
  148.4400  158.5730  132.2960 C   0  0  0  0  0  0  0  0  0  0  0  0
  149.7570  158.5280  131.8350 C   0  0  0  0  0  0  0  0  0  0  0  0
  150.2540  159.6420  131.1380 C   0  0  0  0  0  0  0  0  0  0  0  0
  149.4340  160.7640  130.9110 C   0  0  0  0  0  0  0  0  0  0  0  0
  148.1060  160.7830  131.3770 C   0  0  0  0  0  0  0  0  0  0  0  0
  147.6280  159.6700  132.0760 C   0  0  0  0  0  0  0  0  0  0  0  0
  142.5120  156.4810  135.8560 C   0  0  0  0  0  0  0  0  0  0  0  0
  141.8480  155.6080  136.7260 C   0  0  0  0  0  0  0  0  0  0  0  0
  140.7387  154.6371  134.5216 H   0  0  0  0  0  0  0  0  0  0  0  0
  141.4937  155.1266  132.9669 H   0  0  0  0  0  0  0  0  0  0  0  0
  140.0486  154.0597  132.9669 H   0  0  0  0  0  0  0  0  0  0  0  0
  144.0174  153.5279  133.6133 H   0  0  0  0  0  0  0  0  0  0  0  0
  143.5168  152.5029  132.2257 H   0  0  0  0  0  0  0  0  0  0  0  0
  143.1424  154.2597  132.2257 H   0  0  0  0  0  0  0  0  0  0  0  0
  140.7852  151.2118  133.5699 H   0  0  0  0  0  0  0  0  0  0  0  0
  140.3874  152.3007  132.1979 H   0  0  0  0  0  0  0  0  0  0  0  0
  141.9318  151.3834  132.1979 H   0  0  0  0  0  0  0  0  0  0  0  0
  141.1910  151.3990  136.4010 H   0  0  0  0  0  0  0  0  0  0  0  0
  139.6884  155.0042  139.1249 H   0  0  0  0  0  0  0  0  0  0  0  0
  140.0374  157.7951  138.6162 H   0  0  0  0  0  0  0  0  0  0  0  0
  141.2351  159.4245  137.1125 H   0  0  0  0  0  0  0  0  0  0  0  0
  143.1577  159.7632  135.5748 H   0  0  0  0  0  0  0  0  0  0  0  0
  143.8232  158.3421  134.6329 H   0  0  0  0  0  0  0  0  0  0  0  0
  142.2805  158.5213  132.9798 H   0  0  0  0  0  0  0  0  0  0  0  0
  140.3640  158.0410  134.5288 H   0  0  0  0  0  0  0  0  0  0  0  0
  140.2567  159.8228  134.8465 H   0  0  0  0  0  0  0  0  0  0  0  0
  139.9421  161.3884  132.8190 H   0  0  0  0  0  0  0  0  0  0  0  0
  138.6766  161.6498  130.6837 H   0  0  0  0  0  0  0  0  0  0  0  0
  137.6797  159.6520  129.5648 H   0  0  0  0  0  0  0  0  0  0  0  0
  137.9368  157.3893  130.5901 H   0  0  0  0  0  0  0  0  0  0  0  0
  139.2531  157.1086  132.6882 H   0  0  0  0  0  0  0  0  0  0  0  0
  141.6490  161.0970  132.8330 H   0  0  0  0  0  0  0  0  0  0  0  0
  146.0670  161.5873  133.1832 H   0  0  0  0  0  0  0  0  0  0  0  0
  146.6787  160.5203  134.5375 H   0  0  0  0  0  0  0  0  0  0  0  0
  145.4021  159.5391  132.0263 H   0  0  0  0  0  0  0  0  0  0  0  0
  144.4523  157.7383  134.1322 H   0  0  0  0  0  0  0  0  0  0  0  0
  145.0676  155.4332  134.9176 H   0  0  0  0  0  0  0  0  0  0  0  0
  147.3443  154.5082  134.4404 H   0  0  0  0  0  0  0  0  0  0  0  0
  149.0500  155.9124  133.2387 H   0  0  0  0  0  0  0  0  0  0  0  0
  150.3881  157.6447  132.0126 H   0  0  0  0  0  0  0  0  0  0  0  0
  151.2897  159.6377  130.7675 H   0  0  0  0  0  0  0  0  0  0  0  0
  149.8340  161.6316  130.3657 H   0  0  0  0  0  0  0  0  0  0  0  0
  147.4587  161.6537  131.1955 H   0  0  0  0  0  0  0  0  0  0  0  0
  143.2042  156.0968  135.0923 H   0  0  0  0  0  0  0  0  0  0  0  0
  1  2  1  0
  2  3  1  0
  2  4  1  0
  2  5  1  0
  5  6  1  0
  6  7  2  0
  6  8  1  0
  8  9  1  0
  9 10  1  0
 10 11  1  0
 10 12  2  0
  9 13  2  0
 13 14  1  0
 14 15  2  0
 15 16  1  0
 16 17  2  0
 17 18  1  0
 18 19  1  0
 19 20  1  0
 20 21  1  0
 21 22  2  0
 22 23  1  0
 23 24  2  0
 24 25  1  0
 25 26  2  0
 19 27  1  0
 27 28  1  0
 28 29  2  0
 28 30  1  0
 30 31  1  0
 31 32  1  0
 32 33  1  0
 33 34  2  0
 34 35  1  0
 35 36  2  0
 36 37  1  0
 37 38  2  0
 38 39  1  0
 39 40  2  0
 40 41  1  0
 41 42  2  0
 42 43  1  0
 43 44  2  0
 17 45  1  0
 45 46  2  0
 46  8  1  0
 46 14  1  0
 26 21  1  0
 44 32  1  0
 38 33  1  0
 44 39  1  0
  1 47  1  0
  1 48  1  0
  1 49  1  0
  3 50  1  0
  3 51  1  0
  3 52  1  0
  4 53  1  0
  4 54  1  0
  4 55  1  0
 11 56  1  0
 13 57  1  0
 15 58  1  0
 16 59  1  0
 18 60  1  0
 18 61  1  0
 19 62  1  6
 20 63  1  0
 20 64  1  0
 22 65  1  0
 23 66  1  0
 24 67  1  0
 25 68  1  0
 26 69  1  0
 27 70  1  0
 31 71  1  0
 31 72  1  0
 32 73  1  0
 34 74  1  0
 35 75  1  0
 36 76  1  0
 37 77  1  0
 40 78  1  0
 41 79  1  0
 42 80  1  0
 43 81  1  0
 45 82  1  0
M  CHG  1  11  -1
M  END
>  <UniqueID>  (56) 
53

>  <SMILES>  (56) 
CC(C)(C)OC(=O)n1c(C([NH-])=O)cc2ccc(C[C@@H](Cc3ccccc3)NC(=O)OCC3c4ccccc4-c4ccccc43)cc21

>  <Energy>  (56) 
142.16625631782583

>  <Genealogy>  (56) 
CC(C)(C)OC(=O)n1c(C([NH-])=O)cc2ccc(C[C@@H](Cc3ccccc3)NC(=O)OCC3c4ccccc4-c4ccccc43)cc21 (protonated)
CC(C)(C)OC(=O)n1c(C([NH-])=O)cc2ccc(C[C@@H](Cc3ccccc3)NC(=O)OCC3c4ccccc4-c4ccccc43)cc21 (3D coordinates assigned)
CC(C)(C)OC(=O)n1c(C([NH-])=O)cc2ccc(C[C@@H](Cc3ccccc3)NC(=O)OCC3c4ccccc4-c4ccccc43)cc21 (nonaromatic ring conformer: 142.16625631782583 kcal/mol)

>  <smiles>  (56) 
CC(C)(C)OC(=O)n1c(C(N)=O)cc2ccc(C[C@@H](Cc3ccccc3)NC(=O)OCC3c4ccccc4-c4ccccc43)cc21

>  <score_type>  (56) 
oracle

>  <origin>  (56) 
adg

>  <m_score__min__energy>  (56) 
-13.359999999999999

>  <m_primary>  (56) 
energy

$$$$
57:0
     RDKit          3D

 65 68  0  0  0  0  0  0  0  0999 V2000
  138.3650  148.8660  130.5740 C   0  0  0  0  0  0  0  0  0  0  0  0
  139.0640  148.8360  131.9390 C   0  0  0  0  0  0  0  0  0  0  0  0
  140.5990  149.1380  131.8690 C   0  0  0  0  0  0  0  0  0  0  0  0
  141.3220  148.1070  132.7830 C   0  0  0  0  0  0  0  0  0  0  0  0
  141.0920  148.8480  130.4280 C   0  0  0  0  0  0  0  0  0  0  0  0
  140.8710  150.5880  132.1980 N   0  0  0  0  0  0  0  0  0  0  0  0
  139.7750  151.4180  132.3160 C   0  0  0  0  0  0  0  0  0  0  0  0
  139.9040  152.7320  132.6180 N   0  0  0  0  0  0  0  0  0  0  0  0
  141.1140  153.2990  132.8140 C   0  0  0  0  0  0  0  0  0  0  0  0
  141.2040  154.6590  133.1270 C   0  0  0  0  0  0  0  0  0  0  0  0
  142.4570  155.2590  133.3400 C   0  0  0  0  0  0  0  0  0  0  0  0
  142.5540  156.7030  133.6710 C   0  0  0  0  0  0  0  0  0  0  0  0
  141.4450  157.3800  134.2430 C   0  0  0  0  0  0  0  0  0  0  0  0
  141.5180  158.7480  134.5500 C   0  0  0  0  0  0  0  0  0  0  0  0
  142.7120  159.4120  134.2870 C   0  0  0  0  0  0  0  0  0  0  0  0
  143.0420  160.7360  134.4620 C   0  0  0  0  0  0  0  0  0  0  0  0
  144.3590  160.8460  134.0280 C   0  0  0  0  0  0  0  0  0  0  0  0
  145.1360  162.1010  134.1040 C   0  0  0  0  0  0  0  0  0  0  0  0
  146.5630  162.0830  134.1770 N   0  0  0  0  0  0  0  0  0  0  0  0
  144.5280  163.2030  134.1630 O   0  0  0  0  0  0  0  0  0  0  0  0
  144.8240  159.6430  133.5880 N   0  0  0  0  0  0  0  0  0  0  0  0
  146.0880  159.3800  132.9550 C   0  0  0  0  0  0  0  0  0  0  0  0
  146.6860  160.3050  132.3410 O   0  0  0  0  0  0  0  0  0  0  0  0
  146.6440  158.0940  133.0350 O   0  0  0  0  0  0  0  0  0  0  0  0
  148.0340  157.7760  133.2060 C   0  0  0  0  0  0  0  0  0  0  0  0
  148.5070  158.4880  134.4820 C   0  0  0  0  0  0  0  0  0  0  0  0
  148.2290  156.2570  133.3860 C   0  0  0  0  0  0  0  0  0  0  0  0
  148.8580  158.2940  132.0120 C   0  0  0  0  0  0  0  0  0  0  0  0
  143.8020  158.7730  133.7540 C   0  0  0  0  0  0  0  0  0  0  0  0
  143.7490  157.4150  133.4170 C   0  0  0  0  0  0  0  0  0  0  0  0
  143.6160  154.4720  133.2350 C   0  0  0  0  0  0  0  0  0  0  0  0
  143.5260  153.1140  132.9110 C   0  0  0  0  0  0  0  0  0  0  0  0
  142.2690  152.5140  132.6990 C   0  0  0  0  0  0  0  0  0  0  0  0
  142.1280  151.1500  132.3750 C   0  0  0  0  0  0  0  0  0  0  0  0
  143.1790  150.4670  132.2440 O   0  0  0  0  0  0  0  0  0  0  0  0
  137.2758  148.9127  130.7208 H   0  0  0  0  0  0  0  0  0  0  0  0
  138.6975  149.7507  130.0112 H   0  0  0  0  0  0  0  0  0  0  0  0
  138.6204  147.9561  130.0112 H   0  0  0  0  0  0  0  0  0  0  0  0
  138.5915  149.5886  132.5873 H   0  0  0  0  0  0  0  0  0  0  0  0
  138.9558  147.8144  132.3323 H   0  0  0  0  0  0  0  0  0  0  0  0
  141.1426  148.3628  133.8377 H   0  0  0  0  0  0  0  0  0  0  0  0
  140.9319  147.0990  132.5787 H   0  0  0  0  0  0  0  0  0  0  0  0
  142.4026  148.1303  132.5787 H   0  0  0  0  0  0  0  0  0  0  0  0
  142.0394  148.2907  130.4698 H   0  0  0  0  0  0  0  0  0  0  0  0
  140.3378  148.2496  129.8959 H   0  0  0  0  0  0  0  0  0  0  0  0
  141.2485  149.7979  129.8959 H   0  0  0  0  0  0  0  0  0  0  0  0
  138.7690  151.0011  132.1605 H   0  0  0  0  0  0  0  0  0  0  0  0
  140.2882  155.2631  133.2070 H   0  0  0  0  0  0  0  0  0  0  0  0
  140.5172  156.8259  134.4482 H   0  0  0  0  0  0  0  0  0  0  0  0
  140.6580  159.2783  134.9849 H   0  0  0  0  0  0  0  0  0  0  0  0
  142.4013  161.5366  134.8601 H   0  0  0  0  0  0  0  0  0  0  0  0
  147.0860  161.1870  134.2870 H   0  0  0  0  0  0  0  0  0  0  0  0
  147.0970  162.9790  134.1870 H   0  0  0  0  0  0  0  0  0  0  0  0
  148.1431  157.9403  135.3638 H   0  0  0  0  0  0  0  0  0  0  0  0
  149.6064  158.5198  134.4980 H   0  0  0  0  0  0  0  0  0  0  0  0
  148.1102  159.5138  134.4980 H   0  0  0  0  0  0  0  0  0  0  0  0
  148.2600  156.0159  134.4588 H   0  0  0  0  0  0  0  0  0  0  0  0
  147.3922  155.7214  132.9138 H   0  0  0  0  0  0  0  0  0  0  0  0
  149.1739  155.9501  132.9138 H   0  0  0  0  0  0  0  0  0  0  0  0
  149.7347  158.8451  132.3831 H   0  0  0  0  0  0  0  0  0  0  0  0
  149.1919  157.4430  131.4002 H   0  0  0  0  0  0  0  0  0  0  0  0
  148.2359  158.9638  131.4002 H   0  0  0  0  0  0  0  0  0  0  0  0
  144.6173  156.9134  132.9649 H   0  0  0  0  0  0  0  0  0  0  0  0
  144.6022  154.9272  133.4089 H   0  0  0  0  0  0  0  0  0  0  0  0
  144.4418  152.5113  132.8212 H   0  0  0  0  0  0  0  0  0  0  0  0
  1  2  1  0
  2  3  1  0
  3  4  1  0
  3  5  1  0
  3  6  1  0
  6  7  1  0
  7  8  2  0
  8  9  1  0
  9 10  2  0
 10 11  1  0
 11 12  1  0
 12 13  2  0
 13 14  1  0
 14 15  2  0
 15 16  1  0
 16 17  2  0
 17 18  1  0
 18 19  1  0
 18 20  2  0
 17 21  1  0
 21 22  1  0
 22 23  2  0
 22 24  1  0
 24 25  1  0
 25 26  1  0
 25 27  1  0
 25 28  1  0
 21 29  1  0
 29 30  2  0
 11 31  2  0
 31 32  1  0
 32 33  2  0
 33 34  1  0
 34 35  2  0
 34  6  1  0
 33  9  1  0
 30 12  1  0
 29 15  1  0
  1 36  1  0
  1 37  1  0
  1 38  1  0
  2 39  1  0
  2 40  1  0
  4 41  1  0
  4 42  1  0
  4 43  1  0
  5 44  1  0
  5 45  1  0
  5 46  1  0
  7 47  1  0
 10 48  1  0
 13 49  1  0
 14 50  1  0
 16 51  1  0
 19 52  1  0
 19 53  1  0
 26 54  1  0
 26 55  1  0
 26 56  1  0
 27 57  1  0
 27 58  1  0
 27 59  1  0
 28 60  1  0
 28 61  1  0
 28 62  1  0
 30 63  1  0
 31 64  1  0
 32 65  1  0
M  END
>  <UniqueID>  (57) 
54

>  <SMILES>  (57) 
CCC(C)(C)n1cnc2cc(-c3ccc4cc(C(N)=O)n(C(=O)OC(C)(C)C)c4c3)ccc2c1=O

>  <Energy>  (57) 
123.7307523534774

>  <Genealogy>  (57) 
CCC(C)(C)n1cnc2cc(-c3ccc4cc(C(N)=O)n(C(=O)OC(C)(C)C)c4c3)ccc2c1=O (3D coordinates assigned)
CCC(C)(C)n1cnc2cc(-c3ccc4cc(C(N)=O)n(C(=O)OC(C)(C)C)c4c3)ccc2c1=O (optimized conformer: 123.7307523534774 kcal/mol)

>  <smiles>  (57) 
CCC(C)(C)n1cnc2cc(-c3ccc4cc(C(N)=O)n(C(=O)OC(C)(C)C)c4c3)ccc2c1=O

>  <score_type>  (57) 
oracle

>  <origin>  (57) 
adg

>  <m_score__min__energy>  (57) 
-10.65

>  <m_primary>  (57) 
energy

$$$$
58:0
     RDKit          3D

 47 49  0  0  0  0  0  0  0  0999 V2000
  141.3360  158.3110  136.3230 C   0  0  0  0  0  0  0  0  0  0  0  0
  140.5520  158.2790  135.0360 C   0  0  0  0  0  0  0  0  0  0  0  0
  139.2090  157.8660  135.0730 C   0  0  0  0  0  0  0  0  0  0  0  0
  138.4510  157.8100  133.9020 C   0  0  0  0  0  0  0  0  0  0  0  0
  139.0200  158.1730  132.6820 C   0  0  0  0  0  0  0  0  0  0  0  0
  140.3480  158.6050  132.6270 C   0  0  0  0  0  0  0  0  0  0  0  0
  140.8680  158.9800  131.4300 F   0  0  0  0  0  0  0  0  0  0  0  0
  141.1240  158.6740  133.7990 C   0  0  0  0  0  0  0  0  0  0  0  0
  142.5170  159.1650  133.7100 C   0  0  0  0  0  0  0  0  0  0  0  0
  142.7860  160.5550  133.7930 C   0  0  0  0  0  0  0  0  0  0  0  0
  144.1040  161.0340  133.7030 C   0  0  0  0  0  0  0  0  0  0  0  0
  145.1270  160.1050  133.5420 C   0  0  0  0  0  0  0  0  0  0  0  0
  146.4830  160.2950  133.3990 C   0  0  0  0  0  0  0  0  0  0  0  0
  147.0230  159.0180  133.2600 C   0  0  0  0  0  0  0  0  0  0  0  0
  148.4730  158.7540  133.1630 C   0  0  0  0  0  0  0  0  0  0  0  0
  149.0400  158.1950  131.9810 N   0  0  0  0  0  0  0  0  0  0  0  0
  149.2170  158.9810  134.1550 O   0  0  0  0  0  0  0  0  0  0  0  0
  146.0390  158.0750  133.3060 N   0  0  0  0  0  0  0  0  0  0  0  0
  146.1590  156.6600  133.1060 C   0  0  0  0  0  0  0  0  0  0  0  0
  146.9260  156.2190  132.2080 O   0  0  0  0  0  0  0  0  0  0  0  0
  145.3910  155.7870  133.8920 O   0  0  0  0  0  0  0  0  0  0  0  0
  144.5000  154.7710  133.4120 C   0  0  0  0  0  0  0  0  0  0  0  0
  145.0910  153.3710  133.6650 C   0  0  0  0  0  0  0  0  0  0  0  0
  144.3500  154.9800  131.8980 C   0  0  0  0  0  0  0  0  0  0  0  0
  143.1150  154.9060  134.0750 C   0  0  0  0  0  0  0  0  0  0  0  0
  144.8850  158.7570  133.4840 C   0  0  0  0  0  0  0  0  0  0  0  0
  143.5820  158.2530  133.5560 C   0  0  0  0  0  0  0  0  0  0  0  0
  140.6419  158.2827  137.1759 H   0  0  0  0  0  0  0  0  0  0  0  0
  142.0057  157.4394  136.3661 H   0  0  0  0  0  0  0  0  0  0  0  0
  141.9325  159.2342  136.3661 H   0  0  0  0  0  0  0  0  0  0  0  0
  138.7513  157.5845  136.0328 H   0  0  0  0  0  0  0  0  0  0  0  0
  137.4028  157.4788  133.9419 H   0  0  0  0  0  0  0  0  0  0  0  0
  138.4221  158.1192  131.7603 H   0  0  0  0  0  0  0  0  0  0  0  0
  141.9561  161.2640  133.9289 H   0  0  0  0  0  0  0  0  0  0  0  0
  144.3204  162.1111  133.7582 H   0  0  0  0  0  0  0  0  0  0  0  0
  147.0253  161.2521  133.3953 H   0  0  0  0  0  0  0  0  0  0  0  0
  148.5800  157.3970  131.4900 H   0  0  0  0  0  0  0  0  0  0  0  0
  145.1654  153.1947  134.7482 H   0  0  0  0  0  0  0  0  0  0  0  0
  144.4374  152.6100  133.2137 H   0  0  0  0  0  0  0  0  0  0  0  0
  146.0922  153.3086  133.2137 H   0  0  0  0  0  0  0  0  0  0  0  0
  143.7181  155.8606  131.7102 H   0  0  0  0  0  0  0  0  0  0  0  0
  145.3419  155.1382  131.4496 H   0  0  0  0  0  0  0  0  0  0  0  0
  143.8826  154.0909  131.4496 H   0  0  0  0  0  0  0  0  0  0  0  0
  143.2295  154.8948  135.1690 H   0  0  0  0  0  0  0  0  0  0  0  0
  142.6507  155.8537  133.7646 H   0  0  0  0  0  0  0  0  0  0  0  0
  142.4764  154.0659  133.7646 H   0  0  0  0  0  0  0  0  0  0  0  0
  143.3925  157.1712  133.4940 H   0  0  0  0  0  0  0  0  0  0  0  0
  1  2  1  0
  2  3  2  0
  3  4  1  0
  4  5  2  0
  5  6  1  0
  6  7  1  0
  6  8  2  0
  8  9  1  0
  9 10  2  0
 10 11  1  0
 11 12  2  0
 12 13  1  0
 13 14  2  0
 14 15  1  0
 15 16  1  0
 15 17  2  0
 14 18  1  0
 18 19  1  0
 19 20  2  0
 19 21  1  0
 21 22  1  0
 22 23  1  0
 22 24  1  0
 22 25  1  0
 18 26  1  0
 26 27  2  0
  8  2  1  0
 27  9  1  0
 26 12  1  0
  1 28  1  0
  1 29  1  0
  1 30  1  0
  3 31  1  0
  4 32  1  0
  5 33  1  0
 10 34  1  0
 11 35  1  0
 13 36  1  0
 16 37  1  0
 23 38  1  0
 23 39  1  0
 23 40  1  0
 24 41  1  0
 24 42  1  0
 24 43  1  0
 25 44  1  0
 25 45  1  0
 25 46  1  0
 27 47  1  0
M  CHG  1  16  -1
M  END
>  <UniqueID>  (58) 
55

>  <SMILES>  (58) 
Cc1cccc(F)c1-c1ccc2cc(C([NH-])=O)n(C(=O)OC(C)(C)C)c2c1

>  <Energy>  (58) 
90.62521662836267

>  <Genealogy>  (58) 
Cc1cccc(F)c1-c1ccc2cc(C([NH-])=O)n(C(=O)OC(C)(C)C)c2c1 (protonated)
Cc1cccc(F)c1-c1ccc2cc(C([NH-])=O)n(C(=O)OC(C)(C)C)c2c1 (3D coordinates assigned)
Cc1cccc(F)c1-c1ccc2cc(C([NH-])=O)n(C(=O)OC(C)(C)C)c2c1 (optimized conformer: 90.62521662836267 kcal/mol)

>  <smiles>  (58) 
Cc1cccc(F)c1-c1ccc2cc(C(N)=O)n(C(=O)OC(C)(C)C)c2c1

>  <score_type>  (58) 
oracle

>  <origin>  (58) 
adg

>  <m_score__min__energy>  (58) 
-7.8899999999999997

>  <m_primary>  (58) 
energy

$$$$
59:0
     RDKit          3D

 47 49  0  0  0  0  0  0  0  0999 V2000
  141.4720  156.8070  135.1370 C   0  0  0  0  0  0  0  0  0  0  0  0
  141.7150  158.3250  135.0340 C   0  0  0  0  0  0  0  0  0  0  0  0
  140.8580  158.9390  133.9100 C   0  0  0  0  0  0  0  0  0  0  0  0
  141.3300  158.9830  136.3670 C   0  0  0  0  0  0  0  0  0  0  0  0
  143.1050  158.6010  134.8130 O   0  0  0  0  0  0  0  0  0  0  0  0
  143.7920  158.4950  133.5940 C   0  0  0  0  0  0  0  0  0  0  0  0
  143.2880  157.8770  132.6180 O   0  0  0  0  0  0  0  0  0  0  0  0
  145.0740  159.1270  133.4520 N   0  0  0  0  0  0  0  0  0  0  0  0
  145.3830  160.4460  133.6060 C   0  0  0  0  0  0  0  0  0  0  0  0
  144.4180  161.5440  133.8180 C   0  0  0  0  0  0  0  0  0  0  0  0
  143.0180  161.2870  133.7280 N   0  0  0  0  0  0  0  0  0  0  0  0
  144.8130  162.7020  134.1140 O   0  0  0  0  0  0  0  0  0  0  0  0
  146.7530  160.6460  133.4540 C   0  0  0  0  0  0  0  0  0  0  0  0
  147.2790  159.4010  133.1930 C   0  0  0  0  0  0  0  0  0  0  0  0
  148.5980  159.0130  132.9770 C   0  0  0  0  0  0  0  0  0  0  0  0
  148.8560  157.6490  132.7670 C   0  0  0  0  0  0  0  0  0  0  0  0
  147.7990  156.7030  132.7770 C   0  0  0  0  0  0  0  0  0  0  0  0
  148.0950  155.2340  132.6130 C   0  0  0  0  0  0  0  0  0  0  0  0
  147.4210  154.3950  133.7070 C   0  0  0  0  0  0  0  0  0  0  0  0
  145.9780  154.1380  133.3950 C   0  0  0  0  0  0  0  0  0  0  0  0
  145.5430  153.5380  132.2660 N   0  0  0  0  0  0  0  0  0  0  0  0
  144.1960  153.3560  132.2570 C   0  0  0  0  0  0  0  0  0  0  0  0
  143.5410  153.8060  133.3980 C   0  0  0  0  0  0  0  0  0  0  0  0
  144.6970  154.4460  134.4420 S   0  0  0  0  0  0  0  0  0  0  0  0
  146.4740  157.1340  133.0060 C   0  0  0  0  0  0  0  0  0  0  0  0
  146.2440  158.5010  133.1950 C   0  0  0  0  0  0  0  0  0  0  0  0
  141.4251  156.5142  136.1963 H   0  0  0  0  0  0  0  0  0  0  0  0
  140.5218  156.5535  134.6441 H   0  0  0  0  0  0  0  0  0  0  0  0
  142.2955  156.2696  134.6441 H   0  0  0  0  0  0  0  0  0  0  0  0
  140.0392  159.5256  134.3521 H   0  0  0  0  0  0  0  0  0  0  0  0
  141.4846  159.5949  133.2878 H   0  0  0  0  0  0  0  0  0  0  0  0
  140.4385  158.1347  133.2878 H   0  0  0  0  0  0  0  0  0  0  0  0
  141.6927  158.3631  137.2002 H   0  0  0  0  0  0  0  0  0  0  0  0
  141.7860  159.9822  136.4279 H   0  0  0  0  0  0  0  0  0  0  0  0
  140.2356  159.0751  136.4279 H   0  0  0  0  0  0  0  0  0  0  0  0
  142.6600  160.3210  133.5590 H   0  0  0  0  0  0  0  0  0  0  0  0
  147.2993  161.5979  133.5271 H   0  0  0  0  0  0  0  0  0  0  0  0
  149.4129  159.7519  132.9710 H   0  0  0  0  0  0  0  0  0  0  0  0
  149.8881  157.3105  132.5930 H   0  0  0  0  0  0  0  0  0  0  0  0
  147.7255  154.9031  131.6312 H   0  0  0  0  0  0  0  0  0  0  0  0
  149.1829  155.0919  132.6924 H   0  0  0  0  0  0  0  0  0  0  0  0
  147.9450  153.4315  133.7916 H   0  0  0  0  0  0  0  0  0  0  0  0
  147.4741  154.9555  134.6520 H   0  0  0  0  0  0  0  0  0  0  0  0
  146.1700  153.2370  131.4870 H   0  0  0  0  0  0  0  0  0  0  0  0
  143.6659  152.8895  131.4136 H   0  0  0  0  0  0  0  0  0  0  0  0
  142.4584  153.7532  133.5856 H   0  0  0  0  0  0  0  0  0  0  0  0
  145.6436  156.4132  133.0351 H   0  0  0  0  0  0  0  0  0  0  0  0
  1  2  1  0
  2  3  1  0
  2  4  1  0
  2  5  1  0
  5  6  1  0
  6  7  2  0
  6  8  1  0
  8  9  1  0
  9 10  1  0
 10 11  1  0
 10 12  2  0
  9 13  2  0
 13 14  1  0
 14 15  2  0
 15 16  1  0
 16 17  2  0
 17 18  1  0
 18 19  1  0
 19 20  1  0
 20 21  2  0
 21 22  1  0
 22 23  2  0
 23 24  1  0
 17 25  1  0
 25 26  2  0
 26  8  1  0
 26 14  1  0
 24 20  1  0
  1 27  1  0
  1 28  1  0
  1 29  1  0
  3 30  1  0
  3 31  1  0
  3 32  1  0
  4 33  1  0
  4 34  1  0
  4 35  1  0
 11 36  1  0
 13 37  1  0
 15 38  1  0
 16 39  1  0
 18 40  1  0
 18 41  1  0
 19 42  1  0
 19 43  1  0
 21 44  1  0
 22 45  1  0
 23 46  1  0
 25 47  1  0
M  CHG  2  11  -1  21   1
M  END
>  <UniqueID>  (59) 
56

>  <SMILES>  (59) 
CC(C)(C)OC(=O)n1c(C([NH-])=O)cc2ccc(CCc3[nH+]ccs3)cc21

>  <Energy>  (59) 
106.73527920716663

>  <Genealogy>  (59) 
CC(C)(C)OC(=O)n1c(C([NH-])=O)cc2ccc(CCc3[nH+]ccs3)cc21 (protonated)
CC(C)(C)OC(=O)n1c(C([NH-])=O)cc2ccc(CCc3[nH+]ccs3)cc21 (3D coordinates assigned)
CC(C)(C)OC(=O)n1c(C([NH-])=O)cc2ccc(CCc3[nH+]ccs3)cc21 (optimized conformer: 106.73527920716663 kcal/mol)

>  <smiles>  (59) 
CC(C)(C)OC(=O)n1c(C(N)=O)cc2ccc(CCc3nccs3)cc21

>  <score_type>  (59) 
oracle

>  <origin>  (59) 
adg

>  <m_score__min__energy>  (59) 
-8.1699999999999999

>  <m_primary>  (59) 
energy

$$$$
60:0
     RDKit          3D

 42 44  0  0  0  0  0  0  0  0999 V2000
  148.6060  150.2980  132.4920 C   0  0  0  0  0  0  0  0  0  0  0  0
  147.4360  151.1070  132.4420 O   0  0  0  0  0  0  0  0  0  0  0  0
  147.4240  152.5020  132.6100 C   0  0  0  0  0  0  0  0  0  0  0  0
  148.6070  153.2410  132.7880 C   0  0  0  0  0  0  0  0  0  0  0  0
  148.5590  154.6280  132.9500 C   0  0  0  0  0  0  0  0  0  0  0  0
  147.3290  155.3060  132.9360 C   0  0  0  0  0  0  0  0  0  0  0  0
  147.2780  156.7810  133.1020 C   0  0  0  0  0  0  0  0  0  0  0  0
  148.4650  157.5550  133.0040 C   0  0  0  0  0  0  0  0  0  0  0  0
  148.4300  158.9490  133.1730 C   0  0  0  0  0  0  0  0  0  0  0  0
  147.2000  159.5450  133.4280 C   0  0  0  0  0  0  0  0  0  0  0  0
  146.8880  160.8650  133.6580 C   0  0  0  0  0  0  0  0  0  0  0  0
  145.5110  160.8880  133.8680 C   0  0  0  0  0  0  0  0  0  0  0  0
  144.7420  162.1330  134.0780 C   0  0  0  0  0  0  0  0  0  0  0  0
  143.4270  162.2820  133.5490 N   0  0  0  0  0  0  0  0  0  0  0  0
  145.2700  163.0970  134.6950 O   0  0  0  0  0  0  0  0  0  0  0  0
  144.9920  159.6300  133.7780 N   0  0  0  0  0  0  0  0  0  0  0  0
  143.6360  159.2190  134.0130 C   0  0  0  0  0  0  0  0  0  0  0  0
  142.8620  159.8460  135.0340 N   0  0  0  0  0  0  0  0  0  0  0  0
  143.1190  158.3100  133.3100 O   0  0  0  0  0  0  0  0  0  0  0  0
  146.0390  158.8200  133.5070 C   0  0  0  0  0  0  0  0  0  0  0  0
  146.0460  157.4270  133.3640 C   0  0  0  0  0  0  0  0  0  0  0  0
  146.1470  154.5670  132.7600 C   0  0  0  0  0  0  0  0  0  0  0  0
  146.1920  153.1760  132.5970 C   0  0  0  0  0  0  0  0  0  0  0  0
  144.6930  152.2850  132.3770 S   0  0  0  0  0  0  0  0  0  0  0  0
  143.5100  152.6510  133.6540 C   0  0  0  0  0  0  0  0  0  0  0  0
  144.9800  150.6340  132.2480 O   0  0  0  0  0  0  0  0  0  0  0  0
  148.8774  150.1103  133.5413 H   0  0  0  0  0  0  0  0  0  0  0  0
  148.4116  149.3405  131.9867 H   0  0  0  0  0  0  0  0  0  0  0  0
  149.4332  150.8180  131.9867 H   0  0  0  0  0  0  0  0  0  0  0  0
  149.5775  152.7233  132.7998 H   0  0  0  0  0  0  0  0  0  0  0  0
  149.4921  155.1935  133.0896 H   0  0  0  0  0  0  0  0  0  0  0  0
  149.4228  157.0569  132.7933 H   0  0  0  0  0  0  0  0  0  0  0  0
  149.3481  159.5511  133.1056 H   0  0  0  0  0  0  0  0  0  0  0  0
  147.5791  161.7207  133.6729 H   0  0  0  0  0  0  0  0  0  0  0  0
  142.7110  161.5310  133.6710 H   0  0  0  0  0  0  0  0  0  0  0  0
  142.6310  160.8620  134.9830 H   0  0  0  0  0  0  0  0  0  0  0  0
  145.1151  156.8478  133.4532 H   0  0  0  0  0  0  0  0  0  0  0  0
  145.1769  155.0855  132.7501 H   0  0  0  0  0  0  0  0  0  0  0  0
  143.9774  152.5064  134.6392 H   0  0  0  0  0  0  0  0  0  0  0  0
  143.1760  153.6945  133.5563 H   0  0  0  0  0  0  0  0  0  0  0  0
  142.6451  151.9785  133.5563 H   0  0  0  0  0  0  0  0  0  0  0  0
  145.8760  150.5620  131.8330 H   0  0  0  0  0  0  0  0  0  0  0  0
  1  2  1  0
  2  3  1  0
  3  4  2  0
  4  5  1  0
  5  6  2  0
  6  7  1  0
  7  8  2  0
  8  9  1  0
  9 10  2  0
 10 11  1  0
 11 12  2  0
 12 13  1  0
 13 14  1  0
 13 15  2  0
 12 16  1  0
 16 17  1  0
 17 18  1  0
 17 19  2  0
 16 20  1  0
 20 21  2  0
  6 22  1  0
 22 23  2  0
 23 24  1  0
 24 25  1  0
 24 26  1  1
 23  3  1  0
 21  7  1  0
 20 10  1  0
  1 27  1  0
  1 28  1  0
  1 29  1  0
  4 30  1  0
  5 31  1  0
  8 32  1  0
  9 33  1  0
 11 34  1  0
 14 35  1  0
 18 36  1  0
 21 37  1  0
 22 38  1  0
 25 39  1  0
 25 40  1  0
 25 41  1  0
 26 42  1  0
M  CHG  3  14  -1  18  -1  24   1
M  END
>  <UniqueID>  (60) 
57

>  <SMILES>  (60) 
COc1ccc(-c2ccc3cc(C([NH-])=O)n(C([NH-])=O)c3c2)cc1[S@+](C)O

>  <Energy>  (60) 
84.18617783006546

>  <Genealogy>  (60) 
COc1ccc(-c2ccc3cc(C([NH-])=O)n(C([NH-])=O)c3c2)cc1[S+](C)O (protonated)
COc1ccc(-c2ccc3cc(C([NH-])=O)n(C([NH-])=O)c3c2)cc1[S@+](C)O (chirality)
COc1ccc(-c2ccc3cc(C([NH-])=O)n(C([NH-])=O)c3c2)cc1[S@+](C)O (3D coordinates assigned)
COc1ccc(-c2ccc3cc(C([NH-])=O)n(C([NH-])=O)c3c2)cc1[S@+](C)O (optimized conformer: 84.18617783006546 kcal/mol)

>  <smiles>  (60) 
COc1ccc(-c2ccc3cc(C(N)=O)n(C(N)=O)c3c2)cc1[S+](C)[O-]

>  <score_type>  (60) 
oracle

>  <origin>  (60) 
adg

>  <m_score__min__energy>  (60) 
-7.4000000000000004

>  <m_primary>  (60) 
energy

$$$$
61:0
     RDKit          3D

 48 50  0  0  0  0  0  0  0  0999 V2000
  139.4820  157.8790  135.4550 C   0  0  0  0  0  0  0  0  0  0  0  0
  140.7880  157.8450  136.2710 C   0  0  0  0  0  0  0  0  0  0  0  0
  140.6150  156.9920  137.5430 C   0  0  0  0  0  0  0  0  0  0  0  0
  141.1540  159.2800  136.6810 C   0  0  0  0  0  0  0  0  0  0  0  0
  141.8680  157.3460  135.4710 O   0  0  0  0  0  0  0  0  0  0  0  0
  142.1300  157.6690  134.1310 C   0  0  0  0  0  0  0  0  0  0  0  0
  141.4330  157.1820  133.1990 O   0  0  0  0  0  0  0  0  0  0  0  0
  143.1870  158.5890  133.8230 N   0  0  0  0  0  0  0  0  0  0  0  0
  143.1040  159.9400  133.6600 C   0  0  0  0  0  0  0  0  0  0  0  0
  141.8590  160.7330  133.6080 C   0  0  0  0  0  0  0  0  0  0  0  0
  140.6020  160.1120  133.3590 N   0  0  0  0  0  0  0  0  0  0  0  0
  141.9120  161.9860  133.7390 O   0  0  0  0  0  0  0  0  0  0  0  0
  144.3710  160.4860  133.4610 C   0  0  0  0  0  0  0  0  0  0  0  0
  145.2380  159.4180  133.4970 C   0  0  0  0  0  0  0  0  0  0  0  0
  146.6220  159.3830  133.3640 C   0  0  0  0  0  0  0  0  0  0  0  0
  147.2650  158.1380  133.4720 C   0  0  0  0  0  0  0  0  0  0  0  0
  146.5190  156.9540  133.7160 C   0  0  0  0  0  0  0  0  0  0  0  0
  147.2090  155.6450  133.8390 C   0  0  0  0  0  0  0  0  0  0  0  0
  147.6680  154.9690  132.6940 C   0  0  0  0  0  0  0  0  0  0  0  0
  148.3150  153.7360  132.8110 C   0  0  0  0  0  0  0  0  0  0  0  0
  148.5150  153.1650  134.0690 C   0  0  0  0  0  0  0  0  0  0  0  0
  148.0730  153.8290  135.2210 C   0  0  0  0  0  0  0  0  0  0  0  0
  148.3160  153.1100  136.8100 S   0  0  0  0  0  0  0  0  0  0  0  0
  149.1980  151.6330  136.6460 N   0  0  0  0  0  0  0  0  0  0  0  0
  149.0850  154.0550  137.6890 O   0  0  0  0  0  0  0  0  0  0  0  0
  146.9840  152.8320  137.4500 O   0  0  0  0  0  0  0  0  0  0  0  0
  147.4170  155.0620  135.1030 C   0  0  0  0  0  0  0  0  0  0  0  0
  145.1130  157.0340  133.8470 C   0  0  0  0  0  0  0  0  0  0  0  0
  144.4990  158.2850  133.7170 C   0  0  0  0  0  0  0  0  0  0  0  0
  138.6219  157.9014  136.1404 H   0  0  0  0  0  0  0  0  0  0  0  0
  139.4691  158.7778  134.8210 H   0  0  0  0  0  0  0  0  0  0  0  0
  139.4223  156.9821  134.8210 H   0  0  0  0  0  0  0  0  0  0  0  0
  140.7440  157.6279  138.4313 H   0  0  0  0  0  0  0  0  0  0  0  0
  139.6086  156.5482  137.5528 H   0  0  0  0  0  0  0  0  0  0  0  0
  141.3690  156.1912  137.5528 H   0  0  0  0  0  0  0  0  0  0  0  0
  141.1730  159.3543  137.7783 H   0  0  0  0  0  0  0  0  0  0  0  0
  142.1458  159.5345  136.2791 H   0  0  0  0  0  0  0  0  0  0  0  0
  140.4053  159.9785  136.2791 H   0  0  0  0  0  0  0  0  0  0  0  0
  140.4690  159.0870  133.5070 H   0  0  0  0  0  0  0  0  0  0  0  0
  144.6240  161.5455  133.3077 H   0  0  0  0  0  0  0  0  0  0  0  0
  147.1965  160.3028  133.1797 H   0  0  0  0  0  0  0  0  0  0  0  0
  148.3584  158.0797  133.3664 H   0  0  0  0  0  0  0  0  0  0  0  0
  147.5165  155.4141  131.6995 H   0  0  0  0  0  0  0  0  0  0  0  0
  148.6677  153.2139  131.9093 H   0  0  0  0  0  0  0  0  0  0  0  0
  149.0205  152.1919  134.1561 H   0  0  0  0  0  0  0  0  0  0  0  0
  148.7520  151.0960  135.8700 H   0  0  0  0  0  0  0  0  0  0  0  0
  147.0615  155.5788  136.0066 H   0  0  0  0  0  0  0  0  0  0  0  0
  144.5150  156.1326  134.0467 H   0  0  0  0  0  0  0  0  0  0  0  0
  1  2  1  0
  2  3  1  0
  2  4  1  0
  2  5  1  0
  5  6  1  0
  6  7  2  0
  6  8  1  0
  8  9  1  0
  9 10  1  0
 10 11  1  0
 10 12  2  0
  9 13  2  0
 13 14  1  0
 14 15  2  0
 15 16  1  0
 16 17  2  0
 17 18  1  0
 18 19  2  0
 19 20  1  0
 20 21  2  0
 21 22  1  0
 22 23  1  0
 23 24  1  0
 23 25  2  0
 23 26  2  0
 22 27  2  0
 17 28  1  0
 28 29  2  0
 29  8  1  0
 29 14  1  0
 27 18  1  0
  1 30  1  0
  1 31  1  0
  1 32  1  0
  3 33  1  0
  3 34  1  0
  3 35  1  0
  4 36  1  0
  4 37  1  0
  4 38  1  0
 11 39  1  0
 13 40  1  0
 15 41  1  0
 16 42  1  0
 19 43  1  0
 20 44  1  0
 21 45  1  0
 24 46  1  0
 27 47  1  0
 28 48  1  0
M  CHG  2  11  -1  24  -1
M  END
>  <UniqueID>  (61) 
58

>  <SMILES>  (61) 
CC(C)(C)OC(=O)n1c(C([NH-])=O)cc2ccc(-c3cccc(S([NH-])(=O)=O)c3)cc21

>  <Energy>  (61) 
89.14080101925093

>  <Genealogy>  (61) 
CC(C)(C)OC(=O)n1c(C([NH-])=O)cc2ccc(-c3cccc(S([NH-])(=O)=O)c3)cc21 (protonated)
CC(C)(C)OC(=O)n1c(C([NH-])=O)cc2ccc(-c3cccc(S([NH-])(=O)=O)c3)cc21 (3D coordinates assigned)
CC(C)(C)OC(=O)n1c(C([NH-])=O)cc2ccc(-c3cccc(S([NH-])(=O)=O)c3)cc21 (optimized conformer: 89.14080101925093 kcal/mol)

>  <smiles>  (61) 
CC(C)(C)OC(=O)n1c(C(N)=O)cc2ccc(-c3cccc(S(N)(=O)=O)c3)cc21

>  <score_type>  (61) 
oracle

>  <origin>  (61) 
adg

>  <m_score__min__energy>  (61) 
-9.2699999999999996

>  <m_primary>  (61) 
energy

$$$$
62:0
     RDKit          3D

 60 63  0  0  0  0  0  0  0  0999 V2000
  142.6460  160.3100  133.3420 N   0  0  0  0  0  0  0  0  0  0  0  0
  143.9780  160.6420  133.7290 C   0  0  0  0  0  0  0  0  0  0  0  0
  144.2710  161.8280  134.0510 O   0  0  0  0  0  0  0  0  0  0  0  0
  145.0270  159.6210  133.6750 C   0  0  0  0  0  0  0  0  0  0  0  0
  146.3810  159.9390  133.6540 C   0  0  0  0  0  0  0  0  0  0  0  0
  147.0260  158.7470  133.4230 C   0  0  0  0  0  0  0  0  0  0  0  0
  148.3820  158.4810  133.2760 C   0  0  0  0  0  0  0  0  0  0  0  0
  148.7680  157.1560  133.0140 C   0  0  0  0  0  0  0  0  0  0  0  0
  147.7980  156.1290  132.9100 C   0  0  0  0  0  0  0  0  0  0  0  0
  148.2170  154.7160  132.6000 C   0  0  0  0  0  0  0  0  0  0  0  0
  148.0590  153.8110  133.8250 C   0  0  0  0  0  0  0  0  0  0  0  0
  146.6910  153.6740  134.1350 O   0  0  0  0  0  0  0  0  0  0  0  0
  146.4030  154.4040  135.6360 S   0  0  0  0  0  0  0  0  0  0  0  0
  147.4940  155.3860  135.9540 O   0  0  0  0  0  0  0  0  0  0  0  0
  146.3260  153.3660  136.7210 O   0  0  0  0  0  0  0  0  0  0  0  0
  144.9380  155.2190  135.5610 O   0  0  0  0  0  0  0  0  0  0  0  0
  146.4300  156.4420  133.0470 C   0  0  0  0  0  0  0  0  0  0  0  0
  146.0700  157.7680  133.3080 C   0  0  0  0  0  0  0  0  0  0  0  0
  144.8310  158.2870  133.4700 N   0  0  0  0  0  0  0  0  0  0  0  0
  143.5790  157.5780  133.3590 C   0  0  0  0  0  0  0  0  0  0  0  0
  142.9450  157.6180  132.2700 O   0  0  0  0  0  0  0  0  0  0  0  0
  143.0740  156.7850  134.4680 N   0  0  2  0  0  0  0  0  0  0  0  0
  142.1780  155.7130  133.9460 C   0  0  0  0  0  0  0  0  0  0  0  0
  142.8920  154.4570  133.4780 C   0  0  0  0  0  0  0  0  0  0  0  0
  143.9170  154.5280  132.5220 C   0  0  0  0  0  0  0  0  0  0  0  0
  144.5730  153.3700  132.0960 C   0  0  0  0  0  0  0  0  0  0  0  0
  144.2110  152.1270  132.6270 C   0  0  0  0  0  0  0  0  0  0  0  0
  143.2060  152.0460  133.5940 C   0  0  0  0  0  0  0  0  0  0  0  0
  142.5580  153.2060  134.0290 C   0  0  0  0  0  0  0  0  0  0  0  0
  142.4720  157.6300  135.5480 C   0  0  0  0  0  0  0  0  0  0  0  0
  141.1960  158.3660  135.0770 C   0  0  0  0  0  0  0  0  0  0  0  0
  140.0930  158.0410  136.0780 C   0  0  0  0  0  0  0  0  0  0  0  0
  140.5080  156.7420  136.7250 C   0  0  0  0  0  0  0  0  0  0  0  0
  142.0230  156.8010  136.7740 C   0  0  0  0  0  0  0  0  0  0  0  0
  142.4720  159.7050  132.5080 H   0  0  0  0  0  0  0  0  0  0  0  0
  146.8373  160.9303  133.7924 H   0  0  0  0  0  0  0  0  0  0  0  0
  149.1298  159.2831  133.3621 H   0  0  0  0  0  0  0  0  0  0  0  0
  149.8336  156.9137  132.8884 H   0  0  0  0  0  0  0  0  0  0  0  0
  147.5912  154.3270  131.7833 H   0  0  0  0  0  0  0  0  0  0  0  0
  149.2770  154.7232  132.3062 H   0  0  0  0  0  0  0  0  0  0  0  0
  148.4864  152.8212  133.6071 H   0  0  0  0  0  0  0  0  0  0  0  0
  148.5859  154.2577  134.6811 H   0  0  0  0  0  0  0  0  0  0  0  0
  145.6624  155.6600  132.9507 H   0  0  0  0  0  0  0  0  0  0  0  0
  143.8880  156.2920  134.8930 H   0  0  0  0  0  0  0  0  0  0  0  0
  141.4794  155.4308  134.7474 H   0  0  0  0  0  0  0  0  0  0  0  0
  141.6773  156.1322  133.0608 H   0  0  0  0  0  0  0  0  0  0  0  0
  144.2065  155.5036  132.1044 H   0  0  0  0  0  0  0  0  0  0  0  0
  145.3731  153.4355  131.3440 H   0  0  0  0  0  0  0  0  0  0  0  0
  144.7179  151.2134  132.2829 H   0  0  0  0  0  0  0  0  0  0  0  0
  142.9243  151.0689  134.0134 H   0  0  0  0  0  0  0  0  0  0  0  0
  141.7826  153.1404  134.8065 H   0  0  0  0  0  0  0  0  0  0  0  0
  143.2759  158.3335  135.8105 H   0  0  0  0  0  0  0  0  0  0  0  0
  141.3744  159.4511  135.0518 H   0  0  0  0  0  0  0  0  0  0  0  0
  140.9113  158.0449  134.0642 H   0  0  0  0  0  0  0  0  0  0  0  0
  140.0110  158.8375  136.8322 H   0  0  0  0  0  0  0  0  0  0  0  0
  139.1100  157.9594  135.5910 H   0  0  0  0  0  0  0  0  0  0  0  0
  140.0901  156.6634  137.7395 H   0  0  0  0  0  0  0  0  0  0  0  0
  140.1441  155.8657  136.1685 H   0  0  0  0  0  0  0  0  0  0  0  0
  142.3542  157.2876  137.7033 H   0  0  0  0  0  0  0  0  0  0  0  0
  142.4605  155.7920  136.7528 H   0  0  0  0  0  0  0  0  0  0  0  0
  1  2  1  0
  2  3  2  0
  2  4  1  0
  4  5  2  0
  5  6  1  0
  6  7  2  0
  7  8  1  0
  8  9  2  0
  9 10  1  0
 10 11  1  0
 11 12  1  0
 12 13  1  0
 13 14  2  0
 13 15  2  0
 13 16  1  0
  9 17  1  0
 17 18  2  0
 18 19  1  0
 19 20  1  0
 20 21  2  0
 20 22  1  0
 22 23  1  0
 23 24  1  0
 24 25  2  0
 25 26  1  0
 26 27  2  0
 27 28  1  0
 28 29  2  0
 22 30  1  0
 30 31  1  0
 31 32  1  0
 32 33  1  0
 33 34  1  0
 19  4  1  0
 29 24  1  0
 34 30  1  0
 18  6  1  0
  1 35  1  0
  5 36  1  0
  7 37  1  0
  8 38  1  0
 10 39  1  0
 10 40  1  0
 11 41  1  0
 11 42  1  0
 17 43  1  0
 22 44  1  1
 23 45  1  0
 23 46  1  0
 25 47  1  0
 26 48  1  0
 27 49  1  0
 28 50  1  0
 29 51  1  0
 30 52  1  0
 31 53  1  0
 31 54  1  0
 32 55  1  0
 32 56  1  0
 33 57  1  0
 33 58  1  0
 34 59  1  0
 34 60  1  0
M  CHG  3   1  -1  16  -1  22   1
M  END
>  <UniqueID>  (62) 
59

>  <SMILES>  (62) 
[NH-]C(=O)c1cc2ccc(CCOS(=O)(=O)[O-])cc2n1C(=O)[N@H+](Cc1ccccc1)C1CCCC1

>  <Energy>  (62) 
117.0311180493755

>  <Genealogy>  (62) 
[NH-]C(=O)c1cc2ccc(CCOS(=O)(=O)[O-])cc2n1C(=O)[NH+](Cc1ccccc1)C1CCCC1 (protonated)
[NH-]C(=O)c1cc2ccc(CCOS(=O)(=O)[O-])cc2n1C(=O)[N@H+](Cc1ccccc1)C1CCCC1 (chirality)
[NH-]C(=O)c1cc2ccc(CCOS(=O)(=O)[O-])cc2n1C(=O)[N@H+](Cc1ccccc1)C1CCCC1 (3D coordinates assigned)
[NH-]C(=O)c1cc2ccc(CCOS(=O)(=O)[O-])cc2n1C(=O)[N@H+](Cc1ccccc1)C1CCCC1 (nonaromatic ring conformer: 117.0311180493755 kcal/mol)

>  <smiles>  (62) 
NC(=O)c1cc2ccc(CCOS(=O)(=O)O)cc2n1C(=O)N(Cc1ccccc1)C1CCCC1

>  <score_type>  (62) 
oracle

>  <origin>  (62) 
adg

>  <m_score__min__energy>  (62) 
-9.2400000000000002

>  <m_primary>  (62) 
energy

$$$$
63:0
     RDKit          3D

 46 50  0  0  0  0  0  0  0  0999 V2000
  149.0960  158.9240  133.2960 N   0  0  0  0  0  0  0  0  0  0  0  0
  148.0230  158.6610  132.3950 C   0  0  0  0  0  0  0  0  0  0  0  0
  148.2810  158.3190  131.2110 O   0  0  0  0  0  0  0  0  0  0  0  0
  146.6180  158.8350  132.8170 C   0  0  0  0  0  0  0  0  0  0  0  0
  146.0220  160.0800  133.0120 C   0  0  0  0  0  0  0  0  0  0  0  0
  144.7600  159.8110  133.4900 C   0  0  0  0  0  0  0  0  0  0  0  0
  143.7320  160.6780  133.8490 C   0  0  0  0  0  0  0  0  0  0  0  0
  142.5240  160.1160  134.2930 C   0  0  0  0  0  0  0  0  0  0  0  0
  142.3600  158.7100  134.3610 C   0  0  0  0  0  0  0  0  0  0  0  0
  141.0810  158.1330  134.8230 C   0  0  0  0  0  0  0  0  0  0  0  0
  139.8260  158.2290  134.2360 C   0  0  0  0  0  0  0  0  0  0  0  0
  139.4870  158.7890  132.9070 C   0  0  0  0  0  0  0  0  0  0  0  0
  139.5340  160.1760  132.6830 C   0  0  0  0  0  0  0  0  0  0  0  0
  139.2230  160.7010  131.4250 C   0  0  0  0  0  0  0  0  0  0  0  0
  138.8710  159.8450  130.3780 C   0  0  0  0  0  0  0  0  0  0  0  0
  138.5690  160.3560  129.1580 F   0  0  0  0  0  0  0  0  0  0  0  0
  138.8350  158.4650  130.5860 C   0  0  0  0  0  0  0  0  0  0  0  0
  139.1470  157.9340  131.8420 C   0  0  0  0  0  0  0  0  0  0  0  0
  139.0900  156.5890  132.0210 F   0  0  0  0  0  0  0  0  0  0  0  0
  138.9120  157.6770  135.0600 N   0  0  0  0  0  0  0  0  0  0  0  0
  139.5470  157.2540  136.1140 O   0  0  0  0  0  0  0  0  0  0  0  0
  140.8350  157.4980  136.0280 C   0  0  0  0  0  0  0  0  0  0  0  0
  141.8390  157.1820  137.0990 C   0  0  0  0  0  0  0  0  0  0  0  0
  141.2370  156.5480  138.3430 C   0  0  0  0  0  0  0  0  0  0  0  0
  141.7130  157.9900  138.3830 C   0  0  0  0  0  0  0  0  0  0  0  0
  143.4270  157.8630  133.9870 C   0  0  0  0  0  0  0  0  0  0  0  0
  144.6240  158.4490  133.5670 C   0  0  0  0  0  0  0  0  0  0  0  0
  145.7530  157.8360  133.1520 N   0  0  0  0  0  0  0  0  0  0  0  0
  145.9480  156.4190  133.0250 C   0  0  0  0  0  0  0  0  0  0  0  0
  146.6930  155.8850  131.9310 N   0  0  0  0  0  0  0  0  0  0  0  0
  145.4280  155.6350  133.8640 O   0  0  0  0  0  0  0  0  0  0  0  0
  149.2890  158.2880  134.1020 H   0  0  0  0  0  0  0  0  0  0  0  0
  146.4665  161.0684  132.8236 H   0  0  0  0  0  0  0  0  0  0  0  0
  143.8616  161.7686  133.7869 H   0  0  0  0  0  0  0  0  0  0  0  0
  141.6953  160.7749  134.5915 H   0  0  0  0  0  0  0  0  0  0  0  0
  139.8173  160.8526  133.5027 H   0  0  0  0  0  0  0  0  0  0  0  0
  139.2554  161.7880  131.2594 H   0  0  0  0  0  0  0  0  0  0  0  0
  138.5604  157.7930  129.7595 H   0  0  0  0  0  0  0  0  0  0  0  0
  142.6674  156.9479  136.4142 H   0  0  0  0  0  0  0  0  0  0  0  0
  140.1608  156.3232  138.3795 H   0  0  0  0  0  0  0  0  0  0  0  0
  141.4464  155.6438  138.9334 H   0  0  0  0  0  0  0  0  0  0  0  0
  140.9816  158.8091  138.4479 H   0  0  0  0  0  0  0  0  0  0  0  0
  142.4095  158.5620  139.0136 H   0  0  0  0  0  0  0  0  0  0  0  0
  143.3182  156.7691  134.0255 H   0  0  0  0  0  0  0  0  0  0  0  0
  146.8430  154.8560  131.8470 H   0  0  0  0  0  0  0  0  0  0  0  0
  147.0630  156.5150  131.1840 H   0  0  0  0  0  0  0  0  0  0  0  0
  1  2  1  0
  2  3  2  0
  2  4  1  0
  4  5  2  0
  5  6  1  0
  6  7  2  0
  7  8  1  0
  8  9  2  0
  9 10  1  0
 10 11  1  0
 11 12  1  0
 12 13  2  0
 13 14  1  0
 14 15  2  0
 15 16  1  0
 15 17  1  0
 17 18  2  0
 18 19  1  0
 11 20  2  0
 20 21  1  0
 21 22  1  0
 22 23  1  0
 23 24  1  0
 24 25  1  0
  9 26  1  0
 26 27  2  0
 27 28  1  0
 28 29  1  0
 29 30  1  0
 29 31  2  0
 28  4  1  0
 27  6  1  0
 22 10  2  0
 25 23  1  0
 18 12  1  0
  1 32  1  0
  5 33  1  0
  7 34  1  0
  8 35  1  0
 13 36  1  0
 14 37  1  0
 17 38  1  0
 23 39  1  0
 24 40  1  0
 24 41  1  0
 25 42  1  0
 25 43  1  0
 26 44  1  0
 30 45  1  0
 30 46  1  0
M  CHG  1   1  -1
M  END
>  <UniqueID>  (63) 
60

>  <SMILES>  (63) 
[NH-]C(=O)c1cc2ccc(-c3c(-c4ccc(F)cc4F)noc3C3CC3)cc2n1C(N)=O

>  <Energy>  (63) 
392.797862337163

>  <Genealogy>  (63) 
[NH-]C(=O)c1cc2ccc(-c3c(-c4ccc(F)cc4F)noc3C3CC3)cc2n1C(N)=O (protonated)
[NH-]C(=O)c1cc2ccc(-c3c(-c4ccc(F)cc4F)noc3C3CC3)cc2n1C(N)=O (3D coordinates assigned)
[NH-]C(=O)c1cc2ccc(-c3c(-c4ccc(F)cc4F)noc3C3CC3)cc2n1C(N)=O (nonaromatic ring conformer: 392.797862337163 kcal/mol)

>  <smiles>  (63) 
NC(=O)c1cc2ccc(-c3c(-c4ccc(F)cc4F)noc3C3CC3)cc2n1C(N)=O

>  <score_type>  (63) 
oracle

>  <origin>  (63) 
adg

>  <m_score__min__energy>  (63) 
-10.210000000000001

>  <m_primary>  (63) 
energy

$$$$
64:0
     RDKit          3D

 25 26  0  0  0  0  0  0  0  0999 V2000
  144.6340  156.8000  134.4120 N   0  0  0  0  0  0  0  0  0  0  0  0
  146.0550  156.6660  134.4720 C   0  0  0  0  0  0  0  0  0  0  0  0
  146.5660  155.8750  135.3090 O   0  0  0  0  0  0  0  0  0  0  0  0
  146.9370  157.4850  133.6170 C   0  0  0  0  0  0  0  0  0  0  0  0
  148.1960  157.0700  133.1970 C   0  0  0  0  0  0  0  0  0  0  0  0
  148.7110  158.1300  132.4890 C   0  0  0  0  0  0  0  0  0  0  0  0
  149.9320  158.2570  131.8330 C   0  0  0  0  0  0  0  0  0  0  0  0
  150.1890  159.4540  131.1440 C   0  0  0  0  0  0  0  0  0  0  0  0
  149.2260  160.4910  131.1170 C   0  0  0  0  0  0  0  0  0  0  0  0
  149.5140  161.7570  130.3590 C   0  0  0  0  0  0  0  0  0  0  0  0
  148.4950  162.6670  130.5710 F   0  0  0  0  0  0  0  0  0  0  0  0
  149.6060  161.4820  129.0080 F   0  0  0  0  0  0  0  0  0  0  0  0
  147.9940  160.3270  131.7910 C   0  0  0  0  0  0  0  0  0  0  0  0
  147.7730  159.1310  132.4870 C   0  0  0  0  0  0  0  0  0  0  0  0
  146.6720  158.7470  133.1750 N   0  0  0  0  0  0  0  0  0  0  0  0
  145.4360  159.4720  133.3000 C   0  0  0  0  0  0  0  0  0  0  0  0
  145.3880  160.5470  133.9530 O   0  0  0  0  0  0  0  0  0  0  0  0
  144.2810  158.9960  132.6910 O   0  0  0  0  0  0  0  0  0  0  0  0
  144.1870  157.5590  133.8520 H   0  0  0  0  0  0  0  0  0  0  0  0
  144.0260  156.1880  134.9980 H   0  0  0  0  0  0  0  0  0  0  0  0
  148.6774  156.1000  133.3902 H   0  0  0  0  0  0  0  0  0  0  0  0
  150.6734  157.4446  131.8534 H   0  0  0  0  0  0  0  0  0  0  0  0
  151.1474  159.5866  130.6207 H   0  0  0  0  0  0  0  0  0  0  0  0
  150.4659  162.1798  130.7126 H   0  0  0  0  0  0  0  0  0  0  0  0
  147.2292  161.1173  131.7696 H   0  0  0  0  0  0  0  0  0  0  0  0
  1  2  1  0
  2  3  2  0
  2  4  1  0
  4  5  2  0
  5  6  1  0
  6  7  2  0
  7  8  1  0
  8  9  2  0
  9 10  1  0
 10 11  1  0
 10 12  1  0
  9 13  1  0
 13 14  2  0
 14 15  1  0
 15 16  1  0
 16 17  2  0
 16 18  1  0
 15  4  1  0
 14  6  1  0
  1 19  1  0
  1 20  1  0
  5 21  1  0
  7 22  1  0
  8 23  1  0
 10 24  1  0
 13 25  1  0
M  CHG  1  18  -1
M  END
>  <UniqueID>  (64) 
61

>  <SMILES>  (64) 
NC(=O)c1cc2ccc(C(F)F)cc2n1C(=O)[O-]

>  <Energy>  (64) 
65.25634296535853

>  <Genealogy>  (64) 
NC(=O)c1cc2ccc(C(F)F)cc2n1C(=O)[O-] (protonated)
NC(=O)c1cc2ccc(C(F)F)cc2n1C(=O)[O-] (3D coordinates assigned)
NC(=O)c1cc2ccc(C(F)F)cc2n1C(=O)[O-] (optimized conformer: 65.25634296535853 kcal/mol)

>  <smiles>  (64) 
NC(=O)c1cc2ccc(C(F)F)cc2n1C(=O)O

>  <score_type>  (64) 
oracle

>  <origin>  (64) 
adg

>  <m_score__min__energy>  (64) 
-5.2999999999999998

>  <m_primary>  (64) 
energy

$$$$
65:0
     RDKit          3D

 51 53  0  0  0  0  0  0  0  0999 V2000
  149.5870  162.2840  130.0330 C   0  0  0  0  0  0  0  0  0  0  0  0
  149.1440  161.4200  131.0720 O   0  0  0  0  0  0  0  0  0  0  0  0
  149.5690  160.0910  131.1820 C   0  0  0  0  0  0  0  0  0  0  0  0
  150.6620  159.7340  130.6630 O   0  0  0  0  0  0  0  0  0  0  0  0
  148.7380  159.1090  131.9120 C   0  0  0  0  0  0  0  0  0  0  0  0
  149.2630  157.8560  132.2730 C   0  0  0  0  0  0  0  0  0  0  0  0
  148.4750  156.9340  132.9620 C   0  0  0  0  0  0  0  0  0  0  0  0
  147.1590  157.2470  133.3010 C   0  0  0  0  0  0  0  0  0  0  0  0
  146.6100  158.4930  132.9490 C   0  0  0  0  0  0  0  0  0  0  0  0
  145.2050  158.8240  133.3010 C   0  0  0  0  0  0  0  0  0  0  0  0
  144.8420  160.1570  133.6310 C   0  0  0  0  0  0  0  0  0  0  0  0
  143.5170  160.4800  133.9680 C   0  0  0  0  0  0  0  0  0  0  0  0
  142.5740  159.4580  133.9610 C   0  0  0  0  0  0  0  0  0  0  0  0
  141.2350  159.4910  134.2780 C   0  0  0  0  0  0  0  0  0  0  0  0
  140.7870  158.1830  134.1150 C   0  0  0  0  0  0  0  0  0  0  0  0
  139.3780  157.7800  134.2940 C   0  0  0  0  0  0  0  0  0  0  0  0
  138.7200  156.9420  133.3430 N   0  0  0  0  0  0  0  0  0  0  0  0
  138.7230  158.2320  135.2710 O   0  0  0  0  0  0  0  0  0  0  0  0
  141.8090  157.3690  133.7250 N   0  0  0  0  0  0  0  0  0  0  0  0
  141.7770  155.9380  133.5940 C   0  0  0  0  0  0  0  0  0  0  0  0
  140.8150  155.3830  133.0040 O   0  0  0  0  0  0  0  0  0  0  0  0
  142.8250  155.1770  134.1320 O   0  0  0  0  0  0  0  0  0  0  0  0
  143.6290  154.2190  133.4280 C   0  0  0  0  0  0  0  0  0  0  0  0
  142.7630  152.9680  133.2190 C   0  0  0  0  0  0  0  0  0  0  0  0
  144.8640  153.8400  134.2660 C   0  0  0  0  0  0  0  0  0  0  0  0
  144.0560  154.7630  132.0500 C   0  0  0  0  0  0  0  0  0  0  0  0
  142.8980  158.1670  133.6320 C   0  0  0  0  0  0  0  0  0  0  0  0
  144.2150  157.8130  133.3110 C   0  0  0  0  0  0  0  0  0  0  0  0
  147.4090  159.4190  132.2540 C   0  0  0  0  0  0  0  0  0  0  0  0
  150.0470  163.1810  130.4732 H   0  0  0  0  0  0  0  0  0  0  0  0
  150.3276  161.7599  129.4111 H   0  0  0  0  0  0  0  0  0  0  0  0
  148.7292  162.5794  129.4111 H   0  0  0  0  0  0  0  0  0  0  0  0
  150.3005  157.6013  132.0108 H   0  0  0  0  0  0  0  0  0  0  0  0
  148.8937  155.9553  133.2393 H   0  0  0  0  0  0  0  0  0  0  0  0
  146.5464  156.5146  133.8472 H   0  0  0  0  0  0  0  0  0  0  0  0
  145.6080  160.9464  133.6226 H   0  0  0  0  0  0  0  0  0  0  0  0
  143.2340  161.5103  134.2295 H   0  0  0  0  0  0  0  0  0  0  0  0
  140.6449  160.3643  134.5929 H   0  0  0  0  0  0  0  0  0  0  0  0
  139.1770  156.6970  132.4380 H   0  0  0  0  0  0  0  0  0  0  0  0
  137.7370  156.6300  133.5090 H   0  0  0  0  0  0  0  0  0  0  0  0
  142.4759  152.5533  134.1965 H   0  0  0  0  0  0  0  0  0  0  0  0
  141.8579  153.2386  132.6554 H   0  0  0  0  0  0  0  0  0  0  0  0
  143.3349  152.2161  132.6554 H   0  0  0  0  0  0  0  0  0  0  0  0
  144.6185  153.9153  135.3356 H   0  0  0  0  0  0  0  0  0  0  0  0
  145.1644  152.8083  134.0305 H   0  0  0  0  0  0  0  0  0  0  0  0
  145.6914  154.5256  134.0305 H   0  0  0  0  0  0  0  0  0  0  0  0
  144.7299  155.6215  132.1875 H   0  0  0  0  0  0  0  0  0  0  0  0
  144.5779  153.9733  131.4897 H   0  0  0  0  0  0  0  0  0  0  0  0
  143.1649  155.0824  131.4897 H   0  0  0  0  0  0  0  0  0  0  0  0
  144.4740  156.7710  133.0718 H   0  0  0  0  0  0  0  0  0  0  0  0
  146.9898  160.3969  131.9747 H   0  0  0  0  0  0  0  0  0  0  0  0
  1  2  1  0
  2  3  1  0
  3  4  2  0
  3  5  1  0
  5  6  2  0
  6  7  1  0
  7  8  2  0
  8  9  1  0
  9 10  1  0
 10 11  2  0
 11 12  1  0
 12 13  2  0
 13 14  1  0
 14 15  2  0
 15 16  1  0
 16 17  1  0
 16 18  2  0
 15 19  1  0
 19 20  1  0
 20 21  2  0
 20 22  1  0
 22 23  1  0
 23 24  1  0
 23 25  1  0
 23 26  1  0
 19 27  1  0
 27 28  2  0
  9 29  2  0
 29  5  1  0
 28 10  1  0
 27 13  1  0
  1 30  1  0
  1 31  1  0
  1 32  1  0
  6 33  1  0
  7 34  1  0
  8 35  1  0
 11 36  1  0
 12 37  1  0
 14 38  1  0
 17 39  1  0
 17 40  1  0
 24 41  1  0
 24 42  1  0
 24 43  1  0
 25 44  1  0
 25 45  1  0
 25 46  1  0
 26 47  1  0
 26 48  1  0
 26 49  1  0
 28 50  1  0
 29 51  1  0
M  END
>  <UniqueID>  (65) 
62

>  <SMILES>  (65) 
COC(=O)c1cccc(-c2ccc3cc(C(N)=O)n(C(=O)OC(C)(C)C)c3c2)c1

>  <Energy>  (65) 
90.89926605524992

>  <Genealogy>  (65) 
COC(=O)c1cccc(-c2ccc3cc(C(N)=O)n(C(=O)OC(C)(C)C)c3c2)c1 (3D coordinates assigned)
COC(=O)c1cccc(-c2ccc3cc(C(N)=O)n(C(=O)OC(C)(C)C)c3c2)c1 (optimized conformer: 90.89926605524992 kcal/mol)

>  <smiles>  (65) 
COC(=O)c1cccc(-c2ccc3cc(C(N)=O)n(C(=O)OC(C)(C)C)c3c2)c1

>  <score_type>  (65) 
oracle

>  <origin>  (65) 
adg

>  <m_score__min__energy>  (65) 
-8.8499999999999996

>  <m_primary>  (65) 
energy

$$$$
66:0
     RDKit          3D

 62 64  0  0  0  0  0  0  0  0999 V2000
  149.2520  159.1620  130.7180 C   0  0  0  0  0  0  0  0  0  0  0  0
  148.4910  160.4880  130.8380 C   0  0  0  0  0  0  0  0  0  0  0  0
  149.4060  161.6350  130.3900 C   0  0  0  0  0  0  0  0  0  0  0  0
  148.0490  160.6940  132.2310 N   0  0  0  0  0  0  0  0  0  0  0  0
  148.2710  159.4960  133.0530 C   0  0  0  0  0  0  0  0  0  0  0  0
  146.9650  158.7990  133.3150 C   0  0  0  0  0  0  0  0  0  0  0  0
  146.9300  157.8530  134.1460 O   0  0  0  0  0  0  0  0  0  0  0  0
  145.7450  159.2160  132.6900 N   0  0  0  0  0  0  0  0  0  0  0  0
  144.4240  158.9920  133.1960 C   0  0  0  0  0  0  0  0  0  0  0  0
  143.6840  160.0280  133.7820 C   0  0  0  0  0  0  0  0  0  0  0  0
  142.3950  159.7880  134.2600 C   0  0  0  0  0  0  0  0  0  0  0  0
  141.8270  158.5180  134.1460 C   0  0  0  0  0  0  0  0  0  0  0  0
  140.5580  158.3220  134.5840 F   0  0  0  0  0  0  0  0  0  0  0  0
  142.5500  157.4720  133.5400 C   0  0  0  0  0  0  0  0  0  0  0  0
  141.9770  156.1070  133.4300 C   0  0  0  0  0  0  0  0  0  0  0  0
  140.5700  155.9240  133.3710 C   0  0  0  0  0  0  0  0  0  0  0  0
  140.0180  154.6420  133.2260 C   0  0  0  0  0  0  0  0  0  0  0  0
  140.8910  153.5630  133.1280 C   0  0  0  0  0  0  0  0  0  0  0  0
  140.6200  152.2220  132.9850 C   0  0  0  0  0  0  0  0  0  0  0  0
  141.8630  151.6010  132.9280 C   0  0  0  0  0  0  0  0  0  0  0  0
  142.0340  150.1560  132.6790 C   0  0  0  0  0  0  0  0  0  0  0  0
  143.0390  149.6730  131.7870 N   0  0  0  0  0  0  0  0  0  0  0  0
  141.2320  149.3380  133.2050 O   0  0  0  0  0  0  0  0  0  0  0  0
  142.8670  152.5170  133.0540 N   0  0  0  0  0  0  0  0  0  0  0  0
  144.2750  152.2580  133.1610 C   0  0  0  0  0  0  0  0  0  0  0  0
  144.8050  151.3730  132.4330 O   0  0  0  0  0  0  0  0  0  0  0  0
  145.0450  152.9870  134.0770 O   0  0  0  0  0  0  0  0  0  0  0  0
  146.0260  153.9870  133.7650 C   0  0  0  0  0  0  0  0  0  0  0  0
  145.9540  155.0550  134.8710 C   0  0  0  0  0  0  0  0  0  0  0  0
  147.4430  153.3810  133.7570 C   0  0  0  0  0  0  0  0  0  0  0  0
  145.7050  154.6480  132.4100 C   0  0  0  0  0  0  0  0  0  0  0  0
  142.2520  153.7170  133.1680 C   0  0  0  0  0  0  0  0  0  0  0  0
  142.8290  154.9820  133.3370 C   0  0  0  0  0  0  0  0  0  0  0  0
  143.8450  157.7270  133.0560 C   0  0  0  0  0  0  0  0  0  0  0  0
  149.4743  158.7746  131.7232 H   0  0  0  0  0  0  0  0  0  0  0  0
  148.6348  158.4331  130.1724 H   0  0  0  0  0  0  0  0  0  0  0  0
  150.1927  159.3272  130.1724 H   0  0  0  0  0  0  0  0  0  0  0  0
  147.5999  160.4627  130.1936 H   0  0  0  0  0  0  0  0  0  0  0  0
  149.8136  162.1459  131.2748 H   0  0  0  0  0  0  0  0  0  0  0  0
  150.2324  161.2307  129.7870 H   0  0  0  0  0  0  0  0  0  0  0  0
  148.8282  162.3509  129.7870 H   0  0  0  0  0  0  0  0  0  0  0  0
  147.0190  160.8840  132.2440 H   0  0  0  0  0  0  0  0  0  0  0  0
  148.9486  158.8112  132.5221 H   0  0  0  0  0  0  0  0  0  0  0  0
  148.7175  159.7958  134.0125 H   0  0  0  0  0  0  0  0  0  0  0  0
  144.1209  161.0341  133.8655 H   0  0  0  0  0  0  0  0  0  0  0  0
  141.8241  160.6032  134.7286 H   0  0  0  0  0  0  0  0  0  0  0  0
  139.9050  156.7975  133.4398 H   0  0  0  0  0  0  0  0  0  0  0  0
  138.9285  154.4946  133.1909 H   0  0  0  0  0  0  0  0  0  0  0  0
  139.6313  151.7432  132.9279 H   0  0  0  0  0  0  0  0  0  0  0  0
  143.5950  150.3270  131.1940 H   0  0  0  0  0  0  0  0  0  0  0  0
  143.1720  148.6470  131.6570 H   0  0  0  0  0  0  0  0  0  0  0  0
  145.9870  154.5659  135.8557 H   0  0  0  0  0  0  0  0  0  0  0  0
  146.8079  155.7416  134.7739 H   0  0  0  0  0  0  0  0  0  0  0  0
  145.0157  155.6208  134.7739 H   0  0  0  0  0  0  0  0  0  0  0  0
  147.7851  153.2347  134.7922 H   0  0  0  0  0  0  0  0  0  0  0  0
  147.4245  152.4121  133.2366 H   0  0  0  0  0  0  0  0  0  0  0  0
  148.1308  154.0637  133.2366 H   0  0  0  0  0  0  0  0  0  0  0  0
  145.2304  155.6253  132.5821 H   0  0  0  0  0  0  0  0  0  0  0  0
  146.6357  154.7875  131.8405 H   0  0  0  0  0  0  0  0  0  0  0  0
  145.0199  154.0028  131.8405 H   0  0  0  0  0  0  0  0  0  0  0  0
  143.9213  155.0980  133.3961 H   0  0  0  0  0  0  0  0  0  0  0  0
  144.4091  156.9224  132.5616 H   0  0  0  0  0  0  0  0  0  0  0  0
  1  2  1  0
  2  3  1  0
  2  4  1  0
  4  5  1  0
  5  6  1  0
  6  7  2  0
  6  8  1  0
  8  9  1  0
  9 10  2  0
 10 11  1  0
 11 12  2  0
 12 13  1  0
 12 14  1  0
 14 15  1  0
 15 16  2  0
 16 17  1  0
 17 18  2  0
 18 19  1  0
 19 20  2  0
 20 21  1  0
 21 22  1  0
 21 23  2  0
 20 24  1  0
 24 25  1  0
 25 26  2  0
 25 27  1  0
 27 28  1  0
 28 29  1  0
 28 30  1  0
 28 31  1  0
 24 32  1  0
 32 33  2  0
 14 34  2  0
 34  9  1  0
 33 15  1  0
 32 18  1  0
  1 35  1  0
  1 36  1  0
  1 37  1  0
  2 38  1  0
  3 39  1  0
  3 40  1  0
  3 41  1  0
  4 42  1  0
  5 43  1  0
  5 44  1  0
 10 45  1  0
 11 46  1  0
 16 47  1  0
 17 48  1  0
 19 49  1  0
 22 50  1  0
 22 51  1  0
 29 52  1  0
 29 53  1  0
 29 54  1  0
 30 55  1  0
 30 56  1  0
 30 57  1  0
 31 58  1  0
 31 59  1  0
 31 60  1  0
 33 61  1  0
 34 62  1  0
M  CHG  1   8  -1
M  END
>  <UniqueID>  (66) 
63

>  <SMILES>  (66) 
CC(C)NCC(=O)[N-]c1ccc(F)c(-c2ccc3cc(C(N)=O)n(C(=O)OC(C)(C)C)c3c2)c1

>  <Energy>  (66) 
103.57575638758102

>  <Genealogy>  (66) 
CC(C)NCC(=O)[N-]c1ccc(F)c(-c2ccc3cc(C(N)=O)n(C(=O)OC(C)(C)C)c3c2)c1 (protonated)
CC(C)NCC(=O)[N-]c1ccc(F)c(-c2ccc3cc(C(N)=O)n(C(=O)OC(C)(C)C)c3c2)c1 (3D coordinates assigned)
CC(C)NCC(=O)[N-]c1ccc(F)c(-c2ccc3cc(C(N)=O)n(C(=O)OC(C)(C)C)c3c2)c1 (optimized conformer: 103.57575638758102 kcal/mol)

>  <smiles>  (66) 
CC(C)NCC(=O)Nc1ccc(F)c(-c2ccc3cc(C(N)=O)n(C(=O)OC(C)(C)C)c3c2)c1

>  <score_type>  (66) 
oracle

>  <origin>  (66) 
adg

>  <m_score__min__energy>  (66) 
-9.8800000000000008

>  <m_primary>  (66) 
energy

$$$$
67:0
     RDKit          3D

 27 28  0  0  0  0  0  0  0  0999 V2000
  143.7980  156.8040  134.6660 C   0  0  0  0  0  0  0  0  0  0  0  0
  144.0510  157.7060  133.5000 C   0  0  0  0  0  0  0  0  0  0  0  0
  143.1670  157.8240  132.6090 O   0  0  0  0  0  0  0  0  0  0  0  0
  145.2870  158.4270  133.3800 N   0  0  0  0  0  0  0  0  0  0  0  0
  145.4650  159.7780  133.4010 C   0  0  0  0  0  0  0  0  0  0  0  0
  144.4210  160.7870  133.6830 C   0  0  0  0  0  0  0  0  0  0  0  0
  143.0500  160.5300  133.3900 N   0  0  0  0  0  0  0  0  0  0  0  0
  144.7390  161.8810  134.2210 O   0  0  0  0  0  0  0  0  0  0  0  0
  146.8030  160.0980  133.1760 C   0  0  0  0  0  0  0  0  0  0  0  0
  147.4440  158.8910  133.0150 C   0  0  0  0  0  0  0  0  0  0  0  0
  148.7830  158.6160  132.7550 C   0  0  0  0  0  0  0  0  0  0  0  0
  149.1630  157.2710  132.6080 C   0  0  0  0  0  0  0  0  0  0  0  0
  148.2000  156.2360  132.6990 C   0  0  0  0  0  0  0  0  0  0  0  0
  148.6230  154.8040  132.5660 C   0  0  0  0  0  0  0  0  0  0  0  0
  146.8520  156.5520  132.9760 C   0  0  0  0  0  0  0  0  0  0  0  0
  146.5060  157.8990  133.1390 C   0  0  0  0  0  0  0  0  0  0  0  0
  143.9543  157.3613  135.6014 H   0  0  0  0  0  0  0  0  0  0  0  0
  142.7620  156.4362  134.6271 H   0  0  0  0  0  0  0  0  0  0  0  0
  144.4916  155.9511  134.6271 H   0  0  0  0  0  0  0  0  0  0  0  0
  142.7770  159.9440  132.5710 H   0  0  0  0  0  0  0  0  0  0  0  0
  147.2511  161.1018  133.1357 H   0  0  0  0  0  0  0  0  0  0  0  0
  149.5215  159.4265  132.6672 H   0  0  0  0  0  0  0  0  0  0  0  0
  150.2174  157.0197  132.4206 H   0  0  0  0  0  0  0  0  0  0  0  0
  148.7525  154.3655  133.5665 H   0  0  0  0  0  0  0  0  0  0  0  0
  147.8521  154.2434  132.0170 H   0  0  0  0  0  0  0  0  0  0  0  0
  149.5748  154.7523  132.0170 H   0  0  0  0  0  0  0  0  0  0  0  0
  146.0931  155.7603  133.0615 H   0  0  0  0  0  0  0  0  0  0  0  0
  1  2  1  0
  2  3  2  0
  2  4  1  0
  4  5  1  0
  5  6  1  0
  6  7  1  0
  6  8  2  0
  5  9  2  0
  9 10  1  0
 10 11  2  0
 11 12  1  0
 12 13  2  0
 13 14  1  0
 13 15  1  0
 15 16  2  0
 16  4  1  0
 16 10  1  0
  1 17  1  0
  1 18  1  0
  1 19  1  0
  7 20  1  0
  9 21  1  0
 11 22  1  0
 12 23  1  0
 14 24  1  0
 14 25  1  0
 14 26  1  0
 15 27  1  0
M  CHG  1   7  -1
M  END
>  <UniqueID>  (67) 
64

>  <SMILES>  (67) 
CC(=O)n1c(C([NH-])=O)cc2ccc(C)cc21

>  <Energy>  (67) 
65.36306973525245

>  <Genealogy>  (67) 
CC(=O)n1c(C([NH-])=O)cc2ccc(C)cc21 (protonated)
CC(=O)n1c(C([NH-])=O)cc2ccc(C)cc21 (3D coordinates assigned)
CC(=O)n1c(C([NH-])=O)cc2ccc(C)cc21 (optimized conformer: 65.36306973525245 kcal/mol)

>  <smiles>  (67) 
CC(=O)n1c(C(N)=O)cc2ccc(C)cc21

>  <score_type>  (67) 
oracle

>  <origin>  (67) 
adg

>  <m_score__min__energy>  (67) 
-5.8099999999999996

>  <m_primary>  (67) 
energy

$$$$
68:0
     RDKit          3D

 43 45  0  0  0  0  0  0  0  0999 V2000
  136.9390  160.1080  130.6310 C   0  0  0  0  0  0  0  0  0  0  0  0
  137.3520  158.8770  131.4500 C   0  0  0  0  0  0  0  0  0  0  0  0
  138.8140  158.7180  131.6040 N   0  0  0  0  0  0  0  0  0  0  0  0
  139.5930  159.9760  131.4900 C   0  0  0  0  0  0  0  0  0  0  0  0
  140.1310  160.4730  132.8440 C   0  0  0  0  0  0  0  0  0  0  0  0
  140.9390  159.3900  133.6090 C   0  0  0  0  0  0  0  0  0  0  0  0
  142.4280  159.6910  133.6370 C   0  0  0  0  0  0  0  0  0  0  0  0
  142.8990  161.0270  133.7370 C   0  0  0  0  0  0  0  0  0  0  0  0
  144.2750  161.3040  133.7700 C   0  0  0  0  0  0  0  0  0  0  0  0
  145.1590  160.2320  133.6910 C   0  0  0  0  0  0  0  0  0  0  0  0
  146.5330  160.2180  133.7240 C   0  0  0  0  0  0  0  0  0  0  0  0
  146.8920  158.8750  133.6170 C   0  0  0  0  0  0  0  0  0  0  0  0
  148.2900  158.4000  133.5200 C   0  0  0  0  0  0  0  0  0  0  0  0
  148.6130  157.0300  133.7600 N   0  0  0  0  0  0  0  0  0  0  0  0
  149.2170  159.2110  133.2550 O   0  0  0  0  0  0  0  0  0  0  0  0
  145.7790  158.0900  133.5230 N   0  0  0  0  0  0  0  0  0  0  0  0
  145.7210  156.6560  133.4580 C   0  0  0  0  0  0  0  0  0  0  0  0
  146.2720  156.0380  132.5090 O   0  0  0  0  0  0  0  0  0  0  0  0
  145.0680  155.9330  134.4490 O   0  0  0  0  0  0  0  0  0  0  0  0
  144.7270  158.9380  133.5700 C   0  0  0  0  0  0  0  0  0  0  0  0
  143.3610  158.6310  133.5560 C   0  0  0  0  0  0  0  0  0  0  0  0
  140.6740  157.9670  133.0790 C   0  0  0  0  0  0  0  0  0  0  0  0
  139.1960  157.8130  132.7120 C   0  0  0  0  0  0  0  0  0  0  0  0
  136.6644  160.9266  131.3126 H   0  0  0  0  0  0  0  0  0  0  0  0
  137.7798  160.4254  129.9968 H   0  0  0  0  0  0  0  0  0  0  0  0
  136.0768  159.8541  129.9968 H   0  0  0  0  0  0  0  0  0  0  0  0
  136.9063  158.9631  132.4520 H   0  0  0  0  0  0  0  0  0  0  0  0
  136.9928  157.9946  130.9001 H   0  0  0  0  0  0  0  0  0  0  0  0
  140.4451  159.8012  130.8167 H   0  0  0  0  0  0  0  0  0  0  0  0
  138.9150  160.7496  131.1005 H   0  0  0  0  0  0  0  0  0  0  0  0
  140.7863  161.3382  132.6648 H   0  0  0  0  0  0  0  0  0  0  0  0
  139.2634  160.7377  133.4662 H   0  0  0  0  0  0  0  0  0  0  0  0
  140.5742  159.4250  134.6462 H   0  0  0  0  0  0  0  0  0  0  0  0
  142.1768  161.8551  133.7893 H   0  0  0  0  0  0  0  0  0  0  0  0
  144.6432  162.3370  133.8557 H   0  0  0  0  0  0  0  0  0  0  0  0
  147.2065  161.0829  133.8154 H   0  0  0  0  0  0  0  0  0  0  0  0
  147.8680  156.3180  133.9270 H   0  0  0  0  0  0  0  0  0  0  0  0
  149.6070  156.7120  133.7280 H   0  0  0  0  0  0  0  0  0  0  0  0
  143.0206  157.5875  133.4835 H   0  0  0  0  0  0  0  0  0  0  0  0
  141.2916  157.7897  132.1862 H   0  0  0  0  0  0  0  0  0  0  0  0
  140.9305  157.2366  133.8605 H   0  0  0  0  0  0  0  0  0  0  0  0
  139.0108  156.7733  132.4042 H   0  0  0  0  0  0  0  0  0  0  0  0
  138.5927  158.0741  133.5940 H   0  0  0  0  0  0  0  0  0  0  0  0
  1  2  1  0
  2  3  1  0
  3  4  1  0
  4  5  1  0
  5  6  1  0
  6  7  1  0
  7  8  2  0
  8  9  1  0
  9 10  2  0
 10 11  1  0
 11 12  2  0
 12 13  1  0
 13 14  1  0
 13 15  2  0
 12 16  1  0
 16 17  1  0
 17 18  2  0
 17 19  1  0
 16 20  1  0
 20 21  2  0
  6 22  1  0
 22 23  1  0
 23  3  1  0
 21  7  1  0
 20 10  1  0
  1 24  1  0
  1 25  1  0
  1 26  1  0
  2 27  1  0
  2 28  1  0
  4 29  1  0
  4 30  1  0
  5 31  1  0
  5 32  1  0
  6 33  1  0
  8 34  1  0
  9 35  1  0
 11 36  1  0
 14 37  1  0
 14 38  1  0
 21 39  1  0
 22 40  1  0
 22 41  1  0
 23 42  1  0
 23 43  1  0
M  CHG  1  19  -1
M  END
>  <UniqueID>  (68) 
65

>  <SMILES>  (68) 
CCN1CCC(c2ccc3cc(C(N)=O)n(C(=O)[O-])c3c2)CC1

>  <Energy>  (68) 
93.78638262285455

>  <Genealogy>  (68) 
CCN1CCC(c2ccc3cc(C(N)=O)n(C(=O)[O-])c3c2)CC1 (protonated)
CCN1CCC(c2ccc3cc(C(N)=O)n(C(=O)[O-])c3c2)CC1 (3D coordinates assigned)
CCN1CCC(c2ccc3cc(C(N)=O)n(C(=O)[O-])c3c2)CC1 (nonaromatic ring conformer: 93.78638262285455 kcal/mol)

>  <smiles>  (68) 
CCN1CCC(c2ccc3cc(C(N)=O)n(C(=O)O)c3c2)CC1

>  <score_type>  (68) 
oracle

>  <origin>  (68) 
adg

>  <m_score__min__energy>  (68) 
-8.1300000000000008

>  <m_primary>  (68) 
energy

$$$$
69:0
     RDKit          3D

 65 69  0  0  0  0  0  0  0  0999 V2000
  141.3850  159.6850  135.5170 C   0  0  0  0  0  0  0  0  0  0  0  0
  141.3350  160.0910  134.1010 N   0  0  0  0  0  0  0  0  0  0  0  0
  141.3170  158.9500  133.1800 C   0  0  0  0  0  0  0  0  0  0  0  0
  142.6280  158.1480  133.1760 C   0  0  0  0  0  0  0  0  0  0  0  0
  143.8540  158.9490  133.3950 N   0  0  0  0  0  0  0  0  0  0  0  0
  145.1540  158.2810  133.3310 C   0  0  0  0  0  0  0  0  0  0  0  0
  146.3730  159.0090  133.4540 C   0  0  0  0  0  0  0  0  0  0  0  0
  147.6150  158.3630  133.3970 C   0  0  0  0  0  0  0  0  0  0  0  0
  147.6270  156.9860  133.2250 C   0  0  0  0  0  0  0  0  0  0  0  0
  148.7310  156.2200  133.1240 N   0  0  0  0  0  0  0  0  0  0  0  0
  148.2380  154.9720  132.9480 C   0  0  0  0  0  0  0  0  0  0  0  0
  146.8520  155.0090  132.9520 C   0  0  0  0  0  0  0  0  0  0  0  0
  145.9540  153.8410  132.8290 C   0  0  0  0  0  0  0  0  0  0  0  0
  146.4770  152.5890  132.4190 C   0  0  0  0  0  0  0  0  0  0  0  0
  145.6430  151.4640  132.3190 C   0  0  0  0  0  0  0  0  0  0  0  0
  144.2970  151.6190  132.6300 C   0  0  0  0  0  0  0  0  0  0  0  0
  143.2830  150.6920  132.6260 C   0  0  0  0  0  0  0  0  0  0  0  0
  142.1520  151.3860  133.0400 C   0  0  0  0  0  0  0  0  0  0  0  0
  140.8390  150.7410  133.2070 C   0  0  0  0  0  0  0  0  0  0  0  0
  139.7070  151.1960  132.4640 N   0  0  0  0  0  0  0  0  0  0  0  0
  140.7020  149.8100  134.0440 O   0  0  0  0  0  0  0  0  0  0  0  0
  142.4360  152.7020  133.2680 N   0  0  0  0  0  0  0  0  0  0  0  0
  141.4880  153.7650  133.5240 C   0  0  0  0  0  0  0  0  0  0  0  0
  140.3230  153.7000  133.0500 O   0  0  0  0  0  0  0  0  0  0  0  0
  141.8510  154.8430  134.3440 O   0  0  0  0  0  0  0  0  0  0  0  0
  142.2570  154.7730  135.7180 C   0  0  0  0  0  0  0  0  0  0  0  0
  143.7390  155.1680  135.8680 C   0  0  0  0  0  0  0  0  0  0  0  0
  142.0840  153.3130  136.1650 C   0  0  0  0  0  0  0  0  0  0  0  0
  141.3600  155.6740  136.5900 C   0  0  0  0  0  0  0  0  0  0  0  0
  143.7670  152.8210  133.0290 C   0  0  0  0  0  0  0  0  0  0  0  0
  144.5870  153.9510  133.1650 C   0  0  0  0  0  0  0  0  0  0  0  0
  146.4810  156.2950  133.1220 N   0  0  0  0  0  0  0  0  0  0  0  0
  145.2530  156.8790  133.1340 C   0  0  0  0  0  0  0  0  0  0  0  0
  143.8040  160.3670  133.8160 C   0  0  0  0  0  0  0  0  0  0  0  0
  142.4150  161.0120  133.7290 C   0  0  0  0  0  0  0  0  0  0  0  0
  141.2757  160.5729  136.1571 H   0  0  0  0  0  0  0  0  0  0  0  0
  140.5669  158.9798  135.7253 H   0  0  0  0  0  0  0  0  0  0  0  0
  142.3497  159.1993  135.7253 H   0  0  0  0  0  0  0  0  0  0  0  0
  140.4977  158.2774  133.4741 H   0  0  0  0  0  0  0  0  0  0  0  0
  141.1801  159.3535  132.1659 H   0  0  0  0  0  0  0  0  0  0  0  0
  142.5677  157.3921  133.9729 H   0  0  0  0  0  0  0  0  0  0  0  0
  142.7200  157.7156  132.1687 H   0  0  0  0  0  0  0  0  0  0  0  0
  146.3381  160.0992  133.5964 H   0  0  0  0  0  0  0  0  0  0  0  0
  148.5530  158.9306  133.4860 H   0  0  0  0  0  0  0  0  0  0  0  0
  148.8459  154.0641  132.8208 H   0  0  0  0  0  0  0  0  0  0  0  0
  147.5462  152.4980  132.1770 H   0  0  0  0  0  0  0  0  0  0  0  0
  146.0428  150.4889  132.0039 H   0  0  0  0  0  0  0  0  0  0  0  0
  143.3515  149.6285  132.3536 H   0  0  0  0  0  0  0  0  0  0  0  0
  139.7880  152.0130  131.8200 H   0  0  0  0  0  0  0  0  0  0  0  0
  138.7900  150.7050  132.5510 H   0  0  0  0  0  0  0  0  0  0  0  0
  143.9941  155.2360  136.9359 H   0  0  0  0  0  0  0  0  0  0  0  0
  144.3717  154.4071  135.3876 H   0  0  0  0  0  0  0  0  0  0  0  0
  143.9091  156.1428  135.3876 H   0  0  0  0  0  0  0  0  0  0  0  0
  142.0782  153.2642  137.2639 H   0  0  0  0  0  0  0  0  0  0  0  0
  141.1331  152.9205  135.7755 H   0  0  0  0  0  0  0  0  0  0  0  0
  142.9169  152.7092  135.7755 H   0  0  0  0  0  0  0  0  0  0  0  0
  141.5605  155.4726  137.6526 H   0  0  0  0  0  0  0  0  0  0  0  0
  141.5762  156.7298  136.3698 H   0  0  0  0  0  0  0  0  0  0  0  0
  140.3032  155.4625  136.3698 H   0  0  0  0  0  0  0  0  0  0  0  0
  144.1732  154.9040  133.5263 H   0  0  0  0  0  0  0  0  0  0  0  0
  144.3468  156.2717  132.9927 H   0  0  0  0  0  0  0  0  0  0  0  0
  144.1449  160.4268  134.8601 H   0  0  0  0  0  0  0  0  0  0  0  0
  144.4487  160.9215  133.1182 H   0  0  0  0  0  0  0  0  0  0  0  0
  142.3869  161.8782  134.4064 H   0  0  0  0  0  0  0  0  0  0  0  0
  142.2522  161.3068  132.6818 H   0  0  0  0  0  0  0  0  0  0  0  0
  1  2  1  0
  2  3  1  0
  3  4  1  0
  4  5  1  0
  5  6  1  0
  6  7  1  0
  7  8  2  0
  8  9  1  0
  9 10  2  0
 10 11  1  0
 11 12  2  0
 12 13  1  0
 13 14  2  0
 14 15  1  0
 15 16  2  0
 16 17  1  0
 17 18  2  0
 18 19  1  0
 19 20  1  0
 19 21  2  0
 18 22  1  0
 22 23  1  0
 23 24  2  0
 23 25  1  0
 25 26  1  0
 26 27  1  0
 26 28  1  0
 26 29  1  0
 22 30  1  0
 30 31  2  0
 12 32  1  0
 32 33  1  0
  5 34  1  0
 34 35  1  0
 35  2  1  0
 33  6  2  0
 32  9  1  0
 31 13  1  0
 30 16  1  0
  1 36  1  0
  1 37  1  0
  1 38  1  0
  3 39  1  0
  3 40  1  0
  4 41  1  0
  4 42  1  0
  7 43  1  0
  8 44  1  0
 11 45  1  0
 14 46  1  0
 15 47  1  0
 17 48  1  0
 20 49  1  0
 20 50  1  0
 27 51  1  0
 27 52  1  0
 27 53  1  0
 28 54  1  0
 28 55  1  0
 28 56  1  0
 29 57  1  0
 29 58  1  0
 29 59  1  0
 31 60  1  0
 33 61  1  0
 34 62  1  0
 34 63  1  0
 35 64  1  0
 35 65  1  0
M  END
>  <UniqueID>  (69) 
66

>  <SMILES>  (69) 
CN1CCN(c2ccc3ncc(-c4ccc5cc(C(N)=O)n(C(=O)OC(C)(C)C)c5c4)n3c2)CC1

>  <Energy>  (69) 
155.96977660256928

>  <Genealogy>  (69) 
CN1CCN(c2ccc3ncc(-c4ccc5cc(C(N)=O)n(C(=O)OC(C)(C)C)c5c4)n3c2)CC1 (3D coordinates assigned)
CN1CCN(c2ccc3ncc(-c4ccc5cc(C(N)=O)n(C(=O)OC(C)(C)C)c5c4)n3c2)CC1 (nonaromatic ring conformer: 155.96977660256928 kcal/mol)

>  <smiles>  (69) 
CN1CCN(c2ccc3ncc(-c4ccc5cc(C(N)=O)n(C(=O)OC(C)(C)C)c5c4)n3c2)CC1

>  <score_type>  (69) 
oracle

>  <origin>  (69) 
adg

>  <m_score__min__energy>  (69) 
-10.1

>  <m_primary>  (69) 
energy

$$$$
70:0
     RDKit          3D

 48 50  0  0  0  0  0  0  0  0999 V2000
  141.0710  159.3610  136.4970 C   0  0  0  0  0  0  0  0  0  0  0  0
  141.5260  158.6710  135.1980 C   0  0  0  0  0  0  0  0  0  0  0  0
  140.7050  159.1760  133.9960 C   0  0  0  0  0  0  0  0  0  0  0  0
  141.3170  157.1560  135.3430 C   0  0  0  0  0  0  0  0  0  0  0  0
  142.9270  158.8840  134.9790 O   0  0  0  0  0  0  0  0  0  0  0  0
  143.6390  158.6020  133.8030 C   0  0  0  0  0  0  0  0  0  0  0  0
  143.1420  157.8710  132.9040 O   0  0  0  0  0  0  0  0  0  0  0  0
  144.9380  159.1820  133.6120 N   0  0  0  0  0  0  0  0  0  0  0  0
  145.2930  160.4960  133.7020 C   0  0  0  0  0  0  0  0  0  0  0  0
  144.3670  161.6370  133.8580 C   0  0  0  0  0  0  0  0  0  0  0  0
  142.9600  161.4670  133.7090 N   0  0  0  0  0  0  0  0  0  0  0  0
  144.8300  162.7890  134.0800 O   0  0  0  0  0  0  0  0  0  0  0  0
  146.6690  160.6400  133.5420 C   0  0  0  0  0  0  0  0  0  0  0  0
  147.1490  159.3660  133.3400 C   0  0  0  0  0  0  0  0  0  0  0  0
  148.4510  158.9220  133.1330 C   0  0  0  0  0  0  0  0  0  0  0  0
  148.6610  157.5410  132.9810 C   0  0  0  0  0  0  0  0  0  0  0  0
  147.5740  156.6290  133.0450 C   0  0  0  0  0  0  0  0  0  0  0  0
  147.8080  155.1710  132.8940 C   0  0  0  0  0  0  0  0  0  0  0  0
  146.7470  154.2570  133.0240 C   0  0  0  0  0  0  0  0  0  0  0  0
  146.9680  152.8860  132.8770 C   0  0  0  0  0  0  0  0  0  0  0  0
  148.2550  152.3930  132.6020 C   0  0  0  0  0  0  0  0  0  0  0  0
  148.4710  150.9330  132.4440 C   0  0  0  0  0  0  0  0  0  0  0  0
  147.4580  150.0810  131.9010 N   0  0  0  0  0  0  0  0  0  0  0  0
  149.5750  150.4270  132.7810 O   0  0  0  0  0  0  0  0  0  0  0  0
  149.3140  153.3070  132.4600 C   0  0  0  0  0  0  0  0  0  0  0  0
  149.0930  154.6790  132.6070 C   0  0  0  0  0  0  0  0  0  0  0  0
  146.2650  157.1230  133.2590 C   0  0  0  0  0  0  0  0  0  0  0  0
  146.0850  158.5050  133.3880 C   0  0  0  0  0  0  0  0  0  0  0  0
  141.4443  158.7948  137.3631 H   0  0  0  0  0  0  0  0  0  0  0  0
  141.4716  160.3850  136.5280 H   0  0  0  0  0  0  0  0  0  0  0  0
  139.9720  159.3961  136.5280 H   0  0  0  0  0  0  0  0  0  0  0  0
  139.8205  159.7201  134.3588 H   0  0  0  0  0  0  0  0  0  0  0  0
  141.3247  159.8492  133.3855 H   0  0  0  0  0  0  0  0  0  0  0  0
  140.3836  158.3192  133.3855 H   0  0  0  0  0  0  0  0  0  0  0  0
  141.2805  156.8914  136.4101 H   0  0  0  0  0  0  0  0  0  0  0  0
  140.3707  156.8687  134.8614 H   0  0  0  0  0  0  0  0  0  0  0  0
  142.1501  156.6232  134.8614 H   0  0  0  0  0  0  0  0  0  0  0  0
  142.5420  160.5160  133.6060 H   0  0  0  0  0  0  0  0  0  0  0  0
  147.2492  161.5741  133.5710 H   0  0  0  0  0  0  0  0  0  0  0  0
  149.2910  159.6308  133.0896 H   0  0  0  0  0  0  0  0  0  0  0  0
  149.6793  157.1617  132.8104 H   0  0  0  0  0  0  0  0  0  0  0  0
  145.7340  154.6254  133.2434 H   0  0  0  0  0  0  0  0  0  0  0  0
  146.1263  152.1849  132.9774 H   0  0  0  0  0  0  0  0  0  0  0  0
  146.5930  150.4660  131.4630 H   0  0  0  0  0  0  0  0  0  0  0  0
  147.6150  149.0500  131.8570 H   0  0  0  0  0  0  0  0  0  0  0  0
  150.3250  152.9389  132.2313 H   0  0  0  0  0  0  0  0  0  0  0  0
  149.9329  155.3808  132.4970 H   0  0  0  0  0  0  0  0  0  0  0  0
  145.4082  156.4361  133.3225 H   0  0  0  0  0  0  0  0  0  0  0  0
  1  2  1  0
  2  3  1  0
  2  4  1  0
  2  5  1  0
  5  6  1  0
  6  7  2  0
  6  8  1  0
  8  9  1  0
  9 10  1  0
 10 11  1  0
 10 12  2  0
  9 13  2  0
 13 14  1  0
 14 15  2  0
 15 16  1  0
 16 17  2  0
 17 18  1  0
 18 19  2  0
 19 20  1  0
 20 21  2  0
 21 22  1  0
 22 23  1  0
 22 24  2  0
 21 25  1  0
 25 26  2  0
 17 27  1  0
 27 28  2  0
 28  8  1  0
 28 14  1  0
 26 18  1  0
  1 29  1  0
  1 30  1  0
  1 31  1  0
  3 32  1  0
  3 33  1  0
  3 34  1  0
  4 35  1  0
  4 36  1  0
  4 37  1  0
 11 38  1  0
 13 39  1  0
 15 40  1  0
 16 41  1  0
 19 42  1  0
 20 43  1  0
 23 44  1  0
 23 45  1  0
 25 46  1  0
 26 47  1  0
 27 48  1  0
M  CHG  1  11  -1
M  END
>  <UniqueID>  (70) 
67

>  <SMILES>  (70) 
CC(C)(C)OC(=O)n1c(C([NH-])=O)cc2ccc(-c3ccc(C(N)=O)cc3)cc21

>  <Energy>  (70) 
90.82069639318433

>  <Genealogy>  (70) 
CC(C)(C)OC(=O)n1c(C([NH-])=O)cc2ccc(-c3ccc(C(N)=O)cc3)cc21 (protonated)
CC(C)(C)OC(=O)n1c(C([NH-])=O)cc2ccc(-c3ccc(C(N)=O)cc3)cc21 (3D coordinates assigned)
CC(C)(C)OC(=O)n1c(C([NH-])=O)cc2ccc(-c3ccc(C(N)=O)cc3)cc21 (optimized conformer: 90.82069639318433 kcal/mol)

>  <smiles>  (70) 
CC(C)(C)OC(=O)n1c(C(N)=O)cc2ccc(-c3ccc(C(N)=O)cc3)cc21

>  <score_type>  (70) 
oracle

>  <origin>  (70) 
adg

>  <m_score__min__energy>  (70) 
-8.9299999999999997

>  <m_primary>  (70) 
energy

$$$$
71:0
     RDKit          3D

 63 66  0  0  0  0  0  0  0  0999 V2000
  148.3740  158.0280  134.4770 C   0  0  0  0  0  0  0  0  0  0  0  0
  147.6860  156.9320  133.6420 C   0  0  0  0  0  0  0  0  0  0  0  0
  146.2280  156.7980  134.1060 C   0  0  0  0  0  0  0  0  0  0  0  0
  147.7010  157.2980  132.1460 C   0  0  0  0  0  0  0  0  0  0  0  0
  148.3170  155.6620  133.8600 O   0  0  0  0  0  0  0  0  0  0  0  0
  147.7270  154.5280  134.4400 C   0  0  0  0  0  0  0  0  0  0  0  0
  147.6520  154.4080  135.6930 O   0  0  0  0  0  0  0  0  0  0  0  0
  147.2150  153.4880  133.5930 N   0  0  0  0  0  0  0  0  0  0  0  0
  147.9280  152.6610  132.7750 C   0  0  0  0  0  0  0  0  0  0  0  0
  149.3750  152.7760  132.4900 C   0  0  0  0  0  0  0  0  0  0  0  0
  149.9650  154.0500  132.2220 N   0  0  0  0  0  0  0  0  0  0  0  0
  150.1070  151.7530  132.5140 O   0  0  0  0  0  0  0  0  0  0  0  0
  147.0860  151.7360  132.1620 C   0  0  0  0  0  0  0  0  0  0  0  0
  145.8240  152.0250  132.6300 C   0  0  0  0  0  0  0  0  0  0  0  0
  144.6060  151.4180  132.3450 C   0  0  0  0  0  0  0  0  0  0  0  0
  143.4590  151.9090  132.9890 C   0  0  0  0  0  0  0  0  0  0  0  0
  143.5490  152.9800  133.9190 C   0  0  0  0  0  0  0  0  0  0  0  0
  142.3110  153.5170  134.6150 C   0  0  0  0  0  0  0  0  0  0  0  0
  141.4920  154.4840  133.7200 C   0  0  0  0  0  0  0  0  0  0  0  0
  141.5730  155.9390  134.2090 C   0  0  0  0  0  0  0  0  0  0  0  0
  141.0990  156.0830  135.6090 N   0  0  0  0  0  0  0  0  0  0  0  0
  141.4840  157.3950  136.1720 C   0  0  0  0  0  0  0  0  0  0  0  0
  141.5520  158.4580  135.0960 C   0  0  0  0  0  0  0  0  0  0  0  0
  142.7570  159.1510  134.8910 C   0  0  0  0  0  0  0  0  0  0  0  0
  142.8530  160.1230  133.8950 C   0  0  0  0  0  0  0  0  0  0  0  0
  141.7510  160.4130  133.0890 C   0  0  0  0  0  0  0  0  0  0  0  0
  140.5460  159.7280  133.2720 C   0  0  0  0  0  0  0  0  0  0  0  0
  139.1870  160.1250  132.2310 Cl  0  0  0  0  0  0  0  0  0  0  0  0
  140.4380  158.7450  134.2750 C   0  0  0  0  0  0  0  0  0  0  0  0
  138.9140  157.8810  134.4920 Cl  0  0  0  0  0  0  0  0  0  0  0  0
  141.5050  154.9690  136.5100 C   0  0  0  0  0  0  0  0  0  0  0  0
  142.6850  154.1510  135.9680 C   0  0  0  0  0  0  0  0  0  0  0  0
  144.8060  153.5770  134.1690 C   0  0  0  0  0  0  0  0  0  0  0  0
  145.9290  153.0820  133.4950 C   0  0  0  0  0  0  0  0  0  0  0  0
  148.2388  157.8127  135.5472 H   0  0  0  0  0  0  0  0  0  0  0  0
  149.4480  158.0496  134.2401 H   0  0  0  0  0  0  0  0  0  0  0  0
  147.9266  159.0046  134.2401 H   0  0  0  0  0  0  0  0  0  0  0  0
  146.1919  156.7947  135.2054 H   0  0  0  0  0  0  0  0  0  0  0  0
  145.6417  157.6461  133.7225 H   0  0  0  0  0  0  0  0  0  0  0  0
  145.8061  155.8573  133.7225 H   0  0  0  0  0  0  0  0  0  0  0  0
  147.7458  158.3916  132.0365 H   0  0  0  0  0  0  0  0  0  0  0  0
  148.5813  156.8451  131.6665 H   0  0  0  0  0  0  0  0  0  0  0  0
  146.7866  156.9187  131.6665 H   0  0  0  0  0  0  0  0  0  0  0  0
  150.9920  154.1270  132.0520 H   0  0  0  0  0  0  0  0  0  0  0  0
  149.3820  154.9120  132.1510 H   0  0  0  0  0  0  0  0  0  0  0  0
  147.3693  150.9430  131.4543 H   0  0  0  0  0  0  0  0  0  0  0  0
  144.5429  150.5788  131.6367 H   0  0  0  0  0  0  0  0  0  0  0  0
  142.4790  151.4594  132.7711 H   0  0  0  0  0  0  0  0  0  0  0  0
  141.6462  152.6629  134.8117 H   0  0  0  0  0  0  0  0  0  0  0  0
  141.8836  154.4333  132.6933 H   0  0  0  0  0  0  0  0  0  0  0  0
  140.4380  154.1721  133.7631 H   0  0  0  0  0  0  0  0  0  0  0  0
  142.6188  156.2751  134.1519 H   0  0  0  0  0  0  0  0  0  0  0  0
  140.9228  156.5501  133.5658 H   0  0  0  0  0  0  0  0  0  0  0  0
  140.7395  157.6942  136.9244 H   0  0  0  0  0  0  0  0  0  0  0  0
  142.4807  157.2980  136.6271 H   0  0  0  0  0  0  0  0  0  0  0  0
  143.6306  158.9255  135.5202 H   0  0  0  0  0  0  0  0  0  0  0  0
  143.7998  160.6624  133.7444 H   0  0  0  0  0  0  0  0  0  0  0  0
  141.8308  161.1829  132.3074 H   0  0  0  0  0  0  0  0  0  0  0  0
  141.7920  155.3937  137.4832 H   0  0  0  0  0  0  0  0  0  0  0  0
  140.6460  154.2870  136.5933 H   0  0  0  0  0  0  0  0  0  0  0  0
  143.5541  154.8115  135.8327 H   0  0  0  0  0  0  0  0  0  0  0  0
  142.9299  153.3531  136.6846 H   0  0  0  0  0  0  0  0  0  0  0  0
  144.8997  154.4127  134.8781 H   0  0  0  0  0  0  0  0  0  0  0  0
  1  2  1  0
  2  3  1  0
  2  4  1  0
  2  5  1  0
  5  6  1  0
  6  7  2  0
  6  8  1  0
  8  9  1  0
  9 10  1  0
 10 11  1  0
 10 12  2  0
  9 13  2  0
 13 14  1  0
 14 15  2  0
 15 16  1  0
 16 17  2  0
 17 18  1  0
 18 19  1  0
 19 20  1  0
 20 21  1  0
 21 22  1  0
 22 23  1  0
 23 24  2  0
 24 25  1  0
 25 26  2  0
 26 27  1  0
 27 28  1  0
 27 29  2  0
 29 30  1  0
 21 31  1  0
 31 32  1  0
 17 33  1  0
 33 34  2  0
 34  8  1  0
 34 14  1  0
 32 18  1  0
 29 23  1  0
  1 35  1  0
  1 36  1  0
  1 37  1  0
  3 38  1  0
  3 39  1  0
  3 40  1  0
  4 41  1  0
  4 42  1  0
  4 43  1  0
 11 44  1  0
 11 45  1  0
 13 46  1  0
 15 47  1  0
 16 48  1  0
 18 49  1  0
 19 50  1  0
 19 51  1  0
 20 52  1  0
 20 53  1  0
 22 54  1  0
 22 55  1  0
 24 56  1  0
 25 57  1  0
 26 58  1  0
 31 59  1  0
 31 60  1  0
 32 61  1  0
 32 62  1  0
 33 63  1  0
M  END
>  <UniqueID>  (71) 
68

>  <SMILES>  (71) 
CC(C)(C)OC(=O)n1c(C(N)=O)cc2ccc(C3CCN(Cc4cccc(Cl)c4Cl)CC3)cc21

>  <Energy>  (71) 
111.37436673005843

>  <Genealogy>  (71) 
CC(C)(C)OC(=O)n1c(C(N)=O)cc2ccc(C3CCN(Cc4cccc(Cl)c4Cl)CC3)cc21 (3D coordinates assigned)
CC(C)(C)OC(=O)n1c(C(N)=O)cc2ccc(C3CCN(Cc4cccc(Cl)c4Cl)CC3)cc21 (nonaromatic ring conformer: 111.37436673005843 kcal/mol)

>  <smiles>  (71) 
CC(C)(C)OC(=O)n1c(C(N)=O)cc2ccc(C3CCN(Cc4cccc(Cl)c4Cl)CC3)cc21

>  <score_type>  (71) 
oracle

>  <origin>  (71) 
adg

>  <m_score__min__energy>  (71) 
-10.1

>  <m_primary>  (71) 
energy

$$$$
72:0
     RDKit          3D

 63 65  0  0  0  0  0  0  0  0999 V2000
  148.1790  152.2080  132.6060 C   0  0  0  0  0  0  0  0  0  0  0  0
  148.3790  153.3690  133.4050 O   0  0  0  0  0  0  0  0  0  0  0  0
  148.1230  154.6590  132.9320 C   0  0  0  0  0  0  0  0  0  0  0  0
  149.0740  155.4430  132.6640 O   0  0  0  0  0  0  0  0  0  0  0  0
  146.6980  155.1390  132.8310 C   0  0  1  0  0  0  0  0  0  0  0  0
  145.8640  154.6140  134.0150 C   0  0  0  0  0  0  0  0  0  0  0  0
  144.3960  154.9000  133.8280 C   0  0  0  0  0  0  0  0  0  0  0  0
  143.5750  153.9840  133.1270 C   0  0  0  0  0  0  0  0  0  0  0  0
  142.1930  154.2100  133.0060 C   0  0  0  0  0  0  0  0  0  0  0  0
  141.6640  155.3500  133.6030 C   0  0  0  0  0  0  0  0  0  0  0  0
  140.3590  155.7790  133.6910 C   0  0  0  0  0  0  0  0  0  0  0  0
  140.4040  156.9530  134.4410 C   0  0  0  0  0  0  0  0  0  0  0  0
  139.2170  157.7870  134.7200 C   0  0  0  0  0  0  0  0  0  0  0  0
  138.9710  158.2530  136.0450 N   0  0  0  0  0  0  0  0  0  0  0  0
  138.3930  158.0600  133.8070 O   0  0  0  0  0  0  0  0  0  0  0  0
  141.6880  157.2370  134.8070 N   0  0  0  0  0  0  0  0  0  0  0  0
  142.1500  158.2860  135.6720 C   0  0  0  0  0  0  0  0  0  0  0  0
  141.6570  158.4100  136.8240 O   0  0  0  0  0  0  0  0  0  0  0  0
  143.1810  159.1330  135.2370 O   0  0  0  0  0  0  0  0  0  0  0  0
  143.2730  159.7710  133.9550 C   0  0  0  0  0  0  0  0  0  0  0  0
  141.8700  160.0650  133.3910 C   0  0  0  0  0  0  0  0  0  0  0  0
  143.9930  158.7930  133.0130 C   0  0  0  0  0  0  0  0  0  0  0  0
  144.1060  161.0650  134.0550 C   0  0  0  0  0  0  0  0  0  0  0  0
  142.4450  156.2480  134.2820 C   0  0  0  0  0  0  0  0  0  0  0  0
  143.8230  156.0460  134.4210 C   0  0  0  0  0  0  0  0  0  0  0  0
  146.6540  156.6040  132.7890 N   0  0  0  0  0  0  0  0  0  0  0  0
  147.2400  157.4170  133.8180 C   0  0  0  0  0  0  0  0  0  0  0  0
  147.7880  156.8800  134.8200 O   0  0  0  0  0  0  0  0  0  0  0  0
  147.2410  158.9130  133.6910 C   0  0  0  0  0  0  0  0  0  0  0  0
  148.1140  159.3490  132.5450 C   0  0  0  0  0  0  0  0  0  0  0  0
  149.3010  158.6530  132.2510 C   0  0  0  0  0  0  0  0  0  0  0  0
  150.1250  159.0800  131.2030 C   0  0  0  0  0  0  0  0  0  0  0  0
  149.7740  160.2020  130.4450 C   0  0  0  0  0  0  0  0  0  0  0  0
  148.6000  160.9030  130.7390 C   0  0  0  0  0  0  0  0  0  0  0  0
  147.7750  160.4850  131.7890 C   0  0  0  0  0  0  0  0  0  0  0  0
  148.0287  151.3353  133.2585 H   0  0  0  0  0  0  0  0  0  0  0  0
  147.2918  152.3482  131.9710 H   0  0  0  0  0  0  0  0  0  0  0  0
  149.0620  152.0433  131.9710 H   0  0  0  0  0  0  0  0  0  0  0  0
  146.2658  154.7464  131.8988 H   0  0  0  0  0  0  0  0  0  0  0  0
  146.0082  153.5268  134.0992 H   0  0  0  0  0  0  0  0  0  0  0  0
  146.2013  155.1263  134.9281 H   0  0  0  0  0  0  0  0  0  0  0  0
  144.0226  153.0876  132.6731 H   0  0  0  0  0  0  0  0  0  0  0  0
  141.5495  153.5073  132.4563 H   0  0  0  0  0  0  0  0  0  0  0  0
  139.4688  155.2972  133.2604 H   0  0  0  0  0  0  0  0  0  0  0  0
  139.5710  158.9920  136.4740 H   0  0  0  0  0  0  0  0  0  0  0  0
  141.1644  160.2129  134.2218 H   0  0  0  0  0  0  0  0  0  0  0  0
  141.9061  160.9751  132.7742 H   0  0  0  0  0  0  0  0  0  0  0  0
  141.5376  159.2170  132.7742 H   0  0  0  0  0  0  0  0  0  0  0  0
  144.5416  158.0478  133.6077 H   0  0  0  0  0  0  0  0  0  0  0  0
  143.2531  158.2831  132.3785 H   0  0  0  0  0  0  0  0  0  0  0  0
  144.6996  159.3481  132.3785 H   0  0  0  0  0  0  0  0  0  0  0  0
  144.2677  161.3161  135.1137 H   0  0  0  0  0  0  0  0  0  0  0  0
  145.0775  160.9148  133.5613 H   0  0  0  0  0  0  0  0  0  0  0  0
  143.5671  161.8871  133.5613 H   0  0  0  0  0  0  0  0  0  0  0  0
  144.4442  156.7624  134.9785 H   0  0  0  0  0  0  0  0  0  0  0  0
  146.2070  157.0820  131.9750 H   0  0  0  0  0  0  0  0  0  0  0  0
  146.2126  159.2611  133.5143 H   0  0  0  0  0  0  0  0  0  0  0  0
  147.6361  159.3467  134.6215 H   0  0  0  0  0  0  0  0  0  0  0  0
  149.5821  157.7715  132.8459 H   0  0  0  0  0  0  0  0  0  0  0  0
  151.0510  158.5318  130.9750 H   0  0  0  0  0  0  0  0  0  0  0  0
  150.4205  160.5326  129.6187 H   0  0  0  0  0  0  0  0  0  0  0  0
  148.3244  161.7855  130.1430 H   0  0  0  0  0  0  0  0  0  0  0  0
  146.8587  161.0466  132.0236 H   0  0  0  0  0  0  0  0  0  0  0  0
  1  2  1  0
  2  3  1  0
  3  4  2  0
  3  5  1  0
  5  6  1  0
  6  7  1  0
  7  8  2  0
  8  9  1  0
  9 10  2  0
 10 11  1  0
 11 12  2  0
 12 13  1  0
 13 14  1  0
 13 15  2  0
 12 16  1  0
 16 17  1  0
 17 18  2  0
 17 19  1  0
 19 20  1  0
 20 21  1  0
 20 22  1  0
 20 23  1  0
 16 24  1  0
 24 25  2  0
  5 26  1  0
 26 27  1  0
 27 28  2  0
 27 29  1  0
 29 30  1  0
 30 31  2  0
 31 32  1  0
 32 33  2  0
 33 34  1  0
 34 35  2  0
 25  7  1  0
 35 30  1  0
 24 10  1  0
  1 36  1  0
  1 37  1  0
  1 38  1  0
  5 39  1  6
  6 40  1  0
  6 41  1  0
  8 42  1  0
  9 43  1  0
 11 44  1  0
 14 45  1  0
 21 46  1  0
 21 47  1  0
 21 48  1  0
 22 49  1  0
 22 50  1  0
 22 51  1  0
 23 52  1  0
 23 53  1  0
 23 54  1  0
 25 55  1  0
 26 56  1  0
 29 57  1  0
 29 58  1  0
 31 59  1  0
 32 60  1  0
 33 61  1  0
 34 62  1  0
 35 63  1  0
M  CHG  1  14  -1
M  END
>  <UniqueID>  (72) 
69

>  <SMILES>  (72) 
COC(=O)[C@@H](Cc1ccc2cc(C([NH-])=O)n(C(=O)OC(C)(C)C)c2c1)NC(=O)Cc1ccccc1

>  <Energy>  (72) 
89.59573060876112

>  <Genealogy>  (72) 
COC(=O)C(Cc1ccc2cc(C([NH-])=O)n(C(=O)OC(C)(C)C)c2c1)NC(=O)Cc1ccccc1 (protonated)
COC(=O)[C@@H](Cc1ccc2cc(C([NH-])=O)n(C(=O)OC(C)(C)C)c2c1)NC(=O)Cc1ccccc1 (chirality)
COC(=O)[C@@H](Cc1ccc2cc(C([NH-])=O)n(C(=O)OC(C)(C)C)c2c1)NC(=O)Cc1ccccc1 (3D coordinates assigned)
COC(=O)[C@@H](Cc1ccc2cc(C([NH-])=O)n(C(=O)OC(C)(C)C)c2c1)NC(=O)Cc1ccccc1 (optimized conformer: 89.59573060876112 kcal/mol)

>  <smiles>  (72) 
COC(=O)C(Cc1ccc2cc(C(N)=O)n(C(=O)OC(C)(C)C)c2c1)NC(=O)Cc1ccccc1

>  <score_type>  (72) 
oracle

>  <origin>  (72) 
adg

>  <m_score__min__energy>  (72) 
-9.8300000000000001

>  <m_primary>  (72) 
energy

$$$$
73:0
     RDKit          3D

 45 46  0  0  0  0  0  0  0  0999 V2000
  146.1990  153.7080  133.3770 C   0  0  0  0  0  0  0  0  0  0  0  0
  147.4450  154.4250  133.9180 C   0  0  0  0  0  0  0  0  0  0  0  0
  148.6370  154.1210  132.9890 C   0  0  0  0  0  0  0  0  0  0  0  0
  147.7280  153.9220  135.3460 C   0  0  0  0  0  0  0  0  0  0  0  0
  147.1550  155.8300  133.9260 O   0  0  0  0  0  0  0  0  0  0  0  0
  147.0130  156.6570  132.8020 C   0  0  0  0  0  0  0  0  0  0  0  0
  147.0190  156.1750  131.6380 O   0  0  0  0  0  0  0  0  0  0  0  0
  146.8850  158.0760  132.9820 N   0  0  0  0  0  0  0  0  0  0  0  0
  147.8120  159.0370  132.7070 C   0  0  0  0  0  0  0  0  0  0  0  0
  149.2150  158.7980  132.3090 C   0  0  0  0  0  0  0  0  0  0  0  0
  149.7050  157.4640  132.1990 N   0  0  0  0  0  0  0  0  0  0  0  0
  149.9780  159.7610  132.0250 O   0  0  0  0  0  0  0  0  0  0  0  0
  147.2840  160.3060  132.9340 C   0  0  0  0  0  0  0  0  0  0  0  0
  145.9950  160.0930  133.3660 C   0  0  0  0  0  0  0  0  0  0  0  0
  145.0070  161.0080  133.7250 C   0  0  0  0  0  0  0  0  0  0  0  0
  143.7520  160.5050  134.1050 C   0  0  0  0  0  0  0  0  0  0  0  0
  143.5110  159.1110  134.1120 C   0  0  0  0  0  0  0  0  0  0  0  0
  142.2170  158.6080  134.4860 C   0  0  0  0  0  0  0  0  0  0  0  0
  141.1330  158.1770  134.7940 C   0  0  0  0  0  0  0  0  0  0  0  0
  139.5390  157.5570  135.2320 S   0  0  0  0  0  0  0  0  0  0  0  0
  138.7310  158.1650  133.7120 C   0  0  0  0  0  0  0  0  0  0  0  0
  139.6740  158.0480  132.5120 C   0  0  0  0  0  0  0  0  0  0  0  0
  139.8200  159.3700  131.8280 C   0  0  0  0  0  0  0  0  0  0  0  0
  139.7360  159.4500  130.5740 O   0  0  0  0  0  0  0  0  0  0  0  0
  140.0930  160.5110  132.5720 O   0  0  0  0  0  0  0  0  0  0  0  0
  144.5310  158.2120  133.7440 C   0  0  0  0  0  0  0  0  0  0  0  0
  145.7790  158.7390  133.3860 C   0  0  0  0  0  0  0  0  0  0  0  0
  145.5850  153.3546  134.2185 H   0  0  0  0  0  0  0  0  0  0  0  0
  145.6119  154.4064  132.7625 H   0  0  0  0  0  0  0  0  0  0  0  0
  146.5078  152.8495  132.7625 H   0  0  0  0  0  0  0  0  0  0  0  0
  149.5261  153.8942  133.5956 H   0  0  0  0  0  0  0  0  0  0  0  0
  148.3958  153.2556  132.3542 H   0  0  0  0  0  0  0  0  0  0  0  0
  148.8397  154.9962  132.3542 H   0  0  0  0  0  0  0  0  0  0  0  0
  147.3239  154.6403  136.0746 H   0  0  0  0  0  0  0  0  0  0  0  0
  147.2483  152.9429  135.4916 H   0  0  0  0  0  0  0  0  0  0  0  0
  148.8139  153.8236  135.4916 H   0  0  0  0  0  0  0  0  0  0  0  0
  149.1140  156.7070  131.7920 H   0  0  0  0  0  0  0  0  0  0  0  0
  147.7901  161.2730  132.7970 H   0  0  0  0  0  0  0  0  0  0  0  0
  145.2040  162.0901  133.7112 H   0  0  0  0  0  0  0  0  0  0  0  0
  142.9512  161.1995  134.3991 H   0  0  0  0  0  0  0  0  0  0  0  0
  137.8273  157.5679  133.5202 H   0  0  0  0  0  0  0  0  0  0  0  0
  138.4674  159.2238  133.8518 H   0  0  0  0  0  0  0  0  0  0  0  0
  140.6613  157.7095  132.8594 H   0  0  0  0  0  0  0  0  0  0  0  0
  139.2533  157.3237  131.7990 H   0  0  0  0  0  0  0  0  0  0  0  0
  144.3528  157.1266  133.7378 H   0  0  0  0  0  0  0  0  0  0  0  0
  1  2  1  0
  2  3  1  0
  2  4  1  0
  2  5  1  0
  5  6  1  0
  6  7  2  0
  6  8  1  0
  8  9  1  0
  9 10  1  0
 10 11  1  0
 10 12  2  0
  9 13  2  0
 13 14  1  0
 14 15  2  0
 15 16  1  0
 16 17  2  0
 17 18  1  0
 18 19  3  0
 19 20  1  0
 20 21  1  0
 21 22  1  0
 22 23  1  0
 23 24  2  0
 23 25  1  0
 17 26  1  0
 26 27  2  0
 27  8  1  0
 27 14  1  0
  1 28  1  0
  1 29  1  0
  1 30  1  0
  3 31  1  0
  3 32  1  0
  3 33  1  0
  4 34  1  0
  4 35  1  0
  4 36  1  0
 11 37  1  0
 13 38  1  0
 15 39  1  0
 16 40  1  0
 21 41  1  0
 21 42  1  0
 22 43  1  0
 22 44  1  0
 26 45  1  0
M  CHG  2  11  -1  25  -1
M  END
>  <UniqueID>  (73) 
70

>  <SMILES>  (73) 
CC(C)(C)OC(=O)n1c(C([NH-])=O)cc2ccc(C#CSCCC(=O)[O-])cc21

>  <Energy>  (73) 
70.06946549891742

>  <Genealogy>  (73) 
CC(C)(C)OC(=O)n1c(C([NH-])=O)cc2ccc(C#CSCCC(=O)[O-])cc21 (protonated)
CC(C)(C)OC(=O)n1c(C([NH-])=O)cc2ccc(C#CSCCC(=O)[O-])cc21 (3D coordinates assigned)
CC(C)(C)OC(=O)n1c(C([NH-])=O)cc2ccc(C#CSCCC(=O)[O-])cc21 (optimized conformer: 70.06946549891742 kcal/mol)

>  <smiles>  (73) 
CC(C)(C)OC(=O)n1c(C(N)=O)cc2ccc(C#CSCCC(=O)O)cc21

>  <score_type>  (73) 
oracle

>  <origin>  (73) 
adg

>  <m_score__min__energy>  (73) 
-8.3599999999999994

>  <m_primary>  (73) 
energy

$$$$
74:0
     RDKit          3D

 42 45  0  0  0  0  0  0  0  0999 V2000
  143.2040  160.7820  133.3630 N   0  0  0  0  0  0  0  0  0  0  0  0
  144.5960  160.8730  133.6510 C   0  0  0  0  0  0  0  0  0  0  0  0
  145.0550  161.9430  134.1340 O   0  0  0  0  0  0  0  0  0  0  0  0
  145.4990  159.7210  133.4390 C   0  0  0  0  0  0  0  0  0  0  0  0
  146.8730  159.8560  133.2430 C   0  0  0  0  0  0  0  0  0  0  0  0
  147.3560  158.5730  133.1500 C   0  0  0  0  0  0  0  0  0  0  0  0
  148.6560  158.1220  132.9400 C   0  0  0  0  0  0  0  0  0  0  0  0
  148.8670  156.7360  132.8590 C   0  0  0  0  0  0  0  0  0  0  0  0
  147.7840  155.8290  132.9840 C   0  0  0  0  0  0  0  0  0  0  0  0
  148.0280  154.3710  132.8900 C   0  0  0  0  0  0  0  0  0  0  0  0
  149.1690  153.7840  132.3670 C   0  0  0  0  0  0  0  0  0  0  0  0
  148.9320  152.4230  132.4560 C   0  0  0  0  0  0  0  0  0  0  0  0
  149.8270  151.3350  131.9490 C   0  0  0  0  0  0  0  0  0  0  0  0
  149.2680  150.0970  132.2120 F   0  0  0  0  0  0  0  0  0  0  0  0
  151.0540  151.4230  132.5760 F   0  0  0  0  0  0  0  0  0  0  0  0
  150.0020  151.4660  130.5840 F   0  0  0  0  0  0  0  0  0  0  0  0
  147.7120  152.2190  132.9860 N   0  0  0  0  0  0  0  0  0  0  0  0
  147.1640  153.3940  133.2560 N   0  0  0  0  0  0  0  0  0  0  0  0
  145.9100  153.5450  133.9410 C   0  0  0  0  0  0  0  0  0  0  0  0
  144.7070  153.3150  133.2520 C   0  0  0  0  0  0  0  0  0  0  0  0
  143.4820  153.4450  133.9080 C   0  0  0  0  0  0  0  0  0  0  0  0
  143.4450  153.8090  135.2560 C   0  0  0  0  0  0  0  0  0  0  0  0
  144.6350  154.0410  135.9510 C   0  0  0  0  0  0  0  0  0  0  0  0
  145.8690  153.9120  135.3000 C   0  0  0  0  0  0  0  0  0  0  0  0
  147.3430  154.1500  136.2280 Cl  0  0  0  0  0  0  0  0  0  0  0  0
  146.4750  156.3280  133.1710 C   0  0  0  0  0  0  0  0  0  0  0  0
  146.2960  157.7130  133.2790 C   0  0  0  0  0  0  0  0  0  0  0  0
  145.1450  158.4040  133.4580 N   0  0  0  0  0  0  0  0  0  0  0  0
  143.8180  157.8650  133.5790 C   0  0  0  0  0  0  0  0  0  0  0  0
  143.0030  157.9280  132.6210 O   0  0  0  0  0  0  0  0  0  0  0  0
  142.8450  160.1070  132.6510 H   0  0  0  0  0  0  0  0  0  0  0  0
  147.4482  160.7913  133.1769 H   0  0  0  0  0  0  0  0  0  0  0  0
  149.4924  158.8295  132.8406 H   0  0  0  0  0  0  0  0  0  0  0  0
  149.8840  156.3494  132.6967 H   0  0  0  0  0  0  0  0  0  0  0  0
  150.0631  154.2869  131.9699 H   0  0  0  0  0  0  0  0  0  0  0  0
  147.2690  151.2930  133.1810 H   0  0  0  0  0  0  0  0  0  0  0  0
  144.7310  153.0309  132.1896 H   0  0  0  0  0  0  0  0  0  0  0  0
  142.5446  153.2606  133.3628 H   0  0  0  0  0  0  0  0  0  0  0  0
  142.4785  153.9131  135.7709 H   0  0  0  0  0  0  0  0  0  0  0  0
  144.6028  154.3259  137.0130 H   0  0  0  0  0  0  0  0  0  0  0  0
  145.6157  155.6438  133.2304 H   0  0  0  0  0  0  0  0  0  0  0  0
  143.5098  157.3905  134.5223 H   0  0  0  0  0  0  0  0  0  0  0  0
  1  2  1  0
  2  3  2  0
  2  4  1  0
  4  5  2  0
  5  6  1  0
  6  7  2  0
  7  8  1  0
  8  9  2  0
  9 10  1  0
 10 11  2  0
 11 12  1  0
 12 13  1  0
 13 14  1  0
 13 15  1  0
 13 16  1  0
 12 17  2  0
 17 18  1  0
 18 19  1  0
 19 20  2  0
 20 21  1  0
 21 22  2  0
 22 23  1  0
 23 24  2  0
 24 25  1  0
  9 26  1  0
 26 27  2  0
 27 28  1  0
 28 29  1  0
 29 30  2  0
 28  4  1  0
 27  6  1  0
 18 10  1  0
 24 19  1  0
  1 31  1  0
  5 32  1  0
  7 33  1  0
  8 34  1  0
 11 35  1  0
 17 36  1  0
 20 37  1  0
 21 38  1  0
 22 39  1  0
 23 40  1  0
 26 41  1  0
 29 42  1  0
M  CHG  2   1  -1  17   1
M  END
>  <UniqueID>  (74) 
71

>  <SMILES>  (74) 
[NH-]C(=O)c1cc2ccc(-c3cc(C(F)(F)F)[nH+]n3-c3ccccc3Cl)cc2n1C=O

>  <Energy>  (74) 
123.8663210724178

>  <Genealogy>  (74) 
[NH-]C(=O)c1cc2ccc(-c3cc(C(F)(F)F)[nH+]n3-c3ccccc3Cl)cc2n1C=O (protonated)
[NH-]C(=O)c1cc2ccc(-c3cc(C(F)(F)F)[nH+]n3-c3ccccc3Cl)cc2n1C=O (3D coordinates assigned)
[NH-]C(=O)c1cc2ccc(-c3cc(C(F)(F)F)[nH+]n3-c3ccccc3Cl)cc2n1C=O (optimized conformer: 123.8663210724178 kcal/mol)

>  <smiles>  (74) 
NC(=O)c1cc2ccc(-c3cc(C(F)(F)F)nn3-c3ccccc3Cl)cc2n1C=O

>  <score_type>  (74) 
oracle

>  <origin>  (74) 
adg

>  <m_score__min__energy>  (74) 
-8.6199999999999992

>  <m_primary>  (74) 
energy

$$$$
75:0
     RDKit          3D

 32 34  0  0  0  0  0  0  0  0999 V2000
  149.3360  157.4920  131.8450 N   0  0  0  0  0  0  0  0  0  0  0  0
  149.0050  158.7680  132.3950 C   0  0  0  0  0  0  0  0  0  0  0  0
  149.8880  159.6660  132.4460 O   0  0  0  0  0  0  0  0  0  0  0  0
  147.6320  159.0740  132.8430 C   0  0  0  0  0  0  0  0  0  0  0  0
  147.1720  160.3690  133.0640 C   0  0  0  0  0  0  0  0  0  0  0  0
  145.8450  160.2290  133.3990 C   0  0  0  0  0  0  0  0  0  0  0  0
  144.9020  161.1960  133.7310 C   0  0  0  0  0  0  0  0  0  0  0  0
  143.6090  160.7670  134.0720 C   0  0  0  0  0  0  0  0  0  0  0  0
  143.2810  159.3870  134.0830 C   0  0  0  0  0  0  0  0  0  0  0  0
  141.9140  158.9450  134.4590 C   0  0  0  0  0  0  0  0  0  0  0  0
  141.6050  158.6390  135.7980 C   0  0  0  0  0  0  0  0  0  0  0  0
  140.3170  158.2240  136.1510 C   0  0  0  0  0  0  0  0  0  0  0  0
  140.0290  157.9370  137.4440 F   0  0  0  0  0  0  0  0  0  0  0  0
  139.3260  158.1100  135.1740 C   0  0  0  0  0  0  0  0  0  0  0  0
  139.6190  158.4090  133.8410 C   0  0  0  0  0  0  0  0  0  0  0  0
  138.3730  158.2600  132.6140 Cl  0  0  0  0  0  0  0  0  0  0  0  0
  140.9060  158.8250  133.4840 C   0  0  0  0  0  0  0  0  0  0  0  0
  144.2700  158.4340  133.7400 C   0  0  0  0  0  0  0  0  0  0  0  0
  145.5460  158.8900  133.3850 C   0  0  0  0  0  0  0  0  0  0  0  0
  146.6370  158.1650  133.0470 N   0  0  0  0  0  0  0  0  0  0  0  0
  146.7530  156.7330  133.0390 C   0  0  0  0  0  0  0  0  0  0  0  0
  146.9960  156.1170  131.9670 O   0  0  0  0  0  0  0  0  0  0  0  0
  146.5910  156.0090  134.2140 O   0  0  0  0  0  0  0  0  0  0  0  0
  150.3190  157.2800  131.5670 H   0  0  0  0  0  0  0  0  0  0  0  0
  148.5950  156.7860  131.6370 H   0  0  0  0  0  0  0  0  0  0  0  0
  147.7464  161.3040  132.9872 H   0  0  0  0  0  0  0  0  0  0  0  0
  145.1613  162.2650  133.7266 H   0  0  0  0  0  0  0  0  0  0  0  0
  142.8413  161.5101  134.3337 H   0  0  0  0  0  0  0  0  0  0  0  0
  142.3819  158.7269  136.5718 H   0  0  0  0  0  0  0  0  0  0  0  0
  138.3133  157.7844  135.4541 H   0  0  0  0  0  0  0  0  0  0  0  0
  141.1319  159.0601  132.4334 H   0  0  0  0  0  0  0  0  0  0  0  0
  144.0413  157.3581  133.7520 H   0  0  0  0  0  0  0  0  0  0  0  0
  1  2  1  0
  2  3  2  0
  2  4  1  0
  4  5  2  0
  5  6  1  0
  6  7  2  0
  7  8  1  0
  8  9  2  0
  9 10  1  0
 10 11  2  0
 11 12  1  0
 12 13  1  0
 12 14  2  0
 14 15  1  0
 15 16  1  0
 15 17  2  0
  9 18  1  0
 18 19  2  0
 19 20  1  0
 20 21  1  0
 21 22  2  0
 21 23  1  0
 20  4  1  0
 19  6  1  0
 17 10  1  0
  1 24  1  0
  1 25  1  0
  5 26  1  0
  7 27  1  0
  8 28  1  0
 11 29  1  0
 14 30  1  0
 17 31  1  0
 18 32  1  0
M  CHG  1  23  -1
M  END
>  <UniqueID>  (75) 
72

>  <SMILES>  (75) 
NC(=O)c1cc2ccc(-c3cc(F)cc(Cl)c3)cc2n1C(=O)[O-]

>  <Energy>  (75) 
80.19890229860974

>  <Genealogy>  (75) 
NC(=O)c1cc2ccc(-c3cc(F)cc(Cl)c3)cc2n1C(=O)[O-] (protonated)
NC(=O)c1cc2ccc(-c3cc(F)cc(Cl)c3)cc2n1C(=O)[O-] (3D coordinates assigned)
NC(=O)c1cc2ccc(-c3cc(F)cc(Cl)c3)cc2n1C(=O)[O-] (optimized conformer: 80.19890229860974 kcal/mol)

>  <smiles>  (75) 
NC(=O)c1cc2ccc(-c3cc(F)cc(Cl)c3)cc2n1C(=O)O

>  <score_type>  (75) 
oracle

>  <origin>  (75) 
adg

>  <m_score__min__energy>  (75) 
-8.1500000000000004

>  <m_primary>  (75) 
energy

$$$$
76:0
     RDKit          3D

 47 48  0  0  0  0  0  0  0  0999 V2000
  138.1460  149.2140  129.9930 C   0  0  0  0  0  0  0  0  0  0  0  0
  139.5080  149.1610  130.7030 C   0  0  0  0  0  0  0  0  0  0  0  0
  140.0490  147.7260  130.6900 C   0  0  0  0  0  0  0  0  0  0  0  0
  139.4140  149.6790  132.1550 C   0  0  0  0  0  0  0  0  0  0  0  0
  140.5460  150.6160  132.4950 C   0  0  0  0  0  0  0  0  0  0  0  0
  141.8580  150.1120  132.6680 C   0  0  0  0  0  0  0  0  0  0  0  0
  142.9220  150.9760  132.9740 C   0  0  0  0  0  0  0  0  0  0  0  0
  142.6490  152.3370  133.0760 C   0  0  0  0  0  0  0  0  0  0  0  0
  143.4850  153.3880  133.3780 C   0  0  0  0  0  0  0  0  0  0  0  0
  142.6790  154.5230  133.3370 C   0  0  0  0  0  0  0  0  0  0  0  0
  143.1910  155.8930  133.5360 C   0  0  0  0  0  0  0  0  0  0  0  0
  142.8440  156.9510  132.6420 N   0  0  0  0  0  0  0  0  0  0  0  0
  143.9930  156.1210  134.4820 O   0  0  0  0  0  0  0  0  0  0  0  0
  141.3930  154.1870  133.0380 N   0  0  0  0  0  0  0  0  0  0  0  0
  140.2490  155.0530  132.9820 C   0  0  0  0  0  0  0  0  0  0  0  0
  139.0900  154.5600  133.0320 O   0  0  0  0  0  0  0  0  0  0  0  0
  140.4390  156.4390  132.8690 O   0  0  0  0  0  0  0  0  0  0  0  0
  139.9100  157.4460  133.7410 C   0  0  0  0  0  0  0  0  0  0  0  0
  140.5000  158.7900  133.2860 C   0  0  0  0  0  0  0  0  0  0  0  0
  140.3350  157.1810  135.1970 C   0  0  0  0  0  0  0  0  0  0  0  0
  138.3750  157.5120  133.6240 C   0  0  0  0  0  0  0  0  0  0  0  0
  141.3900  152.8450  132.8800 C   0  0  0  0  0  0  0  0  0  0  0  0
  140.3070  152.0030  132.6070 C   0  0  0  0  0  0  0  0  0  0  0  0
  137.3423  149.2453  130.7434 H   0  0  0  0  0  0  0  0  0  0  0  0
  138.0954  150.1148  129.3637 H   0  0  0  0  0  0  0  0  0  0  0  0
  138.0255  148.3199  129.3637 H   0  0  0  0  0  0  0  0  0  0  0  0
  140.1995  149.8193  130.1566 H   0  0  0  0  0  0  0  0  0  0  0  0
  140.1814  147.3747  131.7239 H   0  0  0  0  0  0  0  0  0  0  0  0
  139.3364  147.0702  130.1684 H   0  0  0  0  0  0  0  0  0  0  0  0
  141.0172  147.7039  130.1684 H   0  0  0  0  0  0  0  0  0  0  0  0
  138.4608  150.2134  132.2804 H   0  0  0  0  0  0  0  0  0  0  0  0
  139.4760  148.8124  132.8296 H   0  0  0  0  0  0  0  0  0  0  0  0
  142.0456  149.0333  132.5617 H   0  0  0  0  0  0  0  0  0  0  0  0
  143.9400  150.5890  133.1283 H   0  0  0  0  0  0  0  0  0  0  0  0
  144.5606  153.3414  133.6037 H   0  0  0  0  0  0  0  0  0  0  0  0
  143.1820  157.9220  132.8240 H   0  0  0  0  0  0  0  0  0  0  0  0
  142.3280  156.7600  131.7550 H   0  0  0  0  0  0  0  0  0  0  0  0
  140.7642  159.3918  134.1680 H   0  0  0  0  0  0  0  0  0  0  0  0
  141.4015  158.6091  132.6821 H   0  0  0  0  0  0  0  0  0  0  0  0
  139.7567  159.3311  132.6821 H   0  0  0  0  0  0  0  0  0  0  0  0
  139.6040  157.6368  135.8811 H   0  0  0  0  0  0  0  0  0  0  0  0
  140.3771  156.0963  135.3751 H   0  0  0  0  0  0  0  0  0  0  0  0
  141.3275  157.6206  135.3751 H   0  0  0  0  0  0  0  0  0  0  0  0
  137.9311  157.5311  134.6302 H   0  0  0  0  0  0  0  0  0  0  0  0
  138.0876  158.4233  133.0791 H   0  0  0  0  0  0  0  0  0  0  0  0
  138.0105  156.6287  133.0791 H   0  0  0  0  0  0  0  0  0  0  0  0
  139.2933  152.4117  132.4825 H   0  0  0  0  0  0  0  0  0  0  0  0
  1  2  1  0
  2  3  1  0
  2  4  1  0
  4  5  1  0
  5  6  2  0
  6  7  1  0
  7  8  2  0
  8  9  1  0
  9 10  2  0
 10 11  1  0
 11 12  1  0
 11 13  2  0
 10 14  1  0
 14 15  1  0
 15 16  2  0
 15 17  1  0
 17 18  1  0
 18 19  1  0
 18 20  1  0
 18 21  1  0
 14 22  1  0
 22 23  2  0
 23  5  1  0
 22  8  1  0
  1 24  1  0
  1 25  1  0
  1 26  1  0
  2 27  1  0
  3 28  1  0
  3 29  1  0
  3 30  1  0
  4 31  1  0
  4 32  1  0
  6 33  1  0
  7 34  1  0
  9 35  1  0
 12 36  1  0
 12 37  1  0
 19 38  1  0
 19 39  1  0
 19 40  1  0
 20 41  1  0
 20 42  1  0
 20 43  1  0
 21 44  1  0
 21 45  1  0
 21 46  1  0
 23 47  1  0
M  END
>  <UniqueID>  (76) 
73

>  <SMILES>  (76) 
CC(C)Cc1ccc2cc(C(N)=O)n(C(=O)OC(C)(C)C)c2c1

>  <Energy>  (76) 
74.06105606854337

>  <Genealogy>  (76) 
CC(C)Cc1ccc2cc(C(N)=O)n(C(=O)OC(C)(C)C)c2c1 (3D coordinates assigned)
CC(C)Cc1ccc2cc(C(N)=O)n(C(=O)OC(C)(C)C)c2c1 (optimized conformer: 74.06105606854337 kcal/mol)

>  <smiles>  (76) 
CC(C)Cc1ccc2cc(C(N)=O)n(C(=O)OC(C)(C)C)c2c1

>  <score_type>  (76) 
oracle

>  <origin>  (76) 
adg

>  <m_score__min__energy>  (76) 
-8.1999999999999993

>  <m_primary>  (76) 
energy

$$$$
77:0
     RDKit          3D

 48 50  0  0  0  0  0  0  0  0999 V2000
  150.0230  150.8080  131.1390 C   0  0  0  0  0  0  0  0  0  0  0  0
  148.7850  150.5780  132.4540 S   0  0  0  0  0  0  0  0  0  0  0  0
  148.4660  152.3350  132.6240 C   0  0  0  0  0  0  0  0  0  0  0  0
  149.5090  153.2550  132.4720 C   0  0  0  0  0  0  0  0  0  0  0  0
  149.2620  154.6240  132.6080 C   0  0  0  0  0  0  0  0  0  0  0  0
  147.9680  155.0910  132.9020 C   0  0  0  0  0  0  0  0  0  0  0  0
  147.7040  156.5450  133.0510 C   0  0  0  0  0  0  0  0  0  0  0  0
  148.7740  157.4790  133.0100 C   0  0  0  0  0  0  0  0  0  0  0  0
  148.5330  158.8560  133.1580 C   0  0  0  0  0  0  0  0  0  0  0  0
  147.2180  159.2740  133.3360 C   0  0  0  0  0  0  0  0  0  0  0  0
  146.7070  160.5370  133.5220 C   0  0  0  0  0  0  0  0  0  0  0  0
  145.3300  160.3650  133.6500 C   0  0  0  0  0  0  0  0  0  0  0  0
  144.3780  161.4890  133.7800 C   0  0  0  0  0  0  0  0  0  0  0  0
  142.9760  161.2410  133.7170 N   0  0  0  0  0  0  0  0  0  0  0  0
  144.7880  162.6620  133.9820 O   0  0  0  0  0  0  0  0  0  0  0  0
  145.0050  159.0450  133.5560 N   0  0  0  0  0  0  0  0  0  0  0  0
  143.7070  158.4400  133.6780 C   0  0  0  0  0  0  0  0  0  0  0  0
  143.2170  157.8060  132.7050 O   0  0  0  0  0  0  0  0  0  0  0  0
  142.9910  158.5940  134.8750 O   0  0  0  0  0  0  0  0  0  0  0  0
  141.5840  158.3860  135.0580 C   0  0  0  0  0  0  0  0  0  0  0  0
  141.3560  156.8690  135.1300 C   0  0  0  0  0  0  0  0  0  0  0  0
  141.1110  159.0230  136.3790 C   0  0  0  0  0  0  0  0  0  0  0  0
  140.7900  158.9550  133.8660 C   0  0  0  0  0  0  0  0  0  0  0  0
  146.1710  158.3910  133.3600 C   0  0  0  0  0  0  0  0  0  0  0  0
  146.3810  157.0130  133.2360 C   0  0  0  0  0  0  0  0  0  0  0  0
  146.9270  154.1560  133.0570 C   0  0  0  0  0  0  0  0  0  0  0  0
  147.1760  152.7880  132.9210 C   0  0  0  0  0  0  0  0  0  0  0  0
  151.0088  150.9911  131.5914 H   0  0  0  0  0  0  0  0  0  0  0  0
  150.0681  149.9029  130.5155 H   0  0  0  0  0  0  0  0  0  0  0  0
  149.7400  151.6689  130.5155 H   0  0  0  0  0  0  0  0  0  0  0  0
  150.5252  152.9003  132.2451 H   0  0  0  0  0  0  0  0  0  0  0  0
  150.0861  155.3420  132.4841 H   0  0  0  0  0  0  0  0  0  0  0  0
  149.8031  157.1203  132.8607 H   0  0  0  0  0  0  0  0  0  0  0  0
  149.3595  159.5814  133.1338 H   0  0  0  0  0  0  0  0  0  0  0  0
  147.2668  161.4831  133.5614 H   0  0  0  0  0  0  0  0  0  0  0  0
  142.6080  160.2780  133.5490 H   0  0  0  0  0  0  0  0  0  0  0  0
  141.3088  156.5549  136.1831 H   0  0  0  0  0  0  0  0  0  0  0  0
  140.4098  156.6162  134.6292 H   0  0  0  0  0  0  0  0  0  0  0  0
  142.1861  156.3493  134.6292 H   0  0  0  0  0  0  0  0  0  0  0  0
  141.5285  158.4608  137.2273 H   0  0  0  0  0  0  0  0  0  0  0  0
  141.4545  160.0669  136.4263 H   0  0  0  0  0  0  0  0  0  0  0  0
  140.0123  158.9960  136.4263 H   0  0  0  0  0  0  0  0  0  0  0  0
  139.9491  159.5576  134.2398 H   0  0  0  0  0  0  0  0  0  0  0  0
  141.4503  159.5868  133.2537 H   0  0  0  0  0  0  0  0  0  0  0  0
  140.4039  158.1267  133.2537 H   0  0  0  0  0  0  0  0  0  0  0  0
  145.5368  156.3093  133.2813 H   0  0  0  0  0  0  0  0  0  0  0  0
  145.9096  154.5053  133.2870 H   0  0  0  0  0  0  0  0  0  0  0  0
  146.3562  152.0656  133.0477 H   0  0  0  0  0  0  0  0  0  0  0  0
  1  2  1  0
  2  3  1  0
  3  4  2  0
  4  5  1  0
  5  6  2  0
  6  7  1  0
  7  8  2  0
  8  9  1  0
  9 10  2  0
 10 11  1  0
 11 12  2  0
 12 13  1  0
 13 14  1  0
 13 15  2  0
 12 16  1  0
 16 17  1  0
 17 18  2  0
 17 19  1  0
 19 20  1  0
 20 21  1  0
 20 22  1  0
 20 23  1  0
 16 24  1  0
 24 25  2  0
  6 26  1  0
 26 27  2  0
 27  3  1  0
 25  7  1  0
 24 10  1  0
  1 28  1  0
  1 29  1  0
  1 30  1  0
  4 31  1  0
  5 32  1  0
  8 33  1  0
  9 34  1  0
 11 35  1  0
 14 36  1  0
 21 37  1  0
 21 38  1  0
 21 39  1  0
 22 40  1  0
 22 41  1  0
 22 42  1  0
 23 43  1  0
 23 44  1  0
 23 45  1  0
 25 46  1  0
 26 47  1  0
 27 48  1  0
M  CHG  1  14  -1
M  END
>  <UniqueID>  (77) 
74

>  <SMILES>  (77) 
CSc1ccc(-c2ccc3cc(C([NH-])=O)n(C(=O)OC(C)(C)C)c3c2)cc1

>  <Energy>  (77) 
84.4655279502757

>  <Genealogy>  (77) 
CSc1ccc(-c2ccc3cc(C([NH-])=O)n(C(=O)OC(C)(C)C)c3c2)cc1 (protonated)
CSc1ccc(-c2ccc3cc(C([NH-])=O)n(C(=O)OC(C)(C)C)c3c2)cc1 (3D coordinates assigned)
CSc1ccc(-c2ccc3cc(C([NH-])=O)n(C(=O)OC(C)(C)C)c3c2)cc1 (optimized conformer: 84.4655279502757 kcal/mol)

>  <smiles>  (77) 
CSc1ccc(-c2ccc3cc(C(N)=O)n(C(=O)OC(C)(C)C)c3c2)cc1

>  <score_type>  (77) 
oracle

>  <origin>  (77) 
adg

>  <m_score__min__energy>  (77) 
-8.9299999999999997

>  <m_primary>  (77) 
energy

$$$$
78:0
     RDKit          3D

 71 74  0  0  0  0  0  0  0  0999 V2000
  140.3560  150.5320  138.2690 C   0  0  0  0  0  0  0  0  0  0  0  0
  141.4190  151.3400  139.0360 C   0  0  0  0  0  0  0  0  0  0  0  0
  140.7120  152.3870  139.9110 C   0  0  0  0  0  0  0  0  0  0  0  0
  142.2590  150.4170  139.9410 C   0  0  0  0  0  0  0  0  0  0  0  0
  142.2620  152.0530  138.1200 O   0  0  0  0  0  0  0  0  0  0  0  0
  141.8430  152.7850  136.9970 C   0  0  0  0  0  0  0  0  0  0  0  0
  141.5290  152.2130  135.9190 O   0  0  0  0  0  0  0  0  0  0  0  0
  141.7460  154.2400  137.1050 C   0  0  0  0  0  0  0  0  0  0  0  0
  141.6030  155.0310  136.0240 N   0  0  0  0  0  0  0  0  0  0  0  0
  141.6670  156.2790  136.5190 C   0  0  0  0  0  0  0  0  0  0  0  0
  141.7280  157.4820  135.6550 C   0  0  0  0  0  0  0  0  0  0  0  0
  140.9840  158.6230  135.9950 C   0  0  0  0  0  0  0  0  0  0  0  0
  140.9820  159.7420  135.1600 C   0  0  0  0  0  0  0  0  0  0  0  0
  141.7130  159.7300  133.9710 C   0  0  0  0  0  0  0  0  0  0  0  0
  142.4530  158.6000  133.6140 C   0  0  0  0  0  0  0  0  0  0  0  0
  142.4760  157.4740  134.4510 C   0  0  0  0  0  0  0  0  0  0  0  0
  143.2970  156.3060  134.0640 C   0  0  0  0  0  0  0  0  0  0  0  0
  142.6720  155.1330  133.5710 C   0  0  0  0  0  0  0  0  0  0  0  0
  143.4410  154.0560  133.1030 C   0  0  0  0  0  0  0  0  0  0  0  0
  144.8260  154.1820  133.1360 C   0  0  0  0  0  0  0  0  0  0  0  0
  145.8050  153.2900  132.7610 C   0  0  0  0  0  0  0  0  0  0  0  0
  147.0110  153.9360  133.0220 C   0  0  0  0  0  0  0  0  0  0  0  0
  148.3320  153.3520  132.7150 C   0  0  0  0  0  0  0  0  0  0  0  0
  148.6020  151.9670  132.9400 N   0  0  0  0  0  0  0  0  0  0  0  0
  149.2560  154.0990  132.2960 O   0  0  0  0  0  0  0  0  0  0  0  0
  146.7900  155.1740  133.5440 N   0  0  0  0  0  0  0  0  0  0  0  0
  147.7690  156.0930  134.0490 C   0  0  0  0  0  0  0  0  0  0  0  0
  147.9590  156.1840  135.2900 O   0  0  0  0  0  0  0  0  0  0  0  0
  148.5020  156.8800  133.1460 O   0  0  0  0  0  0  0  0  0  0  0  0
  148.4570  158.3090  133.0310 C   0  0  0  0  0  0  0  0  0  0  0  0
  148.8580  158.9690  134.3640 C   0  0  0  0  0  0  0  0  0  0  0  0
  147.0060  158.6920  132.7040 C   0  0  0  0  0  0  0  0  0  0  0  0
  149.3730  158.7920  131.8900 C   0  0  0  0  0  0  0  0  0  0  0  0
  145.4470  155.3110  133.6070 C   0  0  0  0  0  0  0  0  0  0  0  0
  144.7040  156.3900  134.1040 C   0  0  0  0  0  0  0  0  0  0  0  0
  141.8520  156.2100  137.8890 C   0  0  0  0  0  0  0  0  0  0  0  0
  142.1120  157.3490  138.8300 C   0  0  0  0  0  0  0  0  0  0  0  0
  143.0210  156.9290  139.8920 N   0  0  0  0  0  0  0  0  0  0  0  0
  141.9080  154.9170  138.2620 N   0  0  0  0  0  0  0  0  0  0  0  0
  139.6916  150.0270  138.9856 H   0  0  0  0  0  0  0  0  0  0  0  0
  139.7650  151.2109  137.6367 H   0  0  0  0  0  0  0  0  0  0  0  0
  140.8520  149.7809  137.6367 H   0  0  0  0  0  0  0  0  0  0  0  0
  140.8738  152.1474  140.9723 H   0  0  0  0  0  0  0  0  0  0  0  0
  141.1224  153.3841  139.6935 H   0  0  0  0  0  0  0  0  0  0  0  0
  139.6338  152.3789  139.6935 H   0  0  0  0  0  0  0  0  0  0  0  0
  142.0490  150.6478  140.9958 H   0  0  0  0  0  0  0  0  0  0  0  0
  141.9994  149.3678  139.7365 H   0  0  0  0  0  0  0  0  0  0  0  0
  143.3279  150.5769  139.7365 H   0  0  0  0  0  0  0  0  0  0  0  0
  140.3983  158.6355  136.9260 H   0  0  0  0  0  0  0  0  0  0  0  0
  140.4033  160.6347  135.4397 H   0  0  0  0  0  0  0  0  0  0  0  0
  141.7064  160.6120  133.3137 H   0  0  0  0  0  0  0  0  0  0  0  0
  143.0206  158.5930  132.6718 H   0  0  0  0  0  0  0  0  0  0  0  0
  141.5741  155.0662  133.5551 H   0  0  0  0  0  0  0  0  0  0  0  0
  142.9635  153.1412  132.7221 H   0  0  0  0  0  0  0  0  0  0  0  0
  145.6647  152.2818  132.3440 H   0  0  0  0  0  0  0  0  0  0  0  0
  147.9160  151.3590  133.4380 H   0  0  0  0  0  0  0  0  0  0  0  0
  149.5190  151.5570  132.6530 H   0  0  0  0  0  0  0  0  0  0  0  0
  148.4875  158.3592  135.2012 H   0  0  0  0  0  0  0  0  0  0  0  0
  149.9540  159.0432  134.4213 H   0  0  0  0  0  0  0  0  0  0  0  0
  148.4189  159.9759  134.4213 H   0  0  0  0  0  0  0  0  0  0  0  0
  146.4461  158.8398  133.6392 H   0  0  0  0  0  0  0  0  0  0  0  0
  146.9956  159.6237  132.1193 H   0  0  0  0  0  0  0  0  0  0  0  0
  146.5371  157.8869  132.1193 H   0  0  0  0  0  0  0  0  0  0  0  0
  150.2703  159.2651  132.3155 H   0  0  0  0  0  0  0  0  0  0  0  0
  149.6702  157.9334  131.2700 H   0  0  0  0  0  0  0  0  0  0  0  0
  148.8324  159.5223  131.2700 H   0  0  0  0  0  0  0  0  0  0  0  0
  145.2050  157.2791  134.5145 H   0  0  0  0  0  0  0  0  0  0  0  0
  142.5640  158.1836  138.2740 H   0  0  0  0  0  0  0  0  0  0  0  0
  141.1596  157.6681  139.2785 H   0  0  0  0  0  0  0  0  0  0  0  0
  143.2300  155.9150  139.7490 H   0  0  0  0  0  0  0  0  0  0  0  0
  143.9250  157.4400  139.7720 H   0  0  0  0  0  0  0  0  0  0  0  0
  1  2  1  0
  2  3  1  0
  2  4  1  0
  2  5  1  0
  5  6  1  0
  6  7  2  0
  6  8  1  0
  8  9  2  0
  9 10  1  0
 10 11  1  0
 11 12  2  0
 12 13  1  0
 13 14  2  0
 14 15  1  0
 15 16  2  0
 16 17  1  0
 17 18  2  0
 18 19  1  0
 19 20  2  0
 20 21  1  0
 21 22  2  0
 22 23  1  0
 23 24  1  0
 23 25  2  0
 22 26  1  0
 26 27  1  0
 27 28  2  0
 27 29  1  0
 29 30  1  0
 30 31  1  0
 30 32  1  0
 30 33  1  0
 26 34  1  0
 34 35  2  0
 10 36  2  0
 36 37  1  0
 37 38  1  0
 36 39  1  0
 39  8  1  0
 16 11  1  0
 35 17  1  0
 34 20  1  0
  1 40  1  0
  1 41  1  0
  1 42  1  0
  3 43  1  0
  3 44  1  0
  3 45  1  0
  4 46  1  0
  4 47  1  0
  4 48  1  0
 12 49  1  0
 13 50  1  0
 14 51  1  0
 15 52  1  0
 18 53  1  0
 19 54  1  0
 21 55  1  0
 24 56  1  0
 24 57  1  0
 31 58  1  0
 31 59  1  0
 31 60  1  0
 32 61  1  0
 32 62  1  0
 32 63  1  0
 33 64  1  0
 33 65  1  0
 33 66  1  0
 35 67  1  0
 37 68  1  0
 37 69  1  0
 38 70  1  0
 38 71  1  0
M  CHG  1  39  -1
M  END
>  <UniqueID>  (78) 
75

>  <SMILES>  (78) 
CC(C)(C)OC(=O)c1nc(-c2ccccc2-c2ccc3cc(C(N)=O)n(C(=O)OC(C)(C)C)c3c2)c(CN)[n-]1

>  <Energy>  (78) 
136.92705522440986

>  <Genealogy>  (78) 
CC(C)(C)OC(=O)c1nc(-c2ccccc2-c2ccc3cc(C(N)=O)n(C(=O)OC(C)(C)C)c3c2)c(CN)[n-]1 (protonated)
CC(C)(C)OC(=O)c1nc(-c2ccccc2-c2ccc3cc(C(N)=O)n(C(=O)OC(C)(C)C)c3c2)c(CN)[n-]1 (3D coordinates assigned)
CC(C)(C)OC(=O)c1nc(-c2ccccc2-c2ccc3cc(C(N)=O)n(C(=O)OC(C)(C)C)c3c2)c(CN)[n-]1 (optimized conformer: 136.92705522440986 kcal/mol)

>  <smiles>  (78) 
CC(C)(C)OC(=O)c1nc(-c2ccccc2-c2ccc3cc(C(N)=O)n(C(=O)OC(C)(C)C)c3c2)c(CN)[nH]1

>  <score_type>  (78) 
oracle

>  <origin>  (78) 
adg

>  <m_score__min__energy>  (78) 
-10.52

>  <m_primary>  (78) 
energy

$$$$
79:0
     RDKit          3D

 63 65  0  0  0  0  0  0  0  0999 V2000
  138.2460  159.0900  131.2490 C   0  0  0  0  0  0  0  0  0  0  0  0
  138.4090  158.2860  132.5370 C   0  0  0  0  0  0  0  0  0  0  0  0
  139.7020  158.6050  133.1840 N   0  0  0  0  0  0  0  0  0  0  0  0
  140.6720  159.1690  132.2230 C   0  0  0  0  0  0  0  0  0  0  0  0
  141.7060  160.0020  132.9820 C   0  0  0  0  0  0  0  0  0  0  0  0
  142.1650  159.3030  134.2830 C   0  0  2  0  0  0  0  0  0  0  0  0
  143.5940  159.5390  134.5550 N   0  0  0  0  0  0  0  0  0  0  0  0
  144.7230  158.8090  134.0210 C   0  0  0  0  0  0  0  0  0  0  0  0
  145.7340  159.5300  133.3340 C   0  0  0  0  0  0  0  0  0  0  0  0
  146.8620  158.8770  132.8060 C   0  0  0  0  0  0  0  0  0  0  0  0
  146.9550  157.5010  132.9740 C   0  0  0  0  0  0  0  0  0  0  0  0
  147.9560  156.6270  132.6140 C   0  0  0  0  0  0  0  0  0  0  0  0
  147.5410  155.3780  133.0770 C   0  0  0  0  0  0  0  0  0  0  0  0
  148.3050  154.1310  132.8610 C   0  0  0  0  0  0  0  0  0  0  0  0
  147.6830  152.8540  132.9960 N   0  0  0  0  0  0  0  0  0  0  0  0
  149.5150  154.1910  132.5160 O   0  0  0  0  0  0  0  0  0  0  0  0
  146.3300  155.4790  133.6930 N   0  0  0  0  0  0  0  0  0  0  0  0
  145.6270  154.4650  134.4260 C   0  0  0  0  0  0  0  0  0  0  0  0
  146.2020  153.8720  135.3790 O   0  0  0  0  0  0  0  0  0  0  0  0
  144.3250  154.1150  134.0350 O   0  0  0  0  0  0  0  0  0  0  0  0
  143.9470  153.5100  132.7900 C   0  0  0  0  0  0  0  0  0  0  0  0
  144.3440  154.4150  131.6060 C   0  0  0  0  0  0  0  0  0  0  0  0
  144.5870  152.1170  132.6470 C   0  0  0  0  0  0  0  0  0  0  0  0
  142.4190  153.3550  132.8090 C   0  0  0  0  0  0  0  0  0  0  0  0
  145.9850  156.7810  133.6170 C   0  0  0  0  0  0  0  0  0  0  0  0
  144.8550  157.4040  134.1540 C   0  0  0  0  0  0  0  0  0  0  0  0
  141.8130  157.7990  134.3340 C   0  0  0  0  0  0  0  0  0  0  0  0
  140.2940  157.5240  134.0410 C   0  0  0  0  0  0  0  0  0  0  0  0
  139.5450  157.5060  135.3910 C   0  0  0  0  0  0  0  0  0  0  0  0
  140.1840  156.1210  133.3830 C   0  0  0  0  0  0  0  0  0  0  0  0
  138.0331  160.1403  131.4969 H   0  0  0  0  0  0  0  0  0  0  0  0
  139.1740  159.0328  130.6612 H   0  0  0  0  0  0  0  0  0  0  0  0
  137.4135  158.6759  130.6612 H   0  0  0  0  0  0  0  0  0  0  0  0
  137.5880  158.5343  133.2257 H   0  0  0  0  0  0  0  0  0  0  0  0
  138.3866  157.2135  132.2936 H   0  0  0  0  0  0  0  0  0  0  0  0
  141.1785  158.3515  131.6890 H   0  0  0  0  0  0  0  0  0  0  0  0
  140.1452  159.8059  131.4972 H   0  0  0  0  0  0  0  0  0  0  0  0
  142.5813  160.1590  132.3345 H   0  0  0  0  0  0  0  0  0  0  0  0
  141.2390  160.9597  133.2553 H   0  0  0  0  0  0  0  0  0  0  0  0
  141.5869  159.7719  135.0929 H   0  0  0  0  0  0  0  0  0  0  0  0
  143.8020  160.3060  135.2350 H   0  0  0  0  0  0  0  0  0  0  0  0
  145.6335  160.6186  133.2124 H   0  0  0  0  0  0  0  0  0  0  0  0
  147.6461  159.4381  132.2766 H   0  0  0  0  0  0  0  0  0  0  0  0
  148.8857  156.8633  132.0756 H   0  0  0  0  0  0  0  0  0  0  0  0
  147.0640  152.6420  133.8100 H   0  0  0  0  0  0  0  0  0  0  0  0
  144.7582  155.3593  131.9891 H   0  0  0  0  0  0  0  0  0  0  0  0
  145.1010  153.9048  130.9922 H   0  0  0  0  0  0  0  0  0  0  0  0
  143.4560  154.6264  130.9922 H   0  0  0  0  0  0  0  0  0  0  0  0
  144.7796  151.6977  133.6456 H   0  0  0  0  0  0  0  0  0  0  0  0
  143.9032  151.4541  132.0966 H   0  0  0  0  0  0  0  0  0  0  0  0
  145.5354  152.2040  132.0966 H   0  0  0  0  0  0  0  0  0  0  0  0
  142.0670  153.3193  133.8506 H   0  0  0  0  0  0  0  0  0  0  0  0
  141.9572  154.2109  132.2950 H   0  0  0  0  0  0  0  0  0  0  0  0
  142.1385  152.4238  132.2950 H   0  0  0  0  0  0  0  0  0  0  0  0
  144.0826  156.8150  134.6702 H   0  0  0  0  0  0  0  0  0  0  0  0
  142.4181  157.2698  133.5831 H   0  0  0  0  0  0  0  0  0  0  0  0
  142.0262  157.4411  135.3521 H   0  0  0  0  0  0  0  0  0  0  0  0
  140.2737  157.5235  136.2149 H   0  0  0  0  0  0  0  0  0  0  0  0
  138.8923  158.3887  135.4600 H   0  0  0  0  0  0  0  0  0  0  0  0
  138.9354  156.5929  135.4600 H   0  0  0  0  0  0  0  0  0  0  0  0
  140.1237  155.3520  134.1672 H   0  0  0  0  0  0  0  0  0  0  0  0
  139.2798  156.0790  132.7580 H   0  0  0  0  0  0  0  0  0  0  0  0
  141.0706  155.9386  132.7580 H   0  0  0  0  0  0  0  0  0  0  0  0
  1  2  1  0
  2  3  1  0
  3  4  1  0
  4  5  1  0
  5  6  1  0
  6  7  1  0
  7  8  1  0
  8  9  2  0
  9 10  1  0
 10 11  2  0
 11 12  1  0
 12 13  2  0
 13 14  1  0
 14 15  1  0
 14 16  2  0
 13 17  1  0
 17 18  1  0
 18 19  2  0
 18 20  1  0
 20 21  1  0
 21 22  1  0
 21 23  1  0
 21 24  1  0
 17 25  1  0
 25 26  2  0
  6 27  1  0
 27 28  1  0
 28 29  1  0
 28 30  1  0
 28  3  1  0
 26  8  1  0
 25 11  1  0
  1 31  1  0
  1 32  1  0
  1 33  1  0
  2 34  1  0
  2 35  1  0
  4 36  1  0
  4 37  1  0
  5 38  1  0
  5 39  1  0
  6 40  1  1
  7 41  1  0
  9 42  1  0
 10 43  1  0
 12 44  1  0
 15 45  1  0
 22 46  1  0
 22 47  1  0
 22 48  1  0
 23 49  1  0
 23 50  1  0
 23 51  1  0
 24 52  1  0
 24 53  1  0
 24 54  1  0
 26 55  1  0
 27 56  1  0
 27 57  1  0
 29 58  1  0
 29 59  1  0
 29 60  1  0
 30 61  1  0
 30 62  1  0
 30 63  1  0
M  CHG  1  15  -1
M  END
>  <UniqueID>  (79) 
76

>  <SMILES>  (79) 
CCN1CC[C@H](Nc2ccc3cc(C([NH-])=O)n(C(=O)OC(C)(C)C)c3c2)CC1(C)C

>  <Energy>  (79) 
108.59935994946426

>  <Genealogy>  (79) 
CCN1CCC(Nc2ccc3cc(C([NH-])=O)n(C(=O)OC(C)(C)C)c3c2)CC1(C)C (protonated)
CCN1CC[C@H](Nc2ccc3cc(C([NH-])=O)n(C(=O)OC(C)(C)C)c3c2)CC1(C)C (chirality)
CCN1CC[C@H](Nc2ccc3cc(C([NH-])=O)n(C(=O)OC(C)(C)C)c3c2)CC1(C)C (3D coordinates assigned)
CCN1CC[C@H](Nc2ccc3cc(C([NH-])=O)n(C(=O)OC(C)(C)C)c3c2)CC1(C)C (nonaromatic ring conformer: 108.59935994946426 kcal/mol)

>  <smiles>  (79) 
CCN1CCC(Nc2ccc3cc(C(N)=O)n(C(=O)OC(C)(C)C)c3c2)CC1(C)C

>  <score_type>  (79) 
oracle

>  <origin>  (79) 
adg

>  <m_score__min__energy>  (79) 
-8.4299999999999997

>  <m_primary>  (79) 
energy

$$$$
80:0
     RDKit          3D

 64 65  0  0  0  0  0  0  0  0999 V2000
  139.1020  160.9020  132.0530 C   0  0  0  0  0  0  0  0  0  0  0  0
  139.1910  159.3600  132.0000 C   0  0  0  0  0  0  0  0  0  0  0  0
  140.3170  158.9720  131.0200 C   0  0  0  0  0  0  0  0  0  0  0  0
  137.8380  158.8380  131.4590 C   0  0  0  0  0  0  0  0  0  0  0  0
  139.4880  158.8300  133.4490 C   0  0  0  0  0  0  0  0  0  0  0  0
  140.7840  158.1320  133.5980 N   0  0  0  0  0  0  0  0  0  0  0  0
  141.5020  158.3600  134.8920 C   0  0  2  0  0  0  0  0  0  0  0  0
  140.6400  158.2900  136.1860 C   0  0  0  0  0  0  0  0  0  0  0  0
  139.5510  157.4170  136.0720 O   0  0  0  0  0  0  0  0  0  0  0  0
  142.5020  159.5520  134.7910 C   0  0  0  0  0  0  0  0  0  0  0  0
  143.2700  159.7750  133.4690 C   0  0  0  0  0  0  0  0  0  0  0  0
  144.5710  159.0200  133.3690 C   0  0  0  0  0  0  0  0  0  0  0  0
  145.7520  159.6860  132.9470 C   0  0  0  0  0  0  0  0  0  0  0  0
  146.9550  158.9800  132.7860 C   0  0  0  0  0  0  0  0  0  0  0  0
  146.9460  157.6110  133.0330 C   0  0  0  0  0  0  0  0  0  0  0  0
  147.9560  156.6830  132.9160 C   0  0  0  0  0  0  0  0  0  0  0  0
  147.3690  155.4550  133.2270 C   0  0  0  0  0  0  0  0  0  0  0  0
  148.0720  154.1490  133.1940 C   0  0  0  0  0  0  0  0  0  0  0  0
  147.5100  152.9870  133.8100 N   0  0  0  0  0  0  0  0  0  0  0  0
  149.1850  154.0480  132.6120 O   0  0  0  0  0  0  0  0  0  0  0  0
  146.0560  155.6280  133.5430 N   0  0  0  0  0  0  0  0  0  0  0  0
  145.0820  154.6060  133.8050 C   0  0  0  0  0  0  0  0  0  0  0  0
  144.8670  154.2650  135.0000 O   0  0  0  0  0  0  0  0  0  0  0  0
  144.2500  153.9830  132.6990 C   0  0  0  0  0  0  0  0  0  0  0  0
  144.3520  154.7930  131.3910 C   0  0  0  0  0  0  0  0  0  0  0  0
  144.7310  152.5410  132.4490 C   0  0  0  0  0  0  0  0  0  0  0  0
  142.9100  153.9630  133.1330 O   0  0  0  0  0  0  0  0  0  0  0  0
  145.8090  156.9480  133.4120 C   0  0  0  0  0  0  0  0  0  0  0  0
  144.5950  157.6220  133.5720 C   0  0  0  0  0  0  0  0  0  0  0  0
  140.6250  156.4010  133.2380 S   0  0  0  0  0  0  0  0  0  0  0  0
  141.2420  155.7080  134.4450 O   0  0  0  0  0  0  0  0  0  0  0  0
  138.9660  156.0380  133.3600 O   0  0  0  0  0  0  0  0  0  0  0  0
  139.0829  161.2323  133.1020 H   0  0  0  0  0  0  0  0  0  0  0  0
  139.9765  161.3373  131.5473 H   0  0  0  0  0  0  0  0  0  0  0  0
  138.1832  161.2338  131.5473 H   0  0  0  0  0  0  0  0  0  0  0  0
  141.2077  158.6651  131.5879 H   0  0  0  0  0  0  0  0  0  0  0  0
  139.9806  158.1380  130.3866 H   0  0  0  0  0  0  0  0  0  0  0  0
  140.5658  159.8362  130.3866 H   0  0  0  0  0  0  0  0  0  0  0  0
  137.1793  158.5839  132.3025 H   0  0  0  0  0  0  0  0  0  0  0  0
  137.3633  159.6175  130.8450 H   0  0  0  0  0  0  0  0  0  0  0  0
  138.0099  157.9416  130.8450 H   0  0  0  0  0  0  0  0  0  0  0  0
  139.4803  159.6888  134.1363 H   0  0  0  0  0  0  0  0  0  0  0  0
  138.7077  158.0883  133.6747 H   0  0  0  0  0  0  0  0  0  0  0  0
  142.1212  157.4640  135.0461 H   0  0  0  0  0  0  0  0  0  0  0  0
  141.2782  157.9479  137.0141 H   0  0  0  0  0  0  0  0  0  0  0  0
  140.2365  159.2971  136.3672 H   0  0  0  0  0  0  0  0  0  0  0  0
  139.6270  156.9970  135.1770 H   0  0  0  0  0  0  0  0  0  0  0  0
  141.9302  160.4703  134.9905 H   0  0  0  0  0  0  0  0  0  0  0  0
  143.2904  159.2972  135.5145 H   0  0  0  0  0  0  0  0  0  0  0  0
  142.6233  159.4574  132.6378 H   0  0  0  0  0  0  0  0  0  0  0  0
  143.5242  160.8445  133.4305 H   0  0  0  0  0  0  0  0  0  0  0  0
  145.7241  160.7668  132.7440 H   0  0  0  0  0  0  0  0  0  0  0  0
  147.8763  159.4937  132.4741 H   0  0  0  0  0  0  0  0  0  0  0  0
  149.0035  156.8694  132.6367 H   0  0  0  0  0  0  0  0  0  0  0  0
  146.5990  153.0160  134.3160 H   0  0  0  0  0  0  0  0  0  0  0  0
  148.0410  152.0880  133.7970 H   0  0  0  0  0  0  0  0  0  0  0  0
  144.4862  155.8585  131.6291 H   0  0  0  0  0  0  0  0  0  0  0  0
  145.2124  154.4370  130.8054 H   0  0  0  0  0  0  0  0  0  0  0  0
  143.4302  154.6614  130.8054 H   0  0  0  0  0  0  0  0  0  0  0  0
  144.8987  152.0381  133.4128 H   0  0  0  0  0  0  0  0  0  0  0  0
  143.9669  151.9934  131.8778 H   0  0  0  0  0  0  0  0  0  0  0  0
  145.6709  152.5618  131.8778 H   0  0  0  0  0  0  0  0  0  0  0  0
  142.8710  154.3540  134.0450 H   0  0  0  0  0  0  0  0  0  0  0  0
  143.6805  157.0772  133.8492 H   0  0  0  0  0  0  0  0  0  0  0  0
  1  2  1  0
  2  3  1  0
  2  4  1  0
  2  5  1  0
  5  6  1  0
  6  7  1  0
  7  8  1  0
  8  9  1  0
  7 10  1  0
 10 11  1  0
 11 12  1  0
 12 13  2  0
 13 14  1  0
 14 15  2  0
 15 16  1  0
 16 17  2  0
 17 18  1  0
 18 19  1  0
 18 20  2  0
 17 21  1  0
 21 22  1  0
 22 23  2  0
 22 24  1  0
 24 25  1  0
 24 26  1  0
 24 27  1  0
 21 28  1  0
 28 29  2  0
  6 30  1  0
 30 31  2  0
 30 32  1  1
 29 12  1  0
 28 15  1  0
  1 33  1  0
  1 34  1  0
  1 35  1  0
  3 36  1  0
  3 37  1  0
  3 38  1  0
  4 39  1  0
  4 40  1  0
  4 41  1  0
  5 42  1  0
  5 43  1  0
  7 44  1  1
  8 45  1  0
  8 46  1  0
  9 47  1  0
 10 48  1  0
 10 49  1  0
 11 50  1  0
 11 51  1  0
 13 52  1  0
 14 53  1  0
 16 54  1  0
 19 55  1  0
 19 56  1  0
 25 57  1  0
 25 58  1  0
 25 59  1  0
 26 60  1  0
 26 61  1  0
 26 62  1  0
 27 63  1  0
 29 64  1  0
M  CHG  1  32  -1
M  END
>  <UniqueID>  (80) 
77

>  <SMILES>  (80) 
CC(C)(C)CN([C@H](CO)CCc1ccc2cc(C(N)=O)n(C(=O)C(C)(C)O)c2c1)[S@@](=O)[O-]

>  <Energy>  (80) 
110.25112722578493

>  <Genealogy>  (80) 
CC(C)(C)CN(C(CO)CCc1ccc2cc(C(N)=O)n(C(=O)C(C)(C)O)c2c1)S(=O)[O-] (protonated)
CC(C)(C)CN([C@H](CO)CCc1ccc2cc(C(N)=O)n(C(=O)C(C)(C)O)c2c1)[S@@](=O)[O-] (chirality)
CC(C)(C)CN([C@H](CO)CCc1ccc2cc(C(N)=O)n(C(=O)C(C)(C)O)c2c1)[S@@](=O)[O-] (3D coordinates assigned)
CC(C)(C)CN([C@H](CO)CCc1ccc2cc(C(N)=O)n(C(=O)C(C)(C)O)c2c1)[S@@](=O)[O-] (optimized conformer: 110.25112722578493 kcal/mol)

>  <smiles>  (80) 
CC(C)(C)CN(C(CO)CCc1ccc2cc(C(N)=O)n(C(=O)C(C)(C)O)c2c1)S(=O)O

>  <score_type>  (80) 
oracle

>  <origin>  (80) 
adg

>  <m_score__min__energy>  (80) 
-8.2100000000000009

>  <m_primary>  (80) 
energy

$$$$
81:0
     RDKit          3D

 42 45  0  0  0  0  0  0  0  0999 V2000
  143.6000  162.7360  133.3580 N   0  0  0  0  0  0  0  0  0  0  0  0
  144.2520  161.5410  133.7840 C   0  0  0  0  0  0  0  0  0  0  0  0
  145.4640  161.5880  134.1240 O   0  0  0  0  0  0  0  0  0  0  0  0
  143.4920  160.2760  133.8630 C   0  0  0  0  0  0  0  0  0  0  0  0
  142.1280  160.2190  134.1410 C   0  0  0  0  0  0  0  0  0  0  0  0
  141.8280  158.8790  134.2170 C   0  0  0  0  0  0  0  0  0  0  0  0
  140.6130  158.2470  134.4600 C   0  0  0  0  0  0  0  0  0  0  0  0
  140.5860  156.8430  134.4540 C   0  0  0  0  0  0  0  0  0  0  0  0
  141.7650  156.0950  134.2000 C   0  0  0  0  0  0  0  0  0  0  0  0
  141.7330  154.6140  134.1830 C   0  0  0  0  0  0  0  0  0  0  0  0
  142.2330  153.8450  135.1800 N   0  0  0  0  0  0  0  0  0  0  0  0
  142.0860  152.5170  134.9330 C   0  0  0  0  0  0  0  0  0  0  0  0
  141.4700  152.2140  133.7260 C   0  0  0  0  0  0  0  0  0  0  0  0
  141.1550  150.8430  133.2140 C   0  0  0  0  0  0  0  0  0  0  0  0
  140.5340  150.9170  131.8920 N   0  0  0  0  0  0  0  0  0  0  0  0
  140.0500  149.7770  131.1540 C   0  0  0  0  0  0  0  0  0  0  0  0
  139.2290  149.9850  130.0330 C   0  0  0  0  0  0  0  0  0  0  0  0
  138.7470  148.9010  129.2950 C   0  0  0  0  0  0  0  0  0  0  0  0
  139.0770  147.5970  129.6690 C   0  0  0  0  0  0  0  0  0  0  0  0
  139.8880  147.3750  130.7850 C   0  0  0  0  0  0  0  0  0  0  0  0
  140.3730  148.4560  131.5270 C   0  0  0  0  0  0  0  0  0  0  0  0
  141.0840  153.6570  132.9530 S   0  0  0  0  0  0  0  0  0  0  0  0
  142.9810  156.7760  133.9570 C   0  0  0  0  0  0  0  0  0  0  0  0
  142.9810  158.1760  133.9860 C   0  0  0  0  0  0  0  0  0  0  0  0
  144.0140  159.0210  133.7640 N   0  0  0  0  0  0  0  0  0  0  0  0
  145.3590  158.6530  133.4190 C   0  0  0  0  0  0  0  0  0  0  0  0
  145.9640  157.7640  134.0740 O   0  0  0  0  0  0  0  0  0  0  0  0
  145.9970  159.2560  132.3420 O   0  0  0  0  0  0  0  0  0  0  0  0
  142.5700  162.8560  133.4720 H   0  0  0  0  0  0  0  0  0  0  0  0
  141.4379  161.0656  134.2719 H   0  0  0  0  0  0  0  0  0  0  0  0
  139.7000  158.8299  134.6513 H   0  0  0  0  0  0  0  0  0  0  0  0
  139.6398  156.3168  134.6485 H   0  0  0  0  0  0  0  0  0  0  0  0
  142.4284  151.7421  135.6347 H   0  0  0  0  0  0  0  0  0  0  0  0
  142.0856  150.2606  133.1441 H   0  0  0  0  0  0  0  0  0  0  0  0
  140.4535  150.3577  133.9085 H   0  0  0  0  0  0  0  0  0  0  0  0
  140.4640  151.8620  131.4510 H   0  0  0  0  0  0  0  0  0  0  0  0
  138.9635  151.0097  129.7339 H   0  0  0  0  0  0  0  0  0  0  0  0
  138.1065  149.0752  128.4179 H   0  0  0  0  0  0  0  0  0  0  0  0
  138.6987  146.7448  129.0854 H   0  0  0  0  0  0  0  0  0  0  0  0
  140.1454  146.3472  131.0804 H   0  0  0  0  0  0  0  0  0  0  0  0
  141.0095  148.2753  132.4058 H   0  0  0  0  0  0  0  0  0  0  0  0
  143.9061  156.2180  133.7499 H   0  0  0  0  0  0  0  0  0  0  0  0
  1  2  1  0
  2  3  2  0
  2  4  1  0
  4  5  2  0
  5  6  1  0
  6  7  2  0
  7  8  1  0
  8  9  2  0
  9 10  1  0
 10 11  2  0
 11 12  1  0
 12 13  2  0
 13 14  1  0
 14 15  1  0
 15 16  1  0
 16 17  2  0
 17 18  1  0
 18 19  2  0
 19 20  1  0
 20 21  2  0
 13 22  1  0
  9 23  1  0
 23 24  2  0
 24 25  1  0
 25 26  1  0
 26 27  2  0
 26 28  1  0
 25  4  1  0
 24  6  1  0
 22 10  1  0
 21 16  1  0
  1 29  1  0
  5 30  1  0
  7 31  1  0
  8 32  1  0
 12 33  1  0
 14 34  1  0
 14 35  1  0
 15 36  1  0
 17 37  1  0
 18 38  1  0
 19 39  1  0
 20 40  1  0
 21 41  1  0
 23 42  1  0
M  CHG  2   1  -1  28  -1
M  END
>  <UniqueID>  (81) 
78

>  <SMILES>  (81) 
[NH-]C(=O)c1cc2ccc(-c3ncc(CNc4ccccc4)s3)cc2n1C(=O)[O-]

>  <Energy>  (81) 
115.54617992084175

>  <Genealogy>  (81) 
[NH-]C(=O)c1cc2ccc(-c3ncc(CNc4ccccc4)s3)cc2n1C(=O)[O-] (protonated)
[NH-]C(=O)c1cc2ccc(-c3ncc(CNc4ccccc4)s3)cc2n1C(=O)[O-] (3D coordinates assigned)
[NH-]C(=O)c1cc2ccc(-c3ncc(CNc4ccccc4)s3)cc2n1C(=O)[O-] (optimized conformer: 115.54617992084175 kcal/mol)

>  <smiles>  (81) 
NC(=O)c1cc2ccc(-c3ncc(CNc4ccccc4)s3)cc2n1C(=O)O

>  <score_type>  (81) 
oracle

>  <origin>  (81) 
adg

>  <m_score__min__energy>  (81) 
-9.4900000000000002

>  <m_primary>  (81) 
energy

$$$$
82:0
     RDKit          3D

 39 41  0  0  0  0  0  0  0  0999 V2000
  147.8460  154.5450  132.7750 C   0  0  0  0  0  0  0  0  0  0  0  0
  147.5210  155.8280  133.2960 O   0  0  0  0  0  0  0  0  0  0  0  0
  146.3120  156.4720  133.0160 C   0  0  0  0  0  0  0  0  0  0  0  0
  145.3230  155.8090  132.6010 O   0  0  0  0  0  0  0  0  0  0  0  0
  146.2010  157.8920  133.2040 N   0  0  0  0  0  0  0  0  0  0  0  0
  147.1680  158.8290  132.9960 C   0  0  0  0  0  0  0  0  0  0  0  0
  148.5880  158.5540  132.6960 C   0  0  0  0  0  0  0  0  0  0  0  0
  148.9680  157.4810  131.8350 N   0  0  0  0  0  0  0  0  0  0  0  0
  149.4820  159.2430  133.2550 O   0  0  0  0  0  0  0  0  0  0  0  0
  146.6540  160.1120  133.1540 C   0  0  0  0  0  0  0  0  0  0  0  0
  145.3300  159.9340  133.4810 C   0  0  0  0  0  0  0  0  0  0  0  0
  144.3400  160.8750  133.7350 C   0  0  0  0  0  0  0  0  0  0  0  0
  143.0430  160.4110  134.0110 C   0  0  0  0  0  0  0  0  0  0  0  0
  142.7490  159.0210  134.0200 C   0  0  0  0  0  0  0  0  0  0  0  0
  141.4060  158.5540  134.2930 N   0  0  0  0  0  0  0  0  0  0  0  0
  140.9560  158.0980  135.6000 C   0  0  0  0  0  0  0  0  0  0  0  0
  139.4540  157.8740  135.4740 C   0  0  0  0  0  0  0  0  0  0  0  0
  139.1730  157.7890  133.9710 C   0  0  2  0  0  0  0  0  0  0  0  0
  139.0680  156.4500  133.5510 O   0  0  0  0  0  0  0  0  0  0  0  0
  140.3510  158.4900  133.2920 C   0  0  0  0  0  0  0  0  0  0  0  0
  143.7920  158.0960  133.7540 C   0  0  0  0  0  0  0  0  0  0  0  0
  145.0790  158.5870  133.5030 C   0  0  0  0  0  0  0  0  0  0  0  0
  148.0231  153.8460  133.6057 H   0  0  0  0  0  0  0  0  0  0  0  0
  147.0125  154.1778  132.1582 H   0  0  0  0  0  0  0  0  0  0  0  0
  148.7538  154.6189  132.1582 H   0  0  0  0  0  0  0  0  0  0  0  0
  149.9750  157.3270  131.6020 H   0  0  0  0  0  0  0  0  0  0  0  0
  148.2650  156.7910  131.4900 H   0  0  0  0  0  0  0  0  0  0  0  0
  147.1916  161.0651  133.0415 H   0  0  0  0  0  0  0  0  0  0  0  0
  144.5650  161.9516  133.7204 H   0  0  0  0  0  0  0  0  0  0  0  0
  142.2427  161.1351  134.2234 H   0  0  0  0  0  0  0  0  0  0  0  0
  141.4607  157.1592  135.8716 H   0  0  0  0  0  0  0  0  0  0  0  0
  141.1887  158.8330  136.3846 H   0  0  0  0  0  0  0  0  0  0  0  0
  139.1626  156.9376  135.9723 H   0  0  0  0  0  0  0  0  0  0  0  0
  138.8812  158.6840  135.9492 H   0  0  0  0  0  0  0  0  0  0  0  0
  138.2163  158.2655  133.7107 H   0  0  0  0  0  0  0  0  0  0  0  0
  138.2800  156.3790  132.9500 H   0  0  0  0  0  0  0  0  0  0  0  0
  140.6873  157.9135  132.4176 H   0  0  0  0  0  0  0  0  0  0  0  0
  140.0730  159.4918  132.9327 H   0  0  0  0  0  0  0  0  0  0  0  0
  143.5931  157.0142  133.7452 H   0  0  0  0  0  0  0  0  0  0  0  0
  1  2  1  0
  2  3  1  0
  3  4  2  0
  3  5  1  0
  5  6  1  0
  6  7  1  0
  7  8  1  0
  7  9  2  0
  6 10  2  0
 10 11  1  0
 11 12  2  0
 12 13  1  0
 13 14  2  0
 14 15  1  0
 15 16  1  0
 16 17  1  0
 17 18  1  0
 18 19  1  0
 18 20  1  0
 14 21  1  0
 21 22  2  0
 22  5  1  0
 22 11  1  0
 20 15  1  0
  1 23  1  0
  1 24  1  0
  1 25  1  0
  8 26  1  0
  8 27  1  0
 10 28  1  0
 12 29  1  0
 13 30  1  0
 16 31  1  0
 16 32  1  0
 17 33  1  0
 17 34  1  0
 18 35  1  1
 19 36  1  0
 20 37  1  0
 20 38  1  0
 21 39  1  0
M  END
>  <UniqueID>  (82) 
79

>  <SMILES>  (82) 
COC(=O)n1c(C(N)=O)cc2ccc(N3CC[C@H](O)C3)cc21

>  <Energy>  (82) 
80.52363274607994

>  <Genealogy>  (82) 
COC(=O)n1c(C(N)=O)cc2ccc(N3CC[C@H](O)C3)cc21 (3D coordinates assigned)
COC(=O)n1c(C(N)=O)cc2ccc(N3CC[C@H](O)C3)cc21 (nonaromatic ring conformer: 80.52363274607994 kcal/mol)

>  <smiles>  (82) 
COC(=O)n1c(C(N)=O)cc2ccc(N3CC[C@H](O)C3)cc21

>  <score_type>  (82) 
oracle

>  <origin>  (82) 
adg

>  <m_score__min__energy>  (82) 
-7.0099999999999998

>  <m_primary>  (82) 
energy

$$$$
83:0
     RDKit          3D

 38 40  0  0  0  0  0  0  0  0999 V2000
  142.1000  156.2510  136.5990 C   0  0  0  0  0  0  0  0  0  0  0  0
  142.1160  155.6640  135.2550 N   0  0  0  0  0  0  0  0  0  0  0  0
  141.9380  154.2210  135.0710 C   0  0  0  0  0  0  0  0  0  0  0  0
  142.3680  156.4990  134.1090 C   0  0  0  0  0  0  0  0  0  0  0  0
  142.6010  155.9780  132.9850 O   0  0  0  0  0  0  0  0  0  0  0  0
  142.3550  157.9280  134.2260 N   0  0  0  0  0  0  0  0  0  0  0  0
  141.3380  158.7210  134.6650 C   0  0  0  0  0  0  0  0  0  0  0  0
  139.9810  158.2620  135.0300 C   0  0  0  0  0  0  0  0  0  0  0  0
  139.5860  158.1530  136.3950 N   0  0  0  0  0  0  0  0  0  0  0  0
  139.1650  157.9440  134.1250 O   0  0  0  0  0  0  0  0  0  0  0  0
  141.7430  160.0550  134.6920 C   0  0  0  0  0  0  0  0  0  0  0  0
  143.0500  160.0500  134.2590 C   0  0  0  0  0  0  0  0  0  0  0  0
  143.9500  161.0980  134.1000 C   0  0  0  0  0  0  0  0  0  0  0  0
  145.2470  160.7930  133.6520 C   0  0  0  0  0  0  0  0  0  0  0  0
  145.6250  159.4510  133.3750 C   0  0  0  0  0  0  0  0  0  0  0  0
  146.9960  159.1390  132.9010 C   0  0  0  0  0  0  0  0  0  0  0  0
  147.5510  157.8630  133.1020 C   0  0  0  0  0  0  0  0  0  0  0  0
  148.8430  157.5890  132.6480 C   0  0  0  0  0  0  0  0  0  0  0  0
  149.5630  158.5530  132.0160 N   0  0  0  0  0  0  0  0  0  0  0  0
  149.0570  159.7970  131.8060 C   0  0  0  0  0  0  0  0  0  0  0  0
  149.8080  160.7320  131.1750 F   0  0  0  0  0  0  0  0  0  0  0  0
  147.7680  160.1130  132.2430 C   0  0  0  0  0  0  0  0  0  0  0  0
  144.6790  158.4140  133.5530 C   0  0  0  0  0  0  0  0  0  0  0  0
  143.3940  158.7530  133.9870 C   0  0  0  0  0  0  0  0  0  0  0  0
  142.1219  155.4478  137.3502 H   0  0  0  0  0  0  0  0  0  0  0  0
  142.9809  156.8972  136.7274 H   0  0  0  0  0  0  0  0  0  0  0  0
  141.1853  156.8483  136.7274 H   0  0  0  0  0  0  0  0  0  0  0  0
  141.8775  153.7307  136.0538 H   0  0  0  0  0  0  0  0  0  0  0  0
  141.0101  154.0345  134.5105 H   0  0  0  0  0  0  0  0  0  0  0  0
  142.7928  153.8146  134.5105 H   0  0  0  0  0  0  0  0  0  0  0  0
  139.4410  159.0050  136.9820 H   0  0  0  0  0  0  0  0  0  0  0  0
  141.1448  160.9269  134.9951 H   0  0  0  0  0  0  0  0  0  0  0  0
  143.6557  162.1352  134.3184 H   0  0  0  0  0  0  0  0  0  0  0  0
  145.9785  161.6029  133.5140 H   0  0  0  0  0  0  0  0  0  0  0  0
  146.9695  157.0830  133.6152 H   0  0  0  0  0  0  0  0  0  0  0  0
  149.2788  156.5909  132.8022 H   0  0  0  0  0  0  0  0  0  0  0  0
  147.3587  161.1198  132.0730 H   0  0  0  0  0  0  0  0  0  0  0  0
  144.9482  157.3661  133.3546 H   0  0  0  0  0  0  0  0  0  0  0  0
  1  2  1  0
  2  3  1  0
  2  4  1  0
  4  5  2  0
  4  6  1  0
  6  7  1  0
  7  8  1  0
  8  9  1  0
  8 10  2  0
  7 11  2  0
 11 12  1  0
 12 13  2  0
 13 14  1  0
 14 15  2  0
 15 16  1  0
 16 17  2  0
 17 18  1  0
 18 19  2  0
 19 20  1  0
 20 21  1  0
 20 22  2  0
 15 23  1  0
 23 24  2  0
 24  6  1  0
 24 12  1  0
 22 16  1  0
  1 25  1  0
  1 26  1  0
  1 27  1  0
  3 28  1  0
  3 29  1  0
  3 30  1  0
  9 31  1  0
 11 32  1  0
 13 33  1  0
 14 34  1  0
 17 35  1  0
 18 36  1  0
 22 37  1  0
 23 38  1  0
M  CHG  1   9  -1
M  END
>  <UniqueID>  (83) 
80

>  <SMILES>  (83) 
CN(C)C(=O)n1c(C([NH-])=O)cc2ccc(-c3ccnc(F)c3)cc21

>  <Energy>  (83) 
83.39054466124777

>  <Genealogy>  (83) 
CN(C)C(=O)n1c(C([NH-])=O)cc2ccc(-c3ccnc(F)c3)cc21 (protonated)
CN(C)C(=O)n1c(C([NH-])=O)cc2ccc(-c3ccnc(F)c3)cc21 (3D coordinates assigned)
CN(C)C(=O)n1c(C([NH-])=O)cc2ccc(-c3ccnc(F)c3)cc21 (optimized conformer: 83.39054466124777 kcal/mol)

>  <smiles>  (83) 
CN(C)C(=O)n1c(C(N)=O)cc2ccc(-c3ccnc(F)c3)cc21

>  <score_type>  (83) 
oracle

>  <origin>  (83) 
adg

>  <m_score__min__energy>  (83) 
-7.5999999999999996

>  <m_primary>  (83) 
energy

$$$$
84:0
     RDKit          3D

 42 44  0  0  0  0  0  0  0  0999 V2000
  140.1220  147.7320  131.3330 N   0  0  0  0  0  0  0  0  0  0  0  0
  140.6110  148.7240  131.6730 C   0  0  0  0  0  0  0  0  0  0  0  0
  141.2190  149.9580  132.0970 C   0  0  0  0  0  0  0  0  0  0  0  0
  142.5930  150.0130  132.3470 C   0  0  0  0  0  0  0  0  0  0  0  0
  143.1850  151.2110  132.7590 C   0  0  0  0  0  0  0  0  0  0  0  0
  142.4080  152.3740  132.9540 C   0  0  0  0  0  0  0  0  0  0  0  0
  143.0610  153.7060  133.3760 C   0  0  2  0  0  0  0  0  0  0  0  0
  143.4040  154.4820  132.2470 O   0  0  0  0  0  0  0  0  0  0  0  0
  144.3420  153.4930  134.2460 C   0  0  0  0  0  0  0  0  0  0  0  0
  145.5190  154.3460  133.8270 C   0  0  0  0  0  0  0  0  0  0  0  0
  146.7670  153.7470  133.5180 C   0  0  0  0  0  0  0  0  0  0  0  0
  147.8550  154.5300  133.1000 C   0  0  0  0  0  0  0  0  0  0  0  0
  147.6750  155.9060  133.0160 C   0  0  0  0  0  0  0  0  0  0  0  0
  148.5500  156.8890  132.6160 C   0  0  0  0  0  0  0  0  0  0  0  0
  147.8370  158.0820  132.7210 C   0  0  0  0  0  0  0  0  0  0  0  0
  148.4360  159.4090  132.4690 C   0  0  0  0  0  0  0  0  0  0  0  0
  147.6950  160.4350  131.8120 N   0  0  0  0  0  0  0  0  0  0  0  0
  149.5990  159.6570  132.8820 O   0  0  0  0  0  0  0  0  0  0  0  0
  146.5680  157.8450  133.1610 N   0  0  0  0  0  0  0  0  0  0  0  0
  145.4980  158.7920  133.3060 C   0  0  0  0  0  0  0  0  0  0  0  0
  144.3510  158.5310  132.8590 O   0  0  0  0  0  0  0  0  0  0  0  0
  145.7260  160.0190  133.9180 O   0  0  0  0  0  0  0  0  0  0  0  0
  146.4870  156.5080  133.3400 C   0  0  0  0  0  0  0  0  0  0  0  0
  145.3800  155.7500  133.7420 C   0  0  0  0  0  0  0  0  0  0  0  0
  142.0270  154.5320  134.1780 C   0  0  0  0  0  0  0  0  0  0  0  0
  142.6500  155.6050  134.7960 F   0  0  0  0  0  0  0  0  0  0  0  0
  141.0540  155.0280  133.3280 F   0  0  0  0  0  0  0  0  0  0  0  0
  141.4130  153.7640  135.1530 F   0  0  0  0  0  0  0  0  0  0  0  0
  141.0300  152.3080  132.6550 C   0  0  0  0  0  0  0  0  0  0  0  0
  140.4410  151.1090  132.2450 C   0  0  0  0  0  0  0  0  0  0  0  0
  143.2103  149.1115  132.2193 H   0  0  0  0  0  0  0  0  0  0  0  0
  144.2704  151.2480  132.9336 H   0  0  0  0  0  0  0  0  0  0  0  0
  142.7880  155.2590  132.1980 H   0  0  0  0  0  0  0  0  0  0  0  0
  144.0948  153.7337  135.2905 H   0  0  0  0  0  0  0  0  0  0  0  0
  144.6459  152.4441  134.1137 H   0  0  0  0  0  0  0  0  0  0  0  0
  146.8838  152.6568  133.6068 H   0  0  0  0  0  0  0  0  0  0  0  0
  148.8208  154.0685  132.8466 H   0  0  0  0  0  0  0  0  0  0  0  0
  149.5908  156.7609  132.2839 H   0  0  0  0  0  0  0  0  0  0  0  0
  146.8600  160.8700  132.2660 H   0  0  0  0  0  0  0  0  0  0  0  0
  144.4240  156.2363  133.9861 H   0  0  0  0  0  0  0  0  0  0  0  0
  140.4113  153.2129  132.7460 H   0  0  0  0  0  0  0  0  0  0  0  0
  139.3613  151.0712  132.0381 H   0  0  0  0  0  0  0  0  0  0  0  0
  1  2  3  0
  2  3  1  0
  3  4  2  0
  4  5  1  0
  5  6  2  0
  6  7  1  0
  7  8  1  6
  7  9  1  0
  9 10  1  0
 10 11  2  0
 11 12  1  0
 12 13  2  0
 13 14  1  0
 14 15  2  0
 15 16  1  0
 16 17  1  0
 16 18  2  0
 15 19  1  0
 19 20  1  0
 20 21  2  0
 20 22  1  0
 19 23  1  0
 23 24  2  0
  7 25  1  0
 25 26  1  0
 25 27  1  0
 25 28  1  0
  6 29  1  0
 29 30  2  0
 30  3  1  0
 24 10  1  0
 23 13  1  0
  4 31  1  0
  5 32  1  0
  8 33  1  0
  9 34  1  0
  9 35  1  0
 11 36  1  0
 12 37  1  0
 14 38  1  0
 17 39  1  0
 24 40  1  0
 29 41  1  0
 30 42  1  0
M  CHG  2  17  -1  22  -1
M  END
>  <UniqueID>  (84) 
81

>  <SMILES>  (84) 
N#Cc1ccc([C@](O)(Cc2ccc3cc(C([NH-])=O)n(C(=O)[O-])c3c2)C(F)(F)F)cc1

>  <Energy>  (84) 
88.30059530745237

>  <Genealogy>  (84) 
N#Cc1ccc(C(O)(Cc2ccc3cc(C([NH-])=O)n(C(=O)[O-])c3c2)C(F)(F)F)cc1 (protonated)
N#Cc1ccc([C@](O)(Cc2ccc3cc(C([NH-])=O)n(C(=O)[O-])c3c2)C(F)(F)F)cc1 (chirality)
N#Cc1ccc([C@](O)(Cc2ccc3cc(C([NH-])=O)n(C(=O)[O-])c3c2)C(F)(F)F)cc1 (3D coordinates assigned)
N#Cc1ccc([C@](O)(Cc2ccc3cc(C([NH-])=O)n(C(=O)[O-])c3c2)C(F)(F)F)cc1 (optimized conformer: 88.30059530745237 kcal/mol)

>  <smiles>  (84) 
N#Cc1ccc(C(O)(Cc2ccc3cc(C(N)=O)n(C(=O)O)c3c2)C(F)(F)F)cc1

>  <score_type>  (84) 
oracle

>  <origin>  (84) 
adg

>  <m_score__min__energy>  (84) 
-8.4299999999999997

>  <m_primary>  (84) 
energy

$$$$
85:0
     RDKit          3D

 26 27  0  0  0  0  0  0  0  0999 V2000
  149.2210  157.4740  132.2670 C   0  0  0  0  0  0  0  0  0  0  0  0
  148.1050  158.4020  132.6480 C   0  0  0  0  0  0  0  0  0  0  0  0
  148.3860  159.7520  132.9720 C   0  0  0  0  0  0  0  0  0  0  0  0
  147.3520  160.6260  133.3520 C   0  0  0  0  0  0  0  0  0  0  0  0
  146.0590  160.1150  133.4200 C   0  0  0  0  0  0  0  0  0  0  0  0
  144.8740  160.7410  133.7320 C   0  0  0  0  0  0  0  0  0  0  0  0
  143.8950  159.7540  133.6320 C   0  0  0  0  0  0  0  0  0  0  0  0
  142.4690  159.9830  133.9480 C   0  0  0  0  0  0  0  0  0  0  0  0
  141.4850  160.0270  132.9190 N   0  0  0  0  0  0  0  0  0  0  0  0
  142.1100  160.1060  135.1500 O   0  0  0  0  0  0  0  0  0  0  0  0
  144.4540  158.5640  133.2710 N   0  0  0  0  0  0  0  0  0  0  0  0
  143.7840  157.3250  132.9920 C   0  0  0  0  0  0  0  0  0  0  0  0
  142.5390  157.3190  132.2950 N   0  0  0  0  0  0  0  0  0  0  0  0
  144.2930  156.2360  133.3680 O   0  0  0  0  0  0  0  0  0  0  0  0
  145.7780  158.8020  133.1430 C   0  0  0  0  0  0  0  0  0  0  0  0
  146.7830  157.9150  132.7410 C   0  0  0  0  0  0  0  0  0  0  0  0
  149.6961  157.0789  133.1770 H   0  0  0  0  0  0  0  0  0  0  0  0
  148.8182  156.6408  131.6723 H   0  0  0  0  0  0  0  0  0  0  0  0
  149.9667  158.0220  131.6723 H   0  0  0  0  0  0  0  0  0  0  0  0
  149.4217  160.1197  132.9260 H   0  0  0  0  0  0  0  0  0  0  0  0
  147.5585  161.6803  133.5881 H   0  0  0  0  0  0  0  0  0  0  0  0
  144.7298  161.7973  134.0031 H   0  0  0  0  0  0  0  0  0  0  0  0
  141.6880  159.6530  131.9660 H   0  0  0  0  0  0  0  0  0  0  0  0
  142.1360  158.2060  131.9200 H   0  0  0  0  0  0  0  0  0  0  0  0
  142.0380  156.4190  132.1170 H   0  0  0  0  0  0  0  0  0  0  0  0
  146.5493  156.8666  132.5038 H   0  0  0  0  0  0  0  0  0  0  0  0
  1  2  1  0
  2  3  2  0
  3  4  1  0
  4  5  2  0
  5  6  1  0
  6  7  2  0
  7  8  1  0
  8  9  1  0
  8 10  2  0
  7 11  1  0
 11 12  1  0
 12 13  1  0
 12 14  2  0
 11 15  1  0
 15 16  2  0
 16  2  1  0
 15  5  1  0
  1 17  1  0
  1 18  1  0
  1 19  1  0
  3 20  1  0
  4 21  1  0
  6 22  1  0
  9 23  1  0
 13 24  1  0
 13 25  1  0
 16 26  1  0
M  CHG  1   9  -1
M  END
>  <UniqueID>  (85) 
82

>  <SMILES>  (85) 
Cc1ccc2cc(C([NH-])=O)n(C(N)=O)c2c1

>  <Energy>  (85) 
64.31830589211786

>  <Genealogy>  (85) 
Cc1ccc2cc(C([NH-])=O)n(C(N)=O)c2c1 (protonated)
Cc1ccc2cc(C([NH-])=O)n(C(N)=O)c2c1 (3D coordinates assigned)
Cc1ccc2cc(C([NH-])=O)n(C(N)=O)c2c1 (optimized conformer: 64.31830589211786 kcal/mol)

>  <smiles>  (85) 
Cc1ccc2cc(C(N)=O)n(C(N)=O)c2c1

>  <score_type>  (85) 
oracle

>  <origin>  (85) 
adg

>  <m_score__min__energy>  (85) 
-6.1900000000000004

>  <m_primary>  (85) 
energy

$$$$
86:0
     RDKit          3D

 77 81  0  0  0  0  0  0  0  0999 V2000
  142.5320  152.2680  133.6360 C   0  0  0  0  0  0  0  0  0  0  0  0
  142.1140  152.9340  134.8600 N   0  0  0  0  0  0  0  0  0  0  0  0
  141.4710  152.2420  135.9340 C   0  0  0  0  0  0  0  0  0  0  0  0
  140.9940  151.0890  135.7460 O   0  0  0  0  0  0  0  0  0  0  0  0
  141.3580  152.8630  137.2260 N   0  0  0  0  0  0  0  0  0  0  0  0
  141.1020  152.2560  138.4200 C   0  0  0  0  0  0  0  0  0  0  0  0
  141.0590  150.8010  138.6570 C   0  0  0  0  0  0  0  0  0  0  0  0
  139.9980  150.0090  138.1320 N   0  0  0  0  0  0  0  0  0  0  0  0
  141.9940  150.2420  139.2890 O   0  0  0  0  0  0  0  0  0  0  0  0
  140.9530  153.2040  139.4300 C   0  0  0  0  0  0  0  0  0  0  0  0
  141.1330  154.4210  138.8160 C   0  0  0  0  0  0  0  0  0  0  0  0
  141.0740  155.7070  139.3460 C   0  0  0  0  0  0  0  0  0  0  0  0
  141.2490  156.7900  138.4690 C   0  0  0  0  0  0  0  0  0  0  0  0
  141.4590  156.5740  137.0820 C   0  0  0  0  0  0  0  0  0  0  0  0
  141.5930  157.7190  136.1480 C   0  0  0  0  0  0  0  0  0  0  0  0
  140.9700  158.9430  136.4470 C   0  0  0  0  0  0  0  0  0  0  0  0
  141.1050  160.0060  135.6110 N   0  0  0  0  0  0  0  0  0  0  0  0
  141.8410  159.9310  134.4740 C   0  0  0  0  0  0  0  0  0  0  0  0
  142.4890  158.7420  134.1360 C   0  0  0  0  0  0  0  0  0  0  0  0
  142.3690  157.6200  134.9750 C   0  0  0  0  0  0  0  0  0  0  0  0
  143.0130  156.4070  134.6840 O   0  0  0  0  0  0  0  0  0  0  0  0
  142.8140  155.6390  133.5020 C   0  0  0  0  0  0  0  0  0  0  0  0
  144.0810  155.6800  132.6590 C   0  0  0  0  0  0  0  0  0  0  0  0
  144.7990  154.4810  132.8520 O   0  0  0  0  0  0  0  0  0  0  0  0
  146.2310  154.7250  133.8140 Si  0  0  0  0  0  4  0  0  0  0  0  0
  145.9550  154.0880  135.5540 C   0  0  0  0  0  0  0  0  0  0  0  0
  144.6730  153.8690  136.0810 C   0  0  0  0  0  0  0  0  0  0  0  0
  144.5190  153.3640  137.3760 C   0  0  0  0  0  0  0  0  0  0  0  0
  145.6400  153.0520  138.1460 C   0  0  0  0  0  0  0  0  0  0  0  0
  146.9190  153.2350  137.6180 C   0  0  0  0  0  0  0  0  0  0  0  0
  147.0780  153.7430  136.3260 C   0  0  0  0  0  0  0  0  0  0  0  0
  147.5360  153.6280  133.0690 C   0  0  0  0  0  0  0  0  0  0  0  0
  148.8630  154.0750  132.9880 C   0  0  0  0  0  0  0  0  0  0  0  0
  149.8600  153.2320  132.4870 C   0  0  0  0  0  0  0  0  0  0  0  0
  149.5410  151.9350  132.0770 C   0  0  0  0  0  0  0  0  0  0  0  0
  148.2230  151.4830  132.1600 C   0  0  0  0  0  0  0  0  0  0  0  0
  147.2230  152.3190  132.6660 C   0  0  0  0  0  0  0  0  0  0  0  0
  146.8930  156.5190  133.6390 C   0  0  0  0  0  0  0  0  0  0  0  0
  148.1050  156.7260  134.5680 C   0  0  0  0  0  0  0  0  0  0  0  0
  145.8000  157.5560  133.9620 C   0  0  0  0  0  0  0  0  0  0  0  0
  147.3530  156.7410  132.1840 C   0  0  0  0  0  0  0  0  0  0  0  0
  141.5240  155.2510  136.5850 C   0  0  0  0  0  0  0  0  0  0  0  0
  141.3720  154.1900  137.4850 C   0  0  0  0  0  0  0  0  0  0  0  0
  143.1012  151.3611  133.8880 H   0  0  0  0  0  0  0  0  0  0  0  0
  141.6447  151.9922  133.0472 H   0  0  0  0  0  0  0  0  0  0  0  0
  143.1662  152.9471  133.0472 H   0  0  0  0  0  0  0  0  0  0  0  0
  139.9640  149.7560  137.1200 H   0  0  0  0  0  0  0  0  0  0  0  0
  140.7373  153.0184  140.4925 H   0  0  0  0  0  0  0  0  0  0  0  0
  140.8957  155.8700  140.4191 H   0  0  0  0  0  0  0  0  0  0  0  0
  141.2230  157.8172  138.8615 H   0  0  0  0  0  0  0  0  0  0  0  0
  140.3694  159.0411  137.3634 H   0  0  0  0  0  0  0  0  0  0  0  0
  141.9273  160.8091  133.8171 H   0  0  0  0  0  0  0  0  0  0  0  0
  143.0910  158.6829  133.2172 H   0  0  0  0  0  0  0  0  0  0  0  0
  142.5865  154.5977  133.7738 H   0  0  0  0  0  0  0  0  0  0  0  0
  141.9741  156.0564  132.9272 H   0  0  0  0  0  0  0  0  0  0  0  0
  143.8143  155.7835  131.5968 H   0  0  0  0  0  0  0  0  0  0  0  0
  144.7007  156.5374  132.9603 H   0  0  0  0  0  0  0  0  0  0  0  0
  143.7850  154.0956  135.4726 H   0  0  0  0  0  0  0  0  0  0  0  0
  143.5108  153.2123  137.7889 H   0  0  0  0  0  0  0  0  0  0  0  0
  145.5160  152.6625  139.1672 H   0  0  0  0  0  0  0  0  0  0  0  0
  147.8033  152.9789  138.2200 H   0  0  0  0  0  0  0  0  0  0  0  0
  148.0881  153.8737  135.9105 H   0  0  0  0  0  0  0  0  0  0  0  0
  149.1203  155.0918  133.3196 H   0  0  0  0  0  0  0  0  0  0  0  0
  150.8974  153.5907  132.4156 H   0  0  0  0  0  0  0  0  0  0  0  0
  150.3275  151.2709  131.6893 H   0  0  0  0  0  0  0  0  0  0  0  0
  147.9702  150.4658  131.8263 H   0  0  0  0  0  0  0  0  0  0  0  0
  146.1896  151.9512  132.7487 H   0  0  0  0  0  0  0  0  0  0  0  0
  147.7771  156.6700  135.6165 H   0  0  0  0  0  0  0  0  0  0  0  0
  148.8527  155.9426  134.3753 H   0  0  0  0  0  0  0  0  0  0  0  0
  148.5503  157.7132  134.3753 H   0  0  0  0  0  0  0  0  0  0  0  0
  145.6976  157.6531  135.0529 H   0  0  0  0  0  0  0  0  0  0  0  0
  146.0792  158.5291  133.5318 H   0  0  0  0  0  0  0  0  0  0  0  0
  144.8429  157.2260  133.5318 H   0  0  0  0  0  0  0  0  0  0  0  0
  148.3437  157.2191  132.1815 H   0  0  0  0  0  0  0  0  0  0  0  0
  147.4121  155.7723  131.6663 H   0  0  0  0  0  0  0  0  0  0  0  0
  146.6314  157.3900  131.6663 H   0  0  0  0  0  0  0  0  0  0  0  0
  141.6904  155.0604  135.5145 H   0  0  0  0  0  0  0  0  0  0  0  0
  1  2  1  0
  2  3  1  0
  3  4  2  0
  3  5  1  0
  5  6  1  0
  6  7  1  0
  7  8  1  0
  7  9  2  0
  6 10  2  0
 10 11  1  0
 11 12  2  0
 12 13  1  0
 13 14  2  0
 14 15  1  0
 15 16  2  0
 16 17  1  0
 17 18  2  0
 18 19  1  0
 19 20  2  0
 20 21  1  0
 21 22  1  0
 22 23  1  0
 23 24  1  0
 24 25  1  0
 25 26  1  0
 26 27  2  0
 27 28  1  0
 28 29  2  0
 29 30  1  0
 30 31  2  0
 25 32  1  0
 32 33  2  0
 33 34  1  0
 34 35  2  0
 35 36  1  0
 36 37  2  0
 25 38  1  0
 38 39  1  0
 38 40  1  0
 38 41  1  0
 14 42  1  0
 42 43  2  0
 43  5  1  0
 43 11  1  0
 20 15  1  0
 31 26  1  0
 37 32  1  0
  1 44  1  0
  1 45  1  0
  1 46  1  0
  8 47  1  0
 10 48  1  0
 12 49  1  0
 13 50  1  0
 16 51  1  0
 18 52  1  0
 19 53  1  0
 22 54  1  0
 22 55  1  0
 23 56  1  0
 23 57  1  0
 27 58  1  0
 28 59  1  0
 29 60  1  0
 30 61  1  0
 31 62  1  0
 33 63  1  0
 34 64  1  0
 35 65  1  0
 36 66  1  0
 37 67  1  0
 39 68  1  0
 39 69  1  0
 39 70  1  0
 40 71  1  0
 40 72  1  0
 40 73  1  0
 41 74  1  0
 41 75  1  0
 41 76  1  0
 42 77  1  0
M  CHG  2   2  -1   8  -1
M  END
>  <UniqueID>  (86) 
83

>  <SMILES>  (86) 
C[N-]C(=O)n1c(C([NH-])=O)cc2ccc(-c3cnccc3OCCO[Si](c3ccccc3)(c3ccccc3)C(C)(C)C)cc21

>  <Energy>  (86) 
114.85214237404966

>  <Genealogy>  (86) 
C[N-]C(=O)n1c(C([NH-])=O)cc2ccc(-c3cnccc3OCCO[Si](c3ccccc3)(c3ccccc3)C(C)(C)C)cc21 (protonated)
C[N-]C(=O)n1c(C([NH-])=O)cc2ccc(-c3cnccc3OCCO[Si](c3ccccc3)(c3ccccc3)C(C)(C)C)cc21 (3D coordinates assigned)
C[N-]C(=O)n1c(C([NH-])=O)cc2ccc(-c3cnccc3OCCO[Si](c3ccccc3)(c3ccccc3)C(C)(C)C)cc21 (optimized conformer: 114.85214237404966 kcal/mol)

>  <smiles>  (86) 
CNC(=O)n1c(C(N)=O)cc2ccc(-c3cnccc3OCCO[Si](c3ccccc3)(c3ccccc3)C(C)(C)C)cc21

>  <score_type>  (86) 
oracle

>  <origin>  (86) 
adg

>  <m_score__min__energy>  (86) 
-11.48

>  <m_primary>  (86) 
energy

$$$$
87:0
     RDKit          3D

 47 49  0  0  0  0  0  0  0  0999 V2000
  148.8860  161.3200  131.1060 C   0  0  0  0  0  0  0  0  0  0  0  0
  148.5010  159.8560  131.3930 C   0  0  0  0  0  0  0  0  0  0  0  0
  148.8730  158.9520  130.2030 C   0  0  0  0  0  0  0  0  0  0  0  0
  149.2620  159.3760  132.6380 C   0  0  0  0  0  0  0  0  0  0  0  0
  147.0990  159.7530  131.6880 O   0  0  0  0  0  0  0  0  0  0  0  0
  146.4980  159.9180  132.9450 C   0  0  0  0  0  0  0  0  0  0  0  0
  146.8680  160.8390  133.7220 O   0  0  0  0  0  0  0  0  0  0  0  0
  145.4490  159.0220  133.3460 N   0  0  0  0  0  0  0  0  0  0  0  0
  144.1550  159.3440  133.6270 C   0  0  0  0  0  0  0  0  0  0  0  0
  143.6120  160.7120  133.7430 C   0  0  0  0  0  0  0  0  0  0  0  0
  144.4280  161.8560  133.4910 N   0  0  0  0  0  0  0  0  0  0  0  0
  142.4210  160.8750  134.1240 O   0  0  0  0  0  0  0  0  0  0  0  0
  143.3970  158.1980  133.8430 C   0  0  0  0  0  0  0  0  0  0  0  0
  144.2760  157.1490  133.6950 C   0  0  0  0  0  0  0  0  0  0  0  0
  144.0550  155.7810  133.7860 C   0  0  0  0  0  0  0  0  0  0  0  0
  145.1360  154.9200  133.5470 C   0  0  0  0  0  0  0  0  0  0  0  0
  146.4200  155.4320  133.2110 C   0  0  0  0  0  0  0  0  0  0  0  0
  147.5260  154.5340  132.9530 N   0  0  0  0  0  0  0  0  0  0  0  0
  147.4230  153.0830  133.0030 C   0  0  0  0  0  0  0  0  0  0  0  0
  148.8430  152.5590  132.8440 C   0  0  0  0  0  0  0  0  0  0  0  0
  149.6490  153.7160  132.2660 C   0  0  0  0  0  0  0  0  0  0  0  0
  148.8700  154.9770  132.6140 C   0  0  0  0  0  0  0  0  0  0  0  0
  146.5990  156.8360  133.1280 C   0  0  0  0  0  0  0  0  0  0  0  0
  145.5070  157.6720  133.3940 C   0  0  0  0  0  0  0  0  0  0  0  0
  149.0268  161.8552  132.0566 H   0  0  0  0  0  0  0  0  0  0  0  0
  149.8217  161.3466  130.5282 H   0  0  0  0  0  0  0  0  0  0  0  0
  148.0844  161.8034  130.5282 H   0  0  0  0  0  0  0  0  0  0  0  0
  149.2665  157.9957  130.5780 H   0  0  0  0  0  0  0  0  0  0  0  0
  147.9785  158.7655  129.5905 H   0  0  0  0  0  0  0  0  0  0  0  0
  149.6397  159.4491  129.5905 H   0  0  0  0  0  0  0  0  0  0  0  0
  148.7327  159.7099  133.5426 H   0  0  0  0  0  0  0  0  0  0  0  0
  149.3200  158.2776  132.6315 H   0  0  0  0  0  0  0  0  0  0  0  0
  150.2783  159.7969  132.6315 H   0  0  0  0  0  0  0  0  0  0  0  0
  145.4570  161.7610  133.3440 H   0  0  0  0  0  0  0  0  0  0  0  0
  144.0150  162.8140  133.5280 H   0  0  0  0  0  0  0  0  0  0  0  0
  142.3246  158.1419  134.0811 H   0  0  0  0  0  0  0  0  0  0  0  0
  143.0606  155.3841  134.0383 H   0  0  0  0  0  0  0  0  0  0  0  0
  144.9888  153.8324  133.6205 H   0  0  0  0  0  0  0  0  0  0  0  0
  147.0024  152.7622  133.9675 H   0  0  0  0  0  0  0  0  0  0  0  0
  146.7594  152.6975  132.2150 H   0  0  0  0  0  0  0  0  0  0  0  0
  149.2516  152.2570  133.8196 H   0  0  0  0  0  0  0  0  0  0  0  0
  148.8779  151.6746  132.1909 H   0  0  0  0  0  0  0  0  0  0  0  0
  150.6516  153.7480  132.7175 H   0  0  0  0  0  0  0  0  0  0  0  0
  149.7868  153.6114  131.1797 H   0  0  0  0  0  0  0  0  0  0  0  0
  149.3322  155.4880  133.4714 H   0  0  0  0  0  0  0  0  0  0  0  0
  148.8612  155.6905  131.7768 H   0  0  0  0  0  0  0  0  0  0  0  0
  147.5775  157.2610  132.8597 H   0  0  0  0  0  0  0  0  0  0  0  0
  1  2  1  0
  2  3  1  0
  2  4  1  0
  2  5  1  0
  5  6  1  0
  6  7  2  0
  6  8  1  0
  8  9  1  0
  9 10  1  0
 10 11  1  0
 10 12  2  0
  9 13  2  0
 13 14  1  0
 14 15  2  0
 15 16  1  0
 16 17  2  0
 17 18  1  0
 18 19  1  0
 19 20  1  0
 20 21  1  0
 21 22  1  0
 17 23  1  0
 23 24  2  0
 24  8  1  0
 24 14  1  0
 22 18  1  0
  1 25  1  0
  1 26  1  0
  1 27  1  0
  3 28  1  0
  3 29  1  0
  3 30  1  0
  4 31  1  0
  4 32  1  0
  4 33  1  0
 11 34  1  0
 11 35  1  0
 13 36  1  0
 15 37  1  0
 16 38  1  0
 19 39  1  0
 19 40  1  0
 20 41  1  0
 20 42  1  0
 21 43  1  0
 21 44  1  0
 22 45  1  0
 22 46  1  0
 23 47  1  0
M  END
>  <UniqueID>  (87) 
84

>  <SMILES>  (87) 
CC(C)(C)OC(=O)n1c(C(N)=O)cc2ccc(N3CCCC3)cc21

>  <Energy>  (87) 
82.98468389076318

>  <Genealogy>  (87) 
CC(C)(C)OC(=O)n1c(C(N)=O)cc2ccc(N3CCCC3)cc21 (3D coordinates assigned)
CC(C)(C)OC(=O)n1c(C(N)=O)cc2ccc(N3CCCC3)cc21 (nonaromatic ring conformer: 82.98468389076318 kcal/mol)

>  <smiles>  (87) 
CC(C)(C)OC(=O)n1c(C(N)=O)cc2ccc(N3CCCC3)cc21

>  <score_type>  (87) 
oracle

>  <origin>  (87) 
adg

>  <m_score__min__energy>  (87) 
-7.7599999999999998

>  <m_primary>  (87) 
energy

$$$$
88:0
     RDKit          3D

 59 61  0  0  0  0  0  0  0  0999 V2000
  140.7100  153.2340  138.5890 C   0  0  0  0  0  0  0  0  0  0  0  0
  140.2280  154.5710  138.9740 N   0  0  0  0  0  0  0  0  0  0  0  0
  139.5280  154.4870  140.2700 C   0  0  0  0  0  0  0  0  0  0  0  0
  141.3630  155.5130  139.0520 C   0  0  0  0  0  0  0  0  0  0  0  0
  141.3900  156.4160  137.8450 C   0  0  0  0  0  0  0  0  0  0  0  0
  141.3490  157.8090  138.0110 C   0  0  0  0  0  0  0  0  0  0  0  0
  141.3810  158.6530  136.8960 C   0  0  0  0  0  0  0  0  0  0  0  0
  141.4520  158.1150  135.6020 C   0  0  0  0  0  0  0  0  0  0  0  0
  141.4990  159.0240  134.4040 C   0  0  0  0  0  0  0  0  0  0  0  0
  142.9150  159.4370  134.1040 C   0  0  0  0  0  0  0  0  0  0  0  0
  143.2680  160.8080  134.0600 C   0  0  0  0  0  0  0  0  0  0  0  0
  144.5830  161.2010  133.7570 C   0  0  0  0  0  0  0  0  0  0  0  0
  145.5200  160.2020  133.5070 C   0  0  0  0  0  0  0  0  0  0  0  0
  146.8570  160.3040  133.2020 C   0  0  0  0  0  0  0  0  0  0  0  0
  147.3040  158.9930  133.0630 C   0  0  0  0  0  0  0  0  0  0  0  0
  148.6780  158.6480  132.6390 C   0  0  0  0  0  0  0  0  0  0  0  0
  148.9420  157.4890  131.8470 N   0  0  0  0  0  0  0  0  0  0  0  0
  149.6270  159.4220  132.9290 O   0  0  0  0  0  0  0  0  0  0  0  0
  146.2900  158.1110  133.2950 N   0  0  0  0  0  0  0  0  0  0  0  0
  146.3790  156.6780  133.3880 C   0  0  0  0  0  0  0  0  0  0  0  0
  146.8900  156.0220  132.4390 O   0  0  0  0  0  0  0  0  0  0  0  0
  145.9110  156.0270  134.5390 O   0  0  0  0  0  0  0  0  0  0  0  0
  145.8060  154.6090  134.7360 C   0  0  0  0  0  0  0  0  0  0  0  0
  145.0480  154.0390  133.5260 C   0  0  0  0  0  0  0  0  0  0  0  0
  147.2080  153.9740  134.7910 C   0  0  0  0  0  0  0  0  0  0  0  0
  145.0070  154.2900  136.0160 C   0  0  0  0  0  0  0  0  0  0  0  0
  145.1990  158.8700  133.5520 C   0  0  0  0  0  0  0  0  0  0  0  0
  143.8990  158.4530  133.8610 C   0  0  0  0  0  0  0  0  0  0  0  0
  141.5170  156.7220  135.4380 C   0  0  0  0  0  0  0  0  0  0  0  0
  141.4840  155.8790  136.5520 C   0  0  0  0  0  0  0  0  0  0  0  0
  140.9220  152.6460  139.4942 H   0  0  0  0  0  0  0  0  0  0  0  0
  139.9391  152.7240  137.9926 H   0  0  0  0  0  0  0  0  0  0  0  0
  141.6290  153.3332  137.9926 H   0  0  0  0  0  0  0  0  0  0  0  0
  140.2586  154.5747  141.0877 H   0  0  0  0  0  0  0  0  0  0  0  0
  138.7948  155.3036  140.3443 H   0  0  0  0  0  0  0  0  0  0  0  0
  139.0088  153.5201  140.3443 H   0  0  0  0  0  0  0  0  0  0  0  0
  141.2616  156.1262  139.9596 H   0  0  0  0  0  0  0  0  0  0  0  0
  142.2994  154.9367  139.0835 H   0  0  0  0  0  0  0  0  0  0  0  0
  141.2915  158.2388  139.0219 H   0  0  0  0  0  0  0  0  0  0  0  0
  141.3503  159.7438  137.0342 H   0  0  0  0  0  0  0  0  0  0  0  0
  141.0850  158.4949  133.5330 H   0  0  0  0  0  0  0  0  0  0  0  0
  140.9064  159.9251  134.6206 H   0  0  0  0  0  0  0  0  0  0  0  0
  142.5049  161.5733  134.2651 H   0  0  0  0  0  0  0  0  0  0  0  0
  144.8630  162.2641  133.7186 H   0  0  0  0  0  0  0  0  0  0  0  0
  147.4476  161.2254  133.0914 H   0  0  0  0  0  0  0  0  0  0  0  0
  148.1640  156.9260  131.4440 H   0  0  0  0  0  0  0  0  0  0  0  0
  149.9200  157.2540  131.5690 H   0  0  0  0  0  0  0  0  0  0  0  0
  144.2148  153.4125  133.8772 H   0  0  0  0  0  0  0  0  0  0  0  0
  144.6536  154.8662  132.9175 H   0  0  0  0  0  0  0  0  0  0  0  0
  145.7332  153.4305  132.9175 H   0  0  0  0  0  0  0  0  0  0  0  0
  147.5080  153.8381  135.8405 H   0  0  0  0  0  0  0  0  0  0  0  0
  147.1881  152.9970  134.2859 H   0  0  0  0  0  0  0  0  0  0  0  0
  147.9292  154.6333  134.2859 H   0  0  0  0  0  0  0  0  0  0  0  0
  145.6164  154.5333  136.8988 H   0  0  0  0  0  0  0  0  0  0  0  0
  144.0843  154.8887  136.0311 H   0  0  0  0  0  0  0  0  0  0  0  0
  144.7504  153.2205  136.0311 H   0  0  0  0  0  0  0  0  0  0  0  0
  143.6492  157.3830  133.9134 H   0  0  0  0  0  0  0  0  0  0  0  0
  141.5942  156.2925  134.4283 H   0  0  0  0  0  0  0  0  0  0  0  0
  141.5319  154.7887  136.4146 H   0  0  0  0  0  0  0  0  0  0  0  0
  1  2  1  0
  2  3  1  0
  2  4  1  0
  4  5  1  0
  5  6  2  0
  6  7  1  0
  7  8  2  0
  8  9  1  0
  9 10  1  0
 10 11  2  0
 11 12  1  0
 12 13  2  0
 13 14  1  0
 14 15  2  0
 15 16  1  0
 16 17  1  0
 16 18  2  0
 15 19  1  0
 19 20  1  0
 20 21  2  0
 20 22  1  0
 22 23  1  0
 23 24  1  0
 23 25  1  0
 23 26  1  0
 19 27  1  0
 27 28  2  0
  8 29  1  0
 29 30  2  0
 30  5  1  0
 28 10  1  0
 27 13  1  0
  1 31  1  0
  1 32  1  0
  1 33  1  0
  3 34  1  0
  3 35  1  0
  3 36  1  0
  4 37  1  0
  4 38  1  0
  6 39  1  0
  7 40  1  0
  9 41  1  0
  9 42  1  0
 11 43  1  0
 12 44  1  0
 14 45  1  0
 17 46  1  0
 17 47  1  0
 24 48  1  0
 24 49  1  0
 24 50  1  0
 25 51  1  0
 25 52  1  0
 25 53  1  0
 26 54  1  0
 26 55  1  0
 26 56  1  0
 28 57  1  0
 29 58  1  0
 30 59  1  0
M  END
>  <UniqueID>  (88) 
85

>  <SMILES>  (88) 
CN(C)Cc1ccc(Cc2ccc3cc(C(N)=O)n(C(=O)OC(C)(C)C)c3c2)cc1

>  <Energy>  (88) 
92.63142336323457

>  <Genealogy>  (88) 
CN(C)Cc1ccc(Cc2ccc3cc(C(N)=O)n(C(=O)OC(C)(C)C)c3c2)cc1 (3D coordinates assigned)
CN(C)Cc1ccc(Cc2ccc3cc(C(N)=O)n(C(=O)OC(C)(C)C)c3c2)cc1 (optimized conformer: 92.63142336323457 kcal/mol)

>  <smiles>  (88) 
CN(C)Cc1ccc(Cc2ccc3cc(C(N)=O)n(C(=O)OC(C)(C)C)c3c2)cc1

>  <score_type>  (88) 
oracle

>  <origin>  (88) 
adg

>  <m_score__min__energy>  (88) 
-9.4299999999999997

>  <m_primary>  (88) 
energy

$$$$
89:0
     RDKit          3D

 37 38  0  0  0  0  0  0  0  0999 V2000
  148.8640  154.9030  132.6130 C   0  0  0  0  0  0  0  0  0  0  0  0
  147.5750  155.6160  132.8960 C   0  0  0  0  0  0  0  0  0  0  0  0
  146.4260  154.8800  133.2780 C   0  0  0  0  0  0  0  0  0  0  0  0
  145.2200  155.5370  133.5710 C   0  0  0  0  0  0  0  0  0  0  0  0
  145.1990  156.9260  133.4910 C   0  0  0  0  0  0  0  0  0  0  0  0
  144.1650  157.8100  133.7010 C   0  0  0  0  0  0  0  0  0  0  0  0
  144.7090  159.0740  133.4830 C   0  0  0  0  0  0  0  0  0  0  0  0
  143.9570  160.3290  133.6900 C   0  0  0  0  0  0  0  0  0  0  0  0
  144.6350  161.5650  133.9050 N   0  0  0  0  0  0  0  0  0  0  0  0
  142.6980  160.3030  133.7250 O   0  0  0  0  0  0  0  0  0  0  0  0
  146.0260  158.9750  133.1440 N   0  0  0  0  0  0  0  0  0  0  0  0
  146.9220  160.0310  132.7660 C   0  0  0  0  0  0  0  0  0  0  0  0
  147.2890  160.8760  133.6250 O   0  0  0  0  0  0  0  0  0  0  0  0
  147.3550  160.1210  131.4350 O   0  0  0  0  0  0  0  0  0  0  0  0
  148.7160  160.1490  130.9810 C   0  0  0  0  0  0  0  0  0  0  0  0
  149.6570  159.5840  132.0630 C   0  0  0  0  0  0  0  0  0  0  0  0
  149.0780  161.6190  130.7270 C   0  0  0  0  0  0  0  0  0  0  0  0
  148.8660  159.3630  129.6650 C   0  0  0  0  0  0  0  0  0  0  0  0
  146.3110  157.6550  133.1560 C   0  0  0  0  0  0  0  0  0  0  0  0
  147.5210  157.0250  132.8420 C   0  0  0  0  0  0  0  0  0  0  0  0
  149.3503  154.6340  133.5623 H   0  0  0  0  0  0  0  0  0  0  0  0
  148.6588  153.9901  132.0346 H   0  0  0  0  0  0  0  0  0  0  0  0
  149.5282  155.5620  132.0346 H   0  0  0  0  0  0  0  0  0  0  0  0
  146.4792  153.7834  133.3457 H   0  0  0  0  0  0  0  0  0  0  0  0
  144.3202  154.9714  133.8548 H   0  0  0  0  0  0  0  0  0  0  0  0
  143.1289  157.5695  133.9815 H   0  0  0  0  0  0  0  0  0  0  0  0
  145.4510  161.8400  133.3150 H   0  0  0  0  0  0  0  0  0  0  0  0
  149.2567  159.8244  133.0590 H   0  0  0  0  0  0  0  0  0  0  0  0
  149.7306  158.4922  131.9511 H   0  0  0  0  0  0  0  0  0  0  0  0
  150.6553  160.0322  131.9511 H   0  0  0  0  0  0  0  0  0  0  0  0
  149.2055  162.1367  131.6891 H   0  0  0  0  0  0  0  0  0  0  0  0
  150.0160  161.6721  130.1549 H   0  0  0  0  0  0  0  0  0  0  0  0
  148.2719  162.1016  130.1549 H   0  0  0  0  0  0  0  0  0  0  0  0
  149.0678  158.3055  129.8905 H   0  0  0  0  0  0  0  0  0  0  0  0
  147.9364  159.4427  129.0823 H   0  0  0  0  0  0  0  0  0  0  0  0
  149.7009  159.7795  129.0823 H   0  0  0  0  0  0  0  0  0  0  0  0
  148.4069  157.6132  132.5604 H   0  0  0  0  0  0  0  0  0  0  0  0
  1  2  1  0
  2  3  2  0
  3  4  1  0
  4  5  2  0
  5  6  1  0
  6  7  2  0
  7  8  1  0
  8  9  1  0
  8 10  2  0
  7 11  1  0
 11 12  1  0
 12 13  2  0
 12 14  1  0
 14 15  1  0
 15 16  1  0
 15 17  1  0
 15 18  1  0
 11 19  1  0
 19 20  2  0
 20  2  1  0
 19  5  1  0
  1 21  1  0
  1 22  1  0
  1 23  1  0
  3 24  1  0
  4 25  1  0
  6 26  1  0
  9 27  1  0
 16 28  1  0
 16 29  1  0
 16 30  1  0
 17 31  1  0
 17 32  1  0
 17 33  1  0
 18 34  1  0
 18 35  1  0
 18 36  1  0
 20 37  1  0
M  CHG  1   9  -1
M  END
>  <UniqueID>  (89) 
86

>  <SMILES>  (89) 
Cc1ccc2cc(C([NH-])=O)n(C(=O)OC(C)(C)C)c2c1

>  <Energy>  (89) 
70.48727004314406

>  <Genealogy>  (89) 
Cc1ccc2cc(C([NH-])=O)n(C(=O)OC(C)(C)C)c2c1 (protonated)
Cc1ccc2cc(C([NH-])=O)n(C(=O)OC(C)(C)C)c2c1 (3D coordinates assigned)
Cc1ccc2cc(C([NH-])=O)n(C(=O)OC(C)(C)C)c2c1 (optimized conformer: 70.48727004314406 kcal/mol)

>  <smiles>  (89) 
Cc1ccc2cc(C(N)=O)n(C(=O)OC(C)(C)C)c2c1

>  <score_type>  (89) 
oracle

>  <origin>  (89) 
adg

>  <m_score__min__energy>  (89) 
-6.6399999999999997

>  <m_primary>  (89) 
energy

$$$$
90:0
     RDKit          3D

 52 54  0  0  0  0  0  0  0  0999 V2000
  139.4170  157.9400  134.8690 C   0  0  0  0  0  0  0  0  0  0  0  0
  139.6870  158.2470  133.3830 C   0  0  0  0  0  0  0  0  0  0  0  0
  138.3480  158.2820  132.6310 C   0  0  0  0  0  0  0  0  0  0  0  0
  140.3810  159.6130  133.2260 C   0  0  0  0  0  0  0  0  0  0  0  0
  140.4790  157.2090  132.7870 O   0  0  0  0  0  0  0  0  0  0  0  0
  140.4770  155.8510  133.1350 C   0  0  0  0  0  0  0  0  0  0  0  0
  139.3960  155.2760  133.4320 O   0  0  0  0  0  0  0  0  0  0  0  0
  141.7190  155.1200  133.1870 N   0  0  0  0  0  0  0  0  0  0  0  0
  142.9610  155.6270  133.4400 C   0  0  0  0  0  0  0  0  0  0  0  0
  143.2980  157.0500  133.5890 C   0  0  0  0  0  0  0  0  0  0  0  0
  142.8710  158.0030  132.6170 N   0  0  0  0  0  0  0  0  0  0  0  0
  144.0310  157.4190  134.5440 O   0  0  0  0  0  0  0  0  0  0  0  0
  143.9000  154.6110  133.5670 C   0  0  0  0  0  0  0  0  0  0  0  0
  143.2020  153.4460  133.3540 C   0  0  0  0  0  0  0  0  0  0  0  0
  143.6520  152.1300  133.3350 C   0  0  0  0  0  0  0  0  0  0  0  0
  142.7190  151.1180  133.0620 C   0  0  0  0  0  0  0  0  0  0  0  0
  141.3590  151.4340  132.8120 C   0  0  0  0  0  0  0  0  0  0  0  0
  140.4180  150.3880  132.4990 N   0  0  0  0  0  0  0  0  0  0  0  0
  139.1530  150.7190  131.8210 C   0  0  0  0  0  0  0  0  0  0  0  0
  138.5100  149.4750  131.1900 C   0  0  0  0  0  0  0  0  0  0  0  0
  139.5940  148.5890  130.5480 C   0  0  0  0  0  0  0  0  0  0  0  0
  138.9790  147.4300  129.8110 C   0  0  0  0  0  0  0  0  0  0  0  0
  139.0280  146.2660  130.2920 O   0  0  0  0  0  0  0  0  0  0  0  0
  138.3900  147.6340  128.5690 O   0  0  0  0  0  0  0  0  0  0  0  0
  140.6290  148.0920  131.5910 C   0  0  0  0  0  0  0  0  0  0  0  0
  140.7060  148.9880  132.8400 C   0  0  0  0  0  0  0  0  0  0  0  0
  140.9410  152.7850  132.8350 C   0  0  0  0  0  0  0  0  0  0  0  0
  141.8890  153.7760  133.1250 C   0  0  0  0  0  0  0  0  0  0  0  0
  140.0131  158.6178  135.4976 H   0  0  0  0  0  0  0  0  0  0  0  0
  138.3482  158.0847  135.0850 H   0  0  0  0  0  0  0  0  0  0  0  0
  139.6970  156.8984  135.0850 H   0  0  0  0  0  0  0  0  0  0  0  0
  137.5209  158.3036  133.3558 H   0  0  0  0  0  0  0  0  0  0  0  0
  138.3056  159.1816  131.9993 H   0  0  0  0  0  0  0  0  0  0  0  0
  138.2587  157.3859  131.9993 H   0  0  0  0  0  0  0  0  0  0  0  0
  140.5941  160.0324  134.2203 H   0  0  0  0  0  0  0  0  0  0  0  0
  141.3230  159.4843  132.6728 H   0  0  0  0  0  0  0  0  0  0  0  0
  139.7215  160.2979  132.6728 H   0  0  0  0  0  0  0  0  0  0  0  0
  143.0880  159.0170  132.7450 H   0  0  0  0  0  0  0  0  0  0  0  0
  142.3430  157.7000  131.7690 H   0  0  0  0  0  0  0  0  0  0  0  0
  144.9720  154.7162  133.7901 H   0  0  0  0  0  0  0  0  0  0  0  0
  144.7079  151.8897  133.5283 H   0  0  0  0  0  0  0  0  0  0  0  0
  143.0460  150.0679  133.0416 H   0  0  0  0  0  0  0  0  0  0  0  0
  138.4556  151.1482  132.5554 H   0  0  0  0  0  0  0  0  0  0  0  0
  139.3698  151.4398  131.0189 H   0  0  0  0  0  0  0  0  0  0  0  0
  137.9852  148.9018  131.9685 H   0  0  0  0  0  0  0  0  0  0  0  0
  137.7969  149.7915  130.4146 H   0  0  0  0  0  0  0  0  0  0  0  0
  140.1338  149.2138  129.8212 H   0  0  0  0  0  0  0  0  0  0  0  0
  140.3484  147.0760  131.9058 H   0  0  0  0  0  0  0  0  0  0  0  0
  141.6175  148.1158  131.1090 H   0  0  0  0  0  0  0  0  0  0  0  0
  139.9706  148.6388  133.5797 H   0  0  0  0  0  0  0  0  0  0  0  0
  141.7238  148.9289  133.2530 H   0  0  0  0  0  0  0  0  0  0  0  0
  139.8939  153.0524  132.6296 H   0  0  0  0  0  0  0  0  0  0  0  0
  1  2  1  0
  2  3  1  0
  2  4  1  0
  2  5  1  0
  5  6  1  0
  6  7  2  0
  6  8  1  0
  8  9  1  0
  9 10  1  0
 10 11  1  0
 10 12  2  0
  9 13  2  0
 13 14  1  0
 14 15  2  0
 15 16  1  0
 16 17  2  0
 17 18  1  0
 18 19  1  0
 19 20  1  0
 20 21  1  0
 21 22  1  0
 22 23  2  0
 22 24  1  0
 21 25  1  0
 25 26  1  0
 17 27  1  0
 27 28  2  0
 28  8  1  0
 28 14  1  0
 26 18  1  0
  1 29  1  0
  1 30  1  0
  1 31  1  0
  3 32  1  0
  3 33  1  0
  3 34  1  0
  4 35  1  0
  4 36  1  0
  4 37  1  0
 11 38  1  0
 11 39  1  0
 13 40  1  0
 15 41  1  0
 16 42  1  0
 19 43  1  0
 19 44  1  0
 20 45  1  0
 20 46  1  0
 21 47  1  0
 25 48  1  0
 25 49  1  0
 26 50  1  0
 26 51  1  0
 27 52  1  0
M  CHG  1  24  -1
M  END
>  <UniqueID>  (90) 
87

>  <SMILES>  (90) 
CC(C)(C)OC(=O)n1c(C(N)=O)cc2ccc(N3CCC(C(=O)[O-])CC3)cc21

>  <Energy>  (90) 
95.85779430243718

>  <Genealogy>  (90) 
CC(C)(C)OC(=O)n1c(C(N)=O)cc2ccc(N3CCC(C(=O)[O-])CC3)cc21 (protonated)
CC(C)(C)OC(=O)n1c(C(N)=O)cc2ccc(N3CCC(C(=O)[O-])CC3)cc21 (3D coordinates assigned)
CC(C)(C)OC(=O)n1c(C(N)=O)cc2ccc(N3CCC(C(=O)[O-])CC3)cc21 (nonaromatic ring conformer: 95.85779430243718 kcal/mol)

>  <smiles>  (90) 
CC(C)(C)OC(=O)n1c(C(N)=O)cc2ccc(N3CCC(C(=O)O)CC3)cc21

>  <score_type>  (90) 
oracle

>  <origin>  (90) 
adg

>  <m_score__min__energy>  (90) 
-9.1400000000000006

>  <m_primary>  (90) 
energy

$$$$
91:0
     RDKit          3D

 41 42  0  0  0  0  0  0  0  0999 V2000
  149.4810  160.1180  130.1270 C   0  0  0  0  0  0  0  0  0  0  0  0
  149.5890  160.0780  131.6480 C   0  0  0  0  0  0  0  0  0  0  0  0
  148.5600  159.1470  132.2300 C   0  0  0  0  0  0  0  0  0  0  0  0
  147.3910  159.6720  132.8370 C   0  0  0  0  0  0  0  0  0  0  0  0
  146.4470  158.8160  133.4280 C   0  0  0  0  0  0  0  0  0  0  0  0
  146.6970  157.4470  133.3960 C   0  0  0  0  0  0  0  0  0  0  0  0
  145.9770  156.4060  133.9350 C   0  0  0  0  0  0  0  0  0  0  0  0
  146.7080  155.2590  133.6330 C   0  0  0  0  0  0  0  0  0  0  0  0
  146.2680  153.8960  133.9910 C   0  0  0  0  0  0  0  0  0  0  0  0
  146.3480  152.8220  133.0540 N   0  0  0  0  0  0  0  0  0  0  0  0
  145.7630  153.6870  135.1270 O   0  0  0  0  0  0  0  0  0  0  0  0
  147.8390  155.5770  132.9440 N   0  0  0  0  0  0  0  0  0  0  0  0
  148.9120  154.6950  132.5780 C   0  0  0  0  0  0  0  0  0  0  0  0
  150.0360  155.1680  132.2580 O   0  0  0  0  0  0  0  0  0  0  0  0
  148.7010  153.3110  132.5820 O   0  0  0  0  0  0  0  0  0  0  0  0
  149.5780  152.3700  131.9620 C   0  0  0  0  0  0  0  0  0  0  0  0
  149.5040  150.9900  132.6430 C   0  0  0  0  0  0  0  0  0  0  0  0
  148.2270  150.2400  132.2440 C   0  0  0  0  0  0  0  0  0  0  0  0
  149.6170  151.0930  134.1690 C   0  0  0  0  0  0  0  0  0  0  0  0
  147.8190  156.9220  132.8070 C   0  0  0  0  0  0  0  0  0  0  0  0
  148.7860  157.7540  132.2290 C   0  0  0  0  0  0  0  0  0  0  0  0
  148.4853  160.4867  129.8397 H   0  0  0  0  0  0  0  0  0  0  0  0
  150.2518  160.7903  129.7222 H   0  0  0  0  0  0  0  0  0  0  0  0
  149.6280  159.1058  129.7222 H   0  0  0  0  0  0  0  0  0  0  0  0
  150.5931  159.7279  131.9296 H   0  0  0  0  0  0  0  0  0  0  0  0
  149.4133  161.0900  132.0417 H   0  0  0  0  0  0  0  0  0  0  0  0
  147.2219  160.7589  132.8452 H   0  0  0  0  0  0  0  0  0  0  0  0
  145.5380  159.2153  133.9016 H   0  0  0  0  0  0  0  0  0  0  0  0
  145.0272  156.4663  134.4865 H   0  0  0  0  0  0  0  0  0  0  0  0
  146.0740  151.8560  133.3390 H   0  0  0  0  0  0  0  0  0  0  0  0
  146.6010  152.9940  132.0550 H   0  0  0  0  0  0  0  0  0  0  0  0
  149.2951  152.2616  130.9046 H   0  0  0  0  0  0  0  0  0  0  0  0
  150.6076  152.7454  132.0573 H   0  0  0  0  0  0  0  0  0  0  0  0
  150.3698  150.4128  132.2863 H   0  0  0  0  0  0  0  0  0  0  0  0
  147.6891  149.9241  133.1500 H   0  0  0  0  0  0  0  0  0  0  0  0
  147.5832  150.9035  131.6479 H   0  0  0  0  0  0  0  0  0  0  0  0
  148.4929  149.3546  131.6479 H   0  0  0  0  0  0  0  0  0  0  0  0
  148.8813  150.4225  134.6372 H   0  0  0  0  0  0  0  0  0  0  0  0
  150.6304  150.8014  134.4822 H   0  0  0  0  0  0  0  0  0  0  0  0
  149.4204  152.1290  134.4822 H   0  0  0  0  0  0  0  0  0  0  0  0
  149.6996  157.3319  131.7850 H   0  0  0  0  0  0  0  0  0  0  0  0
  1  2  1  0
  2  3  1  0
  3  4  2  0
  4  5  1  0
  5  6  2  0
  6  7  1  0
  7  8  2  0
  8  9  1  0
  9 10  1  0
  9 11  2  0
  8 12  1  0
 12 13  1  0
 13 14  2  0
 13 15  1  0
 15 16  1  0
 16 17  1  0
 17 18  1  0
 17 19  1  0
 12 20  1  0
 20 21  2  0
 21  3  1  0
 20  6  1  0
  1 22  1  0
  1 23  1  0
  1 24  1  0
  2 25  1  0
  2 26  1  0
  4 27  1  0
  5 28  1  0
  7 29  1  0
 10 30  1  0
 10 31  1  0
 16 32  1  0
 16 33  1  0
 17 34  1  0
 18 35  1  0
 18 36  1  0
 18 37  1  0
 19 38  1  0
 19 39  1  0
 19 40  1  0
 21 41  1  0
M  END
>  <UniqueID>  (91) 
88

>  <SMILES>  (91) 
CCc1ccc2cc(C(N)=O)n(C(=O)OCC(C)C)c2c1

>  <Energy>  (91) 
70.30926462179134

>  <Genealogy>  (91) 
CCc1ccc2cc(C(N)=O)n(C(=O)OCC(C)C)c2c1 (3D coordinates assigned)
CCc1ccc2cc(C(N)=O)n(C(=O)OCC(C)C)c2c1 (optimized conformer: 70.30926462179134 kcal/mol)

>  <smiles>  (91) 
CCc1ccc2cc(C(N)=O)n(C(=O)OCC(C)C)c2c1

>  <score_type>  (91) 
oracle

>  <origin>  (91) 
adg

>  <m_score__min__energy>  (91) 
-7.5800000000000001

>  <m_primary>  (91) 
energy

$$$$
92:0
     RDKit          3D

 51 54  0  0  0  0  0  0  0  0999 V2000
  142.1190  154.1120  135.5990 C   0  0  0  0  0  0  0  0  0  0  0  0
  143.4770  154.5950  135.0680 C   0  0  0  0  0  0  0  0  0  0  0  0
  144.5900  154.0850  136.0040 C   0  0  0  0  0  0  0  0  0  0  0  0
  143.6740  154.0510  133.6400 C   0  0  0  0  0  0  0  0  0  0  0  0
  143.4420  156.0280  135.0590 O   0  0  0  0  0  0  0  0  0  0  0  0
  143.3100  156.8520  133.9310 C   0  0  0  0  0  0  0  0  0  0  0  0
  142.2490  156.8490  133.2490 O   0  0  0  0  0  0  0  0  0  0  0  0
  144.3930  157.7190  133.5590 N   0  0  0  0  0  0  0  0  0  0  0  0
  144.3720  159.0780  133.4520 C   0  0  0  0  0  0  0  0  0  0  0  0
  143.1690  159.9310  133.5190 C   0  0  0  0  0  0  0  0  0  0  0  0
  141.9540  159.5490  132.8750 N   0  0  0  0  0  0  0  0  0  0  0  0
  143.2310  161.0420  134.1110 O   0  0  0  0  0  0  0  0  0  0  0  0
  145.6530  159.5730  133.2220 C   0  0  0  0  0  0  0  0  0  0  0  0
  146.4680  158.4650  133.1780 C   0  0  0  0  0  0  0  0  0  0  0  0
  147.8440  158.3730  132.9910 C   0  0  0  0  0  0  0  0  0  0  0  0
  148.4320  157.0980  133.0350 C   0  0  0  0  0  0  0  0  0  0  0  0
  147.6430  155.9460  133.2810 C   0  0  0  0  0  0  0  0  0  0  0  0
  148.2770  154.6080  133.3090 C   0  0  0  0  0  0  0  0  0  0  0  0
  148.8460  154.0030  132.1910 C   0  0  0  0  0  0  0  0  0  0  0  0
  149.2380  152.7540  132.6150 C   0  0  0  0  0  0  0  0  0  0  0  0
  149.8750  151.7320  131.9160 C   0  0  0  0  0  0  0  0  0  0  0  0
  150.1950  150.5560  132.6160 C   0  0  0  0  0  0  0  0  0  0  0  0
  149.8800  150.4350  133.9860 C   0  0  0  0  0  0  0  0  0  0  0  0
  149.2380  151.4840  134.6670 C   0  0  0  0  0  0  0  0  0  0  0  0
  148.9120  152.6390  133.9440 C   0  0  0  0  0  0  0  0  0  0  0  0
  148.3190  153.7720  134.3850 N   0  0  0  0  0  0  0  0  0  0  0  0
  147.9140  154.0610  135.7350 C   0  0  0  0  0  0  0  0  0  0  0  0
  148.0210  155.2290  136.1940 O   0  0  0  0  0  0  0  0  0  0  0  0
  147.3960  153.0600  136.5470 O   0  0  0  0  0  0  0  0  0  0  0  0
  146.2470  156.0780  133.4480 C   0  0  0  0  0  0  0  0  0  0  0  0
  145.6850  157.3590  133.3860 C   0  0  0  0  0  0  0  0  0  0  0  0
  142.1326  154.1168  136.6989 H   0  0  0  0  0  0  0  0  0  0  0  0
  141.3250  154.7828  135.2392 H   0  0  0  0  0  0  0  0  0  0  0  0
  141.9269  153.0904  135.2392 H   0  0  0  0  0  0  0  0  0  0  0  0
  144.2822  154.2261  137.0506 H   0  0  0  0  0  0  0  0  0  0  0  0
  144.7670  153.0160  135.8148 H   0  0  0  0  0  0  0  0  0  0  0  0
  145.5153  154.6490  135.8148 H   0  0  0  0  0  0  0  0  0  0  0  0
  144.0481  153.0178  133.6896 H   0  0  0  0  0  0  0  0  0  0  0  0
  142.7128  154.0676  133.1054 H   0  0  0  0  0  0  0  0  0  0  0  0
  144.4017  154.6792  133.1054 H   0  0  0  0  0  0  0  0  0  0  0  0
  141.9170  158.7240  132.2360 H   0  0  0  0  0  0  0  0  0  0  0  0
  141.1020  160.1460  132.9660 H   0  0  0  0  0  0  0  0  0  0  0  0
  145.9501  160.6252  133.1012 H   0  0  0  0  0  0  0  0  0  0  0  0
  148.4529  159.2718  132.8140 H   0  0  0  0  0  0  0  0  0  0  0  0
  149.5155  156.9923  132.8770 H   0  0  0  0  0  0  0  0  0  0  0  0
  148.9581  154.4319  131.1843 H   0  0  0  0  0  0  0  0  0  0  0  0
  150.1201  151.8416  130.8493 H   0  0  0  0  0  0  0  0  0  0  0  0
  150.6933  149.7262  132.0934 H   0  0  0  0  0  0  0  0  0  0  0  0
  150.1389  149.5121  134.5257 H   0  0  0  0  0  0  0  0  0  0  0  0
  148.9984  151.4004  135.7373 H   0  0  0  0  0  0  0  0  0  0  0  0
  145.6154  155.1945  133.6228 H   0  0  0  0  0  0  0  0  0  0  0  0
  1  2  1  0
  2  3  1  0
  2  4  1  0
  2  5  1  0
  5  6  1  0
  6  7  2  0
  6  8  1  0
  8  9  1  0
  9 10  1  0
 10 11  1  0
 10 12  2  0
  9 13  2  0
 13 14  1  0
 14 15  2  0
 15 16  1  0
 16 17  2  0
 17 18  1  0
 18 19  2  0
 19 20  1  0
 20 21  2  0
 21 22  1  0
 22 23  2  0
 23 24  1  0
 24 25  2  0
 25 26  1  0
 26 27  1  0
 27 28  2  0
 27 29  1  0
 17 30  1  0
 30 31  2  0
 31  8  1  0
 31 14  1  0
 26 18  1  0
 25 20  1  0
  1 32  1  0
  1 33  1  0
  1 34  1  0
  3 35  1  0
  3 36  1  0
  3 37  1  0
  4 38  1  0
  4 39  1  0
  4 40  1  0
 11 41  1  0
 11 42  1  0
 13 43  1  0
 15 44  1  0
 16 45  1  0
 19 46  1  0
 21 47  1  0
 22 48  1  0
 23 49  1  0
 24 50  1  0
 30 51  1  0
M  CHG  1  29  -1
M  END
>  <UniqueID>  (92) 
89

>  <SMILES>  (92) 
CC(C)(C)OC(=O)n1c(C(N)=O)cc2ccc(-c3cc4ccccc4n3C(=O)[O-])cc21

>  <Energy>  (92) 
131.90497445715275

>  <Genealogy>  (92) 
CC(C)(C)OC(=O)n1c(C(N)=O)cc2ccc(-c3cc4ccccc4n3C(=O)[O-])cc21 (protonated)
CC(C)(C)OC(=O)n1c(C(N)=O)cc2ccc(-c3cc4ccccc4n3C(=O)[O-])cc21 (3D coordinates assigned)
CC(C)(C)OC(=O)n1c(C(N)=O)cc2ccc(-c3cc4ccccc4n3C(=O)[O-])cc21 (optimized conformer: 131.90497445715275 kcal/mol)

>  <smiles>  (92) 
CC(C)(C)OC(=O)n1c(C(N)=O)cc2ccc(-c3cc4ccccc4n3C(=O)O)cc21

>  <score_type>  (92) 
oracle

>  <origin>  (92) 
adg

>  <m_score__min__energy>  (92) 
-9.6999999999999993

>  <m_primary>  (92) 
energy

$$$$
93:0
     RDKit          3D

 38 40  0  0  0  0  0  0  0  0999 V2000
  137.1530  160.1210  130.3990 C   0  0  0  0  0  0  0  0  0  0  0  0
  138.1870  159.7090  131.4050 C   0  0  0  0  0  0  0  0  0  0  0  0
  138.0070  158.5490  132.1700 C   0  0  0  0  0  0  0  0  0  0  0  0
  138.9520  158.1840  133.1330 C   0  0  0  0  0  0  0  0  0  0  0  0
  140.0910  158.9790  133.3530 C   0  0  0  0  0  0  0  0  0  0  0  0
  141.0920  158.5890  134.3740 C   0  0  0  0  0  0  0  0  0  0  0  0
  140.7730  158.5850  135.5950 O   0  0  0  0  0  0  0  0  0  0  0  0
  142.4350  158.2400  134.0040 N   0  0  0  0  0  0  0  0  0  0  0  0
  142.9210  157.0090  133.6750 C   0  0  0  0  0  0  0  0  0  0  0  0
  142.1490  155.7460  133.7270 C   0  0  0  0  0  0  0  0  0  0  0  0
  140.9630  155.6440  134.5170 N   0  0  0  0  0  0  0  0  0  0  0  0
  142.5260  154.7490  133.0570 O   0  0  0  0  0  0  0  0  0  0  0  0
  144.2730  157.0940  133.3460 C   0  0  0  0  0  0  0  0  0  0  0  0
  144.6030  158.4250  133.4940 C   0  0  0  0  0  0  0  0  0  0  0  0
  145.8140  159.0780  133.2910 C   0  0  0  0  0  0  0  0  0  0  0  0
  145.8580  160.4660  133.5070 C   0  0  0  0  0  0  0  0  0  0  0  0
  144.7010  161.1680  133.9280 C   0  0  0  0  0  0  0  0  0  0  0  0
  144.7490  162.6550  134.1090 C   0  0  0  0  0  0  0  0  0  0  0  0
  143.4850  160.4730  134.1100 C   0  0  0  0  0  0  0  0  0  0  0  0
  143.4750  159.0920  133.8960 C   0  0  0  0  0  0  0  0  0  0  0  0
  140.2510  160.1580  132.6030 C   0  0  0  0  0  0  0  0  0  0  0  0
  139.3060  160.5220  131.6390 C   0  0  0  0  0  0  0  0  0  0  0  0
  136.2543  160.4791  130.9225 H   0  0  0  0  0  0  0  0  0  0  0  0
  137.5557  160.9273  129.7684 H   0  0  0  0  0  0  0  0  0  0  0  0
  136.8908  159.2586  129.7684 H   0  0  0  0  0  0  0  0  0  0  0  0
  137.1171  157.9221  132.0118 H   0  0  0  0  0  0  0  0  0  0  0  0
  138.8036  157.2678  133.7234 H   0  0  0  0  0  0  0  0  0  0  0  0
  140.6520  156.4220  135.1380 H   0  0  0  0  0  0  0  0  0  0  0  0
  140.4100  154.7580  134.5170 H   0  0  0  0  0  0  0  0  0  0  0  0
  144.9361  156.2735  133.0344 H   0  0  0  0  0  0  0  0  0  0  0  0
  146.7097  158.5252  132.9713 H   0  0  0  0  0  0  0  0  0  0  0  0
  146.7992  161.0126  133.3478 H   0  0  0  0  0  0  0  0  0  0  0  0
  144.7567  162.8936  135.1828 H   0  0  0  0  0  0  0  0  0  0  0  0
  145.6604  163.0524  133.6385 H   0  0  0  0  0  0  0  0  0  0  0  0
  143.8651  163.1104  133.6385 H   0  0  0  0  0  0  0  0  0  0  0  0
  142.5705  161.0044  134.4121 H   0  0  0  0  0  0  0  0  0  0  0  0
  141.1276  160.7995  132.7764 H   0  0  0  0  0  0  0  0  0  0  0  0
  139.4404  161.4489  131.0622 H   0  0  0  0  0  0  0  0  0  0  0  0
  1  2  1  0
  2  3  2  0
  3  4  1  0
  4  5  2  0
  5  6  1  0
  6  7  2  0
  6  8  1  0
  8  9  1  0
  9 10  1  0
 10 11  1  0
 10 12  2  0
  9 13  2  0
 13 14  1  0
 14 15  2  0
 15 16  1  0
 16 17  2  0
 17 18  1  0
 17 19  1  0
 19 20  2  0
  5 21  1  0
 21 22  2  0
 22  2  1  0
 20  8  1  0
 20 14  1  0
  1 23  1  0
  1 24  1  0
  1 25  1  0
  3 26  1  0
  4 27  1  0
 11 28  1  0
 11 29  1  0
 13 30  1  0
 15 31  1  0
 16 32  1  0
 18 33  1  0
 18 34  1  0
 18 35  1  0
 19 36  1  0
 21 37  1  0
 22 38  1  0
M  END
>  <UniqueID>  (93) 
90

>  <SMILES>  (93) 
Cc1ccc(C(=O)n2c(C(N)=O)cc3ccc(C)cc32)cc1

>  <Energy>  (93) 
79.59974365584442

>  <Genealogy>  (93) 
Cc1ccc(C(=O)n2c(C(N)=O)cc3ccc(C)cc32)cc1 (3D coordinates assigned)
Cc1ccc(C(=O)n2c(C(N)=O)cc3ccc(C)cc32)cc1 (optimized conformer: 79.59974365584442 kcal/mol)

>  <smiles>  (93) 
Cc1ccc(C(=O)n2c(C(N)=O)cc3ccc(C)cc32)cc1

>  <score_type>  (93) 
oracle

>  <origin>  (93) 
adg

>  <m_score__min__energy>  (93) 
-8.3399999999999999

>  <m_primary>  (93) 
energy

$$$$
94:0
     RDKit          3D

 40 41  0  0  0  0  0  0  0  0999 V2000
  138.9060  159.6990  131.3010 C   0  0  0  0  0  0  0  0  0  0  0  0
  139.9340  159.8540  132.4270 C   0  0  0  0  0  0  0  0  0  0  0  0
  140.3630  158.5260  133.1150 C   0  0  0  0  0  0  0  0  0  0  0  0
  140.2320  158.6050  134.6520 C   0  0  0  0  0  0  0  0  0  0  0  0
  139.5080  157.3520  132.6060 C   0  0  0  0  0  0  0  0  0  0  0  0
  141.7190  158.2190  132.7580 O   0  0  0  0  0  0  0  0  0  0  0  0
  142.8790  158.7000  133.3840 C   0  0  0  0  0  0  0  0  0  0  0  0
  142.9780  159.9090  133.7250 O   0  0  0  0  0  0  0  0  0  0  0  0
  143.9530  157.7890  133.6670 N   0  0  0  0  0  0  0  0  0  0  0  0
  143.8680  156.4900  134.0680 C   0  0  0  0  0  0  0  0  0  0  0  0
  142.6290  155.7720  134.4330 C   0  0  0  0  0  0  0  0  0  0  0  0
  141.6880  155.4200  133.4220 N   0  0  0  0  0  0  0  0  0  0  0  0
  142.4080  155.4330  135.6260 O   0  0  0  0  0  0  0  0  0  0  0  0
  145.1400  155.9280  134.1720 C   0  0  0  0  0  0  0  0  0  0  0  0
  146.0130  156.9340  133.8280 C   0  0  0  0  0  0  0  0  0  0  0  0
  147.4020  156.9250  133.7430 C   0  0  0  0  0  0  0  0  0  0  0  0
  148.0450  158.1040  133.3280 C   0  0  0  0  0  0  0  0  0  0  0  0
  147.2930  159.2610  133.0110 C   0  0  0  0  0  0  0  0  0  0  0  0
  147.9860  160.5000  132.5220 C   0  0  0  0  0  0  0  0  0  0  0  0
  148.8730  160.1260  130.6160 I   0  0  0  0  0  0  0  0  0  0  0  0
  145.8840  159.2300  133.0960 C   0  0  0  0  0  0  0  0  0  0  0  0
  145.2720  158.0480  133.5280 C   0  0  0  0  0  0  0  0  0  0  0  0
  137.9066  159.5483  131.7351 H   0  0  0  0  0  0  0  0  0  0  0  0
  138.9029  160.6068  130.6798 H   0  0  0  0  0  0  0  0  0  0  0  0
  139.1707  158.8306  130.6798 H   0  0  0  0  0  0  0  0  0  0  0  0
  140.8337  160.3254  132.0048 H   0  0  0  0  0  0  0  0  0  0  0  0
  139.4472  160.4596  133.2056 H   0  0  0  0  0  0  0  0  0  0  0  0
  141.0847  158.0909  135.1196 H   0  0  0  0  0  0  0  0  0  0  0  0
  140.2228  159.6593  134.9655 H   0  0  0  0  0  0  0  0  0  0  0  0
  139.2952  158.1210  134.9655 H   0  0  0  0  0  0  0  0  0  0  0  0
  139.1024  156.7950  133.4635 H   0  0  0  0  0  0  0  0  0  0  0  0
  138.6792  157.7397  131.9954 H   0  0  0  0  0  0  0  0  0  0  0  0
  140.1313  156.6822  131.9954 H   0  0  0  0  0  0  0  0  0  0  0  0
  141.5370  156.0360  132.5930 H   0  0  0  0  0  0  0  0  0  0  0  0
  145.3919  154.8986  134.4666 H   0  0  0  0  0  0  0  0  0  0  0  0
  147.9792  156.0226  133.9930 H   0  0  0  0  0  0  0  0  0  0  0  0
  149.1419  158.1280  133.2488 H   0  0  0  0  0  0  0  0  0  0  0  0
  147.2541  161.3161  132.4306 H   0  0  0  0  0  0  0  0  0  0  0  0
  148.7704  160.7849  133.2386 H   0  0  0  0  0  0  0  0  0  0  0  0
  145.2830  160.1119  132.8296 H   0  0  0  0  0  0  0  0  0  0  0  0
  1  2  1  0
  2  3  1  0
  3  4  1  0
  3  5  1  0
  3  6  1  0
  6  7  1  0
  7  8  2  0
  7  9  1  0
  9 10  1  0
 10 11  1  0
 11 12  1  0
 11 13  2  0
 10 14  2  0
 14 15  1  0
 15 16  2  0
 16 17  1  0
 17 18  2  0
 18 19  1  0
 19 20  1  0
 18 21  1  0
 21 22  2  0
 22  9  1  0
 22 15  1  0
  1 23  1  0
  1 24  1  0
  1 25  1  0
  2 26  1  0
  2 27  1  0
  4 28  1  0
  4 29  1  0
  4 30  1  0
  5 31  1  0
  5 32  1  0
  5 33  1  0
 12 34  1  0
 14 35  1  0
 16 36  1  0
 17 37  1  0
 19 38  1  0
 19 39  1  0
 21 40  1  0
M  CHG  1  12  -1
M  END
>  <UniqueID>  (94) 
91

>  <SMILES>  (94) 
CCC(C)(C)OC(=O)n1c(C([NH-])=O)cc2ccc(CI)cc21

>  <Energy>  (94) 
73.05735661467253

>  <Genealogy>  (94) 
CCC(C)(C)OC(=O)n1c(C([NH-])=O)cc2ccc(CI)cc21 (protonated)
CCC(C)(C)OC(=O)n1c(C([NH-])=O)cc2ccc(CI)cc21 (3D coordinates assigned)
CCC(C)(C)OC(=O)n1c(C([NH-])=O)cc2ccc(CI)cc21 (optimized conformer: 73.05735661467253 kcal/mol)

>  <smiles>  (94) 
CCC(C)(C)OC(=O)n1c(C(N)=O)cc2ccc(CI)cc21

>  <score_type>  (94) 
oracle

>  <origin>  (94) 
adg

>  <m_score__min__energy>  (94) 
-7.4500000000000002

>  <m_primary>  (94) 
energy

$$$$
95:0
     RDKit          3D

 44 46  0  0  0  0  0  0  0  0999 V2000
  149.9750  152.1260  132.3140 C   0  0  0  0  0  0  0  0  0  0  0  0
  148.8850  153.1100  132.5690 C   0  0  0  0  0  0  0  0  0  0  0  0
  147.5590  152.8010  132.7930 C   0  0  0  0  0  0  0  0  0  0  0  0
  146.9230  154.0070  132.9940 C   0  0  0  0  0  0  0  0  0  0  0  0
  147.9050  154.9800  132.8830 C   0  0  0  0  0  0  0  0  0  0  0  0
  147.7320  156.4450  133.0170 C   0  0  0  0  0  0  0  0  0  0  0  0
  148.8390  157.3320  132.9290 C   0  0  0  0  0  0  0  0  0  0  0  0
  148.6590  158.7200  133.0510 C   0  0  0  0  0  0  0  0  0  0  0  0
  147.3710  159.1950  133.2690 C   0  0  0  0  0  0  0  0  0  0  0  0
  146.9130  160.4860  133.4030 C   0  0  0  0  0  0  0  0  0  0  0  0
  145.5370  160.3740  133.5940 C   0  0  0  0  0  0  0  0  0  0  0  0
  144.6570  161.5270  133.8690 C   0  0  0  0  0  0  0  0  0  0  0  0
  143.2450  161.3900  133.7320 N   0  0  0  0  0  0  0  0  0  0  0  0
  145.1380  162.6460  134.1920 O   0  0  0  0  0  0  0  0  0  0  0  0
  145.1590  159.0640  133.5730 N   0  0  0  0  0  0  0  0  0  0  0  0
  143.8330  158.5230  133.6760 C   0  0  0  0  0  0  0  0  0  0  0  0
  143.3420  157.8800  132.7090 O   0  0  0  0  0  0  0  0  0  0  0  0
  143.1110  158.6960  134.8670 O   0  0  0  0  0  0  0  0  0  0  0  0
  141.7000  158.5120  135.0430 C   0  0  0  0  0  0  0  0  0  0  0  0
  141.3210  159.1680  136.3790 C   0  0  0  0  0  0  0  0  0  0  0  0
  140.9170  159.2010  133.9090 C   0  0  0  0  0  0  0  0  0  0  0  0
  141.3550  157.0120  135.1110 C   0  0  0  0  0  0  0  0  0  0  0  0
  146.2930  158.3560  133.3750 C   0  0  0  0  0  0  0  0  0  0  0  0
  146.4390  156.9700  133.2380 C   0  0  0  0  0  0  0  0  0  0  0  0
  149.0630  154.4080  132.6310 O   0  0  0  0  0  0  0  0  0  0  0  0
  150.3749  151.7650  133.2731 H   0  0  0  0  0  0  0  0  0  0  0  0
  149.5755  151.2767  131.7404 H   0  0  0  0  0  0  0  0  0  0  0  0
  150.7791  152.6101  131.7404 H   0  0  0  0  0  0  0  0  0  0  0  0
  147.1039  151.7997  132.8080 H   0  0  0  0  0  0  0  0  0  0  0  0
  145.8542  154.1655  133.2004 H   0  0  0  0  0  0  0  0  0  0  0  0
  149.8483  156.9271  132.7635 H   0  0  0  0  0  0  0  0  0  0  0  0
  149.5121  159.4104  132.9762 H   0  0  0  0  0  0  0  0  0  0  0  0
  147.5074  161.4108  133.3670 H   0  0  0  0  0  0  0  0  0  0  0  0
  142.8040  160.4500  133.6220 H   0  0  0  0  0  0  0  0  0  0  0  0
  141.6818  158.5435  137.2095 H   0  0  0  0  0  0  0  0  0  0  0  0
  141.7826  160.1645  136.4422 H   0  0  0  0  0  0  0  0  0  0  0  0
  140.2272  159.2659  136.4422 H   0  0  0  0  0  0  0  0  0  0  0  0
  140.1576  159.8692  134.3412 H   0  0  0  0  0  0  0  0  0  0  0  0
  141.6105  159.7871  133.2881 H   0  0  0  0  0  0  0  0  0  0  0  0
  140.4239  158.4386  133.2881 H   0  0  0  0  0  0  0  0  0  0  0  0
  141.2831  156.6996  136.1633 H   0  0  0  0  0  0  0  0  0  0  0  0
  140.3925  156.8340  134.6091 H   0  0  0  0  0  0  0  0  0  0  0  0
  142.1430  156.4314  134.6091 H   0  0  0  0  0  0  0  0  0  0  0  0
  145.5656  156.3042  133.3011 H   0  0  0  0  0  0  0  0  0  0  0  0
  1  2  1  0
  2  3  2  0
  3  4  1  0
  4  5  2  0
  5  6  1  0
  6  7  2  0
  7  8  1  0
  8  9  2  0
  9 10  1  0
 10 11  2  0
 11 12  1  0
 12 13  1  0
 12 14  2  0
 11 15  1  0
 15 16  1  0
 16 17  2  0
 16 18  1  0
 18 19  1  0
 19 20  1  0
 19 21  1  0
 19 22  1  0
 15 23  1  0
 23 24  2  0
  5 25  1  0
 25  2  1  0
 24  6  1  0
 23  9  1  0
  1 26  1  0
  1 27  1  0
  1 28  1  0
  3 29  1  0
  4 30  1  0
  7 31  1  0
  8 32  1  0
 10 33  1  0
 13 34  1  0
 20 35  1  0
 20 36  1  0
 20 37  1  0
 21 38  1  0
 21 39  1  0
 21 40  1  0
 22 41  1  0
 22 42  1  0
 22 43  1  0
 24 44  1  0
M  CHG  1  13  -1
M  END
>  <UniqueID>  (95) 
92

>  <SMILES>  (95) 
Cc1ccc(-c2ccc3cc(C([NH-])=O)n(C(=O)OC(C)(C)C)c3c2)o1

>  <Energy>  (95) 
105.19205797625541

>  <Genealogy>  (95) 
Cc1ccc(-c2ccc3cc(C([NH-])=O)n(C(=O)OC(C)(C)C)c3c2)o1 (protonated)
Cc1ccc(-c2ccc3cc(C([NH-])=O)n(C(=O)OC(C)(C)C)c3c2)o1 (3D coordinates assigned)
Cc1ccc(-c2ccc3cc(C([NH-])=O)n(C(=O)OC(C)(C)C)c3c2)o1 (optimized conformer: 105.19205797625541 kcal/mol)

>  <smiles>  (95) 
Cc1ccc(-c2ccc3cc(C(N)=O)n(C(=O)OC(C)(C)C)c3c2)o1

>  <score_type>  (95) 
oracle

>  <origin>  (95) 
adg

>  <m_score__min__energy>  (95) 
-7.7000000000000002

>  <m_primary>  (95) 
energy

$$$$
96:0
     RDKit          3D

 43 44  0  0  0  0  0  0  0  0999 V2000
  141.3740  158.7290  137.5070 C   0  0  0  0  0  0  0  0  0  0  0  0
  141.1960  159.2080  136.1790 O   0  0  0  0  0  0  0  0  0  0  0  0
  140.4210  158.5300  135.2320 C   0  0  0  0  0  0  0  0  0  0  0  0
  139.2180  158.2440  135.4770 O   0  0  0  0  0  0  0  0  0  0  0  0
  141.0220  158.1950  133.9000 C   0  0  1  0  0  0  0  0  0  0  0  0
  139.9670  158.7490  132.5670 Cl  0  0  0  0  0  0  0  0  0  0  0  0
  142.4050  158.7900  133.7820 C   0  0  0  0  0  0  0  0  0  0  0  0
  142.5830  160.1910  133.9040 C   0  0  0  0  0  0  0  0  0  0  0  0
  143.8590  160.7680  133.7730 C   0  0  0  0  0  0  0  0  0  0  0  0
  144.9310  159.9240  133.5070 C   0  0  0  0  0  0  0  0  0  0  0  0
  146.2670  160.2140  133.3490 C   0  0  0  0  0  0  0  0  0  0  0  0
  146.8860  158.9890  133.1060 C   0  0  0  0  0  0  0  0  0  0  0  0
  148.3230  158.8520  132.7910 C   0  0  0  0  0  0  0  0  0  0  0  0
  148.7260  158.4270  131.4910 N   0  0  0  0  0  0  0  0  0  0  0  0
  149.2000  159.0690  133.6680 O   0  0  0  0  0  0  0  0  0  0  0  0
  145.9690  157.9810  133.1180 N   0  0  0  0  0  0  0  0  0  0  0  0
  146.2130  156.5710  132.9880 C   0  0  0  0  0  0  0  0  0  0  0  0
  147.1970  156.1690  132.3120 O   0  0  0  0  0  0  0  0  0  0  0  0
  145.3370  155.6610  133.5990 O   0  0  0  0  0  0  0  0  0  0  0  0
  144.7260  154.5210  132.9770 C   0  0  0  0  0  0  0  0  0  0  0  0
  144.3540  154.8360  131.5160 C   0  0  0  0  0  0  0  0  0  0  0  0
  145.6600  153.2970  133.0480 C   0  0  0  0  0  0  0  0  0  0  0  0
  143.4430  154.2100  133.7630 C   0  0  0  0  0  0  0  0  0  0  0  0
  144.7770  158.5700  133.3630 C   0  0  0  0  0  0  0  0  0  0  0  0
  143.5220  157.9660  133.5060 C   0  0  0  0  0  0  0  0  0  0  0  0
  141.0827  159.5129  138.2216 H   0  0  0  0  0  0  0  0  0  0  0  0
  140.7465  157.8391  137.6630 H   0  0  0  0  0  0  0  0  0  0  0  0
  142.4303  158.4648  137.6630 H   0  0  0  0  0  0  0  0  0  0  0  0
  141.1106  157.1013  133.8236 H   0  0  0  0  0  0  0  0  0  0  0  0
  141.7133  160.8343  134.1034 H   0  0  0  0  0  0  0  0  0  0  0  0
  144.0041  161.8533  133.8778 H   0  0  0  0  0  0  0  0  0  0  0  0
  146.7451  161.2032  133.4030 H   0  0  0  0  0  0  0  0  0  0  0  0
  148.4540  157.4890  131.1250 H   0  0  0  0  0  0  0  0  0  0  0  0
  143.5147  155.5467  131.4964 H   0  0  0  0  0  0  0  0  0  0  0  0
  145.2212  155.2785  131.0041 H   0  0  0  0  0  0  0  0  0  0  0  0
  144.0604  153.9077  131.0041 H   0  0  0  0  0  0  0  0  0  0  0  0
  145.8532  153.0438  134.1009 H   0  0  0  0  0  0  0  0  0  0  0  0
  145.1827  152.4420  132.5469 H   0  0  0  0  0  0  0  0  0  0  0  0
  146.6107  153.5317  132.5469 H   0  0  0  0  0  0  0  0  0  0  0  0
  143.6524  154.2608  134.8417 H   0  0  0  0  0  0  0  0  0  0  0  0
  142.6674  154.9462  133.5050 H   0  0  0  0  0  0  0  0  0  0  0  0
  143.0906  153.2004  133.5050 H   0  0  0  0  0  0  0  0  0  0  0  0
  143.4069  156.8766  133.4062 H   0  0  0  0  0  0  0  0  0  0  0  0
  1  2  1  0
  2  3  1  0
  3  4  2  0
  3  5  1  0
  5  6  1  0
  5  7  1  0
  7  8  2  0
  8  9  1  0
  9 10  2  0
 10 11  1  0
 11 12  2  0
 12 13  1  0
 13 14  1  0
 13 15  2  0
 12 16  1  0
 16 17  1  0
 17 18  2  0
 17 19  1  0
 19 20  1  0
 20 21  1  0
 20 22  1  0
 20 23  1  0
 16 24  1  0
 24 25  2  0
 25  7  1  0
 24 10  1  0
  1 26  1  0
  1 27  1  0
  1 28  1  0
  5 29  1  1
  8 30  1  0
  9 31  1  0
 11 32  1  0
 14 33  1  0
 21 34  1  0
 21 35  1  0
 21 36  1  0
 22 37  1  0
 22 38  1  0
 22 39  1  0
 23 40  1  0
 23 41  1  0
 23 42  1  0
 25 43  1  0
M  CHG  1  14  -1
M  END
>  <UniqueID>  (96) 
93

>  <SMILES>  (96) 
COC(=O)[C@@H](Cl)c1ccc2cc(C([NH-])=O)n(C(=O)OC(C)(C)C)c2c1

>  <Energy>  (96) 
74.02982695309936

>  <Genealogy>  (96) 
COC(=O)C(Cl)c1ccc2cc(C([NH-])=O)n(C(=O)OC(C)(C)C)c2c1 (protonated)
COC(=O)[C@@H](Cl)c1ccc2cc(C([NH-])=O)n(C(=O)OC(C)(C)C)c2c1 (chirality)
COC(=O)[C@@H](Cl)c1ccc2cc(C([NH-])=O)n(C(=O)OC(C)(C)C)c2c1 (3D coordinates assigned)
COC(=O)[C@@H](Cl)c1ccc2cc(C([NH-])=O)n(C(=O)OC(C)(C)C)c2c1 (optimized conformer: 74.02982695309936 kcal/mol)

>  <smiles>  (96) 
COC(=O)C(Cl)c1ccc2cc(C(N)=O)n(C(=O)OC(C)(C)C)c2c1

>  <score_type>  (96) 
oracle

>  <origin>  (96) 
adg

>  <m_score__min__energy>  (96) 
-6.6900000000000004

>  <m_primary>  (96) 
energy

$$$$
