0:0
     RDKit          3D

 41 43  0  0  0  0  0  0  0  0999 V2000
  139.9250  148.3660  130.7540 C   0  0  0  0  0  0  0  0  0  0  0  0
  139.5790  148.9850  132.0460 N   0  0  0  0  0  0  0  0  0  0  0  0
  139.0810  150.3780  131.8980 C   0  0  0  0  0  0  0  0  0  0  0  0
  140.0490  151.4540  132.4270 C   0  0  0  0  0  0  0  0  0  0  0  0
  141.4990  151.0910  132.0840 C   0  0  0  0  0  0  0  0  0  0  0  0
  142.4080  152.1640  132.5150 N   0  0  0  0  0  0  0  0  0  0  0  0
  142.3130  152.8610  133.7760 C   0  0  0  0  0  0  0  0  0  0  0  0
  142.7160  154.2180  133.9200 C   0  0  0  0  0  0  0  0  0  0  0  0
  142.6270  154.8660  135.1640 C   0  0  0  0  0  0  0  0  0  0  0  0
  142.1310  154.1440  136.2430 C   0  0  0  0  0  0  0  0  0  0  0  0
  141.9650  154.5190  137.5560 C   0  0  0  0  0  0  0  0  0  0  0  0
  141.4450  153.3960  138.1980 C   0  0  0  0  0  0  0  0  0  0  0  0
  141.0320  153.3920  139.6160 C   0  0  0  0  0  0  0  0  0  0  0  0
  141.7710  152.6610  140.5920 N   0  0  0  0  0  0  0  0  0  0  0  0
  139.9850  154.0000  139.9630 O   0  0  0  0  0  0  0  0  0  0  0  0
  141.3030  152.3660  137.3170 N   0  0  0  0  0  0  0  0  0  0  0  0
  140.8920  151.0180  137.6020 C   0  0  0  0  0  0  0  0  0  0  0  0
  140.2830  150.3410  136.7320 O   0  0  0  0  0  0  0  0  0  0  0  0
  141.1860  150.4400  138.8310 O   0  0  0  0  0  0  0  0  0  0  0  0
  141.7250  152.8420  136.1240 C   0  0  0  0  0  0  0  0  0  0  0  0
  141.8190  152.1650  134.9020 C   0  0  0  0  0  0  0  0  0  0  0  0
  141.8850  149.7360  132.7290 C   0  0  0  0  0  0  0  0  0  0  0  0
  140.6650  148.8410  133.0360 C   0  0  0  0  0  0  0  0  0  0  0  0
  140.4547  147.4184  130.9316 H   0  0  0  0  0  0  0  0  0  0  0  0
  139.0053  148.1706  130.1831 H   0  0  0  0  0  0  0  0  0  0  0  0
  140.5733  149.0470  130.1831 H   0  0  0  0  0  0  0  0  0  0  0  0
  138.9032  150.5692  130.8294 H   0  0  0  0  0  0  0  0  0  0  0  0
  138.1648  150.4522  132.5022 H   0  0  0  0  0  0  0  0  0  0  0  0
  139.8001  152.4218  131.9671 H   0  0  0  0  0  0  0  0  0  0  0  0
  139.9479  151.5152  133.5206 H   0  0  0  0  0  0  0  0  0  0  0  0
  141.5906  150.9837  130.9931 H   0  0  0  0  0  0  0  0  0  0  0  0
  143.1890  152.4420  131.8780 H   0  0  0  0  0  0  0  0  0  0  0  0
  143.1016  154.7662  133.0477 H   0  0  0  0  0  0  0  0  0  0  0  0
  142.9407  155.9139  135.2802 H   0  0  0  0  0  0  0  0  0  0  0  0
  142.1939  155.4971  138.0042 H   0  0  0  0  0  0  0  0  0  0  0  0
  141.9610  151.6420  140.4700 H   0  0  0  0  0  0  0  0  0  0  0  0
  141.5140  151.1113  134.8201 H   0  0  0  0  0  0  0  0  0  0  0  0
  142.5498  149.1965  132.0384 H   0  0  0  0  0  0  0  0  0  0  0  0
  142.3779  149.9578  133.6870 H   0  0  0  0  0  0  0  0  0  0  0  0
  140.9939  147.7914  133.0451 H   0  0  0  0  0  0  0  0  0  0  0  0
  140.2644  149.1547  134.0112 H   0  0  0  0  0  0  0  0  0  0  0  0
  1  2  1  0
  2  3  1  0
  3  4  1  0
  4  5  1  0
  5  6  1  0
  6  7  1  0
  7  8  2  0
  8  9  1  0
  9 10  2  0
 10 11  1  0
 11 12  2  0
 12 13  1  0
 13 14  1  0
 13 15  2  0
 12 16  1  0
 16 17  1  0
 17 18  2  0
 17 19  1  0
 16 20  1  0
 20 21  2  0
  5 22  1  0
 22 23  1  0
 23  2  1  0
 21  7  1  0
 20 10  1  0
  1 24  1  0
  1 25  1  0
  1 26  1  0
  3 27  1  0
  3 28  1  0
  4 29  1  0
  4 30  1  0
  5 31  1  0
  6 32  1  0
  8 33  1  0
  9 34  1  0
 11 35  1  0
 14 36  1  0
 21 37  1  0
 22 38  1  0
 22 39  1  0
 23 40  1  0
 23 41  1  0
M  CHG  2  14  -1  19  -1
M  END
>  <UniqueID>  (1) 
1

>  <SMILES>  (1) 
CN1CCC(Nc2ccc3cc(C([NH-])=O)n(C(=O)[O-])c3c2)CC1

>  <Energy>  (1) 
91.91401363533843

>  <Genealogy>  (1) 
CN1CCC(Nc2ccc3cc(C([NH-])=O)n(C(=O)[O-])c3c2)CC1 (protonated)
CN1CCC(Nc2ccc3cc(C([NH-])=O)n(C(=O)[O-])c3c2)CC1 (3D coordinates assigned)
CN1CCC(Nc2ccc3cc(C([NH-])=O)n(C(=O)[O-])c3c2)CC1 (nonaromatic ring conformer: 91.91401363533843 kcal/mol)

>  <smiles>  (1) 
CN1CCC(Nc2ccc3cc(C(N)=O)n(C(=O)O)c3c2)CC1

>  <score_type>  (1) 
oracle

>  <origin>  (1) 
adg

>  <m_score__min__energy>  (1) 
-7.4299999999999997

>  <m_primary>  (1) 
energy

$$$$
1:0
     RDKit          3D

 37 39  0  0  0  0  0  0  0  0999 V2000
  149.5890  162.4700  129.9230 C   0  0  0  0  0  0  0  0  0  0  0  0
  149.4000  161.5770  131.0600 N   0  0  0  0  0  0  0  0  0  0  0  0
  149.6450  160.1660  131.0400 C   0  0  0  0  0  0  0  0  0  0  0  0
  150.5800  159.7240  130.3210 O   0  0  0  0  0  0  0  0  0  0  0  0
  148.8140  159.2110  131.8010 C   0  0  0  0  0  0  0  0  0  0  0  0
  149.2800  157.9190  132.0820 C   0  0  0  0  0  0  0  0  0  0  0  0
  148.4780  157.0190  132.7850 C   0  0  0  0  0  0  0  0  0  0  0  0
  147.1990  157.3940  133.2020 C   0  0  0  0  0  0  0  0  0  0  0  0
  146.7040  158.6780  132.9130 C   0  0  0  0  0  0  0  0  0  0  0  0
  145.3420  159.0770  133.3490 C   0  0  0  0  0  0  0  0  0  0  0  0
  144.9790  160.4480  133.4070 C   0  0  0  0  0  0  0  0  0  0  0  0
  143.6890  160.8350  133.8090 C   0  0  0  0  0  0  0  0  0  0  0  0
  142.7860  159.8350  134.1530 C   0  0  0  0  0  0  0  0  0  0  0  0
  141.4720  159.9290  134.5490 C   0  0  0  0  0  0  0  0  0  0  0  0
  141.0510  158.6170  134.7500 C   0  0  0  0  0  0  0  0  0  0  0  0
  139.7140  158.2620  135.2700 C   0  0  0  0  0  0  0  0  0  0  0  0
  139.5410  157.9960  136.6600 N   0  0  0  0  0  0  0  0  0  0  0  0
  138.7290  158.1520  134.4940 O   0  0  0  0  0  0  0  0  0  0  0  0
  142.0640  157.7430  134.4810 N   0  0  0  0  0  0  0  0  0  0  0  0
  142.0130  156.3070  134.4990 C   0  0  0  0  0  0  0  0  0  0  0  0
  142.8110  155.6520  135.2200 O   0  0  0  0  0  0  0  0  0  0  0  0
  141.1020  155.6260  133.7010 O   0  0  0  0  0  0  0  0  0  0  0  0
  143.1190  158.5070  134.1190 C   0  0  0  0  0  0  0  0  0  0  0  0
  144.3910  158.0910  133.7060 C   0  0  0  0  0  0  0  0  0  0  0  0
  147.5190  159.5790  132.2020 C   0  0  0  0  0  0  0  0  0  0  0  0
  149.8040  163.4858  130.2863 H   0  0  0  0  0  0  0  0  0  0  0  0
  150.4315  162.1130  129.3125 H   0  0  0  0  0  0  0  0  0  0  0  0
  148.6741  162.4850  129.3125 H   0  0  0  0  0  0  0  0  0  0  0  0
  150.2821  157.6134  131.7469 H   0  0  0  0  0  0  0  0  0  0  0  0
  148.8546  156.0106  133.0115 H   0  0  0  0  0  0  0  0  0  0  0  0
  146.5749  156.6805  133.7600 H   0  0  0  0  0  0  0  0  0  0  0  0
  145.7165  161.2171  133.1339 H   0  0  0  0  0  0  0  0  0  0  0  0
  143.4025  161.8962  133.8502 H   0  0  0  0  0  0  0  0  0  0  0  0
  140.8793  160.8464  134.6793 H   0  0  0  0  0  0  0  0  0  0  0  0
  139.1510  158.7220  137.3010 H   0  0  0  0  0  0  0  0  0  0  0  0
  144.6454  157.0218  133.6600 H   0  0  0  0  0  0  0  0  0  0  0  0
  147.1379  160.5816  131.9579 H   0  0  0  0  0  0  0  0  0  0  0  0
  1  2  1  0
  2  3  1  0
  3  4  2  0
  3  5  1  0
  5  6  2  0
  6  7  1  0
  7  8  2  0
  8  9  1  0
  9 10  1  0
 10 11  2  0
 11 12  1  0
 12 13  2  0
 13 14  1  0
 14 15  2  0
 15 16  1  0
 16 17  1  0
 16 18  2  0
 15 19  1  0
 19 20  1  0
 20 21  2  0
 20 22  1  0
 19 23  1  0
 23 24  2  0
  9 25  2  0
 25  5  1  0
 24 10  1  0
 23 13  1  0
  1 26  1  0
  1 27  1  0
  1 28  1  0
  6 29  1  0
  7 30  1  0
  8 31  1  0
 11 32  1  0
 12 33  1  0
 14 34  1  0
 17 35  1  0
 24 36  1  0
 25 37  1  0
M  CHG  3   2  -1  17  -1  22  -1
M  END
>  <UniqueID>  (2) 
2

>  <SMILES>  (2) 
C[N-]C(=O)c1cccc(-c2ccc3cc(C([NH-])=O)n(C(=O)[O-])c3c2)c1

>  <Energy>  (2) 
87.90137409314194

>  <Genealogy>  (2) 
C[N-]C(=O)c1cccc(-c2ccc3cc(C([NH-])=O)n(C(=O)[O-])c3c2)c1 (protonated)
C[N-]C(=O)c1cccc(-c2ccc3cc(C([NH-])=O)n(C(=O)[O-])c3c2)c1 (3D coordinates assigned)
C[N-]C(=O)c1cccc(-c2ccc3cc(C([NH-])=O)n(C(=O)[O-])c3c2)c1 (optimized conformer: 87.90137409314194 kcal/mol)

>  <smiles>  (2) 
CNC(=O)c1cccc(-c2ccc3cc(C(N)=O)n(C(=O)O)c3c2)c1

>  <score_type>  (2) 
oracle

>  <origin>  (2) 
adg

>  <m_score__min__energy>  (2) 
-8.2100000000000009

>  <m_primary>  (2) 
energy

$$$$
2:0
     RDKit          3D

 46 48  0  0  0  0  0  0  0  0999 V2000
  149.0360  161.5390  130.7320 C   0  0  0  0  0  0  0  0  0  0  0  0
  149.7970  160.2860  130.6310 N   0  0  0  0  0  0  0  0  0  0  0  0
  150.0010  159.8930  129.2280 C   0  0  0  0  0  0  0  0  0  0  0  0
  149.2650  159.1950  131.4820 C   0  0  0  0  0  0  0  0  0  0  0  0
  148.6320  159.6580  132.8330 C   0  0  1  0  0  0  0  0  0  0  0  0
  147.1520  160.0850  132.7040 C   0  0  0  0  0  0  0  0  0  0  0  0
  146.2470  158.9870  133.0480 N   0  0  0  0  0  0  0  0  0  0  0  0
  144.8610  159.2520  133.3340 C   0  0  0  0  0  0  0  0  0  0  0  0
  144.4080  160.5830  133.5160 C   0  0  0  0  0  0  0  0  0  0  0  0
  143.0560  160.8510  133.7920 C   0  0  0  0  0  0  0  0  0  0  0  0
  142.1860  159.7700  133.8940 C   0  0  0  0  0  0  0  0  0  0  0  0
  140.8290  159.7500  134.1230 C   0  0  0  0  0  0  0  0  0  0  0  0
  140.4770  158.4040  134.1190 C   0  0  0  0  0  0  0  0  0  0  0  0
  139.1090  157.9230  134.3910 C   0  0  0  0  0  0  0  0  0  0  0  0
  138.3950  157.1410  133.4320 N   0  0  0  0  0  0  0  0  0  0  0  0
  138.5830  158.1570  135.5120 O   0  0  0  0  0  0  0  0  0  0  0  0
  141.5680  157.6200  133.8810 N   0  0  0  0  0  0  0  0  0  0  0  0
  141.5950  156.1950  133.6920 C   0  0  0  0  0  0  0  0  0  0  0  0
  142.5480  155.5100  134.1490 O   0  0  0  0  0  0  0  0  0  0  0  0
  140.5710  155.5570  133.0030 O   0  0  0  0  0  0  0  0  0  0  0  0
  142.6090  158.4740  133.7480 C   0  0  0  0  0  0  0  0  0  0  0  0
  143.9450  158.1810  133.4500 C   0  0  0  0  0  0  0  0  0  0  0  0
  146.7430  157.6150  132.9670 C   0  0  0  0  0  0  0  0  0  0  0  0
  148.1040  157.4920  133.6760 C   0  0  0  0  0  0  0  0  0  0  0  0
  148.7940  158.7180  133.8860 O   0  0  0  0  0  0  0  0  0  0  0  0
  148.8831  161.7907  131.7918 H   0  0  0  0  0  0  0  0  0  0  0  0
  149.5953  162.3483  130.2399 H   0  0  0  0  0  0  0  0  0  0  0  0
  148.0600  161.4159  130.2399 H   0  0  0  0  0  0  0  0  0  0  0  0
  150.5075  158.9173  129.1905 H   0  0  0  0  0  0  0  0  0  0  0  0
  149.0269  159.8201  128.7223 H   0  0  0  0  0  0  0  0  0  0  0  0
  150.6212  160.6478  128.7223 H   0  0  0  0  0  0  0  0  0  0  0  0
  148.4926  158.6614  130.9088 H   0  0  0  0  0  0  0  0  0  0  0  0
  150.1268  158.5650  131.7472 H   0  0  0  0  0  0  0  0  0  0  0  0
  149.2083  160.5545  133.1054 H   0  0  0  0  0  0  0  0  0  0  0  0
  146.9630  160.9303  133.3821 H   0  0  0  0  0  0  0  0  0  0  0  0
  146.9648  160.3732  131.6591 H   0  0  0  0  0  0  0  0  0  0  0  0
  145.1228  161.4156  133.4404 H   0  0  0  0  0  0  0  0  0  0  0  0
  142.6972  161.8825  133.9232 H   0  0  0  0  0  0  0  0  0  0  0  0
  140.1649  160.6134  134.2764 H   0  0  0  0  0  0  0  0  0  0  0  0
  138.8630  156.7850  132.5700 H   0  0  0  0  0  0  0  0  0  0  0  0
  137.4130  156.8430  133.6260 H   0  0  0  0  0  0  0  0  0  0  0  0
  144.2748  157.1411  133.3092 H   0  0  0  0  0  0  0  0  0  0  0  0
  146.0210  156.9398  133.4494 H   0  0  0  0  0  0  0  0  0  0  0  0
  146.8670  157.3430  131.9084 H   0  0  0  0  0  0  0  0  0  0  0  0
  147.9347  157.0251  134.6575 H   0  0  0  0  0  0  0  0  0  0  0  0
  148.7419  156.8951  133.0075 H   0  0  0  0  0  0  0  0  0  0  0  0
  1  2  1  0
  2  3  1  0
  2  4  1  0
  4  5  1  0
  5  6  1  0
  6  7  1  0
  7  8  1  0
  8  9  2  0
  9 10  1  0
 10 11  2  0
 11 12  1  0
 12 13  2  0
 13 14  1  0
 14 15  1  0
 14 16  2  0
 13 17  1  0
 17 18  1  0
 18 19  2  0
 18 20  1  0
 17 21  1  0
 21 22  2  0
  7 23  1  0
 23 24  1  0
 24 25  1  0
 25  5  1  0
 22  8  1  0
 21 11  1  0
  1 26  1  0
  1 27  1  0
  1 28  1  0
  3 29  1  0
  3 30  1  0
  3 31  1  0
  4 32  1  0
  4 33  1  0
  5 34  1  1
  6 35  1  0
  6 36  1  0
  9 37  1  0
 10 38  1  0
 12 39  1  0
 15 40  1  0
 15 41  1  0
 22 42  1  0
 23 43  1  0
 23 44  1  0
 24 45  1  0
 24 46  1  0
M  CHG  1  20  -1
M  END
>  <UniqueID>  (3) 
3

>  <SMILES>  (3) 
CN(C)C[C@H]1CN(c2ccc3cc(C(N)=O)n(C(=O)[O-])c3c2)CCO1

>  <Energy>  (3) 
106.7277770283806

>  <Genealogy>  (3) 
CN(C)CC1CN(c2ccc3cc(C(N)=O)n(C(=O)[O-])c3c2)CCO1 (protonated)
CN(C)C[C@H]1CN(c2ccc3cc(C(N)=O)n(C(=O)[O-])c3c2)CCO1 (chirality)
CN(C)C[C@H]1CN(c2ccc3cc(C(N)=O)n(C(=O)[O-])c3c2)CCO1 (3D coordinates assigned)
CN(C)C[C@H]1CN(c2ccc3cc(C(N)=O)n(C(=O)[O-])c3c2)CCO1 (nonaromatic ring conformer: 106.7277770283806 kcal/mol)

>  <smiles>  (3) 
CN(C)CC1CN(c2ccc3cc(C(N)=O)n(C(=O)O)c3c2)CCO1

>  <score_type>  (3) 
oracle

>  <origin>  (3) 
adg

>  <m_score__min__energy>  (3) 
-7.9900000000000002

>  <m_primary>  (3) 
energy

$$$$
3:0
     RDKit          3D

 38 39  0  0  0  0  0  0  0  0999 V2000
  145.5340  152.0080  131.8630 N   0  0  0  0  0  0  0  0  0  0  0  0
  145.1880  152.9020  132.9220 C   0  0  0  0  0  0  0  0  0  0  0  0
  144.3440  152.5390  133.7850 O   0  0  0  0  0  0  0  0  0  0  0  0
  145.7530  154.2650  132.9890 C   0  0  0  0  0  0  0  0  0  0  0  0
  144.9850  155.4020  133.2200 C   0  0  0  0  0  0  0  0  0  0  0  0
  145.8660  156.4560  133.1400 C   0  0  0  0  0  0  0  0  0  0  0  0
  145.6450  157.8200  133.3100 C   0  0  0  0  0  0  0  0  0  0  0  0
  146.7490  158.6830  133.2170 C   0  0  0  0  0  0  0  0  0  0  0  0
  148.0460  158.1710  132.9600 C   0  0  0  0  0  0  0  0  0  0  0  0
  149.2290  159.1030  132.9130 C   0  0  0  0  0  0  0  0  0  0  0  0
  149.7070  159.3450  131.4760 C   0  0  0  0  0  0  0  0  0  0  0  0
  148.9910  160.4980  130.8420 C   0  0  0  0  0  0  0  0  0  0  0  0
  147.7420  160.4620  130.6900 O   0  0  0  0  0  0  0  0  0  0  0  0
  149.7090  161.5940  130.3800 O   0  0  0  0  0  0  0  0  0  0  0  0
  148.2330  156.7800  132.8020 C   0  0  0  0  0  0  0  0  0  0  0  0
  147.1110  155.9450  132.8800 C   0  0  0  0  0  0  0  0  0  0  0  0
  147.0590  154.5970  132.7890 N   0  0  0  0  0  0  0  0  0  0  0  0
  148.1750  153.7050  132.6340 C   0  0  0  0  0  0  0  0  0  0  0  0
  149.3280  154.0760  132.9850 O   0  0  0  0  0  0  0  0  0  0  0  0
  147.9760  152.4300  132.0930 O   0  0  0  0  0  0  0  0  0  0  0  0
  148.9830  151.4190  132.0710 C   0  0  0  0  0  0  0  0  0  0  0  0
  148.3780  150.0440  132.3450 C   0  0  0  0  0  0  0  0  0  0  0  0
  147.0620  150.0010  131.8680 O   0  0  0  0  0  0  0  0  0  0  0  0
  146.0910  152.3330  131.0420 H   0  0  0  0  0  0  0  0  0  0  0  0
  145.1580  151.0340  131.8560 H   0  0  0  0  0  0  0  0  0  0  0  0
  143.9049  155.4484  133.4231 H   0  0  0  0  0  0  0  0  0  0  0  0
  144.6363  158.2099  133.5111 H   0  0  0  0  0  0  0  0  0  0  0  0
  146.6062  159.7662  133.3447 H   0  0  0  0  0  0  0  0  0  0  0  0
  148.9413  160.0663  133.3595 H   0  0  0  0  0  0  0  0  0  0  0  0
  150.0532  158.6377  133.4736 H   0  0  0  0  0  0  0  0  0  0  0  0
  150.7858  159.5593  131.4903 H   0  0  0  0  0  0  0  0  0  0  0  0
  149.4930  158.4415  130.8861 H   0  0  0  0  0  0  0  0  0  0  0  0
  149.2348  156.3627  132.6222 H   0  0  0  0  0  0  0  0  0  0  0  0
  149.4639  151.4106  131.0817 H   0  0  0  0  0  0  0  0  0  0  0  0
  149.7223  151.6411  132.8546 H   0  0  0  0  0  0  0  0  0  0  0  0
  148.9762  149.2739  131.8361 H   0  0  0  0  0  0  0  0  0  0  0  0
  148.3776  149.8569  133.4290 H   0  0  0  0  0  0  0  0  0  0  0  0
  146.9990  150.7040  131.1700 H   0  0  0  0  0  0  0  0  0  0  0  0
  1  2  1  0
  2  3  2  0
  2  4  1  0
  4  5  2  0
  5  6  1  0
  6  7  2  0
  7  8  1  0
  8  9  2  0
  9 10  1  0
 10 11  1  0
 11 12  1  0
 12 13  2  0
 12 14  1  0
  9 15  1  0
 15 16  2  0
 16 17  1  0
 17 18  1  0
 18 19  2  0
 18 20  1  0
 20 21  1  0
 21 22  1  0
 22 23  1  0
 17  4  1  0
 16  6  1  0
  1 24  1  0
  1 25  1  0
  5 26  1  0
  7 27  1  0
  8 28  1  0
 10 29  1  0
 10 30  1  0
 11 31  1  0
 11 32  1  0
 15 33  1  0
 21 34  1  0
 21 35  1  0
 22 36  1  0
 22 37  1  0
 23 38  1  0
M  CHG  1  14  -1
M  END
>  <UniqueID>  (4) 
4

>  <SMILES>  (4) 
NC(=O)c1cc2ccc(CCC(=O)[O-])cc2n1C(=O)OCCO

>  <Energy>  (4) 
69.62123004983161

>  <Genealogy>  (4) 
NC(=O)c1cc2ccc(CCC(=O)[O-])cc2n1C(=O)OCCO (protonated)
NC(=O)c1cc2ccc(CCC(=O)[O-])cc2n1C(=O)OCCO (3D coordinates assigned)
NC(=O)c1cc2ccc(CCC(=O)[O-])cc2n1C(=O)OCCO (optimized conformer: 69.62123004983161 kcal/mol)

>  <smiles>  (4) 
NC(=O)c1cc2ccc(CCC(=O)O)cc2n1C(=O)OCCO

>  <score_type>  (4) 
oracle

>  <origin>  (4) 
adg

>  <m_score__min__energy>  (4) 
-6.4699999999999998

>  <m_primary>  (4) 
energy

$$$$
4:0
     RDKit          3D

 36 37  0  0  0  0  0  0  0  0999 V2000
  138.6410  159.6340  130.3440 C   0  0  0  0  0  0  0  0  0  0  0  0
  138.9180  158.6000  131.2820 O   0  0  0  0  0  0  0  0  0  0  0  0
  139.1310  158.8550  132.6400 C   0  0  0  0  0  0  0  0  0  0  0  0
  139.5970  159.9660  133.0170 O   0  0  0  0  0  0  0  0  0  0  0  0
  138.7350  157.8140  133.6530 C   0  0  1  0  0  0  0  0  0  0  0  0
  138.7870  156.4720  133.0670 N   0  0  0  0  0  0  0  0  0  0  0  0
  139.6250  157.9010  134.9090 C   0  0  0  0  0  0  0  0  0  0  0  0
  141.0870  157.6730  134.6090 C   0  0  0  0  0  0  0  0  0  0  0  0
  141.5900  156.3550  134.4810 C   0  0  0  0  0  0  0  0  0  0  0  0
  142.9460  156.1320  134.1850 C   0  0  0  0  0  0  0  0  0  0  0  0
  143.7660  157.2420  134.0080 C   0  0  0  0  0  0  0  0  0  0  0  0
  145.1140  157.3100  133.7410 C   0  0  0  0  0  0  0  0  0  0  0  0
  145.4070  158.6680  133.6720 C   0  0  0  0  0  0  0  0  0  0  0  0
  146.7460  159.1940  133.3410 C   0  0  0  0  0  0  0  0  0  0  0  0
  146.9370  160.5670  132.9980 N   0  0  0  0  0  0  0  0  0  0  0  0
  147.7280  158.4060  133.3030 O   0  0  0  0  0  0  0  0  0  0  0  0
  144.2890  159.4160  133.9010 N   0  0  0  0  0  0  0  0  0  0  0  0
  144.2020  160.8460  134.0210 C   0  0  0  0  0  0  0  0  0  0  0  0
  143.2620  161.4740  133.4660 O   0  0  0  0  0  0  0  0  0  0  0  0
  145.1530  161.5520  134.7470 O   0  0  0  0  0  0  0  0  0  0  0  0
  143.2910  158.5250  134.1030 C   0  0  0  0  0  0  0  0  0  0  0  0
  141.9520  158.7750  134.4230 C   0  0  0  0  0  0  0  0  0  0  0  0
  138.3928  160.5606  130.8823 H   0  0  0  0  0  0  0  0  0  0  0  0
  139.5256  159.8027  129.7123 H   0  0  0  0  0  0  0  0  0  0  0  0
  137.7905  159.3379  129.7123 H   0  0  0  0  0  0  0  0  0  0  0  0
  137.6973  158.0130  133.9589 H   0  0  0  0  0  0  0  0  0  0  0  0
  138.7290  156.5660  132.0260 H   0  0  0  0  0  0  0  0  0  0  0  0
  137.9270  155.9530  133.3570 H   0  0  0  0  0  0  0  0  0  0  0  0
  139.5094  158.9009  135.3527 H   0  0  0  0  0  0  0  0  0  0  0  0
  139.3016  157.1076  135.5988 H   0  0  0  0  0  0  0  0  0  0  0  0
  140.9133  155.4981  134.6145 H   0  0  0  0  0  0  0  0  0  0  0  0
  143.3465  155.1114  134.0960 H   0  0  0  0  0  0  0  0  0  0  0  0
  145.8114  156.4695  133.6100 H   0  0  0  0  0  0  0  0  0  0  0  0
  146.1240  161.2060  132.8550 H   0  0  0  0  0  0  0  0  0  0  0  0
  147.8970  160.9290  132.8040 H   0  0  0  0  0  0  0  0  0  0  0  0
  141.5812  159.8054  134.5274 H   0  0  0  0  0  0  0  0  0  0  0  0
  1  2  1  0
  2  3  1  0
  3  4  2  0
  3  5  1  0
  5  6  1  0
  5  7  1  0
  7  8  1  0
  8  9  2  0
  9 10  1  0
 10 11  2  0
 11 12  1  0
 12 13  2  0
 13 14  1  0
 14 15  1  0
 14 16  2  0
 13 17  1  0
 17 18  1  0
 18 19  2  0
 18 20  1  0
 17 21  1  0
 21 22  2  0
 22  8  1  0
 21 11  1  0
  1 23  1  0
  1 24  1  0
  1 25  1  0
  5 26  1  1
  6 27  1  0
  6 28  1  0
  7 29  1  0
  7 30  1  0
  9 31  1  0
 10 32  1  0
 12 33  1  0
 15 34  1  0
 15 35  1  0
 22 36  1  0
M  CHG  1  20  -1
M  END
>  <UniqueID>  (5) 
5

>  <SMILES>  (5) 
COC(=O)[C@@H](N)Cc1ccc2cc(C(N)=O)n(C(=O)[O-])c2c1

>  <Energy>  (5) 
70.7175159153492

>  <Genealogy>  (5) 
COC(=O)[C@@H](N)Cc1ccc2cc(C(N)=O)n(C(=O)[O-])c2c1 (protonated)
COC(=O)[C@@H](N)Cc1ccc2cc(C(N)=O)n(C(=O)[O-])c2c1 (3D coordinates assigned)
COC(=O)[C@@H](N)Cc1ccc2cc(C(N)=O)n(C(=O)[O-])c2c1 (optimized conformer: 70.7175159153492 kcal/mol)

>  <smiles>  (5) 
COC(=O)[C@@H](N)Cc1ccc2cc(C(N)=O)n(C(=O)O)c2c1

>  <score_type>  (5) 
oracle

>  <origin>  (5) 
adg

>  <m_score__min__energy>  (5) 
-6.3799999999999999

>  <m_primary>  (5) 
energy

$$$$
5:0
     RDKit          3D

 39 40  0  0  0  0  0  0  0  0999 V2000
  139.4550  159.3740  136.4840 H   0  0  0  0  0  0  0  0  0  0  0  0
  139.8040  158.4120  136.2710 N   0  0  0  0  0  0  0  0  0  0  0  0
  140.1300  158.0320  134.9370 C   0  0  0  0  0  0  0  0  0  0  0  0
  139.2110  157.6760  134.1540 O   0  0  0  0  0  0  0  0  0  0  0  0
  141.5340  158.1000  134.4770 C   0  0  0  0  0  0  0  0  0  0  0  0
  142.4480  157.0630  134.6480 C   0  0  0  0  0  0  0  0  0  0  0  0
  142.2541  156.0667  135.0720 H   0  0  0  0  0  0  0  0  0  0  0  0
  143.6450  157.5490  134.1740 C   0  0  0  0  0  0  0  0  0  0  0  0
  144.8900  156.9340  134.0870 C   0  0  0  0  0  0  0  0  0  0  0  0
  145.0404  155.9060  134.4484 H   0  0  0  0  0  0  0  0  0  0  0  0
  145.9490  157.6650  133.5240 C   0  0  0  0  0  0  0  0  0  0  0  0
  146.9442  157.2041  133.4398 H   0  0  0  0  0  0  0  0  0  0  0  0
  145.7480  158.9940  133.0620 C   0  0  0  0  0  0  0  0  0  0  0  0
  146.8170  159.7400  132.4560 N   0  0  0  0  0  0  0  0  0  0  0  0
  146.5710  160.5490  131.8410 H   0  0  0  0  0  0  0  0  0  0  0  0
  148.2080  159.5100  132.7410 C   0  0  0  0  0  0  0  0  0  0  0  0
  149.1660  159.7920  131.8400 C   0  0  0  0  0  0  0  0  0  0  0  0
  150.2122  159.6915  132.1646 H   0  0  0  0  0  0  0  0  0  0  0  0
  148.9240  160.2260  130.4490 C   0  0  0  0  0  0  0  0  0  0  0  0
  147.7680  160.5030  130.0330 O   0  0  0  0  0  0  0  0  0  0  0  0
  149.9950  160.2920  129.5670 O   0  0  0  0  0  0  0  0  0  0  0  0
  148.6140  159.0290  134.1060 C   0  0  0  0  0  0  0  0  0  0  0  0
  148.1056  159.6314  134.8732 H   0  0  0  0  0  0  0  0  0  0  0  0
  148.3305  157.9725  134.2218 H   0  0  0  0  0  0  0  0  0  0  0  0
  149.7031  159.1312  134.2218 H   0  0  0  0  0  0  0  0  0  0  0  0
  144.4650  159.5750  133.1520 C   0  0  0  0  0  0  0  0  0  0  0  0
  144.2802  160.5906  132.7721 H   0  0  0  0  0  0  0  0  0  0  0  0
  143.4330  158.8310  133.7350 C   0  0  0  0  0  0  0  0  0  0  0  0
  142.1400  159.1820  133.9110 N   0  0  0  0  0  0  0  0  0  0  0  0
  141.5380  160.4260  133.5200 C   0  0  0  0  0  0  0  0  0  0  0  0
  142.1440  161.5130  133.7280 O   0  0  0  0  0  0  0  0  0  0  0  0
  140.2670  160.4270  132.9320 O   0  0  0  0  0  0  0  0  0  0  0  0
  139.8980  159.5720  131.8530 C   0  0  0  0  0  0  0  0  0  0  0  0
  139.7079  158.5608  132.2420 H   0  0  0  0  0  0  0  0  0  0  0  0
  140.7191  159.5508  131.1213 H   0  0  0  0  0  0  0  0  0  0  0  0
  138.6400  160.0880  131.1640 C   0  0  0  0  0  0  0  0  0  0  0  0
  137.9037  160.3900  131.9234 H   0  0  0  0  0  0  0  0  0  0  0  0
  138.8951  160.9541  130.5357 H   0  0  0  0  0  0  0  0  0  0  0  0
  138.2134  159.2922  130.5357 H   0  0  0  0  0  0  0  0  0  0  0  0
  1  2  1  0
  2  3  1  0
  3  4  2  0
  3  5  1  0
  5  6  2  0
  6  7  1  0
  6  8  1  0
  8  9  2  0
  9 10  1  0
  9 11  1  0
 11 12  1  0
 11 13  2  0
 13 14  1  0
 14 15  1  0
 14 16  1  0
 16 17  2  0
 17 18  1  0
 17 19  1  0
 19 20  2  0
 19 21  1  0
 16 22  1  0
 22 23  1  0
 22 24  1  0
 22 25  1  0
 13 26  1  0
 26 27  1  0
 26 28  2  0
 28 29  1  0
 29 30  1  0
 30 31  2  0
 30 32  1  0
 32 33  1  0
 33 34  1  0
 33 35  1  0
 33 36  1  0
 36 37  1  0
 36 38  1  0
 36 39  1  0
 29  5  1  0
 28  8  1  0
M  CHG  2   2  -1  21  -1
M  END
>  <UniqueID>  (6) 
6

>  <SMILES>  (6) 
CCOC(=O)n1c(C([NH-])=O)cc2ccc(N/C(C)=C\C(=O)[O-])cc21

>  <Energy>  (6) 
79.62380816072614

>  <Genealogy>  (6) 
CCOC(=O)n1c(C([NH-])=O)cc2ccc(NC(C)=CC(=O)[O-])cc21 (protonated)
CCOC(=O)n1c(C([NH-])=O)cc2ccc(N/C(C)=C\C(=O)[O-])cc21 (cis-trans isomerization)
CCOC(=O)n1c(C([NH-])=O)cc2ccc(N/C(C)=C\C(=O)[O-])cc21 (3D coordinates assigned)
CCOC(=O)n1c(C([NH-])=O)cc2ccc(N/C(C)=C\C(=O)[O-])cc21 (optimized conformer: 79.62380816072614 kcal/mol)

>  <smiles>  (6) 
CCOC(=O)n1c(C(N)=O)cc2ccc(NC(C)=CC(=O)O)cc21

>  <score_type>  (6) 
oracle

>  <origin>  (6) 
adg

>  <m_score__min__energy>  (6) 
-7.4199999999999999

>  <m_primary>  (6) 
energy

$$$$
6:0
     RDKit          3D

 37 39  0  0  0  0  0  0  0  0999 V2000
  138.7640  157.8880  134.5550 C   0  0  0  0  0  0  0  0  0  0  0  0
  139.2980  158.5120  133.3080 C   0  0  0  0  0  0  0  0  0  0  0  0
  138.7170  159.4910  132.6550 O   0  0  0  0  0  0  0  0  0  0  0  0
  139.4810  159.7310  131.6140 C   0  0  0  0  0  0  0  0  0  0  0  0
  139.2340  160.6190  130.7560 O   0  0  0  0  0  0  0  0  0  0  0  0
  140.5300  158.9430  131.5640 O   0  0  0  0  0  0  0  0  0  0  0  0
  140.4420  158.1600  132.6140 C   0  0  0  0  0  0  0  0  0  0  0  0
  141.4340  157.0920  132.9640 C   0  0  0  0  0  0  0  0  0  0  0  0
  142.7660  157.5510  132.7450 O   0  0  0  0  0  0  0  0  0  0  0  0
  143.7110  157.6770  133.7690 C   0  0  0  0  0  0  0  0  0  0  0  0
  143.5280  157.1150  134.8820 O   0  0  0  0  0  0  0  0  0  0  0  0
  144.9000  158.4480  133.5450 N   0  0  0  0  0  0  0  0  0  0  0  0
  145.0240  159.8050  133.5270 C   0  0  0  0  0  0  0  0  0  0  0  0
  143.9130  160.7780  133.5840 C   0  0  0  0  0  0  0  0  0  0  0  0
  142.5680  160.3710  133.3480 N   0  0  0  0  0  0  0  0  0  0  0  0
  144.1600  161.9940  133.7990 O   0  0  0  0  0  0  0  0  0  0  0  0
  146.3570  160.1700  133.3470 C   0  0  0  0  0  0  0  0  0  0  0  0
  147.0490  158.9840  133.2440 C   0  0  0  0  0  0  0  0  0  0  0  0
  148.4060  158.7530  133.0460 C   0  0  0  0  0  0  0  0  0  0  0  0
  148.8470  157.4200  132.9890 C   0  0  0  0  0  0  0  0  0  0  0  0
  147.9330  156.3460  133.1530 C   0  0  0  0  0  0  0  0  0  0  0  0
  148.4110  154.9200  133.0490 C   0  0  0  0  0  0  0  0  0  0  0  0
  148.4830  154.3360  134.3020 F   0  0  0  0  0  0  0  0  0  0  0  0
  147.5280  154.2000  132.2670 F   0  0  0  0  0  0  0  0  0  0  0  0
  149.6700  154.8670  132.4750 F   0  0  0  0  0  0  0  0  0  0  0  0
  146.5570  156.6230  133.3280 C   0  0  0  0  0  0  0  0  0  0  0  0
  146.1460  157.9600  133.3640 C   0  0  0  0  0  0  0  0  0  0  0  0
  139.1960  158.3928  135.4316 H   0  0  0  0  0  0  0  0  0  0  0  0
  137.6689  157.9897  134.5760 H   0  0  0  0  0  0  0  0  0  0  0  0
  139.0337  156.8218  134.5760 H   0  0  0  0  0  0  0  0  0  0  0  0
  141.3148  156.8215  134.0235 H   0  0  0  0  0  0  0  0  0  0  0  0
  141.2517  156.2161  132.3240 H   0  0  0  0  0  0  0  0  0  0  0  0
  142.3380  159.6770  132.6020 H   0  0  0  0  0  0  0  0  0  0  0  0
  146.7687  161.1889  133.2977 H   0  0  0  0  0  0  0  0  0  0  0  0
  149.1130  159.5887  132.9373 H   0  0  0  0  0  0  0  0  0  0  0  0
  149.9120  157.2063  132.8154 H   0  0  0  0  0  0  0  0  0  0  0  0
  145.8273  155.8066  133.4333 H   0  0  0  0  0  0  0  0  0  0  0  0
  1  2  1  0
  2  3  1  0
  3  4  1  0
  4  5  2  0
  4  6  1  0
  6  7  1  0
  7  8  1  0
  8  9  1  0
  9 10  1  0
 10 11  2  0
 10 12  1  0
 12 13  1  0
 13 14  1  0
 14 15  1  0
 14 16  2  0
 13 17  2  0
 17 18  1  0
 18 19  2  0
 19 20  1  0
 20 21  2  0
 21 22  1  0
 22 23  1  0
 22 24  1  0
 22 25  1  0
 21 26  1  0
 26 27  2  0
  7  2  2  0
 27 12  1  0
 27 18  1  0
  1 28  1  0
  1 29  1  0
  1 30  1  0
  8 31  1  0
  8 32  1  0
 15 33  1  0
 17 34  1  0
 19 35  1  0
 20 36  1  0
 26 37  1  0
M  CHG  1  15  -1
M  END
>  <UniqueID>  (7) 
7

>  <SMILES>  (7) 
Cc1oc(=O)oc1COC(=O)n1c(C([NH-])=O)cc2ccc(C(F)(F)F)cc21

>  <Energy>  (7) 
108.0627528702198

>  <Genealogy>  (7) 
Cc1oc(=O)oc1COC(=O)n1c(C([NH-])=O)cc2ccc(C(F)(F)F)cc21 (protonated)
Cc1oc(=O)oc1COC(=O)n1c(C([NH-])=O)cc2ccc(C(F)(F)F)cc21 (3D coordinates assigned)
Cc1oc(=O)oc1COC(=O)n1c(C([NH-])=O)cc2ccc(C(F)(F)F)cc21 (optimized conformer: 108.0627528702198 kcal/mol)

>  <smiles>  (7) 
Cc1oc(=O)oc1COC(=O)n1c(C(N)=O)cc2ccc(C(F)(F)F)cc21

>  <score_type>  (7) 
oracle

>  <origin>  (7) 
adg

>  <m_score__min__energy>  (7) 
-6.3700000000000001

>  <m_primary>  (7) 
energy

$$$$
7:0
     RDKit          3D

 33 35  0  0  0  0  0  0  0  0999 V2000
  139.5210  158.1890  136.3790 N   0  0  0  0  0  0  0  0  0  0  0  0
  139.9060  158.3740  135.0200 C   0  0  0  0  0  0  0  0  0  0  0  0
  139.0490  158.2170  134.1100 O   0  0  0  0  0  0  0  0  0  0  0  0
  141.3050  158.6880  134.6610 C   0  0  0  0  0  0  0  0  0  0  0  0
  141.7760  159.9870  134.4850 C   0  0  0  0  0  0  0  0  0  0  0  0
  143.0810  159.8500  134.0760 C   0  0  0  0  0  0  0  0  0  0  0  0
  144.0320  160.8230  133.7750 C   0  0  0  0  0  0  0  0  0  0  0  0
  145.3200  160.3940  133.4130 C   0  0  0  0  0  0  0  0  0  0  0  0
  145.6310  159.0130  133.3570 C   0  0  0  0  0  0  0  0  0  0  0  0
  147.0290  158.5700  133.0150 C   0  0  0  0  0  0  0  0  0  0  0  0
  148.0290  159.6980  133.2710 C   0  0  0  0  0  0  0  0  0  0  0  0
  148.6900  160.0730  132.0260 N   0  0  0  0  0  0  0  0  0  0  0  0
  149.6050  159.3570  131.3520 C   0  0  0  0  0  0  0  0  0  0  0  0
  150.0570  160.0340  130.2800 N   0  0  0  0  0  0  0  0  0  0  0  0
  149.3690  161.1950  130.3570 C   0  0  0  0  0  0  0  0  0  0  0  0
  148.5400  161.2350  131.4190 N   0  0  0  0  0  0  0  0  0  0  0  0
  144.6460  158.0560  133.6810 C   0  0  0  0  0  0  0  0  0  0  0  0
  143.3650  158.5090  134.0200 C   0  0  0  0  0  0  0  0  0  0  0  0
  142.2850  157.7820  134.3810 N   0  0  0  0  0  0  0  0  0  0  0  0
  142.2320  156.3530  134.5230 C   0  0  0  0  0  0  0  0  0  0  0  0
  141.3830  155.6810  133.8790 O   0  0  0  0  0  0  0  0  0  0  0  0
  143.0980  155.7020  135.3910 O   0  0  0  0  0  0  0  0  0  0  0  0
  139.4780  158.9970  137.0400 H   0  0  0  0  0  0  0  0  0  0  0  0
  141.2211  160.9240  134.6404 H   0  0  0  0  0  0  0  0  0  0  0  0
  143.7822  161.8933  133.8194 H   0  0  0  0  0  0  0  0  0  0  0  0
  146.0940  161.1372  133.1709 H   0  0  0  0  0  0  0  0  0  0  0  0
  147.2956  157.7026  133.6367 H   0  0  0  0  0  0  0  0  0  0  0  0
  147.0646  158.2998  131.9493 H   0  0  0  0  0  0  0  0  0  0  0  0
  147.4970  160.5706  133.6778 H   0  0  0  0  0  0  0  0  0  0  0  0
  148.7856  159.3524  133.9908 H   0  0  0  0  0  0  0  0  0  0  0  0
  149.9409  158.3495  131.6385 H   0  0  0  0  0  0  0  0  0  0  0  0
  149.4741  162.0164  129.6329 H   0  0  0  0  0  0  0  0  0  0  0  0
  144.8785  156.9809  133.6676 H   0  0  0  0  0  0  0  0  0  0  0  0
  1  2  1  0
  2  3  2  0
  2  4  1  0
  4  5  2  0
  5  6  1  0
  6  7  2  0
  7  8  1  0
  8  9  2  0
  9 10  1  0
 10 11  1  0
 11 12  1  0
 12 13  1  0
 13 14  2  0
 14 15  1  0
 15 16  2  0
  9 17  1  0
 17 18  2  0
 18 19  1  0
 19 20  1  0
 20 21  2  0
 20 22  1  0
 19  4  1  0
 18  6  1  0
 16 12  1  0
  1 23  1  0
  5 24  1  0
  7 25  1  0
  8 26  1  0
 10 27  1  0
 10 28  1  0
 11 29  1  0
 11 30  1  0
 13 31  1  0
 15 32  1  0
 17 33  1  0
M  CHG  2   1  -1  22  -1
M  END
>  <UniqueID>  (8) 
8

>  <SMILES>  (8) 
[NH-]C(=O)c1cc2ccc(CCn3cncn3)cc2n1C(=O)[O-]

>  <Energy>  (8) 
104.27473466006299

>  <Genealogy>  (8) 
[NH-]C(=O)c1cc2ccc(CCn3cncn3)cc2n1C(=O)[O-] (protonated)
[NH-]C(=O)c1cc2ccc(CCn3cncn3)cc2n1C(=O)[O-] (3D coordinates assigned)
[NH-]C(=O)c1cc2ccc(CCn3cncn3)cc2n1C(=O)[O-] (optimized conformer: 104.27473466006299 kcal/mol)

>  <smiles>  (8) 
NC(=O)c1cc2ccc(CCn3cncn3)cc2n1C(=O)O

>  <score_type>  (8) 
oracle

>  <origin>  (8) 
adg

>  <m_score__min__energy>  (8) 
-7.0599999999999996

>  <m_primary>  (8) 
energy

$$$$
8:0
     RDKit          3D

 36 37  0  0  0  0  0  0  0  0999 V2000
  149.7410  157.5600  131.8900 N   0  0  0  0  0  0  0  0  0  0  0  0
  149.2000  158.8360  132.2220 C   0  0  0  0  0  0  0  0  0  0  0  0
  149.9500  159.8490  132.1990 O   0  0  0  0  0  0  0  0  0  0  0  0
  147.7920  158.9780  132.6460 C   0  0  0  0  0  0  0  0  0  0  0  0
  147.1820  160.2080  132.8870 C   0  0  0  0  0  0  0  0  0  0  0  0
  145.9180  159.9070  133.3390 C   0  0  0  0  0  0  0  0  0  0  0  0
  144.8800  160.7510  133.7220 C   0  0  0  0  0  0  0  0  0  0  0  0
  143.6680  160.1650  134.1210 C   0  0  0  0  0  0  0  0  0  0  0  0
  143.5120  158.7560  134.1150 C   0  0  0  0  0  0  0  0  0  0  0  0
  142.2150  158.1390  134.5650 C   0  0  0  0  0  0  0  0  0  0  0  0
  141.2500  157.9930  133.3900 C   0  0  0  0  0  0  0  0  0  0  0  0
  141.2080  159.1920  132.6690 O   0  0  0  0  0  0  0  0  0  0  0  0
  144.5910  157.9310  133.7310 C   0  0  0  0  0  0  0  0  0  0  0  0
  145.7940  158.5420  133.3550 C   0  0  0  0  0  0  0  0  0  0  0  0
  146.9350  157.9570  132.9320 N   0  0  0  0  0  0  0  0  0  0  0  0
  147.1450  156.5520  132.7260 C   0  0  0  0  0  0  0  0  0  0  0  0
  146.9910  156.0560  131.5770 O   0  0  0  0  0  0  0  0  0  0  0  0
  147.5330  155.7420  133.8020 O   0  0  0  0  0  0  0  0  0  0  0  0
  147.5120  154.3170  133.7680 C   0  0  0  0  0  0  0  0  0  0  0  0
  148.5820  153.7810  132.8200 C   0  0  0  0  0  0  0  0  0  0  0  0
  149.5210  154.7800  132.5330 O   0  0  0  0  0  0  0  0  0  0  0  0
  149.1180  156.7400  131.7190 H   0  0  0  0  0  0  0  0  0  0  0  0
  147.6188  161.2076  132.7457 H   0  0  0  0  0  0  0  0  0  0  0  0
  145.0052  161.8438  133.7125 H   0  0  0  0  0  0  0  0  0  0  0  0
  142.8323  160.8047  134.4410 H   0  0  0  0  0  0  0  0  0  0  0  0
  142.4168  157.1456  134.9921 H   0  0  0  0  0  0  0  0  0  0  0  0
  141.7556  158.7933  135.3206 H   0  0  0  0  0  0  0  0  0  0  0  0
  141.5937  157.1813  132.7320 H   0  0  0  0  0  0  0  0  0  0  0  0
  140.2444  157.7573  133.7685 H   0  0  0  0  0  0  0  0  0  0  0  0
  141.7220  159.0290  131.8360 H   0  0  0  0  0  0  0  0  0  0  0  0
  144.4897  156.8357  133.7271 H   0  0  0  0  0  0  0  0  0  0  0  0
  147.7001  153.9294  134.7801 H   0  0  0  0  0  0  0  0  0  0  0  0
  146.5259  153.9876  133.4087 H   0  0  0  0  0  0  0  0  0  0  0  0
  149.0919  152.9287  133.2928 H   0  0  0  0  0  0  0  0  0  0  0  0
  148.1025  153.4605  131.8833 H   0  0  0  0  0  0  0  0  0  0  0  0
  149.0020  155.5590  132.2060 H   0  0  0  0  0  0  0  0  0  0  0  0
  1  2  1  0
  2  3  2  0
  2  4  1  0
  4  5  2  0
  5  6  1  0
  6  7  2  0
  7  8  1  0
  8  9  2  0
  9 10  1  0
 10 11  1  0
 11 12  1  0
  9 13  1  0
 13 14  2  0
 14 15  1  0
 15 16  1  0
 16 17  2  0
 16 18  1  0
 18 19  1  0
 19 20  1  0
 20 21  1  0
 15  4  1  0
 14  6  1  0
  1 22  1  0
  5 23  1  0
  7 24  1  0
  8 25  1  0
 10 26  1  0
 10 27  1  0
 11 28  1  0
 11 29  1  0
 12 30  1  0
 13 31  1  0
 19 32  1  0
 19 33  1  0
 20 34  1  0
 20 35  1  0
 21 36  1  0
M  CHG  1   1  -1
M  END
>  <UniqueID>  (9) 
9

>  <SMILES>  (9) 
[NH-]C(=O)c1cc2ccc(CCO)cc2n1C(=O)OCCO

>  <Energy>  (9) 
68.39336731764374

>  <Genealogy>  (9) 
[NH-]C(=O)c1cc2ccc(CCO)cc2n1C(=O)OCCO (protonated)
[NH-]C(=O)c1cc2ccc(CCO)cc2n1C(=O)OCCO (3D coordinates assigned)
[NH-]C(=O)c1cc2ccc(CCO)cc2n1C(=O)OCCO (optimized conformer: 68.39336731764374 kcal/mol)

>  <smiles>  (9) 
NC(=O)c1cc2ccc(CCO)cc2n1C(=O)OCCO

>  <score_type>  (9) 
oracle

>  <origin>  (9) 
adg

>  <m_score__min__energy>  (9) 
-5.9900000000000002

>  <m_primary>  (9) 
energy

$$$$
9:0
     RDKit          3D

 25 26  0  0  0  0  0  0  0  0999 V2000
  138.5310  157.8740  131.1050 N   0  0  0  0  0  0  0  0  0  0  0  0
  139.6260  158.6010  131.6650 C   0  0  0  0  0  0  0  0  0  0  0  0
  140.3250  159.3350  130.9170 O   0  0  0  0  0  0  0  0  0  0  0  0
  139.9940  158.4530  133.0870 C   0  0  0  0  0  0  0  0  0  0  0  0
  140.2460  159.5340  133.9270 C   0  0  0  0  0  0  0  0  0  0  0  0
  140.6160  158.9780  135.1300 C   0  0  0  0  0  0  0  0  0  0  0  0
  140.9760  159.5950  136.3240 C   0  0  0  0  0  0  0  0  0  0  0  0
  141.2850  158.7760  137.4210 C   0  0  0  0  0  0  0  0  0  0  0  0
  141.2020  157.3640  137.3180 C   0  0  0  0  0  0  0  0  0  0  0  0
  141.5710  156.4940  138.4940 C   0  0  0  0  0  0  0  0  0  0  0  0
  142.1220  157.2820  139.4870 F   0  0  0  0  0  0  0  0  0  0  0  0
  140.4530  155.8510  138.9970 F   0  0  0  0  0  0  0  0  0  0  0  0
  142.4930  155.5310  138.1190 F   0  0  0  0  0  0  0  0  0  0  0  0
  140.8540  156.7740  136.0810 C   0  0  0  0  0  0  0  0  0  0  0  0
  140.5710  157.6140  134.9960 C   0  0  0  0  0  0  0  0  0  0  0  0
  140.1870  157.2750  133.7430 N   0  0  0  0  0  0  0  0  0  0  0  0
  139.9130  155.9500  133.2530 C   0  0  0  0  0  0  0  0  0  0  0  0
  138.7350  155.5980  132.9880 O   0  0  0  0  0  0  0  0  0  0  0  0
  140.9510  155.0460  133.0620 O   0  0  0  0  0  0  0  0  0  0  0  0
  138.0380  157.1350  131.6540 H   0  0  0  0  0  0  0  0  0  0  0  0
  138.2620  158.0180  130.1070 H   0  0  0  0  0  0  0  0  0  0  0  0
  140.1664  160.6033  133.6817 H   0  0  0  0  0  0  0  0  0  0  0  0
  141.0172  160.6912  136.4057 H   0  0  0  0  0  0  0  0  0  0  0  0
  141.5951  159.2345  138.3716 H   0  0  0  0  0  0  0  0  0  0  0  0
  140.8066  155.6803  135.9730 H   0  0  0  0  0  0  0  0  0  0  0  0
  1  2  1  0
  2  3  2  0
  2  4  1  0
  4  5  2  0
  5  6  1  0
  6  7  2  0
  7  8  1  0
  8  9  2  0
  9 10  1  0
 10 11  1  0
 10 12  1  0
 10 13  1  0
  9 14  1  0
 14 15  2  0
 15 16  1  0
 16 17  1  0
 17 18  2  0
 17 19  1  0
 16  4  1  0
 15  6  1  0
  1 20  1  0
  1 21  1  0
  5 22  1  0
  7 23  1  0
  8 24  1  0
 14 25  1  0
M  CHG  1  19  -1
M  END
>  <UniqueID>  (10) 
10

>  <SMILES>  (10) 
NC(=O)c1cc2ccc(C(F)(F)F)cc2n1C(=O)[O-]

>  <Energy>  (10) 
66.32011350032467

>  <Genealogy>  (10) 
NC(=O)c1cc2ccc(C(F)(F)F)cc2n1C(=O)[O-] (protonated)
NC(=O)c1cc2ccc(C(F)(F)F)cc2n1C(=O)[O-] (3D coordinates assigned)
NC(=O)c1cc2ccc(C(F)(F)F)cc2n1C(=O)[O-] (optimized conformer: 66.32011350032467 kcal/mol)

>  <smiles>  (10) 
NC(=O)c1cc2ccc(C(F)(F)F)cc2n1C(=O)O

>  <score_type>  (10) 
oracle

>  <origin>  (10) 
adg

>  <m_score__min__energy>  (10) 
-5.3399999999999999

>  <m_primary>  (10) 
energy

$$$$
10:0
     RDKit          3D

 36 38  0  0  0  0  0  0  0  0999 V2000
  139.2920  158.0900  136.0400 N   0  0  0  0  0  0  0  0  0  0  0  0
  139.7170  157.6580  134.7500 C   0  0  0  0  0  0  0  0  0  0  0  0
  138.8710  157.1750  133.9520 O   0  0  0  0  0  0  0  0  0  0  0  0
  141.1410  157.7150  134.3590 C   0  0  0  0  0  0  0  0  0  0  0  0
  141.8720  156.5960  133.9670 C   0  0  0  0  0  0  0  0  0  0  0  0
  143.1570  157.0470  133.7770 C   0  0  0  0  0  0  0  0  0  0  0  0
  144.2960  156.3580  133.3730 C   0  0  0  0  0  0  0  0  0  0  0  0
  145.4890  157.0830  133.2300 C   0  0  0  0  0  0  0  0  0  0  0  0
  145.5270  158.4820  133.4820 C   0  0  0  0  0  0  0  0  0  0  0  0
  146.8160  159.2740  133.3170 C   0  0  2  0  0  0  0  0  0  0  0  0
  146.9590  159.8010  131.8700 C   0  0  0  0  0  0  0  0  0  0  0  0
  148.3290  160.2560  131.6120 N   0  0  0  0  0  0  0  0  0  0  0  0
  149.3020  159.1460  131.6400 C   0  0  0  0  0  0  0  0  0  0  0  0
  148.9190  157.9990  132.6010 C   0  0  0  0  0  0  0  0  0  0  0  0
  148.0830  158.4960  133.7880 C   0  0  0  0  0  0  0  0  0  0  0  0
  148.8760  159.3370  134.5520 F   0  0  0  0  0  0  0  0  0  0  0  0
  147.7390  157.4130  134.5820 F   0  0  0  0  0  0  0  0  0  0  0  0
  144.3450  159.1430  133.8900 C   0  0  0  0  0  0  0  0  0  0  0  0
  143.1750  158.3910  134.0440 C   0  0  0  0  0  0  0  0  0  0  0  0
  141.9430  158.8190  134.4000 N   0  0  0  0  0  0  0  0  0  0  0  0
  141.5600  160.1760  134.6730 C   0  0  0  0  0  0  0  0  0  0  0  0
  140.9850  160.4710  135.7530 O   0  0  0  0  0  0  0  0  0  0  0  0
  141.7990  161.1740  133.7350 O   0  0  0  0  0  0  0  0  0  0  0  0
  139.3990  159.0860  136.3360 H   0  0  0  0  0  0  0  0  0  0  0  0
  141.5001  155.5690  133.8370 H   0  0  0  0  0  0  0  0  0  0  0  0
  144.2625  155.2771  133.1717 H   0  0  0  0  0  0  0  0  0  0  0  0
  146.4067  156.5623  132.9189 H   0  0  0  0  0  0  0  0  0  0  0  0
  146.7420  160.1419  133.9888 H   0  0  0  0  0  0  0  0  0  0  0  0
  146.7091  158.9934  131.1662 H   0  0  0  0  0  0  0  0  0  0  0  0
  146.2749  160.6520  131.7366 H   0  0  0  0  0  0  0  0  0  0  0  0
  148.5940  160.9610  132.3410 H   0  0  0  0  0  0  0  0  0  0  0  0
  149.3848  158.7328  130.6239 H   0  0  0  0  0  0  0  0  0  0  0  0
  150.2514  159.5641  132.0059 H   0  0  0  0  0  0  0  0  0  0  0  0
  148.3357  157.2502  132.0451 H   0  0  0  0  0  0  0  0  0  0  0  0
  149.8484  157.5655  132.9989 H   0  0  0  0  0  0  0  0  0  0  0  0
  144.3455  160.2261  134.0823 H   0  0  0  0  0  0  0  0  0  0  0  0
  1  2  1  0
  2  3  2  0
  2  4  1  0
  4  5  2  0
  5  6  1  0
  6  7  2  0
  7  8  1  0
  8  9  2  0
  9 10  1  0
 10 11  1  0
 11 12  1  0
 12 13  1  0
 13 14  1  0
 14 15  1  0
 15 16  1  0
 15 17  1  0
  9 18  1  0
 18 19  2  0
 19 20  1  0
 20 21  1  0
 21 22  2  0
 21 23  1  0
 20  4  1  0
 19  6  1  0
 15 10  1  0
  1 24  1  0
  5 25  1  0
  7 26  1  0
  8 27  1  0
 10 28  1  1
 11 29  1  0
 11 30  1  0
 12 31  1  0
 13 32  1  0
 13 33  1  0
 14 34  1  0
 14 35  1  0
 18 36  1  0
M  CHG  2   1  -1  23  -1
M  END
>  <UniqueID>  (11) 
11

>  <SMILES>  (11) 
[NH-]C(=O)c1cc2ccc([C@@H]3CNCCC3(F)F)cc2n1C(=O)[O-]

>  <Energy>  (11) 
85.72541873940528

>  <Genealogy>  (11) 
[NH-]C(=O)c1cc2ccc([C@@H]3CNCCC3(F)F)cc2n1C(=O)[O-] (protonated)
[NH-]C(=O)c1cc2ccc([C@@H]3CNCCC3(F)F)cc2n1C(=O)[O-] (3D coordinates assigned)
[NH-]C(=O)c1cc2ccc([C@@H]3CNCCC3(F)F)cc2n1C(=O)[O-] (nonaromatic ring conformer: 85.72541873940528 kcal/mol)

>  <smiles>  (11) 
NC(=O)c1cc2ccc([C@@H]3CNCCC3(F)F)cc2n1C(=O)O

>  <score_type>  (11) 
oracle

>  <origin>  (11) 
adg

>  <m_score__min__energy>  (11) 
-7.2199999999999998

>  <m_primary>  (11) 
energy

$$$$
11:0
     RDKit          3D

 43 44  0  0  0  0  0  0  0  0999 V2000
  150.3300  150.6470  131.2110 C   0  0  0  0  0  0  0  0  0  0  0  0
  150.1890  151.7380  132.1940 N   0  0  0  0  0  0  0  0  0  0  0  0
  149.9630  151.1670  133.5320 C   0  0  0  0  0  0  0  0  0  0  0  0
  149.0760  152.6570  131.8520 C   0  0  0  0  0  0  0  0  0  0  0  0
  149.0600  153.9750  132.6590 C   0  0  0  0  0  0  0  0  0  0  0  0
  147.6900  154.3310  133.2750 C   0  0  0  0  0  0  0  0  0  0  0  0
  147.4090  155.8130  133.2720 C   0  0  0  0  0  0  0  0  0  0  0  0
  148.4600  156.7360  133.0350 C   0  0  0  0  0  0  0  0  0  0  0  0
  148.2160  158.1190  133.0410 C   0  0  0  0  0  0  0  0  0  0  0  0
  146.9120  158.5500  133.2650 C   0  0  0  0  0  0  0  0  0  0  0  0
  146.4010  159.8260  133.3540 C   0  0  0  0  0  0  0  0  0  0  0  0
  145.0390  159.6620  133.6030 C   0  0  0  0  0  0  0  0  0  0  0  0
  144.0880  160.7870  133.7230 C   0  0  0  0  0  0  0  0  0  0  0  0
  142.7120  160.6280  133.3860 N   0  0  0  0  0  0  0  0  0  0  0  0
  144.5010  161.9160  134.1010 O   0  0  0  0  0  0  0  0  0  0  0  0
  144.7230  158.3380  133.6630 N   0  0  0  0  0  0  0  0  0  0  0  0
  143.4470  157.7550  133.9610 C   0  0  0  0  0  0  0  0  0  0  0  0
  143.0150  157.7650  135.1460 O   0  0  0  0  0  0  0  0  0  0  0  0
  142.6030  157.1640  132.8730 C   0  0  0  0  0  0  0  0  0  0  0  0
  141.7290  158.1340  132.3640 O   0  0  0  0  0  0  0  0  0  0  0  0
  145.8780  157.6720  133.4580 C   0  0  0  0  0  0  0  0  0  0  0  0
  146.0930  156.2900  133.4710 C   0  0  0  0  0  0  0  0  0  0  0  0
  150.4536  149.6905  131.7400 H   0  0  0  0  0  0  0  0  0  0  0  0
  149.4300  150.6034  130.5800 H   0  0  0  0  0  0  0  0  0  0  0  0
  151.2115  150.8336  130.5800 H   0  0  0  0  0  0  0  0  0  0  0  0
  151.0850  152.2730  132.2380 H   0  0  0  0  0  0  0  0  0  0  0  0
  150.2536  151.9012  134.2978 H   0  0  0  0  0  0  0  0  0  0  0  0
  148.8982  150.9171  133.6489 H   0  0  0  0  0  0  0  0  0  0  0  0
  150.5684  150.2561  133.6489 H   0  0  0  0  0  0  0  0  0  0  0  0
  149.1549  152.9092  130.7842 H   0  0  0  0  0  0  0  0  0  0  0  0
  148.1453  152.1266  132.1020 H   0  0  0  0  0  0  0  0  0  0  0  0
  149.7916  153.8869  133.4757 H   0  0  0  0  0  0  0  0  0  0  0  0
  149.3029  154.7797  131.9494 H   0  0  0  0  0  0  0  0  0  0  0  0
  146.9034  153.8240  132.6968 H   0  0  0  0  0  0  0  0  0  0  0  0
  147.7057  154.0015  134.3244 H   0  0  0  0  0  0  0  0  0  0  0  0
  149.4776  156.3642  132.8444 H   0  0  0  0  0  0  0  0  0  0  0  0
  149.0304  158.8392  132.8738 H   0  0  0  0  0  0  0  0  0  0  0  0
  146.9507  160.7732  133.2506 H   0  0  0  0  0  0  0  0  0  0  0  0
  142.4260  160.1810  132.4880 H   0  0  0  0  0  0  0  0  0  0  0  0
  143.2537  156.7997  132.0644 H   0  0  0  0  0  0  0  0  0  0  0  0
  142.0162  156.3294  133.2843 H   0  0  0  0  0  0  0  0  0  0  0  0
  142.2680  158.9570  132.2270 H   0  0  0  0  0  0  0  0  0  0  0  0
  145.2587  155.5914  133.6321 H   0  0  0  0  0  0  0  0  0  0  0  0
  1  2  1  0
  2  3  1  0
  2  4  1  0
  4  5  1  0
  5  6  1  0
  6  7  1  0
  7  8  2  0
  8  9  1  0
  9 10  2  0
 10 11  1  0
 11 12  2  0
 12 13  1  0
 13 14  1  0
 13 15  2  0
 12 16  1  0
 16 17  1  0
 17 18  2  0
 17 19  1  0
 19 20  1  0
 16 21  1  0
 21 22  2  0
 22  7  1  0
 21 10  1  0
  1 23  1  0
  1 24  1  0
  1 25  1  0
  2 26  1  0
  3 27  1  0
  3 28  1  0
  3 29  1  0
  4 30  1  0
  4 31  1  0
  5 32  1  0
  5 33  1  0
  6 34  1  0
  6 35  1  0
  8 36  1  0
  9 37  1  0
 11 38  1  0
 14 39  1  0
 19 40  1  0
 19 41  1  0
 20 42  1  0
 22 43  1  0
M  CHG  2   2   1  14  -1
M  END
>  <UniqueID>  (12) 
12

>  <SMILES>  (12) 
C[NH+](C)CCCc1ccc2cc(C([NH-])=O)n(C(=O)CO)c2c1

>  <Energy>  (12) 
80.9157322763239

>  <Genealogy>  (12) 
C[NH+](C)CCCc1ccc2cc(C([NH-])=O)n(C(=O)CO)c2c1 (protonated)
C[NH+](C)CCCc1ccc2cc(C([NH-])=O)n(C(=O)CO)c2c1 (3D coordinates assigned)
C[NH+](C)CCCc1ccc2cc(C([NH-])=O)n(C(=O)CO)c2c1 (optimized conformer: 80.9157322763239 kcal/mol)

>  <smiles>  (12) 
CN(C)CCCc1ccc2cc(C(N)=O)n(C(=O)CO)c2c1

>  <score_type>  (12) 
oracle

>  <origin>  (12) 
adg

>  <m_score__min__energy>  (12) 
-6

>  <m_primary>  (12) 
energy

$$$$
12:0
     RDKit          3D

 44 46  0  0  0  0  0  0  0  0999 V2000
  139.4850  157.9010  136.1320 C   0  0  0  0  0  0  0  0  0  0  0  0
  140.4330  157.7460  137.2470 N   0  0  0  0  0  0  0  0  0  0  0  0
  141.0620  156.4160  137.1730 C   0  0  0  0  0  0  0  0  0  0  0  0
  141.4510  158.8190  137.2120 C   0  0  0  0  0  0  0  0  0  0  0  0
  141.3780  159.6110  135.9020 C   0  0  0  0  0  0  0  0  0  0  0  0
  142.5260  159.3570  135.0930 O   0  0  0  0  0  0  0  0  0  0  0  0
  142.4650  158.8110  133.8050 C   0  0  0  0  0  0  0  0  0  0  0  0
  143.4330  158.9450  133.0080 O   0  0  0  0  0  0  0  0  0  0  0  0
  141.3060  158.0650  133.4040 N   0  0  0  0  0  0  0  0  0  0  0  0
  140.1760  158.5340  132.8010 C   0  0  0  0  0  0  0  0  0  0  0  0
  139.8380  159.9540  132.5710 C   0  0  0  0  0  0  0  0  0  0  0  0
  138.6820  160.3230  131.8230 N   0  0  0  0  0  0  0  0  0  0  0  0
  140.6080  160.8550  133.0000 O   0  0  0  0  0  0  0  0  0  0  0  0
  139.3160  157.4820  132.4910 C   0  0  0  0  0  0  0  0  0  0  0  0
  139.9530  156.3460  132.9360 C   0  0  0  0  0  0  0  0  0  0  0  0
  139.5580  155.0150  132.8690 C   0  0  0  0  0  0  0  0  0  0  0  0
  140.4320  154.0400  133.3790 C   0  0  0  0  0  0  0  0  0  0  0  0
  141.6780  154.4130  133.9450 C   0  0  0  0  0  0  0  0  0  0  0  0
  142.6320  153.3590  134.4430 C   0  0  1  0  0  0  0  0  0  0  0  0
  143.8220  153.9400  134.8480 F   0  0  0  0  0  0  0  0  0  0  0  0
  142.0180  152.6190  135.5870 C   0  0  0  0  0  0  0  0  0  0  0  0
  141.3490  151.4580  135.4640 N   0  0  0  0  0  0  0  0  0  0  0  0
  140.9360  151.1410  136.6810 N   0  0  0  0  0  0  0  0  0  0  0  0
  141.3660  152.1200  137.5000 C   0  0  0  0  0  0  0  0  0  0  0  0
  142.0280  153.0330  136.8310 O   0  0  0  0  0  0  0  0  0  0  0  0
  142.0520  155.7750  133.9820 C   0  0  0  0  0  0  0  0  0  0  0  0
  141.1520  156.7250  133.4840 C   0  0  0  0  0  0  0  0  0  0  0  0
  138.4734  158.0664  136.5311 H   0  0  0  0  0  0  0  0  0  0  0  0
  139.7814  158.7626  135.5158 H   0  0  0  0  0  0  0  0  0  0  0  0
  139.4916  156.9899  135.5158 H   0  0  0  0  0  0  0  0  0  0  0  0
  141.2408  156.0379  138.1904 H   0  0  0  0  0  0  0  0  0  0  0  0
  140.3955  155.7245  136.6367 H   0  0  0  0  0  0  0  0  0  0  0  0
  142.0193  156.4925  136.6367 H   0  0  0  0  0  0  0  0  0  0  0  0
  141.2791  159.5041  138.0553 H   0  0  0  0  0  0  0  0  0  0  0  0
  142.4465  158.3566  137.2840 H   0  0  0  0  0  0  0  0  0  0  0  0
  140.4744  159.3130  135.3500 H   0  0  0  0  0  0  0  0  0  0  0  0
  141.3440  160.6845  136.1397 H   0  0  0  0  0  0  0  0  0  0  0  0
  138.2170  161.2450  131.9700 H   0  0  0  0  0  0  0  0  0  0  0  0
  138.3359  157.5460  131.9957 H   0  0  0  0  0  0  0  0  0  0  0  0
  138.5897  154.7332  132.4297 H   0  0  0  0  0  0  0  0  0  0  0  0
  140.1474  152.9782  133.3389 H   0  0  0  0  0  0  0  0  0  0  0  0
  142.8403  152.6557  133.6233 H   0  0  0  0  0  0  0  0  0  0  0  0
  141.1860  152.1497  138.5848 H   0  0  0  0  0  0  0  0  0  0  0  0
  143.0258  156.0813  134.3917 H   0  0  0  0  0  0  0  0  0  0  0  0
  1  2  1  0
  2  3  1  0
  2  4  1  0
  4  5  1  0
  5  6  1  0
  6  7  1  0
  7  8  2  0
  7  9  1  0
  9 10  1  0
 10 11  1  0
 11 12  1  0
 11 13  2  0
 10 14  2  0
 14 15  1  0
 15 16  2  0
 16 17  1  0
 17 18  2  0
 18 19  1  0
 19 20  1  0
 19 21  1  0
 21 22  2  0
 22 23  1  0
 23 24  2  0
 24 25  1  0
 18 26  1  0
 26 27  2  0
 27  9  1  0
 27 15  1  0
 25 21  1  0
  1 28  1  0
  1 29  1  0
  1 30  1  0
  3 31  1  0
  3 32  1  0
  3 33  1  0
  4 34  1  0
  4 35  1  0
  5 36  1  0
  5 37  1  0
 12 38  1  0
 14 39  1  0
 16 40  1  0
 17 41  1  0
 19 42  1  6
 24 43  1  0
 26 44  1  0
M  CHG  1  12  -1
M  END
>  <UniqueID>  (13) 
13

>  <SMILES>  (13) 
CN(C)CCOC(=O)n1c(C([NH-])=O)cc2ccc([C@@H](F)c3nnco3)cc21

>  <Energy>  (13) 
115.43628097468377

>  <Genealogy>  (13) 
CN(C)CCOC(=O)n1c(C([NH-])=O)cc2ccc(C(F)c3nnco3)cc21 (protonated)
CN(C)CCOC(=O)n1c(C([NH-])=O)cc2ccc([C@@H](F)c3nnco3)cc21 (chirality)
CN(C)CCOC(=O)n1c(C([NH-])=O)cc2ccc([C@@H](F)c3nnco3)cc21 (3D coordinates assigned)
CN(C)CCOC(=O)n1c(C([NH-])=O)cc2ccc([C@@H](F)c3nnco3)cc21 (optimized conformer: 115.43628097468377 kcal/mol)

>  <smiles>  (13) 
CN(C)CCOC(=O)n1c(C(N)=O)cc2ccc(C(F)c3nnco3)cc21

>  <score_type>  (13) 
oracle

>  <origin>  (13) 
adg

>  <m_score__min__energy>  (13) 
-6.8700000000000001

>  <m_primary>  (13) 
energy

$$$$
13:0
     RDKit          3D

 36 37  0  0  0  0  0  0  0  0999 V2000
  144.3440  154.9870  136.2920 N   0  0  0  0  0  0  0  0  0  0  0  0
  144.1550  155.3320  134.9230 C   0  0  0  0  0  0  0  0  0  0  0  0
  143.2040  154.8120  134.2800 O   0  0  0  0  0  0  0  0  0  0  0  0
  145.0220  156.3300  134.2630 C   0  0  0  0  0  0  0  0  0  0  0  0
  144.5370  157.4990  133.6780 C   0  0  0  0  0  0  0  0  0  0  0  0
  145.6520  158.1880  133.2630 C   0  0  0  0  0  0  0  0  0  0  0  0
  145.7560  159.4130  132.6080 C   0  0  0  0  0  0  0  0  0  0  0  0
  147.0390  159.8740  132.2720 C   0  0  0  0  0  0  0  0  0  0  0  0
  148.1870  159.1030  132.5810 C   0  0  0  0  0  0  0  0  0  0  0  0
  149.5550  159.6190  132.2320 C   0  0  0  0  0  0  0  0  0  0  0  0
  149.5440  160.2210  130.8630 C   0  0  0  0  0  0  0  0  0  0  0  0
  149.5920  161.4710  130.7190 O   0  0  0  0  0  0  0  0  0  0  0  0
  149.4310  159.4040  129.7450 O   0  0  0  0  0  0  0  0  0  0  0  0
  148.0440  157.8690  133.2530 C   0  0  0  0  0  0  0  0  0  0  0  0
  146.7550  157.4420  133.5920 C   0  0  0  0  0  0  0  0  0  0  0  0
  146.3840  156.2960  134.2040 N   0  0  0  0  0  0  0  0  0  0  0  0
  147.2580  155.2330  134.6130 C   0  0  0  0  0  0  0  0  0  0  0  0
  148.0880  154.7500  133.7940 O   0  0  0  0  0  0  0  0  0  0  0  0
  147.2010  154.7540  135.9250 O   0  0  0  0  0  0  0  0  0  0  0  0
  148.1170  153.7860  136.4310 C   0  0  0  0  0  0  0  0  0  0  0  0
  147.4810  153.0030  137.5840 C   0  0  2  0  0  0  0  0  0  0  0  0
  146.0820  153.0840  137.5160 O   0  0  0  0  0  0  0  0  0  0  0  0
  147.9570  153.5330  138.9050 C   0  0  0  0  0  0  0  0  0  0  0  0
  149.1630  153.4120  139.2460 O   0  0  0  0  0  0  0  0  0  0  0  0
  147.0520  154.1150  139.7840 O   0  0  0  0  0  0  0  0  0  0  0  0
  145.3000  154.9600  136.7130 H   0  0  0  0  0  0  0  0  0  0  0  0
  143.4858  157.8049  133.5712 H   0  0  0  0  0  0  0  0  0  0  0  0
  144.8600  160.0015  132.3614 H   0  0  0  0  0  0  0  0  0  0  0  0
  147.1540  160.8429  131.7641 H   0  0  0  0  0  0  0  0  0  0  0  0
  149.8525  160.3846  132.9636 H   0  0  0  0  0  0  0  0  0  0  0  0
  150.2705  158.7837  132.2520 H   0  0  0  0  0  0  0  0  0  0  0  0
  148.9241  157.2586  133.5038 H   0  0  0  0  0  0  0  0  0  0  0  0
  148.3893  153.0883  135.6254 H   0  0  0  0  0  0  0  0  0  0  0  0
  149.0146  154.3026  136.8018 H   0  0  0  0  0  0  0  0  0  0  0  0
  147.7837  151.9493  137.4936 H   0  0  0  0  0  0  0  0  0  0  0  0
  145.8500  154.0490  137.5040 H   0  0  0  0  0  0  0  0  0  0  0  0
  1  2  1  0
  2  3  2  0
  2  4  1  0
  4  5  2  0
  5  6  1  0
  6  7  2  0
  7  8  1  0
  8  9  2  0
  9 10  1  0
 10 11  1  0
 11 12  2  0
 11 13  1  0
  9 14  1  0
 14 15  2  0
 15 16  1  0
 16 17  1  0
 17 18  2  0
 17 19  1  0
 19 20  1  0
 20 21  1  0
 21 22  1  0
 21 23  1  0
 23 24  2  0
 23 25  1  0
 16  4  1  0
 15  6  1  0
  1 26  1  0
  5 27  1  0
  7 28  1  0
  8 29  1  0
 10 30  1  0
 10 31  1  0
 14 32  1  0
 20 33  1  0
 20 34  1  0
 21 35  1  6
 22 36  1  0
M  CHG  3   1  -1  13  -1  25  -1
M  END
>  <UniqueID>  (14) 
14

>  <SMILES>  (14) 
[NH-]C(=O)c1cc2ccc(CC(=O)[O-])cc2n1C(=O)OC[C@H](O)C(=O)[O-]

>  <Energy>  (14) 
68.90315164611052

>  <Genealogy>  (14) 
[NH-]C(=O)c1cc2ccc(CC(=O)[O-])cc2n1C(=O)OCC(O)C(=O)[O-] (protonated)
[NH-]C(=O)c1cc2ccc(CC(=O)[O-])cc2n1C(=O)OC[C@H](O)C(=O)[O-] (chirality)
[NH-]C(=O)c1cc2ccc(CC(=O)[O-])cc2n1C(=O)OC[C@H](O)C(=O)[O-] (3D coordinates assigned)
[NH-]C(=O)c1cc2ccc(CC(=O)[O-])cc2n1C(=O)OC[C@H](O)C(=O)[O-] (optimized conformer: 68.90315164611052 kcal/mol)

>  <smiles>  (14) 
NC(=O)c1cc2ccc(CC(=O)O)cc2n1C(=O)OCC(O)C(=O)O

>  <score_type>  (14) 
oracle

>  <origin>  (14) 
adg

>  <m_score__min__energy>  (14) 
-6.4199999999999999

>  <m_primary>  (14) 
energy

$$$$
14:0
     RDKit          3D

 58 59  0  0  0  0  0  0  0  0999 V2000
  144.3360  154.3960  131.3560 C   0  0  0  0  0  0  0  0  0  0  0  0
  143.9060  154.4330  132.8320 C   0  0  2  0  0  0  0  0  0  0  0  0
  145.0190  154.0970  133.6640 O   0  0  0  0  0  0  0  0  0  0  0  0
  145.7960  155.0360  134.3530 C   0  0  0  0  0  0  0  0  0  0  0  0
  145.6560  155.1890  135.5980 O   0  0  0  0  0  0  0  0  0  0  0  0
  146.7720  155.8120  133.6370 N   0  0  0  0  0  0  0  0  0  0  0  0
  147.9810  155.3900  133.1720 C   0  0  0  0  0  0  0  0  0  0  0  0
  148.4590  153.9900  133.1670 C   0  0  0  0  0  0  0  0  0  0  0  0
  147.6690  152.9480  133.7440 N   0  0  0  0  0  0  0  0  0  0  0  0
  149.5860  153.7070  132.6800 O   0  0  0  0  0  0  0  0  0  0  0  0
  148.6890  156.4520  132.6130 C   0  0  0  0  0  0  0  0  0  0  0  0
  147.8690  157.5480  132.7490 C   0  0  0  0  0  0  0  0  0  0  0  0
  148.0810  158.8730  132.3820 C   0  0  0  0  0  0  0  0  0  0  0  0
  147.0740  159.8070  132.6760 C   0  0  0  0  0  0  0  0  0  0  0  0
  145.8810  159.4020  133.3240 C   0  0  0  0  0  0  0  0  0  0  0  0
  144.8300  160.4210  133.6750 C   0  0  0  0  0  0  0  0  0  0  0  0
  143.6560  159.7530  134.3990 C   0  0  0  0  0  0  0  0  0  0  0  0
  142.6440  159.1860  133.3960 C   0  0  0  0  0  0  0  0  0  0  0  0
  142.4120  157.6940  133.6260 C   0  0  0  0  0  0  0  0  0  0  0  0
  141.5770  157.1980  132.6080 O   0  0  0  0  0  0  0  0  0  0  0  0
  140.2030  156.5120  133.3240 S   0  0  0  0  0  0  0  0  0  0  0  0
  139.1310  157.8260  133.8600 C   0  0  0  0  0  0  0  0  0  0  0  0
  140.5920  155.6850  134.5180 O   0  0  0  0  0  0  0  0  0  0  0  0
  139.4650  155.6570  132.3320 O   0  0  0  0  0  0  0  0  0  0  0  0
  145.7060  158.0500  133.6940 C   0  0  0  0  0  0  0  0  0  0  0  0
  146.7180  157.1370  133.3710 C   0  0  0  0  0  0  0  0  0  0  0  0
  142.7100  153.4870  133.1590 C   0  0  0  0  0  0  0  0  0  0  0  0
  142.9560  152.0420  132.6590 C   0  0  0  0  0  0  0  0  0  0  0  0
  142.5120  153.4410  134.6840 C   0  0  0  0  0  0  0  0  0  0  0  0
  141.5200  154.0040  132.6050 O   0  0  0  0  0  0  0  0  0  0  0  0
  145.4303  154.3018  131.2951 H   0  0  0  0  0  0  0  0  0  0  0  0
  143.8656  153.5350  130.8585 H   0  0  0  0  0  0  0  0  0  0  0  0
  144.0197  155.3247  130.8585 H   0  0  0  0  0  0  0  0  0  0  0  0
  143.5610  155.4583  133.0312 H   0  0  0  0  0  0  0  0  0  0  0  0
  146.7140  153.1370  134.1170 H   0  0  0  0  0  0  0  0  0  0  0  0
  148.0290  151.9680  133.7620 H   0  0  0  0  0  0  0  0  0  0  0  0
  149.6906  156.4206  132.1594 H   0  0  0  0  0  0  0  0  0  0  0  0
  149.0088  159.1798  131.8770 H   0  0  0  0  0  0  0  0  0  0  0  0
  147.2130  160.8629  132.4005 H   0  0  0  0  0  0  0  0  0  0  0  0
  145.2719  161.1858  134.3307 H   0  0  0  0  0  0  0  0  0  0  0  0
  144.4598  160.8841  132.7485 H   0  0  0  0  0  0  0  0  0  0  0  0
  144.0387  158.9342  135.0260 H   0  0  0  0  0  0  0  0  0  0  0  0
  143.1504  160.5082  135.0187 H   0  0  0  0  0  0  0  0  0  0  0  0
  141.6887  159.7191  133.5105 H   0  0  0  0  0  0  0  0  0  0  0  0
  143.0464  159.3227  132.3814 H   0  0  0  0  0  0  0  0  0  0  0  0
  143.3753  157.1633  133.6042 H   0  0  0  0  0  0  0  0  0  0  0  0
  141.9363  157.5385  134.6056 H   0  0  0  0  0  0  0  0  0  0  0  0
  139.1076  157.8547  134.9594 H   0  0  0  0  0  0  0  0  0  0  0  0
  139.5071  158.7858  133.4761 H   0  0  0  0  0  0  0  0  0  0  0  0
  138.1153  157.6502  133.4761 H   0  0  0  0  0  0  0  0  0  0  0  0
  144.7983  157.7226  134.2222 H   0  0  0  0  0  0  0  0  0  0  0  0
  143.0704  151.3698  133.5222 H   0  0  0  0  0  0  0  0  0  0  0  0
  142.1007  151.7142  132.0498 H   0  0  0  0  0  0  0  0  0  0  0  0
  143.8715  152.0157  132.0498 H   0  0  0  0  0  0  0  0  0  0  0  0
  143.4661  153.6627  135.1845 H   0  0  0  0  0  0  0  0  0  0  0  0
  141.7609  154.1886  134.9789 H   0  0  0  0  0  0  0  0  0  0  0  0
  142.1674  152.4389  134.9789 H   0  0  0  0  0  0  0  0  0  0  0  0
  141.5710  154.9950  132.6090 H   0  0  0  0  0  0  0  0  0  0  0  0
  1  2  1  0
  2  3  1  0
  3  4  1  0
  4  5  2  0
  4  6  1  0
  6  7  1  0
  7  8  1  0
  8  9  1  0
  8 10  2  0
  7 11  2  0
 11 12  1  0
 12 13  2  0
 13 14  1  0
 14 15  2  0
 15 16  1  0
 16 17  1  0
 17 18  1  0
 18 19  1  0
 19 20  1  0
 20 21  1  0
 21 22  1  0
 21 23  2  0
 21 24  2  0
 15 25  1  0
 25 26  2  0
  2 27  1  0
 27 28  1  0
 27 29  1  0
 27 30  1  0
 26  6  1  0
 26 12  1  0
  1 31  1  0
  1 32  1  0
  1 33  1  0
  2 34  1  1
  9 35  1  0
  9 36  1  0
 11 37  1  0
 13 38  1  0
 14 39  1  0
 16 40  1  0
 16 41  1  0
 17 42  1  0
 17 43  1  0
 18 44  1  0
 18 45  1  0
 19 46  1  0
 19 47  1  0
 22 48  1  0
 22 49  1  0
 22 50  1  0
 25 51  1  0
 28 52  1  0
 28 53  1  0
 28 54  1  0
 29 55  1  0
 29 56  1  0
 29 57  1  0
 30 58  1  0
M  END
>  <UniqueID>  (15) 
15

>  <SMILES>  (15) 
C[C@H](OC(=O)n1c(C(N)=O)cc2ccc(CCCCOS(C)(=O)=O)cc21)C(C)(C)O

>  <Energy>  (15) 
81.0141095390708

>  <Genealogy>  (15) 
C[C@H](OC(=O)n1c(C(N)=O)cc2ccc(CCCCOS(C)(=O)=O)cc21)C(C)(C)O (chirality)
C[C@H](OC(=O)n1c(C(N)=O)cc2ccc(CCCCOS(C)(=O)=O)cc21)C(C)(C)O (3D coordinates assigned)
C[C@H](OC(=O)n1c(C(N)=O)cc2ccc(CCCCOS(C)(=O)=O)cc21)C(C)(C)O (optimized conformer: 81.0141095390708 kcal/mol)

>  <smiles>  (15) 
CC(OC(=O)n1c(C(N)=O)cc2ccc(CCCCOS(C)(=O)=O)cc21)C(C)(C)O

>  <score_type>  (15) 
oracle

>  <origin>  (15) 
adg

>  <m_score__min__energy>  (15) 
-8.5700000000000003

>  <m_primary>  (15) 
energy

$$$$
15:0
     RDKit          3D

 34 35  0  0  0  0  0  0  0  0999 V2000
  149.5970  151.7750  131.5780 C   0  0  0  0  0  0  0  0  0  0  0  0
  149.2170  153.0820  131.9450 O   0  0  0  0  0  0  0  0  0  0  0  0
  148.8060  153.1160  133.2990 C   0  0  0  0  0  0  0  0  0  0  0  0
  147.6680  154.1280  133.4820 C   0  0  0  0  0  0  0  0  0  0  0  0
  147.4450  154.8930  132.2480 N   0  0  0  0  0  0  0  0  0  0  0  0
  147.4820  156.3060  132.5300 C   0  0  0  0  0  0  0  0  0  0  0  0
  148.7190  157.0010  132.5320 C   0  0  0  0  0  0  0  0  0  0  0  0
  148.7740  158.3680  132.8480 C   0  0  0  0  0  0  0  0  0  0  0  0
  147.5810  159.0150  133.1580 C   0  0  0  0  0  0  0  0  0  0  0  0
  147.3530  160.3190  133.5310 C   0  0  0  0  0  0  0  0  0  0  0  0
  145.9800  160.4100  133.7380 C   0  0  0  0  0  0  0  0  0  0  0  0
  145.2920  161.6750  134.0730 C   0  0  0  0  0  0  0  0  0  0  0  0
  145.9570  162.7040  134.7990 N   0  0  0  0  0  0  0  0  0  0  0  0
  144.0820  161.8280  133.7560 O   0  0  0  0  0  0  0  0  0  0  0  0
  145.3800  159.2050  133.5130 N   0  0  0  0  0  0  0  0  0  0  0  0
  143.9990  158.8580  133.7010 C   0  0  0  0  0  0  0  0  0  0  0  0
  143.4130  159.1400  134.7780 O   0  0  0  0  0  0  0  0  0  0  0  0
  143.3040  158.1830  132.7050 O   0  0  0  0  0  0  0  0  0  0  0  0
  146.3740  158.3630  133.1550 C   0  0  0  0  0  0  0  0  0  0  0  0
  146.2930  156.9960  132.8620 C   0  0  0  0  0  0  0  0  0  0  0  0
  149.7712  151.1758  132.4839 H   0  0  0  0  0  0  0  0  0  0  0  0
  148.7957  151.3139  130.9819 H   0  0  0  0  0  0  0  0  0  0  0  0
  150.5206  151.8154  130.9819 H   0  0  0  0  0  0  0  0  0  0  0  0
  148.4553  152.1170  133.5974 H   0  0  0  0  0  0  0  0  0  0  0  0
  149.6585  153.4175  133.9254 H   0  0  0  0  0  0  0  0  0  0  0  0
  146.7453  153.5893  133.7438 H   0  0  0  0  0  0  0  0  0  0  0  0
  147.9447  154.8275  134.2846 H   0  0  0  0  0  0  0  0  0  0  0  0
  148.1830  154.6550  131.5440 H   0  0  0  0  0  0  0  0  0  0  0  0
  146.5140  154.6410  131.8370 H   0  0  0  0  0  0  0  0  0  0  0  0
  149.6455  156.4628  132.2831 H   0  0  0  0  0  0  0  0  0  0  0  0
  149.7306  158.9111  132.8505 H   0  0  0  0  0  0  0  0  0  0  0  0
  148.0983  161.1204  133.6422 H   0  0  0  0  0  0  0  0  0  0  0  0
  146.9910  162.8330  134.7240 H   0  0  0  0  0  0  0  0  0  0  0  0
  145.3268  156.4710  132.8895 H   0  0  0  0  0  0  0  0  0  0  0  0
  1  2  1  0
  2  3  1  0
  3  4  1  0
  4  5  1  0
  5  6  1  0
  6  7  2  0
  7  8  1  0
  8  9  2  0
  9 10  1  0
 10 11  2  0
 11 12  1  0
 12 13  1  0
 12 14  2  0
 11 15  1  0
 15 16  1  0
 16 17  2  0
 16 18  1  0
 15 19  1  0
 19 20  2  0
 20  6  1  0
 19  9  1  0
  1 21  1  0
  1 22  1  0
  1 23  1  0
  3 24  1  0
  3 25  1  0
  4 26  1  0
  4 27  1  0
  5 28  1  0
  5 29  1  0
  7 30  1  0
  8 31  1  0
 10 32  1  0
 13 33  1  0
 20 34  1  0
M  CHG  3   5   1  13  -1  18  -1
M  END
>  <UniqueID>  (16) 
16

>  <SMILES>  (16) 
COCC[NH2+]c1ccc2cc(C([NH-])=O)n(C(=O)[O-])c2c1

>  <Energy>  (16) 
74.59966384431634

>  <Genealogy>  (16) 
COCC[NH2+]c1ccc2cc(C([NH-])=O)n(C(=O)[O-])c2c1 (protonated)
COCC[NH2+]c1ccc2cc(C([NH-])=O)n(C(=O)[O-])c2c1 (3D coordinates assigned)
COCC[NH2+]c1ccc2cc(C([NH-])=O)n(C(=O)[O-])c2c1 (optimized conformer: 74.59966384431634 kcal/mol)

>  <smiles>  (16) 
COCCNc1ccc2cc(C(N)=O)n(C(=O)O)c2c1

>  <score_type>  (16) 
oracle

>  <origin>  (16) 
adg

>  <m_score__min__energy>  (16) 
-5.8099999999999996

>  <m_primary>  (16) 
energy

$$$$
16:0
     RDKit          3D

 37 38  0  0  0  0  0  0  0  0999 V2000
  149.0720  158.7240  131.4900 C   0  0  0  0  0  0  0  0  0  0  0  0
  148.5260  158.6180  132.8780 C   0  0  0  0  0  0  0  0  0  0  0  0
  149.2210  159.0250  133.8470 O   0  0  0  0  0  0  0  0  0  0  0  0
  147.1930  158.1370  133.1090 N   0  0  0  0  0  0  0  0  0  0  0  0
  146.0890  158.8520  133.4660 C   0  0  0  0  0  0  0  0  0  0  0  0
  145.9970  160.3250  133.5400 C   0  0  0  0  0  0  0  0  0  0  0  0
  144.7350  160.9840  133.4810 N   0  0  0  0  0  0  0  0  0  0  0  0
  147.0440  161.0090  133.6960 O   0  0  0  0  0  0  0  0  0  0  0  0
  145.0060  158.0010  133.6800 C   0  0  0  0  0  0  0  0  0  0  0  0
  145.4830  156.7340  133.4300 C   0  0  0  0  0  0  0  0  0  0  0  0
  144.8380  155.5030  133.4930 C   0  0  0  0  0  0  0  0  0  0  0  0
  145.5860  154.3500  133.1990 C   0  0  0  0  0  0  0  0  0  0  0  0
  146.9630  154.4440  132.8550 C   0  0  0  0  0  0  0  0  0  0  0  0
  147.7480  153.2750  132.5580 N   0  0  0  0  0  0  0  0  0  0  0  0
  149.0440  152.9970  133.1860 C   0  0  0  0  0  0  0  0  0  0  0  0
  149.4500  151.5190  133.0300 C   0  0  2  0  0  0  0  0  0  0  0  0
  148.3450  150.7780  132.5800 O   0  0  0  0  0  0  0  0  0  0  0  0
  149.9320  150.9310  134.3650 C   0  0  0  0  0  0  0  0  0  0  0  0
  149.2170  149.7630  134.6690 O   0  0  0  0  0  0  0  0  0  0  0  0
  147.5780  155.7160  132.8010 C   0  0  0  0  0  0  0  0  0  0  0  0
  146.8040  156.8450  133.0860 C   0  0  0  0  0  0  0  0  0  0  0  0
  150.1509  158.9335  131.5354 H   0  0  0  0  0  0  0  0  0  0  0  0
  148.9046  157.7766  130.9568 H   0  0  0  0  0  0  0  0  0  0  0  0
  148.5622  159.5399  130.9568 H   0  0  0  0  0  0  0  0  0  0  0  0
  144.6270  161.8950  132.9830 H   0  0  0  0  0  0  0  0  0  0  0  0
  143.9869  158.2820  133.9840 H   0  0  0  0  0  0  0  0  0  0  0  0
  143.7743  155.4341  133.7648 H   0  0  0  0  0  0  0  0  0  0  0  0
  145.1009  153.3634  133.2354 H   0  0  0  0  0  0  0  0  0  0  0  0
  147.3620  152.5890  131.8700 H   0  0  0  0  0  0  0  0  0  0  0  0
  149.8111  153.6287  132.7142 H   0  0  0  0  0  0  0  0  0  0  0  0
  148.9574  153.2162  134.2604 H   0  0  0  0  0  0  0  0  0  0  0  0
  150.2738  151.4642  132.3032 H   0  0  0  0  0  0  0  0  0  0  0  0
  147.7420  150.6570  133.3600 H   0  0  0  0  0  0  0  0  0  0  0  0
  151.0031  150.6918  134.2905 H   0  0  0  0  0  0  0  0  0  0  0  0
  149.7656  151.6702  135.1624 H   0  0  0  0  0  0  0  0  0  0  0  0
  148.2530  149.9870  134.5860 H   0  0  0  0  0  0  0  0  0  0  0  0
  148.6421  155.8152  132.5405 H   0  0  0  0  0  0  0  0  0  0  0  0
  1  2  1  0
  2  3  2  0
  2  4  1  0
  4  5  1  0
  5  6  1  0
  6  7  1  0
  6  8  2  0
  5  9  2  0
  9 10  1  0
 10 11  2  0
 11 12  1  0
 12 13  2  0
 13 14  1  0
 14 15  1  0
 15 16  1  0
 16 17  1  0
 16 18  1  0
 18 19  1  0
 13 20  1  0
 20 21  2  0
 21  4  1  0
 21 10  1  0
  1 22  1  0
  1 23  1  0
  1 24  1  0
  7 25  1  0
  9 26  1  0
 11 27  1  0
 12 28  1  0
 14 29  1  0
 15 30  1  0
 15 31  1  0
 16 32  1  6
 17 33  1  0
 18 34  1  0
 18 35  1  0
 19 36  1  0
 20 37  1  0
M  CHG  1   7  -1
M  END
>  <UniqueID>  (17) 
17

>  <SMILES>  (17) 
CC(=O)n1c(C([NH-])=O)cc2ccc(NC[C@H](O)CO)cc21

>  <Energy>  (17) 
72.77778426035732

>  <Genealogy>  (17) 
CC(=O)n1c(C([NH-])=O)cc2ccc(NCC(O)CO)cc21 (protonated)
CC(=O)n1c(C([NH-])=O)cc2ccc(NC[C@H](O)CO)cc21 (chirality)
CC(=O)n1c(C([NH-])=O)cc2ccc(NC[C@H](O)CO)cc21 (3D coordinates assigned)
CC(=O)n1c(C([NH-])=O)cc2ccc(NC[C@H](O)CO)cc21 (optimized conformer: 72.77778426035732 kcal/mol)

>  <smiles>  (17) 
CC(=O)n1c(C(N)=O)cc2ccc(NCC(O)CO)cc21

>  <score_type>  (17) 
oracle

>  <origin>  (17) 
adg

>  <m_score__min__energy>  (17) 
-6.4400000000000004

>  <m_primary>  (17) 
energy

$$$$
17:0
     RDKit          3D

 47 48  0  0  0  0  0  0  0  0999 V2000
  138.7310  159.3360  131.4330 C   0  0  0  0  0  0  0  0  0  0  0  0
  139.5460  158.2140  131.7390 O   0  0  0  0  0  0  0  0  0  0  0  0
  139.4080  157.4830  132.9240 C   0  0  0  0  0  0  0  0  0  0  0  0
  139.6610  156.2470  132.9530 O   0  0  0  0  0  0  0  0  0  0  0  0
  139.0220  158.1910  134.1860 C   0  0  0  0  0  0  0  0  0  0  0  0
  140.1200  158.0800  135.2520 C   0  0  0  0  0  0  0  0  0  0  0  0
  141.4410  158.6040  134.7480 C   0  0  0  0  0  0  0  0  0  0  0  0
  141.5550  159.9480  134.3140 C   0  0  0  0  0  0  0  0  0  0  0  0
  142.7640  160.4260  133.7840 C   0  0  0  0  0  0  0  0  0  0  0  0
  143.8340  159.5410  133.6940 C   0  0  0  0  0  0  0  0  0  0  0  0
  145.0870  159.7250  133.1560 C   0  0  0  0  0  0  0  0  0  0  0  0
  145.7220  158.4930  133.2750 C   0  0  0  0  0  0  0  0  0  0  0  0
  147.1140  158.2510  132.8480 C   0  0  0  0  0  0  0  0  0  0  0  0
  147.4310  157.2260  131.9030 N   0  0  0  0  0  0  0  0  0  0  0  0
  148.0450  158.9300  133.3570 O   0  0  0  0  0  0  0  0  0  0  0  0
  144.8950  157.5780  133.8570 N   0  0  0  0  0  0  0  0  0  0  0  0
  145.1210  156.1640  133.9830 C   0  0  0  0  0  0  0  0  0  0  0  0
  145.1230  155.6290  135.1240 O   0  0  0  0  0  0  0  0  0  0  0  0
  145.3430  155.3970  132.8290 O   0  0  0  0  0  0  0  0  0  0  0  0
  144.4930  154.3630  132.3160 C   0  0  0  0  0  0  0  0  0  0  0  0
  143.1060  154.4030  132.9900 C   0  0  0  0  0  0  0  0  0  0  0  0
  145.1650  153.0230  132.6500 C   0  0  0  0  0  0  0  0  0  0  0  0
  144.3590  154.4930  130.7860 C   0  0  0  0  0  0  0  0  0  0  0  0
  143.7440  158.2390  134.1130 C   0  0  0  0  0  0  0  0  0  0  0  0
  142.5480  157.7340  134.6380 C   0  0  0  0  0  0  0  0  0  0  0  0
  138.3892  159.8065  132.3667 H   0  0  0  0  0  0  0  0  0  0  0  0
  139.3129  160.0631  130.8476 H   0  0  0  0  0  0  0  0  0  0  0  0
  137.8596  159.0074  130.8476 H   0  0  0  0  0  0  0  0  0  0  0  0
  138.8486  159.2537  133.9609 H   0  0  0  0  0  0  0  0  0  0  0  0
  138.1095  157.7201  134.5804 H   0  0  0  0  0  0  0  0  0  0  0  0
  139.8192  158.6620  136.1356 H   0  0  0  0  0  0  0  0  0  0  0  0
  140.2465  157.0170  135.5048 H   0  0  0  0  0  0  0  0  0  0  0  0
  140.6894  160.6222  134.3929 H   0  0  0  0  0  0  0  0  0  0  0  0
  142.8625  161.4693  133.4497 H   0  0  0  0  0  0  0  0  0  0  0  0
  145.4987  160.6491  132.7240 H   0  0  0  0  0  0  0  0  0  0  0  0
  148.4150  157.0990  131.5800 H   0  0  0  0  0  0  0  0  0  0  0  0
  146.7150  156.5320  131.5950 H   0  0  0  0  0  0  0  0  0  0  0  0
  143.2293  154.3994  134.0831 H   0  0  0  0  0  0  0  0  0  0  0  0
  142.5757  155.3168  132.6838 H   0  0  0  0  0  0  0  0  0  0  0  0
  142.5240  153.5213  132.6838 H   0  0  0  0  0  0  0  0  0  0  0  0
  145.2243  152.9047  133.7420 H   0  0  0  0  0  0  0  0  0  0  0  0
  144.5731  152.1997  132.2236 H   0  0  0  0  0  0  0  0  0  0  0  0
  146.1788  153.0049  132.2236 H   0  0  0  0  0  0  0  0  0  0  0  0
  143.5882  155.2407  130.5476 H   0  0  0  0  0  0  0  0  0  0  0  0
  145.3219  154.8102  130.3592 H   0  0  0  0  0  0  0  0  0  0  0  0
  144.0712  153.5209  130.3592 H   0  0  0  0  0  0  0  0  0  0  0  0
  142.4725  156.6841  134.9573 H   0  0  0  0  0  0  0  0  0  0  0  0
  1  2  1  0
  2  3  1  0
  3  4  2  0
  3  5  1  0
  5  6  1  0
  6  7  1  0
  7  8  2  0
  8  9  1  0
  9 10  2  0
 10 11  1  0
 11 12  2  0
 12 13  1  0
 13 14  1  0
 13 15  2  0
 12 16  1  0
 16 17  1  0
 17 18  2  0
 17 19  1  0
 19 20  1  0
 20 21  1  0
 20 22  1  0
 20 23  1  0
 16 24  1  0
 24 25  2  0
 25  7  1  0
 24 10  1  0
  1 26  1  0
  1 27  1  0
  1 28  1  0
  5 29  1  0
  5 30  1  0
  6 31  1  0
  6 32  1  0
  8 33  1  0
  9 34  1  0
 11 35  1  0
 14 36  1  0
 14 37  1  0
 21 38  1  0
 21 39  1  0
 21 40  1  0
 22 41  1  0
 22 42  1  0
 22 43  1  0
 23 44  1  0
 23 45  1  0
 23 46  1  0
 25 47  1  0
M  END
>  <UniqueID>  (18) 
18

>  <SMILES>  (18) 
COC(=O)CCc1ccc2cc(C(N)=O)n(C(=O)OC(C)(C)C)c2c1

>  <Energy>  (18) 
73.20660327000935

>  <Genealogy>  (18) 
COC(=O)CCc1ccc2cc(C(N)=O)n(C(=O)OC(C)(C)C)c2c1 (3D coordinates assigned)
COC(=O)CCc1ccc2cc(C(N)=O)n(C(=O)OC(C)(C)C)c2c1 (optimized conformer: 73.20660327000935 kcal/mol)

>  <smiles>  (18) 
COC(=O)CCc1ccc2cc(C(N)=O)n(C(=O)OC(C)(C)C)c2c1

>  <score_type>  (18) 
oracle

>  <origin>  (18) 
adg

>  <m_score__min__energy>  (18) 
-7.6200000000000001

>  <m_primary>  (18) 
energy

$$$$
18:0
     RDKit          3D

 27 29  0  0  0  0  0  0  0  0999 V2000
  147.7570  152.3690  133.3530 N   0  0  0  0  0  0  0  0  0  0  0  0
  148.6440  153.4290  132.9910 C   0  0  0  0  0  0  0  0  0  0  0  0
  149.8470  153.1630  132.7250 O   0  0  0  0  0  0  0  0  0  0  0  0
  148.1940  154.8340  132.9890 C   0  0  0  0  0  0  0  0  0  0  0  0
  149.0090  155.8970  132.6110 C   0  0  0  0  0  0  0  0  0  0  0  0
  148.2490  157.0260  132.8110 C   0  0  0  0  0  0  0  0  0  0  0  0
  148.5600  158.3630  132.5850 C   0  0  0  0  0  0  0  0  0  0  0  0
  147.5690  159.3230  132.8440 C   0  0  0  0  0  0  0  0  0  0  0  0
  146.2880  158.9360  133.3120 C   0  0  0  0  0  0  0  0  0  0  0  0
  145.2480  159.9550  133.5680 C   0  0  0  0  0  0  0  0  0  0  0  0
  145.5130  161.2010  134.0160 N   0  0  0  0  0  0  0  0  0  0  0  0
  144.3550  161.7790  134.1120 O   0  0  0  0  0  0  0  0  0  0  0  0
  143.4250  160.9370  133.7430 C   0  0  0  0  0  0  0  0  0  0  0  0
  142.1970  161.2120  133.7290 O   0  0  0  0  0  0  0  0  0  0  0  0
  143.9260  159.7440  133.3800 N   0  0  0  0  0  0  0  0  0  0  0  0
  146.0100  157.5650  133.5270 C   0  0  0  0  0  0  0  0  0  0  0  0
  147.0230  156.6300  133.2810 C   0  0  0  0  0  0  0  0  0  0  0  0
  146.9720  155.2820  133.3930 N   0  0  0  0  0  0  0  0  0  0  0  0
  145.8250  154.4870  133.7390 C   0  0  0  0  0  0  0  0  0  0  0  0
  144.9120  154.2810  132.8970 O   0  0  0  0  0  0  0  0  0  0  0  0
  145.7150  153.9310  135.0070 O   0  0  0  0  0  0  0  0  0  0  0  0
  146.8070  152.5690  133.7370 H   0  0  0  0  0  0  0  0  0  0  0  0
  148.0820  151.3780  133.3150 H   0  0  0  0  0  0  0  0  0  0  0  0
  150.0407  155.8454  132.2330 H   0  0  0  0  0  0  0  0  0  0  0  0
  149.5525  158.6590  132.2145 H   0  0  0  0  0  0  0  0  0  0  0  0
  147.7891  160.3885  132.6818 H   0  0  0  0  0  0  0  0  0  0  0  0
  145.0197  157.2410  133.8797 H   0  0  0  0  0  0  0  0  0  0  0  0
  1  2  1  0
  2  3  2  0
  2  4  1  0
  4  5  2  0
  5  6  1  0
  6  7  2  0
  7  8  1  0
  8  9  2  0
  9 10  1  0
 10 11  2  0
 11 12  1  0
 12 13  1  0
 13 14  2  0
 13 15  1  0
  9 16  1  0
 16 17  2  0
 17 18  1  0
 18 19  1  0
 19 20  2  0
 19 21  1  0
 18  4  1  0
 17  6  1  0
 15 10  1  0
  1 22  1  0
  1 23  1  0
  5 24  1  0
  7 25  1  0
  8 26  1  0
 16 27  1  0
M  CHG  2  15  -1  21  -1
M  END
>  <UniqueID>  (19) 
19

>  <SMILES>  (19) 
NC(=O)c1cc2ccc(-c3noc(=O)[n-]3)cc2n1C(=O)[O-]

>  <Energy>  (19) 
104.48821515042103

>  <Genealogy>  (19) 
NC(=O)c1cc2ccc(-c3noc(=O)[n-]3)cc2n1C(=O)[O-] (protonated)
NC(=O)c1cc2ccc(-c3noc(=O)[n-]3)cc2n1C(=O)[O-] (3D coordinates assigned)
NC(=O)c1cc2ccc(-c3noc(=O)[n-]3)cc2n1C(=O)[O-] (optimized conformer: 104.48821515042103 kcal/mol)

>  <smiles>  (19) 
NC(=O)c1cc2ccc(-c3noc(=O)[nH]3)cc2n1C(=O)O

>  <score_type>  (19) 
oracle

>  <origin>  (19) 
adg

>  <m_score__min__energy>  (19) 
-6.5800000000000001

>  <m_primary>  (19) 
energy

$$$$
19:0
     RDKit          3D

 35 37  0  0  0  0  0  0  0  0999 V2000
  147.3450  155.4890  131.9920 N   0  0  0  0  0  0  0  0  0  0  0  0
  146.4460  155.8100  133.0540 C   0  0  0  0  0  0  0  0  0  0  0  0
  146.1380  154.9190  133.8910 O   0  0  0  0  0  0  0  0  0  0  0  0
  145.9110  157.1770  133.2240 C   0  0  0  0  0  0  0  0  0  0  0  0
  144.5520  157.4820  133.1800 C   0  0  0  0  0  0  0  0  0  0  0  0
  144.4740  158.8310  133.4410 C   0  0  0  0  0  0  0  0  0  0  0  0
  143.3640  159.6690  133.5130 C   0  0  0  0  0  0  0  0  0  0  0  0
  143.5830  161.0320  133.7710 C   0  0  0  0  0  0  0  0  0  0  0  0
  144.8980  161.5330  133.9450 C   0  0  0  0  0  0  0  0  0  0  0  0
  145.1300  162.9950  134.2050 C   0  0  0  0  0  0  0  0  0  0  0  0
  145.4380  163.1880  135.5390 F   0  0  0  0  0  0  0  0  0  0  0  0
  143.9880  163.7100  133.8920 F   0  0  0  0  0  0  0  0  0  0  0  0
  146.0010  160.6530  133.8620 C   0  0  0  0  0  0  0  0  0  0  0  0
  145.7510  159.2980  133.6200 C   0  0  0  0  0  0  0  0  0  0  0  0
  146.6450  158.2970  133.4810 N   0  0  0  0  0  0  0  0  0  0  0  0
  148.0750  158.4280  133.5100 C   0  0  0  0  0  0  0  0  0  0  0  0
  148.6850  158.2810  134.6020 O   0  0  0  0  0  0  0  0  0  0  0  0
  148.8220  158.7820  132.2800 C   0  0  0  0  0  0  0  0  0  0  0  0
  149.1930  157.8610  131.5070 O   0  0  0  0  0  0  0  0  0  0  0  0
  149.1350  160.1360  131.9290 N   0  0  0  0  0  0  0  0  0  0  0  0
  148.6780  160.8110  130.7210 C   0  0  0  0  0  0  0  0  0  0  0  0
  149.5820  161.9590  130.3170 C   0  0  0  0  0  0  0  0  0  0  0  0
  149.6160  160.6520  129.5390 C   0  0  0  0  0  0  0  0  0  0  0  0
  147.6660  154.5050  131.8590 H   0  0  0  0  0  0  0  0  0  0  0  0
  147.7670  156.2340  131.3950 H   0  0  0  0  0  0  0  0  0  0  0  0
  143.7193  156.7918  132.9794 H   0  0  0  0  0  0  0  0  0  0  0  0
  142.3466  159.2753  133.3721 H   0  0  0  0  0  0  0  0  0  0  0  0
  142.7257  161.7179  133.8388 H   0  0  0  0  0  0  0  0  0  0  0  0
  145.9658  163.3441  133.5808 H   0  0  0  0  0  0  0  0  0  0  0  0
  147.0293  161.0240  133.9845 H   0  0  0  0  0  0  0  0  0  0  0  0
  147.5970  160.6771  130.8742 H   0  0  0  0  0  0  0  0  0  0  0  0
  149.1530  162.8617  129.8576 H   0  0  0  0  0  0  0  0  0  0  0  0
  150.3316  162.5777  130.8322 H   0  0  0  0  0  0  0  0  0  0  0  0
  149.2113  160.6091  128.5171 H   0  0  0  0  0  0  0  0  0  0  0  0
  150.3998  159.9331  129.2582 H   0  0  0  0  0  0  0  0  0  0  0  0
  1  2  1  0
  2  3  2  0
  2  4  1  0
  4  5  2  0
  5  6  1  0
  6  7  2  0
  7  8  1  0
  8  9  2  0
  9 10  1  0
 10 11  1  0
 10 12  1  0
  9 13  1  0
 13 14  2  0
 14 15  1  0
 15 16  1  0
 16 17  2  0
 16 18  1  0
 18 19  2  0
 18 20  1  0
 20 21  1  0
 21 22  1  0
 22 23  1  0
 15  4  1  0
 23 21  1  0
 14  6  1  0
  1 24  1  0
  1 25  1  0
  5 26  1  0
  7 27  1  0
  8 28  1  0
 10 29  1  0
 13 30  1  0
 21 31  1  0
 22 32  1  0
 22 33  1  0
 23 34  1  0
 23 35  1  0
M  CHG  1  20  -1
M  END
>  <UniqueID>  (20) 
20

>  <SMILES>  (20) 
NC(=O)c1cc2ccc(C(F)F)cc2n1C(=O)C(=O)[N-]C1CC1

>  <Energy>  (20) 
340.63974192632054

>  <Genealogy>  (20) 
NC(=O)c1cc2ccc(C(F)F)cc2n1C(=O)C(=O)[N-]C1CC1 (protonated)
NC(=O)c1cc2ccc(C(F)F)cc2n1C(=O)C(=O)[N-]C1CC1 (3D coordinates assigned)
NC(=O)c1cc2ccc(C(F)F)cc2n1C(=O)C(=O)[N-]C1CC1 (nonaromatic ring conformer: 340.63974192632054 kcal/mol)

>  <smiles>  (20) 
NC(=O)c1cc2ccc(C(F)F)cc2n1C(=O)C(=O)NC1CC1

>  <score_type>  (20) 
oracle

>  <origin>  (20) 
adg

>  <m_score__min__energy>  (20) 
-7.29

>  <m_primary>  (20) 
energy

$$$$
20:0
     RDKit          3D

 45 47  0  0  0  0  0  0  0  0999 V2000
  144.5990  154.0460  132.7240 C   0  0  0  0  0  0  0  0  0  0  0  0
  145.6060  154.0000  133.8250 C   0  0  0  0  0  0  0  0  0  0  0  0
  145.3600  153.5760  135.0430 O   0  0  0  0  0  0  0  0  0  0  0  0
  146.4840  153.7190  135.7070 C   0  0  0  0  0  0  0  0  0  0  0  0
  146.6220  153.4080  136.9190 O   0  0  0  0  0  0  0  0  0  0  0  0
  147.4460  154.2260  134.9710 O   0  0  0  0  0  0  0  0  0  0  0  0
  146.9260  154.4180  133.7820 C   0  0  0  0  0  0  0  0  0  0  0  0
  147.6650  154.9900  132.6120 C   0  0  0  0  0  0  0  0  0  0  0  0
  148.3900  156.1490  133.0070 O   0  0  0  0  0  0  0  0  0  0  0  0
  147.8540  157.1540  133.8230 C   0  0  0  0  0  0  0  0  0  0  0  0
  147.4660  156.8820  134.9930 O   0  0  0  0  0  0  0  0  0  0  0  0
  147.7850  158.5700  133.2830 C   0  0  0  0  0  0  0  0  0  0  0  0
  148.8620  159.3950  134.0230 C   0  0  0  0  0  0  0  0  0  0  0  0
  148.1090  158.6160  131.7730 C   0  0  0  0  0  0  0  0  0  0  0  0
  146.3550  159.0890  133.5040 C   0  0  0  0  0  0  0  0  0  0  0  0
  146.0290  160.4780  133.5040 C   0  0  0  0  0  0  0  0  0  0  0  0
  144.7170  160.9150  133.7500 C   0  0  0  0  0  0  0  0  0  0  0  0
  143.7420  159.9560  133.9910 C   0  0  0  0  0  0  0  0  0  0  0  0
  142.3980  160.1090  134.2440 C   0  0  0  0  0  0  0  0  0  0  0  0
  141.9030  158.8160  134.3980 C   0  0  0  0  0  0  0  0  0  0  0  0
  140.5060  158.5230  134.7760 C   0  0  0  0  0  0  0  0  0  0  0  0
  140.1060  158.4970  136.1430 N   0  0  0  0  0  0  0  0  0  0  0  0
  139.6410  158.3450  133.8760 O   0  0  0  0  0  0  0  0  0  0  0  0
  142.8990  157.8990  134.2350 N   0  0  0  0  0  0  0  0  0  0  0  0
  142.7780  156.4670  134.1970 C   0  0  0  0  0  0  0  0  0  0  0  0
  142.1500  155.9080  133.2590 O   0  0  0  0  0  0  0  0  0  0  0  0
  143.3750  155.6830  135.1740 O   0  0  0  0  0  0  0  0  0  0  0  0
  144.0210  158.6170  133.9940 C   0  0  0  0  0  0  0  0  0  0  0  0
  145.3140  158.1510  133.7390 C   0  0  0  0  0  0  0  0  0  0  0  0
  143.5875  154.0922  133.1539 H   0  0  0  0  0  0  0  0  0  0  0  0
  144.7747  154.9371  132.1034 H   0  0  0  0  0  0  0  0  0  0  0  0
  144.6927  153.1426  132.1034 H   0  0  0  0  0  0  0  0  0  0  0  0
  148.3667  154.2378  132.2226 H   0  0  0  0  0  0  0  0  0  0  0  0
  146.9412  155.2683  131.8318 H   0  0  0  0  0  0  0  0  0  0  0  0
  148.7233  159.2888  135.1090 H   0  0  0  0  0  0  0  0  0  0  0  0
  149.8608  159.0288  133.7433 H   0  0  0  0  0  0  0  0  0  0  0  0
  148.7685  160.4547  133.7433 H   0  0  0  0  0  0  0  0  0  0  0  0
  149.1894  158.7694  131.6343 H   0  0  0  0  0  0  0  0  0  0  0  0
  147.8104  157.6665  131.3048 H   0  0  0  0  0  0  0  0  0  0  0  0
  147.5579  159.4449  131.3048 H   0  0  0  0  0  0  0  0  0  0  0  0
  146.8182  161.2189  133.3081 H   0  0  0  0  0  0  0  0  0  0  0  0
  144.4688  161.9866  133.7517 H   0  0  0  0  0  0  0  0  0  0  0  0
  141.8346  161.0514  134.3105 H   0  0  0  0  0  0  0  0  0  0  0  0
  139.4810  159.2360  136.5330 H   0  0  0  0  0  0  0  0  0  0  0  0
  145.5230  157.0712  133.7205 H   0  0  0  0  0  0  0  0  0  0  0  0
  1  2  1  0
  2  3  1  0
  3  4  1  0
  4  5  2  0
  4  6  1  0
  6  7  1  0
  7  8  1  0
  8  9  1  0
  9 10  1  0
 10 11  2  0
 10 12  1  0
 12 13  1  0
 12 14  1  0
 12 15  1  0
 15 16  2  0
 16 17  1  0
 17 18  2  0
 18 19  1  0
 19 20  2  0
 20 21  1  0
 21 22  1  0
 21 23  2  0
 20 24  1  0
 24 25  1  0
 25 26  2  0
 25 27  1  0
 24 28  1  0
 28 29  2  0
  7  2  2  0
 29 15  1  0
 28 18  1  0
  1 30  1  0
  1 31  1  0
  1 32  1  0
  8 33  1  0
  8 34  1  0
 13 35  1  0
 13 36  1  0
 13 37  1  0
 14 38  1  0
 14 39  1  0
 14 40  1  0
 16 41  1  0
 17 42  1  0
 19 43  1  0
 22 44  1  0
 29 45  1  0
M  CHG  2  22  -1  27  -1
M  END
>  <UniqueID>  (21) 
21

>  <SMILES>  (21) 
Cc1oc(=O)oc1COC(=O)C(C)(C)c1ccc2cc(C([NH-])=O)n(C(=O)[O-])c2c1

>  <Energy>  (21) 
115.52686823894626

>  <Genealogy>  (21) 
Cc1oc(=O)oc1COC(=O)C(C)(C)c1ccc2cc(C([NH-])=O)n(C(=O)[O-])c2c1 (protonated)
Cc1oc(=O)oc1COC(=O)C(C)(C)c1ccc2cc(C([NH-])=O)n(C(=O)[O-])c2c1 (3D coordinates assigned)
Cc1oc(=O)oc1COC(=O)C(C)(C)c1ccc2cc(C([NH-])=O)n(C(=O)[O-])c2c1 (optimized conformer: 115.52686823894626 kcal/mol)

>  <smiles>  (21) 
Cc1oc(=O)oc1COC(=O)C(C)(C)c1ccc2cc(C(N)=O)n(C(=O)O)c2c1

>  <score_type>  (21) 
oracle

>  <origin>  (21) 
adg

>  <m_score__min__energy>  (21) 
-8.0899999999999999

>  <m_primary>  (21) 
energy

$$$$
21:0
     RDKit          3D

 39 41  0  0  0  0  0  0  0  0999 V2000
  138.0950  159.4320  131.4710 C   0  0  0  0  0  0  0  0  0  0  0  0
  138.8830  158.7440  132.4870 N   0  0  0  0  0  0  0  0  0  0  0  0
  138.3800  157.6930  133.3510 C   0  0  0  0  0  0  0  0  0  0  0  0
  139.5520  157.3120  134.2780 C   0  0  0  0  0  0  0  0  0  0  0  0
  140.8160  158.0270  133.7400 C   0  0  2  0  0  0  0  0  0  0  0  0
  141.5740  158.8160  134.8240 C   0  0  0  0  0  0  0  0  0  0  0  0
  142.9310  159.2560  134.3350 C   0  0  0  0  0  0  0  0  0  0  0  0
  143.2010  160.6280  134.1120 C   0  0  0  0  0  0  0  0  0  0  0  0
  144.4660  161.0450  133.6660 C   0  0  0  0  0  0  0  0  0  0  0  0
  145.4390  160.0720  133.4630 C   0  0  0  0  0  0  0  0  0  0  0  0
  146.7300  160.1980  133.0060 C   0  0  0  0  0  0  0  0  0  0  0  0
  147.2420  158.9030  132.9880 C   0  0  0  0  0  0  0  0  0  0  0  0
  148.6340  158.5860  132.6150 C   0  0  0  0  0  0  0  0  0  0  0  0
  148.9510  157.4100  131.8690 N   0  0  0  0  0  0  0  0  0  0  0  0
  149.5670  159.3360  133.0100 O   0  0  0  0  0  0  0  0  0  0  0  0
  146.3020  158.0080  133.4060 N   0  0  0  0  0  0  0  0  0  0  0  0
  146.4070  156.5730  133.4210 C   0  0  0  0  0  0  0  0  0  0  0  0
  146.1980  155.9310  134.4830 O   0  0  0  0  0  0  0  0  0  0  0  0
  146.7440  155.8800  132.2640 O   0  0  0  0  0  0  0  0  0  0  0  0
  145.2030  158.7400  133.6960 C   0  0  0  0  0  0  0  0  0  0  0  0
  143.9450  158.2960  134.1190 C   0  0  0  0  0  0  0  0  0  0  0  0
  140.2670  158.9250  132.6960 C   0  0  0  0  0  0  0  0  0  0  0  0
  140.9630  159.7320  132.0240 O   0  0  0  0  0  0  0  0  0  0  0  0
  137.3526  160.0802  131.9595 H   0  0  0  0  0  0  0  0  0  0  0  0
  138.7597  160.0439  130.8436 H   0  0  0  0  0  0  0  0  0  0  0  0
  137.5783  158.6908  130.8436 H   0  0  0  0  0  0  0  0  0  0  0  0
  137.5276  158.0587  133.9423 H   0  0  0  0  0  0  0  0  0  0  0  0
  138.0256  156.8280  132.7711 H   0  0  0  0  0  0  0  0  0  0  0  0
  139.3416  157.6422  135.3060 H   0  0  0  0  0  0  0  0  0  0  0  0
  139.6980  156.2218  134.2932 H   0  0  0  0  0  0  0  0  0  0  0  0
  141.5674  157.3168  133.3645 H   0  0  0  0  0  0  0  0  0  0  0  0
  140.9862  159.7048  135.0969 H   0  0  0  0  0  0  0  0  0  0  0  0
  141.7155  158.1597  135.6953 H   0  0  0  0  0  0  0  0  0  0  0  0
  142.4127  161.3743  134.2897 H   0  0  0  0  0  0  0  0  0  0  0  0
  144.6805  162.1082  133.4829 H   0  0  0  0  0  0  0  0  0  0  0  0
  147.2478  161.1243  132.7164 H   0  0  0  0  0  0  0  0  0  0  0  0
  148.2280  156.6840  131.6750 H   0  0  0  0  0  0  0  0  0  0  0  0
  149.9370  157.2230  131.5810 H   0  0  0  0  0  0  0  0  0  0  0  0
  143.7503  157.2253  134.2795 H   0  0  0  0  0  0  0  0  0  0  0  0
  1  2  1  0
  2  3  1  0
  3  4  1  0
  4  5  1  0
  5  6  1  0
  6  7  1  0
  7  8  2  0
  8  9  1  0
  9 10  2  0
 10 11  1  0
 11 12  2  0
 12 13  1  0
 13 14  1  0
 13 15  2  0
 12 16  1  0
 16 17  1  0
 17 18  2  0
 17 19  1  0
 16 20  1  0
 20 21  2  0
  5 22  1  0
 22 23  2  0
 22  2  1  0
 21  7  1  0
 20 10  1  0
  1 24  1  0
  1 25  1  0
  1 26  1  0
  3 27  1  0
  3 28  1  0
  4 29  1  0
  4 30  1  0
  5 31  1  6
  6 32  1  0
  6 33  1  0
  8 34  1  0
  9 35  1  0
 11 36  1  0
 14 37  1  0
 14 38  1  0
 21 39  1  0
M  CHG  1  19  -1
M  END
>  <UniqueID>  (22) 
22

>  <SMILES>  (22) 
CN1CC[C@H](Cc2ccc3cc(C(N)=O)n(C(=O)[O-])c3c2)C1=O

>  <Energy>  (22) 
83.33563896481833

>  <Genealogy>  (22) 
CN1CC[C@H](Cc2ccc3cc(C(N)=O)n(C(=O)[O-])c3c2)C1=O (protonated)
CN1CC[C@H](Cc2ccc3cc(C(N)=O)n(C(=O)[O-])c3c2)C1=O (3D coordinates assigned)
CN1CC[C@H](Cc2ccc3cc(C(N)=O)n(C(=O)[O-])c3c2)C1=O (nonaromatic ring conformer: 83.33563896481833 kcal/mol)

>  <smiles>  (22) 
CN1CC[C@H](Cc2ccc3cc(C(N)=O)n(C(=O)O)c3c2)C1=O

>  <score_type>  (22) 
oracle

>  <origin>  (22) 
adg

>  <m_score__min__energy>  (22) 
-7.3399999999999999

>  <m_primary>  (22) 
energy

$$$$
22:0
     RDKit          3D

 45 46  0  0  0  0  0  0  0  0999 V2000
  150.0370  150.7310  130.6710 C   0  0  0  0  0  0  0  0  0  0  0  0
  149.3150  150.8010  131.7930 C   0  0  0  0  0  0  0  0  0  0  0  0
  149.9690  150.9800  133.1330 C   0  0  0  0  0  0  0  0  0  0  0  0
  149.5970  152.2290  133.7120 O   0  0  0  0  0  0  0  0  0  0  0  0
  149.0600  153.2880  132.9700 C   0  0  0  0  0  0  0  0  0  0  0  0
  149.6720  153.7510  131.9700 O   0  0  0  0  0  0  0  0  0  0  0  0
  147.7680  153.9070  133.4030 C   0  0  0  0  0  0  0  0  0  0  0  0
  147.0470  154.4500  132.2440 N   0  0  0  0  0  0  0  0  0  0  0  0
  146.2040  155.5440  132.6580 C   0  0  0  0  0  0  0  0  0  0  0  0
  144.9070  155.2890  133.1730 C   0  0  0  0  0  0  0  0  0  0  0  0
  144.0950  156.3420  133.6280 C   0  0  0  0  0  0  0  0  0  0  0  0
  144.6030  157.6350  133.5550 C   0  0  0  0  0  0  0  0  0  0  0  0
  144.0470  158.8280  133.9580 C   0  0  0  0  0  0  0  0  0  0  0  0
  145.0040  159.7990  133.6650 C   0  0  0  0  0  0  0  0  0  0  0  0
  144.7800  161.2460  133.8650 C   0  0  0  0  0  0  0  0  0  0  0  0
  145.8660  162.1220  134.1550 N   0  0  0  0  0  0  0  0  0  0  0  0
  143.6210  161.7220  133.7320 O   0  0  0  0  0  0  0  0  0  0  0  0
  146.1110  159.2270  133.1150 N   0  0  0  0  0  0  0  0  0  0  0  0
  147.3470  159.8710  132.7620 C   0  0  0  0  0  0  0  0  0  0  0  0
  148.0470  160.4220  133.6550 O   0  0  0  0  0  0  0  0  0  0  0  0
  147.7560  159.9040  131.4260 O   0  0  0  0  0  0  0  0  0  0  0  0
  148.9250  159.2380  130.9640 C   0  0  0  0  0  0  0  0  0  0  0  0
  149.8770  160.2370  130.3810 C   0  0  0  0  0  0  0  0  0  0  0  0
  149.5820  161.5380  130.3440 C   0  0  0  0  0  0  0  0  0  0  0  0
  145.8490  157.9020  133.0520 C   0  0  0  0  0  0  0  0  0  0  0  0
  146.6880  156.8720  132.6100 C   0  0  0  0  0  0  0  0  0  0  0  0
  149.5349  150.5996  129.7012 H   0  0  0  0  0  0  0  0  0  0  0  0
  151.1336  150.8047  130.7171 H   0  0  0  0  0  0  0  0  0  0  0  0
  148.2191  150.7260  131.7341 H   0  0  0  0  0  0  0  0  0  0  0  0
  149.6540  150.1644  133.8005 H   0  0  0  0  0  0  0  0  0  0  0  0
  151.0607  150.9631  132.9991 H   0  0  0  0  0  0  0  0  0  0  0  0
  147.1457  153.1428  133.8916 H   0  0  0  0  0  0  0  0  0  0  0  0
  147.9822  154.7257  134.1058 H   0  0  0  0  0  0  0  0  0  0  0  0
  146.4600  153.6990  131.8110 H   0  0  0  0  0  0  0  0  0  0  0  0
  147.7320  154.7820  131.5250 H   0  0  0  0  0  0  0  0  0  0  0  0
  144.5327  154.2556  133.2167 H   0  0  0  0  0  0  0  0  0  0  0  0
  143.0891  156.1497  134.0294 H   0  0  0  0  0  0  0  0  0  0  0  0
  143.0580  158.9825  134.4142 H   0  0  0  0  0  0  0  0  0  0  0  0
  146.7180  162.1360  133.5520 H   0  0  0  0  0  0  0  0  0  0  0  0
  149.4080  158.7205  131.8059 H   0  0  0  0  0  0  0  0  0  0  0  0
  148.6465  158.5059  130.1917 H   0  0  0  0  0  0  0  0  0  0  0  0
  150.8390  159.8911  129.9750 H   0  0  0  0  0  0  0  0  0  0  0  0
  150.2977  162.2521  129.9107 H   0  0  0  0  0  0  0  0  0  0  0  0
  148.6231  161.8962  130.7468 H   0  0  0  0  0  0  0  0  0  0  0  0
  147.6987  157.0903  132.2347 H   0  0  0  0  0  0  0  0  0  0  0  0
  1  2  2  0
  2  3  1  0
  3  4  1  0
  4  5  1  0
  5  6  2  0
  5  7  1  0
  7  8  1  0
  8  9  1  0
  9 10  2  0
 10 11  1  0
 11 12  2  0
 12 13  1  0
 13 14  2  0
 14 15  1  0
 15 16  1  0
 15 17  2  0
 14 18  1  0
 18 19  1  0
 19 20  2  0
 19 21  1  0
 21 22  1  0
 22 23  1  0
 23 24  2  0
 18 25  1  0
 25 26  2  0
 26  9  1  0
 25 12  1  0
  1 27  1  0
  1 28  1  0
  2 29  1  0
  3 30  1  0
  3 31  1  0
  7 32  1  0
  7 33  1  0
  8 34  1  0
  8 35  1  0
 10 36  1  0
 11 37  1  0
 13 38  1  0
 16 39  1  0
 22 40  1  0
 22 41  1  0
 23 42  1  0
 24 43  1  0
 24 44  1  0
 26 45  1  0
M  CHG  2   8   1  16  -1
M  END
>  <UniqueID>  (23) 
23

>  <SMILES>  (23) 
C=CCOC(=O)C[NH2+]c1ccc2cc(C([NH-])=O)n(C(=O)OCC=C)c2c1

>  <Energy>  (23) 
73.59035902931079

>  <Genealogy>  (23) 
C=CCOC(=O)C[NH2+]c1ccc2cc(C([NH-])=O)n(C(=O)OCC=C)c2c1 (protonated)
C=CCOC(=O)C[NH2+]c1ccc2cc(C([NH-])=O)n(C(=O)OCC=C)c2c1 (3D coordinates assigned)
C=CCOC(=O)C[NH2+]c1ccc2cc(C([NH-])=O)n(C(=O)OCC=C)c2c1 (optimized conformer: 73.59035902931079 kcal/mol)

>  <smiles>  (23) 
C=CCOC(=O)CNc1ccc2cc(C(N)=O)n(C(=O)OCC=C)c2c1

>  <score_type>  (23) 
oracle

>  <origin>  (23) 
adg

>  <m_score__min__energy>  (23) 
-7.1699999999999999

>  <m_primary>  (23) 
energy

$$$$
23:0
     RDKit          3D

107113  0  0  0  0  0  0  0  0999 V2000
  147.0930  153.3790  135.1140 H   0  0  0  0  0  0  0  0  0  0  0  0
  147.9780  153.6660  135.5910 N   0  0  0  0  0  0  0  0  0  0  0  0
  148.0520  153.7510  137.0110 C   0  0  0  0  0  0  0  0  0  0  0  0
  148.8040  154.6110  137.5390 O   0  0  0  0  0  0  0  0  0  0  0  0
  147.1890  152.8980  137.8560 C   0  0  0  0  0  0  0  0  0  0  0  0
  147.6970  152.0060  138.7920 C   0  0  0  0  0  0  0  0  0  0  0  0
  148.7521  151.7482  138.9662 H   0  0  0  0  0  0  0  0  0  0  0  0
  146.5940  151.5140  139.4550 C   0  0  0  0  0  0  0  0  0  0  0  0
  146.5220  150.5910  140.4910 C   0  0  0  0  0  0  0  0  0  0  0  0
  147.4340  150.1561  140.9259 H   0  0  0  0  0  0  0  0  0  0  0  0
  145.2530  150.2300  140.9660 C   0  0  0  0  0  0  0  0  0  0  0  0
  145.1642  149.4986  141.7828 H   0  0  0  0  0  0  0  0  0  0  0  0
  144.0850  150.7990  140.4030 C   0  0  0  0  0  0  0  0  0  0  0  0
  142.7240  150.3420  140.8500 C   0  0  0  0  0  0  0  0  0  0  0  0
  142.6234  150.5168  141.9314 H   0  0  0  0  0  0  0  0  0  0  0  0
  142.6221  149.2710  140.6206 H   0  0  0  0  0  0  0  0  0  0  0  0
  141.6390  151.0900  140.1290 C   0  0  0  0  0  0  0  0  0  0  0  0
  141.1230  152.1050  140.6660 O   0  0  0  0  0  0  0  0  0  0  0  0
  141.1590  150.6140  138.9040 O   0  0  0  0  0  0  0  0  0  0  0  0
  140.4960  151.4300  137.9440 C   0  0  0  0  0  0  0  0  0  0  0  0
  140.0566  152.2998  138.4542 H   0  0  0  0  0  0  0  0  0  0  0  0
  139.7126  150.8303  137.4575 H   0  0  0  0  0  0  0  0  0  0  0  0
  141.4500  151.9100  136.8920 C   0  0  0  0  0  0  0  0  0  0  0  0
  142.2547  152.6063  137.1705 H   0  0  0  0  0  0  0  0  0  0  0  0
  141.3410  151.5070  135.6190 C   0  0  0  0  0  0  0  0  0  0  0  0
  140.6185  150.7133  135.3781 H   0  0  0  0  0  0  0  0  0  0  0  0
  142.1090  152.0540  134.5800 O   0  0  0  0  0  0  0  0  0  0  0  0
  141.7700  153.2250  133.9060 C   0  0  0  0  0  0  0  0  0  0  0  0
  140.5850  153.4080  133.5180 O   0  0  0  0  0  0  0  0  0  0  0  0
  142.8160  154.2240  133.6130 C   0  0  0  0  0  0  0  0  0  0  0  0
  142.5030  155.5850  133.6080 C   0  0  0  0  0  0  0  0  0  0  0  0
  141.4538  155.8945  133.7241 H   0  0  0  0  0  0  0  0  0  0  0  0
  143.4710  156.5450  133.4620 N   0  0  0  0  0  0  0  0  0  0  0  0
  143.0480  157.9620  133.3920 C   0  0  2  0  0  0  0  0  0  0  0  0
  143.2558  158.0471  132.3152 H   0  0  0  0  0  0  0  0  0  0  0  0
  143.3270  158.7080  134.6950 C   0  0  0  0  0  0  0  0  0  0  0  0
  143.7726  159.7133  134.6659 H   0  0  0  0  0  0  0  0  0  0  0  0
  143.8931  158.4799  135.6102 H   0  0  0  0  0  0  0  0  0  0  0  0
  141.8930  158.5060  134.2530 C   0  0  2  0  0  0  0  0  0  0  0  0
  141.0117  159.1103  133.9918 H   0  0  0  0  0  0  0  0  0  0  0  0
  141.1940  157.6420  135.1420 O   0  0  0  0  0  0  0  0  0  0  0  0
  139.8020  157.5150  135.0560 C   0  0  0  0  0  0  0  0  0  0  0  0
  139.1080  157.5590  136.1090 O   0  0  0  0  0  0  0  0  0  0  0  0
  139.1580  157.2850  133.7900 N   0  0  0  0  0  0  0  0  0  0  0  0
  139.3110  155.9690  133.1640 C   0  0  0  0  0  0  0  0  0  0  0  0
  139.4005  155.1996  133.9451 H   0  0  0  0  0  0  0  0  0  0  0  0
  138.4316  155.7560  132.5385 H   0  0  0  0  0  0  0  0  0  0  0  0
  140.2158  155.9635  132.5385 H   0  0  0  0  0  0  0  0  0  0  0  0
  138.5300  158.3830  133.0480 C   0  0  0  0  0  0  0  0  0  0  0  0
  138.5346  159.2878  133.6735 H   0  0  0  0  0  0  0  0  0  0  0  0
  137.4996  158.0905  132.7977 H   0  0  0  0  0  0  0  0  0  0  0  0
  139.2840  158.6720  131.7440 C   0  0  0  0  0  0  0  0  0  0  0  0
  140.2876  159.0567  131.9783 H   0  0  0  0  0  0  0  0  0  0  0  0
  139.3740  157.7446  131.1593 H   0  0  0  0  0  0  0  0  0  0  0  0
  138.7311  159.4220  131.1593 H   0  0  0  0  0  0  0  0  0  0  0  0
  144.7870  156.1740  133.2130 C   0  0  0  0  0  0  0  0  0  0  0  0
  145.8290  157.1200  132.9620 C   0  0  0  0  0  0  0  0  0  0  0  0
  145.6080  158.4590  132.9910 F   0  0  0  0  0  0  0  0  0  0  0  0
  147.1420  156.6990  132.6880 C   0  0  0  0  0  0  0  0  0  0  0  0
  148.1800  157.6670  132.4590 N   0  0  0  0  0  0  0  0  0  0  0  0
  149.5740  157.3060  132.2430 C   0  0  0  0  0  0  0  0  0  0  0  0
  150.0264  156.9365  133.1751 H   0  0  0  0  0  0  0  0  0  0  0  0
  149.6817  156.5022  131.4998 H   0  0  0  0  0  0  0  0  0  0  0  0
  150.2520  158.5960  131.7930 C   0  0  0  0  0  0  0  0  0  0  0  0
  151.2427  158.6924  132.2613 H   0  0  0  0  0  0  0  0  0  0  0  0
  150.4070  158.6153  130.7041 H   0  0  0  0  0  0  0  0  0  0  0  0
  149.3320  159.7280  132.2530 C   0  0  1  0  0  0  0  0  0  0  0  0
  149.6240  160.1528  133.2247 H   0  0  0  0  0  0  0  0  0  0  0  0
  149.3990  160.8620  131.3200 N   0  0  0  0  0  0  0  0  0  0  0  0
  150.3810  161.2320  131.2740 H   0  0  0  0  0  0  0  0  0  0  0  0
  149.0100  160.4620  129.9630 C   0  0  0  0  0  0  0  0  0  0  0  0
  148.2441  159.6744  130.0183 H   0  0  0  0  0  0  0  0  0  0  0  0
  148.6033  161.3320  129.4267 H   0  0  0  0  0  0  0  0  0  0  0  0
  149.8910  160.0797  129.4267 H   0  0  0  0  0  0  0  0  0  0  0  0
  147.9340  159.0940  132.3520 C   0  0  0  0  0  0  0  0  0  0  0  0
  147.4032  159.4634  133.2419 H   0  0  0  0  0  0  0  0  0  0  0  0
  147.3033  159.3426  131.4857 H   0  0  0  0  0  0  0  0  0  0  0  0
  147.4420  155.3360  132.6510 C   0  0  0  0  0  0  0  0  0  0  0  0
  148.6850  154.9150  132.3240 F   0  0  0  0  0  0  0  0  0  0  0  0
  146.4480  154.3920  132.8980 C   0  0  0  0  0  0  0  0  0  0  0  0
  146.6991  153.3212  132.8770 H   0  0  0  0  0  0  0  0  0  0  0  0
  145.1270  154.7900  133.1740 C   0  0  0  0  0  0  0  0  0  0  0  0
  144.1370  153.8240  133.3960 C   0  0  0  0  0  0  0  0  0  0  0  0
  144.4310  152.5980  133.4010 O   0  0  0  0  0  0  0  0  0  0  0  0
  144.1940  151.7280  139.3480 C   0  0  0  0  0  0  0  0  0  0  0  0
  143.2957  152.1624  138.8850 H   0  0  0  0  0  0  0  0  0  0  0  0
  145.4760  152.0850  138.9030 C   0  0  0  0  0  0  0  0  0  0  0  0
  145.8250  152.9430  137.9140 N   0  0  0  0  0  0  0  0  0  0  0  0
  144.9350  153.6980  137.0730 C   0  0  0  0  0  0  0  0  0  0  0  0
  145.3790  154.3080  136.0640 O   0  0  0  0  0  0  0  0  0  0  0  0
  143.5700  153.7270  137.3550 O   0  0  0  0  0  0  0  0  0  0  0  0
  142.8140  154.9310  137.4110 C   0  0  0  0  0  0  0  0  0  0  0  0
  143.4956  155.7908  137.4898 H   0  0  0  0  0  0  0  0  0  0  0  0
  142.2086  155.0317  136.4981 H   0  0  0  0  0  0  0  0  0  0  0  0
  141.9140  154.8900  138.6140 C   0  0  0  0  0  0  0  0  0  0  0  0
  140.5820  154.7730  138.4720 C   0  0  0  0  0  0  0  0  0  0  0  0
  140.1450  154.7395  137.4631 H   0  0  0  0  0  0  0  0  0  0  0  0
  139.6990  154.6890  139.6500 C   0  0  0  0  0  0  0  0  0  0  0  0
  138.6365  154.4356  139.5199 H   0  0  0  0  0  0  0  0  0  0  0  0
  140.1820  154.9190  140.8750 C   0  0  0  0  0  0  0  0  0  0  0  0
  139.5438  154.7497  141.7548 H   0  0  0  0  0  0  0  0  0  0  0  0
  141.5930  155.4080  141.0580 C   0  0  0  0  0  0  0  0  0  0  0  0
  141.6098  156.5039  140.9649 H   0  0  0  0  0  0  0  0  0  0  0  0
  141.9454  155.1028  142.0543 H   0  0  0  0  0  0  0  0  0  0  0  0
  142.5240  154.7980  139.9980 C   0  0  0  0  0  0  0  0  0  0  0  0
  143.4805  155.3413  140.0053 H   0  0  0  0  0  0  0  0  0  0  0  0
  142.6789  153.7363  140.2403 H   0  0  0  0  0  0  0  0  0  0  0  0
  1  2  1  0
  2  3  1  0
  3  4  2  0
  3  5  1  0
  5  6  2  0
  6  7  1  0
  6  8  1  0
  8  9  2  0
  9 10  1  0
  9 11  1  0
 11 12  1  0
 11 13  2  0
 13 14  1  0
 14 15  1  0
 14 16  1  0
 14 17  1  0
 17 18  2  0
 17 19  1  0
 19 20  1  0
 20 21  1  0
 20 22  1  0
 20 23  1  0
 23 24  1  0
 23 25  2  0
 25 26  1  0
 25 27  1  0
 27 28  1  0
 28 29  2  0
 28 30  1  0
 30 31  2  0
 31 32  1  0
 31 33  1  0
 33 34  1  0
 34 35  1  6
 34 36  1  0
 36 37  1  0
 36 38  1  0
 36 39  1  0
 39 40  1  6
 39 41  1  0
 41 42  1  0
 42 43  2  0
 42 44  1  0
 44 45  1  0
 45 46  1  0
 45 47  1  0
 45 48  1  0
 44 49  1  0
 49 50  1  0
 49 51  1  0
 49 52  1  0
 52 53  1  0
 52 54  1  0
 52 55  1  0
 33 56  1  0
 56 57  2  0
 57 58  1  0
 57 59  1  0
 59 60  1  0
 60 61  1  0
 61 62  1  0
 61 63  1  0
 61 64  1  0
 64 65  1  0
 64 66  1  0
 64 67  1  0
 67 68  1  1
 67 69  1  0
 69 70  1  0
 69 71  1  0
 71 72  1  0
 71 73  1  0
 71 74  1  0
 67 75  1  0
 75 76  1  0
 75 77  1  0
 59 78  2  0
 78 79  1  0
 78 80  1  0
 80 81  1  0
 80 82  2  0
 82 83  1  0
 83 84  2  0
 13 85  1  0
 85 86  1  0
 85 87  2  0
 87 88  1  0
 88 89  1  0
 89 90  2  0
 89 91  1  0
 91 92  1  0
 92 93  1  0
 92 94  1  0
 92 95  1  0
 95 96  2  0
 96 97  1  0
 96 98  1  0
 98 99  1  0
 98100  2  0
100101  1  0
100102  1  0
102103  1  0
102104  1  0
102105  1  0
105106  1  0
105107  1  0
 88  5  1  0
105 95  1  0
 87  8  1  0
 83 30  1  0
 39 34  1  0
 82 56  1  0
 75 60  1  0
M  CHG  1   2  -1
M  END
>  <UniqueID>  (24) 
24

>  <SMILES>  (24) 
CCN(C)C(=O)O[C@H]1C[C@H]1n1cc(C(=O)O/C=C/COC(=O)Cc2ccc3cc(C([NH-])=O)n(C(=O)OCC4=CC=CCC4)c3c2)c(=O)c2cc(F)c(N3CC[C@@H](NC)C3)c(F)c21

>  <Energy>  (24) 
443.7725876275214

>  <Genealogy>  (24) 
CCN(C)C(=O)OC1CC1n1cc(C(=O)OC=CCOC(=O)Cc2ccc3cc(C([NH-])=O)n(C(=O)OCC4=CC=CCC4)c3c2)c(=O)c2cc(F)c(N3CC[C@@H](NC)C3)c(F)c21 (protonated)
CCN(C)C(=O)O[C@H]1C[C@H]1n1cc(C(=O)OC=CCOC(=O)Cc2ccc3cc(C([NH-])=O)n(C(=O)OCC4=CC=CCC4)c3c2)c(=O)c2cc(F)c(N3CC[C@@H](NC)C3)c(F)c21 (chirality)
CCN(C)C(=O)O[C@H]1C[C@H]1n1cc(C(=O)O/C=C/COC(=O)Cc2ccc3cc(C([NH-])=O)n(C(=O)OCC4=CC=CCC4)c3c2)c(=O)c2cc(F)c(N3CC[C@@H](NC)C3)c(F)c21 (cis-trans isomerization)
CCN(C)C(=O)O[C@H]1C[C@H]1n1cc(C(=O)O/C=C/COC(=O)Cc2ccc3cc(C([NH-])=O)n(C(=O)OCC4=CC=CCC4)c3c2)c(=O)c2cc(F)c(N3CC[C@@H](NC)C3)c(F)c21 (3D coordinates assigned)
CCN(C)C(=O)O[C@H]1C[C@H]1n1cc(C(=O)O/C=C/COC(=O)Cc2ccc3cc(C([NH-])=O)n(C(=O)OCC4=CC=CCC4)c3c2)c(=O)c2cc(F)c(N3CC[C@@H](NC)C3)c(F)c21 (nonaromatic ring conformer: 443.7725876275214 kcal/mol)

>  <smiles>  (24) 
CCN(C)C(=O)OC1CC1n1cc(C(=O)OC=CCOC(=O)Cc2ccc3cc(C(N)=O)n(C(=O)OCC4=CC=CCC4)c3c2)c(=O)c2cc(F)c(N3CC[C@@H](NC)C3)c(F)c21

>  <score_type>  (24) 
oracle

>  <origin>  (24) 
adg

>  <m_score__min__energy>  (24) 
-12.24

>  <m_primary>  (24) 
energy

$$$$
24:0
     RDKit          3D

 59 62  0  0  0  0  0  0  0  0999 V2000
  140.5960  154.8230  138.3940 C   0  0  0  0  0  0  0  0  0  0  0  0
  141.0100  156.0410  137.6350 C   0  0  0  0  0  0  0  0  0  0  0  0
  140.3550  157.1790  137.6650 O   0  0  0  0  0  0  0  0  0  0  0  0
  140.9930  157.9840  136.8480 C   0  0  0  0  0  0  0  0  0  0  0  0
  140.6420  159.1700  136.6240 O   0  0  0  0  0  0  0  0  0  0  0  0
  142.0310  157.4130  136.2840 O   0  0  0  0  0  0  0  0  0  0  0  0
  142.0750  156.1900  136.7580 C   0  0  0  0  0  0  0  0  0  0  0  0
  143.1040  155.1800  136.3560 C   0  0  0  0  0  0  0  0  0  0  0  0
  143.5800  155.4630  135.0440 O   0  0  0  0  0  0  0  0  0  0  0  0
  142.9940  154.9440  133.8820 C   0  0  0  0  0  0  0  0  0  0  0  0
  143.6430  154.1640  133.1350 O   0  0  0  0  0  0  0  0  0  0  0  0
  141.6440  155.2970  133.5460 N   0  0  0  0  0  0  0  0  0  0  0  0
  140.6110  154.4590  133.2490 C   0  0  0  0  0  0  0  0  0  0  0  0
  140.6300  152.9870  133.3710 C   0  0  0  0  0  0  0  0  0  0  0  0
  141.5550  152.3600  134.2560 N   0  0  0  0  0  0  0  0  0  0  0  0
  139.8660  152.2720  132.6710 O   0  0  0  0  0  0  0  0  0  0  0  0
  139.4830  155.1880  132.8810 C   0  0  0  0  0  0  0  0  0  0  0  0
  139.8580  156.5100  132.9670 C   0  0  0  0  0  0  0  0  0  0  0  0
  139.1310  157.6670  132.7020 C   0  0  0  0  0  0  0  0  0  0  0  0
  139.7820  158.9030  132.8510 C   0  0  0  0  0  0  0  0  0  0  0  0
  141.1430  158.9600  133.2420 C   0  0  0  0  0  0  0  0  0  0  0  0
  141.8250  160.2870  133.4230 C   0  0  0  0  0  0  0  0  0  0  0  0
  143.2540  160.0830  133.8090 C   0  0  0  0  0  0  0  0  0  0  0  0
  143.6630  160.4840  134.9350 O   0  0  0  0  0  0  0  0  0  0  0  0
  144.1140  159.4120  132.9320 O   0  0  0  0  0  0  0  0  0  0  0  0
  145.4180  158.9650  133.3000 C   0  0  0  0  0  0  0  0  0  0  0  0
  146.3990  160.1410  133.3500 C   0  0  0  0  0  0  0  0  0  0  0  0
  147.7270  159.7520  132.8300 N   0  0  0  0  0  0  0  0  0  0  0  0
  147.8280  158.2850  132.7340 C   0  0  0  0  0  0  0  0  0  0  0  0
  149.2180  157.8740  132.2040 C   0  0  0  0  0  0  0  0  0  0  0  0
  149.9820  158.9890  131.7820 O   0  0  0  0  0  0  0  0  0  0  0  0
  149.2410  159.7430  130.8480 C   0  0  0  0  0  0  0  0  0  0  0  0
  147.9940  160.3630  131.5080 C   0  0  0  0  0  0  0  0  0  0  0  0
  141.8490  157.7640  133.5040 C   0  0  0  0  0  0  0  0  0  0  0  0
  141.1670  156.5480  133.3690 C   0  0  0  0  0  0  0  0  0  0  0  0
  140.6640  155.0230  139.4735 H   0  0  0  0  0  0  0  0  0  0  0  0
  139.5592  154.5636  138.1337 H   0  0  0  0  0  0  0  0  0  0  0  0
  141.2599  153.9855  138.1337 H   0  0  0  0  0  0  0  0  0  0  0  0
  143.9451  155.2158  137.0640 H   0  0  0  0  0  0  0  0  0  0  0  0
  142.6492  154.1785  136.3661 H   0  0  0  0  0  0  0  0  0  0  0  0
  142.5440  152.6950  134.3250 H   0  0  0  0  0  0  0  0  0  0  0  0
  138.5007  154.7917  132.5845 H   0  0  0  0  0  0  0  0  0  0  0  0
  138.0788  157.6152  132.3855 H   0  0  0  0  0  0  0  0  0  0  0  0
  139.2300  159.8356  132.6623 H   0  0  0  0  0  0  0  0  0  0  0  0
  141.7802  160.8505  132.4794 H   0  0  0  0  0  0  0  0  0  0  0  0
  141.3141  160.8480  134.2194 H   0  0  0  0  0  0  0  0  0  0  0  0
  145.3710  158.4914  134.2917 H   0  0  0  0  0  0  0  0  0  0  0  0
  145.7696  158.2426  132.5487 H   0  0  0  0  0  0  0  0  0  0  0  0
  146.0021  160.9655  132.7396 H   0  0  0  0  0  0  0  0  0  0  0  0
  146.5136  160.4546  134.3981 H   0  0  0  0  0  0  0  0  0  0  0  0
  147.6758  157.8454  133.7308 H   0  0  0  0  0  0  0  0  0  0  0  0
  147.0588  157.9196  132.0378 H   0  0  0  0  0  0  0  0  0  0  0  0
  149.7631  157.3544  133.0058 H   0  0  0  0  0  0  0  0  0  0  0  0
  149.0667  157.2198  131.3327 H   0  0  0  0  0  0  0  0  0  0  0  0
  149.8760  160.5483  130.4502 H   0  0  0  0  0  0  0  0  0  0  0  0
  148.9144  159.0754  130.0370 H   0  0  0  0  0  0  0  0  0  0  0  0
  148.1568  161.4430  131.6384 H   0  0  0  0  0  0  0  0  0  0  0  0
  147.1270  160.1768  130.8572 H   0  0  0  0  0  0  0  0  0  0  0  0
  142.9065  157.7875  133.8060 H   0  0  0  0  0  0  0  0  0  0  0  0
  1  2  1  0
  2  3  1  0
  3  4  1  0
  4  5  2  0
  4  6  1  0
  6  7  1  0
  7  8  1  0
  8  9  1  0
  9 10  1  0
 10 11  2  0
 10 12  1  0
 12 13  1  0
 13 14  1  0
 14 15  1  0
 14 16  2  0
 13 17  2  0
 17 18  1  0
 18 19  2  0
 19 20  1  0
 20 21  2  0
 21 22  1  0
 22 23  1  0
 23 24  2  0
 23 25  1  0
 25 26  1  0
 26 27  1  0
 27 28  1  0
 28 29  1  0
 29 30  1  0
 30 31  1  0
 31 32  1  0
 32 33  1  0
 21 34  1  0
 34 35  2  0
  7  2  2  0
 35 12  1  0
 35 18  1  0
 33 28  1  0
  1 36  1  0
  1 37  1  0
  1 38  1  0
  8 39  1  0
  8 40  1  0
 15 41  1  0
 17 42  1  0
 19 43  1  0
 20 44  1  0
 22 45  1  0
 22 46  1  0
 26 47  1  0
 26 48  1  0
 27 49  1  0
 27 50  1  0
 29 51  1  0
 29 52  1  0
 30 53  1  0
 30 54  1  0
 32 55  1  0
 32 56  1  0
 33 57  1  0
 33 58  1  0
 34 59  1  0
M  CHG  1  15  -1
M  END
>  <UniqueID>  (25) 
25

>  <SMILES>  (25) 
Cc1oc(=O)oc1COC(=O)n1c(C([NH-])=O)cc2ccc(CC(=O)OCCN3CCOCC3)cc21

>  <Energy>  (25) 
135.81585961598756

>  <Genealogy>  (25) 
Cc1oc(=O)oc1COC(=O)n1c(C([NH-])=O)cc2ccc(CC(=O)OCCN3CCOCC3)cc21 (protonated)
Cc1oc(=O)oc1COC(=O)n1c(C([NH-])=O)cc2ccc(CC(=O)OCCN3CCOCC3)cc21 (3D coordinates assigned)
Cc1oc(=O)oc1COC(=O)n1c(C([NH-])=O)cc2ccc(CC(=O)OCCN3CCOCC3)cc21 (nonaromatic ring conformer: 135.81585961598756 kcal/mol)

>  <smiles>  (25) 
Cc1oc(=O)oc1COC(=O)n1c(C(N)=O)cc2ccc(CC(=O)OCCN3CCOCC3)cc21

>  <score_type>  (25) 
oracle

>  <origin>  (25) 
adg

>  <m_score__min__energy>  (25) 
-8.6999999999999993

>  <m_primary>  (25) 
energy

$$$$
25:0
     RDKit          3D

 33 35  0  0  0  0  0  0  0  0999 V2000
  143.4150  156.9490  134.8090 C   0  0  0  0  0  0  0  0  0  0  0  0
  143.7260  157.7610  133.5910 C   0  0  0  0  0  0  0  0  0  0  0  0
  142.9130  157.7670  132.6300 O   0  0  0  0  0  0  0  0  0  0  0  0
  144.9680  158.4740  133.4780 N   0  0  0  0  0  0  0  0  0  0  0  0
  145.1820  159.8160  133.5850 C   0  0  0  0  0  0  0  0  0  0  0  0
  144.1350  160.8510  133.7090 C   0  0  0  0  0  0  0  0  0  0  0  0
  142.7800  160.5310  133.4040 N   0  0  0  0  0  0  0  0  0  0  0  0
  144.4210  162.0090  134.1120 O   0  0  0  0  0  0  0  0  0  0  0  0
  146.5430  160.1020  133.4750 C   0  0  0  0  0  0  0  0  0  0  0  0
  147.1570  158.8850  133.2870 C   0  0  0  0  0  0  0  0  0  0  0  0
  148.5030  158.5760  133.1230 C   0  0  0  0  0  0  0  0  0  0  0  0
  148.8550  157.2250  132.9640 C   0  0  0  0  0  0  0  0  0  0  0  0
  147.8630  156.2080  132.9770 C   0  0  0  0  0  0  0  0  0  0  0  0
  148.2460  154.7820  132.8160 C   0  0  0  0  0  0  0  0  0  0  0  0
  147.2820  153.7630  132.8920 C   0  0  0  0  0  0  0  0  0  0  0  0
  147.6570  152.4270  132.7390 C   0  0  0  0  0  0  0  0  0  0  0  0
  148.9980  152.1150  132.5100 C   0  0  0  0  0  0  0  0  0  0  0  0
  149.9240  153.1070  132.4400 N   0  0  0  0  0  0  0  0  0  0  0  0
  149.5850  154.4160  132.5850 C   0  0  0  0  0  0  0  0  0  0  0  0
  146.5050  156.5660  133.1470 C   0  0  0  0  0  0  0  0  0  0  0  0
  146.1850  157.9200  133.2900 C   0  0  0  0  0  0  0  0  0  0  0  0
  143.6407  157.5383  135.7100 H   0  0  0  0  0  0  0  0  0  0  0  0
  142.3491  156.6772  134.8061 H   0  0  0  0  0  0  0  0  0  0  0  0
  144.0266  156.0347  134.8061 H   0  0  0  0  0  0  0  0  0  0  0  0
  142.5450  159.8950  132.6110 H   0  0  0  0  0  0  0  0  0  0  0  0
  147.0232  161.0903  133.5274 H   0  0  0  0  0  0  0  0  0  0  0  0
  149.2690  159.3654  133.1179 H   0  0  0  0  0  0  0  0  0  0  0  0
  149.9117  156.9514  132.8278 H   0  0  0  0  0  0  0  0  0  0  0  0
  146.2275  154.0188  133.0728 H   0  0  0  0  0  0  0  0  0  0  0  0
  146.9031  151.6282  132.7983 H   0  0  0  0  0  0  0  0  0  0  0  0
  149.3053  151.0661  132.3862 H   0  0  0  0  0  0  0  0  0  0  0  0
  150.3614  155.1926  132.5214 H   0  0  0  0  0  0  0  0  0  0  0  0
  145.7187  155.7970  133.1663 H   0  0  0  0  0  0  0  0  0  0  0  0
  1  2  1  0
  2  3  2  0
  2  4  1  0
  4  5  1  0
  5  6  1  0
  6  7  1  0
  6  8  2  0
  5  9  2  0
  9 10  1  0
 10 11  2  0
 11 12  1  0
 12 13  2  0
 13 14  1  0
 14 15  2  0
 15 16  1  0
 16 17  2  0
 17 18  1  0
 18 19  2  0
 13 20  1  0
 20 21  2  0
 21  4  1  0
 21 10  1  0
 19 14  1  0
  1 22  1  0
  1 23  1  0
  1 24  1  0
  7 25  1  0
  9 26  1  0
 11 27  1  0
 12 28  1  0
 15 29  1  0
 16 30  1  0
 17 31  1  0
 19 32  1  0
 20 33  1  0
M  CHG  1   7  -1
M  END
>  <UniqueID>  (26) 
26

>  <SMILES>  (26) 
CC(=O)n1c(C([NH-])=O)cc2ccc(-c3cccnc3)cc21

>  <Energy>  (26) 
80.45394450978901

>  <Genealogy>  (26) 
CC(=O)n1c(C([NH-])=O)cc2ccc(-c3cccnc3)cc21 (protonated)
CC(=O)n1c(C([NH-])=O)cc2ccc(-c3cccnc3)cc21 (3D coordinates assigned)
CC(=O)n1c(C([NH-])=O)cc2ccc(-c3cccnc3)cc21 (optimized conformer: 80.45394450978901 kcal/mol)

>  <smiles>  (26) 
CC(=O)n1c(C(N)=O)cc2ccc(-c3cccnc3)cc21

>  <score_type>  (26) 
oracle

>  <origin>  (26) 
adg

>  <m_score__min__energy>  (26) 
-7.2000000000000002

>  <m_primary>  (26) 
energy

$$$$
26:0
     RDKit          3D

 48 50  0  0  0  0  0  0  0  0999 V2000
  139.3310  158.0500  134.3950 C   0  0  0  0  0  0  0  0  0  0  0  0
  140.0220  156.7690  134.0610 C   0  0  0  0  0  0  0  0  0  0  0  0
  139.5130  155.8230  133.3030 O   0  0  0  0  0  0  0  0  0  0  0  0
  140.4190  154.8730  133.2610 C   0  0  0  0  0  0  0  0  0  0  0  0
  140.2750  153.8010  132.6160 O   0  0  0  0  0  0  0  0  0  0  0  0
  141.4940  155.1640  133.9590 O   0  0  0  0  0  0  0  0  0  0  0  0
  141.2750  156.3520  134.4770 C   0  0  0  0  0  0  0  0  0  0  0  0
  142.2450  157.0800  135.3570 C   0  0  0  0  0  0  0  0  0  0  0  0
  143.5330  157.1020  134.7470 O   0  0  0  0  0  0  0  0  0  0  0  0
  143.7920  157.7280  133.5230 C   0  0  0  0  0  0  0  0  0  0  0  0
  142.9820  157.6070  132.5640 O   0  0  0  0  0  0  0  0  0  0  0  0
  144.9970  158.4930  133.3530 N   0  0  0  0  0  0  0  0  0  0  0  0
  145.1510  159.8420  133.4780 C   0  0  0  0  0  0  0  0  0  0  0  0
  144.0640  160.8290  133.6420 C   0  0  0  0  0  0  0  0  0  0  0  0
  142.7180  160.4560  133.3560 N   0  0  0  0  0  0  0  0  0  0  0  0
  144.3060  161.9880  134.0720 O   0  0  0  0  0  0  0  0  0  0  0  0
  146.4920  160.1960  133.3460 C   0  0  0  0  0  0  0  0  0  0  0  0
  147.1620  159.0150  133.1260 C   0  0  0  0  0  0  0  0  0  0  0  0
  148.5220  158.7790  132.9420 C   0  0  0  0  0  0  0  0  0  0  0  0
  148.9410  157.4510  132.7620 C   0  0  0  0  0  0  0  0  0  0  0  0
  148.0010  156.3900  132.7700 C   0  0  0  0  0  0  0  0  0  0  0  0
  148.4670  154.9700  132.6110 C   0  0  0  0  0  0  0  0  0  0  0  0
  147.7030  154.0730  133.5290 C   0  0  0  0  0  0  0  0  0  0  0  0
  148.1300  153.8700  134.6970 O   0  0  0  0  0  0  0  0  0  0  0  0
  146.5380  153.4520  133.0600 O   0  0  0  0  0  0  0  0  0  0  0  0
  145.2390  153.9490  133.2270 C   0  0  0  0  0  0  0  0  0  0  0  0
  144.8260  154.3350  134.3550 O   0  0  0  0  0  0  0  0  0  0  0  0
  144.3340  154.0470  132.0370 C   0  0  0  0  0  0  0  0  0  0  0  0
  143.3020  155.0600  132.2530 N   0  0  0  0  0  0  0  0  0  0  0  0
  146.6310  156.6660  132.9770 C   0  0  0  0  0  0  0  0  0  0  0  0
  146.2380  158.0020  133.1330 C   0  0  0  0  0  0  0  0  0  0  0  0
  139.2715  158.1604  135.4878 H   0  0  0  0  0  0  0  0  0  0  0  0
  139.8967  158.8930  133.9716 H   0  0  0  0  0  0  0  0  0  0  0  0
  138.3158  158.0402  133.9716 H   0  0  0  0  0  0  0  0  0  0  0  0
  141.8959  158.1120  135.5087 H   0  0  0  0  0  0  0  0  0  0  0  0
  142.3125  156.5634  136.3258 H   0  0  0  0  0  0  0  0  0  0  0  0
  142.5030  159.7430  132.6250 H   0  0  0  0  0  0  0  0  0  0  0  0
  146.9236  161.2061  133.4052 H   0  0  0  0  0  0  0  0  0  0  0  0
  149.2457  159.6074  132.9378 H   0  0  0  0  0  0  0  0  0  0  0  0
  150.0087  157.2319  132.6134 H   0  0  0  0  0  0  0  0  0  0  0  0
  148.3063  154.6486  131.5713 H   0  0  0  0  0  0  0  0  0  0  0  0
  149.5370  154.9123  132.8595 H   0  0  0  0  0  0  0  0  0  0  0  0
  144.9287  154.3205  131.1529 H   0  0  0  0  0  0  0  0  0  0  0  0
  143.8462  153.0731  131.8833 H   0  0  0  0  0  0  0  0  0  0  0  0
  143.3550  155.7690  131.4850 H   0  0  0  0  0  0  0  0  0  0  0  0
  142.3550  154.6170  132.2450 H   0  0  0  0  0  0  0  0  0  0  0  0
  143.4600  155.5410  133.1700 H   0  0  0  0  0  0  0  0  0  0  0  0
  145.8914  155.8526  133.0148 H   0  0  0  0  0  0  0  0  0  0  0  0
  1  2  1  0
  2  3  1  0
  3  4  1  0
  4  5  2  0
  4  6  1  0
  6  7  1  0
  7  8  1  0
  8  9  1  0
  9 10  1  0
 10 11  2  0
 10 12  1  0
 12 13  1  0
 13 14  1  0
 14 15  1  0
 14 16  2  0
 13 17  2  0
 17 18  1  0
 18 19  2  0
 19 20  1  0
 20 21  2  0
 21 22  1  0
 22 23  1  0
 23 24  2  0
 23 25  1  0
 25 26  1  0
 26 27  2  0
 26 28  1  0
 28 29  1  0
 21 30  1  0
 30 31  2  0
  7  2  2  0
 31 12  1  0
 31 18  1  0
  1 32  1  0
  1 33  1  0
  1 34  1  0
  8 35  1  0
  8 36  1  0
 15 37  1  0
 17 38  1  0
 19 39  1  0
 20 40  1  0
 22 41  1  0
 22 42  1  0
 28 43  1  0
 28 44  1  0
 29 45  1  0
 29 46  1  0
 29 47  1  0
 30 48  1  0
M  CHG  2  15  -1  29   1
M  END
>  <UniqueID>  (27) 
27

>  <SMILES>  (27) 
Cc1oc(=O)oc1COC(=O)n1c(C([NH-])=O)cc2ccc(CC(=O)OC(=O)C[NH3+])cc21

>  <Energy>  (27) 
114.74567969726817

>  <Genealogy>  (27) 
Cc1oc(=O)oc1COC(=O)n1c(C([NH-])=O)cc2ccc(CC(=O)OC(=O)C[NH3+])cc21 (protonated)
Cc1oc(=O)oc1COC(=O)n1c(C([NH-])=O)cc2ccc(CC(=O)OC(=O)C[NH3+])cc21 (3D coordinates assigned)
Cc1oc(=O)oc1COC(=O)n1c(C([NH-])=O)cc2ccc(CC(=O)OC(=O)C[NH3+])cc21 (optimized conformer: 114.74567969726817 kcal/mol)

>  <smiles>  (27) 
Cc1oc(=O)oc1COC(=O)n1c(C(N)=O)cc2ccc(CC(=O)OC(=O)CN)cc21

>  <score_type>  (27) 
oracle

>  <origin>  (27) 
adg

>  <m_score__min__energy>  (27) 
-6.8600000000000003

>  <m_primary>  (27) 
energy

$$$$
27:0
     RDKit          3D

 36 38  0  0  0  0  0  0  0  0999 V2000
  147.7600  154.4380  133.9590 C   0  0  0  0  0  0  0  0  0  0  0  0
  147.1940  155.7400  134.0360 O   0  0  0  0  0  0  0  0  0  0  0  0
  146.9680  156.5320  132.9060 C   0  0  0  0  0  0  0  0  0  0  0  0
  146.9750  156.0130  131.7550 O   0  0  0  0  0  0  0  0  0  0  0  0
  146.7560  157.9450  133.0530 N   0  0  0  0  0  0  0  0  0  0  0  0
  147.6310  158.9530  132.7800 C   0  0  0  0  0  0  0  0  0  0  0  0
  149.0540  158.7900  132.4170 C   0  0  0  0  0  0  0  0  0  0  0  0
  149.5930  157.4840  132.2300 N   0  0  0  0  0  0  0  0  0  0  0  0
  149.7920  159.7930  132.2340 O   0  0  0  0  0  0  0  0  0  0  0  0
  147.0220  160.1920  132.9680 C   0  0  0  0  0  0  0  0  0  0  0  0
  145.7380  159.9100  133.3710 C   0  0  0  0  0  0  0  0  0  0  0  0
  144.6870  160.7680  133.6810 C   0  0  0  0  0  0  0  0  0  0  0  0
  143.4530  160.1980  134.0340 C   0  0  0  0  0  0  0  0  0  0  0  0
  143.2830  158.7910  134.0650 C   0  0  0  0  0  0  0  0  0  0  0  0
  141.9920  158.2490  134.4070 N   0  0  0  0  0  0  0  0  0  0  0  0
  140.7630  159.0390  134.4900 C   0  0  0  0  0  0  0  0  0  0  0  0
  140.0060  158.9730  133.1960 C   0  0  0  0  0  0  0  0  0  0  0  0
  139.6540  160.2970  132.2190 S   0  0  0  0  0  0  0  0  0  0  0  0
  138.7970  159.3860  131.0950 C   0  0  0  0  0  0  0  0  0  0  0  0
  138.7610  158.0830  131.4520 N   0  0  0  0  0  0  0  0  0  0  0  0
  139.4230  157.8480  132.6160 C   0  0  0  0  0  0  0  0  0  0  0  0
  139.5070  156.2340  133.3010 Cl  0  0  0  0  0  0  0  0  0  0  0  0
  144.3810  157.9520  133.7510 C   0  0  0  0  0  0  0  0  0  0  0  0
  145.6020  158.5480  133.4170 C   0  0  0  0  0  0  0  0  0  0  0  0
  147.9283  154.0507  134.9747 H   0  0  0  0  0  0  0  0  0  0  0  0
  147.0711  153.7699  133.4214 H   0  0  0  0  0  0  0  0  0  0  0  0
  148.7184  154.4860  133.4214 H   0  0  0  0  0  0  0  0  0  0  0  0
  149.0100  156.7130  131.8340 H   0  0  0  0  0  0  0  0  0  0  0  0
  147.4728  161.1851  132.8245 H   0  0  0  0  0  0  0  0  0  0  0  0
  144.8189  161.8596  133.6504 H   0  0  0  0  0  0  0  0  0  0  0  0
  142.6067  160.8524  134.2900 H   0  0  0  0  0  0  0  0  0  0  0  0
  141.9220  157.2300  134.6310 H   0  0  0  0  0  0  0  0  0  0  0  0
  140.1319  158.6424  135.2990 H   0  0  0  0  0  0  0  0  0  0  0  0
  141.0275  160.0871  134.6938 H   0  0  0  0  0  0  0  0  0  0  0  0
  138.3276  159.7964  130.1888 H   0  0  0  0  0  0  0  0  0  0  0  0
  144.2758  156.8572  133.7694 H   0  0  0  0  0  0  0  0  0  0  0  0
  1  2  1  0
  2  3  1  0
  3  4  2  0
  3  5  1  0
  5  6  1  0
  6  7  1  0
  7  8  1  0
  7  9  2  0
  6 10  2  0
 10 11  1  0
 11 12  2  0
 12 13  1  0
 13 14  2  0
 14 15  1  0
 15 16  1  0
 16 17  1  0
 17 18  1  0
 18 19  1  0
 19 20  2  0
 20 21  1  0
 21 22  1  0
 14 23  1  0
 23 24  2  0
 24  5  1  0
 24 11  1  0
 21 17  2  0
  1 25  1  0
  1 26  1  0
  1 27  1  0
  8 28  1  0
 10 29  1  0
 12 30  1  0
 13 31  1  0
 15 32  1  0
 16 33  1  0
 16 34  1  0
 19 35  1  0
 23 36  1  0
M  CHG  1   8  -1
M  END
>  <UniqueID>  (28) 
28

>  <SMILES>  (28) 
COC(=O)n1c(C([NH-])=O)cc2ccc(NCc3scnc3Cl)cc21

>  <Energy>  (28) 
103.00160937400362

>  <Genealogy>  (28) 
COC(=O)n1c(C([NH-])=O)cc2ccc(NCc3scnc3Cl)cc21 (protonated)
COC(=O)n1c(C([NH-])=O)cc2ccc(NCc3scnc3Cl)cc21 (3D coordinates assigned)
COC(=O)n1c(C([NH-])=O)cc2ccc(NCc3scnc3Cl)cc21 (optimized conformer: 103.00160937400362 kcal/mol)

>  <smiles>  (28) 
COC(=O)n1c(C(N)=O)cc2ccc(NCc3scnc3Cl)cc21

>  <score_type>  (28) 
oracle

>  <origin>  (28) 
adg

>  <m_score__min__energy>  (28) 
-7.8200000000000003

>  <m_primary>  (28) 
energy

$$$$
28:0
     RDKit          3D

 28 29  0  0  0  0  0  0  0  0999 V2000
  149.8480  157.8220  131.9360 N   0  0  0  0  0  0  0  0  0  0  0  0
  149.2910  159.1050  132.2100 C   0  0  0  0  0  0  0  0  0  0  0  0
  149.9640  160.1380  131.9540 O   0  0  0  0  0  0  0  0  0  0  0  0
  147.9150  159.2400  132.7350 C   0  0  0  0  0  0  0  0  0  0  0  0
  147.3030  160.4680  132.9690 C   0  0  0  0  0  0  0  0  0  0  0  0
  146.0180  160.1680  133.3570 C   0  0  0  0  0  0  0  0  0  0  0  0
  144.9780  161.0100  133.7350 C   0  0  0  0  0  0  0  0  0  0  0  0
  143.7640  160.4230  134.1280 C   0  0  0  0  0  0  0  0  0  0  0  0
  143.6070  159.0120  134.1330 C   0  0  0  0  0  0  0  0  0  0  0  0
  142.3170  158.3920  134.6150 C   0  0  0  0  0  0  0  0  0  0  0  0
  142.3720  157.0130  134.5050 F   0  0  0  0  0  0  0  0  0  0  0  0
  142.0950  158.7080  135.9440 F   0  0  0  0  0  0  0  0  0  0  0  0
  140.9220  159.0110  133.6210 P   0  0  2  0  0  0  0  0  0  0  0  0
  140.9770  160.5190  133.5450 O   0  0  0  0  0  0  0  0  0  0  0  0
  139.4640  158.5410  134.3390 O   0  0  0  0  0  0  0  0  0  0  0  0
  141.0050  158.3640  132.0600 O   0  0  0  0  0  0  0  0  0  0  0  0
  144.6960  158.1900  133.7600 C   0  0  0  0  0  0  0  0  0  0  0  0
  145.8870  158.8030  133.3550 C   0  0  0  0  0  0  0  0  0  0  0  0
  147.0470  158.2170  132.9780 N   0  0  0  0  0  0  0  0  0  0  0  0
  147.3200  156.8070  132.9480 C   0  0  0  0  0  0  0  0  0  0  0  0
  147.3340  156.1850  131.8530 O   0  0  0  0  0  0  0  0  0  0  0  0
  147.5430  156.1100  134.1290 O   0  0  0  0  0  0  0  0  0  0  0  0
  149.2780  157.0750  131.4820 H   0  0  0  0  0  0  0  0  0  0  0  0
  147.7519  161.4669  132.8655 H   0  0  0  0  0  0  0  0  0  0  0  0
  145.1023  162.1029  133.7265 H   0  0  0  0  0  0  0  0  0  0  0  0
  142.9248  161.0642  134.4356 H   0  0  0  0  0  0  0  0  0  0  0  0
  141.9120  158.5980  131.7360 H   0  0  0  0  0  0  0  0  0  0  0  0
  144.6087  157.0938  133.7876 H   0  0  0  0  0  0  0  0  0  0  0  0
  1  2  1  0
  2  3  2  0
  2  4  1  0
  4  5  2  0
  5  6  1  0
  6  7  2  0
  7  8  1  0
  8  9  2  0
  9 10  1  0
 10 11  1  0
 10 12  1  0
 10 13  1  0
 13 14  2  0
 13 15  1  1
 13 16  1  0
  9 17  1  0
 17 18  2  0
 18 19  1  0
 19 20  1  0
 20 21  2  0
 20 22  1  0
 19  4  1  0
 18  6  1  0
  1 23  1  0
  5 24  1  0
  7 25  1  0
  8 26  1  0
 16 27  1  0
 17 28  1  0
M  CHG  3   1  -1  15  -1  22  -1
M  END
>  <UniqueID>  (29) 
29

>  <SMILES>  (29) 
[NH-]C(=O)c1cc2ccc(C(F)(F)[P@](=O)([O-])O)cc2n1C(=O)[O-]

>  <Energy>  (29) 
63.97939680607774

>  <Genealogy>  (29) 
[NH-]C(=O)c1cc2ccc(C(F)(F)P(=O)([O-])O)cc2n1C(=O)[O-] (protonated)
[NH-]C(=O)c1cc2ccc(C(F)(F)[P@](=O)([O-])O)cc2n1C(=O)[O-] (chirality)
[NH-]C(=O)c1cc2ccc(C(F)(F)[P@](=O)([O-])O)cc2n1C(=O)[O-] (3D coordinates assigned)
[NH-]C(=O)c1cc2ccc(C(F)(F)[P@](=O)([O-])O)cc2n1C(=O)[O-] (optimized conformer: 63.97939680607774 kcal/mol)

>  <smiles>  (29) 
NC(=O)c1cc2ccc(C(F)(F)P(=O)(O)O)cc2n1C(=O)O

>  <score_type>  (29) 
oracle

>  <origin>  (29) 
adg

>  <m_score__min__energy>  (29) 
-6.2199999999999998

>  <m_primary>  (29) 
energy

$$$$
29:0
     RDKit          3D

 29 31  0  0  0  0  0  0  0  0999 V2000
  148.5020  160.7840  131.2780 N   0  0  0  0  0  0  0  0  0  0  0  0
  147.9820  160.0910  132.0440 C   0  0  0  0  0  0  0  0  0  0  0  0
  147.3210  159.2110  133.0180 C   0  0  0  0  0  0  0  0  0  0  0  0
  145.9060  159.5220  133.4230 C   0  0  0  0  0  0  0  0  0  0  0  0
  145.5280  160.8560  133.7120 C   0  0  0  0  0  0  0  0  0  0  0  0
  144.2140  161.1560  134.1130 C   0  0  0  0  0  0  0  0  0  0  0  0
  143.3140  160.1020  134.2350 C   0  0  0  0  0  0  0  0  0  0  0  0
  141.9820  160.1140  134.5820 C   0  0  0  0  0  0  0  0  0  0  0  0
  141.5780  158.7810  134.5390 C   0  0  0  0  0  0  0  0  0  0  0  0
  140.2260  158.3310  134.9310 C   0  0  0  0  0  0  0  0  0  0  0  0
  139.8580  158.2170  136.3030 N   0  0  0  0  0  0  0  0  0  0  0  0
  139.3670  158.0910  134.0410 O   0  0  0  0  0  0  0  0  0  0  0  0
  142.6170  157.9770  134.1730 N   0  0  0  0  0  0  0  0  0  0  0  0
  142.5950  156.5600  133.9310 C   0  0  0  0  0  0  0  0  0  0  0  0
  141.6210  156.0330  133.3330 O   0  0  0  0  0  0  0  0  0  0  0  0
  143.6600  155.7630  134.3330 O   0  0  0  0  0  0  0  0  0  0  0  0
  143.6730  158.8010  133.9930 C   0  0  0  0  0  0  0  0  0  0  0  0
  144.9690  158.4760  133.5740 C   0  0  0  0  0  0  0  0  0  0  0  0
  147.7090  157.7390  132.9500 C   0  0  0  0  0  0  0  0  0  0  0  0
  148.2250  158.6110  134.0860 C   0  0  0  0  0  0  0  0  0  0  0  0
  146.2686  161.6643  133.6220 H   0  0  0  0  0  0  0  0  0  0  0  0
  143.9074  162.1912  134.3236 H   0  0  0  0  0  0  0  0  0  0  0  0
  141.3673  160.9894  134.8386 H   0  0  0  0  0  0  0  0  0  0  0  0
  139.4760  159.0360  136.8260 H   0  0  0  0  0  0  0  0  0  0  0  0
  145.2501  157.4327  133.3677 H   0  0  0  0  0  0  0  0  0  0  0  0
  146.9568  156.9620  133.1510 H   0  0  0  0  0  0  0  0  0  0  0  0
  148.1752  157.0915  132.1928 H   0  0  0  0  0  0  0  0  0  0  0  0
  147.8458  158.4637  135.1080 H   0  0  0  0  0  0  0  0  0  0  0  0
  149.2190  158.8542  134.4896 H   0  0  0  0  0  0  0  0  0  0  0  0
  1  2  3  0
  2  3  1  0
  3  4  1  0
  4  5  2  0
  5  6  1  0
  6  7  2  0
  7  8  1  0
  8  9  2  0
  9 10  1  0
 10 11  1  0
 10 12  2  0
  9 13  1  0
 13 14  1  0
 14 15  2  0
 14 16  1  0
 13 17  1  0
 17 18  2  0
  3 19  1  0
 19 20  1  0
 20  3  1  0
 18  4  1  0
 17  7  1  0
  5 21  1  0
  6 22  1  0
  8 23  1  0
 11 24  1  0
 18 25  1  0
 19 26  1  0
 19 27  1  0
 20 28  1  0
 20 29  1  0
M  CHG  2  11  -1  16  -1
M  END
>  <UniqueID>  (30) 
30

>  <SMILES>  (30) 
N#CC1(c2ccc3cc(C([NH-])=O)n(C(=O)[O-])c3c2)CC1

>  <Energy>  (30) 
336.0900758550265

>  <Genealogy>  (30) 
N#CC1(c2ccc3cc(C([NH-])=O)n(C(=O)[O-])c3c2)CC1 (protonated)
N#CC1(c2ccc3cc(C([NH-])=O)n(C(=O)[O-])c3c2)CC1 (3D coordinates assigned)
N#CC1(c2ccc3cc(C([NH-])=O)n(C(=O)[O-])c3c2)CC1 (nonaromatic ring conformer: 336.0900758550265 kcal/mol)

>  <smiles>  (30) 
N#CC1(c2ccc3cc(C(N)=O)n(C(=O)O)c3c2)CC1

>  <score_type>  (30) 
oracle

>  <origin>  (30) 
adg

>  <m_score__min__energy>  (30) 
-6.75

>  <m_primary>  (30) 
energy

$$$$
30:0
     RDKit          3D

 32 33  0  0  0  0  0  0  0  0999 V2000
  141.6990  158.6390  134.9440 C   0  0  0  0  0  0  0  0  0  0  0  0
  143.1030  158.4320  134.8610 O   0  0  0  0  0  0  0  0  0  0  0  0
  143.7870  158.3790  133.6420 C   0  0  0  0  0  0  0  0  0  0  0  0
  143.2470  157.8500  132.6330 O   0  0  0  0  0  0  0  0  0  0  0  0
  145.1180  158.9100  133.5490 N   0  0  0  0  0  0  0  0  0  0  0  0
  145.5030  160.2190  133.5690 C   0  0  0  0  0  0  0  0  0  0  0  0
  144.6250  161.3790  133.8340 C   0  0  0  0  0  0  0  0  0  0  0  0
  143.2110  161.2380  133.7200 N   0  0  0  0  0  0  0  0  0  0  0  0
  145.1110  162.5040  134.1230 O   0  0  0  0  0  0  0  0  0  0  0  0
  146.8800  160.3260  133.3840 C   0  0  0  0  0  0  0  0  0  0  0  0
  147.3330  159.0330  133.2570 C   0  0  0  0  0  0  0  0  0  0  0  0
  148.6210  158.5550  133.0370 C   0  0  0  0  0  0  0  0  0  0  0  0
  148.7960  157.1670  132.9130 C   0  0  0  0  0  0  0  0  0  0  0  0
  147.6870  156.2880  133.0120 C   0  0  0  0  0  0  0  0  0  0  0  0
  147.8800  154.8080  132.8290 C   0  0  0  0  0  0  0  0  0  0  0  0
  149.3540  154.4820  132.5750 C   0  0  0  0  0  0  0  0  0  0  0  0
  149.4750  153.2280  131.9620 O   0  0  0  0  0  0  0  0  0  0  0  0
  146.3920  156.8130  133.2220 C   0  0  0  0  0  0  0  0  0  0  0  0
  146.2500  158.1980  133.3600 C   0  0  0  0  0  0  0  0  0  0  0  0
  141.3968  158.6836  136.0007 H   0  0  0  0  0  0  0  0  0  0  0  0
  141.4379  159.5854  134.4477 H   0  0  0  0  0  0  0  0  0  0  0  0
  141.1759  157.8083  134.4477 H   0  0  0  0  0  0  0  0  0  0  0  0
  142.7610  160.2960  133.7510 H   0  0  0  0  0  0  0  0  0  0  0  0
  147.4780  161.2485  133.3473 H   0  0  0  0  0  0  0  0  0  0  0  0
  149.4760  159.2431  132.9625 H   0  0  0  0  0  0  0  0  0  0  0  0
  149.8019  156.7579  132.7376 H   0  0  0  0  0  0  0  0  0  0  0  0
  147.5459  154.2852  133.7373 H   0  0  0  0  0  0  0  0  0  0  0  0
  147.2903  154.4791  131.9606 H   0  0  0  0  0  0  0  0  0  0  0  0
  149.7879  155.2505  131.9184 H   0  0  0  0  0  0  0  0  0  0  0  0
  149.8877  154.4637  133.5367 H   0  0  0  0  0  0  0  0  0  0  0  0
  150.4480  153.0570  131.8570 H   0  0  0  0  0  0  0  0  0  0  0  0
  145.5168  156.1489  133.2757 H   0  0  0  0  0  0  0  0  0  0  0  0
  1  2  1  0
  2  3  1  0
  3  4  2  0
  3  5  1  0
  5  6  1  0
  6  7  1  0
  7  8  1  0
  7  9  2  0
  6 10  2  0
 10 11  1  0
 11 12  2  0
 12 13  1  0
 13 14  2  0
 14 15  1  0
 15 16  1  0
 16 17  1  0
 14 18  1  0
 18 19  2  0
 19  5  1  0
 19 11  1  0
  1 20  1  0
  1 21  1  0
  1 22  1  0
  8 23  1  0
 10 24  1  0
 12 25  1  0
 13 26  1  0
 15 27  1  0
 15 28  1  0
 16 29  1  0
 16 30  1  0
 17 31  1  0
 18 32  1  0
M  CHG  1   8  -1
M  END
>  <UniqueID>  (31) 
31

>  <SMILES>  (31) 
COC(=O)n1c(C([NH-])=O)cc2ccc(CCO)cc21

>  <Energy>  (31) 
65.89643881722589

>  <Genealogy>  (31) 
COC(=O)n1c(C([NH-])=O)cc2ccc(CCO)cc21 (protonated)
COC(=O)n1c(C([NH-])=O)cc2ccc(CCO)cc21 (3D coordinates assigned)
COC(=O)n1c(C([NH-])=O)cc2ccc(CCO)cc21 (optimized conformer: 65.89643881722589 kcal/mol)

>  <smiles>  (31) 
COC(=O)n1c(C(N)=O)cc2ccc(CCO)cc21

>  <score_type>  (31) 
oracle

>  <origin>  (31) 
adg

>  <m_score__min__energy>  (31) 
-5.8399999999999999

>  <m_primary>  (31) 
energy

$$$$
31:0
     RDKit          3D

 35 36  0  0  0  0  0  0  0  0999 V2000
  145.8540  162.7320  134.7950 C   0  0  0  0  0  0  0  0  0  0  0  0
  144.7210  162.5840  134.1040 C   0  0  0  0  0  0  0  0  0  0  0  0
  143.9960  161.2730  134.0630 C   0  0  0  0  0  0  0  0  0  0  0  0
  144.9200  160.2090  134.2630 O   0  0  0  0  0  0  0  0  0  0  0  0
  145.0310  159.1300  133.3820 C   0  0  0  0  0  0  0  0  0  0  0  0
  144.0450  158.7790  132.6780 O   0  0  0  0  0  0  0  0  0  0  0  0
  146.2680  158.4040  133.2960 N   0  0  0  0  0  0  0  0  0  0  0  0
  146.5220  157.1390  133.7340 C   0  0  0  0  0  0  0  0  0  0  0  0
  145.6120  156.3030  134.5440 C   0  0  0  0  0  0  0  0  0  0  0  0
  144.2050  156.5290  134.4890 N   0  0  0  0  0  0  0  0  0  0  0  0
  146.0590  155.3640  135.2520 O   0  0  0  0  0  0  0  0  0  0  0  0
  147.8150  156.7510  133.3870 C   0  0  0  0  0  0  0  0  0  0  0  0
  148.3520  157.8290  132.7210 C   0  0  0  0  0  0  0  0  0  0  0  0
  149.6060  157.9850  132.1380 C   0  0  0  0  0  0  0  0  0  0  0  0
  149.8810  159.1980  131.4830 C   0  0  0  0  0  0  0  0  0  0  0  0
  148.9060  160.2240  131.4270 C   0  0  0  0  0  0  0  0  0  0  0  0
  149.1960  161.4990  130.6820 C   0  0  0  0  0  0  0  0  0  0  0  0
  149.6430  161.2020  129.2560 C   0  0  0  0  0  0  0  0  0  0  0  0
  147.6400  160.0250  132.0190 C   0  0  0  0  0  0  0  0  0  0  0  0
  147.3990  158.8140  132.6800 C   0  0  0  0  0  0  0  0  0  0  0  0
  146.3667  163.7051  134.8088 H   0  0  0  0  0  0  0  0  0  0  0  0
  146.2747  161.8808  135.3504 H   0  0  0  0  0  0  0  0  0  0  0  0
  144.3108  163.4431  133.5529 H   0  0  0  0  0  0  0  0  0  0  0  0
  143.2349  161.2508  134.8569 H   0  0  0  0  0  0  0  0  0  0  0  0
  143.5102  161.1551  133.0831 H   0  0  0  0  0  0  0  0  0  0  0  0
  143.8200  157.4960  134.4040 H   0  0  0  0  0  0  0  0  0  0  0  0
  148.3024  155.7882  133.6001 H   0  0  0  0  0  0  0  0  0  0  0  0
  150.3584  157.1842  132.1882 H   0  0  0  0  0  0  0  0  0  0  0  0
  150.8620  159.3518  131.0098 H   0  0  0  0  0  0  0  0  0  0  0  0
  148.2853  162.1153  130.6536 H   0  0  0  0  0  0  0  0  0  0  0  0
  150.0045  162.0347  131.2009 H   0  0  0  0  0  0  0  0  0  0  0  0
  150.5590  160.5934  129.2781 H   0  0  0  0  0  0  0  0  0  0  0  0
  148.8493  160.6510  128.7302 H   0  0  0  0  0  0  0  0  0  0  0  0
  149.8434  162.1472  128.7302 H   0  0  0  0  0  0  0  0  0  0  0  0
  146.8626  160.8012  131.9626 H   0  0  0  0  0  0  0  0  0  0  0  0
  1  2  2  0
  2  3  1  0
  3  4  1  0
  4  5  1  0
  5  6  2  0
  5  7  1  0
  7  8  1  0
  8  9  1  0
  9 10  1  0
  9 11  2  0
  8 12  2  0
 12 13  1  0
 13 14  2  0
 14 15  1  0
 15 16  2  0
 16 17  1  0
 17 18  1  0
 16 19  1  0
 19 20  2  0
 20  7  1  0
 20 13  1  0
  1 21  1  0
  1 22  1  0
  2 23  1  0
  3 24  1  0
  3 25  1  0
 10 26  1  0
 12 27  1  0
 14 28  1  0
 15 29  1  0
 17 30  1  0
 17 31  1  0
 18 32  1  0
 18 33  1  0
 18 34  1  0
 19 35  1  0
M  CHG  1  10  -1
M  END
>  <UniqueID>  (32) 
32

>  <SMILES>  (32) 
C=CCOC(=O)n1c(C([NH-])=O)cc2ccc(CC)cc21

>  <Energy>  (32) 
65.16195590318485

>  <Genealogy>  (32) 
C=CCOC(=O)n1c(C([NH-])=O)cc2ccc(CC)cc21 (protonated)
C=CCOC(=O)n1c(C([NH-])=O)cc2ccc(CC)cc21 (3D coordinates assigned)
C=CCOC(=O)n1c(C([NH-])=O)cc2ccc(CC)cc21 (optimized conformer: 65.16195590318485 kcal/mol)

>  <smiles>  (32) 
C=CCOC(=O)n1c(C(N)=O)cc2ccc(CC)cc21

>  <score_type>  (32) 
oracle

>  <origin>  (32) 
adg

>  <m_score__min__energy>  (32) 
-6.5700000000000003

>  <m_primary>  (32) 
energy

$$$$
32:0
     RDKit          3D

 54 56  0  0  0  0  0  0  0  0999 V2000
  139.8090  156.7330  132.9530 C   0  0  0  0  0  0  0  0  0  0  0  0
  141.0060  155.9430  133.2630 N   0  0  0  0  0  0  0  0  0  0  0  0
  141.4850  156.2460  134.6200 C   0  0  0  0  0  0  0  0  0  0  0  0
  140.7280  154.5250  133.1340 C   0  0  0  0  0  0  0  0  0  0  0  0
  139.6720  154.1570  132.6380 O   0  0  0  0  0  0  0  0  0  0  0  0
  141.6820  153.4980  133.7120 C   0  0  0  0  0  0  0  0  0  0  0  0
  142.8410  153.0450  132.7900 C   0  0  2  0  0  0  0  0  0  0  0  0
  143.1450  151.5700  132.8780 C   0  0  0  0  0  0  0  0  0  0  0  0
  144.1070  151.1050  132.2090 O   0  0  0  0  0  0  0  0  0  0  0  0
  142.4320  150.7460  133.7580 O   0  0  0  0  0  0  0  0  0  0  0  0
  141.0110  150.6200  133.7410 C   0  0  0  0  0  0  0  0  0  0  0  0
  140.5430  149.9630  132.4700 C   0  0  0  0  0  0  0  0  0  0  0  0
  139.9100  150.7240  131.4740 C   0  0  0  0  0  0  0  0  0  0  0  0
  139.4890  150.1190  130.2870 C   0  0  0  0  0  0  0  0  0  0  0  0
  139.7000  148.7530  130.0840 C   0  0  0  0  0  0  0  0  0  0  0  0
  140.3320  147.9900  131.0690 C   0  0  0  0  0  0  0  0  0  0  0  0
  140.7530  148.5910  132.2580 C   0  0  0  0  0  0  0  0  0  0  0  0
  144.0820  153.9140  132.9360 C   0  0  0  0  0  0  0  0  0  0  0  0
  145.3520  153.2850  133.0330 C   0  0  0  0  0  0  0  0  0  0  0  0
  146.5270  154.0460  133.1480 C   0  0  0  0  0  0  0  0  0  0  0  0
  146.4090  155.4310  133.1490 C   0  0  0  0  0  0  0  0  0  0  0  0
  147.3810  156.4010  133.2510 C   0  0  0  0  0  0  0  0  0  0  0  0
  146.6980  157.6150  133.1830 C   0  0  0  0  0  0  0  0  0  0  0  0
  147.3760  158.9280  133.1560 C   0  0  0  0  0  0  0  0  0  0  0  0
  147.0540  159.8720  132.1360 N   0  0  0  0  0  0  0  0  0  0  0  0
  148.2100  159.2430  134.0460 O   0  0  0  0  0  0  0  0  0  0  0  0
  145.3560  157.4020  133.0540 N   0  0  0  0  0  0  0  0  0  0  0  0
  144.3070  158.3810  132.9980 C   0  0  0  0  0  0  0  0  0  0  0  0
  144.5410  159.5810  133.2970 O   0  0  0  0  0  0  0  0  0  0  0  0
  143.0150  158.0060  132.6510 O   0  0  0  0  0  0  0  0  0  0  0  0
  145.1980  156.0610  133.0320 C   0  0  0  0  0  0  0  0  0  0  0  0
  144.0100  155.3310  132.9370 C   0  0  0  0  0  0  0  0  0  0  0  0
  139.3270  157.0511  133.8892 H   0  0  0  0  0  0  0  0  0  0  0  0
  140.0961  157.6197  132.3687 H   0  0  0  0  0  0  0  0  0  0  0  0
  139.1066  156.1205  132.3687 H   0  0  0  0  0  0  0  0  0  0  0  0
  141.7580  156.2220  132.5930 H   0  0  0  0  0  0  0  0  0  0  0  0
  140.7957  155.8100  135.3580 H   0  0  0  0  0  0  0  0  0  0  0  0
  142.4889  155.8183  134.7585 H   0  0  0  0  0  0  0  0  0  0  0  0
  141.5287  157.3364  134.7585 H   0  0  0  0  0  0  0  0  0  0  0  0
  142.1258  153.9273  134.6224 H   0  0  0  0  0  0  0  0  0  0  0  0
  141.0748  152.5973  133.8851 H   0  0  0  0  0  0  0  0  0  0  0  0
  142.4738  153.2013  131.7649 H   0  0  0  0  0  0  0  0  0  0  0  0
  140.6937  150.0097  134.5994 H   0  0  0  0  0  0  0  0  0  0  0  0
  140.5692  151.6257  133.7990 H   0  0  0  0  0  0  0  0  0  0  0  0
  139.7450  151.8005  131.6289 H   0  0  0  0  0  0  0  0  0  0  0  0
  138.9908  150.7191  129.5113 H   0  0  0  0  0  0  0  0  0  0  0  0
  139.3686  148.2782  129.1487 H   0  0  0  0  0  0  0  0  0  0  0  0
  140.4984  146.9146  130.9082 H   0  0  0  0  0  0  0  0  0  0  0  0
  141.2509  147.9870  133.0309 H   0  0  0  0  0  0  0  0  0  0  0  0
  145.4161  152.1870  133.0179 H   0  0  0  0  0  0  0  0  0  0  0  0
  147.5104  153.5608  133.2346 H   0  0  0  0  0  0  0  0  0  0  0  0
  148.4649  156.2505  133.3624 H   0  0  0  0  0  0  0  0  0  0  0  0
  146.2190  160.4920  132.2220 H   0  0  0  0  0  0  0  0  0  0  0  0
  143.0397  155.8441  132.8645 H   0  0  0  0  0  0  0  0  0  0  0  0
  1  2  1  0
  2  3  1  0
  2  4  1  0
  4  5  2  0
  4  6  1  0
  6  7  1  0
  7  8  1  0
  8  9  2  0
  8 10  1  0
 10 11  1  0
 11 12  1  0
 12 13  2  0
 13 14  1  0
 14 15  2  0
 15 16  1  0
 16 17  2  0
  7 18  1  0
 18 19  2  0
 19 20  1  0
 20 21  2  0
 21 22  1  0
 22 23  2  0
 23 24  1  0
 24 25  1  0
 24 26  2  0
 23 27  1  0
 27 28  1  0
 28 29  2  0
 28 30  1  0
 27 31  1  0
 31 32  2  0
 17 12  1  0
 32 18  1  0
 31 21  1  0
  1 33  1  0
  1 34  1  0
  1 35  1  0
  2 36  1  0
  3 37  1  0
  3 38  1  0
  3 39  1  0
  6 40  1  0
  6 41  1  0
  7 42  1  6
 11 43  1  0
 11 44  1  0
 13 45  1  0
 14 46  1  0
 15 47  1  0
 16 48  1  0
 17 49  1  0
 19 50  1  0
 20 51  1  0
 22 52  1  0
 25 53  1  0
 32 54  1  0
M  CHG  3   2   1  25  -1  30  -1
M  END
>  <UniqueID>  (33) 
33

>  <SMILES>  (33) 
C[NH+](C)C(=O)C[C@H](C(=O)OCc1ccccc1)c1ccc2cc(C([NH-])=O)n(C(=O)[O-])c2c1

>  <Energy>  (33) 
94.81849344724404

>  <Genealogy>  (33) 
C[NH+](C)C(=O)CC(C(=O)OCc1ccccc1)c1ccc2cc(C([NH-])=O)n(C(=O)[O-])c2c1 (protonated)
C[NH+](C)C(=O)C[C@H](C(=O)OCc1ccccc1)c1ccc2cc(C([NH-])=O)n(C(=O)[O-])c2c1 (chirality)
C[NH+](C)C(=O)C[C@H](C(=O)OCc1ccccc1)c1ccc2cc(C([NH-])=O)n(C(=O)[O-])c2c1 (3D coordinates assigned)
C[NH+](C)C(=O)C[C@H](C(=O)OCc1ccccc1)c1ccc2cc(C([NH-])=O)n(C(=O)[O-])c2c1 (optimized conformer: 94.81849344724404 kcal/mol)

>  <smiles>  (33) 
CN(C)C(=O)CC(C(=O)OCc1ccccc1)c1ccc2cc(C(N)=O)n(C(=O)O)c2c1

>  <score_type>  (33) 
oracle

>  <origin>  (33) 
adg

>  <m_score__min__energy>  (33) 
-8.5199999999999996

>  <m_primary>  (33) 
energy

$$$$
33:0
     RDKit          3D

 46 48  0  0  0  0  0  0  0  0999 V2000
  151.5000  149.2390  129.1630 C   0  0  0  0  0  0  0  0  0  0  0  0
  151.1590  150.2760  130.0540 O   0  0  0  0  0  0  0  0  0  0  0  0
  150.3250  149.7620  131.0720 C   0  0  0  0  0  0  0  0  0  0  0  0
  149.2020  150.7600  131.3610 C   0  0  0  0  0  0  0  0  0  0  0  0
  149.7050  152.1400  131.3200 N   0  0  0  0  0  0  0  0  0  0  0  0
  149.5430  152.8100  132.6240 C   0  0  0  0  0  0  0  0  0  0  0  0
  148.1430  152.7140  133.1500 C   0  0  0  0  0  0  0  0  0  0  0  0
  147.8430  154.1550  133.0570 N   0  0  0  0  0  0  0  0  0  0  0  0
  146.7490  155.0270  133.3470 C   0  0  0  0  0  0  0  0  0  0  0  0
  145.5480  154.5030  133.8810 C   0  0  0  0  0  0  0  0  0  0  0  0
  144.4700  155.3530  134.1840 C   0  0  0  0  0  0  0  0  0  0  0  0
  144.6260  156.7160  133.9380 C   0  0  0  0  0  0  0  0  0  0  0  0
  143.7610  157.7650  134.1560 C   0  0  0  0  0  0  0  0  0  0  0  0
  144.4480  158.9040  133.7360 C   0  0  0  0  0  0  0  0  0  0  0  0
  143.8730  160.2660  133.7420 C   0  0  0  0  0  0  0  0  0  0  0  0
  144.7350  161.4010  133.7560 N   0  0  0  0  0  0  0  0  0  0  0  0
  142.6250  160.4360  133.7530 O   0  0  0  0  0  0  0  0  0  0  0  0
  145.6870  158.5680  133.2830 N   0  0  0  0  0  0  0  0  0  0  0  0
  146.7240  159.4440  132.8180 C   0  0  0  0  0  0  0  0  0  0  0  0
  146.5500  160.1120  131.7640 O   0  0  0  0  0  0  0  0  0  0  0  0
  148.0480  159.4840  133.5130 C   0  0  0  0  0  0  0  0  0  0  0  0
  149.0950  159.0090  132.6030 C   0  0  0  0  0  0  0  0  0  0  0  0
  149.9190  158.6340  131.8840 N   0  0  0  0  0  0  0  0  0  0  0  0
  145.7810  157.2300  133.4100 C   0  0  0  0  0  0  0  0  0  0  0  0
  146.8720  156.4110  133.1080 C   0  0  0  0  0  0  0  0  0  0  0  0
  149.2170  154.2720  132.5340 C   0  0  0  0  0  0  0  0  0  0  0  0
  151.7936  148.3462  129.7346 H   0  0  0  0  0  0  0  0  0  0  0  0
  150.6331  149.0001  128.5294 H   0  0  0  0  0  0  0  0  0  0  0  0
  152.3395  149.5612  128.5294 H   0  0  0  0  0  0  0  0  0  0  0  0
  149.8910  148.8062  130.7432 H   0  0  0  0  0  0  0  0  0  0  0  0
  150.9167  149.6001  131.9851 H   0  0  0  0  0  0  0  0  0  0  0  0
  148.4116  150.6419  130.6051 H   0  0  0  0  0  0  0  0  0  0  0  0
  148.8039  150.5603  132.3668 H   0  0  0  0  0  0  0  0  0  0  0  0
  150.7190  152.1140  131.0520 H   0  0  0  0  0  0  0  0  0  0  0  0
  150.4364  152.4189  133.1327 H   0  0  0  0  0  0  0  0  0  0  0  0
  147.4900  152.1020  132.5104 H   0  0  0  0  0  0  0  0  0  0  0  0
  148.0078  152.2360  134.1315 H   0  0  0  0  0  0  0  0  0  0  0  0
  145.4571  153.4216  134.0605 H   0  0  0  0  0  0  0  0  0  0  0  0
  143.5335  154.9551  134.6018 H   0  0  0  0  0  0  0  0  0  0  0  0
  142.7442  157.7153  134.5728 H   0  0  0  0  0  0  0  0  0  0  0  0
  145.4860  161.5130  133.0410 H   0  0  0  0  0  0  0  0  0  0  0  0
  148.2699  160.5170  133.8191 H   0  0  0  0  0  0  0  0  0  0  0  0
  148.0143  158.8362  134.4014 H   0  0  0  0  0  0  0  0  0  0  0  0
  147.8000  156.8338  132.6957 H   0  0  0  0  0  0  0  0  0  0  0  0
  149.2482  154.6518  131.5021 H   0  0  0  0  0  0  0  0  0  0  0  0
  149.8929  154.9699  133.0498 H   0  0  0  0  0  0  0  0  0  0  0  0
  1  2  1  0
  2  3  1  0
  3  4  1  0
  4  5  1  0
  5  6  1  0
  6  7  1  0
  7  8  1  0
  8  9  1  0
  9 10  2  0
 10 11  1  0
 11 12  2  0
 12 13  1  0
 13 14  2  0
 14 15  1  0
 15 16  1  0
 15 17  2  0
 14 18  1  0
 18 19  1  0
 19 20  2  0
 19 21  1  0
 21 22  1  0
 22 23  3  0
 18 24  1  0
 24 25  2  0
  8 26  1  0
 26  6  1  0
 25  9  1  0
 24 12  1  0
  1 27  1  0
  1 28  1  0
  1 29  1  0
  3 30  1  0
  3 31  1  0
  4 32  1  0
  4 33  1  0
  5 34  1  0
  6 35  1  0
  7 36  1  0
  7 37  1  0
 10 38  1  0
 11 39  1  0
 13 40  1  0
 16 41  1  0
 21 42  1  0
 21 43  1  0
 25 44  1  0
 26 45  1  0
 26 46  1  0
M  CHG  1  16  -1
M  END
>  <UniqueID>  (34) 
34

>  <SMILES>  (34) 
COCCNC1CN(c2ccc3cc(C([NH-])=O)n(C(=O)CC#N)c3c2)C1

>  <Energy>  (34) 
128.10960437945832

>  <Genealogy>  (34) 
COCCNC1CN(c2ccc3cc(C([NH-])=O)n(C(=O)CC#N)c3c2)C1 (protonated)
COCCNC1CN(c2ccc3cc(C([NH-])=O)n(C(=O)CC#N)c3c2)C1 (3D coordinates assigned)
COCCNC1CN(c2ccc3cc(C([NH-])=O)n(C(=O)CC#N)c3c2)C1 (nonaromatic ring conformer: 128.10960437945832 kcal/mol)

>  <smiles>  (34) 
COCCNC1CN(c2ccc3cc(C(N)=O)n(C(=O)CC#N)c3c2)C1

>  <score_type>  (34) 
oracle

>  <origin>  (34) 
adg

>  <m_score__min__energy>  (34) 
-7.54

>  <m_primary>  (34) 
energy

$$$$
34:0
     RDKit          3D

 37 39  0  0  0  0  0  0  0  0999 V2000
  150.7150  150.3200  130.2330 C   0  0  0  0  0  0  0  0  0  0  0  0
  150.6090  150.3540  131.6510 O   0  0  0  0  0  0  0  0  0  0  0  0
  149.4180  150.6750  132.3100 C   0  0  0  0  0  0  0  0  0  0  0  0
  148.6900  149.7640  132.7890 O   0  0  0  0  0  0  0  0  0  0  0  0
  149.0090  152.0830  132.4510 C   0  0  0  0  0  0  0  0  0  0  0  0
  147.6910  152.4240  132.7820 C   0  0  0  0  0  0  0  0  0  0  0  0
  147.3380  153.7700  132.9060 C   0  0  0  0  0  0  0  0  0  0  0  0
  148.2980  154.7750  132.7040 C   0  0  0  0  0  0  0  0  0  0  0  0
  147.9360  156.2100  132.8340 C   0  0  0  0  0  0  0  0  0  0  0  0
  148.9200  157.2160  132.6380 C   0  0  0  0  0  0  0  0  0  0  0  0
  148.5920  158.5760  132.7640 C   0  0  0  0  0  0  0  0  0  0  0  0
  147.2780  158.9050  133.0820 C   0  0  0  0  0  0  0  0  0  0  0  0
  146.6970  160.1360  133.2780 C   0  0  0  0  0  0  0  0  0  0  0  0
  145.3620  159.8690  133.5680 C   0  0  0  0  0  0  0  0  0  0  0  0
  144.3510  160.9250  133.7680 C   0  0  0  0  0  0  0  0  0  0  0  0
  142.9960  160.7350  133.3570 N   0  0  0  0  0  0  0  0  0  0  0  0
  144.7020  162.0350  134.2480 O   0  0  0  0  0  0  0  0  0  0  0  0
  145.1290  158.5260  133.5720 N   0  0  0  0  0  0  0  0  0  0  0  0
  143.9260  157.8300  133.9430 C   0  0  0  0  0  0  0  0  0  0  0  0
  142.9340  157.7930  133.1670 O   0  0  0  0  0  0  0  0  0  0  0  0
  146.3120  157.9500  133.2640 C   0  0  0  0  0  0  0  0  0  0  0  0
  146.6110  156.5870  133.1560 C   0  0  0  0  0  0  0  0  0  0  0  0
  149.6080  154.3880  132.3750 C   0  0  0  0  0  0  0  0  0  0  0  0
  149.9260  153.0710  132.2560 N   0  0  0  0  0  0  0  0  0  0  0  0
  151.7268  149.9955  129.9486 H   0  0  0  0  0  0  0  0  0  0  0  0
  149.9758  149.6139  129.8269 H   0  0  0  0  0  0  0  0  0  0  0  0
  150.5244  151.3244  129.8269 H   0  0  0  0  0  0  0  0  0  0  0  0
  146.9393  151.6373  132.9431 H   0  0  0  0  0  0  0  0  0  0  0  0
  146.3040  154.0438  133.1629 H   0  0  0  0  0  0  0  0  0  0  0  0
  149.9505  156.9265  132.3847 H   0  0  0  0  0  0  0  0  0  0  0  0
  149.3515  159.3578  132.6157 H   0  0  0  0  0  0  0  0  0  0  0  0
  147.1832  161.1209  133.2184 H   0  0  0  0  0  0  0  0  0  0  0  0
  142.2870  161.4800  133.5300 H   0  0  0  0  0  0  0  0  0  0  0  0
  142.7130  159.8870  132.8190 H   0  0  0  0  0  0  0  0  0  0  0  0
  143.8713  157.3230  134.9177 H   0  0  0  0  0  0  0  0  0  0  0  0
  145.8333  155.8261  133.3178 H   0  0  0  0  0  0  0  0  0  0  0  0
  150.3804  155.1542  132.2128 H   0  0  0  0  0  0  0  0  0  0  0  0
  1  2  1  0
  2  3  1  0
  3  4  2  0
  3  5  1  0
  5  6  2  0
  6  7  1  0
  7  8  2  0
  8  9  1  0
  9 10  2  0
 10 11  1  0
 11 12  2  0
 12 13  1  0
 13 14  2  0
 14 15  1  0
 15 16  1  0
 15 17  2  0
 14 18  1  0
 18 19  1  0
 19 20  2  0
 18 21  1  0
 21 22  2  0
  8 23  1  0
 23 24  2  0
 24  5  1  0
 22  9  1  0
 21 12  1  0
  1 25  1  0
  1 26  1  0
  1 27  1  0
  6 28  1  0
  7 29  1  0
 10 30  1  0
 11 31  1  0
 13 32  1  0
 16 33  1  0
 16 34  1  0
 19 35  1  0
 22 36  1  0
 23 37  1  0
M  END
>  <UniqueID>  (35) 
35

>  <SMILES>  (35) 
COC(=O)c1ccc(-c2ccc3cc(C(N)=O)n(C=O)c3c2)cn1

>  <Energy>  (35) 
81.65819519692417

>  <Genealogy>  (35) 
COC(=O)c1ccc(-c2ccc3cc(C(N)=O)n(C=O)c3c2)cn1 (3D coordinates assigned)
COC(=O)c1ccc(-c2ccc3cc(C(N)=O)n(C=O)c3c2)cn1 (optimized conformer: 81.65819519692417 kcal/mol)

>  <smiles>  (35) 
COC(=O)c1ccc(-c2ccc3cc(C(N)=O)n(C=O)c3c2)cn1

>  <score_type>  (35) 
oracle

>  <origin>  (35) 
adg

>  <m_score__min__energy>  (35) 
-7.1399999999999997

>  <m_primary>  (35) 
energy

$$$$
35:0
     RDKit          3D

 53 55  0  0  0  0  0  0  0  0999 V2000
  147.6500  156.6760  132.3710 C   0  0  0  0  0  0  0  0  0  0  0  0
  148.0960  158.1270  132.6370 C   0  0  0  0  0  0  0  0  0  0  0  0
  149.3150  158.4930  131.7690 C   0  0  0  0  0  0  0  0  0  0  0  0
  148.4820  158.2630  134.1160 C   0  0  0  0  0  0  0  0  0  0  0  0
  147.0110  159.0350  132.3970 O   0  0  0  0  0  0  0  0  0  0  0  0
  146.5480  160.0260  133.2790 C   0  0  0  0  0  0  0  0  0  0  0  0
  147.3260  160.9060  133.7330 O   0  0  0  0  0  0  0  0  0  0  0  0
  145.1570  160.0600  133.6270 N   0  0  0  0  0  0  0  0  0  0  0  0
  144.3910  161.1510  133.9200 C   0  0  0  0  0  0  0  0  0  0  0  0
  144.8840  162.5330  134.1050 C   0  0  0  0  0  0  0  0  0  0  0  0
  145.9550  162.8170  135.0000 N   0  0  0  0  0  0  0  0  0  0  0  0
  144.3190  163.4820  133.4980 O   0  0  0  0  0  0  0  0  0  0  0  0
  143.0610  160.7780  134.1030 C   0  0  0  0  0  0  0  0  0  0  0  0
  143.0350  159.4130  133.9190 C   0  0  0  0  0  0  0  0  0  0  0  0
  141.9660  158.5240  133.9710 C   0  0  0  0  0  0  0  0  0  0  0  0
  142.2260  157.1690  133.7040 C   0  0  0  0  0  0  0  0  0  0  0  0
  143.5350  156.7330  133.3770 C   0  0  0  0  0  0  0  0  0  0  0  0
  143.7980  155.2780  133.1030 C   0  0  0  0  0  0  0  0  0  0  0  0
  143.5350  154.4510  134.3220 C   0  0  0  0  0  0  0  0  0  0  0  0
  143.4020  155.0160  135.4450 O   0  0  0  0  0  0  0  0  0  0  0  0
  143.4020  153.0630  134.1970 O   0  0  0  0  0  0  0  0  0  0  0  0
  143.6560  152.3600  132.9830 C   0  0  0  0  0  0  0  0  0  0  0  0
  142.5070  151.4430  132.6630 C   0  0  0  0  0  0  0  0  0  0  0  0
  141.1900  151.9360  132.6120 C   0  0  0  0  0  0  0  0  0  0  0  0
  140.1240  151.0710  132.3400 C   0  0  0  0  0  0  0  0  0  0  0  0
  140.3630  149.7110  132.1180 C   0  0  0  0  0  0  0  0  0  0  0  0
  141.6690  149.2130  132.1690 C   0  0  0  0  0  0  0  0  0  0  0  0
  142.7370  150.0720  132.4530 C   0  0  0  0  0  0  0  0  0  0  0  0
  144.5990  157.6630  133.3480 C   0  0  0  0  0  0  0  0  0  0  0  0
  144.3130  159.0040  133.6340 C   0  0  0  0  0  0  0  0  0  0  0  0
  147.4913  156.1597  133.3292 H   0  0  0  0  0  0  0  0  0  0  0  0
  146.7117  156.6802  131.7970 H   0  0  0  0  0  0  0  0  0  0  0  0
  148.4287  156.1524  131.7970 H   0  0  0  0  0  0  0  0  0  0  0  0
  150.1648  158.7481  132.4192 H   0  0  0  0  0  0  0  0  0  0  0  0
  149.5836  157.6359  131.1340 H   0  0  0  0  0  0  0  0  0  0  0  0
  149.0670  159.3563  131.1340 H   0  0  0  0  0  0  0  0  0  0  0  0
  147.6315  157.9633  134.7460 H   0  0  0  0  0  0  0  0  0  0  0  0
  149.3441  157.6145  134.3311 H   0  0  0  0  0  0  0  0  0  0  0  0
  148.7471  159.3087  134.3311 H   0  0  0  0  0  0  0  0  0  0  0  0
  146.9470  162.8010  134.6730 H   0  0  0  0  0  0  0  0  0  0  0  0
  142.2117  161.4344  134.3434 H   0  0  0  0  0  0  0  0  0  0  0  0
  140.9505  158.8705  134.2132 H   0  0  0  0  0  0  0  0  0  0  0  0
  141.4048  156.4385  133.7492 H   0  0  0  0  0  0  0  0  0  0  0  0
  143.1399  154.9398  132.2890 H   0  0  0  0  0  0  0  0  0  0  0  0
  144.8535  155.1585  132.8172 H   0  0  0  0  0  0  0  0  0  0  0  0
  143.7825  153.0833  132.1640 H   0  0  0  0  0  0  0  0  0  0  0  0
  144.5712  151.7610  133.1000 H   0  0  0  0  0  0  0  0  0  0  0  0
  140.9977  153.0049  132.7865 H   0  0  0  0  0  0  0  0  0  0  0  0
  139.0964  151.4614  132.3007 H   0  0  0  0  0  0  0  0  0  0  0  0
  139.5238  149.0330  131.9033 H   0  0  0  0  0  0  0  0  0  0  0  0
  141.8571  148.1448  131.9857 H   0  0  0  0  0  0  0  0  0  0  0  0
  143.7603  149.6728  132.5121 H   0  0  0  0  0  0  0  0  0  0  0  0
  145.6234  157.3425  133.1075 H   0  0  0  0  0  0  0  0  0  0  0  0
  1  2  1  0
  2  3  1  0
  2  4  1  0
  2  5  1  0
  5  6  1  0
  6  7  2  0
  6  8  1  0
  8  9  1  0
  9 10  1  0
 10 11  1  0
 10 12  2  0
  9 13  2  0
 13 14  1  0
 14 15  2  0
 15 16  1  0
 16 17  2  0
 17 18  1  0
 18 19  1  0
 19 20  2  0
 19 21  1  0
 21 22  1  0
 22 23  1  0
 23 24  2  0
 24 25  1  0
 25 26  2  0
 26 27  1  0
 27 28  2  0
 17 29  1  0
 29 30  2  0
 30  8  1  0
 30 14  1  0
 28 23  1  0
  1 31  1  0
  1 32  1  0
  1 33  1  0
  3 34  1  0
  3 35  1  0
  3 36  1  0
  4 37  1  0
  4 38  1  0
  4 39  1  0
 11 40  1  0
 13 41  1  0
 15 42  1  0
 16 43  1  0
 18 44  1  0
 18 45  1  0
 22 46  1  0
 22 47  1  0
 24 48  1  0
 25 49  1  0
 26 50  1  0
 27 51  1  0
 28 52  1  0
 29 53  1  0
M  CHG  1  11  -1
M  END
>  <UniqueID>  (36) 
36

>  <SMILES>  (36) 
CC(C)(C)OC(=O)n1c(C([NH-])=O)cc2ccc(CC(=O)OCc3ccccc3)cc21

>  <Energy>  (36) 
83.97384120850651

>  <Genealogy>  (36) 
CC(C)(C)OC(=O)n1c(C([NH-])=O)cc2ccc(CC(=O)OCc3ccccc3)cc21 (protonated)
CC(C)(C)OC(=O)n1c(C([NH-])=O)cc2ccc(CC(=O)OCc3ccccc3)cc21 (3D coordinates assigned)
CC(C)(C)OC(=O)n1c(C([NH-])=O)cc2ccc(CC(=O)OCc3ccccc3)cc21 (optimized conformer: 83.97384120850651 kcal/mol)

>  <smiles>  (36) 
CC(C)(C)OC(=O)n1c(C(N)=O)cc2ccc(CC(=O)OCc3ccccc3)cc21

>  <score_type>  (36) 
oracle

>  <origin>  (36) 
adg

>  <m_score__min__energy>  (36) 
-9.2699999999999996

>  <m_primary>  (36) 
energy

$$$$
36:0
     RDKit          3D

 38 40  0  0  0  0  0  0  0  0999 V2000
  139.4980  157.9180  136.7580 N   0  0  0  0  0  0  0  0  0  0  0  0
  139.7370  158.2400  135.3900 C   0  0  0  0  0  0  0  0  0  0  0  0
  138.7860  158.1730  134.5650 O   0  0  0  0  0  0  0  0  0  0  0  0
  141.0880  158.6110  134.9180 C   0  0  0  0  0  0  0  0  0  0  0  0
  141.5190  159.9290  134.7770 C   0  0  0  0  0  0  0  0  0  0  0  0
  142.7910  159.8430  134.2590 C   0  0  0  0  0  0  0  0  0  0  0  0
  143.6950  160.8490  133.9330 C   0  0  0  0  0  0  0  0  0  0  0  0
  144.9520  160.4690  133.4360 C   0  0  0  0  0  0  0  0  0  0  0  0
  145.2930  159.0970  133.2850 C   0  0  0  0  0  0  0  0  0  0  0  0
  146.6500  158.6840  132.7440 C   0  0  0  0  0  0  0  0  0  0  0  0
  146.9800  157.2120  133.0740 C   0  0  0  0  0  0  0  0  0  0  0  0
  148.4920  156.9390  132.9740 C   0  0  0  0  0  0  0  0  0  0  0  0
  149.1190  157.8690  132.1120 O   0  0  0  0  0  0  0  0  0  0  0  0
  149.1480  159.1530  132.7160 C   0  0  0  0  0  0  0  0  0  0  0  0
  147.7670  159.6160  133.2410 C   0  0  0  0  0  0  0  0  0  0  0  0
  144.3470  158.1060  133.6380 C   0  0  0  0  0  0  0  0  0  0  0  0
  143.0940  158.5140  134.1070 C   0  0  0  0  0  0  0  0  0  0  0  0
  142.0570  157.7450  134.5060 N   0  0  0  0  0  0  0  0  0  0  0  0
  142.0250  156.3100  134.5550 C   0  0  0  0  0  0  0  0  0  0  0  0
  142.2860  155.7160  135.6370 O   0  0  0  0  0  0  0  0  0  0  0  0
  141.6290  155.5100  133.3520 C   0  0  0  0  0  0  0  0  0  0  0  0
  139.8700  155.6130  133.0880 Cl  0  0  0  0  0  0  0  0  0  0  0  0
  139.0930  158.6250  137.4120 H   0  0  0  0  0  0  0  0  0  0  0  0
  140.9610  160.8435  135.0267 H   0  0  0  0  0  0  0  0  0  0  0  0
  143.4330  161.9097  134.0607 H   0  0  0  0  0  0  0  0  0  0  0  0
  145.6829  161.2433  133.1597 H   0  0  0  0  0  0  0  0  0  0  0  0
  146.5931  158.7758  131.6493 H   0  0  0  0  0  0  0  0  0  0  0  0
  146.6433  156.9906  134.0975 H   0  0  0  0  0  0  0  0  0  0  0  0
  146.4634  156.5698  132.3455 H   0  0  0  0  0  0  0  0  0  0  0  0
  148.9391  157.0190  133.9759 H   0  0  0  0  0  0  0  0  0  0  0  0
  148.6394  155.9282  132.5659 H   0  0  0  0  0  0  0  0  0  0  0  0
  149.8511  159.1250  133.5615 H   0  0  0  0  0  0  0  0  0  0  0  0
  149.4582  159.8697  131.9414 H   0  0  0  0  0  0  0  0  0  0  0  0
  147.7791  159.6089  134.3409 H   0  0  0  0  0  0  0  0  0  0  0  0
  147.5707  160.6310  132.8652 H   0  0  0  0  0  0  0  0  0  0  0  0
  144.5916  157.0375  133.5456 H   0  0  0  0  0  0  0  0  0  0  0  0
  142.1517  155.9029  132.4675 H   0  0  0  0  0  0  0  0  0  0  0  0
  141.9036  154.4578  133.5174 H   0  0  0  0  0  0  0  0  0  0  0  0
  1  2  1  0
  2  3  2  0
  2  4  1  0
  4  5  2  0
  5  6  1  0
  6  7  2  0
  7  8  1  0
  8  9  2  0
  9 10  1  0
 10 11  1  0
 11 12  1  0
 12 13  1  0
 13 14  1  0
 14 15  1  0
  9 16  1  0
 16 17  2  0
 17 18  1  0
 18 19  1  0
 19 20  2  0
 19 21  1  0
 21 22  1  0
 18  4  1  0
 17  6  1  0
 15 10  1  0
  1 23  1  0
  5 24  1  0
  7 25  1  0
  8 26  1  0
 10 27  1  0
 11 28  1  0
 11 29  1  0
 12 30  1  0
 12 31  1  0
 14 32  1  0
 14 33  1  0
 15 34  1  0
 15 35  1  0
 16 36  1  0
 21 37  1  0
 21 38  1  0
M  CHG  1   1  -1
M  END
>  <UniqueID>  (37) 
37

>  <SMILES>  (37) 
[NH-]C(=O)c1cc2ccc(C3CCOCC3)cc2n1C(=O)CCl

>  <Energy>  (37) 
85.45725390649415

>  <Genealogy>  (37) 
[NH-]C(=O)c1cc2ccc(C3CCOCC3)cc2n1C(=O)CCl (protonated)
[NH-]C(=O)c1cc2ccc(C3CCOCC3)cc2n1C(=O)CCl (3D coordinates assigned)
[NH-]C(=O)c1cc2ccc(C3CCOCC3)cc2n1C(=O)CCl (nonaromatic ring conformer: 85.45725390649415 kcal/mol)

>  <smiles>  (37) 
NC(=O)c1cc2ccc(C3CCOCC3)cc2n1C(=O)CCl

>  <score_type>  (37) 
oracle

>  <origin>  (37) 
adg

>  <m_score__min__energy>  (37) 
-7.6100000000000003

>  <m_primary>  (37) 
energy

$$$$
37:0
     RDKit          3D

 45 46  0  0  0  0  0  0  0  0999 V2000
  149.1360  154.1990  132.5740 C   0  0  0  0  0  0  0  0  0  0  0  0
  148.3090  154.9140  133.6300 C   0  0  0  0  0  0  0  0  0  0  0  0
  148.1230  156.2720  133.2490 O   0  0  0  0  0  0  0  0  0  0  0  0
  146.9030  156.7660  132.7770 C   0  0  0  0  0  0  0  0  0  0  0  0
  146.0590  155.9840  132.2630 O   0  0  0  0  0  0  0  0  0  0  0  0
  146.6090  158.1680  132.8910 N   0  0  0  0  0  0  0  0  0  0  0  0
  147.4450  159.2130  132.6290 C   0  0  0  0  0  0  0  0  0  0  0  0
  148.7860  159.1070  132.0140 C   0  0  0  0  0  0  0  0  0  0  0  0
  149.8000  158.2950  132.6090 N   0  0  0  0  0  0  0  0  0  0  0  0
  149.0580  159.7610  130.9710 O   0  0  0  0  0  0  0  0  0  0  0  0
  146.8260  160.4230  132.9370 C   0  0  0  0  0  0  0  0  0  0  0  0
  145.5740  160.0860  133.3960 C   0  0  0  0  0  0  0  0  0  0  0  0
  144.5410  160.8990  133.8570 C   0  0  0  0  0  0  0  0  0  0  0  0
  143.3630  160.2780  134.3030 C   0  0  0  0  0  0  0  0  0  0  0  0
  143.2380  158.8670  134.2790 C   0  0  0  0  0  0  0  0  0  0  0  0
  141.9910  158.2130  134.8050 C   0  0  0  0  0  0  0  0  0  0  0  0
  140.9520  158.2200  133.7700 C   0  0  0  0  0  0  0  0  0  0  0  0
  140.0980  158.2260  132.9200 C   0  0  0  0  0  0  0  0  0  0  0  0
  139.0570  158.2370  131.8850 C   0  0  0  0  0  0  0  0  0  0  0  0
  138.4450  159.5760  131.7840 N   0  0  0  0  0  0  0  0  0  0  0  0
  138.0040  159.8250  130.4030 C   0  0  0  0  0  0  0  0  0  0  0  0
  139.4020  160.6220  132.1900 C   0  0  0  0  0  0  0  0  0  0  0  0
  144.3110  158.0740  133.8150 C   0  0  0  0  0  0  0  0  0  0  0  0
  145.4670  158.7200  133.3590 C   0  0  0  0  0  0  0  0  0  0  0  0
  149.8806  153.5553  133.0652 H   0  0  0  0  0  0  0  0  0  0  0  0
  148.4756  153.5827  131.9463 H   0  0  0  0  0  0  0  0  0  0  0  0
  149.6504  154.9416  131.9463 H   0  0  0  0  0  0  0  0  0  0  0  0
  147.3295  154.4222  133.7234 H   0  0  0  0  0  0  0  0  0  0  0  0
  148.8340  154.8733  134.5958 H   0  0  0  0  0  0  0  0  0  0  0  0
  150.7540  158.2570  132.1870 H   0  0  0  0  0  0  0  0  0  0  0  0
  149.5980  157.6990  133.4400 H   0  0  0  0  0  0  0  0  0  0  0  0
  147.2490  161.4333  132.8347 H   0  0  0  0  0  0  0  0  0  0  0  0
  144.6448  161.9940  133.8712 H   0  0  0  0  0  0  0  0  0  0  0  0
  142.5298  160.8927  134.6743 H   0  0  0  0  0  0  0  0  0  0  0  0
  142.2156  157.1746  135.0899 H   0  0  0  0  0  0  0  0  0  0  0  0
  141.6322  158.7691  135.6836 H   0  0  0  0  0  0  0  0  0  0  0  0
  139.5058  157.9698  130.9169 H   0  0  0  0  0  0  0  0  0  0  0  0
  138.2782  157.5086  132.1550 H   0  0  0  0  0  0  0  0  0  0  0  0
  137.0462  160.3658  130.4158 H   0  0  0  0  0  0  0  0  0  0  0  0
  138.7596  160.4298  129.8802 H   0  0  0  0  0  0  0  0  0  0  0  0
  137.8764  158.8656  129.8802 H   0  0  0  0  0  0  0  0  0  0  0  0
  139.4472  160.6714  133.2880 H   0  0  0  0  0  0  0  0  0  0  0  0
  140.3990  160.3811  131.7924 H   0  0  0  0  0  0  0  0  0  0  0  0
  139.0737  161.5937  131.7924 H   0  0  0  0  0  0  0  0  0  0  0  0
  144.2404  156.9763  133.8119 H   0  0  0  0  0  0  0  0  0  0  0  0
  1  2  1  0
  2  3  1  0
  3  4  1  0
  4  5  2  0
  4  6  1  0
  6  7  1  0
  7  8  1  0
  8  9  1  0
  8 10  2  0
  7 11  2  0
 11 12  1  0
 12 13  2  0
 13 14  1  0
 14 15  2  0
 15 16  1  0
 16 17  1  0
 17 18  3  0
 18 19  1  0
 19 20  1  0
 20 21  1  0
 20 22  1  0
 15 23  1  0
 23 24  2  0
 24  6  1  0
 24 12  1  0
  1 25  1  0
  1 26  1  0
  1 27  1  0
  2 28  1  0
  2 29  1  0
  9 30  1  0
  9 31  1  0
 11 32  1  0
 13 33  1  0
 14 34  1  0
 16 35  1  0
 16 36  1  0
 19 37  1  0
 19 38  1  0
 21 39  1  0
 21 40  1  0
 21 41  1  0
 22 42  1  0
 22 43  1  0
 22 44  1  0
 23 45  1  0
M  END
>  <UniqueID>  (38) 
38

>  <SMILES>  (38) 
CCOC(=O)n1c(C(N)=O)cc2ccc(CC#CCN(C)C)cc21

>  <Energy>  (38) 
72.43944667593198

>  <Genealogy>  (38) 
CCOC(=O)n1c(C(N)=O)cc2ccc(CC#CCN(C)C)cc21 (3D coordinates assigned)
CCOC(=O)n1c(C(N)=O)cc2ccc(CC#CCN(C)C)cc21 (optimized conformer: 72.43944667593198 kcal/mol)

>  <smiles>  (38) 
CCOC(=O)n1c(C(N)=O)cc2ccc(CC#CCN(C)C)cc21

>  <score_type>  (38) 
oracle

>  <origin>  (38) 
adg

>  <m_score__min__energy>  (38) 
-7.7699999999999996

>  <m_primary>  (38) 
energy

$$$$
38:0
     RDKit          3D

 46 48  0  0  0  0  0  0  0  0999 V2000
  149.2820  161.8680  130.3620 C   0  0  0  0  0  0  0  0  0  0  0  0
  148.9680  160.6040  131.1050 C   0  0  0  0  0  0  0  0  0  0  0  0
  149.8550  159.5020  131.0370 C   0  0  0  0  0  0  0  0  0  0  0  0
  149.5480  158.2950  131.6880 C   0  0  0  0  0  0  0  0  0  0  0  0
  148.3490  158.2210  132.3920 C   0  0  0  0  0  0  0  0  0  0  0  0
  147.7960  157.1720  133.0880 C   0  0  0  0  0  0  0  0  0  0  0  0
  146.5810  157.6500  133.5760 C   0  0  0  0  0  0  0  0  0  0  0  0
  145.6950  156.8670  134.4640 C   0  0  0  0  0  0  0  0  0  0  0  0
  144.2850  157.0740  134.4180 N   0  0  0  0  0  0  0  0  0  0  0  0
  146.1650  155.9930  135.2380 O   0  0  0  0  0  0  0  0  0  0  0  0
  146.3870  158.9430  133.1880 N   0  0  0  0  0  0  0  0  0  0  0  0
  145.2460  159.7780  133.4390 C   0  0  0  0  0  0  0  0  0  0  0  0
  145.3830  160.8440  134.0980 O   0  0  0  0  0  0  0  0  0  0  0  0
  143.9860  159.3830  132.9760 O   0  0  0  0  0  0  0  0  0  0  0  0
  142.7600  159.9980  133.3720 C   0  0  0  0  0  0  0  0  0  0  0  0
  141.6270  158.9550  133.4270 C   0  0  0  0  0  0  0  0  0  0  0  0
  140.6200  159.1290  132.2650 C   0  0  0  0  0  0  0  0  0  0  0  0
  139.1770  158.7370  132.6470 C   0  0  0  0  0  0  0  0  0  0  0  0
  139.1190  157.6200  133.6100 N   0  0  0  0  0  0  0  0  0  0  0  0
  139.4910  156.3370  132.9910 C   0  0  0  0  0  0  0  0  0  0  0  0
  139.8540  157.8790  134.8760 C   0  0  0  0  0  0  0  0  0  0  0  0
  140.9040  159.0040  134.7780 C   0  0  0  0  0  0  0  0  0  0  0  0
  147.4810  159.2790  132.4680 C   0  0  0  0  0  0  0  0  0  0  0  0
  147.7530  160.4860  131.8140 C   0  0  0  0  0  0  0  0  0  0  0  0
  149.4827  162.6758  131.0811 H   0  0  0  0  0  0  0  0  0  0  0  0
  150.1685  161.7112  129.7299 H   0  0  0  0  0  0  0  0  0  0  0  0
  148.4252  162.1443  129.7299 H   0  0  0  0  0  0  0  0  0  0  0  0
  150.7929  159.5917  130.4693 H   0  0  0  0  0  0  0  0  0  0  0  0
  150.2333  157.4358  131.6428 H   0  0  0  0  0  0  0  0  0  0  0  0
  148.2223  156.1679  133.2297 H   0  0  0  0  0  0  0  0  0  0  0  0
  143.8720  158.0090  134.6300 H   0  0  0  0  0  0  0  0  0  0  0  0
  142.8859  160.4487  134.3675 H   0  0  0  0  0  0  0  0  0  0  0  0
  142.4960  160.7720  132.6363 H   0  0  0  0  0  0  0  0  0  0  0  0
  142.0935  157.9654  133.3130 H   0  0  0  0  0  0  0  0  0  0  0  0
  140.6248  160.1839  131.9533 H   0  0  0  0  0  0  0  0  0  0  0  0
  140.9374  158.4570  131.4541 H   0  0  0  0  0  0  0  0  0  0  0  0
  138.6829  159.6119  133.0947 H   0  0  0  0  0  0  0  0  0  0  0  0
  138.6715  158.4058  131.7279 H   0  0  0  0  0  0  0  0  0  0  0  0
  139.7051  155.5987  133.7778 H   0  0  0  0  0  0  0  0  0  0  0  0
  138.6603  155.9768  132.3663 H   0  0  0  0  0  0  0  0  0  0  0  0
  140.3855  156.4770  132.3663 H   0  0  0  0  0  0  0  0  0  0  0  0
  139.1224  158.1563  135.6492 H   0  0  0  0  0  0  0  0  0  0  0  0
  140.4011  156.9560  135.1186 H   0  0  0  0  0  0  0  0  0  0  0  0
  140.4016  159.9769  134.8835 H   0  0  0  0  0  0  0  0  0  0  0  0
  141.6442  158.8674  135.5801 H   0  0  0  0  0  0  0  0  0  0  0  0
  147.0383  161.3214  131.8514 H   0  0  0  0  0  0  0  0  0  0  0  0
  1  2  1  0
  2  3  2  0
  3  4  1  0
  4  5  2  0
  5  6  1  0
  6  7  2  0
  7  8  1  0
  8  9  1  0
  8 10  2  0
  7 11  1  0
 11 12  1  0
 12 13  2  0
 12 14  1  0
 14 15  1  0
 15 16  1  0
 16 17  1  0
 17 18  1  0
 18 19  1  0
 19 20  1  0
 19 21  1  0
 21 22  1  0
 11 23  1  0
 23 24  2  0
 24  2  1  0
 23  5  1  0
 22 16  1  0
  1 25  1  0
  1 26  1  0
  1 27  1  0
  3 28  1  0
  4 29  1  0
  6 30  1  0
  9 31  1  0
 15 32  1  0
 15 33  1  0
 16 34  1  0
 17 35  1  0
 17 36  1  0
 18 37  1  0
 18 38  1  0
 20 39  1  0
 20 40  1  0
 20 41  1  0
 21 42  1  0
 21 43  1  0
 22 44  1  0
 22 45  1  0
 24 46  1  0
M  CHG  1   9  -1
M  END
>  <UniqueID>  (39) 
39

>  <SMILES>  (39) 
Cc1ccc2cc(C([NH-])=O)n(C(=O)OCC3CCN(C)CC3)c2c1

>  <Energy>  (39) 
91.67747099265095

>  <Genealogy>  (39) 
Cc1ccc2cc(C([NH-])=O)n(C(=O)OCC3CCN(C)CC3)c2c1 (protonated)
Cc1ccc2cc(C([NH-])=O)n(C(=O)OCC3CCN(C)CC3)c2c1 (3D coordinates assigned)
Cc1ccc2cc(C([NH-])=O)n(C(=O)OCC3CCN(C)CC3)c2c1 (nonaromatic ring conformer: 91.67747099265095 kcal/mol)

>  <smiles>  (39) 
Cc1ccc2cc(C(N)=O)n(C(=O)OCC3CCN(C)CC3)c2c1

>  <score_type>  (39) 
oracle

>  <origin>  (39) 
adg

>  <m_score__min__energy>  (39) 
-7.9900000000000002

>  <m_primary>  (39) 
energy

$$$$
39:0
     RDKit          3D

 29 30  0  0  0  0  0  0  0  0999 V2000
  149.9960  158.4000  131.8630 C   0  0  0  0  0  0  0  0  0  0  0  0
  149.0580  159.5970  132.0530 C   0  0  1  0  0  0  0  0  0  0  0  0
  148.9200  160.3990  130.7860 C   0  0  0  0  0  0  0  0  0  0  0  0
  148.5460  159.8340  129.7240 O   0  0  0  0  0  0  0  0  0  0  0  0
  149.2510  161.7490  130.7580 O   0  0  0  0  0  0  0  0  0  0  0  0
  147.6980  159.1520  132.5530 C   0  0  0  0  0  0  0  0  0  0  0  0
  147.3800  157.7700  132.5930 C   0  0  0  0  0  0  0  0  0  0  0  0
  146.1190  157.3350  133.0340 C   0  0  0  0  0  0  0  0  0  0  0  0
  145.1990  158.2990  133.4350 C   0  0  0  0  0  0  0  0  0  0  0  0
  143.9050  158.1550  133.8770 C   0  0  0  0  0  0  0  0  0  0  0  0
  143.4530  159.4490  134.1240 C   0  0  0  0  0  0  0  0  0  0  0  0
  142.1240  159.7480  134.6990 C   0  0  0  0  0  0  0  0  0  0  0  0
  141.1560  160.4900  133.9630 N   0  0  0  0  0  0  0  0  0  0  0  0
  141.8590  159.3860  135.8760 O   0  0  0  0  0  0  0  0  0  0  0  0
  144.4270  160.3590  133.8370 N   0  0  0  0  0  0  0  0  0  0  0  0
  144.3350  161.7920  133.8740 C   0  0  0  0  0  0  0  0  0  0  0  0
  143.3470  162.3800  133.3600 O   0  0  0  0  0  0  0  0  0  0  0  0
  145.3470  162.5460  134.4560 O   0  0  0  0  0  0  0  0  0  0  0  0
  145.4920  159.6370  133.4190 C   0  0  0  0  0  0  0  0  0  0  0  0
  146.7310  160.1020  132.9660 C   0  0  0  0  0  0  0  0  0  0  0  0
  150.2997  158.0124  132.8466 H   0  0  0  0  0  0  0  0  0  0  0  0
  149.4738  157.6102  131.3030 H   0  0  0  0  0  0  0  0  0  0  0  0
  150.8877  158.7182  131.3030 H   0  0  0  0  0  0  0  0  0  0  0  0
  149.5103  160.2477  132.8159 H   0  0  0  0  0  0  0  0  0  0  0  0
  148.1295  157.0304  132.2750 H   0  0  0  0  0  0  0  0  0  0  0  0
  145.8665  156.2647  133.0615 H   0  0  0  0  0  0  0  0  0  0  0  0
  143.3455  157.2170  134.0078 H   0  0  0  0  0  0  0  0  0  0  0  0
  141.4090  161.3890  133.4960 H   0  0  0  0  0  0  0  0  0  0  0  0
  146.9495  161.1795  132.9312 H   0  0  0  0  0  0  0  0  0  0  0  0
  1  2  1  0
  2  3  1  0
  3  4  2  0
  3  5  1  0
  2  6  1  0
  6  7  2  0
  7  8  1  0
  8  9  2  0
  9 10  1  0
 10 11  2  0
 11 12  1  0
 12 13  1  0
 12 14  2  0
 11 15  1  0
 15 16  1  0
 16 17  2  0
 16 18  1  0
 15 19  1  0
 19 20  2  0
 20  6  1  0
 19  9  1  0
  1 21  1  0
  1 22  1  0
  1 23  1  0
  2 24  1  1
  7 25  1  0
  8 26  1  0
 10 27  1  0
 13 28  1  0
 20 29  1  0
M  CHG  3   5  -1  13  -1  18  -1
M  END
>  <UniqueID>  (40) 
40

>  <SMILES>  (40) 
C[C@@H](C(=O)[O-])c1ccc2cc(C([NH-])=O)n(C(=O)[O-])c2c1

>  <Energy>  (40) 
67.88898556212416

>  <Genealogy>  (40) 
CC(C(=O)[O-])c1ccc2cc(C([NH-])=O)n(C(=O)[O-])c2c1 (protonated)
C[C@@H](C(=O)[O-])c1ccc2cc(C([NH-])=O)n(C(=O)[O-])c2c1 (chirality)
C[C@@H](C(=O)[O-])c1ccc2cc(C([NH-])=O)n(C(=O)[O-])c2c1 (3D coordinates assigned)
C[C@@H](C(=O)[O-])c1ccc2cc(C([NH-])=O)n(C(=O)[O-])c2c1 (optimized conformer: 67.88898556212416 kcal/mol)

>  <smiles>  (40) 
CC(C(=O)O)c1ccc2cc(C(N)=O)n(C(=O)O)c2c1

>  <score_type>  (40) 
oracle

>  <origin>  (40) 
adg

>  <m_score__min__energy>  (40) 
-6.5800000000000001

>  <m_primary>  (40) 
energy

$$$$
40:0
     RDKit          3D

 39 41  0  0  0  0  0  0  0  0999 V2000
  150.3240  160.0930  130.2420 C   0  0  0  0  0  0  0  0  0  0  0  0
  149.3450  159.7830  131.2770 N   0  0  0  0  0  0  0  0  0  0  0  0
  148.1220  160.5250  131.5070 C   0  0  0  0  0  0  0  0  0  0  0  0
  147.4670  159.8760  132.7400 C   0  0  0  0  0  0  0  0  0  0  0  0
  148.1790  158.5100  132.9720 C   0  0  1  0  0  0  0  0  0  0  0  0
  148.5980  158.3590  134.3070 O   0  0  0  0  0  0  0  0  0  0  0  0
  147.3410  157.2930  132.5000 C   0  0  0  0  0  0  0  0  0  0  0  0
  146.0470  157.1190  133.2600 C   0  0  0  0  0  0  0  0  0  0  0  0
  145.7440  155.8750  133.8690 C   0  0  0  0  0  0  0  0  0  0  0  0
  144.5540  155.7020  134.5950 C   0  0  0  0  0  0  0  0  0  0  0  0
  143.6820  156.7820  134.6830 C   0  0  0  0  0  0  0  0  0  0  0  0
  142.4800  156.8960  135.3420 C   0  0  0  0  0  0  0  0  0  0  0  0
  142.0470  158.1980  135.0980 C   0  0  0  0  0  0  0  0  0  0  0  0
  140.7420  158.7180  135.5580 C   0  0  0  0  0  0  0  0  0  0  0  0
  140.6210  159.4040  136.8010 N   0  0  0  0  0  0  0  0  0  0  0  0
  139.7280  158.5990  134.8190 O   0  0  0  0  0  0  0  0  0  0  0  0
  142.9500  158.8660  134.3260 N   0  0  0  0  0  0  0  0  0  0  0  0
  142.9200  160.2460  133.9270 C   0  0  0  0  0  0  0  0  0  0  0  0
  143.9500  160.9620  134.0360 O   0  0  0  0  0  0  0  0  0  0  0  0
  141.7620  160.7970  133.3930 O   0  0  0  0  0  0  0  0  0  0  0  0
  143.9440  157.9840  134.0780 C   0  0  0  0  0  0  0  0  0  0  0  0
  145.1300  158.1900  133.3640 C   0  0  0  0  0  0  0  0  0  0  0  0
  149.3790  158.6390  132.1050 C   0  0  0  0  0  0  0  0  0  0  0  0
  150.3290  157.8100  132.0880 O   0  0  0  0  0  0  0  0  0  0  0  0
  151.2721  160.3932  130.7122 H   0  0  0  0  0  0  0  0  0  0  0  0
  150.4904  159.2036  129.6165 H   0  0  0  0  0  0  0  0  0  0  0  0
  149.9482  160.9161  129.6165 H   0  0  0  0  0  0  0  0  0  0  0  0
  148.3469  161.5835  131.7046 H   0  0  0  0  0  0  0  0  0  0  0  0
  147.4576  160.4945  130.6309 H   0  0  0  0  0  0  0  0  0  0  0  0
  147.5962  160.5230  133.6202 H   0  0  0  0  0  0  0  0  0  0  0  0
  146.3882  159.7327  132.5801 H   0  0  0  0  0  0  0  0  0  0  0  0
  149.5230  157.9990  134.2950 H   0  0  0  0  0  0  0  0  0  0  0  0
  147.1033  157.4267  131.4343 H   0  0  0  0  0  0  0  0  0  0  0  0
  147.9467  156.3933  132.6836 H   0  0  0  0  0  0  0  0  0  0  0  0
  146.4487  155.0360  133.7719 H   0  0  0  0  0  0  0  0  0  0  0  0
  144.3191  154.7424  135.0788 H   0  0  0  0  0  0  0  0  0  0  0  0
  141.9690  156.1235  135.9355 H   0  0  0  0  0  0  0  0  0  0  0  0
  139.7380  159.3590  137.3560 H   0  0  0  0  0  0  0  0  0  0  0  0
  145.3435  159.1618  132.8950 H   0  0  0  0  0  0  0  0  0  0  0  0
  1  2  1  0
  2  3  1  0
  3  4  1  0
  4  5  1  0
  5  6  1  1
  5  7  1  0
  7  8  1  0
  8  9  2  0
  9 10  1  0
 10 11  2  0
 11 12  1  0
 12 13  2  0
 13 14  1  0
 14 15  1  0
 14 16  2  0
 13 17  1  0
 17 18  1  0
 18 19  2  0
 18 20  1  0
 17 21  1  0
 21 22  2  0
  5 23  1  0
 23 24  2  0
 23  2  1  0
 22  8  1  0
 21 11  1  0
  1 25  1  0
  1 26  1  0
  1 27  1  0
  3 28  1  0
  3 29  1  0
  4 30  1  0
  4 31  1  0
  6 32  1  0
  7 33  1  0
  7 34  1  0
  9 35  1  0
 10 36  1  0
 12 37  1  0
 15 38  1  0
 22 39  1  0
M  CHG  2  15  -1  20  -1
M  END
>  <UniqueID>  (41) 
41

>  <SMILES>  (41) 
CN1CC[C@@](O)(Cc2ccc3cc(C([NH-])=O)n(C(=O)[O-])c3c2)C1=O

>  <Energy>  (41) 
86.08665006052392

>  <Genealogy>  (41) 
CN1CCC(O)(Cc2ccc3cc(C([NH-])=O)n(C(=O)[O-])c3c2)C1=O (protonated)
CN1CC[C@@](O)(Cc2ccc3cc(C([NH-])=O)n(C(=O)[O-])c3c2)C1=O (chirality)
CN1CC[C@@](O)(Cc2ccc3cc(C([NH-])=O)n(C(=O)[O-])c3c2)C1=O (3D coordinates assigned)
CN1CC[C@@](O)(Cc2ccc3cc(C([NH-])=O)n(C(=O)[O-])c3c2)C1=O (nonaromatic ring conformer: 86.08665006052392 kcal/mol)

>  <smiles>  (41) 
CN1CCC(O)(Cc2ccc3cc(C(N)=O)n(C(=O)O)c3c2)C1=O

>  <score_type>  (41) 
oracle

>  <origin>  (41) 
adg

>  <m_score__min__energy>  (41) 
-7.6299999999999999

>  <m_primary>  (41) 
energy

$$$$
41:0
     RDKit          3D

 50 52  0  0  0  0  0  0  0  0999 V2000
  139.1100  157.9320  134.8210 C   0  0  0  0  0  0  0  0  0  0  0  0
  139.5880  157.6470  133.4540 N   0  0  0  0  0  0  0  0  0  0  0  0
  140.0430  156.2890  133.1260 C   0  0  0  0  0  0  0  0  0  0  0  0
  139.4560  155.6040  132.2260 O   0  0  0  0  0  0  0  0  0  0  0  0
  141.2250  155.7520  133.6920 N   0  0  0  0  0  0  0  0  0  0  0  0
  142.3270  156.4910  133.9640 C   0  0  0  0  0  0  0  0  0  0  0  0
  142.3350  157.9760  134.1120 C   0  0  0  0  0  0  0  0  0  0  0  0
  142.7220  158.8290  133.0220 N   0  0  0  0  0  0  0  0  0  0  0  0
  141.9270  158.4950  135.1850 O   0  0  0  0  0  0  0  0  0  0  0  0
  143.4870  155.7250  133.8580 C   0  0  0  0  0  0  0  0  0  0  0  0
  143.0550  154.4690  133.5200 C   0  0  0  0  0  0  0  0  0  0  0  0
  143.7890  153.3370  133.2030 C   0  0  0  0  0  0  0  0  0  0  0  0
  143.0840  152.1960  132.7820 C   0  0  0  0  0  0  0  0  0  0  0  0
  141.6670  152.2080  132.6890 C   0  0  0  0  0  0  0  0  0  0  0  0
  140.9290  150.9900  132.4500 N   0  0  0  0  0  0  0  0  0  0  0  0
  139.5270  151.1170  132.0300 C   0  0  0  0  0  0  0  0  0  0  0  0
  138.8270  149.7570  131.9820 C   0  0  0  0  0  0  0  0  0  0  0  0
  139.6960  148.7020  131.4060 N   0  0  0  0  0  0  0  0  0  0  0  0
  140.0160  148.9700  129.9820 C   0  0  0  0  0  0  0  0  0  0  0  0
  140.9370  148.4810  132.1990 C   0  0  0  0  0  0  0  0  0  0  0  0
  141.4260  149.7090  132.9920 C   0  0  0  0  0  0  0  0  0  0  0  0
  140.9570  153.3950  133.0120 C   0  0  0  0  0  0  0  0  0  0  0  0
  141.6880  154.4960  133.4360 C   0  0  0  0  0  0  0  0  0  0  0  0
  139.6370  158.9820  132.3340 S   0  0  0  0  0  0  0  0  0  0  0  0
  137.9820  159.3010  131.7480 C   0  0  0  0  0  0  0  0  0  0  0  0
  140.5050  158.6120  131.1480 O   0  0  0  0  0  0  0  0  0  0  0  0
  140.1720  160.2420  132.9690 O   0  0  0  0  0  0  0  0  0  0  0  0
  139.8163  157.5109  135.5516 H   0  0  0  0  0  0  0  0  0  0  0  0
  139.0387  159.0202  134.9651 H   0  0  0  0  0  0  0  0  0  0  0  0
  138.1188  157.4773  134.9651 H   0  0  0  0  0  0  0  0  0  0  0  0
  142.0170  159.2470  132.3750 H   0  0  0  0  0  0  0  0  0  0  0  0
  144.5244  156.0568  134.0122 H   0  0  0  0  0  0  0  0  0  0  0  0
  144.8864  153.3315  133.2783 H   0  0  0  0  0  0  0  0  0  0  0  0
  143.6373  151.2818  132.5211 H   0  0  0  0  0  0  0  0  0  0  0  0
  138.9980  151.7656  132.7438 H   0  0  0  0  0  0  0  0  0  0  0  0
  139.5090  151.5487  131.0184 H   0  0  0  0  0  0  0  0  0  0  0  0
  138.5467  149.4661  133.0051 H   0  0  0  0  0  0  0  0  0  0  0  0
  137.9408  149.8548  131.3378 H   0  0  0  0  0  0  0  0  0  0  0  0
  139.1450  147.8110  131.4330 H   0  0  0  0  0  0  0  0  0  0  0  0
  140.8581  149.6752  129.9219 H   0  0  0  0  0  0  0  0  0  0  0  0
  140.2903  148.0282  129.4843 H   0  0  0  0  0  0  0  0  0  0  0  0
  139.1369  149.4053  129.4843 H   0  0  0  0  0  0  0  0  0  0  0  0
  140.7459  147.6666  132.9133 H   0  0  0  0  0  0  0  0  0  0  0  0
  141.7297  148.2458  131.4735 H   0  0  0  0  0  0  0  0  0  0  0  0
  141.0814  149.6128  134.0322 H   0  0  0  0  0  0  0  0  0  0  0  0
  142.5234  149.7281  132.9191 H   0  0  0  0  0  0  0  0  0  0  0  0
  139.8611  153.4403  132.9286 H   0  0  0  0  0  0  0  0  0  0  0  0
  137.3075  159.4310  132.6072 H   0  0  0  0  0  0  0  0  0  0  0  0
  137.9791  160.2162  131.1378 H   0  0  0  0  0  0  0  0  0  0  0  0
  137.6391  158.4524  131.1378 H   0  0  0  0  0  0  0  0  0  0  0  0
  1  2  1  0
  2  3  1  0
  3  4  2  0
  3  5  1  0
  5  6  1  0
  6  7  1  0
  7  8  1  0
  7  9  2  0
  6 10  2  0
 10 11  1  0
 11 12  2  0
 12 13  1  0
 13 14  2  0
 14 15  1  0
 15 16  1  0
 16 17  1  0
 17 18  1  0
 18 19  1  0
 18 20  1  0
 20 21  1  0
 14 22  1  0
 22 23  2  0
  2 24  1  0
 24 25  1  0
 24 26  2  0
 24 27  2  0
 23  5  1  0
 23 11  1  0
 21 15  1  0
  1 28  1  0
  1 29  1  0
  1 30  1  0
  8 31  1  0
 10 32  1  0
 12 33  1  0
 13 34  1  0
 16 35  1  0
 16 36  1  0
 17 37  1  0
 17 38  1  0
 18 39  1  0
 19 40  1  0
 19 41  1  0
 19 42  1  0
 20 43  1  0
 20 44  1  0
 21 45  1  0
 21 46  1  0
 22 47  1  0
 25 48  1  0
 25 49  1  0
 25 50  1  0
M  CHG  2   8  -1  18   1
M  END
>  <UniqueID>  (42) 
42

>  <SMILES>  (42) 
CN(C(=O)n1c(C([NH-])=O)cc2ccc(N3CC[NH+](C)CC3)cc21)S(C)(=O)=O

>  <Energy>  (42) 
109.25962226020113

>  <Genealogy>  (42) 
CN(C(=O)n1c(C([NH-])=O)cc2ccc(N3CC[NH+](C)CC3)cc21)S(C)(=O)=O (protonated)
CN(C(=O)n1c(C([NH-])=O)cc2ccc(N3CC[NH+](C)CC3)cc21)S(C)(=O)=O (3D coordinates assigned)
CN(C(=O)n1c(C([NH-])=O)cc2ccc(N3CC[NH+](C)CC3)cc21)S(C)(=O)=O (nonaromatic ring conformer: 109.25962226020113 kcal/mol)

>  <smiles>  (42) 
CN1CCN(c2ccc3cc(C(N)=O)n(C(=O)N(C)S(C)(=O)=O)c3c2)CC1

>  <score_type>  (42) 
oracle

>  <origin>  (42) 
adg

>  <m_score__min__energy>  (42) 
-6.9699999999999998

>  <m_primary>  (42) 
energy

$$$$
42:0
     RDKit          3D

 45 46  0  0  0  0  0  0  0  0999 V2000
  148.5800  152.8890  137.2570 C   0  0  0  0  0  0  0  0  0  0  0  0
  147.4260  152.9880  136.4520 O   0  0  0  0  0  0  0  0  0  0  0  0
  146.8790  154.2930  136.5210 C   0  0  0  0  0  0  0  0  0  0  0  0
  145.4770  154.2960  135.9120 C   0  0  0  0  0  0  0  0  0  0  0  0
  145.4620  153.5960  134.6700 O   0  0  0  0  0  0  0  0  0  0  0  0
  145.5240  154.2310  133.4240 C   0  0  0  0  0  0  0  0  0  0  0  0
  144.6980  153.9390  132.5170 O   0  0  0  0  0  0  0  0  0  0  0  0
  146.5300  155.2290  133.1850 N   0  0  0  0  0  0  0  0  0  0  0  0
  147.8730  155.0350  133.0710 C   0  0  0  0  0  0  0  0  0  0  0  0
  148.5550  153.7270  132.9920 C   0  0  0  0  0  0  0  0  0  0  0  0
  148.1090  152.6120  133.7640 N   0  0  0  0  0  0  0  0  0  0  0  0
  149.5170  153.5780  132.1920 O   0  0  0  0  0  0  0  0  0  0  0  0
  148.5420  156.2540  132.9960 C   0  0  0  0  0  0  0  0  0  0  0  0
  147.5570  157.2130  133.0590 C   0  0  0  0  0  0  0  0  0  0  0  0
  147.6590  158.6020  133.0520 C   0  0  0  0  0  0  0  0  0  0  0  0
  146.4760  159.3490  133.1810 C   0  0  0  0  0  0  0  0  0  0  0  0
  145.2300  158.6970  133.3240 C   0  0  0  0  0  0  0  0  0  0  0  0
  144.0280  159.4740  133.4720 C   0  0  0  0  0  0  0  0  0  0  0  0
  143.0200  160.1240  133.5930 C   0  0  0  0  0  0  0  0  0  0  0  0
  141.7930  160.9120  133.7420 C   0  0  0  0  0  0  0  0  0  0  0  0
  140.6240  160.0560  133.5820 N   0  0  0  0  0  0  0  0  0  0  0  0
  140.0740  159.7000  132.3110 C   0  0  0  0  0  0  0  0  0  0  0  0
  140.4830  158.6700  131.7050 O   0  0  0  0  0  0  0  0  0  0  0  0
  139.0800  160.5050  131.7500 O   0  0  0  0  0  0  0  0  0  0  0  0
  138.2170  160.0490  130.7160 C   0  0  0  0  0  0  0  0  0  0  0  0
  145.1600  157.2900  133.3300 C   0  0  0  0  0  0  0  0  0  0  0  0
  146.3510  156.5690  133.1770 C   0  0  0  0  0  0  0  0  0  0  0  0
  148.2903  152.9139  138.3179 H   0  0  0  0  0  0  0  0  0  0  0  0
  149.0981  151.9431  137.0405 H   0  0  0  0  0  0  0  0  0  0  0  0
  149.2516  153.7328  137.0405 H   0  0  0  0  0  0  0  0  0  0  0  0
  146.8217  154.6105  137.5726 H   0  0  0  0  0  0  0  0  0  0  0  0
  147.5216  154.9878  135.9603 H   0  0  0  0  0  0  0  0  0  0  0  0
  144.7801  153.8080  136.6093 H   0  0  0  0  0  0  0  0  0  0  0  0
  145.1732  155.3379  135.7327 H   0  0  0  0  0  0  0  0  0  0  0  0
  148.6310  151.7090  133.7290 H   0  0  0  0  0  0  0  0  0  0  0  0
  147.2170  152.6510  134.3050 H   0  0  0  0  0  0  0  0  0  0  0  0
  149.6263  156.4158  132.9057 H   0  0  0  0  0  0  0  0  0  0  0  0
  148.6351  159.0986  132.9487 H   0  0  0  0  0  0  0  0  0  0  0  0
  146.5197  160.4481  133.1706 H   0  0  0  0  0  0  0  0  0  0  0  0
  141.7742  161.3700  134.7420 H   0  0  0  0  0  0  0  0  0  0  0  0
  141.7731  161.6957  132.9703 H   0  0  0  0  0  0  0  0  0  0  0  0
  137.3277  159.5791  131.1613 H   0  0  0  0  0  0  0  0  0  0  0  0
  137.9082  160.9017  130.0934 H   0  0  0  0  0  0  0  0  0  0  0  0
  138.7474  159.3135  130.0934 H   0  0  0  0  0  0  0  0  0  0  0  0
  144.1971  156.7722  133.4514 H   0  0  0  0  0  0  0  0  0  0  0  0
  1  2  1  0
  2  3  1  0
  3  4  1  0
  4  5  1  0
  5  6  1  0
  6  7  2  0
  6  8  1  0
  8  9  1  0
  9 10  1  0
 10 11  1  0
 10 12  2  0
  9 13  2  0
 13 14  1  0
 14 15  2  0
 15 16  1  0
 16 17  2  0
 17 18  1  0
 18 19  3  0
 19 20  1  0
 20 21  1  0
 21 22  1  0
 22 23  2  0
 22 24  1  0
 24 25  1  0
 17 26  1  0
 26 27  2  0
 27  8  1  0
 27 14  1  0
  1 28  1  0
  1 29  1  0
  1 30  1  0
  3 31  1  0
  3 32  1  0
  4 33  1  0
  4 34  1  0
 11 35  1  0
 11 36  1  0
 13 37  1  0
 15 38  1  0
 16 39  1  0
 20 40  1  0
 20 41  1  0
 25 42  1  0
 25 43  1  0
 25 44  1  0
 26 45  1  0
M  CHG  1  21  -1
M  END
>  <UniqueID>  (43) 
43

>  <SMILES>  (43) 
COCCOC(=O)n1c(C(N)=O)cc2ccc(C#CC[N-]C(=O)OC)cc21

>  <Energy>  (43) 
73.69126104085679

>  <Genealogy>  (43) 
COCCOC(=O)n1c(C(N)=O)cc2ccc(C#CC[N-]C(=O)OC)cc21 (protonated)
COCCOC(=O)n1c(C(N)=O)cc2ccc(C#CC[N-]C(=O)OC)cc21 (3D coordinates assigned)
COCCOC(=O)n1c(C(N)=O)cc2ccc(C#CC[N-]C(=O)OC)cc21 (optimized conformer: 73.69126104085679 kcal/mol)

>  <smiles>  (43) 
COCCOC(=O)n1c(C(N)=O)cc2ccc(C#CCNC(=O)OC)cc21

>  <score_type>  (43) 
oracle

>  <origin>  (43) 
adg

>  <m_score__min__energy>  (43) 
-7.1299999999999999

>  <m_primary>  (43) 
energy

$$$$
43:0
     RDKit          3D

 41 43  0  0  0  0  0  0  0  0999 V2000
  141.7760  159.3380  135.9000 C   0  0  0  0  0  0  0  0  0  0  0  0
  142.0190  158.8560  134.4550 C   0  0  0  0  0  0  0  0  0  0  0  0
  141.8040  157.3260  134.4100 C   0  0  0  0  0  0  0  0  0  0  0  0
  141.0030  159.4730  133.5100 C   0  0  0  0  0  0  0  0  0  0  0  0
  140.9710  160.7230  133.3480 O   0  0  0  0  0  0  0  0  0  0  0  0
  140.1340  158.6770  132.7720 O   0  0  0  0  0  0  0  0  0  0  0  0
  143.4380  159.2820  134.0370 C   0  0  0  0  0  0  0  0  0  0  0  0
  143.7880  160.6640  134.0810 C   0  0  0  0  0  0  0  0  0  0  0  0
  145.0810  161.1010  133.7500 C   0  0  0  0  0  0  0  0  0  0  0  0
  146.0190  160.1440  133.3870 C   0  0  0  0  0  0  0  0  0  0  0  0
  147.3440  160.2850  133.0350 C   0  0  0  0  0  0  0  0  0  0  0  0
  147.7990  158.9920  132.7880 C   0  0  0  0  0  0  0  0  0  0  0  0
  149.1650  158.6740  132.3230 C   0  0  0  0  0  0  0  0  0  0  0  0
  149.5880  157.3140  132.2390 N   0  0  0  0  0  0  0  0  0  0  0  0
  149.9700  159.5910  132.0110 O   0  0  0  0  0  0  0  0  0  0  0  0
  146.7970  158.0910  132.9900 N   0  0  0  0  0  0  0  0  0  0  0  0
  146.8570  156.6620  132.8640 C   0  0  0  0  0  0  0  0  0  0  0  0
  147.0360  156.1560  131.7230 O   0  0  0  0  0  0  0  0  0  0  0  0
  146.6750  155.7810  134.0440 C   0  0  0  0  0  0  0  0  0  0  0  0
  145.4380  155.1610  134.2910 C   0  0  0  0  0  0  0  0  0  0  0  0
  145.2770  154.3370  135.4040 C   0  0  0  0  0  0  0  0  0  0  0  0
  146.3530  154.1380  136.2710 C   0  0  0  0  0  0  0  0  0  0  0  0
  147.5420  154.7480  136.0280 N   0  0  0  0  0  0  0  0  0  0  0  0
  147.7260  155.5560  134.9500 C   0  0  0  0  0  0  0  0  0  0  0  0
  145.7150  158.8110  133.3480 C   0  0  0  0  0  0  0  0  0  0  0  0
  144.4420  158.3410  133.6790 C   0  0  0  0  0  0  0  0  0  0  0  0
  142.1556  158.5851  136.6064 H   0  0  0  0  0  0  0  0  0  0  0  0
  142.3016  160.2906  136.0620 H   0  0  0  0  0  0  0  0  0  0  0  0
  140.6976  159.4820  136.0620 H   0  0  0  0  0  0  0  0  0  0  0  0
  141.7488  156.9332  135.4360 H   0  0  0  0  0  0  0  0  0  0  0  0
  140.8657  157.1030  133.8810 H   0  0  0  0  0  0  0  0  0  0  0  0
  142.6445  156.8530  133.8810 H   0  0  0  0  0  0  0  0  0  0  0  0
  143.0297  161.4026  134.3803 H   0  0  0  0  0  0  0  0  0  0  0  0
  145.3426  162.1691  133.7775 H   0  0  0  0  0  0  0  0  0  0  0  0
  147.9196  161.2197  132.9642 H   0  0  0  0  0  0  0  0  0  0  0  0
  149.1330  156.6510  131.5740 H   0  0  0  0  0  0  0  0  0  0  0  0
  144.5947  155.3263  133.6043 H   0  0  0  0  0  0  0  0  0  0  0  0
  144.3108  153.8480  135.5973 H   0  0  0  0  0  0  0  0  0  0  0  0
  146.2379  153.4875  137.1505 H   0  0  0  0  0  0  0  0  0  0  0  0
  148.7021  156.0360  134.7860 H   0  0  0  0  0  0  0  0  0  0  0  0
  144.2205  157.2637  133.6630 H   0  0  0  0  0  0  0  0  0  0  0  0
  1  2  1  0
  2  3  1  0
  2  4  1  0
  4  5  2  0
  4  6  1  0
  2  7  1  0
  7  8  2  0
  8  9  1  0
  9 10  2  0
 10 11  1  0
 11 12  2  0
 12 13  1  0
 13 14  1  0
 13 15  2  0
 12 16  1  0
 16 17  1  0
 17 18  2  0
 17 19  1  0
 19 20  2  0
 20 21  1  0
 21 22  2  0
 22 23  1  0
 23 24  2  0
 16 25  1  0
 25 26  2  0
 26  7  1  0
 25 10  1  0
 24 19  1  0
  1 27  1  0
  1 28  1  0
  1 29  1  0
  3 30  1  0
  3 31  1  0
  3 32  1  0
  8 33  1  0
  9 34  1  0
 11 35  1  0
 14 36  1  0
 20 37  1  0
 21 38  1  0
 22 39  1  0
 24 40  1  0
 26 41  1  0
M  CHG  2   6  -1  14  -1
M  END
>  <UniqueID>  (44) 
44

>  <SMILES>  (44) 
CC(C)(C(=O)[O-])c1ccc2cc(C([NH-])=O)n(C(=O)c3cccnc3)c2c1

>  <Energy>  (44) 
88.30585997678835

>  <Genealogy>  (44) 
CC(C)(C(=O)[O-])c1ccc2cc(C([NH-])=O)n(C(=O)c3cccnc3)c2c1 (protonated)
CC(C)(C(=O)[O-])c1ccc2cc(C([NH-])=O)n(C(=O)c3cccnc3)c2c1 (3D coordinates assigned)
CC(C)(C(=O)[O-])c1ccc2cc(C([NH-])=O)n(C(=O)c3cccnc3)c2c1 (optimized conformer: 88.30585997678835 kcal/mol)

>  <smiles>  (44) 
CC(C)(C(=O)O)c1ccc2cc(C(N)=O)n(C(=O)c3cccnc3)c2c1

>  <score_type>  (44) 
oracle

>  <origin>  (44) 
adg

>  <m_score__min__energy>  (44) 
-8.0500000000000007

>  <m_primary>  (44) 
energy

$$$$
44:0
     RDKit          3D

 46 48  0  0  0  0  0  0  0  0999 V2000
  140.7410  154.8260  133.3570 C   0  0  0  0  0  0  0  0  0  0  0  0
  141.8770  155.4300  133.7200 C   0  0  0  0  0  0  0  0  0  0  0  0
  142.7110  154.9530  134.8860 C   0  0  2  0  0  0  0  0  0  0  0  0
  142.2390  155.5810  136.1960 C   0  0  0  0  0  0  0  0  0  0  0  0
  144.0920  155.2560  134.6840 O   0  0  0  0  0  0  0  0  0  0  0  0
  144.6060  155.7340  133.4720 C   0  0  0  0  0  0  0  0  0  0  0  0
  144.5400  155.0250  132.4310 O   0  0  0  0  0  0  0  0  0  0  0  0
  145.2360  157.0260  133.4220 N   0  0  0  0  0  0  0  0  0  0  0  0
  146.5140  157.3110  133.0410 C   0  0  0  0  0  0  0  0  0  0  0  0
  147.5700  156.3140  132.7650 C   0  0  0  0  0  0  0  0  0  0  0  0
  147.3350  155.2330  131.8620 N   0  0  0  0  0  0  0  0  0  0  0  0
  148.7030  156.4320  133.3010 O   0  0  0  0  0  0  0  0  0  0  0  0
  146.7290  158.6870  133.0390 C   0  0  0  0  0  0  0  0  0  0  0  0
  145.5360  159.2440  133.4330 C   0  0  0  0  0  0  0  0  0  0  0  0
  145.1830  160.5800  133.5970 C   0  0  0  0  0  0  0  0  0  0  0  0
  143.8680  160.8710  133.9910 C   0  0  0  0  0  0  0  0  0  0  0  0
  142.9290  159.8300  134.2000 C   0  0  0  0  0  0  0  0  0  0  0  0
  141.5300  160.1570  134.6490 C   0  0  0  0  0  0  0  0  0  0  0  0
  140.5480  159.5110  133.7630 N   0  0  0  0  0  0  0  0  0  0  0  0
  140.2390  160.1080  132.5710 C   0  0  0  0  0  0  0  0  0  0  0  0
  139.2900  159.5470  131.7150 C   0  0  0  0  0  0  0  0  0  0  0  0
  138.9950  160.1450  130.5350 F   0  0  0  0  0  0  0  0  0  0  0  0
  138.6480  158.3680  132.0830 C   0  0  0  0  0  0  0  0  0  0  0  0
  138.9570  157.7650  133.3020 C   0  0  0  0  0  0  0  0  0  0  0  0
  138.3280  156.6200  133.6670 F   0  0  0  0  0  0  0  0  0  0  0  0
  139.9120  158.3510  134.1410 C   0  0  0  0  0  0  0  0  0  0  0  0
  140.1800  157.8000  135.2420 O   0  0  0  0  0  0  0  0  0  0  0  0
  143.3250  158.4850  134.0300 C   0  0  0  0  0  0  0  0  0  0  0  0
  144.6490  158.2220  133.6560 C   0  0  0  0  0  0  0  0  0  0  0  0
  140.1647  155.2070  132.5010 H   0  0  0  0  0  0  0  0  0  0  0  0
  140.3825  153.9480  133.9143 H   0  0  0  0  0  0  0  0  0  0  0  0
  142.2170  156.3064  133.1488 H   0  0  0  0  0  0  0  0  0  0  0  0
  142.5879  153.8618  134.9506 H   0  0  0  0  0  0  0  0  0  0  0  0
  142.6601  155.0207  137.0438 H   0  0  0  0  0  0  0  0  0  0  0  0
  142.5765  156.6269  136.2438 H   0  0  0  0  0  0  0  0  0  0  0  0
  141.1405  155.5476  136.2438 H   0  0  0  0  0  0  0  0  0  0  0  0
  146.3950  155.0760  131.4380 H   0  0  0  0  0  0  0  0  0  0  0  0
  148.1010  154.5560  131.6460 H   0  0  0  0  0  0  0  0  0  0  0  0
  147.6573  159.2160  132.7774 H   0  0  0  0  0  0  0  0  0  0  0  0
  145.9131  161.3841  133.4230 H   0  0  0  0  0  0  0  0  0  0  0  0
  143.5629  161.9174  134.1391 H   0  0  0  0  0  0  0  0  0  0  0  0
  141.3846  159.7953  135.6776 H   0  0  0  0  0  0  0  0  0  0  0  0
  141.3860  161.2469  134.6104 H   0  0  0  0  0  0  0  0  0  0  0  0
  140.7448  161.0416  132.2839 H   0  0  0  0  0  0  0  0  0  0  0  0
  137.9006  157.9141  131.4156 H   0  0  0  0  0  0  0  0  0  0  0  0
  142.6106  157.6635  134.1876 H   0  0  0  0  0  0  0  0  0  0  0  0
  1  2  2  0
  2  3  1  0
  3  4  1  0
  3  5  1  0
  5  6  1  0
  6  7  2  0
  6  8  1  0
  8  9  1  0
  9 10  1  0
 10 11  1  0
 10 12  2  0
  9 13  2  0
 13 14  1  0
 14 15  2  0
 15 16  1  0
 16 17  2  0
 17 18  1  0
 18 19  1  0
 19 20  1  0
 20 21  2  0
 21 22  1  0
 21 23  1  0
 23 24  2  0
 24 25  1  0
 24 26  1  0
 26 27  2  0
 17 28  1  0
 28 29  2  0
 29  8  1  0
 29 14  1  0
 26 19  1  0
  1 30  1  0
  1 31  1  0
  2 32  1  0
  3 33  1  1
  4 34  1  0
  4 35  1  0
  4 36  1  0
 11 37  1  0
 11 38  1  0
 13 39  1  0
 15 40  1  0
 16 41  1  0
 18 42  1  0
 18 43  1  0
 20 44  1  0
 23 45  1  0
 28 46  1  0
M  END
>  <UniqueID>  (45) 
45

>  <SMILES>  (45) 
C=C[C@H](C)OC(=O)n1c(C(N)=O)cc2ccc(Cn3cc(F)cc(F)c3=O)cc21

>  <Energy>  (45) 
82.47191558579696

>  <Genealogy>  (45) 
C=C[C@H](C)OC(=O)n1c(C(N)=O)cc2ccc(Cn3cc(F)cc(F)c3=O)cc21 (chirality)
C=C[C@H](C)OC(=O)n1c(C(N)=O)cc2ccc(Cn3cc(F)cc(F)c3=O)cc21 (3D coordinates assigned)
C=C[C@H](C)OC(=O)n1c(C(N)=O)cc2ccc(Cn3cc(F)cc(F)c3=O)cc21 (optimized conformer: 82.47191558579696 kcal/mol)

>  <smiles>  (45) 
C=CC(C)OC(=O)n1c(C(N)=O)cc2ccc(Cn3cc(F)cc(F)c3=O)cc21

>  <score_type>  (45) 
oracle

>  <origin>  (45) 
adg

>  <m_score__min__energy>  (45) 
-8.2699999999999996

>  <m_primary>  (45) 
energy

$$$$
45:0
     RDKit          3D

 47 49  0  0  0  0  0  0  0  0999 V2000
  138.7710  158.3110  132.5980 C   0  0  0  0  0  0  0  0  0  0  0  0
  139.5820  157.7170  133.7110 C   0  0  0  0  0  0  0  0  0  0  0  0
  139.4260  158.1950  135.0170 C   0  0  0  0  0  0  0  0  0  0  0  0
  140.1550  157.6120  136.0540 C   0  0  0  0  0  0  0  0  0  0  0  0
  141.0060  156.5840  135.7950 N   0  0  0  0  0  0  0  0  0  0  0  0
  141.1870  156.0940  134.5390 C   0  0  0  0  0  0  0  0  0  0  0  0
  142.1090  155.0090  134.3440 N   0  0  0  0  0  0  0  0  0  0  0  0
  141.7340  153.6030  134.5170 C   0  0  0  0  0  0  0  0  0  0  0  0
  142.8210  152.6380  134.0210 C   0  0  0  0  0  0  0  0  0  0  0  0
  143.8550  153.3000  133.2280 N   0  0  0  0  0  0  0  0  0  0  0  0
  144.9080  154.1560  133.6940 C   0  0  0  0  0  0  0  0  0  0  0  0
  144.8900  154.5250  134.8980 O   0  0  0  0  0  0  0  0  0  0  0  0
  146.0140  154.6570  132.8010 C   0  0  0  0  0  0  0  0  0  0  0  0
  146.3360  156.1190  133.0320 C   0  0  0  0  0  0  0  0  0  0  0  0
  147.6580  156.6180  132.8800 C   0  0  0  0  0  0  0  0  0  0  0  0
  147.9390  157.9800  133.0760 C   0  0  0  0  0  0  0  0  0  0  0  0
  146.8830  158.8270  133.3860 C   0  0  0  0  0  0  0  0  0  0  0  0
  146.8800  160.1780  133.6400 C   0  0  0  0  0  0  0  0  0  0  0  0
  145.5490  160.5030  133.8830 C   0  0  0  0  0  0  0  0  0  0  0  0
  145.0830  161.8870  134.1100 C   0  0  0  0  0  0  0  0  0  0  0  0
  145.8910  162.8230  134.8190 N   0  0  0  0  0  0  0  0  0  0  0  0
  143.9370  162.2330  133.7170 O   0  0  0  0  0  0  0  0  0  0  0  0
  144.7580  159.3970  133.7950 N   0  0  0  0  0  0  0  0  0  0  0  0
  143.3500  159.2980  134.0700 C   0  0  0  0  0  0  0  0  0  0  0  0
  142.5430  158.9830  133.1570 O   0  0  0  0  0  0  0  0  0  0  0  0
  142.8670  159.5250  135.3530 O   0  0  0  0  0  0  0  0  0  0  0  0
  145.5930  158.3770  133.4860 C   0  0  0  0  0  0  0  0  0  0  0  0
  145.2850  157.0210  133.3170 C   0  0  0  0  0  0  0  0  0  0  0  0
  140.4690  156.6580  133.4690 C   0  0  0  0  0  0  0  0  0  0  0  0
  137.9518  158.9110  133.0210 H   0  0  0  0  0  0  0  0  0  0  0  0
  139.4139  158.9534  131.9783 H   0  0  0  0  0  0  0  0  0  0  0  0
  138.3525  157.5043  131.9783 H   0  0  0  0  0  0  0  0  0  0  0  0
  138.7337  159.0243  135.2245 H   0  0  0  0  0  0  0  0  0  0  0  0
  140.0410  157.9847  137.0826 H   0  0  0  0  0  0  0  0  0  0  0  0
  143.0620  155.2510  133.9890 H   0  0  0  0  0  0  0  0  0  0  0  0
  141.5563  153.4145  135.5861 H   0  0  0  0  0  0  0  0  0  0  0  0
  140.8291  153.4228  133.9181 H   0  0  0  0  0  0  0  0  0  0  0  0
  143.2967  152.1674  134.8941 H   0  0  0  0  0  0  0  0  0  0  0  0
  142.3316  151.8979  133.3708 H   0  0  0  0  0  0  0  0  0  0  0  0
  146.9191  154.0626  132.9948 H   0  0  0  0  0  0  0  0  0  0  0  0
  145.6733  154.5526  131.7603 H   0  0  0  0  0  0  0  0  0  0  0  0
  148.4707  155.9293  132.6056 H   0  0  0  0  0  0  0  0  0  0  0  0
  148.9656  158.3647  132.9866 H   0  0  0  0  0  0  0  0  0  0  0  0
  147.7452  160.8572  133.6492 H   0  0  0  0  0  0  0  0  0  0  0  0
  146.9330  162.7740  134.7770 H   0  0  0  0  0  0  0  0  0  0  0  0
  144.2477  156.6654  133.4041 H   0  0  0  0  0  0  0  0  0  0  0  0
  140.6025  156.2706  132.4482 H   0  0  0  0  0  0  0  0  0  0  0  0
  1  2  1  0
  2  3  2  0
  3  4  1  0
  4  5  2  0
  5  6  1  0
  6  7  1  0
  7  8  1  0
  8  9  1  0
  9 10  1  0
 10 11  1  0
 11 12  2  0
 11 13  1  0
 13 14  1  0
 14 15  2  0
 15 16  1  0
 16 17  2  0
 17 18  1  0
 18 19  2  0
 19 20  1  0
 20 21  1  0
 20 22  2  0
 19 23  1  0
 23 24  1  0
 24 25  2  0
 24 26  1  0
 23 27  1  0
 27 28  2  0
  6 29  2  0
 29  2  1  0
 28 14  1  0
 27 17  1  0
  1 30  1  0
  1 31  1  0
  1 32  1  0
  3 33  1  0
  4 34  1  0
  7 35  1  0
  8 36  1  0
  8 37  1  0
  9 38  1  0
  9 39  1  0
 13 40  1  0
 13 41  1  0
 15 42  1  0
 16 43  1  0
 18 44  1  0
 21 45  1  0
 28 46  1  0
 29 47  1  0
M  CHG  3  10  -1  21  -1  26  -1
M  END
>  <UniqueID>  (46) 
46

>  <SMILES>  (46) 
Cc1ccnc(NCC[N-]C(=O)Cc2ccc3cc(C([NH-])=O)n(C(=O)[O-])c3c2)c1

>  <Energy>  (46) 
79.93387591445189

>  <Genealogy>  (46) 
Cc1ccnc(NCC[N-]C(=O)Cc2ccc3cc(C([NH-])=O)n(C(=O)[O-])c3c2)c1 (protonated)
Cc1ccnc(NCC[N-]C(=O)Cc2ccc3cc(C([NH-])=O)n(C(=O)[O-])c3c2)c1 (3D coordinates assigned)
Cc1ccnc(NCC[N-]C(=O)Cc2ccc3cc(C([NH-])=O)n(C(=O)[O-])c3c2)c1 (optimized conformer: 79.93387591445189 kcal/mol)

>  <smiles>  (46) 
Cc1ccnc(NCCNC(=O)Cc2ccc3cc(C(N)=O)n(C(=O)O)c3c2)c1

>  <score_type>  (46) 
oracle

>  <origin>  (46) 
adg

>  <m_score__min__energy>  (46) 
-8.3800000000000008

>  <m_primary>  (46) 
energy

$$$$
46:0
     RDKit          3D

 35 36  0  0  0  0  0  0  0  0999 V2000
  140.3980  149.5330  132.9950 C   0  0  0  0  0  0  0  0  0  0  0  0
  141.4010  150.6470  132.9860 C   0  0  0  0  0  0  0  0  0  0  0  0
  142.7750  150.3640  132.7900 C   0  0  0  0  0  0  0  0  0  0  0  0
  143.7180  151.4020  132.7280 C   0  0  0  0  0  0  0  0  0  0  0  0
  143.2600  152.7090  132.8630 C   0  0  0  0  0  0  0  0  0  0  0  0
  143.9490  153.8990  132.8010 C   0  0  0  0  0  0  0  0  0  0  0  0
  142.9870  154.8900  132.9770 C   0  0  0  0  0  0  0  0  0  0  0  0
  143.3070  156.3300  133.0390 C   0  0  0  0  0  0  0  0  0  0  0  0
  142.5260  157.2940  132.3300 N   0  0  0  0  0  0  0  0  0  0  0  0
  144.2540  156.7230  133.7730 O   0  0  0  0  0  0  0  0  0  0  0  0
  141.7490  154.3400  133.1270 N   0  0  0  0  0  0  0  0  0  0  0  0
  140.4910  155.0260  133.2190 C   0  0  0  0  0  0  0  0  0  0  0  0
  139.4180  154.4100  132.9670 O   0  0  0  0  0  0  0  0  0  0  0  0
  140.4600  156.3750  133.5860 O   0  0  0  0  0  0  0  0  0  0  0  0
  139.3200  157.2170  133.4170 C   0  0  1  0  0  0  0  0  0  0  0  0
  139.0890  158.0570  134.6760 C   0  0  0  0  0  0  0  0  0  0  0  0
  139.5410  158.1150  132.2390 C   0  0  0  0  0  0  0  0  0  0  0  0
  138.7300  158.1060  131.2730 O   0  0  0  0  0  0  0  0  0  0  0  0
  140.6660  158.9330  132.1950 O   0  0  0  0  0  0  0  0  0  0  0  0
  140.6150  160.1980  132.6500 F   0  0  0  0  0  0  0  0  0  0  0  0
  141.9330  153.0020  133.0580 C   0  0  0  0  0  0  0  0  0  0  0  0
  140.9690  151.9870  133.1000 C   0  0  0  0  0  0  0  0  0  0  0  0
  140.1568  149.2651  134.0343 H   0  0  0  0  0  0  0  0  0  0  0  0
  139.4831  149.8592  132.4787 H   0  0  0  0  0  0  0  0  0  0  0  0
  140.8180  148.6572  132.4787 H   0  0  0  0  0  0  0  0  0  0  0  0
  143.1064  149.3203  132.6853 H   0  0  0  0  0  0  0  0  0  0  0  0
  144.7865  151.1887  132.5773 H   0  0  0  0  0  0  0  0  0  0  0  0
  145.0291  154.0375  132.6456 H   0  0  0  0  0  0  0  0  0  0  0  0
  142.7920  158.3030  132.3540 H   0  0  0  0  0  0  0  0  0  0  0  0
  141.6370  157.0220  131.8550 H   0  0  0  0  0  0  0  0  0  0  0  0
  138.4308  156.5928  133.2447 H   0  0  0  0  0  0  0  0  0  0  0  0
  139.2598  157.4359  135.5676 H   0  0  0  0  0  0  0  0  0  0  0  0
  139.7866  158.9075  134.6824 H   0  0  0  0  0  0  0  0  0  0  0  0
  138.0546  158.4312  134.6824 H   0  0  0  0  0  0  0  0  0  0  0  0
  139.9021  152.2273  133.2188 H   0  0  0  0  0  0  0  0  0  0  0  0
  1  2  1  0
  2  3  2  0
  3  4  1  0
  4  5  2  0
  5  6  1  0
  6  7  2  0
  7  8  1  0
  8  9  1  0
  8 10  2  0
  7 11  1  0
 11 12  1  0
 12 13  2  0
 12 14  1  0
 14 15  1  0
 15 16  1  0
 15 17  1  0
 17 18  2  0
 17 19  1  0
 19 20  1  0
 11 21  1  0
 21 22  2  0
 22  2  1  0
 21  5  1  0
  1 23  1  0
  1 24  1  0
  1 25  1  0
  3 26  1  0
  4 27  1  0
  6 28  1  0
  9 29  1  0
  9 30  1  0
 15 31  1  6
 16 32  1  0
 16 33  1  0
 16 34  1  0
 22 35  1  0
M  END
>  <UniqueID>  (47) 
47

>  <SMILES>  (47) 
Cc1ccc2cc(C(N)=O)n(C(=O)O[C@@H](C)C(=O)OF)c2c1

>  <Energy>  (47) 
68.77086914025789

>  <Genealogy>  (47) 
Cc1ccc2cc(C(N)=O)n(C(=O)O[C@@H](C)C(=O)OF)c2c1 (chirality)
Cc1ccc2cc(C(N)=O)n(C(=O)O[C@@H](C)C(=O)OF)c2c1 (3D coordinates assigned)
Cc1ccc2cc(C(N)=O)n(C(=O)O[C@@H](C)C(=O)OF)c2c1 (optimized conformer: 68.77086914025789 kcal/mol)

>  <smiles>  (47) 
Cc1ccc2cc(C(N)=O)n(C(=O)OC(C)C(=O)OF)c2c1

>  <score_type>  (47) 
oracle

>  <origin>  (47) 
adg

>  <m_score__min__energy>  (47) 
-6.5899999999999999

>  <m_primary>  (47) 
energy

$$$$
47:0
     RDKit          3D

 50 52  0  0  0  0  0  0  0  0999 V2000
  139.5150  157.8740  133.4140 C   0  0  0  0  0  0  0  0  0  0  0  0
  140.5600  157.9330  134.2420 C   0  0  0  0  0  0  0  0  0  0  0  0
  140.6630  158.9940  135.2930 C   0  0  0  0  0  0  0  0  0  0  0  0
  141.9810  159.5330  135.3040 O   0  0  0  0  0  0  0  0  0  0  0  0
  142.5750  160.0880  134.1670 C   0  0  0  0  0  0  0  0  0  0  0  0
  141.8800  160.7370  133.3390 O   0  0  0  0  0  0  0  0  0  0  0  0
  143.9790  159.9000  133.9330 N   0  0  0  0  0  0  0  0  0  0  0  0
  144.9420  160.8590  133.8210 C   0  0  0  0  0  0  0  0  0  0  0  0
  144.7690  162.3020  134.0910 C   0  0  0  0  0  0  0  0  0  0  0  0
  143.7830  163.0650  133.4000 N   0  0  0  0  0  0  0  0  0  0  0  0
  145.4680  162.8590  134.9790 O   0  0  0  0  0  0  0  0  0  0  0  0
  146.1650  160.2850  133.4820 C   0  0  0  0  0  0  0  0  0  0  0  0
  145.9210  158.9330  133.3950 C   0  0  0  0  0  0  0  0  0  0  0  0
  146.7800  157.8910  133.0630 C   0  0  0  0  0  0  0  0  0  0  0  0
  146.2480  156.5930  133.0060 C   0  0  0  0  0  0  0  0  0  0  0  0
  144.8750  156.3570  133.2750 C   0  0  0  0  0  0  0  0  0  0  0  0
  144.3270  154.9820  133.1860 C   0  0  0  0  0  0  0  0  0  0  0  0
  142.9840  154.7330  133.5100 C   0  0  0  0  0  0  0  0  0  0  0  0
  142.4580  153.4450  133.4150 C   0  0  0  0  0  0  0  0  0  0  0  0
  143.2630  152.3760  132.9860 C   0  0  0  0  0  0  0  0  0  0  0  0
  142.7500  151.0400  132.8710 N   0  0  0  0  0  0  0  0  0  0  0  0
  141.1530  150.5190  133.3030 S   0  0  0  0  0  0  0  0  0  0  0  0
  140.8570  148.8750  132.6890 C   0  0  0  0  0  0  0  0  0  0  0  0
  140.9830  150.5620  134.7950 O   0  0  0  0  0  0  0  0  0  0  0  0
  140.1560  151.4520  132.6760 O   0  0  0  0  0  0  0  0  0  0  0  0
  144.6060  152.6120  132.6520 C   0  0  0  0  0  0  0  0  0  0  0  0
  145.3800  151.5280  132.2080 O   0  0  0  0  0  0  0  0  0  0  0  0
  146.8030  151.4980  132.2050 C   0  0  0  0  0  0  0  0  0  0  0  0
  145.1360  153.9130  132.7630 C   0  0  0  0  0  0  0  0  0  0  0  0
  144.0350  157.4430  133.6150 C   0  0  0  0  0  0  0  0  0  0  0  0
  144.5950  158.7260  133.6750 C   0  0  0  0  0  0  0  0  0  0  0  0
  139.4626  157.0845  132.6499 H   0  0  0  0  0  0  0  0  0  0  0  0
  138.7061  158.6149  133.4957 H   0  0  0  0  0  0  0  0  0  0  0  0
  141.3625  157.1863  134.1503 H   0  0  0  0  0  0  0  0  0  0  0  0
  139.9420  159.7957  135.0750 H   0  0  0  0  0  0  0  0  0  0  0  0
  140.4411  158.5547  136.2768 H   0  0  0  0  0  0  0  0  0  0  0  0
  142.8690  162.6410  133.1280 H   0  0  0  0  0  0  0  0  0  0  0  0
  147.1221  160.8020  133.3186 H   0  0  0  0  0  0  0  0  0  0  0  0
  147.8432  158.0779  132.8516 H   0  0  0  0  0  0  0  0  0  0  0  0
  146.9040  155.7481  132.7495 H   0  0  0  0  0  0  0  0  0  0  0  0
  142.3407  155.5613  133.8418 H   0  0  0  0  0  0  0  0  0  0  0  0
  141.4052  153.2645  133.6778 H   0  0  0  0  0  0  0  0  0  0  0  0
  140.7326  148.1842  133.5359 H   0  0  0  0  0  0  0  0  0  0  0  0
  139.9438  148.8715  132.0758 H   0  0  0  0  0  0  0  0  0  0  0  0
  141.7116  148.5532  132.0758 H   0  0  0  0  0  0  0  0  0  0  0  0
  147.1718  151.4902  133.2413 H   0  0  0  0  0  0  0  0  0  0  0  0
  147.1496  150.5924  131.6857 H   0  0  0  0  0  0  0  0  0  0  0  0
  147.1874  152.3882  131.6857 H   0  0  0  0  0  0  0  0  0  0  0  0
  146.1926  154.0937  132.5163 H   0  0  0  0  0  0  0  0  0  0  0  0
  142.9674  157.2841  133.8273 H   0  0  0  0  0  0  0  0  0  0  0  0
  1  2  2  0
  2  3  1  0
  3  4  1  0
  4  5  1  0
  5  6  2  0
  5  7  1  0
  7  8  1  0
  8  9  1  0
  9 10  1  0
  9 11  2  0
  8 12  2  0
 12 13  1  0
 13 14  2  0
 14 15  1  0
 15 16  2  0
 16 17  1  0
 17 18  2  0
 18 19  1  0
 19 20  2  0
 20 21  1  0
 21 22  1  0
 22 23  1  0
 22 24  2  0
 22 25  2  0
 20 26  1  0
 26 27  1  0
 27 28  1  0
 26 29  2  0
 16 30  1  0
 30 31  2  0
 31  7  1  0
 31 13  1  0
 29 17  1  0
  1 32  1  0
  1 33  1  0
  2 34  1  0
  3 35  1  0
  3 36  1  0
 10 37  1  0
 12 38  1  0
 14 39  1  0
 15 40  1  0
 18 41  1  0
 19 42  1  0
 23 43  1  0
 23 44  1  0
 23 45  1  0
 28 46  1  0
 28 47  1  0
 28 48  1  0
 29 49  1  0
 30 50  1  0
M  CHG  2  10  -1  21  -1
M  END
>  <UniqueID>  (48) 
48

>  <SMILES>  (48) 
C=CCOC(=O)n1c(C([NH-])=O)cc2ccc(-c3ccc([N-]S(C)(=O)=O)c(OC)c3)cc21

>  <Energy>  (48) 
89.20324606247524

>  <Genealogy>  (48) 
C=CCOC(=O)n1c(C([NH-])=O)cc2ccc(-c3ccc([N-]S(C)(=O)=O)c(OC)c3)cc21 (protonated)
C=CCOC(=O)n1c(C([NH-])=O)cc2ccc(-c3ccc([N-]S(C)(=O)=O)c(OC)c3)cc21 (3D coordinates assigned)
C=CCOC(=O)n1c(C([NH-])=O)cc2ccc(-c3ccc([N-]S(C)(=O)=O)c(OC)c3)cc21 (optimized conformer: 89.20324606247524 kcal/mol)

>  <smiles>  (48) 
C=CCOC(=O)n1c(C(N)=O)cc2ccc(-c3ccc(NS(C)(=O)=O)c(OC)c3)cc21

>  <score_type>  (48) 
oracle

>  <origin>  (48) 
adg

>  <m_score__min__energy>  (48) 
-8.9399999999999995

>  <m_primary>  (48) 
energy

$$$$
49:0
     RDKit          3D

 35 37  0  0  0  0  0  0  0  0999 V2000
  147.7380  157.2830  131.8790 N   0  0  0  0  0  0  0  0  0  0  0  0
  147.4640  158.4010  132.7260 C   0  0  0  0  0  0  0  0  0  0  0  0
  148.4120  159.1470  133.0890 O   0  0  0  0  0  0  0  0  0  0  0  0
  146.0840  158.7340  133.1290 C   0  0  0  0  0  0  0  0  0  0  0  0
  145.5940  160.0360  133.1700 C   0  0  0  0  0  0  0  0  0  0  0  0
  144.2700  159.9130  133.5270 C   0  0  0  0  0  0  0  0  0  0  0  0
  143.3080  160.8960  133.7320 C   0  0  0  0  0  0  0  0  0  0  0  0
  142.0260  160.4890  134.1380 C   0  0  0  0  0  0  0  0  0  0  0  0
  141.7280  159.1150  134.3360 C   0  0  0  0  0  0  0  0  0  0  0  0
  140.3480  158.6980  134.8120 C   0  0  1  0  0  0  0  0  0  0  0  0
  139.6910  157.7850  133.7330 C   0  0  0  0  0  0  0  0  0  0  0  0
  139.8500  158.3060  132.3070 C   0  0  0  0  0  0  0  0  0  0  0  0
  138.4700  158.2370  132.9320 C   0  0  0  0  0  0  0  0  0  0  0  0
  140.4410  158.1120  136.2400 C   0  0  0  0  0  0  0  0  0  0  0  0
  141.1840  156.9440  136.2510 F   0  0  0  0  0  0  0  0  0  0  0  0
  139.1770  157.8550  136.7390 F   0  0  0  0  0  0  0  0  0  0  0  0
  141.0470  159.0270  137.0850 F   0  0  0  0  0  0  0  0  0  0  0  0
  142.7410  158.1470  134.1250 C   0  0  0  0  0  0  0  0  0  0  0  0
  144.0020  158.5800  133.6990 C   0  0  0  0  0  0  0  0  0  0  0  0
  145.1090  157.8400  133.4610 N   0  0  0  0  0  0  0  0  0  0  0  0
  145.2510  156.4210  133.6420 C   0  0  0  0  0  0  0  0  0  0  0  0
  145.5680  155.6830  132.6720 O   0  0  0  0  0  0  0  0  0  0  0  0
  145.0400  155.8460  134.8890 O   0  0  0  0  0  0  0  0  0  0  0  0
  148.7240  157.0390  131.6360 H   0  0  0  0  0  0  0  0  0  0  0  0
  146.9660  156.7490  131.4250 H   0  0  0  0  0  0  0  0  0  0  0  0
  146.1462  160.9643  132.9618 H   0  0  0  0  0  0  0  0  0  0  0  0
  143.5436  161.9598  133.5809 H   0  0  0  0  0  0  0  0  0  0  0  0
  141.2436  161.2441  134.3045 H   0  0  0  0  0  0  0  0  0  0  0  0
  139.6672  159.5559  134.9144 H   0  0  0  0  0  0  0  0  0  0  0  0
  139.8955  156.8690  134.3067 H   0  0  0  0  0  0  0  0  0  0  0  0
  140.3239  159.2825  132.1288 H   0  0  0  0  0  0  0  0  0  0  0  0
  140.3044  157.9157  131.3844 H   0  0  0  0  0  0  0  0  0  0  0  0
  137.9444  159.1633  133.2072 H   0  0  0  0  0  0  0  0  0  0  0  0
  137.5117  157.7762  132.6502 H   0  0  0  0  0  0  0  0  0  0  0  0
  142.5407  157.0784  134.2924 H   0  0  0  0  0  0  0  0  0  0  0  0
  1  2  1  0
  2  3  2  0
  2  4  1  0
  4  5  2  0
  5  6  1  0
  6  7  2  0
  7  8  1  0
  8  9  2  0
  9 10  1  0
 10 11  1  0
 11 12  1  0
 12 13  1  0
 10 14  1  0
 14 15  1  0
 14 16  1  0
 14 17  1  0
  9 18  1  0
 18 19  2  0
 19 20  1  0
 20 21  1  0
 21 22  2  0
 21 23  1  0
 20  4  1  0
 19  6  1  0
 13 11  1  0
  1 24  1  0
  1 25  1  0
  5 26  1  0
  7 27  1  0
  8 28  1  0
 10 29  1  1
 11 30  1  0
 12 31  1  0
 12 32  1  0
 13 33  1  0
 13 34  1  0
 18 35  1  0
M  CHG  1  23  -1
M  END
>  <UniqueID>  (49) 
49

>  <SMILES>  (49) 
NC(=O)c1cc2ccc([C@@H](C3CC3)C(F)(F)F)cc2n1C(=O)[O-]

>  <Energy>  (49) 
345.53340372516914

>  <Genealogy>  (49) 
NC(=O)c1cc2ccc(C(C3CC3)C(F)(F)F)cc2n1C(=O)[O-] (protonated)
NC(=O)c1cc2ccc([C@@H](C3CC3)C(F)(F)F)cc2n1C(=O)[O-] (chirality)
NC(=O)c1cc2ccc([C@@H](C3CC3)C(F)(F)F)cc2n1C(=O)[O-] (3D coordinates assigned)
NC(=O)c1cc2ccc([C@@H](C3CC3)C(F)(F)F)cc2n1C(=O)[O-] (nonaromatic ring conformer: 345.53340372516914 kcal/mol)

>  <smiles>  (49) 
NC(=O)c1cc2ccc(C(C3CC3)C(F)(F)F)cc2n1C(=O)O

>  <score_type>  (49) 
oracle

>  <origin>  (49) 
adg

>  <m_score__min__energy>  (49) 
-6.7699999999999996

>  <m_primary>  (49) 
energy

$$$$
50:0
     RDKit          3D

 44 45  0  0  0  0  0  0  0  0999 V2000
  139.4810  156.5960  133.0060 C   0  0  0  0  0  0  0  0  0  0  0  0
  139.4310  157.9940  133.6570 C   0  0  0  0  0  0  0  0  0  0  0  0
  139.4680  159.0410  132.5250 C   0  0  0  0  0  0  0  0  0  0  0  0
  140.5560  158.1620  134.6260 N   0  0  0  0  0  0  0  0  0  0  0  0
  140.1000  158.6060  135.9590 C   0  0  0  0  0  0  0  0  0  0  0  0
  141.3720  156.9250  134.7550 C   0  0  0  0  0  0  0  0  0  0  0  0
  142.8540  157.2960  134.8160 C   0  0  0  0  0  0  0  0  0  0  0  0
  143.2950  157.9200  133.5250 C   0  0  0  0  0  0  0  0  0  0  0  0
  142.5800  157.8010  132.4950 O   0  0  0  0  0  0  0  0  0  0  0  0
  144.4880  158.7160  133.4780 N   0  0  0  0  0  0  0  0  0  0  0  0
  144.5840  160.0720  133.5700 C   0  0  0  0  0  0  0  0  0  0  0  0
  143.4520  161.0090  133.7360 C   0  0  0  0  0  0  0  0  0  0  0  0
  142.1390  160.5020  133.9590 N   0  0  0  0  0  0  0  0  0  0  0  0
  143.6290  162.2550  133.6780 O   0  0  0  0  0  0  0  0  0  0  0  0
  145.9210  160.4670  133.5320 C   0  0  0  0  0  0  0  0  0  0  0  0
  146.6430  159.3000  133.4130 C   0  0  0  0  0  0  0  0  0  0  0  0
  148.0180  159.1000  133.3410 C   0  0  0  0  0  0  0  0  0  0  0  0
  148.4850  157.7800  133.2170 C   0  0  0  0  0  0  0  0  0  0  0  0
  147.5760  156.6920  133.1420 C   0  0  0  0  0  0  0  0  0  0  0  0
  148.0850  155.2760  133.0520 C   0  0  0  0  0  0  0  0  0  0  0  0
  148.1270  154.6950  134.3070 F   0  0  0  0  0  0  0  0  0  0  0  0
  147.2630  154.5070  132.2470 F   0  0  0  0  0  0  0  0  0  0  0  0
  149.3600  155.2850  132.5180 F   0  0  0  0  0  0  0  0  0  0  0  0
  146.1870  156.9380  133.2390 C   0  0  0  0  0  0  0  0  0  0  0  0
  145.7530  158.2600  133.3810 C   0  0  0  0  0  0  0  0  0  0  0  0
  139.5085  155.8265  133.7916 H   0  0  0  0  0  0  0  0  0  0  0  0
  138.5875  156.4503  132.3812 H   0  0  0  0  0  0  0  0  0  0  0  0
  140.3826  156.5145  132.3812 H   0  0  0  0  0  0  0  0  0  0  0  0
  138.5057  158.1253  134.2371 H   0  0  0  0  0  0  0  0  0  0  0  0
  139.5037  160.0506  132.9603 H   0  0  0  0  0  0  0  0  0  0  0  0
  140.3609  158.8778  131.9037 H   0  0  0  0  0  0  0  0  0  0  0  0
  138.5658  158.9413  131.9037 H   0  0  0  0  0  0  0  0  0  0  0  0
  140.6573  158.0633  136.7367 H   0  0  0  0  0  0  0  0  0  0  0  0
  140.2781  159.6862  136.0665 H   0  0  0  0  0  0  0  0  0  0  0  0
  139.0250  158.3992  136.0665 H   0  0  0  0  0  0  0  0  0  0  0  0
  141.0889  156.3934  135.6755 H   0  0  0  0  0  0  0  0  0  0  0  0
  141.1922  156.2749  133.8860 H   0  0  0  0  0  0  0  0  0  0  0  0
  143.0144  158.0109  135.6365 H   0  0  0  0  0  0  0  0  0  0  0  0
  143.4418  156.3822  134.9875 H   0  0  0  0  0  0  0  0  0  0  0  0
  141.8560  159.5640  133.5960 H   0  0  0  0  0  0  0  0  0  0  0  0
  146.3152  161.4925  133.5857 H   0  0  0  0  0  0  0  0  0  0  0  0
  148.7175  159.9480  133.3799 H   0  0  0  0  0  0  0  0  0  0  0  0
  149.5674  157.5878  133.1776 H   0  0  0  0  0  0  0  0  0  0  0  0
  145.4647  156.1091  133.2036 H   0  0  0  0  0  0  0  0  0  0  0  0
  1  2  1  0
  2  3  1  0
  2  4  1  0
  4  5  1  0
  4  6  1  0
  6  7  1  0
  7  8  1  0
  8  9  2  0
  8 10  1  0
 10 11  1  0
 11 12  1  0
 12 13  1  0
 12 14  2  0
 11 15  2  0
 15 16  1  0
 16 17  2  0
 17 18  1  0
 18 19  2  0
 19 20  1  0
 20 21  1  0
 20 22  1  0
 20 23  1  0
 19 24  1  0
 24 25  2  0
 25 10  1  0
 25 16  1  0
  1 26  1  0
  1 27  1  0
  1 28  1  0
  2 29  1  0
  3 30  1  0
  3 31  1  0
  3 32  1  0
  5 33  1  0
  5 34  1  0
  5 35  1  0
  6 36  1  0
  6 37  1  0
  7 38  1  0
  7 39  1  0
 13 40  1  0
 15 41  1  0
 17 42  1  0
 18 43  1  0
 24 44  1  0
M  CHG  1  13  -1
M  END
>  <UniqueID>  (50) 
50

>  <SMILES>  (50) 
CC(C)N(C)CCC(=O)n1c(C([NH-])=O)cc2ccc(C(F)(F)F)cc21

>  <Energy>  (50) 
84.66592878892737

>  <Genealogy>  (50) 
CC(C)N(C)CCC(=O)n1c(C([NH-])=O)cc2ccc(C(F)(F)F)cc21 (protonated)
CC(C)N(C)CCC(=O)n1c(C([NH-])=O)cc2ccc(C(F)(F)F)cc21 (3D coordinates assigned)
CC(C)N(C)CCC(=O)n1c(C([NH-])=O)cc2ccc(C(F)(F)F)cc21 (optimized conformer: 84.66592878892737 kcal/mol)

>  <smiles>  (50) 
CC(C)N(C)CCC(=O)n1c(C(N)=O)cc2ccc(C(F)(F)F)cc21

>  <score_type>  (50) 
oracle

>  <origin>  (50) 
adg

>  <m_score__min__energy>  (50) 
-6.9100000000000001

>  <m_primary>  (50) 
energy

$$$$
51:0
     RDKit          3D

 30 31  0  0  0  0  0  0  0  0999 V2000
  149.9230  160.0980  130.9640 C   0  0  0  0  0  0  0  0  0  0  0  0
  149.6020  159.4870  132.2500 N   0  0  0  0  0  0  0  0  0  0  0  0
  148.2710  159.0940  132.6340 C   0  0  0  0  0  0  0  0  0  0  0  0
  147.9230  157.7200  132.6050 C   0  0  0  0  0  0  0  0  0  0  0  0
  146.6400  157.2940  132.9820 C   0  0  0  0  0  0  0  0  0  0  0  0
  145.7210  158.2600  133.3750 C   0  0  0  0  0  0  0  0  0  0  0  0
  144.4220  158.1210  133.8100 C   0  0  0  0  0  0  0  0  0  0  0  0
  143.9810  159.4150  134.0790 C   0  0  0  0  0  0  0  0  0  0  0  0
  142.6000  159.7340  134.4940 C   0  0  0  0  0  0  0  0  0  0  0  0
  141.7580  160.4980  133.6320 N   0  0  0  0  0  0  0  0  0  0  0  0
  142.1620  159.3710  135.6170 O   0  0  0  0  0  0  0  0  0  0  0  0
  144.9720  160.3190  133.8260 N   0  0  0  0  0  0  0  0  0  0  0  0
  144.9430  161.7410  134.0270 C   0  0  0  0  0  0  0  0  0  0  0  0
  145.8380  162.2980  134.7190 O   0  0  0  0  0  0  0  0  0  0  0  0
  143.9330  162.5060  133.4350 O   0  0  0  0  0  0  0  0  0  0  0  0
  143.9820  163.9250  133.3720 C   0  0  0  0  0  0  0  0  0  0  0  0
  146.0280  159.5960  133.3930 C   0  0  0  0  0  0  0  0  0  0  0  0
  147.3060  160.0470  133.0420 C   0  0  0  0  0  0  0  0  0  0  0  0
  150.4286  161.0605  131.1314 H   0  0  0  0  0  0  0  0  0  0  0  0
  150.5862  159.4293  130.3957 H   0  0  0  0  0  0  0  0  0  0  0  0
  148.9961  160.2647  130.3957 H   0  0  0  0  0  0  0  0  0  0  0  0
  150.3880  159.3280  132.9200 H   0  0  0  0  0  0  0  0  0  0  0  0
  148.6684  156.9780  132.2828 H   0  0  0  0  0  0  0  0  0  0  0  0
  146.3698  156.2278  132.9669 H   0  0  0  0  0  0  0  0  0  0  0  0
  143.8529  157.1863  133.9215 H   0  0  0  0  0  0  0  0  0  0  0  0
  142.0800  161.4080  133.2370 H   0  0  0  0  0  0  0  0  0  0  0  0
  143.9962  164.3370  134.3918 H   0  0  0  0  0  0  0  0  0  0  0  0
  144.8915  164.2371  132.8377 H   0  0  0  0  0  0  0  0  0  0  0  0
  143.0962  164.2991  132.8377 H   0  0  0  0  0  0  0  0  0  0  0  0
  147.5551  161.1177  133.0822 H   0  0  0  0  0  0  0  0  0  0  0  0
  1  2  1  0
  2  3  1  0
  3  4  2  0
  4  5  1  0
  5  6  2  0
  6  7  1  0
  7  8  2  0
  8  9  1  0
  9 10  1  0
  9 11  2  0
  8 12  1  0
 12 13  1  0
 13 14  2  0
 13 15  1  0
 15 16  1  0
 12 17  1  0
 17 18  2  0
 18  3  1  0
 17  6  1  0
  1 19  1  0
  1 20  1  0
  1 21  1  0
  2 22  1  0
  4 23  1  0
  5 24  1  0
  7 25  1  0
 10 26  1  0
 16 27  1  0
 16 28  1  0
 16 29  1  0
 18 30  1  0
M  CHG  1  10  -1
M  END
>  <UniqueID>  (51) 
51

>  <SMILES>  (51) 
CNc1ccc2cc(C([NH-])=O)n(C(=O)OC)c2c1

>  <Energy>  (51) 
65.58030848500036

>  <Genealogy>  (51) 
CNc1ccc2cc(C([NH-])=O)n(C(=O)OC)c2c1 (protonated)
CNc1ccc2cc(C([NH-])=O)n(C(=O)OC)c2c1 (3D coordinates assigned)
CNc1ccc2cc(C([NH-])=O)n(C(=O)OC)c2c1 (optimized conformer: 65.58030848500036 kcal/mol)

>  <smiles>  (51) 
CNc1ccc2cc(C(N)=O)n(C(=O)OC)c2c1

>  <score_type>  (51) 
oracle

>  <origin>  (51) 
adg

>  <m_score__min__energy>  (51) 
-5.7400000000000002

>  <m_primary>  (51) 
energy

$$$$
52:0
     RDKit          3D

 36 38  0  0  0  0  0  0  0  0999 V2000
  141.5770  158.0060  132.9240 C   0  0  0  0  0  0  0  0  0  0  0  0
  142.9630  157.8770  132.6330 O   0  0  0  0  0  0  0  0  0  0  0  0
  143.9350  157.7740  133.6320 C   0  0  0  0  0  0  0  0  0  0  0  0
  143.6930  157.1370  134.6940 O   0  0  0  0  0  0  0  0  0  0  0  0
  145.2080  158.4180  133.4570 N   0  0  0  0  0  0  0  0  0  0  0  0
  145.4720  159.7560  133.4250 C   0  0  0  0  0  0  0  0  0  0  0  0
  144.5120  160.8390  133.7270 C   0  0  0  0  0  0  0  0  0  0  0  0
  143.1400  160.7300  133.3580 N   0  0  0  0  0  0  0  0  0  0  0  0
  144.8990  161.8550  134.3640 O   0  0  0  0  0  0  0  0  0  0  0  0
  146.8170  159.9810  133.1420 C   0  0  0  0  0  0  0  0  0  0  0  0
  147.3760  158.7310  133.0110 C   0  0  0  0  0  0  0  0  0  0  0  0
  148.6830  158.3640  132.7130 C   0  0  0  0  0  0  0  0  0  0  0  0
  148.9760  156.9940  132.6060 C   0  0  0  0  0  0  0  0  0  0  0  0
  147.9630  156.0150  132.7950 C   0  0  0  0  0  0  0  0  0  0  0  0
  148.2590  154.5650  132.6640 C   0  0  0  0  0  0  0  0  0  0  0  0
  149.5740  154.0810  132.5990 C   0  0  0  0  0  0  0  0  0  0  0  0
  149.7780  152.7070  132.4820 C   0  0  0  0  0  0  0  0  0  0  0  0
  148.7170  151.8600  132.4380 N   0  0  0  0  0  0  0  0  0  0  0  0
  147.4450  152.3380  132.5120 C   0  0  0  0  0  0  0  0  0  0  0  0
  146.3330  151.4420  132.4730 N   0  0  0  0  0  0  0  0  0  0  0  0
  147.2290  153.6750  132.6250 N   0  0  0  0  0  0  0  0  0  0  0  0
  146.6420  156.4350  133.0840 C   0  0  0  0  0  0  0  0  0  0  0  0
  146.3850  157.8050  133.2040 C   0  0  0  0  0  0  0  0  0  0  0  0
  141.4309  158.0196  134.0142 H   0  0  0  0  0  0  0  0  0  0  0  0
  141.1972  158.9434  132.4915 H   0  0  0  0  0  0  0  0  0  0  0  0
  141.0307  157.1548  132.4915 H   0  0  0  0  0  0  0  0  0  0  0  0
  142.8350  160.0570  132.6210 H   0  0  0  0  0  0  0  0  0  0  0  0
  147.3245  160.9520  133.0440 H   0  0  0  0  0  0  0  0  0  0  0  0
  149.4648  159.1236  132.5653 H   0  0  0  0  0  0  0  0  0  0  0  0
  150.0026  156.6750  132.3730 H   0  0  0  0  0  0  0  0  0  0  0  0
  150.4283  154.7728  132.6396 H   0  0  0  0  0  0  0  0  0  0  0  0
  150.8013  152.3075  132.4251 H   0  0  0  0  0  0  0  0  0  0  0  0
  148.8880  150.8320  132.3520 H   0  0  0  0  0  0  0  0  0  0  0  0
  145.9820  151.0780  131.5600 H   0  0  0  0  0  0  0  0  0  0  0  0
  145.8600  151.1420  133.3530 H   0  0  0  0  0  0  0  0  0  0  0  0
  145.8344  155.6992  133.2116 H   0  0  0  0  0  0  0  0  0  0  0  0
  1  2  1  0
  2  3  1  0
  3  4  2  0
  3  5  1  0
  5  6  1  0
  6  7  1  0
  7  8  1  0
  7  9  2  0
  6 10  2  0
 10 11  1  0
 11 12  2  0
 12 13  1  0
 13 14  2  0
 14 15  1  0
 15 16  2  0
 16 17  1  0
 17 18  2  0
 18 19  1  0
 19 20  1  0
 19 21  2  0
 14 22  1  0
 22 23  2  0
 23  5  1  0
 23 11  1  0
 21 15  1  0
  1 24  1  0
  1 25  1  0
  1 26  1  0
  8 27  1  0
 10 28  1  0
 12 29  1  0
 13 30  1  0
 16 31  1  0
 17 32  1  0
 18 33  1  0
 20 34  1  0
 20 35  1  0
 22 36  1  0
M  CHG  2   8  -1  18   1
M  END
>  <UniqueID>  (52) 
52

>  <SMILES>  (52) 
COC(=O)n1c(C([NH-])=O)cc2ccc(-c3cc[nH+]c(N)n3)cc21

>  <Energy>  (52) 
78.71888715821008

>  <Genealogy>  (52) 
COC(=O)n1c(C([NH-])=O)cc2ccc(-c3cc[nH+]c(N)n3)cc21 (protonated)
COC(=O)n1c(C([NH-])=O)cc2ccc(-c3cc[nH+]c(N)n3)cc21 (3D coordinates assigned)
COC(=O)n1c(C([NH-])=O)cc2ccc(-c3cc[nH+]c(N)n3)cc21 (optimized conformer: 78.71888715821008 kcal/mol)

>  <smiles>  (52) 
COC(=O)n1c(C(N)=O)cc2ccc(-c3ccnc(N)n3)cc21

>  <score_type>  (52) 
oracle

>  <origin>  (52) 
adg

>  <m_score__min__energy>  (52) 
-6.9800000000000004

>  <m_primary>  (52) 
energy

$$$$
53:0
     RDKit          3D

 41 43  0  0  0  0  0  0  0  0999 V2000
  139.2990  157.8230  132.9340 C   0  0  0  0  0  0  0  0  0  0  0  0
  139.5950  157.1120  134.2570 C   0  0  0  0  0  0  0  0  0  0  0  0
  139.9770  158.1030  135.3610 C   0  0  0  0  0  0  0  0  0  0  0  0
  140.6270  156.0880  134.0870 N   0  0  0  0  0  0  0  0  0  0  0  0
  140.5540  154.9450  133.2230 C   0  0  0  0  0  0  0  0  0  0  0  0
  139.4680  154.6390  132.6620 O   0  0  0  0  0  0  0  0  0  0  0  0
  141.7180  154.1310  133.0160 N   0  0  0  0  0  0  0  0  0  0  0  0
  143.0150  154.5420  132.9270 C   0  0  0  0  0  0  0  0  0  0  0  0
  143.4660  155.9500  132.8630 C   0  0  0  0  0  0  0  0  0  0  0  0
  142.5540  156.9930  132.5190 N   0  0  0  0  0  0  0  0  0  0  0  0
  144.6590  156.2440  133.1420 O   0  0  0  0  0  0  0  0  0  0  0  0
  143.8670  153.4460  132.7990 C   0  0  0  0  0  0  0  0  0  0  0  0
  143.0450  152.3420  132.8120 C   0  0  0  0  0  0  0  0  0  0  0  0
  143.3610  150.9890  132.7160 C   0  0  0  0  0  0  0  0  0  0  0  0
  142.3080  150.0610  132.7750 C   0  0  0  0  0  0  0  0  0  0  0  0
  140.9700  150.4990  132.9460 C   0  0  0  0  0  0  0  0  0  0  0  0
  139.8480  149.4990  132.9760 C   0  0  0  0  0  0  0  0  0  0  0  0
  139.5750  149.0220  131.6260 N   0  0  0  0  0  0  0  0  0  0  0  0
  138.7850  149.6050  130.7100 C   0  0  0  0  0  0  0  0  0  0  0  0
  138.6990  148.8530  129.5960 N   0  0  0  0  0  0  0  0  0  0  0  0
  139.4740  147.7880  129.9020 C   0  0  0  0  0  0  0  0  0  0  0  0
  140.0050  147.8740  131.1370 N   0  0  0  0  0  0  0  0  0  0  0  0
  140.6870  151.8790  133.0250 C   0  0  0  0  0  0  0  0  0  0  0  0
  141.7530  152.7810  132.9450 C   0  0  0  0  0  0  0  0  0  0  0  0
  138.8836  158.8207  133.1389 H   0  0  0  0  0  0  0  0  0  0  0  0
  140.2295  157.9248  132.3562 H   0  0  0  0  0  0  0  0  0  0  0  0
  138.5712  157.2344  132.3562 H   0  0  0  0  0  0  0  0  0  0  0  0
  138.6684  156.6106  134.5732 H   0  0  0  0  0  0  0  0  0  0  0  0
  139.7996  157.6428  136.3442 H   0  0  0  0  0  0  0  0  0  0  0  0
  141.0409  158.3658  135.2657 H   0  0  0  0  0  0  0  0  0  0  0  0
  139.3648  159.0119  135.2657 H   0  0  0  0  0  0  0  0  0  0  0  0
  141.5740  156.7840  132.2290 H   0  0  0  0  0  0  0  0  0  0  0  0
  142.8740  157.9880  132.5140 H   0  0  0  0  0  0  0  0  0  0  0  0
  144.9631  153.4604  132.7071 H   0  0  0  0  0  0  0  0  0  0  0  0
  144.4031  150.6572  132.5976 H   0  0  0  0  0  0  0  0  0  0  0  0
  142.5230  148.9858  132.6878 H   0  0  0  0  0  0  0  0  0  0  0  0
  140.1336  148.6488  133.6128 H   0  0  0  0  0  0  0  0  0  0  0  0
  138.9448  149.9788  133.3811 H   0  0  0  0  0  0  0  0  0  0  0  0
  138.2753  150.5695  130.8509 H   0  0  0  0  0  0  0  0  0  0  0  0
  139.6512  146.9448  129.2182 H   0  0  0  0  0  0  0  0  0  0  0  0
  139.6538  152.2366  133.1464 H   0  0  0  0  0  0  0  0  0  0  0  0
  1  2  1  0
  2  3  1  0
  2  4  1  0
  4  5  1  0
  5  6  2  0
  5  7  1  0
  7  8  1  0
  8  9  1  0
  9 10  1  0
  9 11  2  0
  8 12  2  0
 12 13  1  0
 13 14  2  0
 14 15  1  0
 15 16  2  0
 16 17  1  0
 17 18  1  0
 18 19  1  0
 19 20  2  0
 20 21  1  0
 21 22  2  0
 16 23  1  0
 23 24  2  0
 24  7  1  0
 24 13  1  0
 22 18  1  0
  1 25  1  0
  1 26  1  0
  1 27  1  0
  2 28  1  0
  3 29  1  0
  3 30  1  0
  3 31  1  0
 10 32  1  0
 10 33  1  0
 12 34  1  0
 14 35  1  0
 15 36  1  0
 17 37  1  0
 17 38  1  0
 19 39  1  0
 21 40  1  0
 23 41  1  0
M  CHG  1   4  -1
M  END
>  <UniqueID>  (53) 
53

>  <SMILES>  (53) 
CC(C)[N-]C(=O)n1c(C(N)=O)cc2ccc(Cn3cncn3)cc21

>  <Energy>  (53) 
107.83236197852887

>  <Genealogy>  (53) 
CC(C)[N-]C(=O)n1c(C(N)=O)cc2ccc(Cn3cncn3)cc21 (protonated)
CC(C)[N-]C(=O)n1c(C(N)=O)cc2ccc(Cn3cncn3)cc21 (3D coordinates assigned)
CC(C)[N-]C(=O)n1c(C(N)=O)cc2ccc(Cn3cncn3)cc21 (optimized conformer: 107.83236197852887 kcal/mol)

>  <smiles>  (53) 
CC(C)NC(=O)n1c(C(N)=O)cc2ccc(Cn3cncn3)cc21

>  <score_type>  (53) 
oracle

>  <origin>  (53) 
adg

>  <m_score__min__energy>  (53) 
-8.0800000000000001

>  <m_primary>  (53) 
energy

$$$$
54:0
     RDKit          3D

 41 43  0  0  0  0  0  0  0  0999 V2000
  148.9910  158.3870  131.8850 N   0  0  0  0  0  0  0  0  0  0  0  0
  148.4430  158.9090  133.0930 C   0  0  0  0  0  0  0  0  0  0  0  0
  149.2180  159.3340  133.9890 O   0  0  0  0  0  0  0  0  0  0  0  0
  146.9780  158.9050  133.2960 C   0  0  0  0  0  0  0  0  0  0  0  0
  146.2090  160.0650  133.3530 C   0  0  0  0  0  0  0  0  0  0  0  0
  144.9070  159.6360  133.4620 C   0  0  0  0  0  0  0  0  0  0  0  0
  143.7290  160.3680  133.5740 C   0  0  0  0  0  0  0  0  0  0  0  0
  142.5230  159.6610  133.7090 C   0  0  0  0  0  0  0  0  0  0  0  0
  142.5130  158.2430  133.7290 C   0  0  0  0  0  0  0  0  0  0  0  0
  141.2730  157.5300  133.9000 N   0  0  0  0  0  0  0  0  0  0  0  0
  140.2910  157.9410  134.9070 C   0  0  0  0  0  0  0  0  0  0  0  0
  138.9310  158.2350  134.2440 C   0  0  0  0  0  0  0  0  0  0  0  0
  138.6810  157.4540  132.9960 N   0  0  0  0  0  0  0  0  0  0  0  0
  138.9580  158.2490  131.7720 C   0  0  0  0  0  0  0  0  0  0  0  0
  137.7450  159.0100  131.3150 C   0  0  0  0  0  0  0  0  0  0  0  0
  136.5920  158.6110  131.6260 O   0  0  0  0  0  0  0  0  0  0  0  0
  137.8900  160.1650  130.5580 O   0  0  0  0  0  0  0  0  0  0  0  0
  139.4260  156.1720  132.9820 C   0  0  0  0  0  0  0  0  0  0  0  0
  140.9480  156.3940  133.0320 C   0  0  0  0  0  0  0  0  0  0  0  0
  143.7320  157.5350  133.6210 C   0  0  0  0  0  0  0  0  0  0  0  0
  144.9170  158.2650  133.4710 C   0  0  0  0  0  0  0  0  0  0  0  0
  146.1820  157.7990  133.3740 N   0  0  0  0  0  0  0  0  0  0  0  0
  146.5850  156.4210  133.4150 C   0  0  0  0  0  0  0  0  0  0  0  0
  146.1340  155.6490  134.3020 O   0  0  0  0  0  0  0  0  0  0  0  0
  147.4600  155.9170  132.4590 O   0  0  0  0  0  0  0  0  0  0  0  0
  148.6690  157.4710  131.5020 H   0  0  0  0  0  0  0  0  0  0  0  0
  146.5674  161.1044  133.3182 H   0  0  0  0  0  0  0  0  0  0  0  0
  143.7419  161.4678  133.5573 H   0  0  0  0  0  0  0  0  0  0  0  0
  141.5760  160.2131  133.8002 H   0  0  0  0  0  0  0  0  0  0  0  0
  140.1679  157.1334  135.6437 H   0  0  0  0  0  0  0  0  0  0  0  0
  140.6504  158.8545  135.4033 H   0  0  0  0  0  0  0  0  0  0  0  0
  138.1359  157.9970  134.9659 H   0  0  0  0  0  0  0  0  0  0  0  0
  138.9400  159.2971  133.9578 H   0  0  0  0  0  0  0  0  0  0  0  0
  137.6640  157.1960  132.9830 H   0  0  0  0  0  0  0  0  0  0  0  0
  139.7666  158.9632  131.9866 H   0  0  0  0  0  0  0  0  0  0  0  0
  139.2476  157.5535  130.9705 H   0  0  0  0  0  0  0  0  0  0  0  0
  139.1244  155.5755  133.8557 H   0  0  0  0  0  0  0  0  0  0  0  0
  139.1878  155.6487  132.0442 H   0  0  0  0  0  0  0  0  0  0  0  0
  141.4332  155.4882  133.4244 H   0  0  0  0  0  0  0  0  0  0  0  0
  141.3099  156.6080  132.0155 H   0  0  0  0  0  0  0  0  0  0  0  0
  143.7489  156.4356  133.6541 H   0  0  0  0  0  0  0  0  0  0  0  0
  1  2  1  0
  2  3  2  0
  2  4  1  0
  4  5  2  0
  5  6  1  0
  6  7  2  0
  7  8  1  0
  8  9  2  0
  9 10  1  0
 10 11  1  0
 11 12  1  0
 12 13  1  0
 13 14  1  0
 14 15  1  0
 15 16  2  0
 15 17  1  0
 13 18  1  0
 18 19  1  0
  9 20  1  0
 20 21  2  0
 21 22  1  0
 22 23  1  0
 23 24  2  0
 23 25  1  0
 22  4  1  0
 21  6  1  0
 19 10  1  0
  1 26  1  0
  5 27  1  0
  7 28  1  0
  8 29  1  0
 11 30  1  0
 11 31  1  0
 12 32  1  0
 12 33  1  0
 13 34  1  0
 14 35  1  0
 14 36  1  0
 18 37  1  0
 18 38  1  0
 19 39  1  0
 19 40  1  0
 20 41  1  0
M  CHG  4   1  -1  13   1  17  -1  25  -1
M  END
>  <UniqueID>  (54) 
54

>  <SMILES>  (54) 
[NH-]C(=O)c1cc2ccc(N3CC[NH+](CC(=O)[O-])CC3)cc2n1C(=O)[O-]

>  <Energy>  (54) 
94.13389792591443

>  <Genealogy>  (54) 
[NH-]C(=O)c1cc2ccc(N3CC[NH+](CC(=O)[O-])CC3)cc2n1C(=O)[O-] (protonated)
[NH-]C(=O)c1cc2ccc(N3CC[NH+](CC(=O)[O-])CC3)cc2n1C(=O)[O-] (3D coordinates assigned)
[NH-]C(=O)c1cc2ccc(N3CC[NH+](CC(=O)[O-])CC3)cc2n1C(=O)[O-] (nonaromatic ring conformer: 94.13389792591443 kcal/mol)

>  <smiles>  (54) 
NC(=O)c1cc2ccc(N3CCN(CC(=O)O)CC3)cc2n1C(=O)O

>  <score_type>  (54) 
oracle

>  <origin>  (54) 
adg

>  <m_score__min__energy>  (54) 
-7.2699999999999996

>  <m_primary>  (54) 
energy

$$$$
55:0
     RDKit          3D

 40 42  0  0  0  0  0  0  0  0999 V2000
  138.9330  157.7410  133.5190 C   0  0  0  0  0  0  0  0  0  0  0  0
  139.7040  156.6340  134.0630 N   0  0  0  0  0  0  0  0  0  0  0  0
  140.0030  155.4550  133.3100 C   0  0  0  0  0  0  0  0  0  0  0  0
  139.0980  154.8880  132.6380 O   0  0  0  0  0  0  0  0  0  0  0  0
  141.3300  154.9070  133.3320 N   0  0  0  0  0  0  0  0  0  0  0  0
  142.5110  155.5820  133.4310 C   0  0  0  0  0  0  0  0  0  0  0  0
  142.6670  157.0280  133.6950 C   0  0  0  0  0  0  0  0  0  0  0  0
  142.2730  157.5940  134.9430 N   0  0  0  0  0  0  0  0  0  0  0  0
  143.1960  157.7680  132.8230 O   0  0  0  0  0  0  0  0  0  0  0  0
  143.5860  154.7030  133.3250 C   0  0  0  0  0  0  0  0  0  0  0  0
  143.0240  153.4560  133.1640 C   0  0  0  0  0  0  0  0  0  0  0  0
  143.6320  152.2170  132.9940 C   0  0  0  0  0  0  0  0  0  0  0  0
  142.8030  151.0970  132.8140 C   0  0  0  0  0  0  0  0  0  0  0  0
  141.3890  151.2330  132.8030 C   0  0  0  0  0  0  0  0  0  0  0  0
  140.5000  150.0230  132.5800 C   0  0  0  0  0  0  0  0  0  0  0  0
  141.2660  148.8700  131.8580 C   0  0  0  0  0  0  0  0  0  0  0  0
  140.6780  148.4960  130.4900 C   0  0  0  0  0  0  0  0  0  0  0  0
  139.1940  148.2860  130.6090 C   0  0  0  0  0  0  0  0  0  0  0  0
  138.6560  147.3570  130.0260 O   0  0  0  0  0  0  0  0  0  0  0  0
  138.3640  149.2350  131.4310 C   0  0  0  0  0  0  0  0  0  0  0  0
  139.1930  150.4480  131.8680 C   0  0  0  0  0  0  0  0  0  0  0  0
  140.8130  152.5130  132.9730 C   0  0  0  0  0  0  0  0  0  0  0  0
  141.6620  153.6080  133.1700 C   0  0  0  0  0  0  0  0  0  0  0  0
  138.5170  158.3383  134.3437 H   0  0  0  0  0  0  0  0  0  0  0  0
  139.5865  158.3742  132.9009 H   0  0  0  0  0  0  0  0  0  0  0  0
  138.1125  157.3476  132.9009 H   0  0  0  0  0  0  0  0  0  0  0  0
  141.2870  157.5230  135.2770 H   0  0  0  0  0  0  0  0  0  0  0  0
  144.6568  154.9519  133.3620 H   0  0  0  0  0  0  0  0  0  0  0  0
  144.7274  152.1169  133.0003 H   0  0  0  0  0  0  0  0  0  0  0  0
  143.2543  150.1028  132.6800 H   0  0  0  0  0  0  0  0  0  0  0  0
  140.2086  149.6043  133.5546 H   0  0  0  0  0  0  0  0  0  0  0  0
  142.3097  149.1853  131.7122 H   0  0  0  0  0  0  0  0  0  0  0  0
  141.1803  147.9792  132.4976 H   0  0  0  0  0  0  0  0  0  0  0  0
  140.8749  149.3079  129.7744 H   0  0  0  0  0  0  0  0  0  0  0  0
  141.1474  147.5660  130.1369 H   0  0  0  0  0  0  0  0  0  0  0  0
  137.5099  149.5801  130.8298 H   0  0  0  0  0  0  0  0  0  0  0  0
  138.0125  148.7070  132.3297 H   0  0  0  0  0  0  0  0  0  0  0  0
  139.4489  151.0435  130.9793 H   0  0  0  0  0  0  0  0  0  0  0  0
  138.5921  151.0358  132.5775 H   0  0  0  0  0  0  0  0  0  0  0  0
  139.7212  152.6453  132.9509 H   0  0  0  0  0  0  0  0  0  0  0  0
  1  2  1  0
  2  3  1  0
  3  4  2  0
  3  5  1  0
  5  6  1  0
  6  7  1  0
  7  8  1  0
  7  9  2  0
  6 10  2  0
 10 11  1  0
 11 12  2  0
 12 13  1  0
 13 14  2  0
 14 15  1  0
 15 16  1  0
 16 17  1  0
 17 18  1  0
 18 19  2  0
 18 20  1  0
 20 21  1  0
 14 22  1  0
 22 23  2  0
 23  5  1  0
 23 11  1  0
 21 15  1  0
  1 24  1  0
  1 25  1  0
  1 26  1  0
  8 27  1  0
 10 28  1  0
 12 29  1  0
 13 30  1  0
 15 31  1  0
 16 32  1  0
 16 33  1  0
 17 34  1  0
 17 35  1  0
 20 36  1  0
 20 37  1  0
 21 38  1  0
 21 39  1  0
 22 40  1  0
M  CHG  2   2  -1   8  -1
M  END
>  <UniqueID>  (55) 
55

>  <SMILES>  (55) 
C[N-]C(=O)n1c(C([NH-])=O)cc2ccc(C3CCC(=O)CC3)cc21

>  <Energy>  (55) 
80.11716592708552

>  <Genealogy>  (55) 
C[N-]C(=O)n1c(C([NH-])=O)cc2ccc(C3CCC(=O)CC3)cc21 (protonated)
C[N-]C(=O)n1c(C([NH-])=O)cc2ccc(C3CCC(=O)CC3)cc21 (3D coordinates assigned)
C[N-]C(=O)n1c(C([NH-])=O)cc2ccc(C3CCC(=O)CC3)cc21 (nonaromatic ring conformer: 80.11716592708552 kcal/mol)

>  <smiles>  (55) 
CNC(=O)n1c(C(N)=O)cc2ccc(C3CCC(=O)CC3)cc21

>  <score_type>  (55) 
oracle

>  <origin>  (55) 
adg

>  <m_score__min__energy>  (55) 
-8.4100000000000001

>  <m_primary>  (55) 
energy

$$$$
56:0
     RDKit          3D

 51 53  0  0  0  0  0  0  0  0999 V2000
  138.0340  160.4870  130.3310 C   0  0  0  0  0  0  0  0  0  0  0  0
  138.8590  159.8320  131.1540 C   0  0  0  0  0  0  0  0  0  0  0  0
  138.9300  158.3350  131.1550 C   0  0  0  0  0  0  0  0  0  0  0  0
  139.7680  157.9020  132.2200 O   0  0  0  0  0  0  0  0  0  0  0  0
  139.2910  157.7080  133.5220 C   0  0  0  0  0  0  0  0  0  0  0  0
  138.0600  157.5020  133.7310 O   0  0  0  0  0  0  0  0  0  0  0  0
  140.2480  157.6830  134.6860 C   0  0  2  0  0  0  0  0  0  0  0  0
  139.6100  158.2240  135.9690 C   0  0  0  0  0  0  0  0  0  0  0  0
  141.5110  158.4470  134.3560 C   0  0  0  0  0  0  0  0  0  0  0  0
  141.4630  159.8330  134.0400 C   0  0  0  0  0  0  0  0  0  0  0  0
  142.6330  160.5360  133.7080 C   0  0  0  0  0  0  0  0  0  0  0  0
  143.8380  159.8400  133.7190 C   0  0  0  0  0  0  0  0  0  0  0  0
  145.1080  160.2660  133.4030 C   0  0  0  0  0  0  0  0  0  0  0  0
  145.9240  159.1470  133.5730 C   0  0  0  0  0  0  0  0  0  0  0  0
  147.3940  159.1660  133.4120 C   0  0  0  0  0  0  0  0  0  0  0  0
  148.1980  158.0930  133.9070 N   0  0  0  0  0  0  0  0  0  0  0  0
  147.9520  160.1220  132.8120 O   0  0  0  0  0  0  0  0  0  0  0  0
  145.1860  158.0770  133.9820 N   0  0  0  0  0  0  0  0  0  0  0  0
  145.6440  156.7350  134.2080 C   0  0  0  0  0  0  0  0  0  0  0  0
  146.4100  156.4860  135.1780 O   0  0  0  0  0  0  0  0  0  0  0  0
  145.2140  155.7020  133.3640 O   0  0  0  0  0  0  0  0  0  0  0  0
  145.9230  154.4760  133.2030 C   0  0  0  0  0  0  0  0  0  0  0  0
  147.3720  154.7470  132.9350 C   0  0  0  0  0  0  0  0  0  0  0  0
  147.8760  155.9430  132.7340 O   0  0  0  0  0  0  0  0  0  0  0  0
  149.1610  155.7640  132.5370 C   0  0  0  0  0  0  0  0  0  0  0  0
  149.9700  156.7010  132.3110 O   0  0  0  0  0  0  0  0  0  0  0  0
  149.5110  154.4990  132.6000 O   0  0  0  0  0  0  0  0  0  0  0  0
  148.4070  153.8320  132.8500 C   0  0  0  0  0  0  0  0  0  0  0  0
  148.3260  152.3470  132.9990 C   0  0  0  0  0  0  0  0  0  0  0  0
  143.9100  158.5150  134.0610 C   0  0  0  0  0  0  0  0  0  0  0  0
  142.7590  157.7830  134.3770 C   0  0  0  0  0  0  0  0  0  0  0  0
  137.9988  161.5863  130.3478 H   0  0  0  0  0  0  0  0  0  0  0  0
  137.3903  159.9267  129.6369 H   0  0  0  0  0  0  0  0  0  0  0  0
  139.4981  160.4028  131.8438 H   0  0  0  0  0  0  0  0  0  0  0  0
  137.9204  157.9199  131.2905 H   0  0  0  0  0  0  0  0  0  0  0  0
  139.3436  157.9863  130.1972 H   0  0  0  0  0  0  0  0  0  0  0  0
  140.5085  156.6302  134.8699 H   0  0  0  0  0  0  0  0  0  0  0  0
  140.1199  157.7917  136.8426 H   0  0  0  0  0  0  0  0  0  0  0  0
  139.7068  159.3195  135.9929 H   0  0  0  0  0  0  0  0  0  0  0  0
  138.5451  157.9494  135.9929 H   0  0  0  0  0  0  0  0  0  0  0  0
  140.4980  160.3608  134.0558 H   0  0  0  0  0  0  0  0  0  0  0  0
  142.5977  161.6041  133.4473 H   0  0  0  0  0  0  0  0  0  0  0  0
  145.4143  161.2734  133.0845 H   0  0  0  0  0  0  0  0  0  0  0  0
  149.2330  158.1050  133.7630 H   0  0  0  0  0  0  0  0  0  0  0  0
  147.7800  157.3080  134.4520 H   0  0  0  0  0  0  0  0  0  0  0  0
  145.8291  153.8787  134.1219 H   0  0  0  0  0  0  0  0  0  0  0  0
  145.4977  153.9248  132.3514 H   0  0  0  0  0  0  0  0  0  0  0  0
  148.3118  152.0859  134.0675 H   0  0  0  0  0  0  0  0  0  0  0  0
  147.4065  151.9800  132.5196 H   0  0  0  0  0  0  0  0  0  0  0  0
  149.2001  151.8822  132.5196 H   0  0  0  0  0  0  0  0  0  0  0  0
  142.8243  156.7158  134.6356 H   0  0  0  0  0  0  0  0  0  0  0  0
  1  2  2  0
  2  3  1  0
  3  4  1  0
  4  5  1  0
  5  6  2  0
  5  7  1  0
  7  8  1  0
  7  9  1  0
  9 10  2  0
 10 11  1  0
 11 12  2  0
 12 13  1  0
 13 14  2  0
 14 15  1  0
 15 16  1  0
 15 17  2  0
 14 18  1  0
 18 19  1  0
 19 20  2  0
 19 21  1  0
 21 22  1  0
 22 23  1  0
 23 24  1  0
 24 25  1  0
 25 26  2  0
 25 27  1  0
 27 28  1  0
 28 29  1  0
 18 30  1  0
 30 31  2  0
 31  9  1  0
 30 12  1  0
 28 23  2  0
  1 32  1  0
  1 33  1  0
  2 34  1  0
  3 35  1  0
  3 36  1  0
  7 37  1  1
  8 38  1  0
  8 39  1  0
  8 40  1  0
 10 41  1  0
 11 42  1  0
 13 43  1  0
 16 44  1  0
 16 45  1  0
 22 46  1  0
 22 47  1  0
 29 48  1  0
 29 49  1  0
 29 50  1  0
 31 51  1  0
M  END
>  <UniqueID>  (56) 
56

>  <SMILES>  (56) 
C=CCOC(=O)[C@H](C)c1ccc2cc(C(N)=O)n(C(=O)OCc3oc(=O)oc3C)c2c1

>  <Energy>  (56) 
114.0106199930279

>  <Genealogy>  (56) 
C=CCOC(=O)[C@H](C)c1ccc2cc(C(N)=O)n(C(=O)OCc3oc(=O)oc3C)c2c1 (chirality)
C=CCOC(=O)[C@H](C)c1ccc2cc(C(N)=O)n(C(=O)OCc3oc(=O)oc3C)c2c1 (3D coordinates assigned)
C=CCOC(=O)[C@H](C)c1ccc2cc(C(N)=O)n(C(=O)OCc3oc(=O)oc3C)c2c1 (optimized conformer: 114.0106199930279 kcal/mol)

>  <smiles>  (56) 
C=CCOC(=O)C(C)c1ccc2cc(C(N)=O)n(C(=O)OCc3oc(=O)oc3C)c2c1

>  <score_type>  (56) 
oracle

>  <origin>  (56) 
adg

>  <m_score__min__energy>  (56) 
-7.7300000000000004

>  <m_primary>  (56) 
energy

$$$$
57:0
     RDKit          3D

 32 33  0  0  0  0  0  0  0  0999 V2000
  148.9420  159.7480  129.6970 C   0  0  0  0  0  0  0  0  0  0  0  0
  149.5580  160.7130  130.7200 C   0  0  1  0  0  0  0  0  0  0  0  0
  148.8470  161.9260  130.7290 O   0  0  0  0  0  0  0  0  0  0  0  0
  149.6020  160.1120  132.1400 C   0  0  0  0  0  0  0  0  0  0  0  0
  148.2610  159.5700  132.5660 C   0  0  0  0  0  0  0  0  0  0  0  0
  148.0120  158.1760  132.5110 C   0  0  0  0  0  0  0  0  0  0  0  0
  146.7650  157.6570  132.8920 C   0  0  0  0  0  0  0  0  0  0  0  0
  145.7840  158.5530  133.3060 C   0  0  0  0  0  0  0  0  0  0  0  0
  144.5040  158.3170  133.7530 C   0  0  0  0  0  0  0  0  0  0  0  0
  143.9780  159.5730  134.0370 C   0  0  0  0  0  0  0  0  0  0  0  0
  142.5870  159.7860  134.4860 C   0  0  0  0  0  0  0  0  0  0  0  0
  141.7810  160.8260  133.9310 N   0  0  0  0  0  0  0  0  0  0  0  0
  142.0830  159.0000  135.3320 O   0  0  0  0  0  0  0  0  0  0  0  0
  144.8950  160.5500  133.7910 N   0  0  0  0  0  0  0  0  0  0  0  0
  144.7690  161.9540  134.0740 C   0  0  0  0  0  0  0  0  0  0  0  0
  145.5500  162.5150  134.8860 O   0  0  0  0  0  0  0  0  0  0  0  0
  143.7780  162.7070  133.4560 O   0  0  0  0  0  0  0  0  0  0  0  0
  145.9980  159.9070  133.3410 C   0  0  0  0  0  0  0  0  0  0  0  0
  147.2410  160.4500  132.9890 C   0  0  0  0  0  0  0  0  0  0  0  0
  148.4231  158.9351  130.2260 H   0  0  0  0  0  0  0  0  0  0  0  0
  148.2237  160.2920  129.0660 H   0  0  0  0  0  0  0  0  0  0  0  0
  149.7378  159.3255  129.0660 H   0  0  0  0  0  0  0  0  0  0  0  0
  150.5977  160.8970  130.4115 H   0  0  0  0  0  0  0  0  0  0  0  0
  148.2130  161.9070  129.9640 H   0  0  0  0  0  0  0  0  0  0  0  0
  150.3372  159.2940  132.1567 H   0  0  0  0  0  0  0  0  0  0  0  0
  149.8822  160.9134  132.8395 H   0  0  0  0  0  0  0  0  0  0  0  0
  148.8036  157.4943  132.1664 H   0  0  0  0  0  0  0  0  0  0  0  0
  146.5690  156.5750  132.8642 H   0  0  0  0  0  0  0  0  0  0  0  0
  144.0038  157.3434  133.8623 H   0  0  0  0  0  0  0  0  0  0  0  0
  140.8120  160.9850  134.2860 H   0  0  0  0  0  0  0  0  0  0  0  0
  142.1130  161.3860  133.1140 H   0  0  0  0  0  0  0  0  0  0  0  0
  147.4176  161.5345  133.0409 H   0  0  0  0  0  0  0  0  0  0  0  0
  1  2  1  0
  2  3  1  0
  2  4  1  0
  4  5  1  0
  5  6  2  0
  6  7  1  0
  7  8  2  0
  8  9  1  0
  9 10  2  0
 10 11  1  0
 11 12  1  0
 11 13  2  0
 10 14  1  0
 14 15  1  0
 15 16  2  0
 15 17  1  0
 14 18  1  0
 18 19  2  0
 19  5  1  0
 18  8  1  0
  1 20  1  0
  1 21  1  0
  1 22  1  0
  2 23  1  6
  3 24  1  0
  4 25  1  0
  4 26  1  0
  6 27  1  0
  7 28  1  0
  9 29  1  0
 12 30  1  0
 12 31  1  0
 19 32  1  0
M  CHG  1  17  -1
M  END
>  <UniqueID>  (57) 
57

>  <SMILES>  (57) 
C[C@@H](O)Cc1ccc2cc(C(N)=O)n(C(=O)[O-])c2c1

>  <Energy>  (57) 
68.61179316358535

>  <Genealogy>  (57) 
CC(O)Cc1ccc2cc(C(N)=O)n(C(=O)[O-])c2c1 (protonated)
C[C@@H](O)Cc1ccc2cc(C(N)=O)n(C(=O)[O-])c2c1 (chirality)
C[C@@H](O)Cc1ccc2cc(C(N)=O)n(C(=O)[O-])c2c1 (3D coordinates assigned)
C[C@@H](O)Cc1ccc2cc(C(N)=O)n(C(=O)[O-])c2c1 (optimized conformer: 68.61179316358535 kcal/mol)

>  <smiles>  (57) 
CC(O)Cc1ccc2cc(C(N)=O)n(C(=O)O)c2c1

>  <score_type>  (57) 
oracle

>  <origin>  (57) 
adg

>  <m_score__min__energy>  (57) 
-6.5700000000000003

>  <m_primary>  (57) 
energy

$$$$
58:0
     RDKit          3D

 53 54  0  0  0  0  0  0  0  0999 V2000
  141.7940  155.1590  137.3700 C   0  0  0  0  0  0  0  0  0  0  0  0
  142.4170  155.7510  136.0990 C   0  0  1  0  0  0  0  0  0  0  0  0
  143.3380  154.7290  135.4020 C   0  0  0  0  0  0  0  0  0  0  0  0
  144.6380  155.3280  134.9200 C   0  0  0  0  0  0  0  0  0  0  0  0
  145.8200  154.5450  134.9160 C   0  0  0  0  0  0  0  0  0  0  0  0
  147.0390  155.0910  134.4890 C   0  0  0  0  0  0  0  0  0  0  0  0
  147.0460  156.4110  134.0590 C   0  0  0  0  0  0  0  0  0  0  0  0
  148.0950  157.1800  133.6160 C   0  0  0  0  0  0  0  0  0  0  0  0
  147.5350  158.4140  133.3110 C   0  0  0  0  0  0  0  0  0  0  0  0
  148.3190  159.5350  132.7650 C   0  0  0  0  0  0  0  0  0  0  0  0
  147.6950  160.7770  132.4380 N   0  0  0  0  0  0  0  0  0  0  0  0
  149.5460  159.3760  132.5300 O   0  0  0  0  0  0  0  0  0  0  0  0
  146.1940  158.4230  133.5660 N   0  0  0  0  0  0  0  0  0  0  0  0
  145.2860  159.5330  133.4250 C   0  0  0  0  0  0  0  0  0  0  0  0
  144.3150  159.4690  132.6230 O   0  0  0  0  0  0  0  0  0  0  0  0
  145.4550  160.6860  134.1800 O   0  0  0  0  0  0  0  0  0  0  0  0
  145.9100  157.1820  134.0300 C   0  0  0  0  0  0  0  0  0  0  0  0
  144.6850  156.6700  134.4830 C   0  0  0  0  0  0  0  0  0  0  0  0
  141.3850  156.1310  135.2060 O   0  0  0  0  0  0  0  0  0  0  0  0
  140.9490  157.8110  135.3130 Si  0  0  0  0  0  4  0  0  0  0  0  0
  142.0520  158.7590  136.4960 C   0  0  0  0  0  0  0  0  0  0  0  0
  139.2360  157.8530  136.0660 C   0  0  0  0  0  0  0  0  0  0  0  0
  140.8950  158.6260  133.5900 C   0  0  0  0  0  0  0  0  0  0  0  0
  139.4470  158.6150  133.0700 C   0  0  0  0  0  0  0  0  0  0  0  0
  141.3860  160.0790  133.6990 C   0  0  0  0  0  0  0  0  0  0  0  0
  141.7940  157.8630  132.5990 C   0  0  0  0  0  0  0  0  0  0  0  0
  142.2679  155.6093  138.2547 H   0  0  0  0  0  0  0  0  0  0  0  0
  140.7150  155.3727  137.3833 H   0  0  0  0  0  0  0  0  0  0  0  0
  141.9524  154.0705  137.3833 H   0  0  0  0  0  0  0  0  0  0  0  0
  143.0196  156.6261  136.3837 H   0  0  0  0  0  0  0  0  0  0  0  0
  143.5678  153.9232  136.1146 H   0  0  0  0  0  0  0  0  0  0  0  0
  142.8017  154.3582  134.5160 H   0  0  0  0  0  0  0  0  0  0  0  0
  145.7804  153.4981  135.2514 H   0  0  0  0  0  0  0  0  0  0  0  0
  147.9614  154.4918  134.4946 H   0  0  0  0  0  0  0  0  0  0  0  0
  149.1500  156.8827  133.5230 H   0  0  0  0  0  0  0  0  0  0  0  0
  148.2770  161.5950  132.1450 H   0  0  0  0  0  0  0  0  0  0  0  0
  146.6580  160.8810  132.4560 H   0  0  0  0  0  0  0  0  0  0  0  0
  143.7826  157.2989  134.4975 H   0  0  0  0  0  0  0  0  0  0  0  0
  141.7714  158.5179  137.5319 H   0  0  0  0  0  0  0  0  0  0  0  0
  143.1013  158.4766  136.3251 H   0  0  0  0  0  0  0  0  0  0  0  0
  141.9305  159.8388  136.3251 H   0  0  0  0  0  0  0  0  0  0  0  0
  139.3175  157.8510  137.1630 H   0  0  0  0  0  0  0  0  0  0  0  0
  138.7139  158.7642  135.7388 H   0  0  0  0  0  0  0  0  0  0  0  0
  138.6698  156.9685  135.7388 H   0  0  0  0  0  0  0  0  0  0  0  0
  138.7514  158.6097  133.9222 H   0  0  0  0  0  0  0  0  0  0  0  0
  139.2703  159.5118  132.4581 H   0  0  0  0  0  0  0  0  0  0  0  0
  139.2840  157.7156  132.4581 H   0  0  0  0  0  0  0  0  0  0  0  0
  141.4796  160.3558  134.7595 H   0  0  0  0  0  0  0  0  0  0  0  0
  142.3657  160.1728  133.2078 H   0  0  0  0  0  0  0  0  0  0  0  0
  140.6640  160.7479  133.2078 H   0  0  0  0  0  0  0  0  0  0  0  0
  142.5167  157.2496  133.1570 H   0  0  0  0  0  0  0  0  0  0  0  0
  141.1725  157.2125  131.9661 H   0  0  0  0  0  0  0  0  0  0  0  0
  142.3348  158.5820  131.9661 H   0  0  0  0  0  0  0  0  0  0  0  0
  1  2  1  0
  2  3  1  0
  3  4  1  0
  4  5  2  0
  5  6  1  0
  6  7  2  0
  7  8  1  0
  8  9  2  0
  9 10  1  0
 10 11  1  0
 10 12  2  0
  9 13  1  0
 13 14  1  0
 14 15  2  0
 14 16  1  0
 13 17  1  0
 17 18  2  0
  2 19  1  0
 19 20  1  0
 20 21  1  0
 20 22  1  0
 20 23  1  0
 23 24  1  0
 23 25  1  0
 23 26  1  0
 18  4  1  0
 17  7  1  0
  1 27  1  0
  1 28  1  0
  1 29  1  0
  2 30  1  1
  3 31  1  0
  3 32  1  0
  5 33  1  0
  6 34  1  0
  8 35  1  0
 11 36  1  0
 11 37  1  0
 18 38  1  0
 21 39  1  0
 21 40  1  0
 21 41  1  0
 22 42  1  0
 22 43  1  0
 22 44  1  0
 24 45  1  0
 24 46  1  0
 24 47  1  0
 25 48  1  0
 25 49  1  0
 25 50  1  0
 26 51  1  0
 26 52  1  0
 26 53  1  0
M  CHG  1  16  -1
M  END
>  <UniqueID>  (58) 
58

>  <SMILES>  (58) 
C[C@@H](Cc1ccc2cc(C(N)=O)n(C(=O)[O-])c2c1)O[Si](C)(C)C(C)(C)C

>  <Energy>  (58) 
74.77820679566129

>  <Genealogy>  (58) 
CC(Cc1ccc2cc(C(N)=O)n(C(=O)[O-])c2c1)O[Si](C)(C)C(C)(C)C (protonated)
C[C@@H](Cc1ccc2cc(C(N)=O)n(C(=O)[O-])c2c1)O[Si](C)(C)C(C)(C)C (chirality)
C[C@@H](Cc1ccc2cc(C(N)=O)n(C(=O)[O-])c2c1)O[Si](C)(C)C(C)(C)C (3D coordinates assigned)
C[C@@H](Cc1ccc2cc(C(N)=O)n(C(=O)[O-])c2c1)O[Si](C)(C)C(C)(C)C (optimized conformer: 74.77820679566129 kcal/mol)

>  <smiles>  (58) 
CC(Cc1ccc2cc(C(N)=O)n(C(=O)O)c2c1)O[Si](C)(C)C(C)(C)C

>  <score_type>  (58) 
oracle

>  <origin>  (58) 
adg

>  <m_score__min__energy>  (58) 
-7.71

>  <m_primary>  (58) 
energy

$$$$
59:0
     RDKit          3D

 50 51  0  0  0  0  0  0  0  0999 V2000
  138.7580  161.0940  130.3630 C   0  0  0  0  0  0  0  0  0  0  0  0
  138.4820  159.7330  131.0220 C   0  0  0  0  0  0  0  0  0  0  0  0
  136.9580  159.5250  131.1170 C   0  0  0  0  0  0  0  0  0  0  0  0
  139.1300  158.6270  130.1650 C   0  0  0  0  0  0  0  0  0  0  0  0
  139.0700  159.7680  132.3310 O   0  0  0  0  0  0  0  0  0  0  0  0
  139.1560  158.6950  133.2300 C   0  0  0  0  0  0  0  0  0  0  0  0
  138.1690  157.9370  133.4350 O   0  0  0  0  0  0  0  0  0  0  0  0
  140.3840  158.4720  133.9290 N   0  0  0  0  0  0  0  0  0  0  0  0
  140.5010  157.4360  134.9530 C   0  0  0  0  0  0  0  0  0  0  0  0
  141.6000  156.4290  134.5920 C   0  0  0  0  0  0  0  0  0  0  0  0
  143.0070  157.0160  134.7740 C   0  0  0  0  0  0  0  0  0  0  0  0
  143.4550  157.7710  133.5520 C   0  0  0  0  0  0  0  0  0  0  0  0
  142.6670  157.8920  132.5750 O   0  0  0  0  0  0  0  0  0  0  0  0
  144.7310  158.4280  133.5190 N   0  0  0  0  0  0  0  0  0  0  0  0
  144.9880  159.7650  133.5000 C   0  0  0  0  0  0  0  0  0  0  0  0
  143.9930  160.8410  133.6870 C   0  0  0  0  0  0  0  0  0  0  0  0
  142.6240  160.6380  133.3480 N   0  0  0  0  0  0  0  0  0  0  0  0
  144.3490  161.9420  134.1880 O   0  0  0  0  0  0  0  0  0  0  0  0
  146.3570  159.9960  133.3590 C   0  0  0  0  0  0  0  0  0  0  0  0
  146.9330  158.7460  133.3010 C   0  0  0  0  0  0  0  0  0  0  0  0
  148.2660  158.3780  133.1510 C   0  0  0  0  0  0  0  0  0  0  0  0
  148.5680  157.0070  133.0870 C   0  0  0  0  0  0  0  0  0  0  0  0
  147.5380  156.0330  133.1560 C   0  0  0  0  0  0  0  0  0  0  0  0
  147.8660  154.5620  133.1060 C   0  0  0  0  0  0  0  0  0  0  0  0
  148.9300  154.3350  132.2490 F   0  0  0  0  0  0  0  0  0  0  0  0
  148.2150  154.0890  134.3590 F   0  0  0  0  0  0  0  0  0  0  0  0
  146.7640  153.8640  132.6520 F   0  0  0  0  0  0  0  0  0  0  0  0
  146.2000  156.4480  133.3440 C   0  0  0  0  0  0  0  0  0  0  0  0
  145.9300  157.8190  133.4060 C   0  0  0  0  0  0  0  0  0  0  0  0
  138.9122  161.8544  131.1428 H   0  0  0  0  0  0  0  0  0  0  0  0
  139.6599  161.0223  129.7373 H   0  0  0  0  0  0  0  0  0  0  0  0
  137.8994  161.3793  129.7373 H   0  0  0  0  0  0  0  0  0  0  0  0
  136.6587  159.4841  132.1747 H   0  0  0  0  0  0  0  0  0  0  0  0
  136.4423  160.3611  130.6220 H   0  0  0  0  0  0  0  0  0  0  0  0
  136.6852  158.5813  130.6220 H   0  0  0  0  0  0  0  0  0  0  0  0
  139.5755  157.8667  130.8234 H   0  0  0  0  0  0  0  0  0  0  0  0
  138.3635  158.1586  129.5301 H   0  0  0  0  0  0  0  0  0  0  0  0
  139.9133  159.0667  129.5301 H   0  0  0  0  0  0  0  0  0  0  0  0
  141.1880  159.1110  133.7300 H   0  0  0  0  0  0  0  0  0  0  0  0
  140.7473  157.9078  135.9157 H   0  0  0  0  0  0  0  0  0  0  0  0
  139.5428  156.9001  135.0209 H   0  0  0  0  0  0  0  0  0  0  0  0
  141.4980  155.5459  135.2399 H   0  0  0  0  0  0  0  0  0  0  0  0
  141.4795  156.1634  133.5314 H   0  0  0  0  0  0  0  0  0  0  0  0
  142.9991  157.7016  135.6342 H   0  0  0  0  0  0  0  0  0  0  0  0
  143.7076  156.1845  134.9405 H   0  0  0  0  0  0  0  0  0  0  0  0
  142.3540  160.0240  132.5470 H   0  0  0  0  0  0  0  0  0  0  0  0
  146.8674  160.9689  133.3055 H   0  0  0  0  0  0  0  0  0  0  0  0
  149.0595  159.1369  133.0845 H   0  0  0  0  0  0  0  0  0  0  0  0
  149.6146  156.6851  132.9822 H   0  0  0  0  0  0  0  0  0  0  0  0
  145.3899  155.7100  133.4393 H   0  0  0  0  0  0  0  0  0  0  0  0
  1  2  1  0
  2  3  1  0
  2  4  1  0
  2  5  1  0
  5  6  1  0
  6  7  2  0
  6  8  1  0
  8  9  1  0
  9 10  1  0
 10 11  1  0
 11 12  1  0
 12 13  2  0
 12 14  1  0
 14 15  1  0
 15 16  1  0
 16 17  1  0
 16 18  2  0
 15 19  2  0
 19 20  1  0
 20 21  2  0
 21 22  1  0
 22 23  2  0
 23 24  1  0
 24 25  1  0
 24 26  1  0
 24 27  1  0
 23 28  1  0
 28 29  2  0
 29 14  1  0
 29 20  1  0
  1 30  1  0
  1 31  1  0
  1 32  1  0
  3 33  1  0
  3 34  1  0
  3 35  1  0
  4 36  1  0
  4 37  1  0
  4 38  1  0
  8 39  1  0
  9 40  1  0
  9 41  1  0
 10 42  1  0
 10 43  1  0
 11 44  1  0
 11 45  1  0
 17 46  1  0
 19 47  1  0
 21 48  1  0
 22 49  1  0
 28 50  1  0
M  CHG  1  17  -1
M  END
>  <UniqueID>  (59) 
59

>  <SMILES>  (59) 
CC(C)(C)OC(=O)NCCCC(=O)n1c(C([NH-])=O)cc2ccc(C(F)(F)F)cc21

>  <Energy>  (59) 
77.32968167582806

>  <Genealogy>  (59) 
CC(C)(C)OC(=O)NCCCC(=O)n1c(C([NH-])=O)cc2ccc(C(F)(F)F)cc21 (protonated)
CC(C)(C)OC(=O)NCCCC(=O)n1c(C([NH-])=O)cc2ccc(C(F)(F)F)cc21 (3D coordinates assigned)
CC(C)(C)OC(=O)NCCCC(=O)n1c(C([NH-])=O)cc2ccc(C(F)(F)F)cc21 (optimized conformer: 77.32968167582806 kcal/mol)

>  <smiles>  (59) 
CC(C)(C)OC(=O)NCCCC(=O)n1c(C(N)=O)cc2ccc(C(F)(F)F)cc21

>  <score_type>  (59) 
oracle

>  <origin>  (59) 
adg

>  <m_score__min__energy>  (59) 
-7.6600000000000001

>  <m_primary>  (59) 
energy

$$$$
60:0
     RDKit          3D

 37 39  0  0  0  0  0  0  0  0999 V2000
  141.2760  160.4720  135.2440 N   0  0  0  0  0  0  0  0  0  0  0  0
  141.7640  160.1870  133.9340 C   0  0  0  0  0  0  0  0  0  0  0  0
  140.9960  160.3230  132.9450 O   0  0  0  0  0  0  0  0  0  0  0  0
  143.1630  159.7500  133.7490 C   0  0  0  0  0  0  0  0  0  0  0  0
  144.2560  160.6180  133.7480 C   0  0  0  0  0  0  0  0  0  0  0  0
  145.3530  159.8210  133.5110 C   0  0  0  0  0  0  0  0  0  0  0  0
  146.7040  160.1500  133.4380 C   0  0  0  0  0  0  0  0  0  0  0  0
  147.6250  159.1100  133.2240 C   0  0  0  0  0  0  0  0  0  0  0  0
  147.1850  157.7690  133.0740 C   0  0  0  0  0  0  0  0  0  0  0  0
  148.1860  156.6520  132.9110 C   0  0  0  0  0  0  0  0  0  0  0  0
  147.6550  155.6840  132.0780 F   0  0  0  0  0  0  0  0  0  0  0  0
  149.3610  157.1280  132.3570 F   0  0  0  0  0  0  0  0  0  0  0  0
  148.4850  156.0790  134.1350 F   0  0  0  0  0  0  0  0  0  0  0  0
  145.8040  157.4730  133.1760 C   0  0  0  0  0  0  0  0  0  0  0  0
  144.9120  158.5310  133.3800 C   0  0  0  0  0  0  0  0  0  0  0  0
  143.5730  158.4730  133.5220 N   0  0  0  0  0  0  0  0  0  0  0  0
  142.7680  157.2840  133.4760 C   0  0  0  0  0  0  0  0  0  0  0  0
  143.2560  156.2330  132.9790 O   0  0  0  0  0  0  0  0  0  0  0  0
  141.4130  157.2870  133.9710 N   0  0  0  0  0  0  0  0  0  0  0  0
  140.3030  156.8680  133.1030 C   0  0  0  0  0  0  0  0  0  0  0  0
  139.1150  157.8070  133.2880 C   0  0  0  0  0  0  0  0  0  0  0  0
  138.7750  157.9350  134.7000 N   0  0  0  0  0  0  0  0  0  0  0  0
  139.7790  157.9010  135.7190 C   0  0  0  0  0  0  0  0  0  0  0  0
  139.4770  158.2230  136.8990 O   0  0  0  0  0  0  0  0  0  0  0  0
  141.1770  157.4390  135.4160 C   0  0  0  0  0  0  0  0  0  0  0  0
  140.7220  159.7640  135.7760 H   0  0  0  0  0  0  0  0  0  0  0  0
  144.2434  161.7069  133.9035 H   0  0  0  0  0  0  0  0  0  0  0  0
  147.0402  161.1919  133.5446 H   0  0  0  0  0  0  0  0  0  0  0  0
  148.6998  159.3382  133.1721 H   0  0  0  0  0  0  0  0  0  0  0  0
  145.4419  156.4374  133.0968 H   0  0  0  0  0  0  0  0  0  0  0  0
  140.6303  156.8966  132.0532 H   0  0  0  0  0  0  0  0  0  0  0  0
  140.0006  155.8449  133.3709 H   0  0  0  0  0  0  0  0  0  0  0  0
  139.3725  158.7985  132.8872 H   0  0  0  0  0  0  0  0  0  0  0  0
  138.2490  157.3919  132.7516 H   0  0  0  0  0  0  0  0  0  0  0  0
  137.8080  158.2330  134.9540 H   0  0  0  0  0  0  0  0  0  0  0  0
  141.8881  158.1773  135.8151 H   0  0  0  0  0  0  0  0  0  0  0  0
  141.3157  156.4540  135.8856 H   0  0  0  0  0  0  0  0  0  0  0  0
  1  2  1  0
  2  3  2  0
  2  4  1  0
  4  5  2  0
  5  6  1  0
  6  7  2  0
  7  8  1  0
  8  9  2  0
  9 10  1  0
 10 11  1  0
 10 12  1  0
 10 13  1  0
  9 14  1  0
 14 15  2  0
 15 16  1  0
 16 17  1  0
 17 18  2  0
 17 19  1  0
 19 20  1  0
 20 21  1  0
 21 22  1  0
 22 23  1  0
 23 24  2  0
 23 25  1  0
 16  4  1  0
 25 19  1  0
 15  6  1  0
  1 26  1  0
  5 27  1  0
  7 28  1  0
  8 29  1  0
 14 30  1  0
 20 31  1  0
 20 32  1  0
 21 33  1  0
 21 34  1  0
 22 35  1  0
 25 36  1  0
 25 37  1  0
M  CHG  1   1  -1
M  END
>  <UniqueID>  (60) 
60

>  <SMILES>  (60) 
[NH-]C(=O)c1cc2ccc(C(F)(F)F)cc2n1C(=O)N1CCNC(=O)C1

>  <Energy>  (60) 
77.60597686588147

>  <Genealogy>  (60) 
[NH-]C(=O)c1cc2ccc(C(F)(F)F)cc2n1C(=O)N1CCNC(=O)C1 (protonated)
[NH-]C(=O)c1cc2ccc(C(F)(F)F)cc2n1C(=O)N1CCNC(=O)C1 (3D coordinates assigned)
[NH-]C(=O)c1cc2ccc(C(F)(F)F)cc2n1C(=O)N1CCNC(=O)C1 (nonaromatic ring conformer: 77.60597686588147 kcal/mol)

>  <smiles>  (60) 
NC(=O)c1cc2ccc(C(F)(F)F)cc2n1C(=O)N1CCNC(=O)C1

>  <score_type>  (60) 
oracle

>  <origin>  (60) 
adg

>  <m_score__min__energy>  (60) 
-7.2599999999999998

>  <m_primary>  (60) 
energy

$$$$
61:0
     RDKit          3D

 42 43  0  0  0  0  0  0  0  0999 V2000
  141.0410  158.5970  132.6040 C   0  0  0  0  0  0  0  0  0  0  0  0
  142.0630  157.4690  132.6720 C   0  0  0  0  0  0  0  0  0  0  0  0
  143.3910  157.9880  132.6160 O   0  0  0  0  0  0  0  0  0  0  0  0
  143.9790  158.7140  133.6590 C   0  0  0  0  0  0  0  0  0  0  0  0
  143.3300  158.9570  134.7130 O   0  0  0  0  0  0  0  0  0  0  0  0
  145.3350  159.1690  133.5330 N   0  0  0  0  0  0  0  0  0  0  0  0
  145.7980  160.4480  133.6280 C   0  0  0  0  0  0  0  0  0  0  0  0
  145.0080  161.6270  134.0410 C   0  0  0  0  0  0  0  0  0  0  0  0
  143.6230  161.7030  133.7100 N   0  0  0  0  0  0  0  0  0  0  0  0
  145.5500  162.5860  134.6500 O   0  0  0  0  0  0  0  0  0  0  0  0
  147.1640  160.4950  133.3610 C   0  0  0  0  0  0  0  0  0  0  0  0
  147.5300  159.1940  133.1030 C   0  0  0  0  0  0  0  0  0  0  0  0
  148.7710  158.6640  132.7650 C   0  0  0  0  0  0  0  0  0  0  0  0
  148.8550  157.2820  132.5230 C   0  0  0  0  0  0  0  0  0  0  0  0
  147.7010  156.4570  132.6140 C   0  0  0  0  0  0  0  0  0  0  0  0
  147.7630  155.0410  132.3580 N   0  0  0  0  0  0  0  0  0  0  0  0
  147.3270  154.0330  133.3250 C   0  0  0  0  0  0  0  0  0  0  0  0
  147.5680  152.6210  132.7850 C   0  0  0  0  0  0  0  0  0  0  0  0
  149.3030  152.3370  132.4630 S   0  0  0  0  0  0  0  0  0  0  0  0
  149.5100  151.1180  131.1820 C   0  0  0  0  0  0  0  0  0  0  0  0
  149.9340  153.6260  132.0190 O   0  0  0  0  0  0  0  0  0  0  0  0
  149.9820  151.8620  133.7180 O   0  0  0  0  0  0  0  0  0  0  0  0
  146.4590  157.0380  132.9580 C   0  0  0  0  0  0  0  0  0  0  0  0
  146.4100  158.4130  133.2120 C   0  0  0  0  0  0  0  0  0  0  0  0
  140.7640  158.9027  133.6237 H   0  0  0  0  0  0  0  0  0  0  0  0
  141.4762  159.4543  132.0696 H   0  0  0  0  0  0  0  0  0  0  0  0
  140.1450  158.2483  132.0696 H   0  0  0  0  0  0  0  0  0  0  0  0
  141.9302  156.9176  133.6145 H   0  0  0  0  0  0  0  0  0  0  0  0
  141.9084  156.7992  131.8132 H   0  0  0  0  0  0  0  0  0  0  0  0
  143.0290  160.8450  133.6820 H   0  0  0  0  0  0  0  0  0  0  0  0
  147.8126  161.3835  133.3572 H   0  0  0  0  0  0  0  0  0  0  0  0
  149.6601  159.3073  132.6894 H   0  0  0  0  0  0  0  0  0  0  0  0
  149.8246  156.8338  132.2602 H   0  0  0  0  0  0  0  0  0  0  0  0
  148.1380  154.7250  131.4330 H   0  0  0  0  0  0  0  0  0  0  0  0
  147.8915  154.1626  134.2602 H   0  0  0  0  0  0  0  0  0  0  0  0
  146.2498  154.1617  133.5067 H   0  0  0  0  0  0  0  0  0  0  0  0
  147.2166  151.8887  133.5268 H   0  0  0  0  0  0  0  0  0  0  0  0
  147.0167  152.5118  131.8394 H   0  0  0  0  0  0  0  0  0  0  0  0
  149.6775  150.1313  131.6384 H   0  0  0  0  0  0  0  0  0  0  0  0
  148.6047  151.0844  130.5581 H   0  0  0  0  0  0  0  0  0  0  0  0
  150.3756  151.3851  130.5581 H   0  0  0  0  0  0  0  0  0  0  0  0
  145.5501  156.4219  133.0246 H   0  0  0  0  0  0  0  0  0  0  0  0
  1  2  1  0
  2  3  1  0
  3  4  1  0
  4  5  2  0
  4  6  1  0
  6  7  1  0
  7  8  1  0
  8  9  1  0
  8 10  2  0
  7 11  2  0
 11 12  1  0
 12 13  2  0
 13 14  1  0
 14 15  2  0
 15 16  1  0
 16 17  1  0
 17 18  1  0
 18 19  1  0
 19 20  1  0
 19 21  2  0
 19 22  2  0
 15 23  1  0
 23 24  2  0
 24  6  1  0
 24 12  1  0
  1 25  1  0
  1 26  1  0
  1 27  1  0
  2 28  1  0
  2 29  1  0
  9 30  1  0
 11 31  1  0
 13 32  1  0
 14 33  1  0
 16 34  1  0
 17 35  1  0
 17 36  1  0
 18 37  1  0
 18 38  1  0
 20 39  1  0
 20 40  1  0
 20 41  1  0
 23 42  1  0
M  CHG  1   9  -1
M  END
>  <UniqueID>  (61) 
61

>  <SMILES>  (61) 
CCOC(=O)n1c(C([NH-])=O)cc2ccc(NCCS(C)(=O)=O)cc21

>  <Energy>  (61) 
66.65862733641738

>  <Genealogy>  (61) 
CCOC(=O)n1c(C([NH-])=O)cc2ccc(NCCS(C)(=O)=O)cc21 (protonated)
CCOC(=O)n1c(C([NH-])=O)cc2ccc(NCCS(C)(=O)=O)cc21 (3D coordinates assigned)
CCOC(=O)n1c(C([NH-])=O)cc2ccc(NCCS(C)(=O)=O)cc21 (optimized conformer: 66.65862733641738 kcal/mol)

>  <smiles>  (61) 
CCOC(=O)n1c(C(N)=O)cc2ccc(NCCS(C)(=O)=O)cc21

>  <score_type>  (61) 
oracle

>  <origin>  (61) 
adg

>  <m_score__min__energy>  (61) 
-7.1500000000000004

>  <m_primary>  (61) 
energy

$$$$
62:0
     RDKit          3D

 30 31  0  0  0  0  0  0  0  0999 V2000
  148.7240  157.4990  131.8560 N   0  0  0  0  0  0  0  0  0  0  0  0
  148.3600  158.5180  132.7890 C   0  0  0  0  0  0  0  0  0  0  0  0
  149.2640  159.1530  133.3930 O   0  0  0  0  0  0  0  0  0  0  0  0
  146.9450  158.7930  133.1060 C   0  0  0  0  0  0  0  0  0  0  0  0
  146.4060  160.0760  133.1450 C   0  0  0  0  0  0  0  0  0  0  0  0
  145.1000  159.9090  133.5410 C   0  0  0  0  0  0  0  0  0  0  0  0
  144.0990  160.8560  133.7380 C   0  0  0  0  0  0  0  0  0  0  0  0
  142.8270  160.3990  134.1190 C   0  0  0  0  0  0  0  0  0  0  0  0
  142.5750  159.0140  134.2790 C   0  0  0  0  0  0  0  0  0  0  0  0
  141.2100  158.5410  134.7090 C   0  0  0  0  0  0  0  0  0  0  0  0
  140.6720  159.3580  135.8900 C   0  0  0  0  0  0  0  0  0  0  0  0
  140.6080  158.5410  137.1440 C   0  0  0  0  0  0  0  0  0  0  0  0
  139.8660  157.5260  137.2020 O   0  0  0  0  0  0  0  0  0  0  0  0
  141.4020  158.8770  138.2340 O   0  0  0  0  0  0  0  0  0  0  0  0
  143.6170  158.0820  134.0740 C   0  0  0  0  0  0  0  0  0  0  0  0
  144.8820  158.5660  133.7170 C   0  0  0  0  0  0  0  0  0  0  0  0
  146.0080  157.8650  133.4500 N   0  0  0  0  0  0  0  0  0  0  0  0
  146.1450  156.4340  133.4130 C   0  0  0  0  0  0  0  0  0  0  0  0
  146.5300  155.8560  132.3630 O   0  0  0  0  0  0  0  0  0  0  0  0
  145.8590  155.6730  134.5400 O   0  0  0  0  0  0  0  0  0  0  0  0
  149.7280  157.3430  131.6170 H   0  0  0  0  0  0  0  0  0  0  0  0
  148.0090  156.8460  131.4660 H   0  0  0  0  0  0  0  0  0  0  0  0
  146.9162  161.0216  132.9093 H   0  0  0  0  0  0  0  0  0  0  0  0
  144.2982  161.9289  133.5996 H   0  0  0  0  0  0  0  0  0  0  0  0
  142.0182  161.1235  134.2950 H   0  0  0  0  0  0  0  0  0  0  0  0
  140.5155  158.6395  133.8617 H   0  0  0  0  0  0  0  0  0  0  0  0
  141.2959  157.4920  135.0288 H   0  0  0  0  0  0  0  0  0  0  0  0
  141.3347  160.2196  136.0590 H   0  0  0  0  0  0  0  0  0  0  0  0
  139.6523  159.6883  135.6429 H   0  0  0  0  0  0  0  0  0  0  0  0
  143.4392  157.0029  134.1919 H   0  0  0  0  0  0  0  0  0  0  0  0
  1  2  1  0
  2  3  2  0
  2  4  1  0
  4  5  2  0
  5  6  1  0
  6  7  2  0
  7  8  1  0
  8  9  2  0
  9 10  1  0
 10 11  1  0
 11 12  1  0
 12 13  2  0
 12 14  1  0
  9 15  1  0
 15 16  2  0
 16 17  1  0
 17 18  1  0
 18 19  2  0
 18 20  1  0
 17  4  1  0
 16  6  1  0
  1 21  1  0
  1 22  1  0
  5 23  1  0
  7 24  1  0
  8 25  1  0
 10 26  1  0
 10 27  1  0
 11 28  1  0
 11 29  1  0
 15 30  1  0
M  CHG  2  14  -1  20  -1
M  END
>  <UniqueID>  (62) 
62

>  <SMILES>  (62) 
NC(=O)c1cc2ccc(CCC(=O)[O-])cc2n1C(=O)[O-]

>  <Energy>  (62) 
66.89801430455996

>  <Genealogy>  (62) 
NC(=O)c1cc2ccc(CCC(=O)[O-])cc2n1C(=O)[O-] (protonated)
NC(=O)c1cc2ccc(CCC(=O)[O-])cc2n1C(=O)[O-] (3D coordinates assigned)
NC(=O)c1cc2ccc(CCC(=O)[O-])cc2n1C(=O)[O-] (optimized conformer: 66.89801430455996 kcal/mol)

>  <smiles>  (62) 
NC(=O)c1cc2ccc(CCC(=O)O)cc2n1C(=O)O

>  <score_type>  (62) 
oracle

>  <origin>  (62) 
adg

>  <m_score__min__energy>  (62) 
-6.54

>  <m_primary>  (62) 
energy

$$$$
63:0
     RDKit          3D

 65 66  0  0  0  0  0  0  0  0999 V2000
  142.3010  152.0240  133.7460 C   0  0  0  0  0  0  0  0  0  0  0  0
  142.5680  153.4550  133.5320 N   0  0  0  0  0  0  0  0  0  0  0  0
  141.3100  154.2100  133.6150 C   0  0  0  0  0  0  0  0  0  0  0  0
  143.2330  153.6860  132.2310 C   0  0  0  0  0  0  0  0  0  0  0  0
  144.7550  153.7670  132.4020 C   0  0  0  0  0  0  0  0  0  0  0  0
  145.1630  155.1180  132.6240 O   0  0  0  0  0  0  0  0  0  0  0  0
  144.8450  155.8380  133.7830 C   0  0  0  0  0  0  0  0  0  0  0  0
  144.6810  155.2400  134.8820 O   0  0  0  0  0  0  0  0  0  0  0  0
  144.6760  157.2600  133.7130 N   0  0  0  0  0  0  0  0  0  0  0  0
  145.5840  158.1900  133.3070 C   0  0  0  0  0  0  0  0  0  0  0  0
  147.0040  157.9160  132.9820 C   0  0  0  0  0  0  0  0  0  0  0  0
  147.3560  156.9290  132.0100 N   0  0  0  0  0  0  0  0  0  0  0  0
  147.9190  158.5690  133.5500 O   0  0  0  0  0  0  0  0  0  0  0  0
  145.0110  159.4620  133.3100 C   0  0  0  0  0  0  0  0  0  0  0  0
  143.7120  159.2780  133.7250 C   0  0  0  0  0  0  0  0  0  0  0  0
  142.6850  160.2010  133.8960 C   0  0  0  0  0  0  0  0  0  0  0  0
  141.4310  159.7220  134.3100 C   0  0  0  0  0  0  0  0  0  0  0  0
  141.2240  158.3370  134.5310 C   0  0  0  0  0  0  0  0  0  0  0  0
  139.8920  157.8390  135.0240 C   0  0  0  0  0  0  0  0  0  0  0  0
  139.6570  158.2130  136.4940 C   0  0  0  0  0  0  0  0  0  0  0  0
  140.6810  157.6270  137.3720 N   0  0  0  0  0  0  0  0  0  0  0  0
  141.7140  158.5020  137.9360 C   0  0  0  0  0  0  0  0  0  0  0  0
  140.7250  156.1950  137.5810 C   0  0  0  0  0  0  0  0  0  0  0  0
  139.8910  155.6500  138.3540 O   0  0  0  0  0  0  0  0  0  0  0  0
  141.7500  155.3110  136.9100 C   0  0  0  0  0  0  0  0  0  0  0  0
  142.0890  154.0120  137.6940 C   0  0  0  0  0  0  0  0  0  0  0  0
  142.4900  154.3070  139.1580 C   0  0  0  0  0  0  0  0  0  0  0  0
  143.2950  153.3490  137.0050 C   0  0  0  0  0  0  0  0  0  0  0  0
  141.0110  153.0610  137.6130 O   0  0  0  0  0  0  0  0  0  0  0  0
  141.1000  151.6590  137.6290 C   0  0  0  0  0  0  0  0  0  0  0  0
  140.7020  150.9520  136.6660 O   0  0  0  0  0  0  0  0  0  0  0  0
  142.2920  157.4310  134.3510 C   0  0  0  0  0  0  0  0  0  0  0  0
  143.5350  157.9380  133.9600 C   0  0  0  0  0  0  0  0  0  0  0  0
  142.2621  151.8157  134.8254 H   0  0  0  0  0  0  0  0  0  0  0  0
  141.3377  151.7580  133.2863 H   0  0  0  0  0  0  0  0  0  0  0  0
  143.1035  151.4285  133.2863 H   0  0  0  0  0  0  0  0  0  0  0  0
  141.0463  154.3682  134.6712 H   0  0  0  0  0  0  0  0  0  0  0  0
  141.4332  155.1836  133.1180 H   0  0  0  0  0  0  0  0  0  0  0  0
  140.5088  153.6434  133.1180 H   0  0  0  0  0  0  0  0  0  0  0  0
  142.9906  152.8567  131.5502 H   0  0  0  0  0  0  0  0  0  0  0  0
  142.8743  154.6399  131.8170 H   0  0  0  0  0  0  0  0  0  0  0  0
  145.0556  153.1521  133.2631 H   0  0  0  0  0  0  0  0  0  0  0  0
  145.2360  153.3966  131.4847 H   0  0  0  0  0  0  0  0  0  0  0  0
  148.3590  156.7690  131.7690 H   0  0  0  0  0  0  0  0  0  0  0  0
  146.6360  156.3200  131.5640 H   0  0  0  0  0  0  0  0  0  0  0  0
  145.4953  160.4115  133.0380 H   0  0  0  0  0  0  0  0  0  0  0  0
  142.8500  161.2730  133.7126 H   0  0  0  0  0  0  0  0  0  0  0  0
  140.6018  160.4282  134.4642 H   0  0  0  0  0  0  0  0  0  0  0  0
  139.0951  158.2847  134.4106 H   0  0  0  0  0  0  0  0  0  0  0  0
  139.8837  156.7420  134.9428 H   0  0  0  0  0  0  0  0  0  0  0  0
  139.6863  159.3082  136.5928 H   0  0  0  0  0  0  0  0  0  0  0  0
  138.6764  157.8173  136.7972 H   0  0  0  0  0  0  0  0  0  0  0  0
  141.6679  158.4630  139.0343 H   0  0  0  0  0  0  0  0  0  0  0  0
  142.7049  158.1643  137.5984 H   0  0  0  0  0  0  0  0  0  0  0  0
  141.5439  159.5350  137.5984 H   0  0  0  0  0  0  0  0  0  0  0  0
  141.3629  155.0249  135.9209 H   0  0  0  0  0  0  0  0  0  0  0  0
  142.6801  155.8956  136.8536 H   0  0  0  0  0  0  0  0  0  0  0  0
  141.7942  153.7951  139.8390 H   0  0  0  0  0  0  0  0  0  0  0  0
  143.5128  153.9444  139.3382 H   0  0  0  0  0  0  0  0  0  0  0  0
  142.4483  155.3913  139.3382 H   0  0  0  0  0  0  0  0  0  0  0  0
  143.9892  152.9674  137.7682 H   0  0  0  0  0  0  0  0  0  0  0  0
  142.9462  152.5158  136.3772 H   0  0  0  0  0  0  0  0  0  0  0  0
  143.8116  154.0899  136.3772 H   0  0  0  0  0  0  0  0  0  0  0  0
  141.5312  151.1630  138.5111 H   0  0  0  0  0  0  0  0  0  0  0  0
  142.1496  156.3526  134.5144 H   0  0  0  0  0  0  0  0  0  0  0  0
  1  2  1  0
  2  3  1  0
  2  4  1  0
  4  5  1  0
  5  6  1  0
  6  7  1  0
  7  8  2  0
  7  9  1  0
  9 10  1  0
 10 11  1  0
 11 12  1  0
 11 13  2  0
 10 14  2  0
 14 15  1  0
 15 16  2  0
 16 17  1  0
 17 18  2  0
 18 19  1  0
 19 20  1  0
 20 21  1  0
 21 22  1  0
 21 23  1  0
 23 24  2  0
 23 25  1  0
 25 26  1  0
 26 27  1  0
 26 28  1  0
 26 29  1  0
 29 30  1  0
 30 31  2  0
 18 32  1  0
 32 33  2  0
 33  9  1  0
 33 15  1  0
  1 34  1  0
  1 35  1  0
  1 36  1  0
  3 37  1  0
  3 38  1  0
  3 39  1  0
  4 40  1  0
  4 41  1  0
  5 42  1  0
  5 43  1  0
 12 44  1  0
 12 45  1  0
 14 46  1  0
 16 47  1  0
 17 48  1  0
 19 49  1  0
 19 50  1  0
 20 51  1  0
 20 52  1  0
 22 53  1  0
 22 54  1  0
 22 55  1  0
 25 56  1  0
 25 57  1  0
 27 58  1  0
 27 59  1  0
 27 60  1  0
 28 61  1  0
 28 62  1  0
 28 63  1  0
 30 64  1  0
 32 65  1  0
M  END
>  <UniqueID>  (63) 
63

>  <SMILES>  (63) 
CN(C)CCOC(=O)n1c(C(N)=O)cc2ccc(CCN(C)C(=O)CC(C)(C)OC=O)cc21

>  <Energy>  (63) 
94.95987580943216

>  <Genealogy>  (63) 
CN(C)CCOC(=O)n1c(C(N)=O)cc2ccc(CCN(C)C(=O)CC(C)(C)OC=O)cc21 (3D coordinates assigned)
CN(C)CCOC(=O)n1c(C(N)=O)cc2ccc(CCN(C)C(=O)CC(C)(C)OC=O)cc21 (optimized conformer: 94.95987580943216 kcal/mol)

>  <smiles>  (63) 
CN(C)CCOC(=O)n1c(C(N)=O)cc2ccc(CCN(C)C(=O)CC(C)(C)OC=O)cc21

>  <score_type>  (63) 
oracle

>  <origin>  (63) 
adg

>  <m_score__min__energy>  (63) 
-8.0199999999999996

>  <m_primary>  (63) 
energy

$$$$
64:0
     RDKit          3D

 44 46  0  0  0  0  0  0  0  0999 V2000
  141.0610  157.2900  137.5630 C   0  0  0  0  0  0  0  0  0  0  0  0
  140.4290  158.1390  136.4430 C   0  0  1  0  0  0  0  0  0  0  0  0
  141.3390  159.3400  136.0450 C   0  0  0  0  0  0  0  0  0  0  0  0
  141.7640  159.2700  134.6390 N   0  0  0  0  0  0  0  0  0  0  0  0
  143.1270  159.5620  134.2750 C   0  0  0  0  0  0  0  0  0  0  0  0
  143.5510  160.9060  134.1100 C   0  0  0  0  0  0  0  0  0  0  0  0
  144.8710  161.2000  133.7290 C   0  0  0  0  0  0  0  0  0  0  0  0
  145.7430  160.1350  133.5220 C   0  0  0  0  0  0  0  0  0  0  0  0
  147.0600  160.1350  133.1210 C   0  0  0  0  0  0  0  0  0  0  0  0
  147.4270  158.7920  133.0600 C   0  0  0  0  0  0  0  0  0  0  0  0
  148.7990  158.3400  132.7480 C   0  0  0  0  0  0  0  0  0  0  0  0
  149.0620  156.9530  132.5480 N   0  0  0  0  0  0  0  0  0  0  0  0
  149.7380  159.1700  132.6200 O   0  0  0  0  0  0  0  0  0  0  0  0
  146.3770  157.9930  133.4020 N   0  0  0  0  0  0  0  0  0  0  0  0
  146.3230  156.5560  133.4060 C   0  0  0  0  0  0  0  0  0  0  0  0
  146.4520  155.9120  132.3320 O   0  0  0  0  0  0  0  0  0  0  0  0
  146.1020  155.8650  134.5910 O   0  0  0  0  0  0  0  0  0  0  0  0
  145.3550  158.8310  133.6860 C   0  0  0  0  0  0  0  0  0  0  0  0
  144.0410  158.5090  134.0470 C   0  0  0  0  0  0  0  0  0  0  0  0
  140.7770  158.9850  133.5890 C   0  0  0  0  0  0  0  0  0  0  0  0
  139.5600  158.2430  134.1770 C   0  0  1  0  0  0  0  0  0  0  0  0
  138.7310  157.5300  133.0980 C   0  0  0  0  0  0  0  0  0  0  0  0
  139.9670  157.3310  135.2760 N   0  0  0  0  0  0  0  0  0  0  0  0
  140.9370  156.2930  134.8530 C   0  0  0  0  0  0  0  0  0  0  0  0
  140.7613  157.6926  138.5418 H   0  0  0  0  0  0  0  0  0  0  0  0
  140.7160  156.2494  137.4733 H   0  0  0  0  0  0  0  0  0  0  0  0
  142.1569  157.3220  137.4733 H   0  0  0  0  0  0  0  0  0  0  0  0
  139.5080  158.5718  136.8606 H   0  0  0  0  0  0  0  0  0  0  0  0
  142.2327  159.3356  136.6863 H   0  0  0  0  0  0  0  0  0  0  0  0
  140.7573  160.2641  136.1774 H   0  0  0  0  0  0  0  0  0  0  0  0
  142.8387  161.7264  134.2822 H   0  0  0  0  0  0  0  0  0  0  0  0
  145.2051  162.2399  133.5983 H   0  0  0  0  0  0  0  0  0  0  0  0
  147.6889  161.0091  132.8965 H   0  0  0  0  0  0  0  0  0  0  0  0
  148.5090  156.3960  131.8610 H   0  0  0  0  0  0  0  0  0  0  0  0
  143.7274  157.4598  134.1508 H   0  0  0  0  0  0  0  0  0  0  0  0
  141.2434  158.3582  132.8147 H   0  0  0  0  0  0  0  0  0  0  0  0
  140.4367  159.9362  133.1537 H   0  0  0  0  0  0  0  0  0  0  0  0
  138.8943  159.0019  134.6139 H   0  0  0  0  0  0  0  0  0  0  0  0
  137.9809  156.8848  133.5787 H   0  0  0  0  0  0  0  0  0  0  0  0
  138.2236  158.2782  132.4714 H   0  0  0  0  0  0  0  0  0  0  0  0
  139.3949  156.9164  132.4714 H   0  0  0  0  0  0  0  0  0  0  0  0
  141.3790  155.8200  135.7423 H   0  0  0  0  0  0  0  0  0  0  0  0
  140.4197  155.5311  134.2514 H   0  0  0  0  0  0  0  0  0  0  0  0
  141.7321  156.7576  134.2514 H   0  0  0  0  0  0  0  0  0  0  0  0
  1  2  1  0
  2  3  1  0
  3  4  1  0
  4  5  1  0
  5  6  2  0
  6  7  1  0
  7  8  2  0
  8  9  1  0
  9 10  2  0
 10 11  1  0
 11 12  1  0
 11 13  2  0
 10 14  1  0
 14 15  1  0
 15 16  2  0
 15 17  1  0
 14 18  1  0
 18 19  2  0
  4 20  1  0
 20 21  1  0
 21 22  1  0
 21 23  1  0
 23 24  1  0
 23  2  1  0
 19  5  1  0
 18  8  1  0
  1 25  1  0
  1 26  1  0
  1 27  1  0
  2 28  1  1
  3 29  1  0
  3 30  1  0
  6 31  1  0
  7 32  1  0
  9 33  1  0
 12 34  1  0
 19 35  1  0
 20 36  1  0
 20 37  1  0
 21 38  1  1
 22 39  1  0
 22 40  1  0
 22 41  1  0
 24 42  1  0
 24 43  1  0
 24 44  1  0
M  CHG  2  12  -1  17  -1
M  END
>  <UniqueID>  (64) 
64

>  <SMILES>  (64) 
C[C@@H]1CN(c2ccc3cc(C([NH-])=O)n(C(=O)[O-])c3c2)C[C@H](C)N1C

>  <Energy>  (64) 
100.12974311959579

>  <Genealogy>  (64) 
CC1CN(c2ccc3cc(C([NH-])=O)n(C(=O)[O-])c3c2)CC(C)N1C (protonated)
C[C@@H]1CN(c2ccc3cc(C([NH-])=O)n(C(=O)[O-])c3c2)C[C@H](C)N1C (chirality)
C[C@@H]1CN(c2ccc3cc(C([NH-])=O)n(C(=O)[O-])c3c2)C[C@H](C)N1C (3D coordinates assigned)
C[C@@H]1CN(c2ccc3cc(C([NH-])=O)n(C(=O)[O-])c3c2)C[C@H](C)N1C (nonaromatic ring conformer: 100.12974311959579 kcal/mol)

>  <smiles>  (64) 
CC1CN(c2ccc3cc(C(N)=O)n(C(=O)O)c3c2)CC(C)N1C

>  <score_type>  (64) 
oracle

>  <origin>  (64) 
adg

>  <m_score__min__energy>  (64) 
-7.4900000000000002

>  <m_primary>  (64) 
energy

$$$$
65:0
     RDKit          3D

 38 40  0  0  0  0  0  0  0  0999 V2000
  138.7280  158.2500  135.6310 N   0  0  0  0  0  0  0  0  0  0  0  0
  139.1120  157.5310  134.4570 C   0  0  0  0  0  0  0  0  0  0  0  0
  138.2170  157.0380  133.7210 O   0  0  0  0  0  0  0  0  0  0  0  0
  140.5380  157.3960  134.0860 C   0  0  0  0  0  0  0  0  0  0  0  0
  141.1210  156.2000  133.6710 C   0  0  0  0  0  0  0  0  0  0  0  0
  142.4600  156.4810  133.5220 C   0  0  0  0  0  0  0  0  0  0  0  0
  143.5020  155.6610  133.1150 C   0  0  0  0  0  0  0  0  0  0  0  0
  144.7860  156.2200  133.0200 C   0  0  0  0  0  0  0  0  0  0  0  0
  145.0280  157.5940  133.3280 C   0  0  0  0  0  0  0  0  0  0  0  0
  146.3700  158.1700  133.2170 N   0  0  0  0  0  0  0  0  0  0  0  0
  146.5270  159.6380  133.3860 C   0  0  0  0  0  0  0  0  0  0  0  0
  147.9710  160.1420  133.3490 C   0  0  0  0  0  0  0  0  0  0  0  0
  148.7370  159.3480  132.4020 N   0  0  0  0  0  0  0  0  0  0  0  0
  148.9770  159.8050  131.0580 C   0  0  0  0  0  0  0  0  0  0  0  0
  149.4970  159.0390  130.2050 O   0  0  0  0  0  0  0  0  0  0  0  0
  148.6420  161.1020  130.6830 O   0  0  0  0  0  0  0  0  0  0  0  0
  148.8670  157.9470  132.7710 C   0  0  0  0  0  0  0  0  0  0  0  0
  147.4850  157.2890  132.7800 C   0  0  0  0  0  0  0  0  0  0  0  0
  143.9170  158.3900  133.7330 C   0  0  0  0  0  0  0  0  0  0  0  0
  142.6520  157.7980  133.8380 C   0  0  0  0  0  0  0  0  0  0  0  0
  141.4790  158.3760  134.1870 N   0  0  0  0  0  0  0  0  0  0  0  0
  141.2670  159.7580  134.5190 C   0  0  0  0  0  0  0  0  0  0  0  0
  141.3900  160.6520  133.6400 O   0  0  0  0  0  0  0  0  0  0  0  0
  140.9110  160.1230  135.8120 O   0  0  0  0  0  0  0  0  0  0  0  0
  137.7180  158.3730  135.8620 H   0  0  0  0  0  0  0  0  0  0  0  0
  139.4410  158.6260  136.2940 H   0  0  0  0  0  0  0  0  0  0  0  0
  140.6182  155.2369  133.4992 H   0  0  0  0  0  0  0  0  0  0  0  0
  143.3270  154.6022  132.8734 H   0  0  0  0  0  0  0  0  0  0  0  0
  145.6258  155.5852  132.7009 H   0  0  0  0  0  0  0  0  0  0  0  0
  145.9709  160.1360  132.5781 H   0  0  0  0  0  0  0  0  0  0  0  0
  146.1442  159.8747  134.3897 H   0  0  0  0  0  0  0  0  0  0  0  0
  147.9834  161.1969  133.0376 H   0  0  0  0  0  0  0  0  0  0  0  0
  148.4173  160.0502  134.3502 H   0  0  0  0  0  0  0  0  0  0  0  0
  149.5119  157.4346  132.0419 H   0  0  0  0  0  0  0  0  0  0  0  0
  149.3139  157.8728  133.7734 H   0  0  0  0  0  0  0  0  0  0  0  0
  147.2658  156.9428  131.7592 H   0  0  0  0  0  0  0  0  0  0  0  0
  147.5385  156.4741  133.5169 H   0  0  0  0  0  0  0  0  0  0  0  0
  144.0517  159.4577  133.9606 H   0  0  0  0  0  0  0  0  0  0  0  0
  1  2  1  0
  2  3  2  0
  2  4  1  0
  4  5  2  0
  5  6  1  0
  6  7  2  0
  7  8  1  0
  8  9  2  0
  9 10  1  0
 10 11  1  0
 11 12  1  0
 12 13  1  0
 13 14  1  0
 14 15  2  0
 14 16  1  0
 13 17  1  0
 17 18  1  0
  9 19  1  0
 19 20  2  0
 20 21  1  0
 21 22  1  0
 22 23  2  0
 22 24  1  0
 21  4  1  0
 20  6  1  0
 18 10  1  0
  1 25  1  0
  1 26  1  0
  5 27  1  0
  7 28  1  0
  8 29  1  0
 11 30  1  0
 11 31  1  0
 12 32  1  0
 12 33  1  0
 17 34  1  0
 17 35  1  0
 18 36  1  0
 18 37  1  0
 19 38  1  0
M  CHG  2  16  -1  24  -1
M  END
>  <UniqueID>  (65) 
65

>  <SMILES>  (65) 
NC(=O)c1cc2ccc(N3CCN(C(=O)[O-])CC3)cc2n1C(=O)[O-]

>  <Energy>  (65) 
88.27334697715467

>  <Genealogy>  (65) 
NC(=O)c1cc2ccc(N3CCN(C(=O)[O-])CC3)cc2n1C(=O)[O-] (protonated)
NC(=O)c1cc2ccc(N3CCN(C(=O)[O-])CC3)cc2n1C(=O)[O-] (3D coordinates assigned)
NC(=O)c1cc2ccc(N3CCN(C(=O)[O-])CC3)cc2n1C(=O)[O-] (nonaromatic ring conformer: 88.27334697715467 kcal/mol)

>  <smiles>  (65) 
NC(=O)c1cc2ccc(N3CCN(C(=O)O)CC3)cc2n1C(=O)O

>  <score_type>  (65) 
oracle

>  <origin>  (65) 
adg

>  <m_score__min__energy>  (65) 
-7.2400000000000002

>  <m_primary>  (65) 
energy

$$$$
66:0
     RDKit          3D

 45 46  0  0  0  0  0  0  0  0999 V2000
  144.3700  154.8520  132.1490 C   0  0  0  0  0  0  0  0  0  0  0  0
  145.0380  154.4670  133.4590 C   0  0  0  0  0  0  0  0  0  0  0  0
  145.7590  155.5830  133.9700 O   0  0  0  0  0  0  0  0  0  0  0  0
  146.3790  156.5240  133.1430 C   0  0  0  0  0  0  0  0  0  0  0  0
  147.2110  156.1540  132.2700 O   0  0  0  0  0  0  0  0  0  0  0  0
  146.0790  157.9200  133.3020 N   0  0  0  0  0  0  0  0  0  0  0  0
  146.8980  158.9790  133.0460 C   0  0  0  0  0  0  0  0  0  0  0  0
  148.3360  158.9040  132.7160 C   0  0  0  0  0  0  0  0  0  0  0  0
  148.7730  158.4120  131.4510 N   0  0  0  0  0  0  0  0  0  0  0  0
  149.1920  159.2310  133.5800 O   0  0  0  0  0  0  0  0  0  0  0  0
  146.2130  160.1790  133.2210 C   0  0  0  0  0  0  0  0  0  0  0  0
  144.9410  159.8210  133.6030 C   0  0  0  0  0  0  0  0  0  0  0  0
  143.8410  160.6150  133.9030 C   0  0  0  0  0  0  0  0  0  0  0  0
  142.6380  159.9740  134.2460 C   0  0  0  0  0  0  0  0  0  0  0  0
  142.5480  158.5570  134.2720 C   0  0  0  0  0  0  0  0  0  0  0  0
  141.2270  157.8970  134.6520 C   0  0  1  0  0  0  0  0  0  0  0  0
  140.6690  158.4990  135.9250 C   0  0  0  0  0  0  0  0  0  0  0  0
  140.6060  159.7460  136.0890 O   0  0  0  0  0  0  0  0  0  0  0  0
  140.2550  157.6610  136.9540 O   0  0  0  0  0  0  0  0  0  0  0  0
  140.2000  157.7860  133.4600 C   0  0  0  0  0  0  0  0  0  0  0  0
  140.1030  156.3110  133.0030 C   0  0  0  0  0  0  0  0  0  0  0  0
  140.5970  158.6400  132.2330 C   0  0  0  0  0  0  0  0  0  0  0  0
  138.7940  158.2230  133.9330 C   0  0  0  0  0  0  0  0  0  0  0  0
  143.6950  157.7850  133.9590 C   0  0  0  0  0  0  0  0  0  0  0  0
  144.8850  158.4530  133.6430 C   0  0  0  0  0  0  0  0  0  0  0  0
  143.4345  155.3912  132.3590 H   0  0  0  0  0  0  0  0  0  0  0  0
  145.0445  155.4999  131.5700 H   0  0  0  0  0  0  0  0  0  0  0  0
  144.1475  153.9436  131.5700 H   0  0  0  0  0  0  0  0  0  0  0  0
  144.2709  154.1620  134.1860 H   0  0  0  0  0  0  0  0  0  0  0  0
  145.7314  153.6310  133.2851 H   0  0  0  0  0  0  0  0  0  0  0  0
  148.4730  157.4730  131.1070 H   0  0  0  0  0  0  0  0  0  0  0  0
  146.6059  161.1971  133.0830 H   0  0  0  0  0  0  0  0  0  0  0  0
  143.9095  161.7125  133.8730 H   0  0  0  0  0  0  0  0  0  0  0  0
  141.7540  160.5783  134.4978 H   0  0  0  0  0  0  0  0  0  0  0  0
  141.4396  156.8422  134.8803 H   0  0  0  0  0  0  0  0  0  0  0  0
  140.0599  155.6558  133.8855 H   0  0  0  0  0  0  0  0  0  0  0  0
  139.1939  156.1732  132.3993 H   0  0  0  0  0  0  0  0  0  0  0  0
  140.9863  156.0553  132.3993 H   0  0  0  0  0  0  0  0  0  0  0  0
  141.0379  159.5885  132.5736 H   0  0  0  0  0  0  0  0  0  0  0  0
  141.3322  158.0908  131.6264 H   0  0  0  0  0  0  0  0  0  0  0  0
  139.7033  158.8480  131.6264 H   0  0  0  0  0  0  0  0  0  0  0  0
  138.7636  158.2325  135.0325 H   0  0  0  0  0  0  0  0  0  0  0  0
  138.5758  159.2314  133.5515 H   0  0  0  0  0  0  0  0  0  0  0  0
  138.0426  157.5160  133.5515 H   0  0  0  0  0  0  0  0  0  0  0  0
  143.6515  156.6859  133.9642 H   0  0  0  0  0  0  0  0  0  0  0  0
  1  2  1  0
  2  3  1  0
  3  4  1  0
  4  5  2  0
  4  6  1  0
  6  7  1  0
  7  8  1  0
  8  9  1  0
  8 10  2  0
  7 11  2  0
 11 12  1  0
 12 13  2  0
 13 14  1  0
 14 15  2  0
 15 16  1  0
 16 17  1  0
 17 18  2  0
 17 19  1  0
 16 20  1  0
 20 21  1  0
 20 22  1  0
 20 23  1  0
 15 24  1  0
 24 25  2  0
 25  6  1  0
 25 12  1  0
  1 26  1  0
  1 27  1  0
  1 28  1  0
  2 29  1  0
  2 30  1  0
  9 31  1  0
 11 32  1  0
 13 33  1  0
 14 34  1  0
 16 35  1  1
 21 36  1  0
 21 37  1  0
 21 38  1  0
 22 39  1  0
 22 40  1  0
 22 41  1  0
 23 42  1  0
 23 43  1  0
 23 44  1  0
 24 45  1  0
M  CHG  2   9  -1  19  -1
M  END
>  <UniqueID>  (66) 
66

>  <SMILES>  (66) 
CCOC(=O)n1c(C([NH-])=O)cc2ccc([C@@H](C(=O)[O-])C(C)(C)C)cc21

>  <Energy>  (66) 
80.3881430979849

>  <Genealogy>  (66) 
CCOC(=O)n1c(C([NH-])=O)cc2ccc(C(C(=O)[O-])C(C)(C)C)cc21 (protonated)
CCOC(=O)n1c(C([NH-])=O)cc2ccc([C@@H](C(=O)[O-])C(C)(C)C)cc21 (chirality)
CCOC(=O)n1c(C([NH-])=O)cc2ccc([C@@H](C(=O)[O-])C(C)(C)C)cc21 (3D coordinates assigned)
CCOC(=O)n1c(C([NH-])=O)cc2ccc([C@@H](C(=O)[O-])C(C)(C)C)cc21 (optimized conformer: 80.3881430979849 kcal/mol)

>  <smiles>  (66) 
CCOC(=O)n1c(C(N)=O)cc2ccc(C(C(=O)O)C(C)(C)C)cc21

>  <score_type>  (66) 
oracle

>  <origin>  (66) 
adg

>  <m_score__min__energy>  (66) 
-7.2300000000000004

>  <m_primary>  (66) 
energy

$$$$
67:0
     RDKit          3D

 45 46  0  0  0  0  0  0  0  0999 V2000
  142.1200  155.7480  136.3940 C   0  0  0  0  0  0  0  0  0  0  0  0
  142.9700  155.7390  135.2530 O   0  0  0  0  0  0  0  0  0  0  0  0
  142.7250  156.5270  134.1250 C   0  0  0  0  0  0  0  0  0  0  0  0
  142.5560  155.9880  132.9960 O   0  0  0  0  0  0  0  0  0  0  0  0
  142.7030  157.9590  134.2510 N   0  0  0  0  0  0  0  0  0  0  0  0
  141.6420  158.7650  134.5430 C   0  0  0  0  0  0  0  0  0  0  0  0
  140.2850  158.3100  134.9170 C   0  0  0  0  0  0  0  0  0  0  0  0
  139.8480  158.4270  136.2710 N   0  0  0  0  0  0  0  0  0  0  0  0
  139.5180  157.7910  134.0610 O   0  0  0  0  0  0  0  0  0  0  0  0
  142.0260  160.1060  134.5200 C   0  0  0  0  0  0  0  0  0  0  0  0
  143.3660  160.0980  134.2070 C   0  0  0  0  0  0  0  0  0  0  0  0
  144.2590  161.1560  134.0530 C   0  0  0  0  0  0  0  0  0  0  0  0
  145.5880  160.8510  133.7160 C   0  0  0  0  0  0  0  0  0  0  0  0
  145.9950  159.5070  133.5210 C   0  0  0  0  0  0  0  0  0  0  0  0
  147.4360  159.1820  133.2430 C   0  0  0  0  0  0  0  0  0  0  0  0
  147.6720  157.7340  133.5220 C   0  0  0  0  0  0  0  0  0  0  0  0
  147.5480  157.2920  134.6970 O   0  0  0  0  0  0  0  0  0  0  0  0
  147.9530  156.8710  132.4550 O   0  0  0  0  0  0  0  0  0  0  0  0
  148.5570  155.5920  132.6290 C   0  0  0  0  0  0  0  0  0  0  0  0
  147.5410  154.6160  133.1720 C   0  0  0  0  0  0  0  0  0  0  0  0
  147.8630  153.4430  133.3060 O   0  0  0  0  0  0  0  0  0  0  0  0
  146.1950  155.0480  133.4970 N   0  0  0  0  0  0  0  0  0  0  0  0
  145.8230  154.5760  134.8400 C   0  0  0  0  0  0  0  0  0  0  0  0
  145.2420  154.5600  132.4890 C   0  0  0  0  0  0  0  0  0  0  0  0
  145.0610  158.4590  133.6890 C   0  0  0  0  0  0  0  0  0  0  0  0
  143.7510  158.7900  134.0480 C   0  0  0  0  0  0  0  0  0  0  0  0
  142.7326  155.7415  137.3076 H   0  0  0  0  0  0  0  0  0  0  0  0
  141.4947  156.6528  136.3782 H   0  0  0  0  0  0  0  0  0  0  0  0
  141.4756  154.8566  136.3782 H   0  0  0  0  0  0  0  0  0  0  0  0
  139.4690  159.3300  136.6380 H   0  0  0  0  0  0  0  0  0  0  0  0
  141.3917  160.9841  134.7116 H   0  0  0  0  0  0  0  0  0  0  0  0
  143.9336  162.1977  134.1910 H   0  0  0  0  0  0  0  0  0  0  0  0
  146.3208  161.6635  133.6022 H   0  0  0  0  0  0  0  0  0  0  0  0
  147.6654  159.3963  132.1887 H   0  0  0  0  0  0  0  0  0  0  0  0
  148.0852  159.7943  133.8861 H   0  0  0  0  0  0  0  0  0  0  0  0
  148.9300  155.2294  131.6598 H   0  0  0  0  0  0  0  0  0  0  0  0
  149.3928  155.6787  133.3389 H   0  0  0  0  0  0  0  0  0  0  0  0
  146.1540  156.0930  133.5050 H   0  0  0  0  0  0  0  0  0  0  0  0
  146.3163  155.2019  135.5983 H   0  0  0  0  0  0  0  0  0  0  0  0
  144.7319  154.6426  134.9629 H   0  0  0  0  0  0  0  0  0  0  0  0
  146.1427  153.5307  134.9629 H   0  0  0  0  0  0  0  0  0  0  0  0
  144.3716  154.1143  132.9928 H   0  0  0  0  0  0  0  0  0  0  0  0
  144.9114  155.3998  131.8601 H   0  0  0  0  0  0  0  0  0  0  0  0
  145.7301  153.8009  131.8601 H   0  0  0  0  0  0  0  0  0  0  0  0
  145.3574  157.4101  133.5410 H   0  0  0  0  0  0  0  0  0  0  0  0
  1  2  1  0
  2  3  1  0
  3  4  2  0
  3  5  1  0
  5  6  1  0
  6  7  1  0
  7  8  1  0
  7  9  2  0
  6 10  2  0
 10 11  1  0
 11 12  2  0
 12 13  1  0
 13 14  2  0
 14 15  1  0
 15 16  1  0
 16 17  2  0
 16 18  1  0
 18 19  1  0
 19 20  1  0
 20 21  2  0
 20 22  1  0
 22 23  1  0
 22 24  1  0
 14 25  1  0
 25 26  2  0
 26  5  1  0
 26 11  1  0
  1 27  1  0
  1 28  1  0
  1 29  1  0
  8 30  1  0
 10 31  1  0
 12 32  1  0
 13 33  1  0
 15 34  1  0
 15 35  1  0
 19 36  1  0
 19 37  1  0
 22 38  1  0
 23 39  1  0
 23 40  1  0
 23 41  1  0
 24 42  1  0
 24 43  1  0
 24 44  1  0
 25 45  1  0
M  CHG  2   8  -1  22   1
M  END
>  <UniqueID>  (67) 
67

>  <SMILES>  (67) 
COC(=O)n1c(C([NH-])=O)cc2ccc(CC(=O)OCC(=O)[NH+](C)C)cc21

>  <Energy>  (67) 
74.28000989827672

>  <Genealogy>  (67) 
COC(=O)n1c(C([NH-])=O)cc2ccc(CC(=O)OCC(=O)[NH+](C)C)cc21 (protonated)
COC(=O)n1c(C([NH-])=O)cc2ccc(CC(=O)OCC(=O)[NH+](C)C)cc21 (3D coordinates assigned)
COC(=O)n1c(C([NH-])=O)cc2ccc(CC(=O)OCC(=O)[NH+](C)C)cc21 (optimized conformer: 74.28000989827672 kcal/mol)

>  <smiles>  (67) 
COC(=O)n1c(C(N)=O)cc2ccc(CC(=O)OCC(=O)N(C)C)cc21

>  <score_type>  (67) 
oracle

>  <origin>  (67) 
adg

>  <m_score__min__energy>  (67) 
-5.1799999999999997

>  <m_primary>  (67) 
energy

$$$$
68:0
     RDKit          3D

 43 44  0  0  0  0  0  0  0  0999 V2000
  149.9430  158.9500  131.5530 C   0  0  0  0  0  0  0  0  0  0  0  0
  149.6400  159.9570  130.7310 C   0  0  0  0  0  0  0  0  0  0  0  0
  148.4690  160.8560  131.0080 C   0  0  0  0  0  0  0  0  0  0  0  0
  147.3420  160.0940  131.4360 O   0  0  0  0  0  0  0  0  0  0  0  0
  146.9170  160.0340  132.7680 C   0  0  0  0  0  0  0  0  0  0  0  0
  147.3560  160.8590  133.6160 O   0  0  0  0  0  0  0  0  0  0  0  0
  145.9930  159.0130  133.1760 N   0  0  0  0  0  0  0  0  0  0  0  0
  144.6830  159.1660  133.5240 C   0  0  0  0  0  0  0  0  0  0  0  0
  143.9830  160.4510  133.7250 C   0  0  0  0  0  0  0  0  0  0  0  0
  144.7110  161.6540  133.9570 N   0  0  0  0  0  0  0  0  0  0  0  0
  142.7230  160.4790  133.7420 O   0  0  0  0  0  0  0  0  0  0  0  0
  144.0910  157.9250  133.7510 C   0  0  0  0  0  0  0  0  0  0  0  0
  145.0870  157.0000  133.5360 C   0  0  0  0  0  0  0  0  0  0  0  0
  145.0500  155.6120  133.6090 C   0  0  0  0  0  0  0  0  0  0  0  0
  146.2240  154.9030  133.3040 C   0  0  0  0  0  0  0  0  0  0  0  0
  147.4090  155.5900  132.9240 C   0  0  0  0  0  0  0  0  0  0  0  0
  148.6190  154.8820  132.5940 N   0  0  0  0  0  0  0  0  0  0  0  0
  148.9610  153.5720  133.1560 C   0  0  0  0  0  0  0  0  0  0  0  0
  149.3550  152.5750  132.0630 C   0  0  0  0  0  0  0  0  0  0  0  0
  148.2840  151.1460  132.0660 S   0  0  0  0  0  0  0  0  0  0  0  0
  146.5770  151.6120  132.2400 C   0  0  0  0  0  0  0  0  0  0  0  0
  148.7180  150.1180  133.3210 O   0  0  0  0  0  0  0  0  0  0  0  0
  147.4030  157.0010  132.8630 C   0  0  0  0  0  0  0  0  0  0  0  0
  146.2240  157.6820  133.1910 C   0  0  0  0  0  0  0  0  0  0  0  0
  150.8043  158.3017  131.3343 H   0  0  0  0  0  0  0  0  0  0  0  0
  149.3314  158.7684  132.4491 H   0  0  0  0  0  0  0  0  0  0  0  0
  150.2572  160.1312  129.8373 H   0  0  0  0  0  0  0  0  0  0  0  0
  148.7418  161.5724  131.7969 H   0  0  0  0  0  0  0  0  0  0  0  0
  148.2055  161.3905  130.0834 H   0  0  0  0  0  0  0  0  0  0  0  0
  145.5030  161.9290  133.3360 H   0  0  0  0  0  0  0  0  0  0  0  0
  143.0485  157.7268  134.0407 H   0  0  0  0  0  0  0  0  0  0  0  0
  144.1287  155.0845  133.8971 H   0  0  0  0  0  0  0  0  0  0  0  0
  146.2262  153.8044  133.3599 H   0  0  0  0  0  0  0  0  0  0  0  0
  149.2800  155.3290  131.9180 H   0  0  0  0  0  0  0  0  0  0  0  0
  149.8049  153.6913  133.8514 H   0  0  0  0  0  0  0  0  0  0  0  0
  148.0752  153.1793  133.6767 H   0  0  0  0  0  0  0  0  0  0  0  0
  149.2859  153.0717  131.0840 H   0  0  0  0  0  0  0  0  0  0  0  0
  150.3834  152.2367  132.2580 H   0  0  0  0  0  0  0  0  0  0  0  0
  146.3229  151.6814  133.3080 H   0  0  0  0  0  0  0  0  0  0  0  0
  146.4125  152.5879  131.7598 H   0  0  0  0  0  0  0  0  0  0  0  0
  145.9395  150.8550  131.7598 H   0  0  0  0  0  0  0  0  0  0  0  0
  148.1590  150.4090  134.0840 H   0  0  0  0  0  0  0  0  0  0  0  0
  148.3058  157.5537  132.5640 H   0  0  0  0  0  0  0  0  0  0  0  0
  1  2  2  0
  2  3  1  0
  3  4  1  0
  4  5  1  0
  5  6  2  0
  5  7  1  0
  7  8  1  0
  8  9  1  0
  9 10  1  0
  9 11  2  0
  8 12  2  0
 12 13  1  0
 13 14  2  0
 14 15  1  0
 15 16  2  0
 16 17  1  0
 17 18  1  0
 18 19  1  0
 19 20  1  0
 20 21  1  0
 20 22  1  1
 16 23  1  0
 23 24  2  0
 24  7  1  0
 24 13  1  0
  1 25  1  0
  1 26  1  0
  2 27  1  0
  3 28  1  0
  3 29  1  0
 10 30  1  0
 12 31  1  0
 14 32  1  0
 15 33  1  0
 17 34  1  0
 18 35  1  0
 18 36  1  0
 19 37  1  0
 19 38  1  0
 21 39  1  0
 21 40  1  0
 21 41  1  0
 22 42  1  0
 23 43  1  0
M  CHG  2  10  -1  20   1
M  END
>  <UniqueID>  (68) 
68

>  <SMILES>  (68) 
C=CCOC(=O)n1c(C([NH-])=O)cc2ccc(NCC[S@+](C)O)cc21

>  <Energy>  (68) 
68.85399788235493

>  <Genealogy>  (68) 
C=CCOC(=O)n1c(C([NH-])=O)cc2ccc(NCC[S+](C)O)cc21 (protonated)
C=CCOC(=O)n1c(C([NH-])=O)cc2ccc(NCC[S@+](C)O)cc21 (chirality)
C=CCOC(=O)n1c(C([NH-])=O)cc2ccc(NCC[S@+](C)O)cc21 (3D coordinates assigned)
C=CCOC(=O)n1c(C([NH-])=O)cc2ccc(NCC[S@+](C)O)cc21 (optimized conformer: 68.85399788235493 kcal/mol)

>  <smiles>  (68) 
C=CCOC(=O)n1c(C(N)=O)cc2ccc(NCC[S+](C)[O-])cc21

>  <score_type>  (68) 
oracle

>  <origin>  (68) 
adg

>  <m_score__min__energy>  (68) 
-7

>  <m_primary>  (68) 
energy

$$$$
69:0
     RDKit          3D

 40 42  0  0  0  0  0  0  0  0999 V2000
  147.7660  155.2350  133.5160 C   0  0  0  0  0  0  0  0  0  0  0  0
  146.7830  156.0810  134.0960 O   0  0  0  0  0  0  0  0  0  0  0  0
  145.7150  156.6110  133.3630 C   0  0  0  0  0  0  0  0  0  0  0  0
  145.0370  155.8670  132.6030 O   0  0  0  0  0  0  0  0  0  0  0  0
  145.4000  158.0080  133.4690 N   0  0  0  0  0  0  0  0  0  0  0  0
  146.2680  159.0480  133.6260 C   0  0  0  0  0  0  0  0  0  0  0  0
  147.7440  158.9510  133.5800 C   0  0  0  0  0  0  0  0  0  0  0  0
  148.4510  158.1260  134.5090 N   0  0  0  0  0  0  0  0  0  0  0  0
  148.3970  159.6210  132.7370 O   0  0  0  0  0  0  0  0  0  0  0  0
  145.5720  160.2490  133.7480 C   0  0  0  0  0  0  0  0  0  0  0  0
  144.2420  159.9100  133.6560 C   0  0  0  0  0  0  0  0  0  0  0  0
  143.1110  160.7120  133.7310 C   0  0  0  0  0  0  0  0  0  0  0  0
  141.8560  160.0920  133.6370 C   0  0  0  0  0  0  0  0  0  0  0  0
  141.7370  158.6820  133.4640 C   0  0  0  0  0  0  0  0  0  0  0  0
  140.3350  158.0500  133.4170 C   0  0  0  0  0  0  0  0  0  0  0  0
  139.6600  158.2690  134.7880 C   0  0  0  0  0  0  0  0  0  0  0  0
  140.3580  156.5330  133.1230 C   0  0  0  0  0  0  0  0  0  0  0  0
  139.5230  158.7000  132.3110 C   0  0  0  0  0  0  0  0  0  0  0  0
  140.0590  159.3230  131.2390 N   0  0  0  0  0  0  0  0  0  0  0  0
  139.0440  159.7830  130.5730 O   0  0  0  0  0  0  0  0  0  0  0  0
  137.9420  159.4720  131.2040 C   0  0  0  0  0  0  0  0  0  0  0  0
  136.7920  159.7860  130.8020 O   0  0  0  0  0  0  0  0  0  0  0  0
  138.1720  158.7820  132.3340 N   0  0  0  0  0  0  0  0  0  0  0  0
  142.9260  157.9040  133.4150 C   0  0  0  0  0  0  0  0  0  0  0  0
  144.1630  158.5530  133.4890 C   0  0  0  0  0  0  0  0  0  0  0  0
  148.3406  154.7405  134.3131 H   0  0  0  0  0  0  0  0  0  0  0  0
  147.2734  154.4740  132.8930 H   0  0  0  0  0  0  0  0  0  0  0  0
  148.4451  155.8355  132.8930 H   0  0  0  0  0  0  0  0  0  0  0  0
  149.4950  158.0950  134.4920 H   0  0  0  0  0  0  0  0  0  0  0  0
  147.9450  157.5130  135.1860 H   0  0  0  0  0  0  0  0  0  0  0  0
  145.9959  161.2543  133.8881 H   0  0  0  0  0  0  0  0  0  0  0  0
  143.1964  161.8010  133.8603 H   0  0  0  0  0  0  0  0  0  0  0  0
  140.9455  160.7062  133.6980 H   0  0  0  0  0  0  0  0  0  0  0  0
  140.3758  158.0368  135.5904 H   0  0  0  0  0  0  0  0  0  0  0  0
  139.3388  159.3174  134.8753 H   0  0  0  0  0  0  0  0  0  0  0  0
  138.7845  157.6088  134.8753 H   0  0  0  0  0  0  0  0  0  0  0  0
  140.3664  155.9758  134.0714 H   0  0  0  0  0  0  0  0  0  0  0  0
  139.4639  156.2581  132.5442 H   0  0  0  0  0  0  0  0  0  0  0  0
  141.2600  156.2853  132.5442 H   0  0  0  0  0  0  0  0  0  0  0  0
  142.8740  156.8093  133.3204 H   0  0  0  0  0  0  0  0  0  0  0  0
  1  2  1  0
  2  3  1  0
  3  4  2  0
  3  5  1  0
  5  6  1  0
  6  7  1  0
  7  8  1  0
  7  9  2  0
  6 10  2  0
 10 11  1  0
 11 12  2  0
 12 13  1  0
 13 14  2  0
 14 15  1  0
 15 16  1  0
 15 17  1  0
 15 18  1  0
 18 19  2  0
 19 20  1  0
 20 21  1  0
 21 22  2  0
 21 23  1  0
 14 24  1  0
 24 25  2  0
 25  5  1  0
 25 11  1  0
 23 18  1  0
  1 26  1  0
  1 27  1  0
  1 28  1  0
  8 29  1  0
  8 30  1  0
 10 31  1  0
 12 32  1  0
 13 33  1  0
 16 34  1  0
 16 35  1  0
 16 36  1  0
 17 37  1  0
 17 38  1  0
 17 39  1  0
 24 40  1  0
M  CHG  1  23  -1
M  END
>  <UniqueID>  (69) 
69

>  <SMILES>  (69) 
COC(=O)n1c(C(N)=O)cc2ccc(C(C)(C)c3noc(=O)[n-]3)cc21

>  <Energy>  (69) 
115.18446523658453

>  <Genealogy>  (69) 
COC(=O)n1c(C(N)=O)cc2ccc(C(C)(C)c3noc(=O)[n-]3)cc21 (protonated)
COC(=O)n1c(C(N)=O)cc2ccc(C(C)(C)c3noc(=O)[n-]3)cc21 (3D coordinates assigned)
COC(=O)n1c(C(N)=O)cc2ccc(C(C)(C)c3noc(=O)[n-]3)cc21 (optimized conformer: 115.18446523658453 kcal/mol)

>  <smiles>  (69) 
COC(=O)n1c(C(N)=O)cc2ccc(C(C)(C)c3noc(=O)[nH]3)cc21

>  <score_type>  (69) 
oracle

>  <origin>  (69) 
adg

>  <m_score__min__energy>  (69) 
-8.0099999999999998

>  <m_primary>  (69) 
energy

$$$$
70:0
     RDKit          3D

 30 31  0  0  0  0  0  0  0  0999 V2000
  149.3700  160.7340  130.3990 C   0  0  0  0  0  0  0  0  0  0  0  0
  149.9430  159.4510  130.6170 O   0  0  0  0  0  0  0  0  0  0  0  0
  149.7250  158.7190  131.7870 C   0  0  0  0  0  0  0  0  0  0  0  0
  150.0410  157.4990  131.8520 O   0  0  0  0  0  0  0  0  0  0  0  0
  149.1590  159.4040  132.9880 C   0  0  0  0  0  0  0  0  0  0  0  0
  147.7050  159.0550  133.1400 C   0  0  0  0  0  0  0  0  0  0  0  0
  147.2800  157.7100  133.0140 C   0  0  0  0  0  0  0  0  0  0  0  0
  145.9210  157.3740  133.1320 C   0  0  0  0  0  0  0  0  0  0  0  0
  145.0130  158.4050  133.3570 C   0  0  0  0  0  0  0  0  0  0  0  0
  143.6480  158.3580  133.5280 C   0  0  0  0  0  0  0  0  0  0  0  0
  143.2550  159.6800  133.7220 C   0  0  0  0  0  0  0  0  0  0  0  0
  141.8440  160.0970  133.8600 C   0  0  0  0  0  0  0  0  0  0  0  0
  141.0020  160.1410  132.7100 N   0  0  0  0  0  0  0  0  0  0  0  0
  141.3810  160.4520  134.9750 O   0  0  0  0  0  0  0  0  0  0  0  0
  144.3340  160.5120  133.6800 N   0  0  0  0  0  0  0  0  0  0  0  0
  144.3600  161.9320  133.9050 C   0  0  0  0  0  0  0  0  0  0  0  0
  143.5130  162.6800  133.3480 O   0  0  0  0  0  0  0  0  0  0  0  0
  145.3350  162.4970  134.7160 O   0  0  0  0  0  0  0  0  0  0  0  0
  145.4030  159.7150  133.4530 C   0  0  0  0  0  0  0  0  0  0  0  0
  146.7530  160.0760  133.3580 C   0  0  0  0  0  0  0  0  0  0  0  0
  149.1574  161.2100  131.3676 H   0  0  0  0  0  0  0  0  0  0  0  0
  150.0747  161.3585  129.8304 H   0  0  0  0  0  0  0  0  0  0  0  0
  148.4346  160.6260  129.8304 H   0  0  0  0  0  0  0  0  0  0  0  0
  149.7073  159.0797  133.8848 H   0  0  0  0  0  0  0  0  0  0  0  0
  149.2585  160.4924  132.8638 H   0  0  0  0  0  0  0  0  0  0  0  0
  148.0214  156.9204  132.8218 H   0  0  0  0  0  0  0  0  0  0  0  0
  145.5852  156.3298  133.0493 H   0  0  0  0  0  0  0  0  0  0  0  0
  143.0044  157.4660  133.5143 H   0  0  0  0  0  0  0  0  0  0  0  0
  141.3100  159.7220  131.8030 H   0  0  0  0  0  0  0  0  0  0  0  0
  147.0640  161.1271  133.4507 H   0  0  0  0  0  0  0  0  0  0  0  0
  1  2  1  0
  2  3  1  0
  3  4  2  0
  3  5  1  0
  5  6  1  0
  6  7  2  0
  7  8  1  0
  8  9  2  0
  9 10  1  0
 10 11  2  0
 11 12  1  0
 12 13  1  0
 12 14  2  0
 11 15  1  0
 15 16  1  0
 16 17  2  0
 16 18  1  0
 15 19  1  0
 19 20  2  0
 20  6  1  0
 19  9  1  0
  1 21  1  0
  1 22  1  0
  1 23  1  0
  5 24  1  0
  5 25  1  0
  7 26  1  0
  8 27  1  0
 10 28  1  0
 13 29  1  0
 20 30  1  0
M  CHG  2  13  -1  18  -1
M  END
>  <UniqueID>  (70) 
70

>  <SMILES>  (70) 
COC(=O)Cc1ccc2cc(C([NH-])=O)n(C(=O)[O-])c2c1

>  <Energy>  (70) 
65.58056662629676

>  <Genealogy>  (70) 
COC(=O)Cc1ccc2cc(C([NH-])=O)n(C(=O)[O-])c2c1 (protonated)
COC(=O)Cc1ccc2cc(C([NH-])=O)n(C(=O)[O-])c2c1 (3D coordinates assigned)
COC(=O)Cc1ccc2cc(C([NH-])=O)n(C(=O)[O-])c2c1 (optimized conformer: 65.58056662629676 kcal/mol)

>  <smiles>  (70) 
COC(=O)Cc1ccc2cc(C(N)=O)n(C(=O)O)c2c1

>  <score_type>  (70) 
oracle

>  <origin>  (70) 
adg

>  <m_score__min__energy>  (70) 
-6.3600000000000003

>  <m_primary>  (70) 
energy

$$$$
71:0
     RDKit          3D

 40 42  0  0  0  0  0  0  0  0999 V2000
  138.7350  159.1090  130.7810 C   0  0  0  0  0  0  0  0  0  0  0  0
  139.6640  159.3280  131.9320 C   0  0  0  0  0  0  0  0  0  0  0  0
  139.8760  160.5080  132.3160 O   0  0  0  0  0  0  0  0  0  0  0  0
  140.3730  158.2270  132.6160 C   0  0  0  0  0  0  0  0  0  0  0  0
  139.8740  157.0140  132.6920 O   0  0  0  0  0  0  0  0  0  0  0  0
  140.7440  156.2950  133.3580 C   0  0  0  0  0  0  0  0  0  0  0  0
  140.5870  155.0740  133.6210 O   0  0  0  0  0  0  0  0  0  0  0  0
  141.8000  156.9850  133.7130 O   0  0  0  0  0  0  0  0  0  0  0  0
  141.6110  158.2050  133.2650 C   0  0  0  0  0  0  0  0  0  0  0  0
  142.6510  159.2790  133.4030 C   0  0  0  0  0  0  0  0  0  0  0  0
  143.8830  158.8380  132.8370 O   0  0  0  0  0  0  0  0  0  0  0  0
  145.1210  159.4030  133.1600 C   0  0  0  0  0  0  0  0  0  0  0  0
  145.1900  160.5890  133.5850 O   0  0  0  0  0  0  0  0  0  0  0  0
  146.3190  158.6240  133.0170 N   0  0  0  0  0  0  0  0  0  0  0  0
  146.5230  157.3320  133.4070 C   0  0  0  0  0  0  0  0  0  0  0  0
  145.5760  156.5140  134.1980 C   0  0  0  0  0  0  0  0  0  0  0  0
  144.2110  156.3880  133.7960 N   0  0  0  0  0  0  0  0  0  0  0  0
  145.9740  155.8950  135.2200 O   0  0  0  0  0  0  0  0  0  0  0  0
  147.8010  156.9090  133.0420 C   0  0  0  0  0  0  0  0  0  0  0  0
  148.3770  157.9890  132.4140 C   0  0  0  0  0  0  0  0  0  0  0  0
  149.6430  158.1260  131.8500 C   0  0  0  0  0  0  0  0  0  0  0  0
  149.9660  159.3540  131.2490 C   0  0  0  0  0  0  0  0  0  0  0  0
  149.0200  160.4070  131.2060 C   0  0  0  0  0  0  0  0  0  0  0  0
  149.3890  161.7230  130.5860 C   0  0  0  0  0  0  0  0  0  0  0  0
  147.7520  160.2400  131.8040 C   0  0  0  0  0  0  0  0  0  0  0  0
  147.4630  159.0110  132.4110 C   0  0  0  0  0  0  0  0  0  0  0  0
  137.7302  158.8721  131.1608 H   0  0  0  0  0  0  0  0  0  0  0  0
  138.6896  160.0211  130.1678 H   0  0  0  0  0  0  0  0  0  0  0  0
  139.1018  158.2727  130.1678 H   0  0  0  0  0  0  0  0  0  0  0  0
  142.3120  160.1844  132.8782 H   0  0  0  0  0  0  0  0  0  0  0  0
  142.8020  159.5016  134.4696 H   0  0  0  0  0  0  0  0  0  0  0  0
  143.8290  156.9280  132.9900 H   0  0  0  0  0  0  0  0  0  0  0  0
  143.5600  155.7780  134.3400 H   0  0  0  0  0  0  0  0  0  0  0  0
  148.2524  155.9216  133.2188 H   0  0  0  0  0  0  0  0  0  0  0  0
  150.3674  157.2985  131.8744 H   0  0  0  0  0  0  0  0  0  0  0  0
  150.9631  159.4990  130.8076 H   0  0  0  0  0  0  0  0  0  0  0  0
  149.5948  162.4570  131.3790 H   0  0  0  0  0  0  0  0  0  0  0  0
  150.2861  161.5958  129.9623 H   0  0  0  0  0  0  0  0  0  0  0  0
  148.5565  162.0808  129.9623 H   0  0  0  0  0  0  0  0  0  0  0  0
  147.0111  161.0530  131.7936 H   0  0  0  0  0  0  0  0  0  0  0  0
  1  2  1  0
  2  3  2  0
  2  4  1  0
  4  5  1  0
  5  6  1  0
  6  7  2  0
  6  8  1  0
  8  9  1  0
  9 10  1  0
 10 11  1  0
 11 12  1  0
 12 13  2  0
 12 14  1  0
 14 15  1  0
 15 16  1  0
 16 17  1  0
 16 18  2  0
 15 19  2  0
 19 20  1  0
 20 21  2  0
 21 22  1  0
 22 23  2  0
 23 24  1  0
 23 25  1  0
 25 26  2  0
  9  4  2  0
 26 14  1  0
 26 20  1  0
  1 27  1  0
  1 28  1  0
  1 29  1  0
 10 30  1  0
 10 31  1  0
 17 32  1  0
 17 33  1  0
 19 34  1  0
 21 35  1  0
 22 36  1  0
 24 37  1  0
 24 38  1  0
 24 39  1  0
 25 40  1  0
M  END
>  <UniqueID>  (71) 
71

>  <SMILES>  (71) 
CC(=O)c1oc(=O)oc1COC(=O)n1c(C(N)=O)cc2ccc(C)cc21

>  <Energy>  (71) 
113.26958476231779

>  <Genealogy>  (71) 
CC(=O)c1oc(=O)oc1COC(=O)n1c(C(N)=O)cc2ccc(C)cc21 (3D coordinates assigned)
CC(=O)c1oc(=O)oc1COC(=O)n1c(C(N)=O)cc2ccc(C)cc21 (optimized conformer: 113.26958476231779 kcal/mol)

>  <smiles>  (71) 
CC(=O)c1oc(=O)oc1COC(=O)n1c(C(N)=O)cc2ccc(C)cc21

>  <score_type>  (71) 
oracle

>  <origin>  (71) 
adg

>  <m_score__min__energy>  (71) 
-7.2199999999999998

>  <m_primary>  (71) 
energy

$$$$
72:0
     RDKit          3D

 39 40  0  0  0  0  0  0  0  0999 V2000
  150.4430  150.3500  131.0690 C   0  0  0  0  0  0  0  0  0  0  0  0
  149.4550  151.1290  131.5190 C   0  0  0  0  0  0  0  0  0  0  0  0
  149.7030  152.1850  132.5590 C   0  0  0  0  0  0  0  0  0  0  0  0
  148.6640  153.1620  132.5400 O   0  0  0  0  0  0  0  0  0  0  0  0
  148.9060  154.5400  132.5880 C   0  0  0  0  0  0  0  0  0  0  0  0
  150.0280  155.0030  132.2420 O   0  0  0  0  0  0  0  0  0  0  0  0
  147.8690  155.4310  133.0290 N   0  0  0  0  0  0  0  0  0  0  0  0
  146.6680  155.0980  133.5800 C   0  0  0  0  0  0  0  0  0  0  0  0
  146.2480  153.7400  133.9820 C   0  0  0  0  0  0  0  0  0  0  0  0
  146.2030  152.6690  133.0390 N   0  0  0  0  0  0  0  0  0  0  0  0
  145.9790  153.5100  135.1920 O   0  0  0  0  0  0  0  0  0  0  0  0
  145.8870  156.2330  133.7810 C   0  0  0  0  0  0  0  0  0  0  0  0
  146.6600  157.2860  133.3470 C   0  0  0  0  0  0  0  0  0  0  0  0
  146.3790  158.6490  133.3180 C   0  0  0  0  0  0  0  0  0  0  0  0
  147.3540  159.5120  132.7920 C   0  0  0  0  0  0  0  0  0  0  0  0
  148.5770  158.9980  132.2880 C   0  0  0  0  0  0  0  0  0  0  0  0
  149.6210  159.9330  131.7450 C   0  0  0  0  0  0  0  0  0  0  0  0
  149.5100  160.0140  130.2570 C   0  0  0  0  0  0  0  0  0  0  0  0
  149.0470  159.0340  129.6090 O   0  0  0  0  0  0  0  0  0  0  0  0
  149.9690  161.1560  129.5930 O   0  0  0  0  0  0  0  0  0  0  0  0
  149.5860  162.4700  129.9790 C   0  0  0  0  0  0  0  0  0  0  0  0
  148.8310  157.6100  132.3440 C   0  0  0  0  0  0  0  0  0  0  0  0
  147.8500  156.7760  132.8950 C   0  0  0  0  0  0  0  0  0  0  0  0
  150.2359  149.5840  130.3072 H   0  0  0  0  0  0  0  0  0  0  0  0
  151.4634  150.4747  131.4603 H   0  0  0  0  0  0  0  0  0  0  0  0
  148.4389  150.9945  131.1198 H   0  0  0  0  0  0  0  0  0  0  0  0
  149.7376  151.7133  133.5521 H   0  0  0  0  0  0  0  0  0  0  0  0
  150.6601  152.6808  132.3398 H   0  0  0  0  0  0  0  0  0  0  0  0
  145.8730  151.7230  133.3370 H   0  0  0  0  0  0  0  0  0  0  0  0
  146.5840  152.7810  132.0750 H   0  0  0  0  0  0  0  0  0  0  0  0
  144.8699  156.2785  134.1975 H   0  0  0  0  0  0  0  0  0  0  0  0
  145.4221  159.0384  133.6957 H   0  0  0  0  0  0  0  0  0  0  0  0
  147.1681  160.5960  132.7705 H   0  0  0  0  0  0  0  0  0  0  0  0
  149.4733  160.9340  132.1764 H   0  0  0  0  0  0  0  0  0  0  0  0
  150.6187  159.5550  132.0127 H   0  0  0  0  0  0  0  0  0  0  0  0
  149.5660  162.5385  131.0767 H   0  0  0  0  0  0  0  0  0  0  0  0
  150.3101  163.1953  129.5795 H   0  0  0  0  0  0  0  0  0  0  0  0
  148.5856  162.6926  129.5795 H   0  0  0  0  0  0  0  0  0  0  0  0
  149.7759  157.1942  131.9643 H   0  0  0  0  0  0  0  0  0  0  0  0
  1  2  2  0
  2  3  1  0
  3  4  1  0
  4  5  1  0
  5  6  2  0
  5  7  1  0
  7  8  1  0
  8  9  1  0
  9 10  1  0
  9 11  2  0
  8 12  2  0
 12 13  1  0
 13 14  2  0
 14 15  1  0
 15 16  2  0
 16 17  1  0
 17 18  1  0
 18 19  2  0
 18 20  1  0
 20 21  1  0
 16 22  1  0
 22 23  2  0
 23  7  1  0
 23 13  1  0
  1 24  1  0
  1 25  1  0
  2 26  1  0
  3 27  1  0
  3 28  1  0
 10 29  1  0
 10 30  1  0
 12 31  1  0
 14 32  1  0
 15 33  1  0
 17 34  1  0
 17 35  1  0
 21 36  1  0
 21 37  1  0
 21 38  1  0
 22 39  1  0
M  END
>  <UniqueID>  (72) 
72

>  <SMILES>  (72) 
C=CCOC(=O)n1c(C(N)=O)cc2ccc(CC(=O)OC)cc21

>  <Energy>  (72) 
69.5895229182552

>  <Genealogy>  (72) 
C=CCOC(=O)n1c(C(N)=O)cc2ccc(CC(=O)OC)cc21 (3D coordinates assigned)
C=CCOC(=O)n1c(C(N)=O)cc2ccc(CC(=O)OC)cc21 (optimized conformer: 69.5895229182552 kcal/mol)

>  <smiles>  (72) 
C=CCOC(=O)n1c(C(N)=O)cc2ccc(CC(=O)OC)cc21

>  <score_type>  (72) 
oracle

>  <origin>  (72) 
adg

>  <m_score__min__energy>  (72) 
-7.0099999999999998

>  <m_primary>  (72) 
energy

$$$$
73:0
     RDKit          3D

 41 43  0  0  0  0  0  0  0  0999 V2000
  143.0200  155.4410  133.6390 C   0  0  0  0  0  0  0  0  0  0  0  0
  142.7770  154.0530  133.6060 O   0  0  0  0  0  0  0  0  0  0  0  0
  143.4300  153.4970  132.4830 C   0  0  2  0  0  0  0  0  0  0  0  0
  144.6170  152.6450  132.9030 C   0  0  0  0  0  0  0  0  0  0  0  0
  145.5910  153.5750  132.3080 N   0  0  2  0  0  0  0  0  0  0  0  0
  146.4870  154.2350  133.2830 C   0  0  0  0  0  0  0  0  0  0  0  0
  147.6790  154.9240  132.5950 C   0  0  0  0  0  0  0  0  0  0  0  0
  147.6570  156.4180  132.7800 C   0  0  0  0  0  0  0  0  0  0  0  0
  148.8540  157.1680  132.6640 C   0  0  0  0  0  0  0  0  0  0  0  0
  148.8490  158.5580  132.8650 C   0  0  0  0  0  0  0  0  0  0  0  0
  147.6400  159.1660  133.1890 C   0  0  0  0  0  0  0  0  0  0  0  0
  147.3490  160.4910  133.4180 C   0  0  0  0  0  0  0  0  0  0  0  0
  145.9850  160.5270  133.6980 C   0  0  0  0  0  0  0  0  0  0  0  0
  145.2700  161.7590  134.0930 C   0  0  0  0  0  0  0  0  0  0  0  0
  145.9360  162.7920  134.8140 N   0  0  0  0  0  0  0  0  0  0  0  0
  144.0700  161.9230  133.7440 O   0  0  0  0  0  0  0  0  0  0  0  0
  145.4490  159.2750  133.6350 N   0  0  0  0  0  0  0  0  0  0  0  0
  144.0680  158.9030  133.7680 C   0  0  0  0  0  0  0  0  0  0  0  0
  143.4400  159.1580  134.8300 O   0  0  0  0  0  0  0  0  0  0  0  0
  143.4200  158.2330  132.7390 O   0  0  0  0  0  0  0  0  0  0  0  0
  146.4770  158.4520  133.3250 C   0  0  0  0  0  0  0  0  0  0  0  0
  146.4490  157.0690  133.1110 C   0  0  0  0  0  0  0  0  0  0  0  0
  144.4740  154.4330  131.8890 C   0  0  0  0  0  0  0  0  0  0  0  0
  143.0790  155.7781  134.6844 H   0  0  0  0  0  0  0  0  0  0  0  0
  143.9700  155.6591  133.1292 H   0  0  0  0  0  0  0  0  0  0  0  0
  142.2006  155.9689  133.1292 H   0  0  0  0  0  0  0  0  0  0  0  0
  142.5758  153.1162  131.9038 H   0  0  0  0  0  0  0  0  0  0  0  0
  144.7187  152.5436  133.9936 H   0  0  0  0  0  0  0  0  0  0  0  0
  144.6428  151.5868  132.6038 H   0  0  0  0  0  0  0  0  0  0  0  0
  146.0910  153.1630  131.4840 H   0  0  0  0  0  0  0  0  0  0  0  0
  145.9123  154.9906  133.8388 H   0  0  0  0  0  0  0  0  0  0  0  0
  146.8840  153.4620  133.9575 H   0  0  0  0  0  0  0  0  0  0  0  0
  148.6120  154.5279  133.0224 H   0  0  0  0  0  0  0  0  0  0  0  0
  147.6125  154.7164  131.5168 H   0  0  0  0  0  0  0  0  0  0  0  0
  149.7954  156.6568  132.4143 H   0  0  0  0  0  0  0  0  0  0  0  0
  149.7725  159.1479  132.7693 H   0  0  0  0  0  0  0  0  0  0  0  0
  148.0458  161.3416  133.3866 H   0  0  0  0  0  0  0  0  0  0  0  0
  146.9790  162.8500  134.8300 H   0  0  0  0  0  0  0  0  0  0  0  0
  145.5094  156.5037  133.1985 H   0  0  0  0  0  0  0  0  0  0  0  0
  144.4868  155.4280  132.3579 H   0  0  0  0  0  0  0  0  0  0  0  0
  144.3910  154.7159  130.8292 H   0  0  0  0  0  0  0  0  0  0  0  0
  1  2  1  0
  2  3  1  0
  3  4  1  0
  4  5  1  0
  5  6  1  0
  6  7  1  0
  7  8  1  0
  8  9  2  0
  9 10  1  0
 10 11  2  0
 11 12  1  0
 12 13  2  0
 13 14  1  0
 14 15  1  0
 14 16  2  0
 13 17  1  0
 17 18  1  0
 18 19  2  0
 18 20  1  0
 17 21  1  0
 21 22  2  0
  5 23  1  0
 23  3  1  0
 22  8  1  0
 21 11  1  0
  1 24  1  0
  1 25  1  0
  1 26  1  0
  3 27  1  6
  4 28  1  0
  4 29  1  0
  5 30  1  6
  6 31  1  0
  6 32  1  0
  7 33  1  0
  7 34  1  0
  9 35  1  0
 10 36  1  0
 12 37  1  0
 15 38  1  0
 22 39  1  0
 23 40  1  0
 23 41  1  0
M  CHG  3   5   1  15  -1  20  -1
M  END
>  <UniqueID>  (73) 
73

>  <SMILES>  (73) 
COC1C[NH+](CCc2ccc3cc(C([NH-])=O)n(C(=O)[O-])c3c2)C1

>  <Energy>  (73) 
152.51526881794865

>  <Genealogy>  (73) 
COC1C[NH+](CCc2ccc3cc(C([NH-])=O)n(C(=O)[O-])c3c2)C1 (protonated)
COC1C[NH+](CCc2ccc3cc(C([NH-])=O)n(C(=O)[O-])c3c2)C1 (3D coordinates assigned)
COC1C[NH+](CCc2ccc3cc(C([NH-])=O)n(C(=O)[O-])c3c2)C1 (nonaromatic ring conformer: 152.51526881794865 kcal/mol)

>  <smiles>  (73) 
COC1CN(CCc2ccc3cc(C(N)=O)n(C(=O)O)c3c2)C1

>  <score_type>  (73) 
oracle

>  <origin>  (73) 
adg

>  <m_score__min__energy>  (73) 
-6.8600000000000003

>  <m_primary>  (73) 
energy

$$$$
74:0
     RDKit          3D

 37 38  0  0  0  0  0  0  0  0999 V2000
  149.3410  162.5020  130.2410 C   0  0  0  0  0  0  0  0  0  0  0  0
  148.9390  161.1030  130.5800 C   0  0  0  0  0  0  0  0  0  0  0  0
  147.7490  160.7370  130.3800 O   0  0  0  0  0  0  0  0  0  0  0  0
  149.8860  160.2000  131.1670 N   0  0  0  0  0  0  0  0  0  0  0  0
  149.5910  158.7910  131.4250 C   0  0  0  0  0  0  0  0  0  0  0  0
  149.2290  158.5350  132.8980 C   0  0  0  0  0  0  0  0  0  0  0  0
  148.1190  159.4600  133.4310 C   0  0  0  0  0  0  0  0  0  0  0  0
  146.7610  158.8050  133.3950 C   0  0  0  0  0  0  0  0  0  0  0  0
  146.6570  157.3940  133.2980 C   0  0  0  0  0  0  0  0  0  0  0  0
  145.4020  156.7650  133.3050 C   0  0  0  0  0  0  0  0  0  0  0  0
  144.2720  157.5690  133.4160 C   0  0  0  0  0  0  0  0  0  0  0  0
  142.9400  157.2230  133.4490 C   0  0  0  0  0  0  0  0  0  0  0  0
  142.2490  158.4250  133.5810 C   0  0  0  0  0  0  0  0  0  0  0  0
  140.7820  158.5040  133.7490 C   0  0  0  0  0  0  0  0  0  0  0  0
  140.2340  159.0500  134.9470 N   0  0  0  0  0  0  0  0  0  0  0  0
  140.0060  158.1280  132.8330 O   0  0  0  0  0  0  0  0  0  0  0  0
  143.1180  159.4750  133.6200 N   0  0  0  0  0  0  0  0  0  0  0  0
  142.8090  160.8770  133.7070 C   0  0  0  0  0  0  0  0  0  0  0  0
  143.7340  161.7310  133.7310 O   0  0  0  0  0  0  0  0  0  0  0  0
  141.4890  161.3000  133.7900 O   0  0  0  0  0  0  0  0  0  0  0  0
  144.3530  158.9330  133.5180 C   0  0  0  0  0  0  0  0  0  0  0  0
  145.5900  159.5890  133.4890 C   0  0  0  0  0  0  0  0  0  0  0  0
  149.5046  163.0713  131.1679 H   0  0  0  0  0  0  0  0  0  0  0  0
  150.2704  162.4841  129.6528 H   0  0  0  0  0  0  0  0  0  0  0  0
  148.5439  162.9802  129.6528 H   0  0  0  0  0  0  0  0  0  0  0  0
  150.8180  160.5710  131.4630 H   0  0  0  0  0  0  0  0  0  0  0  0
  148.7441  158.4847  130.7934 H   0  0  0  0  0  0  0  0  0  0  0  0
  150.4944  158.2081  131.1923 H   0  0  0  0  0  0  0  0  0  0  0  0
  148.8903  157.4931  132.9966 H   0  0  0  0  0  0  0  0  0  0  0  0
  150.1319  158.7400  133.4919 H   0  0  0  0  0  0  0  0  0  0  0  0
  148.3535  159.7309  134.4710 H   0  0  0  0  0  0  0  0  0  0  0  0
  148.0813  160.3481  132.7830 H   0  0  0  0  0  0  0  0  0  0  0  0
  147.5698  156.7857  133.2164 H   0  0  0  0  0  0  0  0  0  0  0  0
  145.3148  155.6714  133.2252 H   0  0  0  0  0  0  0  0  0  0  0  0
  142.5121  156.2117  133.3848 H   0  0  0  0  0  0  0  0  0  0  0  0
  140.3750  160.0540  135.1940 H   0  0  0  0  0  0  0  0  0  0  0  0
  145.6481  160.6864  133.5381 H   0  0  0  0  0  0  0  0  0  0  0  0
  1  2  1  0
  2  3  2  0
  2  4  1  0
  4  5  1  0
  5  6  1  0
  6  7  1  0
  7  8  1  0
  8  9  2  0
  9 10  1  0
 10 11  2  0
 11 12  1  0
 12 13  2  0
 13 14  1  0
 14 15  1  0
 14 16  2  0
 13 17  1  0
 17 18  1  0
 18 19  2  0
 18 20  1  0
 17 21  1  0
 21 22  2  0
 22  8  1  0
 21 11  1  0
  1 23  1  0
  1 24  1  0
  1 25  1  0
  4 26  1  0
  5 27  1  0
  5 28  1  0
  6 29  1  0
  6 30  1  0
  7 31  1  0
  7 32  1  0
  9 33  1  0
 10 34  1  0
 12 35  1  0
 15 36  1  0
 22 37  1  0
M  CHG  2  15  -1  20  -1
M  END
>  <UniqueID>  (74) 
74

>  <SMILES>  (74) 
CC(=O)NCCCc1ccc2cc(C([NH-])=O)n(C(=O)[O-])c2c1

>  <Energy>  (74) 
66.51757014491581

>  <Genealogy>  (74) 
CC(=O)NCCCc1ccc2cc(C([NH-])=O)n(C(=O)[O-])c2c1 (protonated)
CC(=O)NCCCc1ccc2cc(C([NH-])=O)n(C(=O)[O-])c2c1 (3D coordinates assigned)
CC(=O)NCCCc1ccc2cc(C([NH-])=O)n(C(=O)[O-])c2c1 (optimized conformer: 66.51757014491581 kcal/mol)

>  <smiles>  (74) 
CC(=O)NCCCc1ccc2cc(C(N)=O)n(C(=O)O)c2c1

>  <score_type>  (74) 
oracle

>  <origin>  (74) 
adg

>  <m_score__min__energy>  (74) 
-7.1399999999999997

>  <m_primary>  (74) 
energy

$$$$
75:0
     RDKit          3D

 35 36  0  0  0  0  0  0  0  0999 V2000
  150.1010  160.2770  131.6510 N   0  0  0  0  0  0  0  0  0  0  0  0
  149.4200  159.1230  132.1370 C   0  0  0  0  0  0  0  0  0  0  0  0
  150.0160  158.0130  132.1480 O   0  0  0  0  0  0  0  0  0  0  0  0
  148.0490  159.2220  132.6810 C   0  0  0  0  0  0  0  0  0  0  0  0
  147.4160  160.4360  132.9390 C   0  0  0  0  0  0  0  0  0  0  0  0
  146.1430  160.1050  133.3400 C   0  0  0  0  0  0  0  0  0  0  0  0
  145.0850  160.9230  133.7250 C   0  0  0  0  0  0  0  0  0  0  0  0
  143.8870  160.3080  134.1200 C   0  0  0  0  0  0  0  0  0  0  0  0
  143.7730  158.8940  134.1440 C   0  0  0  0  0  0  0  0  0  0  0  0
  142.4870  158.2470  134.5850 C   0  0  0  0  0  0  0  0  0  0  0  0
  141.2850  158.9060  133.9610 C   0  0  0  0  0  0  0  0  0  0  0  0
  140.9080  160.0240  134.4040 O   0  0  0  0  0  0  0  0  0  0  0  0
  140.5680  158.3240  132.8650 N   0  0  0  0  0  0  0  0  0  0  0  0
  139.1540  158.5140  132.5600 C   0  0  0  0  0  0  0  0  0  0  0  0
  138.9590  158.6690  131.0510 C   0  0  0  0  0  0  0  0  0  0  0  0
  138.1960  159.9180  130.7440 C   0  0  0  0  0  0  0  0  0  0  0  0
  136.9950  160.0300  131.1020 O   0  0  0  0  0  0  0  0  0  0  0  0
  138.8250  160.9760  130.1020 O   0  0  0  0  0  0  0  0  0  0  0  0
  144.8640  158.0970  133.7290 C   0  0  0  0  0  0  0  0  0  0  0  0
  146.0400  158.7380  133.3210 C   0  0  0  0  0  0  0  0  0  0  0  0
  147.2050  158.1800  132.9200 N   0  0  0  0  0  0  0  0  0  0  0  0
  147.5030  156.7770  132.8620 C   0  0  0  0  0  0  0  0  0  0  0  0
  146.8540  156.0180  132.0930 O   0  0  0  0  0  0  0  0  0  0  0  0
  148.4920  156.2350  133.6750 O   0  0  0  0  0  0  0  0  0  0  0  0
  151.0030  160.1890  131.1330 H   0  0  0  0  0  0  0  0  0  0  0  0
  147.8437  161.4449  132.8424 H   0  0  0  0  0  0  0  0  0  0  0  0
  145.1848  162.0185  133.7199 H   0  0  0  0  0  0  0  0  0  0  0  0
  143.0276  160.9285  134.4140 H   0  0  0  0  0  0  0  0  0  0  0  0
  142.5035  157.1868  134.2923 H   0  0  0  0  0  0  0  0  0  0  0  0
  142.4073  158.3553  135.6768 H   0  0  0  0  0  0  0  0  0  0  0  0
  138.5851  157.6412  132.9128 H   0  0  0  0  0  0  0  0  0  0  0  0
  138.7954  159.4230  133.0650 H   0  0  0  0  0  0  0  0  0  0  0  0
  139.9434  158.7175  130.5624 H   0  0  0  0  0  0  0  0  0  0  0  0
  138.3903  157.8051  130.6765 H   0  0  0  0  0  0  0  0  0  0  0  0
  144.7909  156.9994  133.7266 H   0  0  0  0  0  0  0  0  0  0  0  0
  1  2  1  0
  2  3  2  0
  2  4  1  0
  4  5  2  0
  5  6  1  0
  6  7  2  0
  7  8  1  0
  8  9  2  0
  9 10  1  0
 10 11  1  0
 11 12  2  0
 11 13  1  0
 13 14  1  0
 14 15  1  0
 15 16  1  0
 16 17  2  0
 16 18  1  0
  9 19  1  0
 19 20  2  0
 20 21  1  0
 21 22  1  0
 22 23  2  0
 22 24  1  0
 21  4  1  0
 20  6  1  0
  1 25  1  0
  5 26  1  0
  7 27  1  0
  8 28  1  0
 10 29  1  0
 10 30  1  0
 14 31  1  0
 14 32  1  0
 15 33  1  0
 15 34  1  0
 19 35  1  0
M  CHG  4   1  -1  13  -1  18  -1  24  -1
M  END
>  <UniqueID>  (75) 
75

>  <SMILES>  (75) 
[NH-]C(=O)c1cc2ccc(CC(=O)[N-]CCC(=O)[O-])cc2n1C(=O)[O-]

>  <Energy>  (75) 
68.64639915831751

>  <Genealogy>  (75) 
[NH-]C(=O)c1cc2ccc(CC(=O)[N-]CCC(=O)[O-])cc2n1C(=O)[O-] (protonated)
[NH-]C(=O)c1cc2ccc(CC(=O)[N-]CCC(=O)[O-])cc2n1C(=O)[O-] (3D coordinates assigned)
[NH-]C(=O)c1cc2ccc(CC(=O)[N-]CCC(=O)[O-])cc2n1C(=O)[O-] (optimized conformer: 68.64639915831751 kcal/mol)

>  <smiles>  (75) 
NC(=O)c1cc2ccc(CC(=O)NCCC(=O)O)cc2n1C(=O)O

>  <score_type>  (75) 
oracle

>  <origin>  (75) 
adg

>  <m_score__min__energy>  (75) 
-6.71

>  <m_primary>  (75) 
energy

$$$$
76:0
     RDKit          3D

 34 36  0  0  0  0  0  0  0  0999 V2000
  143.0240  160.6560  133.3660 N   0  0  0  0  0  0  0  0  0  0  0  0
  144.3780  160.7490  133.7980 C   0  0  0  0  0  0  0  0  0  0  0  0
  144.7420  161.7440  134.4820 O   0  0  0  0  0  0  0  0  0  0  0  0
  145.3460  159.6740  133.5000 C   0  0  0  0  0  0  0  0  0  0  0  0
  146.7100  159.8930  133.3170 C   0  0  0  0  0  0  0  0  0  0  0  0
  147.2610  158.6410  133.1630 C   0  0  0  0  0  0  0  0  0  0  0  0
  148.5790  158.2660  132.9400 C   0  0  0  0  0  0  0  0  0  0  0  0
  148.8620  156.8990  132.7940 C   0  0  0  0  0  0  0  0  0  0  0  0
  147.8310  155.9120  132.8690 C   0  0  0  0  0  0  0  0  0  0  0  0
  148.1350  154.4910  132.7100 N   0  0  0  0  0  0  0  0  0  0  0  0
  147.0580  153.4960  132.8980 C   0  0  0  0  0  0  0  0  0  0  0  0
  147.5000  152.0550  132.6220 C   0  0  0  0  0  0  0  0  0  0  0  0
  148.8100  151.8310  133.0870 O   0  0  0  0  0  0  0  0  0  0  0  0
  149.6980  152.5640  132.2790 C   0  0  0  0  0  0  0  0  0  0  0  0
  149.5380  154.0680  132.5120 C   0  0  0  0  0  0  0  0  0  0  0  0
  146.4970  156.3560  133.0930 C   0  0  0  0  0  0  0  0  0  0  0  0
  146.2520  157.7240  133.2480 C   0  0  0  0  0  0  0  0  0  0  0  0
  145.0680  158.3420  133.4500 N   0  0  0  0  0  0  0  0  0  0  0  0
  143.7830  157.7050  133.4980 C   0  0  0  0  0  0  0  0  0  0  0  0
  142.9250  157.9470  132.6100 O   0  0  0  0  0  0  0  0  0  0  0  0
  143.3510  156.6200  134.8740 S   0  0  0  0  0  0  0  0  0  0  0  0
  142.7660  160.0930  132.5250 H   0  0  0  0  0  0  0  0  0  0  0  0
  147.2344  160.8598  133.2994 H   0  0  0  0  0  0  0  0  0  0  0  0
  149.3788  159.0188  132.8795 H   0  0  0  0  0  0  0  0  0  0  0  0
  149.9000  156.5803  132.6180 H   0  0  0  0  0  0  0  0  0  0  0  0
  146.7044  153.5583  133.9378 H   0  0  0  0  0  0  0  0  0  0  0  0
  146.2668  153.7356  132.1723 H   0  0  0  0  0  0  0  0  0  0  0  0
  146.8137  151.3640  133.1335 H   0  0  0  0  0  0  0  0  0  0  0  0
  147.4799  151.8844  131.5355 H   0  0  0  0  0  0  0  0  0  0  0  0
  150.7301  152.2704  132.5209 H   0  0  0  0  0  0  0  0  0  0  0  0
  149.4724  152.3470  131.2245 H   0  0  0  0  0  0  0  0  0  0  0  0
  150.1141  154.3443  133.4074 H   0  0  0  0  0  0  0  0  0  0  0  0
  149.9028  154.5750  131.6065 H   0  0  0  0  0  0  0  0  0  0  0  0
  145.6699  155.6325  133.1435 H   0  0  0  0  0  0  0  0  0  0  0  0
  1  2  1  0
  2  3  2  0
  2  4  1  0
  4  5  2  0
  5  6  1  0
  6  7  2  0
  7  8  1  0
  8  9  2  0
  9 10  1  0
 10 11  1  0
 11 12  1  0
 12 13  1  0
 13 14  1  0
 14 15  1  0
  9 16  1  0
 16 17  2  0
 17 18  1  0
 18 19  1  0
 19 20  2  0
 19 21  1  0
 18  4  1  0
 17  6  1  0
 15 10  1  0
  1 22  1  0
  5 23  1  0
  7 24  1  0
  8 25  1  0
 11 26  1  0
 11 27  1  0
 12 28  1  0
 12 29  1  0
 14 30  1  0
 14 31  1  0
 15 32  1  0
 15 33  1  0
 16 34  1  0
M  CHG  2   1  -1  21  -1
M  END
>  <UniqueID>  (76) 
76

>  <SMILES>  (76) 
[NH-]C(=O)c1cc2ccc(N3CCOCC3)cc2n1C(=O)[S-]

>  <Energy>  (76) 
84.10291033385927

>  <Genealogy>  (76) 
[NH-]C(=O)c1cc2ccc(N3CCOCC3)cc2n1C(=O)[S-] (protonated)
[NH-]C(=O)c1cc2ccc(N3CCOCC3)cc2n1C(=O)[S-] (3D coordinates assigned)
[NH-]C(=O)c1cc2ccc(N3CCOCC3)cc2n1C(=O)[S-] (nonaromatic ring conformer: 84.10291033385927 kcal/mol)

>  <smiles>  (76) 
NC(=O)c1cc2ccc(N3CCOCC3)cc2n1C(=O)S

>  <score_type>  (76) 
oracle

>  <origin>  (76) 
adg

>  <m_score__min__energy>  (76) 
-6.6500000000000004

>  <m_primary>  (76) 
energy

$$$$
77:0
     RDKit          3D

 43 46  0  0  0  0  0  0  0  0999 V2000
  139.5310  158.2470  137.0810 N   0  0  0  0  0  0  0  0  0  0  0  0
  140.8040  158.2740  136.4430 C   0  0  0  0  0  0  0  0  0  0  0  0
  141.5500  159.2770  136.5990 O   0  0  0  0  0  0  0  0  0  0  0  0
  141.2840  157.1210  135.6550 C   0  0  0  0  0  0  0  0  0  0  0  0
  142.5010  156.4840  135.8930 C   0  0  0  0  0  0  0  0  0  0  0  0
  142.5310  155.4180  135.0240 C   0  0  0  0  0  0  0  0  0  0  0  0
  143.5190  154.4610  134.8180 C   0  0  0  0  0  0  0  0  0  0  0  0
  143.2990  153.4900  133.8270 C   0  0  0  0  0  0  0  0  0  0  0  0
  142.0970  153.4810  133.0690 C   0  0  0  0  0  0  0  0  0  0  0  0
  141.8970  152.4950  132.0280 N   0  0  0  0  0  0  0  0  0  0  0  0
  141.3230  151.2090  132.4910 C   0  0  1  0  0  0  0  0  0  0  0  0
  139.7890  151.0820  132.2430 C   0  0  0  0  0  0  0  0  0  0  0  0
  139.2900  149.6190  132.4380 C   0  0  1  0  0  0  0  0  0  0  0  0
  139.2110  148.8720  131.0990 C   0  0  0  0  0  0  0  0  0  0  0  0
  140.5760  148.2130  130.9640 C   0  0  0  0  0  0  0  0  0  0  0  0
  141.3230  148.6400  132.2370 C   0  0  1  0  0  0  0  0  0  0  0  0
  142.1210  149.9580  132.0110 C   0  0  0  0  0  0  0  0  0  0  0  0
  140.2770  148.8850  133.2300 N   0  0  0  0  0  0  0  0  0  0  0  0
  141.1350  154.4970  133.2870 C   0  0  0  0  0  0  0  0  0  0  0  0
  141.3700  155.4380  134.2960 C   0  0  0  0  0  0  0  0  0  0  0  0
  140.5940  156.4790  134.6690 N   0  0  0  0  0  0  0  0  0  0  0  0
  139.3470  156.8720  134.0730 C   0  0  0  0  0  0  0  0  0  0  0  0
  138.7300  157.8840  134.4980 O   0  0  0  0  0  0  0  0  0  0  0  0
  138.7970  156.1220  133.0410 O   0  0  0  0  0  0  0  0  0  0  0  0
  138.6740  158.5750  136.5830 H   0  0  0  0  0  0  0  0  0  0  0  0
  143.2734  156.7725  136.6212 H   0  0  0  0  0  0  0  0  0  0  0  0
  144.4443  154.4644  135.4128 H   0  0  0  0  0  0  0  0  0  0  0  0
  144.0673  152.7265  133.6352 H   0  0  0  0  0  0  0  0  0  0  0  0
  142.8110  152.3030  131.5560 H   0  0  0  0  0  0  0  0  0  0  0  0
  141.2700  152.8960  131.2900 H   0  0  0  0  0  0  0  0  0  0  0  0
  141.4423  151.2316  133.5843 H   0  0  0  0  0  0  0  0  0  0  0  0
  139.2587  151.7363  132.9506 H   0  0  0  0  0  0  0  0  0  0  0  0
  139.5855  151.3767  131.2029 H   0  0  0  0  0  0  0  0  0  0  0  0
  138.3007  149.6707  132.9161 H   0  0  0  0  0  0  0  0  0  0  0  0
  138.4122  148.1160  131.1195 H   0  0  0  0  0  0  0  0  0  0  0  0
  138.9773  149.5384  130.2556 H   0  0  0  0  0  0  0  0  0  0  0  0
  140.4786  147.1183  130.9165 H   0  0  0  0  0  0  0  0  0  0  0  0
  141.1012  148.5119  130.0448 H   0  0  0  0  0  0  0  0  0  0  0  0
  142.0444  147.8692  132.5458 H   0  0  0  0  0  0  0  0  0  0  0  0
  143.0661  149.9023  132.5711 H   0  0  0  0  0  0  0  0  0  0  0  0
  142.3060  150.0644  130.9319 H   0  0  0  0  0  0  0  0  0  0  0  0
  139.8620  147.9660  133.5200 H   0  0  0  0  0  0  0  0  0  0  0  0
  140.2217  154.5456  132.6758 H   0  0  0  0  0  0  0  0  0  0  0  0
  1  2  1  0
  2  3  2  0
  2  4  1  0
  4  5  2  0
  5  6  1  0
  6  7  2  0
  7  8  1  0
  8  9  2  0
  9 10  1  0
 10 11  1  0
 11 12  1  0
 12 13  1  0
 13 14  1  0
 14 15  1  0
 15 16  1  0
 16 17  1  0
 16 18  1  0
  9 19  1  0
 19 20  2  0
 20 21  1  0
 21 22  1  0
 22 23  2  0
 22 24  1  0
 21  4  1  0
 20  6  1  0
 17 11  1  0
 18 13  1  0
  1 25  1  0
  5 26  1  0
  7 27  1  0
  8 28  1  0
 10 29  1  0
 10 30  1  0
 11 31  1  1
 12 32  1  0
 12 33  1  0
 13 34  1  1
 14 35  1  0
 14 36  1  0
 15 37  1  0
 15 38  1  0
 16 39  1  1
 17 40  1  0
 17 41  1  0
 18 42  1  0
 19 43  1  0
M  CHG  3   1  -1  10   1  24  -1
M  END
>  <UniqueID>  (77) 
77

>  <SMILES>  (77) 
[NH-]C(=O)c1cc2ccc([NH2+]C3C[C@H]4CC[C@@H](C3)N4)cc2n1C(=O)[O-]

>  <Energy>  (77) 
104.93414492510142

>  <Genealogy>  (77) 
[NH-]C(=O)c1cc2ccc([NH2+]C3CC4CCC(C3)N4)cc2n1C(=O)[O-] (protonated)
[NH-]C(=O)c1cc2ccc([NH2+]C3C[C@H]4CC[C@@H](C3)N4)cc2n1C(=O)[O-] (chirality)
[NH-]C(=O)c1cc2ccc([NH2+]C3C[C@H]4CC[C@@H](C3)N4)cc2n1C(=O)[O-] (3D coordinates assigned)
[NH-]C(=O)c1cc2ccc([NH2+]C3C[C@H]4CC[C@@H](C3)N4)cc2n1C(=O)[O-] (nonaromatic ring conformer: 104.93414492510142 kcal/mol)

>  <smiles>  (77) 
NC(=O)c1cc2ccc(NC3CC4CCC(C3)N4)cc2n1C(=O)O

>  <score_type>  (77) 
oracle

>  <origin>  (77) 
adg

>  <m_score__min__energy>  (77) 
-8.3800000000000008

>  <m_primary>  (77) 
energy

$$$$
78:0
     RDKit          3D

 30 31  0  0  0  0  0  0  0  0999 V2000
  141.6320  159.4200  135.7960 N   0  0  0  0  0  0  0  0  0  0  0  0
  142.1270  160.0430  134.6150 C   0  0  0  0  0  0  0  0  0  0  0  0
  141.3850  160.8430  133.9830 O   0  0  0  0  0  0  0  0  0  0  0  0
  143.4710  159.7220  134.0900 C   0  0  0  0  0  0  0  0  0  0  0  0
  143.8860  158.4250  133.7950 C   0  0  0  0  0  0  0  0  0  0  0  0
  145.2060  158.5400  133.4240 C   0  0  0  0  0  0  0  0  0  0  0  0
  146.1080  157.5640  133.0120 C   0  0  0  0  0  0  0  0  0  0  0  0
  147.4030  157.9720  132.6530 C   0  0  0  0  0  0  0  0  0  0  0  0
  147.7700  159.3400  132.7110 C   0  0  0  0  0  0  0  0  0  0  0  0
  149.1470  159.7740  132.2770 C   0  0  0  0  0  0  0  0  0  0  0  0
  149.1020  160.5900  130.9710 C   0  0  1  0  0  0  0  0  0  0  0  0
  149.9730  161.6910  131.0450 O   0  0  0  0  0  0  0  0  0  0  0  0
  149.4410  159.7420  129.7740 C   0  0  0  0  0  0  0  0  0  0  0  0
  148.8900  158.6190  129.6180 O   0  0  0  0  0  0  0  0  0  0  0  0
  150.3760  160.1820  128.8440 O   0  0  0  0  0  0  0  0  0  0  0  0
  146.8250  160.3040  133.1260 C   0  0  0  0  0  0  0  0  0  0  0  0
  145.5480  159.8670  133.4960 C   0  0  0  0  0  0  0  0  0  0  0  0
  144.4910  160.6070  133.9000 N   0  0  0  0  0  0  0  0  0  0  0  0
  144.4490  162.0390  134.0090 C   0  0  0  0  0  0  0  0  0  0  0  0
  143.6030  162.7020  133.3540 O   0  0  0  0  0  0  0  0  0  0  0  0
  145.3600  162.7080  134.8160 O   0  0  0  0  0  0  0  0  0  0  0  0
  140.7330  159.7270  136.2290 H   0  0  0  0  0  0  0  0  0  0  0  0
  143.2859  157.5046  133.8475 H   0  0  0  0  0  0  0  0  0  0  0  0
  145.8155  156.5045  132.9687 H   0  0  0  0  0  0  0  0  0  0  0  0
  148.1389  157.2235  132.3240 H   0  0  0  0  0  0  0  0  0  0  0  0
  149.5917  160.3938  133.0695 H   0  0  0  0  0  0  0  0  0  0  0  0
  149.7501  158.8718  132.0971 H   0  0  0  0  0  0  0  0  0  0  0  0
  148.0718  160.9551  130.8468 H   0  0  0  0  0  0  0  0  0  0  0  0
  150.7290  161.5230  130.4230 H   0  0  0  0  0  0  0  0  0  0  0  0
  147.0862  161.3721  133.1577 H   0  0  0  0  0  0  0  0  0  0  0  0
  1  2  1  0
  2  3  2  0
  2  4  1  0
  4  5  2  0
  5  6  1  0
  6  7  2  0
  7  8  1  0
  8  9  2  0
  9 10  1  0
 10 11  1  0
 11 12  1  0
 11 13  1  0
 13 14  2  0
 13 15  1  0
  9 16  1  0
 16 17  2  0
 17 18  1  0
 18 19  1  0
 19 20  2  0
 19 21  1  0
 18  4  1  0
 17  6  1  0
  1 22  1  0
  5 23  1  0
  7 24  1  0
  8 25  1  0
 10 26  1  0
 10 27  1  0
 11 28  1  6
 12 29  1  0
 16 30  1  0
M  CHG  3   1  -1  15  -1  21  -1
M  END
>  <UniqueID>  (78) 
78

>  <SMILES>  (78) 
[NH-]C(=O)c1cc2ccc(C[C@@H](O)C(=O)[O-])cc2n1C(=O)[O-]

>  <Energy>  (78) 
68.68679300073687

>  <Genealogy>  (78) 
[NH-]C(=O)c1cc2ccc(CC(O)C(=O)[O-])cc2n1C(=O)[O-] (protonated)
[NH-]C(=O)c1cc2ccc(C[C@@H](O)C(=O)[O-])cc2n1C(=O)[O-] (chirality)
[NH-]C(=O)c1cc2ccc(C[C@@H](O)C(=O)[O-])cc2n1C(=O)[O-] (3D coordinates assigned)
[NH-]C(=O)c1cc2ccc(C[C@@H](O)C(=O)[O-])cc2n1C(=O)[O-] (optimized conformer: 68.68679300073687 kcal/mol)

>  <smiles>  (78) 
NC(=O)c1cc2ccc(CC(O)C(=O)O)cc2n1C(=O)O

>  <score_type>  (78) 
oracle

>  <origin>  (78) 
adg

>  <m_score__min__energy>  (78) 
-6.5099999999999998

>  <m_primary>  (78) 
energy

$$$$
79:0
     RDKit          3D

 38 39  0  0  0  0  0  0  0  0999 V2000
  142.1730  153.8620  135.1810 C   0  0  0  0  0  0  0  0  0  0  0  0
  141.6520  154.4080  133.8380 C   0  0  0  0  0  0  0  0  0  0  0  0
  141.6580  153.3060  132.7630 C   0  0  0  0  0  0  0  0  0  0  0  0
  142.5640  155.5550  133.3790 C   0  0  0  0  0  0  0  0  0  0  0  0
  140.3330  154.9540  133.9940 O   0  0  0  0  0  0  0  0  0  0  0  0
  139.7920  156.0360  133.2840 C   0  0  0  0  0  0  0  0  0  0  0  0
  139.1100  155.8500  132.2400 O   0  0  0  0  0  0  0  0  0  0  0  0
  140.0190  157.3740  133.7550 N   0  0  0  0  0  0  0  0  0  0  0  0
  139.9940  158.5260  133.0290 C   0  0  0  0  0  0  0  0  0  0  0  0
  139.5670  158.6520  131.6200 C   0  0  0  0  0  0  0  0  0  0  0  0
  138.3950  157.9920  131.1390 N   0  0  0  0  0  0  0  0  0  0  0  0
  140.2200  159.3960  130.8410 O   0  0  0  0  0  0  0  0  0  0  0  0
  140.3820  159.6090  133.8110 C   0  0  0  0  0  0  0  0  0  0  0  0
  140.6350  159.0840  135.0580 C   0  0  0  0  0  0  0  0  0  0  0  0
  141.0790  159.7100  136.2180 C   0  0  0  0  0  0  0  0  0  0  0  0
  141.3010  158.9140  137.3530 C   0  0  0  0  0  0  0  0  0  0  0  0
  141.0720  157.5140  137.3140 C   0  0  0  0  0  0  0  0  0  0  0  0
  141.3760  156.6610  138.5190 C   0  0  0  0  0  0  0  0  0  0  0  0
  142.4320  155.8060  138.2580 F   0  0  0  0  0  0  0  0  0  0  0  0
  140.2760  155.8960  138.8670 F   0  0  0  0  0  0  0  0  0  0  0  0
  141.7110  157.4780  139.5830 F   0  0  0  0  0  0  0  0  0  0  0  0
  140.6470  156.9120  136.1070 C   0  0  0  0  0  0  0  0  0  0  0  0
  140.4100  157.7330  134.9990 C   0  0  0  0  0  0  0  0  0  0  0  0
  141.6729  154.3861  136.0087 H   0  0  0  0  0  0  0  0  0  0  0  0
  141.9593  152.7850  135.2466 H   0  0  0  0  0  0  0  0  0  0  0  0
  143.2589  154.0250  135.2466 H   0  0  0  0  0  0  0  0  0  0  0  0
  141.6634  152.3194  133.2493 H   0  0  0  0  0  0  0  0  0  0  0  0
  140.7593  153.4007  132.1358 H   0  0  0  0  0  0  0  0  0  0  0  0
  142.5556  153.4105  132.1358 H   0  0  0  0  0  0  0  0  0  0  0  0
  142.9747  156.0715  134.2591 H   0  0  0  0  0  0  0  0  0  0  0  0
  143.3883  155.1486  132.7746 H   0  0  0  0  0  0  0  0  0  0  0  0
  141.9823  156.2665  132.7746 H   0  0  0  0  0  0  0  0  0  0  0  0
  138.1340  158.0570  130.1310 H   0  0  0  0  0  0  0  0  0  0  0  0
  137.7390  157.5120  131.7930 H   0  0  0  0  0  0  0  0  0  0  0  0
  140.4682  160.6604  133.4994 H   0  0  0  0  0  0  0  0  0  0  0  0
  141.2510  160.7961  136.2453 H   0  0  0  0  0  0  0  0  0  0  0  0
  141.6566  159.3809  138.2833 H   0  0  0  0  0  0  0  0  0  0  0  0
  140.5059  155.8231  136.0407 H   0  0  0  0  0  0  0  0  0  0  0  0
  1  2  1  0
  2  3  1  0
  2  4  1  0
  2  5  1  0
  5  6  1  0
  6  7  2  0
  6  8  1  0
  8  9  1  0
  9 10  1  0
 10 11  1  0
 10 12  2  0
  9 13  2  0
 13 14  1  0
 14 15  2  0
 15 16  1  0
 16 17  2  0
 17 18  1  0
 18 19  1  0
 18 20  1  0
 18 21  1  0
 17 22  1  0
 22 23  2  0
 23  8  1  0
 23 14  1  0
  1 24  1  0
  1 25  1  0
  1 26  1  0
  3 27  1  0
  3 28  1  0
  3 29  1  0
  4 30  1  0
  4 31  1  0
  4 32  1  0
 11 33  1  0
 11 34  1  0
 13 35  1  0
 15 36  1  0
 16 37  1  0
 22 38  1  0
M  END
>  <UniqueID>  (79) 
79

>  <SMILES>  (79) 
CC(C)(C)OC(=O)n1c(C(N)=O)cc2ccc(C(F)(F)F)cc21

>  <Energy>  (79) 
72.85480251513269

>  <Genealogy>  (79) 
CC(C)(C)OC(=O)n1c(C(N)=O)cc2ccc(C(F)(F)F)cc21 (3D coordinates assigned)
CC(C)(C)OC(=O)n1c(C(N)=O)cc2ccc(C(F)(F)F)cc21 (optimized conformer: 72.85480251513269 kcal/mol)

>  <smiles>  (79) 
CC(C)(C)OC(=O)n1c(C(N)=O)cc2ccc(C(F)(F)F)cc21

>  <score_type>  (79) 
oracle

>  <origin>  (79) 
adg

>  <m_score__min__energy>  (79) 
-6.5099999999999998

>  <m_primary>  (79) 
energy

$$$$
80:0
     RDKit          3D

 50 53  0  0  0  0  0  0  0  0999 V2000
  145.0280  160.4340  133.7670 C   0  0  0  0  0  0  0  0  0  0  0  0
  145.3550  159.2900  133.1310 C   0  0  0  0  0  0  0  0  0  0  0  0
  144.2640  158.4460  132.9650 O   0  0  0  0  0  0  0  0  0  0  0  0
  146.7010  159.0160  132.6790 C   0  0  0  0  0  0  0  0  0  0  0  0
  147.3940  159.9940  132.0070 C   0  0  0  0  0  0  0  0  0  0  0  0
  148.6880  159.8060  131.5140 C   0  0  0  0  0  0  0  0  0  0  0  0
  149.5240  161.0930  130.6620 Cl  0  0  0  0  0  0  0  0  0  0  0  0
  149.2770  158.5780  131.7200 C   0  0  0  0  0  0  0  0  0  0  0  0
  148.5620  157.6190  132.3970 C   0  0  0  0  0  0  0  0  0  0  0  0
  147.2900  157.7970  132.8860 C   0  0  0  0  0  0  0  0  0  0  0  0
  146.7030  156.7230  133.6770 C   0  0  0  0  0  0  0  0  0  0  0  0
  145.6470  156.4860  134.3190 N   0  0  0  0  0  0  0  0  0  0  0  0
  145.3250  155.4770  135.0150 C   0  0  0  0  0  0  0  0  0  0  0  0
  143.9940  155.3710  135.7410 C   0  0  0  0  0  0  0  0  0  0  0  0
  143.1120  154.3850  135.0630 C   0  0  0  0  0  0  0  0  0  0  0  0
  142.0200  155.0850  134.2950 C   0  0  0  0  0  0  0  0  0  0  0  0
  141.0710  154.2880  133.6830 C   0  0  0  0  0  0  0  0  0  0  0  0
  140.0430  154.8790  132.9770 C   0  0  0  0  0  0  0  0  0  0  0  0
  139.9990  156.2680  132.9070 C   0  0  0  0  0  0  0  0  0  0  0  0
  139.1100  157.1120  132.2920 C   0  0  0  0  0  0  0  0  0  0  0  0
  139.4970  158.4420  132.5150 C   0  0  0  0  0  0  0  0  0  0  0  0
  138.7530  159.5650  131.9900 C   0  0  0  0  0  0  0  0  0  0  0  0
  137.6050  159.3120  131.1500 N   0  0  0  0  0  0  0  0  0  0  0  0
  139.0010  160.7750  132.1900 O   0  0  0  0  0  0  0  0  0  0  0  0
  140.6130  158.3860  133.2580 N   0  0  0  0  0  0  0  0  0  0  0  0
  141.3680  159.4690  133.7360 C   0  0  0  0  0  0  0  0  0  0  0  0
  141.2450  159.8450  134.9570 O   0  0  0  0  0  0  0  0  0  0  0  0
  142.2720  160.2160  133.0080 O   0  0  0  0  0  0  0  0  0  0  0  0
  140.9330  157.0810  133.5060 C   0  0  0  0  0  0  0  0  0  0  0  0
  141.9500  156.4580  134.2060 C   0  0  0  0  0  0  0  0  0  0  0  0
  146.2760  154.4310  135.1050 C   0  0  0  0  0  0  0  0  0  0  0  0
  147.6350  155.1940  134.0360 S   0  0  0  0  0  0  0  0  0  0  0  0
  145.7990  161.1933  133.9643 H   0  0  0  0  0  0  0  0  0  0  0  0
  143.9904  160.6074  134.0883 H   0  0  0  0  0  0  0  0  0  0  0  0
  144.3670  157.4510  132.8580 H   0  0  0  0  0  0  0  0  0  0  0  0
  146.9084  160.9685  131.8501 H   0  0  0  0  0  0  0  0  0  0  0  0
  150.2927  158.3703  131.3524 H   0  0  0  0  0  0  0  0  0  0  0  0
  149.0408  156.6419  132.5585 H   0  0  0  0  0  0  0  0  0  0  0  0
  144.1709  155.0469  136.7772 H   0  0  0  0  0  0  0  0  0  0  0  0
  143.5028  156.3552  135.7319 H   0  0  0  0  0  0  0  0  0  0  0  0
  143.7132  153.7818  134.3668 H   0  0  0  0  0  0  0  0  0  0  0  0
  142.6502  153.7410  135.8259 H   0  0  0  0  0  0  0  0  0  0  0  0
  141.1346  153.1924  133.7580 H   0  0  0  0  0  0  0  0  0  0  0  0
  139.2760  154.2661  132.4810 H   0  0  0  0  0  0  0  0  0  0  0  0
  138.2297  156.7952  131.7134 H   0  0  0  0  0  0  0  0  0  0  0  0
  136.7240  159.8700  131.2260 H   0  0  0  0  0  0  0  0  0  0  0  0
  137.6060  158.5540  130.4260 H   0  0  0  0  0  0  0  0  0  0  0  0
  142.9190  159.8300  132.3220 H   0  0  0  0  0  0  0  0  0  0  0  0
  142.7178  157.0705  134.7013 H   0  0  0  0  0  0  0  0  0  0  0  0
  146.2358  153.4682  135.6354 H   0  0  0  0  0  0  0  0  0  0  0  0
  1  2  2  0
  2  3  1  0
  2  4  1  0
  4  5  2  0
  5  6  1  0
  6  7  1  0
  6  8  2  0
  8  9  1  0
  9 10  2  0
 10 11  1  0
 11 12  2  0
 12 13  1  0
 13 14  1  0
 14 15  1  0
 15 16  1  0
 16 17  2  0
 17 18  1  0
 18 19  2  0
 19 20  1  0
 20 21  2  0
 21 22  1  0
 22 23  1  0
 22 24  2  0
 21 25  1  0
 25 26  1  0
 26 27  2  0
 26 28  1  0
 25 29  1  0
 29 30  2  0
 13 31  2  0
 31 32  1  0
 10  4  1  0
 32 11  1  0
 30 16  1  0
 29 19  1  0
  1 33  1  0
  1 34  1  0
  3 35  1  0
  5 36  1  0
  8 37  1  0
  9 38  1  0
 14 39  1  0
 14 40  1  0
 15 41  1  0
 15 42  1  0
 17 43  1  0
 18 44  1  0
 20 45  1  0
 23 46  1  0
 23 47  1  0
 28 48  1  0
 30 49  1  0
 31 50  1  0
M  END
>  <smiles>  (80) 
C=C(O)c1cc(Cl)ccc1-c1nc(CCc2ccc3cc(C(N)=O)n(C(=O)O)c3c2)cs1

>  <score_type>  (80) 
oracle

>  <origin>  (80) 
adg

>  <m_score__min__energy>  (80) 
-10.449999999999999

>  <m_primary>  (80) 
energy

$$$$
81:0
     RDKit          3D

 39 41  0  0  0  0  0  0  0  0999 V2000
  142.6490  154.1320  135.6630 N   0  0  0  0  0  0  0  0  0  0  0  0
  143.2000  153.7590  134.4030 C   0  0  0  0  0  0  0  0  0  0  0  0
  144.1910  154.3910  133.9520 O   0  0  0  0  0  0  0  0  0  0  0  0
  142.5780  152.6680  133.6220 C   0  0  0  0  0  0  0  0  0  0  0  0
  143.2220  151.4650  133.3420 C   0  0  0  0  0  0  0  0  0  0  0  0
  142.2870  150.6920  132.6930 C   0  0  0  0  0  0  0  0  0  0  0  0
  142.3940  149.4060  132.1760 C   0  0  0  0  0  0  0  0  0  0  0  0
  141.2730  148.8600  131.5290 C   0  0  0  0  0  0  0  0  0  0  0  0
  140.0680  149.6010  131.4180 C   0  0  0  0  0  0  0  0  0  0  0  0
  138.8890  149.0300  130.6700 C   0  0  0  0  0  0  0  0  0  0  0  0
  137.7030  149.5360  131.1740 F   0  0  0  0  0  0  0  0  0  0  0  0
  138.9920  149.3670  129.3340 F   0  0  0  0  0  0  0  0  0  0  0  0
  138.8550  147.6510  130.7870 F   0  0  0  0  0  0  0  0  0  0  0  0
  140.0100  150.9150  131.9340 C   0  0  0  0  0  0  0  0  0  0  0  0
  141.1340  151.4260  132.5930 C   0  0  0  0  0  0  0  0  0  0  0  0
  141.2970  152.6450  133.1540 N   0  0  0  0  0  0  0  0  0  0  0  0
  140.3200  153.6990  133.1970 C   0  0  0  0  0  0  0  0  0  0  0  0
  139.2130  153.5570  132.6080 O   0  0  0  0  0  0  0  0  0  0  0  0
  140.5940  154.8720  133.9060 O   0  0  0  0  0  0  0  0  0  0  0  0
  140.8470  156.1200  133.2650 C   0  0  0  0  0  0  0  0  0  0  0  0
  140.2170  157.3040  134.0300 C   0  0  2  0  0  0  0  0  0  0  0  0
  140.7410  157.5550  135.4620 C   0  0  0  0  0  0  0  0  0  0  0  0
  140.8050  156.3850  136.2340 O   0  0  0  0  0  0  0  0  0  0  0  0
  138.8130  157.7990  133.6330 C   0  0  0  0  0  0  0  0  0  0  0  0
  140.0440  158.5700  133.1870 C   0  0  0  0  0  0  0  0  0  0  0  0
  140.2030  159.7970  133.8090 F   0  0  0  0  0  0  0  0  0  0  0  0
  140.3070  158.4890  131.8300 F   0  0  0  0  0  0  0  0  0  0  0  0
  141.6560  154.4460  135.7440 H   0  0  0  0  0  0  0  0  0  0  0  0
  144.2586  151.1910  133.5877 H   0  0  0  0  0  0  0  0  0  0  0  0
  143.3283  148.8332  132.2707 H   0  0  0  0  0  0  0  0  0  0  0  0
  141.3299  147.8471  131.1039 H   0  0  0  0  0  0  0  0  0  0  0  0
  139.1007  151.5235  131.8202 H   0  0  0  0  0  0  0  0  0  0  0  0
  141.9345  156.2743  133.2058 H   0  0  0  0  0  0  0  0  0  0  0  0
  140.3939  156.0843  132.2633 H   0  0  0  0  0  0  0  0  0  0  0  0
  141.7504  157.9870  135.3955 H   0  0  0  0  0  0  0  0  0  0  0  0
  140.0346  158.2380  135.9565 H   0  0  0  0  0  0  0  0  0  0  0  0
  141.3590  155.7380  135.7230 H   0  0  0  0  0  0  0  0  0  0  0  0
  138.2195  157.2370  132.8969 H   0  0  0  0  0  0  0  0  0  0  0  0
  137.8936  158.0517  134.1815 H   0  0  0  0  0  0  0  0  0  0  0  0
  1  2  1  0
  2  3  2  0
  2  4  1  0
  4  5  2  0
  5  6  1  0
  6  7  2  0
  7  8  1  0
  8  9  2  0
  9 10  1  0
 10 11  1  0
 10 12  1  0
 10 13  1  0
  9 14  1  0
 14 15  2  0
 15 16  1  0
 16 17  1  0
 17 18  2  0
 17 19  1  0
 19 20  1  0
 21 20  1  6
 21 22  1  0
 22 23  1  0
 21 24  1  0
 24 25  1  0
 25 26  1  0
 25 27  1  0
 16  4  1  0
 25 21  1  0
 15  6  1  0
  1 28  1  0
  5 29  1  0
  7 30  1  0
  8 31  1  0
 14 32  1  0
 20 33  1  0
 20 34  1  0
 22 35  1  0
 22 36  1  0
 23 37  1  0
 24 38  1  0
 24 39  1  0
M  CHG  1   1  -1
M  END
>  <UniqueID>  (81) 
80

>  <SMILES>  (81) 
[NH-]C(=O)c1cc2ccc(C(F)(F)F)cc2n1C(=O)OC[C@]1(CO)CC1(F)F

>  <Energy>  (81) 
352.3962792513444

>  <Genealogy>  (81) 
[NH-]C(=O)c1cc2ccc(C(F)(F)F)cc2n1C(=O)OCC1(CO)CC1(F)F (protonated)
[NH-]C(=O)c1cc2ccc(C(F)(F)F)cc2n1C(=O)OC[C@]1(CO)CC1(F)F (chirality)
[NH-]C(=O)c1cc2ccc(C(F)(F)F)cc2n1C(=O)OC[C@]1(CO)CC1(F)F (3D coordinates assigned)
[NH-]C(=O)c1cc2ccc(C(F)(F)F)cc2n1C(=O)OC[C@]1(CO)CC1(F)F (nonaromatic ring conformer: 352.3962792513444 kcal/mol)

>  <smiles>  (81) 
NC(=O)c1cc2ccc(C(F)(F)F)cc2n1C(=O)OCC1(CO)CC1(F)F

>  <score_type>  (81) 
oracle

>  <origin>  (81) 
adg

>  <m_score__min__energy>  (81) 
-6.1799999999999997

>  <m_primary>  (81) 
energy

$$$$
82:0
     RDKit          3D

 58 60  0  0  0  0  0  0  0  0999 V2000
  141.3200  159.3060  135.8360 C   0  0  0  0  0  0  0  0  0  0  0  0
  140.4830  158.0330  135.6700 C   0  0  0  0  0  0  0  0  0  0  0  0
  140.6590  157.3150  134.2960 C   0  0  0  0  0  0  0  0  0  0  0  0
  139.2720  157.0100  133.6760 C   0  0  0  0  0  0  0  0  0  0  0  0
  139.3530  156.9350  132.2750 O   0  0  0  0  0  0  0  0  0  0  0  0
  141.4770  158.2220  133.3400 C   0  0  0  0  0  0  0  0  0  0  0  0
  141.9500  157.5020  132.2300 O   0  0  0  0  0  0  0  0  0  0  0  0
  141.3570  156.0340  134.4630 N   0  0  0  0  0  0  0  0  0  0  0  0
  141.4180  154.9480  133.5280 C   0  0  0  0  0  0  0  0  0  0  0  0
  140.4770  154.7500  132.7150 O   0  0  0  0  0  0  0  0  0  0  0  0
  142.5630  154.0810  133.5160 N   0  0  0  0  0  0  0  0  0  0  0  0
  142.5680  152.7180  133.5270 C   0  0  0  0  0  0  0  0  0  0  0  0
  141.3880  151.8510  133.7230 C   0  0  0  0  0  0  0  0  0  0  0  0
  140.2580  151.9280  132.8530 N   0  0  0  0  0  0  0  0  0  0  0  0
  141.3550  151.0650  134.7080 O   0  0  0  0  0  0  0  0  0  0  0  0
  143.8610  152.2290  133.3710 C   0  0  0  0  0  0  0  0  0  0  0  0
  144.6620  153.3440  133.2760 C   0  0  0  0  0  0  0  0  0  0  0  0
  146.0370  153.4420  133.0870 C   0  0  0  0  0  0  0  0  0  0  0  0
  146.5970  154.7250  132.9790 C   0  0  0  0  0  0  0  0  0  0  0  0
  145.7800  155.8850  133.0540 C   0  0  0  0  0  0  0  0  0  0  0  0
  146.3800  157.2710  132.9110 C   0  0  0  0  0  0  0  0  0  0  0  0
  147.8550  157.3050  133.3770 C   0  0  0  0  0  0  0  0  0  0  0  0
  148.2410  158.6400  134.0430 C   0  0  0  0  0  0  0  0  0  0  0  0
  147.5930  159.8070  133.4100 N   0  0  0  0  0  0  0  0  0  0  0  0
  148.1540  160.0920  132.0780 C   0  0  0  0  0  0  0  0  0  0  0  0
  146.1060  159.7390  133.3960 C   0  0  0  0  0  0  0  0  0  0  0  0
  145.5370  158.3270  133.6400 C   0  0  0  0  0  0  0  0  0  0  0  0
  144.3850  155.7400  133.2390 C   0  0  0  0  0  0  0  0  0  0  0  0
  143.8560  154.4500  133.3640 C   0  0  0  0  0  0  0  0  0  0  0  0
  141.4585  159.5167  136.9067 H   0  0  0  0  0  0  0  0  0  0  0  0
  142.3016  159.1641  135.3602 H   0  0  0  0  0  0  0  0  0  0  0  0
  140.8007  160.1509  135.3602 H   0  0  0  0  0  0  0  0  0  0  0  0
  140.7690  157.3282  136.4646 H   0  0  0  0  0  0  0  0  0  0  0  0
  139.4291  158.3430  135.7272 H   0  0  0  0  0  0  0  0  0  0  0  0
  138.9063  156.0492  134.0673 H   0  0  0  0  0  0  0  0  0  0  0  0
  138.5813  157.8229  133.9445 H   0  0  0  0  0  0  0  0  0  0  0  0
  140.1230  156.3470  132.0580 H   0  0  0  0  0  0  0  0  0  0  0  0
  140.8342  159.0420  132.9873 H   0  0  0  0  0  0  0  0  0  0  0  0
  142.3432  158.6151  133.8924 H   0  0  0  0  0  0  0  0  0  0  0  0
  141.5060  156.6150  132.2470 H   0  0  0  0  0  0  0  0  0  0  0  0
  140.1770  152.6840  132.1370 H   0  0  0  0  0  0  0  0  0  0  0  0
  139.4530  151.2760  132.9810 H   0  0  0  0  0  0  0  0  0  0  0  0
  144.1759  151.1758  133.3319 H   0  0  0  0  0  0  0  0  0  0  0  0
  146.6661  152.5418  133.0241 H   0  0  0  0  0  0  0  0  0  0  0  0
  147.6821  154.8335  132.8345 H   0  0  0  0  0  0  0  0  0  0  0  0
  146.3693  157.5218  131.8400 H   0  0  0  0  0  0  0  0  0  0  0  0
  148.0134  156.4923  134.1012 H   0  0  0  0  0  0  0  0  0  0  0  0
  148.4868  157.1856  132.4845 H   0  0  0  0  0  0  0  0  0  0  0  0
  147.9422  158.6037  135.1010 H   0  0  0  0  0  0  0  0  0  0  0  0
  149.3280  158.7637  133.9285 H   0  0  0  0  0  0  0  0  0  0  0  0
  149.1297  160.5876  132.1895 H   0  0  0  0  0  0  0  0  0  0  0  0
  148.2824  159.1498  131.5250 H   0  0  0  0  0  0  0  0  0  0  0  0
  147.4688  160.7513  131.5250 H   0  0  0  0  0  0  0  0  0  0  0  0
  145.7225  160.4063  134.1819 H   0  0  0  0  0  0  0  0  0  0  0  0
  145.7847  160.0401  132.3880 H   0  0  0  0  0  0  0  0  0  0  0  0
  145.5465  158.1150  134.7193 H   0  0  0  0  0  0  0  0  0  0  0  0
  144.5079  158.2878  133.2534 H   0  0  0  0  0  0  0  0  0  0  0  0
  143.7297  156.6224  133.2837 H   0  0  0  0  0  0  0  0  0  0  0  0
  1  2  1  0
  2  3  1  0
  3  4  1  0
  4  5  1  0
  3  6  1  0
  6  7  1  0
  3  8  1  0
  8  9  1  0
  9 10  2  0
  9 11  1  0
 11 12  1  0
 12 13  1  0
 13 14  1  0
 13 15  2  0
 12 16  2  0
 16 17  1  0
 17 18  2  0
 18 19  1  0
 19 20  2  0
 20 21  1  0
 21 22  1  0
 22 23  1  0
 23 24  1  0
 24 25  1  0
 24 26  1  0
 26 27  1  0
 20 28  1  0
 28 29  2  0
 29 11  1  0
 29 17  1  0
 27 21  1  0
  1 30  1  0
  1 31  1  0
  1 32  1  0
  2 33  1  0
  2 34  1  0
  4 35  1  0
  4 36  1  0
  5 37  1  0
  6 38  1  0
  6 39  1  0
  7 40  1  0
 14 41  1  0
 14 42  1  0
 16 43  1  0
 18 44  1  0
 19 45  1  0
 21 46  1  0
 22 47  1  0
 22 48  1  0
 23 49  1  0
 23 50  1  0
 25 51  1  0
 25 52  1  0
 25 53  1  0
 26 54  1  0
 26 55  1  0
 27 56  1  0
 27 57  1  0
 28 58  1  0
M  CHG  1   8  -1
M  END
>  <UniqueID>  (82) 
81

>  <SMILES>  (82) 
CCC(CO)(CO)[N-]C(=O)n1c(C(N)=O)cc2ccc(C3CCN(C)CC3)cc21

>  <Energy>  (82) 
104.02565086667198

>  <Genealogy>  (82) 
CCC(CO)(CO)[N-]C(=O)n1c(C(N)=O)cc2ccc(C3CCN(C)CC3)cc21 (protonated)
CCC(CO)(CO)[N-]C(=O)n1c(C(N)=O)cc2ccc(C3CCN(C)CC3)cc21 (3D coordinates assigned)
CCC(CO)(CO)[N-]C(=O)n1c(C(N)=O)cc2ccc(C3CCN(C)CC3)cc21 (nonaromatic ring conformer: 104.02565086667198 kcal/mol)

>  <smiles>  (82) 
CCC(CO)(CO)NC(=O)n1c(C(N)=O)cc2ccc(C3CCN(C)CC3)cc21

>  <score_type>  (82) 
oracle

>  <origin>  (82) 
adg

>  <m_score__min__energy>  (82) 
-8.0800000000000001

>  <m_primary>  (82) 
energy

$$$$
83:0
     RDKit          3D

 34 36  0  0  0  0  0  0  0  0999 V2000
  140.0300  158.2710  132.4540 C   0  0  0  0  0  0  0  0  0  0  0  0
  140.0710  158.3260  133.9470 C   0  0  0  0  0  0  0  0  0  0  0  0
  139.0250  157.9980  134.7290 N   0  0  0  0  0  0  0  0  0  0  0  0
  139.3800  158.1530  135.9960 N   0  0  0  0  0  0  0  0  0  0  0  0
  140.6600  158.5700  136.0340 C   0  0  0  0  0  0  0  0  0  0  0  0
  141.3960  158.8520  137.3050 C   0  0  0  0  0  0  0  0  0  0  0  0
  141.1440  158.6970  134.7420 C   0  0  0  0  0  0  0  0  0  0  0  0
  142.4910  159.1310  134.3120 C   0  0  0  0  0  0  0  0  0  0  0  0
  142.7690  160.5070  134.1230 C   0  0  0  0  0  0  0  0  0  0  0  0
  144.0480  160.9310  133.7260 C   0  0  0  0  0  0  0  0  0  0  0  0
  145.0200  159.9600  133.5130 C   0  0  0  0  0  0  0  0  0  0  0  0
  146.3420  160.0970  133.1570 C   0  0  0  0  0  0  0  0  0  0  0  0
  146.8440  158.8000  133.1030 C   0  0  0  0  0  0  0  0  0  0  0  0
  148.2260  158.4810  132.6900 C   0  0  0  0  0  0  0  0  0  0  0  0
  148.5120  157.3390  131.8830 N   0  0  0  0  0  0  0  0  0  0  0  0
  149.1620  159.2620  133.0090 O   0  0  0  0  0  0  0  0  0  0  0  0
  145.8780  157.8940  133.4260 N   0  0  0  0  0  0  0  0  0  0  0  0
  146.0370  156.4750  133.5950 C   0  0  0  0  0  0  0  0  0  0  0  0
  146.2540  155.7330  132.6010 O   0  0  0  0  0  0  0  0  0  0  0  0
  145.9450  155.9050  134.8580 O   0  0  0  0  0  0  0  0  0  0  0  0
  144.7640  158.6210  133.6710 C   0  0  0  0  0  0  0  0  0  0  0  0
  143.5050  158.1740  134.0890 C   0  0  0  0  0  0  0  0  0  0  0  0
  139.4008  157.4269  132.1353 H   0  0  0  0  0  0  0  0  0  0  0  0
  139.6094  159.2096  132.0639 H   0  0  0  0  0  0  0  0  0  0  0  0
  141.0496  158.1361  132.0639 H   0  0  0  0  0  0  0  0  0  0  0  0
  140.7534  158.6058  138.1632 H   0  0  0  0  0  0  0  0  0  0  0  0
  142.3093  158.2401  137.3433 H   0  0  0  0  0  0  0  0  0  0  0  0
  141.6666  159.9175  137.3433 H   0  0  0  0  0  0  0  0  0  0  0  0
  141.9757  161.2507  134.2887 H   0  0  0  0  0  0  0  0  0  0  0  0
  144.2736  161.9987  133.5878 H   0  0  0  0  0  0  0  0  0  0  0  0
  146.8860  161.0320  132.9576 H   0  0  0  0  0  0  0  0  0  0  0  0
  147.7440  156.7680  131.4670 H   0  0  0  0  0  0  0  0  0  0  0  0
  149.4990  157.1090  131.6310 H   0  0  0  0  0  0  0  0  0  0  0  0
  143.3101  157.1020  134.2402 H   0  0  0  0  0  0  0  0  0  0  0  0
  1  2  1  0
  2  3  2  0
  3  4  1  0
  4  5  1  0
  5  6  1  0
  5  7  2  0
  7  8  1  0
  8  9  2  0
  9 10  1  0
 10 11  2  0
 11 12  1  0
 12 13  2  0
 13 14  1  0
 14 15  1  0
 14 16  2  0
 13 17  1  0
 17 18  1  0
 18 19  2  0
 18 20  1  0
 17 21  1  0
 21 22  2  0
  7  2  1  0
 22  8  1  0
 21 11  1  0
  1 23  1  0
  1 24  1  0
  1 25  1  0
  6 26  1  0
  6 27  1  0
  6 28  1  0
  9 29  1  0
 10 30  1  0
 12 31  1  0
 15 32  1  0
 15 33  1  0
 22 34  1  0
M  CHG  2   4  -1  20  -1
M  END
>  <UniqueID>  (83) 
82

>  <SMILES>  (83) 
Cc1n[n-]c(C)c1-c1ccc2cc(C(N)=O)n(C(=O)[O-])c2c1

>  <Energy>  (83) 
109.00408113664605

>  <Genealogy>  (83) 
Cc1n[n-]c(C)c1-c1ccc2cc(C(N)=O)n(C(=O)[O-])c2c1 (protonated)
Cc1n[n-]c(C)c1-c1ccc2cc(C(N)=O)n(C(=O)[O-])c2c1 (3D coordinates assigned)
Cc1n[n-]c(C)c1-c1ccc2cc(C(N)=O)n(C(=O)[O-])c2c1 (optimized conformer: 109.00408113664605 kcal/mol)

>  <smiles>  (83) 
Cc1n[nH]c(C)c1-c1ccc2cc(C(N)=O)n(C(=O)O)c2c1

>  <score_type>  (83) 
oracle

>  <origin>  (83) 
adg

>  <m_score__min__energy>  (83) 
-7.4199999999999999

>  <m_primary>  (83) 
energy

$$$$
84:0
     RDKit          3D

 30 32  0  0  0  0  0  0  0  0999 V2000
  149.6020  161.6230  130.1890 C   0  0  0  0  0  0  0  0  0  0  0  0
  149.0910  160.5540  131.0920 C   0  0  0  0  0  0  0  0  0  0  0  0
  147.7910  160.3790  131.3920 N   0  0  0  0  0  0  0  0  0  0  0  0
  147.8530  159.3310  132.2430 C   0  0  0  0  0  0  0  0  0  0  0  0
  146.6680  158.7200  132.8830 C   0  0  0  0  0  0  0  0  0  0  0  0
  146.6950  157.3600  133.2860 C   0  0  0  0  0  0  0  0  0  0  0  0
  145.5810  156.7740  133.9070 C   0  0  0  0  0  0  0  0  0  0  0  0
  144.4530  157.5620  134.1040 C   0  0  0  0  0  0  0  0  0  0  0  0
  143.2520  157.2530  134.7010 C   0  0  0  0  0  0  0  0  0  0  0  0
  142.4940  158.4210  134.6340 C   0  0  0  0  0  0  0  0  0  0  0  0
  141.0860  158.5160  135.0820 C   0  0  0  0  0  0  0  0  0  0  0  0
  140.6020  159.6990  135.7200 N   0  0  0  0  0  0  0  0  0  0  0  0
  140.3080  157.5380  134.9330 O   0  0  0  0  0  0  0  0  0  0  0  0
  143.2010  159.4140  134.0220 N   0  0  0  0  0  0  0  0  0  0  0  0
  142.7970  160.7780  133.8150 C   0  0  0  0  0  0  0  0  0  0  0  0
  141.5760  161.0740  133.7250 O   0  0  0  0  0  0  0  0  0  0  0  0
  143.7480  161.7870  133.7240 O   0  0  0  0  0  0  0  0  0  0  0  0
  144.3990  158.8720  133.7060 C   0  0  0  0  0  0  0  0  0  0  0  0
  145.5010  159.4890  133.1020 C   0  0  0  0  0  0  0  0  0  0  0  0
  149.1180  158.9080  132.4440 N   0  0  0  0  0  0  0  0  0  0  0  0
  149.8540  159.6910  131.7170 O   0  0  0  0  0  0  0  0  0  0  0  0
  149.9989  162.4533  130.7916 H   0  0  0  0  0  0  0  0  0  0  0  0
  150.4025  161.2152  129.5543 H   0  0  0  0  0  0  0  0  0  0  0  0
  148.7819  161.9899  129.5543 H   0  0  0  0  0  0  0  0  0  0  0  0
  147.5988  156.7582  133.1099 H   0  0  0  0  0  0  0  0  0  0  0  0
  145.6000  155.7221  134.2283 H   0  0  0  0  0  0  0  0  0  0  0  0
  142.9535  156.2888  135.1383 H   0  0  0  0  0  0  0  0  0  0  0  0
  141.2000  160.5500  135.8120 H   0  0  0  0  0  0  0  0  0  0  0  0
  139.6190  159.7410  136.0670 H   0  0  0  0  0  0  0  0  0  0  0  0
  145.4604  160.5473  132.8046 H   0  0  0  0  0  0  0  0  0  0  0  0
  1  2  1  0
  2  3  2  0
  3  4  1  0
  4  5  1  0
  5  6  2  0
  6  7  1  0
  7  8  2  0
  8  9  1  0
  9 10  2  0
 10 11  1  0
 11 12  1  0
 11 13  2  0
 10 14  1  0
 14 15  1  0
 15 16  2  0
 15 17  1  0
 14 18  1  0
 18 19  2  0
  4 20  2  0
 20 21  1  0
 21  2  1  0
 19  5  1  0
 18  8  1  0
  1 22  1  0
  1 23  1  0
  1 24  1  0
  6 25  1  0
  7 26  1  0
  9 27  1  0
 12 28  1  0
 12 29  1  0
 19 30  1  0
M  CHG  1  17  -1
M  END
>  <UniqueID>  (84) 
83

>  <SMILES>  (84) 
Cc1nc(-c2ccc3cc(C(N)=O)n(C(=O)[O-])c3c2)no1

>  <Energy>  (84) 
103.75346851278016

>  <Genealogy>  (84) 
Cc1nc(-c2ccc3cc(C(N)=O)n(C(=O)[O-])c3c2)no1 (protonated)
Cc1nc(-c2ccc3cc(C(N)=O)n(C(=O)[O-])c3c2)no1 (3D coordinates assigned)
Cc1nc(-c2ccc3cc(C(N)=O)n(C(=O)[O-])c3c2)no1 (optimized conformer: 103.75346851278016 kcal/mol)

>  <smiles>  (84) 
Cc1nc(-c2ccc3cc(C(N)=O)n(C(=O)O)c3c2)no1

>  <score_type>  (84) 
oracle

>  <origin>  (84) 
adg

>  <m_score__min__energy>  (84) 
-6.8499999999999996

>  <m_primary>  (84) 
energy

$$$$
85:0
     RDKit          3D

 42 44  0  0  0  0  0  0  0  0999 V2000
  138.2750  160.1250  129.6130 C   0  0  0  0  0  0  0  0  0  0  0  0
  137.9720  160.1600  131.1200 C   0  0  2  0  0  0  0  0  0  0  0  0
  139.1350  160.7830  131.9060 C   0  0  0  0  0  0  0  0  0  0  0  0
  139.9500  159.6130  132.4430 C   0  0  0  0  0  0  0  0  0  0  0  0
  139.0730  158.4560  132.3710 N   0  0  0  0  0  0  0  0  0  0  0  0
  139.4500  157.1660  132.8900 C   0  0  0  0  0  0  0  0  0  0  0  0
  139.1300  156.1250  132.2540 O   0  0  0  0  0  0  0  0  0  0  0  0
  140.1900  157.0170  134.1940 C   0  0  0  0  0  0  0  0  0  0  0  0
  141.6780  157.0320  133.9640 C   0  0  0  0  0  0  0  0  0  0  0  0
  142.3820  155.8130  133.7940 C   0  0  0  0  0  0  0  0  0  0  0  0
  143.7750  155.8110  133.6110 C   0  0  0  0  0  0  0  0  0  0  0  0
  144.4340  157.0390  133.5980 C   0  0  0  0  0  0  0  0  0  0  0  0
  145.7750  157.3200  133.4700 C   0  0  0  0  0  0  0  0  0  0  0  0
  145.8680  158.7080  133.5440 C   0  0  0  0  0  0  0  0  0  0  0  0
  147.1370  159.4450  133.3830 C   0  0  0  0  0  0  0  0  0  0  0  0
  147.1500  160.8590  133.1750 N   0  0  0  0  0  0  0  0  0  0  0  0
  148.2260  158.8110  133.3720 O   0  0  0  0  0  0  0  0  0  0  0  0
  144.6370  159.2660  133.7280 N   0  0  0  0  0  0  0  0  0  0  0  0
  144.3320  160.6510  133.9690 C   0  0  0  0  0  0  0  0  0  0  0  0
  143.3450  161.1920  133.4030 O   0  0  0  0  0  0  0  0  0  0  0  0
  145.1220  161.4110  134.8230 O   0  0  0  0  0  0  0  0  0  0  0  0
  143.7670  158.2290  133.7550 C   0  0  0  0  0  0  0  0  0  0  0  0
  142.3830  158.2580  133.9630 C   0  0  0  0  0  0  0  0  0  0  0  0
  137.8190  158.7460  131.6920 C   0  0  0  0  0  0  0  0  0  0  0  0
  139.3570  160.0000  129.4594 H   0  0  0  0  0  0  0  0  0  0  0  0
  137.7393  159.2828  129.1508 H   0  0  0  0  0  0  0  0  0  0  0  0
  137.9454  161.0672  129.1508 H   0  0  0  0  0  0  0  0  0  0  0  0
  137.0460  160.7446  131.2231 H   0  0  0  0  0  0  0  0  0  0  0  0
  139.7527  161.4079  131.2443 H   0  0  0  0  0  0  0  0  0  0  0  0
  138.7727  161.4297  132.7187 H   0  0  0  0  0  0  0  0  0  0  0  0
  140.8459  159.4541  131.8249 H   0  0  0  0  0  0  0  0  0  0  0  0
  140.2953  159.7970  133.4710 H   0  0  0  0  0  0  0  0  0  0  0  0
  139.9189  157.8490  134.8606 H   0  0  0  0  0  0  0  0  0  0  0  0
  139.9117  156.0563  134.6518 H   0  0  0  0  0  0  0  0  0  0  0  0
  141.8325  154.8602  133.8055 H   0  0  0  0  0  0  0  0  0  0  0  0
  144.3285  154.8692  133.4819 H   0  0  0  0  0  0  0  0  0  0  0  0
  146.5978  156.6020  133.3375 H   0  0  0  0  0  0  0  0  0  0  0  0
  148.0590  161.3670  133.0890 H   0  0  0  0  0  0  0  0  0  0  0  0
  146.2640  161.3920  133.0220 H   0  0  0  0  0  0  0  0  0  0  0  0
  141.8568  159.2108  134.1217 H   0  0  0  0  0  0  0  0  0  0  0  0
  137.6452  158.0219  130.8824 H   0  0  0  0  0  0  0  0  0  0  0  0
  136.9616  158.6769  132.3776 H   0  0  0  0  0  0  0  0  0  0  0  0
  1  2  1  0
  2  3  1  0
  3  4  1  0
  4  5  1  0
  5  6  1  0
  6  7  2  0
  6  8  1  0
  8  9  1  0
  9 10  2  0
 10 11  1  0
 11 12  2  0
 12 13  1  0
 13 14  2  0
 14 15  1  0
 15 16  1  0
 15 17  2  0
 14 18  1  0
 18 19  1  0
 19 20  2  0
 19 21  1  0
 18 22  1  0
 22 23  2  0
  5 24  1  0
 24  2  1  0
 23  9  1  0
 22 12  1  0
  1 25  1  0
  1 26  1  0
  1 27  1  0
  2 28  1  6
  3 29  1  0
  3 30  1  0
  4 31  1  0
  4 32  1  0
  8 33  1  0
  8 34  1  0
 10 35  1  0
 11 36  1  0
 13 37  1  0
 16 38  1  0
 16 39  1  0
 23 40  1  0
 24 41  1  0
 24 42  1  0
M  CHG  1  21  -1
M  END
>  <UniqueID>  (85) 
84

>  <SMILES>  (85) 
C[C@@H]1CCN(C(=O)Cc2ccc3cc(C(N)=O)n(C(=O)[O-])c3c2)C1

>  <Energy>  (85) 
80.83534599052419

>  <Genealogy>  (85) 
C[C@@H]1CCN(C(=O)Cc2ccc3cc(C(N)=O)n(C(=O)[O-])c3c2)C1 (protonated)
C[C@@H]1CCN(C(=O)Cc2ccc3cc(C(N)=O)n(C(=O)[O-])c3c2)C1 (3D coordinates assigned)
C[C@@H]1CCN(C(=O)Cc2ccc3cc(C(N)=O)n(C(=O)[O-])c3c2)C1 (nonaromatic ring conformer: 80.83534599052419 kcal/mol)

>  <smiles>  (85) 
C[C@@H]1CCN(C(=O)Cc2ccc3cc(C(N)=O)n(C(=O)O)c3c2)C1

>  <score_type>  (85) 
oracle

>  <origin>  (85) 
adg

>  <m_score__min__energy>  (85) 
-7.8899999999999997

>  <m_primary>  (85) 
energy

$$$$
86:0
     RDKit          3D

 34 36  0  0  0  0  0  0  0  0999 V2000
  147.7160  160.9920  132.4590 N   0  0  0  0  0  0  0  0  0  0  0  0
  148.5850  159.8580  132.4160 C   0  0  0  0  0  0  0  0  0  0  0  0
  149.8150  160.0350  132.2060 O   0  0  0  0  0  0  0  0  0  0  0  0
  148.0610  158.4950  132.6530 C   0  0  0  0  0  0  0  0  0  0  0  0
  148.8280  157.3370  132.5340 C   0  0  0  0  0  0  0  0  0  0  0  0
  147.9520  156.2970  132.7370 C   0  0  0  0  0  0  0  0  0  0  0  0
  148.1800  154.9240  132.7370 C   0  0  0  0  0  0  0  0  0  0  0  0
  147.0930  154.0750  133.0010 C   0  0  0  0  0  0  0  0  0  0  0  0
  145.8060  154.6080  133.2690 C   0  0  0  0  0  0  0  0  0  0  0  0
  144.6630  153.7050  133.5520 C   0  0  0  0  0  0  0  0  0  0  0  0
  144.4600  152.5620  132.7610 C   0  0  0  0  0  0  0  0  0  0  0  0
  143.3920  151.7000  133.0180 C   0  0  0  0  0  0  0  0  0  0  0  0
  142.5010  151.9640  134.0710 C   0  0  0  0  0  0  0  0  0  0  0  0
  141.3700  151.0480  134.3400 C   0  0  0  0  0  0  0  0  0  0  0  0
  140.7440  150.5070  133.3890 O   0  0  0  0  0  0  0  0  0  0  0  0
  140.9830  150.7710  135.6460 O   0  0  0  0  0  0  0  0  0  0  0  0
  142.6980  153.1100  134.8590 C   0  0  0  0  0  0  0  0  0  0  0  0
  143.7670  153.9750  134.6040 C   0  0  0  0  0  0  0  0  0  0  0  0
  143.9030  155.0930  135.3620 F   0  0  0  0  0  0  0  0  0  0  0  0
  145.6140  156.0100  133.2540 C   0  0  0  0  0  0  0  0  0  0  0  0
  146.7120  156.8300  132.9700 C   0  0  0  0  0  0  0  0  0  0  0  0
  146.7620  158.1810  132.9230 N   0  0  0  0  0  0  0  0  0  0  0  0
  145.6790  159.0910  133.1820 C   0  0  0  0  0  0  0  0  0  0  0  0
  144.5680  158.9400  132.6100 O   0  0  0  0  0  0  0  0  0  0  0  0
  145.8420  160.1390  134.0800 O   0  0  0  0  0  0  0  0  0  0  0  0
  148.1030  161.9530  132.3290 H   0  0  0  0  0  0  0  0  0  0  0  0
  146.6850  160.8810  132.5780 H   0  0  0  0  0  0  0  0  0  0  0  0
  149.9054  157.2697  132.3226 H   0  0  0  0  0  0  0  0  0  0  0  0
  149.1816  154.5161  132.5362 H   0  0  0  0  0  0  0  0  0  0  0  0
  147.2411  152.9850  133.0000 H   0  0  0  0  0  0  0  0  0  0  0  0
  145.1488  152.3440  131.9315 H   0  0  0  0  0  0  0  0  0  0  0  0
  143.2475  150.8077  132.3912 H   0  0  0  0  0  0  0  0  0  0  0  0
  142.0049  153.3292  135.6845 H   0  0  0  0  0  0  0  0  0  0  0  0
  144.6250  156.4450  133.4607 H   0  0  0  0  0  0  0  0  0  0  0  0
  1  2  1  0
  2  3  2  0
  2  4  1  0
  4  5  2  0
  5  6  1  0
  6  7  2  0
  7  8  1  0
  8  9  2  0
  9 10  1  0
 10 11  2  0
 11 12  1  0
 12 13  2  0
 13 14  1  0
 14 15  2  0
 14 16  1  0
 13 17  1  0
 17 18  2  0
 18 19  1  0
  9 20  1  0
 20 21  2  0
 21 22  1  0
 22 23  1  0
 23 24  2  0
 23 25  1  0
 22  4  1  0
 21  6  1  0
 18 10  1  0
  1 26  1  0
  1 27  1  0
  5 28  1  0
  7 29  1  0
  8 30  1  0
 11 31  1  0
 12 32  1  0
 17 33  1  0
 20 34  1  0
M  CHG  2  16  -1  25  -1
M  END
>  <UniqueID>  (86) 
85

>  <SMILES>  (86) 
NC(=O)c1cc2ccc(-c3ccc(C(=O)[O-])cc3F)cc2n1C(=O)[O-]

>  <Energy>  (86) 
83.06425400480191

>  <Genealogy>  (86) 
NC(=O)c1cc2ccc(-c3ccc(C(=O)[O-])cc3F)cc2n1C(=O)[O-] (protonated)
NC(=O)c1cc2ccc(-c3ccc(C(=O)[O-])cc3F)cc2n1C(=O)[O-] (3D coordinates assigned)
NC(=O)c1cc2ccc(-c3ccc(C(=O)[O-])cc3F)cc2n1C(=O)[O-] (optimized conformer: 83.06425400480191 kcal/mol)

>  <smiles>  (86) 
NC(=O)c1cc2ccc(-c3ccc(C(=O)O)cc3F)cc2n1C(=O)O

>  <score_type>  (86) 
oracle

>  <origin>  (86) 
adg

>  <m_score__min__energy>  (86) 
-7.6500000000000004

>  <m_primary>  (86) 
energy

$$$$
87:0
     RDKit          3D

 68 70  0  0  0  0  0  0  0  0999 V2000
  149.4500  161.1150  130.3720 C   0  0  0  0  0  0  0  0  0  0  0  0
  149.8390  159.7370  130.9090 C   0  0  0  0  0  0  0  0  0  0  0  0
  148.7090  159.0730  131.7110 C   0  0  0  0  0  0  0  0  0  0  0  0
  147.8520  160.0900  132.4720 C   0  0  0  0  0  0  0  0  0  0  0  0
  146.4760  159.7260  132.4170 O   0  0  0  0  0  0  0  0  0  0  0  0
  145.8350  158.9690  133.4050 C   0  0  0  0  0  0  0  0  0  0  0  0
  146.4690  158.0880  134.0470 O   0  0  0  0  0  0  0  0  0  0  0  0
  144.4320  159.1620  133.6460 N   0  0  0  0  0  0  0  0  0  0  0  0
  143.7750  160.3330  133.8880 C   0  0  0  0  0  0  0  0  0  0  0  0
  144.3530  161.6910  133.8100 C   0  0  0  0  0  0  0  0  0  0  0  0
  145.7280  161.9210  134.1030 N   0  0  0  0  0  0  0  0  0  0  0  0
  143.6310  162.6550  133.4370 O   0  0  0  0  0  0  0  0  0  0  0  0
  142.4240  160.0910  134.1300 C   0  0  0  0  0  0  0  0  0  0  0  0
  142.2690  158.7280  134.0150 C   0  0  0  0  0  0  0  0  0  0  0  0
  141.1310  157.9430  134.1450 C   0  0  0  0  0  0  0  0  0  0  0  0
  141.2630  156.5550  133.9790 C   0  0  0  0  0  0  0  0  0  0  0  0
  142.5280  155.9670  133.6990 C   0  0  0  0  0  0  0  0  0  0  0  0
  142.6530  154.5320  133.5290 N   0  0  0  0  0  0  0  0  0  0  0  0
  141.7280  153.5630  134.1020 C   0  0  0  0  0  0  0  0  0  0  0  0
  142.2950  152.1910  133.7560 C   0  0  0  0  0  0  0  0  0  0  0  0
  143.2980  152.4300  132.6360 C   0  0  0  0  0  0  0  0  0  0  0  0
  143.7170  153.8900  132.7690 C   0  0  2  0  0  0  0  0  0  0  0  0
  144.9370  153.9870  133.5030 O   0  0  0  0  0  0  0  0  0  0  0  0
  146.0960  154.5900  133.0030 C   0  0  0  0  0  0  0  0  0  0  0  0
  146.0550  155.2600  131.9340 O   0  0  0  0  0  0  0  0  0  0  0  0
  147.3350  154.4450  133.7200 N   0  0  0  0  0  0  0  0  0  0  0  0
  148.5320  154.0470  132.9710 C   0  0  0  0  0  0  0  0  0  0  0  0
  147.4380  154.8430  135.1320 C   0  0  0  0  0  0  0  0  0  0  0  0
  146.4150  154.1140  136.0340 C   0  0  0  0  0  0  0  0  0  0  0  0
  146.9760  153.0950  136.9530 N   0  0  0  0  0  0  0  0  0  0  0  0
  146.2270  152.9540  138.2100 C   0  0  0  0  0  0  0  0  0  0  0  0
  148.4190  153.2400  137.1930 C   0  0  0  0  0  0  0  0  0  0  0  0
  143.6620  156.8090  133.5810 C   0  0  0  0  0  0  0  0  0  0  0  0
  143.4950  158.1900  133.7250 C   0  0  0  0  0  0  0  0  0  0  0  0
  149.2578  161.7959  131.2143 H   0  0  0  0  0  0  0  0  0  0  0  0
  150.2706  161.5142  129.7577 H   0  0  0  0  0  0  0  0  0  0  0  0
  148.5418  161.0262  129.7577 H   0  0  0  0  0  0  0  0  0  0  0  0
  150.0960  159.0877  130.0591 H   0  0  0  0  0  0  0  0  0  0  0  0
  150.6930  159.8740  131.5887 H   0  0  0  0  0  0  0  0  0  0  0  0
  148.0626  158.5174  131.0157 H   0  0  0  0  0  0  0  0  0  0  0  0
  149.1733  158.4065  132.4527 H   0  0  0  0  0  0  0  0  0  0  0  0
  148.1760  160.1216  133.5227 H   0  0  0  0  0  0  0  0  0  0  0  0
  147.9765  161.0785  132.0058 H   0  0  0  0  0  0  0  0  0  0  0  0
  146.4750  161.6610  133.4200 H   0  0  0  0  0  0  0  0  0  0  0  0
  141.6458  160.8326  134.3636 H   0  0  0  0  0  0  0  0  0  0  0  0
  140.1543  158.3955  134.3715 H   0  0  0  0  0  0  0  0  0  0  0  0
  140.3746  155.9122  134.0668 H   0  0  0  0  0  0  0  0  0  0  0  0
  141.6691  153.6888  135.1932 H   0  0  0  0  0  0  0  0  0  0  0  0
  140.7102  153.6918  133.7051 H   0  0  0  0  0  0  0  0  0  0  0  0
  142.7952  151.7509  134.6313 H   0  0  0  0  0  0  0  0  0  0  0  0
  141.5041  151.4904  133.4499 H   0  0  0  0  0  0  0  0  0  0  0  0
  144.1688  151.7680  132.7521 H   0  0  0  0  0  0  0  0  0  0  0  0
  142.8641  152.2184  131.6476 H   0  0  0  0  0  0  0  0  0  0  0  0
  143.8730  154.3556  131.7847 H   0  0  0  0  0  0  0  0  0  0  0  0
  149.3336  153.7805  133.6755 H   0  0  0  0  0  0  0  0  0  0  0  0
  148.2966  153.1788  132.3379 H   0  0  0  0  0  0  0  0  0  0  0  0
  148.8633  154.8833  132.3379 H   0  0  0  0  0  0  0  0  0  0  0  0
  148.4517  154.6101  135.4902 H   0  0  0  0  0  0  0  0  0  0  0  0
  147.2234  155.9203  135.1899 H   0  0  0  0  0  0  0  0  0  0  0  0
  145.9020  154.8724  136.6437 H   0  0  0  0  0  0  0  0  0  0  0  0
  145.7508  153.5657  135.3497 H   0  0  0  0  0  0  0  0  0  0  0  0
  146.9117  153.0829  139.0612 H   0  0  0  0  0  0  0  0  0  0  0  0
  145.4383  153.7194  138.2547 H   0  0  0  0  0  0  0  0  0  0  0  0
  145.7706  151.9541  138.2547 H   0  0  0  0  0  0  0  0  0  0  0  0
  148.6105  153.2592  138.2760 H   0  0  0  0  0  0  0  0  0  0  0  0
  148.9530  152.3910  136.7413 H   0  0  0  0  0  0  0  0  0  0  0  0
  148.7734  154.1783  136.7413 H   0  0  0  0  0  0  0  0  0  0  0  0
  144.6562  156.3836  133.3796 H   0  0  0  0  0  0  0  0  0  0  0  0
  1  2  1  0
  2  3  1  0
  3  4  1  0
  4  5  1  0
  5  6  1  0
  6  7  2  0
  6  8  1  0
  8  9  1  0
  9 10  1  0
 10 11  1  0
 10 12  2  0
  9 13  2  0
 13 14  1  0
 14 15  2  0
 15 16  1  0
 16 17  2  0
 17 18  1  0
 18 19  1  0
 19 20  1  0
 20 21  1  0
 21 22  1  0
 22 23  1  0
 23 24  1  0
 24 25  2  0
 24 26  1  0
 26 27  1  0
 26 28  1  0
 28 29  1  0
 29 30  1  0
 30 31  1  0
 30 32  1  0
 17 33  1  0
 33 34  2  0
 34  8  1  0
 34 14  1  0
 22 18  1  0
  1 35  1  0
  1 36  1  0
  1 37  1  0
  2 38  1  0
  2 39  1  0
  3 40  1  0
  3 41  1  0
  4 42  1  0
  4 43  1  0
 11 44  1  0
 13 45  1  0
 15 46  1  0
 16 47  1  0
 19 48  1  0
 19 49  1  0
 20 50  1  0
 20 51  1  0
 21 52  1  0
 21 53  1  0
 22 54  1  6
 27 55  1  0
 27 56  1  0
 27 57  1  0
 28 58  1  0
 28 59  1  0
 29 60  1  0
 29 61  1  0
 31 62  1  0
 31 63  1  0
 31 64  1  0
 32 65  1  0
 32 66  1  0
 32 67  1  0
 33 68  1  0
M  CHG  1  11  -1
M  END
>  <UniqueID>  (87) 
86

>  <SMILES>  (87) 
CCCCOC(=O)n1c(C([NH-])=O)cc2ccc(N3CCC[C@@H]3OC(=O)N(C)CCN(C)C)cc21

>  <Energy>  (87) 
97.70021723615736

>  <Genealogy>  (87) 
CCCCOC(=O)n1c(C([NH-])=O)cc2ccc(N3CCCC3OC(=O)N(C)CCN(C)C)cc21 (protonated)
CCCCOC(=O)n1c(C([NH-])=O)cc2ccc(N3CCC[C@@H]3OC(=O)N(C)CCN(C)C)cc21 (chirality)
CCCCOC(=O)n1c(C([NH-])=O)cc2ccc(N3CCC[C@@H]3OC(=O)N(C)CCN(C)C)cc21 (3D coordinates assigned)
CCCCOC(=O)n1c(C([NH-])=O)cc2ccc(N3CCC[C@@H]3OC(=O)N(C)CCN(C)C)cc21 (nonaromatic ring conformer: 97.70021723615736 kcal/mol)

>  <smiles>  (87) 
CCCCOC(=O)n1c(C(N)=O)cc2ccc(N3CCCC3OC(=O)N(C)CCN(C)C)cc21

>  <score_type>  (87) 
oracle

>  <origin>  (87) 
adg

>  <m_score__min__energy>  (87) 
-8.4299999999999997

>  <m_primary>  (87) 
energy

$$$$
88:0
     RDKit          3D

 28 30  0  0  0  0  0  0  0  0999 V2000
  141.3640  160.8720  133.7730 N   0  0  0  0  0  0  0  0  0  0  0  0
  142.2330  160.0630  134.5600 C   0  0  0  0  0  0  0  0  0  0  0  0
  141.8030  159.5590  135.6320 O   0  0  0  0  0  0  0  0  0  0  0  0
  143.6070  159.7610  134.1100 C   0  0  0  0  0  0  0  0  0  0  0  0
  144.0610  158.4680  133.8550 C   0  0  0  0  0  0  0  0  0  0  0  0
  145.3420  158.6180  133.3770 C   0  0  0  0  0  0  0  0  0  0  0  0
  146.2690  157.6560  132.9870 C   0  0  0  0  0  0  0  0  0  0  0  0
  147.5370  158.0950  132.5680 C   0  0  0  0  0  0  0  0  0  0  0  0
  147.8480  159.4770  132.5370 C   0  0  0  0  0  0  0  0  0  0  0  0
  149.2280  159.9330  132.1470 C   0  0  1  0  0  0  0  0  0  0  0  0
  149.9830  158.9940  131.2050 C   0  0  0  0  0  0  0  0  0  0  0  0
  149.4140  160.2970  130.6810 C   0  0  0  0  0  0  0  0  0  0  0  0
  150.3540  161.2730  130.4090 F   0  0  0  0  0  0  0  0  0  0  0  0
  148.3320  160.1510  129.8290 F   0  0  0  0  0  0  0  0  0  0  0  0
  146.8900  160.4230  132.9650 C   0  0  0  0  0  0  0  0  0  0  0  0
  145.6290  159.9590  133.3590 C   0  0  0  0  0  0  0  0  0  0  0  0
  144.5750  160.6750  133.8100 N   0  0  0  0  0  0  0  0  0  0  0  0
  144.5370  162.0970  134.0080 C   0  0  0  0  0  0  0  0  0  0  0  0
  145.3860  162.6590  134.7500 O   0  0  0  0  0  0  0  0  0  0  0  0
  143.5810  162.8700  133.3620 O   0  0  0  0  0  0  0  0  0  0  0  0
  141.6810  161.7930  133.3950 H   0  0  0  0  0  0  0  0  0  0  0  0
  143.5113  157.5270  134.0044 H   0  0  0  0  0  0  0  0  0  0  0  0
  146.0173  156.5854  133.0060 H   0  0  0  0  0  0  0  0  0  0  0  0
  148.2947  157.3589  132.2614 H   0  0  0  0  0  0  0  0  0  0  0  0
  149.4468  160.4254  133.1060 H   0  0  0  0  0  0  0  0  0  0  0  0
  151.0713  158.8706  131.3072 H   0  0  0  0  0  0  0  0  0  0  0  0
  149.8895  157.9350  130.9227 H   0  0  0  0  0  0  0  0  0  0  0  0
  147.1286  161.4966  132.9881 H   0  0  0  0  0  0  0  0  0  0  0  0
  1  2  1  0
  2  3  2  0
  2  4  1  0
  4  5  2  0
  5  6  1  0
  6  7  2  0
  7  8  1  0
  8  9  2  0
  9 10  1  0
 10 11  1  0
 11 12  1  0
 12 13  1  0
 12 14  1  0
  9 15  1  0
 15 16  2  0
 16 17  1  0
 17 18  1  0
 18 19  2  0
 18 20  1  0
 17  4  1  0
 16  6  1  0
 12 10  1  0
  1 21  1  0
  5 22  1  0
  7 23  1  0
  8 24  1  0
 10 25  1  1
 11 26  1  0
 11 27  1  0
 15 28  1  0
M  CHG  2   1  -1  20  -1
M  END
>  <UniqueID>  (88) 
87

>  <SMILES>  (88) 
[NH-]C(=O)c1cc2ccc([C@H]3CC3(F)F)cc2n1C(=O)[O-]

>  <Energy>  (88) 
338.6894720182966

>  <Genealogy>  (88) 
[NH-]C(=O)c1cc2ccc(C3CC3(F)F)cc2n1C(=O)[O-] (protonated)
[NH-]C(=O)c1cc2ccc([C@H]3CC3(F)F)cc2n1C(=O)[O-] (chirality)
[NH-]C(=O)c1cc2ccc([C@H]3CC3(F)F)cc2n1C(=O)[O-] (3D coordinates assigned)
[NH-]C(=O)c1cc2ccc([C@H]3CC3(F)F)cc2n1C(=O)[O-] (nonaromatic ring conformer: 338.6894720182966 kcal/mol)

>  <smiles>  (88) 
NC(=O)c1cc2ccc(C3CC3(F)F)cc2n1C(=O)O

>  <score_type>  (88) 
oracle

>  <origin>  (88) 
adg

>  <m_score__min__energy>  (88) 
-6.46

>  <m_primary>  (88) 
energy

$$$$
89:0
     RDKit          3D

 55 56  0  0  0  0  0  0  0  0999 V2000
  149.5460  153.7240  132.3490 C   0  0  0  0  0  0  0  0  0  0  0  0
  148.8410  152.3510  132.2310 C   0  0  0  0  0  0  0  0  0  0  0  0
  149.8010  151.2080  132.6040 C   0  0  0  0  0  0  0  0  0  0  0  0
  147.5420  152.2400  132.9580 N   0  0  2  0  0  0  0  0  0  0  0  0
  146.4670  151.6480  132.1370 C   0  0  0  0  0  0  0  0  0  0  0  0
  147.0710  153.4900  133.5540 C   0  0  0  0  0  0  0  0  0  0  0  0
  147.5410  153.8810  134.6150 O   0  0  0  0  0  0  0  0  0  0  0  0
  146.0280  154.3730  132.8910 C   0  0  0  0  0  0  0  0  0  0  0  0
  146.2700  155.8490  133.0440 C   0  0  0  0  0  0  0  0  0  0  0  0
  147.5110  156.4190  132.6490 C   0  0  0  0  0  0  0  0  0  0  0  0
  147.7200  157.8070  132.7480 C   0  0  0  0  0  0  0  0  0  0  0  0
  146.6720  158.5980  133.2200 C   0  0  0  0  0  0  0  0  0  0  0  0
  146.6010  159.9590  133.3990 C   0  0  0  0  0  0  0  0  0  0  0  0
  145.3040  160.2010  133.8550 C   0  0  0  0  0  0  0  0  0  0  0  0
  144.7410  161.5560  134.0500 C   0  0  0  0  0  0  0  0  0  0  0  0
  143.3800  161.8190  133.7090 N   0  0  0  0  0  0  0  0  0  0  0  0
  145.4290  162.4610  134.5890 O   0  0  0  0  0  0  0  0  0  0  0  0
  144.6070  159.0340  133.9540 N   0  0  0  0  0  0  0  0  0  0  0  0
  143.2610  158.8570  134.4120 C   0  0  0  0  0  0  0  0  0  0  0  0
  142.8080  159.5940  135.3290 O   0  0  0  0  0  0  0  0  0  0  0  0
  142.4360  157.9040  133.8050 O   0  0  0  0  0  0  0  0  0  0  0  0
  141.7110  158.1600  132.6050 C   0  0  0  0  0  0  0  0  0  0  0  0
  140.5590  159.0720  132.8970 C   0  0  0  0  0  0  0  0  0  0  0  0
  140.7690  160.2520  133.2930 O   0  0  0  0  0  0  0  0  0  0  0  0
  139.2150  158.6000  132.7450 N   0  0  0  0  0  0  0  0  0  0  0  0
  138.3990  159.0670  131.6210 C   0  0  0  0  0  0  0  0  0  0  0  0
  138.7460  157.4890  133.5760 C   0  0  0  0  0  0  0  0  0  0  0  0
  145.4610  158.0600  133.5760 C   0  0  0  0  0  0  0  0  0  0  0  0
  145.2340  156.6810  133.5220 C   0  0  0  0  0  0  0  0  0  0  0  0
  149.6769  153.9789  133.4110 H   0  0  0  0  0  0  0  0  0  0  0  0
  150.5300  153.6741  131.8599 H   0  0  0  0  0  0  0  0  0  0  0  0
  148.9321  154.4946  131.8599 H   0  0  0  0  0  0  0  0  0  0  0  0
  148.5655  152.2592  131.1700 H   0  0  0  0  0  0  0  0  0  0  0  0
  149.8681  151.1281  133.6990 H   0  0  0  0  0  0  0  0  0  0  0  0
  149.4229  150.2617  132.1898 H   0  0  0  0  0  0  0  0  0  0  0  0
  150.7984  151.4170  132.1898 H   0  0  0  0  0  0  0  0  0  0  0  0
  147.7320  151.5570  133.7290 H   0  0  0  0  0  0  0  0  0  0  0  0
  145.6949  151.2228  132.7951 H   0  0  0  0  0  0  0  0  0  0  0  0
  146.0193  152.4268  131.5021 H   0  0  0  0  0  0  0  0  0  0  0  0
  146.8859  150.8533  131.5021 H   0  0  0  0  0  0  0  0  0  0  0  0
  146.0116  154.1374  131.8167 H   0  0  0  0  0  0  0  0  0  0  0  0
  145.0732  154.1595  133.3937 H   0  0  0  0  0  0  0  0  0  0  0  0
  148.3124  155.7714  132.2638 H   0  0  0  0  0  0  0  0  0  0  0  0
  148.6825  158.2558  132.4613 H   0  0  0  0  0  0  0  0  0  0  0  0
  147.3956  160.6986  133.2211 H   0  0  0  0  0  0  0  0  0  0  0  0
  142.6810  161.0260  133.7260 H   0  0  0  0  0  0  0  0  0  0  0  0
  142.3768  158.6355  131.8697 H   0  0  0  0  0  0  0  0  0  0  0  0
  141.3310  157.2109  132.1990 H   0  0  0  0  0  0  0  0  0  0  0  0
  137.5044  159.5790  132.0052 H   0  0  0  0  0  0  0  0  0  0  0  0
  138.9861  159.7658  131.0071 H   0  0  0  0  0  0  0  0  0  0  0  0
  138.0939  158.2068  131.0071 H   0  0  0  0  0  0  0  0  0  0  0  0
  138.8574  157.7530  134.6380 H   0  0  0  0  0  0  0  0  0  0  0  0
  137.6867  157.2891  133.3571 H   0  0  0  0  0  0  0  0  0  0  0  0
  139.3416  156.5905  133.3571 H   0  0  0  0  0  0  0  0  0  0  0  0
  144.2722  156.2551  133.8439 H   0  0  0  0  0  0  0  0  0  0  0  0
  1  2  1  0
  2  3  1  0
  2  4  1  0
  4  5  1  0
  4  6  1  0
  6  7  2  0
  6  8  1  0
  8  9  1  0
  9 10  2  0
 10 11  1  0
 11 12  2  0
 12 13  1  0
 13 14  2  0
 14 15  1  0
 15 16  1  0
 15 17  2  0
 14 18  1  0
 18 19  1  0
 19 20  2  0
 19 21  1  0
 21 22  1  0
 22 23  1  0
 23 24  2  0
 23 25  1  0
 25 26  1  0
 25 27  1  0
 18 28  1  0
 28 29  2  0
 29  9  1  0
 28 12  1  0
  1 30  1  0
  1 31  1  0
  1 32  1  0
  2 33  1  0
  3 34  1  0
  3 35  1  0
  3 36  1  0
  4 37  1  1
  5 38  1  0
  5 39  1  0
  5 40  1  0
  8 41  1  0
  8 42  1  0
 10 43  1  0
 11 44  1  0
 13 45  1  0
 16 46  1  0
 22 47  1  0
 22 48  1  0
 26 49  1  0
 26 50  1  0
 26 51  1  0
 27 52  1  0
 27 53  1  0
 27 54  1  0
 29 55  1  0
M  CHG  2   4   1  16  -1
M  END
>  <UniqueID>  (89) 
88

>  <SMILES>  (89) 
CC(C)[N@H+](C)C(=O)Cc1ccc2cc(C([NH-])=O)n(C(=O)OCC(=O)N(C)C)c2c1

>  <Energy>  (89) 
98.9032067837532

>  <Genealogy>  (89) 
CC(C)[NH+](C)C(=O)Cc1ccc2cc(C([NH-])=O)n(C(=O)OCC(=O)N(C)C)c2c1 (protonated)
CC(C)[N@H+](C)C(=O)Cc1ccc2cc(C([NH-])=O)n(C(=O)OCC(=O)N(C)C)c2c1 (chirality)
CC(C)[N@H+](C)C(=O)Cc1ccc2cc(C([NH-])=O)n(C(=O)OCC(=O)N(C)C)c2c1 (3D coordinates assigned)
CC(C)[N@H+](C)C(=O)Cc1ccc2cc(C([NH-])=O)n(C(=O)OCC(=O)N(C)C)c2c1 (optimized conformer: 98.9032067837532 kcal/mol)

>  <smiles>  (89) 
CC(C)N(C)C(=O)Cc1ccc2cc(C(N)=O)n(C(=O)OCC(=O)N(C)C)c2c1

>  <score_type>  (89) 
oracle

>  <origin>  (89) 
adg

>  <m_score__min__energy>  (89) 
-7.6900000000000004

>  <m_primary>  (89) 
energy

$$$$
90:0
     RDKit          3D

 60 61  0  0  0  0  0  0  0  0999 V2000
  139.9670  157.5910  133.0590 C   0  0  0  0  0  0  0  0  0  0  0  0
  140.4000  158.4070  134.2840 C   0  0  1  0  0  0  0  0  0  0  0  0
  140.3960  157.6030  135.5580 C   0  0  0  0  0  0  0  0  0  0  0  0
  140.5540  156.3510  135.5330 O   0  0  0  0  0  0  0  0  0  0  0  0
  140.2720  158.2810  136.7760 O   0  0  0  0  0  0  0  0  0  0  0  0
  141.3480  158.9660  137.4160 C   0  0  0  0  0  0  0  0  0  0  0  0
  141.8260  158.1930  138.6470 C   0  0  0  0  0  0  0  0  0  0  0  0
  142.1340  156.8510  138.3210 O   0  0  0  0  0  0  0  0  0  0  0  0
  141.9410  155.9900  139.4270 C   0  0  0  0  0  0  0  0  0  0  0  0
  140.5660  155.3220  139.3440 C   0  0  0  0  0  0  0  0  0  0  0  0
  139.9120  155.6670  138.1530 O   0  0  0  0  0  0  0  0  0  0  0  0
  141.7650  159.0270  134.0680 C   0  0  0  0  0  0  0  0  0  0  0  0
  141.9090  160.4350  133.9430 C   0  0  0  0  0  0  0  0  0  0  0  0
  143.1730  161.0130  133.7340 C   0  0  0  0  0  0  0  0  0  0  0  0
  144.2710  160.1650  133.6540 C   0  0  0  0  0  0  0  0  0  0  0  0
  145.6060  160.4540  133.4750 C   0  0  0  0  0  0  0  0  0  0  0  0
  146.2560  159.2210  133.4900 C   0  0  0  0  0  0  0  0  0  0  0  0
  147.7020  159.0370  133.2480 C   0  0  0  0  0  0  0  0  0  0  0  0
  148.4750  158.1620  134.0710 N   0  0  0  0  0  0  0  0  0  0  0  0
  148.2730  159.6830  132.3330 O   0  0  0  0  0  0  0  0  0  0  0  0
  145.3590  158.2140  133.6770 N   0  0  0  0  0  0  0  0  0  0  0  0
  145.6320  156.8240  133.9180 C   0  0  0  0  0  0  0  0  0  0  0  0
  146.3130  156.4920  134.9250 O   0  0  0  0  0  0  0  0  0  0  0  0
  145.1330  155.7550  132.9770 C   0  0  0  0  0  0  0  0  0  0  0  0
  143.7490  155.2210  133.3740 C   0  0  0  0  0  0  0  0  0  0  0  0
  143.7330  154.6600  134.8010 C   0  0  0  0  0  0  0  0  0  0  0  0
  142.0910  154.1250  135.2420 S   0  0  0  0  0  0  0  0  0  0  0  0
  141.9290  152.3640  135.0440 C   0  0  0  0  0  0  0  0  0  0  0  0
  141.7540  154.5540  136.8320 O   0  0  0  0  0  0  0  0  0  0  0  0
  144.1500  158.8050  133.7680 C   0  0  0  0  0  0  0  0  0  0  0  0
  142.9080  158.2010  133.9800 C   0  0  0  0  0  0  0  0  0  0  0  0
  139.4754  156.6646  133.3907 H   0  0  0  0  0  0  0  0  0  0  0  0
  139.2642  158.1827  132.4540 H   0  0  0  0  0  0  0  0  0  0  0  0
  140.8509  157.3407  132.4540 H   0  0  0  0  0  0  0  0  0  0  0  0
  139.6511  159.2044  134.3999 H   0  0  0  0  0  0  0  0  0  0  0  0
  142.1831  159.0684  136.7074 H   0  0  0  0  0  0  0  0  0  0  0  0
  140.9951  159.9574  137.7363 H   0  0  0  0  0  0  0  0  0  0  0  0
  142.7265  158.6802  139.0492 H   0  0  0  0  0  0  0  0  0  0  0  0
  141.0183  158.1934  139.3937 H   0  0  0  0  0  0  0  0  0  0  0  0
  142.7219  155.2153  139.4249 H   0  0  0  0  0  0  0  0  0  0  0  0
  141.9983  156.5789  140.3543 H   0  0  0  0  0  0  0  0  0  0  0  0
  140.6935  154.2301  139.3813 H   0  0  0  0  0  0  0  0  0  0  0  0
  139.9563  155.6675  140.1919 H   0  0  0  0  0  0  0  0  0  0  0  0
  140.5430  156.2400  137.6420 H   0  0  0  0  0  0  0  0  0  0  0  0
  141.0207  161.0803  134.0106 H   0  0  0  0  0  0  0  0  0  0  0  0
  143.2895  162.1025  133.6368 H   0  0  0  0  0  0  0  0  0  0  0  0
  146.0621  161.4468  133.3474 H   0  0  0  0  0  0  0  0  0  0  0  0
  148.0320  157.5970  134.8290 H   0  0  0  0  0  0  0  0  0  0  0  0
  149.5030  158.0680  133.9140 H   0  0  0  0  0  0  0  0  0  0  0  0
  145.0703  156.1784  131.9637 H   0  0  0  0  0  0  0  0  0  0  0  0
  145.8408  154.9141  133.0211 H   0  0  0  0  0  0  0  0  0  0  0  0
  143.0200  156.0420  133.3078 H   0  0  0  0  0  0  0  0  0  0  0  0
  143.4925  154.4020  132.6859 H   0  0  0  0  0  0  0  0  0  0  0  0
  144.4212  153.8040  134.8613 H   0  0  0  0  0  0  0  0  0  0  0  0
  144.0493  155.4502  135.4978 H   0  0  0  0  0  0  0  0  0  0  0  0
  141.8850  151.8862  136.0339 H   0  0  0  0  0  0  0  0  0  0  0  0
  141.0065  152.1409  134.4879 H   0  0  0  0  0  0  0  0  0  0  0  0
  142.7953  151.9763  134.4879 H   0  0  0  0  0  0  0  0  0  0  0  0
  141.5140  155.5150  136.7910 H   0  0  0  0  0  0  0  0  0  0  0  0
  142.8221  157.1086  134.0761 H   0  0  0  0  0  0  0  0  0  0  0  0
  1  2  1  0
  2  3  1  0
  3  4  2  0
  3  5  1  0
  5  6  1  0
  6  7  1  0
  7  8  1  0
  8  9  1  0
  9 10  1  0
 10 11  1  0
  2 12  1  0
 12 13  2  0
 13 14  1  0
 14 15  2  0
 15 16  1  0
 16 17  2  0
 17 18  1  0
 18 19  1  0
 18 20  2  0
 17 21  1  0
 21 22  1  0
 22 23  2  0
 22 24  1  0
 24 25  1  0
 25 26  1  0
 26 27  1  0
 27 28  1  0
 27 29  1  1
 21 30  1  0
 30 31  2  0
 31 12  1  0
 30 15  1  0
  1 32  1  0
  1 33  1  0
  1 34  1  0
  2 35  1  1
  6 36  1  0
  6 37  1  0
  7 38  1  0
  7 39  1  0
  9 40  1  0
  9 41  1  0
 10 42  1  0
 10 43  1  0
 11 44  1  0
 13 45  1  0
 14 46  1  0
 16 47  1  0
 19 48  1  0
 19 49  1  0
 24 50  1  0
 24 51  1  0
 25 52  1  0
 25 53  1  0
 26 54  1  0
 26 55  1  0
 28 56  1  0
 28 57  1  0
 28 58  1  0
 29 59  1  0
 31 60  1  0
M  CHG  1  27   1
M  END
>  <UniqueID>  (90) 
89

>  <SMILES>  (90) 
C[C@@H](C(=O)OCCOCCO)c1ccc2cc(C(N)=O)n(C(=O)CCC[S@@+](C)O)c2c1

>  <Energy>  (90) 
82.35711871789158

>  <Genealogy>  (90) 
CC(C(=O)OCCOCCO)c1ccc2cc(C(N)=O)n(C(=O)CCC[S+](C)O)c2c1 (protonated)
C[C@@H](C(=O)OCCOCCO)c1ccc2cc(C(N)=O)n(C(=O)CCC[S@@+](C)O)c2c1 (chirality)
C[C@@H](C(=O)OCCOCCO)c1ccc2cc(C(N)=O)n(C(=O)CCC[S@@+](C)O)c2c1 (3D coordinates assigned)
C[C@@H](C(=O)OCCOCCO)c1ccc2cc(C(N)=O)n(C(=O)CCC[S@@+](C)O)c2c1 (optimized conformer: 82.35711871789158 kcal/mol)

>  <smiles>  (90) 
CC(C(=O)OCCOCCO)c1ccc2cc(C(N)=O)n(C(=O)CCC[S+](C)[O-])c2c1

>  <score_type>  (90) 
oracle

>  <origin>  (90) 
adg

>  <m_score__min__energy>  (90) 
-7.3700000000000001

>  <m_primary>  (90) 
energy

$$$$
91:0
     RDKit          3D

 42 43  0  0  0  0  0  0  0  0999 V2000
  150.7550  149.8930  129.6350 C   0  0  0  0  0  0  0  0  0  0  0  0
  150.4830  150.3330  131.0690 C   0  0  0  0  0  0  0  0  0  0  0  0
  149.6560  151.4940  131.0840 O   0  0  0  0  0  0  0  0  0  0  0  0
  148.7620  151.7900  132.1180 C   0  0  0  0  0  0  0  0  0  0  0  0
  147.6680  151.1720  132.2260 O   0  0  0  0  0  0  0  0  0  0  0  0
  149.1430  152.8190  133.1380 C   0  0  0  0  0  0  0  0  0  0  0  0
  149.2270  154.2270  132.5270 C   0  0  0  0  0  0  0  0  0  0  0  0
  147.9870  155.0500  132.7880 C   0  0  0  0  0  0  0  0  0  0  0  0
  146.7880  154.4190  133.2080 C   0  0  0  0  0  0  0  0  0  0  0  0
  145.6430  155.1780  133.5060 C   0  0  0  0  0  0  0  0  0  0  0  0
  145.7270  156.5610  133.3790 C   0  0  0  0  0  0  0  0  0  0  0  0
  144.7980  157.5380  133.6590 C   0  0  0  0  0  0  0  0  0  0  0  0
  145.4450  158.7470  133.4020 C   0  0  0  0  0  0  0  0  0  0  0  0
  144.8010  160.0710  133.5340 C   0  0  0  0  0  0  0  0  0  0  0  0
  145.5760  161.2350  133.8080 N   0  0  0  0  0  0  0  0  0  0  0  0
  143.5570  160.1810  133.3680 O   0  0  0  0  0  0  0  0  0  0  0  0
  146.7200  158.5220  132.9810 N   0  0  0  0  0  0  0  0  0  0  0  0
  147.7570  159.4850  132.7580 C   0  0  0  0  0  0  0  0  0  0  0  0
  148.2380  160.1240  133.7330 O   0  0  0  0  0  0  0  0  0  0  0  0
  148.1760  159.8300  131.3600 C   0  0  0  0  0  0  0  0  0  0  0  0
  149.6150  159.3910  131.1160 C   0  0  0  0  0  0  0  0  0  0  0  0
  146.8760  157.1830  132.9680 C   0  0  0  0  0  0  0  0  0  0  0  0
  148.0290  156.4560  132.6580 C   0  0  0  0  0  0  0  0  0  0  0  0
  151.3334  148.9574  129.6420 H   0  0  0  0  0  0  0  0  0  0  0  0
  149.8000  149.7298  129.1141 H   0  0  0  0  0  0  0  0  0  0  0  0
  151.3279  150.6744  129.1141 H   0  0  0  0  0  0  0  0  0  0  0  0
  149.9753  149.5193  131.6077 H   0  0  0  0  0  0  0  0  0  0  0  0
  151.4398  150.5700  131.5572 H   0  0  0  0  0  0  0  0  0  0  0  0
  148.3884  152.8230  133.9384 H   0  0  0  0  0  0  0  0  0  0  0  0
  150.1365  152.5579  133.5314 H   0  0  0  0  0  0  0  0  0  0  0  0
  150.0931  154.7480  132.9610 H   0  0  0  0  0  0  0  0  0  0  0  0
  149.3263  154.1114  131.4376 H   0  0  0  0  0  0  0  0  0  0  0  0
  146.7538  153.3235  133.3015 H   0  0  0  0  0  0  0  0  0  0  0  0
  144.7098  154.6937  133.8295 H   0  0  0  0  0  0  0  0  0  0  0  0
  143.7655  157.3955  134.0105 H   0  0  0  0  0  0  0  0  0  0  0  0
  146.4930  161.3920  133.3350 H   0  0  0  0  0  0  0  0  0  0  0  0
  147.5143  159.3179  130.6459 H   0  0  0  0  0  0  0  0  0  0  0  0
  148.1060  160.9193  131.2238 H   0  0  0  0  0  0  0  0  0  0  0  0
  150.1200  159.2370  132.0810 H   0  0  0  0  0  0  0  0  0  0  0  0
  149.6197  158.4506  130.5454 H   0  0  0  0  0  0  0  0  0  0  0  0
  150.1439  160.1687  130.5454 H   0  0  0  0  0  0  0  0  0  0  0  0
  148.9444  156.9650  132.3219 H   0  0  0  0  0  0  0  0  0  0  0  0
  1  2  1  0
  2  3  1  0
  3  4  1  0
  4  5  2  0
  4  6  1  0
  6  7  1  0
  7  8  1  0
  8  9  2  0
  9 10  1  0
 10 11  2  0
 11 12  1  0
 12 13  2  0
 13 14  1  0
 14 15  1  0
 14 16  2  0
 13 17  1  0
 17 18  1  0
 18 19  2  0
 18 20  1  0
 20 21  1  0
 17 22  1  0
 22 23  2  0
 23  8  1  0
 22 11  1  0
  1 24  1  0
  1 25  1  0
  1 26  1  0
  2 27  1  0
  2 28  1  0
  6 29  1  0
  6 30  1  0
  7 31  1  0
  7 32  1  0
  9 33  1  0
 10 34  1  0
 12 35  1  0
 15 36  1  0
 20 37  1  0
 20 38  1  0
 21 39  1  0
 21 40  1  0
 21 41  1  0
 23 42  1  0
M  CHG  1  15  -1
M  END
>  <UniqueID>  (91) 
90

>  <SMILES>  (91) 
CCOC(=O)CCc1ccc2cc(C([NH-])=O)n(C(=O)CC)c2c1

>  <Energy>  (91) 
68.15437010386991

>  <Genealogy>  (91) 
CCOC(=O)CCc1ccc2cc(C([NH-])=O)n(C(=O)CC)c2c1 (protonated)
CCOC(=O)CCc1ccc2cc(C([NH-])=O)n(C(=O)CC)c2c1 (3D coordinates assigned)
CCOC(=O)CCc1ccc2cc(C([NH-])=O)n(C(=O)CC)c2c1 (optimized conformer: 68.15437010386991 kcal/mol)

>  <smiles>  (91) 
CCOC(=O)CCc1ccc2cc(C(N)=O)n(C(=O)CC)c2c1

>  <score_type>  (91) 
oracle

>  <origin>  (91) 
adg

>  <m_score__min__energy>  (91) 
-7.1100000000000003

>  <m_primary>  (91) 
energy

$$$$
92:0
     RDKit          3D

 43 44  0  0  0  0  0  0  0  0999 V2000
  138.7450  148.8950  130.3570 C   0  0  0  0  0  0  0  0  0  0  0  0
  139.1480  149.4780  131.4910 C   0  0  0  0  0  0  0  0  0  0  0  0
  140.2110  148.8640  132.3620 C   0  0  0  0  0  0  0  0  0  0  0  0
  140.8040  149.8460  133.2090 O   0  0  0  0  0  0  0  0  0  0  0  0
  141.6530  150.8540  132.7410 C   0  0  0  0  0  0  0  0  0  0  0  0
  142.8840  150.6380  132.5770 O   0  0  0  0  0  0  0  0  0  0  0  0
  141.0800  152.1890  132.4000 C   0  0  0  0  0  0  0  0  0  0  0  0
  141.3770  153.1770  133.4920 C   0  0  0  0  0  0  0  0  0  0  0  0
  142.2610  152.8220  134.5410 C   0  0  0  0  0  0  0  0  0  0  0  0
  142.5490  153.7320  135.5710 C   0  0  0  0  0  0  0  0  0  0  0  0
  141.9460  154.9880  135.5230 C   0  0  0  0  0  0  0  0  0  0  0  0
  142.0530  156.0530  136.3880 C   0  0  0  0  0  0  0  0  0  0  0  0
  141.2460  157.0500  135.8460 C   0  0  0  0  0  0  0  0  0  0  0  0
  141.1430  158.4060  136.4220 C   0  0  0  0  0  0  0  0  0  0  0  0
  139.8730  158.9890  136.7230 N   0  0  0  0  0  0  0  0  0  0  0  0
  142.1920  159.0890  136.5880 O   0  0  0  0  0  0  0  0  0  0  0  0
  140.6480  156.6180  134.6990 N   0  0  0  0  0  0  0  0  0  0  0  0
  139.6740  157.3180  133.9040 C   0  0  0  0  0  0  0  0  0  0  0  0
  138.6480  157.8070  134.4500 O   0  0  0  0  0  0  0  0  0  0  0  0
  139.8600  157.4440  132.5230 O   0  0  0  0  0  0  0  0  0  0  0  0
  139.7600  158.6950  131.8470 C   0  0  0  0  0  0  0  0  0  0  0  0
  138.3290  158.9520  131.4780 C   0  0  0  0  0  0  0  0  0  0  0  0
  137.9710  160.0770  130.8520 C   0  0  0  0  0  0  0  0  0  0  0  0
  141.0920  155.3510  134.5110 C   0  0  0  0  0  0  0  0  0  0  0  0
  140.7650  154.4510  133.4880 C   0  0  0  0  0  0  0  0  0  0  0  0
  137.9658  149.3687  129.7418 H   0  0  0  0  0  0  0  0  0  0  0  0
  139.1927  147.9418  130.0394 H   0  0  0  0  0  0  0  0  0  0  0  0
  138.6907  150.4311  131.7952 H   0  0  0  0  0  0  0  0  0  0  0  0
  139.7575  148.0782  132.9840 H   0  0  0  0  0  0  0  0  0  0  0  0
  140.9929  148.4387  131.7157 H   0  0  0  0  0  0  0  0  0  0  0  0
  141.5234  152.5446  131.4582 H   0  0  0  0  0  0  0  0  0  0  0  0
  139.9897  152.0934  132.2901 H   0  0  0  0  0  0  0  0  0  0  0  0
  142.7257  151.8250  134.5486 H   0  0  0  0  0  0  0  0  0  0  0  0
  143.2302  153.4618  136.3914 H   0  0  0  0  0  0  0  0  0  0  0  0
  142.6491  156.1055  137.3110 H   0  0  0  0  0  0  0  0  0  0  0  0
  139.8250  159.9310  137.1740 H   0  0  0  0  0  0  0  0  0  0  0  0
  138.9810  158.5140  136.4650 H   0  0  0  0  0  0  0  0  0  0  0  0
  140.1180  159.4983  132.5077 H   0  0  0  0  0  0  0  0  0  0  0  0
  140.3744  158.6686  130.9349 H   0  0  0  0  0  0  0  0  0  0  0  0
  137.5627  158.2030  131.7265 H   0  0  0  0  0  0  0  0  0  0  0  0
  136.9167  160.2485  130.5891 H   0  0  0  0  0  0  0  0  0  0  0  0
  138.7306  160.8316  130.5996 H   0  0  0  0  0  0  0  0  0  0  0  0
  140.0491  154.7294  132.7006 H   0  0  0  0  0  0  0  0  0  0  0  0
  1  2  2  0
  2  3  1  0
  3  4  1  0
  4  5  1  0
  5  6  2  0
  5  7  1  0
  7  8  1  0
  8  9  2  0
  9 10  1  0
 10 11  2  0
 11 12  1  0
 12 13  2  0
 13 14  1  0
 14 15  1  0
 14 16  2  0
 13 17  1  0
 17 18  1  0
 18 19  2  0
 18 20  1  0
 20 21  1  0
 21 22  1  0
 22 23  2  0
 17 24  1  0
 24 25  2  0
 25  8  1  0
 24 11  1  0
  1 26  1  0
  1 27  1  0
  2 28  1  0
  3 29  1  0
  3 30  1  0
  7 31  1  0
  7 32  1  0
  9 33  1  0
 10 34  1  0
 12 35  1  0
 15 36  1  0
 15 37  1  0
 21 38  1  0
 21 39  1  0
 22 40  1  0
 23 41  1  0
 23 42  1  0
 25 43  1  0
M  END
>  <UniqueID>  (92) 
91

>  <SMILES>  (92) 
C=CCOC(=O)Cc1ccc2cc(C(N)=O)n(C(=O)OCC=C)c2c1

>  <Energy>  (92) 
70.32211305611197

>  <Genealogy>  (92) 
C=CCOC(=O)Cc1ccc2cc(C(N)=O)n(C(=O)OCC=C)c2c1 (3D coordinates assigned)
C=CCOC(=O)Cc1ccc2cc(C(N)=O)n(C(=O)OCC=C)c2c1 (optimized conformer: 70.32211305611197 kcal/mol)

>  <smiles>  (92) 
C=CCOC(=O)Cc1ccc2cc(C(N)=O)n(C(=O)OCC=C)c2c1

>  <score_type>  (92) 
oracle

>  <origin>  (92) 
adg

>  <m_score__min__energy>  (92) 
-7.3600000000000003

>  <m_primary>  (92) 
energy

$$$$
93:0
     RDKit          3D

 41 42  0  0  0  0  0  0  0  0999 V2000
  138.2450  159.4530  131.1020 C   0  0  0  0  0  0  0  0  0  0  0  0
  139.7250  159.6870  131.3580 C   0  0  0  0  0  0  0  0  0  0  0  0
  139.9080  160.1650  132.6850 O   0  0  0  0  0  0  0  0  0  0  0  0
  141.1480  160.1440  133.3320 C   0  0  0  0  0  0  0  0  0  0  0  0
  141.6610  161.2150  133.7560 O   0  0  0  0  0  0  0  0  0  0  0  0
  141.8490  158.9010  133.4900 N   0  0  0  0  0  0  0  0  0  0  0  0
  141.3170  157.6470  133.5600 C   0  0  0  0  0  0  0  0  0  0  0  0
  139.8780  157.3200  133.6450 C   0  0  0  0  0  0  0  0  0  0  0  0
  139.3650  156.1880  132.9460 N   0  0  0  0  0  0  0  0  0  0  0  0
  139.1010  158.0070  134.3600 O   0  0  0  0  0  0  0  0  0  0  0  0
  142.3260  156.6900  133.6250 C   0  0  0  0  0  0  0  0  0  0  0  0
  143.5050  157.3990  133.5990 C   0  0  0  0  0  0  0  0  0  0  0  0
  144.8210  156.9480  133.6210 C   0  0  0  0  0  0  0  0  0  0  0  0
  145.8470  157.9060  133.5480 C   0  0  0  0  0  0  0  0  0  0  0  0
  145.5400  159.2860  133.4570 C   0  0  0  0  0  0  0  0  0  0  0  0
  146.6480  160.3010  133.3300 C   0  0  0  0  0  0  0  0  0  0  0  0
  147.9980  159.6580  133.1080 C   0  0  0  0  0  0  0  0  0  0  0  0
  148.5600  159.0450  134.0580 O   0  0  0  0  0  0  0  0  0  0  0  0
  148.6690  159.7560  131.8320 N   0  0  0  0  0  0  0  0  0  0  0  0
  149.9720  159.1080  131.6590 C   0  0  0  0  0  0  0  0  0  0  0  0
  148.0620  160.4990  130.7210 C   0  0  0  0  0  0  0  0  0  0  0  0
  144.1920  159.7060  133.4270 C   0  0  0  0  0  0  0  0  0  0  0  0
  143.1910  158.7320  133.5180 C   0  0  0  0  0  0  0  0  0  0  0  0
  137.7155  159.3693  132.0625 H   0  0  0  0  0  0  0  0  0  0  0  0
  137.8340  160.2973  130.5291 H   0  0  0  0  0  0  0  0  0  0  0  0
  138.1145  158.5231  130.5291 H   0  0  0  0  0  0  0  0  0  0  0  0
  140.2729  158.7418  131.2302 H   0  0  0  0  0  0  0  0  0  0  0  0
  140.1067  160.4321  130.6445 H   0  0  0  0  0  0  0  0  0  0  0  0
  138.3470  155.9630  132.9620 H   0  0  0  0  0  0  0  0  0  0  0  0
  142.2061  155.5982  133.6845 H   0  0  0  0  0  0  0  0  0  0  0  0
  145.0514  155.8748  133.6933 H   0  0  0  0  0  0  0  0  0  0  0  0
  146.8979  157.5812  133.5617 H   0  0  0  0  0  0  0  0  0  0  0  0
  146.4267  160.9604  132.4778 H   0  0  0  0  0  0  0  0  0  0  0  0
  146.6964  160.8636  134.2740 H   0  0  0  0  0  0  0  0  0  0  0  0
  150.4076  158.8914  132.6456 H   0  0  0  0  0  0  0  0  0  0  0  0
  149.8433  158.1689  131.1008 H   0  0  0  0  0  0  0  0  0  0  0  0
  150.6431  159.7773  131.1008 H   0  0  0  0  0  0  0  0  0  0  0  0
  147.4138  161.2924  131.1213 H   0  0  0  0  0  0  0  0  0  0  0  0
  148.8542  160.9489  130.1046 H   0  0  0  0  0  0  0  0  0  0  0  0
  147.4631  159.8124  130.1046 H   0  0  0  0  0  0  0  0  0  0  0  0
  143.9353  160.7716  133.3345 H   0  0  0  0  0  0  0  0  0  0  0  0
  1  2  1  0
  2  3  1  0
  3  4  1  0
  4  5  2  0
  4  6  1  0
  6  7  1  0
  7  8  1  0
  8  9  1  0
  8 10  2  0
  7 11  2  0
 11 12  1  0
 12 13  2  0
 13 14  1  0
 14 15  2  0
 15 16  1  0
 16 17  1  0
 17 18  2  0
 17 19  1  0
 19 20  1  0
 19 21  1  0
 15 22  1  0
 22 23  2  0
 23  6  1  0
 23 12  1  0
  1 24  1  0
  1 25  1  0
  1 26  1  0
  2 27  1  0
  2 28  1  0
  9 29  1  0
 11 30  1  0
 13 31  1  0
 14 32  1  0
 16 33  1  0
 16 34  1  0
 20 35  1  0
 20 36  1  0
 20 37  1  0
 21 38  1  0
 21 39  1  0
 21 40  1  0
 22 41  1  0
M  CHG  1   9  -1
M  END
>  <UniqueID>  (93) 
92

>  <SMILES>  (93) 
CCOC(=O)n1c(C([NH-])=O)cc2ccc(CC(=O)N(C)C)cc21

>  <Energy>  (93) 
72.07261075261589

>  <Genealogy>  (93) 
CCOC(=O)n1c(C([NH-])=O)cc2ccc(CC(=O)N(C)C)cc21 (protonated)
CCOC(=O)n1c(C([NH-])=O)cc2ccc(CC(=O)N(C)C)cc21 (3D coordinates assigned)
CCOC(=O)n1c(C([NH-])=O)cc2ccc(CC(=O)N(C)C)cc21 (optimized conformer: 72.07261075261589 kcal/mol)

>  <smiles>  (93) 
CCOC(=O)n1c(C(N)=O)cc2ccc(CC(=O)N(C)C)cc21

>  <score_type>  (93) 
oracle

>  <origin>  (93) 
adg

>  <m_score__min__energy>  (93) 
-6.8899999999999997

>  <m_primary>  (93) 
energy

$$$$
94:0
     RDKit          3D

 55 57  0  0  0  0  0  0  0  0999 V2000
  148.6490  157.4960  132.6500 C   0  0  0  0  0  0  0  0  0  0  0  0
  147.2690  158.0110  132.9130 C   0  0  0  0  0  0  0  0  0  0  0  0
  145.9010  157.0400  133.0410 S   0  0  0  0  0  0  0  0  0  0  0  0
  144.8150  158.2980  133.3150 C   0  0  0  0  0  0  0  0  0  0  0  0
  143.3930  158.1680  133.4890 N   0  0  0  0  0  0  0  0  0  0  0  0
  142.6490  158.7630  134.5670 C   0  0  0  0  0  0  0  0  0  0  0  0
  143.2070  159.5650  135.3640 O   0  0  0  0  0  0  0  0  0  0  0  0
  141.1800  158.4870  134.7280 C   0  0  2  0  0  0  0  0  0  0  0  0
  140.5970  158.8750  136.5470 Br  0  0  0  0  0  0  0  0  0  0  0  0
  140.8520  157.0770  134.2920 C   0  0  0  0  0  0  0  0  0  0  0  0
  139.6370  156.8270  133.6020 C   0  0  0  0  0  0  0  0  0  0  0  0
  139.3280  155.5400  133.1290 C   0  0  0  0  0  0  0  0  0  0  0  0
  140.2500  154.5230  133.3570 C   0  0  0  0  0  0  0  0  0  0  0  0
  140.2190  153.1980  132.9850 C   0  0  0  0  0  0  0  0  0  0  0  0
  141.4090  152.6520  133.4610 C   0  0  0  0  0  0  0  0  0  0  0  0
  141.7510  151.2190  133.3510 C   0  0  0  0  0  0  0  0  0  0  0  0
  142.8970  150.8180  132.6030 N   0  0  0  0  0  0  0  0  0  0  0  0
  141.0230  150.3390  133.8820 O   0  0  0  0  0  0  0  0  0  0  0  0
  142.1490  153.6050  134.0960 N   0  0  0  0  0  0  0  0  0  0  0  0
  143.4540  153.4730  134.6800 C   0  0  0  0  0  0  0  0  0  0  0  0
  143.6970  154.0060  135.7960 O   0  0  0  0  0  0  0  0  0  0  0  0
  144.4300  152.7200  134.0100 O   0  0  0  0  0  0  0  0  0  0  0  0
  145.3240  153.1950  132.9930 C   0  0  0  0  0  0  0  0  0  0  0  0
  145.8430  151.9620  132.2370 C   0  0  0  0  0  0  0  0  0  0  0  0
  144.5830  154.1130  132.0020 C   0  0  0  0  0  0  0  0  0  0  0  0
  146.5190  153.9290  133.6280 C   0  0  0  0  0  0  0  0  0  0  0  0
  141.4240  154.7430  134.0250 C   0  0  0  0  0  0  0  0  0  0  0  0
  141.7680  156.0170  134.4870 C   0  0  0  0  0  0  0  0  0  0  0  0
  145.5110  159.5060  133.2930 C   0  0  0  0  0  0  0  0  0  0  0  0
  144.8810  160.7830  133.5260 C   0  0  0  0  0  0  0  0  0  0  0  0
  144.3790  161.8070  133.7150 N   0  0  0  0  0  0  0  0  0  0  0  0
  146.8920  159.3500  133.0510 C   0  0  0  0  0  0  0  0  0  0  0  0
  147.8690  160.4920  133.0270 C   0  0  0  0  0  0  0  0  0  0  0  0
  149.1580  157.3061  133.6065 H   0  0  0  0  0  0  0  0  0  0  0  0
  148.5878  156.5602  132.0751 H   0  0  0  0  0  0  0  0  0  0  0  0
  149.2158  158.2431  132.0751 H   0  0  0  0  0  0  0  0  0  0  0  0
  142.8680  157.6150  132.7770 H   0  0  0  0  0  0  0  0  0  0  0  0
  140.6144  159.1616  134.0684 H   0  0  0  0  0  0  0  0  0  0  0  0
  138.9279  157.6513  133.4353 H   0  0  0  0  0  0  0  0  0  0  0  0
  138.3866  155.3428  132.5952 H   0  0  0  0  0  0  0  0  0  0  0  0
  139.4232  152.6801  132.4296 H   0  0  0  0  0  0  0  0  0  0  0  0
  143.6410  151.5060  132.3520 H   0  0  0  0  0  0  0  0  0  0  0  0
  146.1648  151.1975  132.9595 H   0  0  0  0  0  0  0  0  0  0  0  0
  145.0401  151.5545  131.6052 H   0  0  0  0  0  0  0  0  0  0  0  0
  146.6957  152.2514  131.6052 H   0  0  0  0  0  0  0  0  0  0  0  0
  143.9877  154.8505  132.5603 H   0  0  0  0  0  0  0  0  0  0  0  0
  145.3150  154.6361  131.3691 H   0  0  0  0  0  0  0  0  0  0  0  0
  143.9173  153.5078  131.3691 H   0  0  0  0  0  0  0  0  0  0  0  0
  146.4391  153.8799  134.7240 H   0  0  0  0  0  0  0  0  0  0  0  0
  147.4559  153.4505  133.3069 H   0  0  0  0  0  0  0  0  0  0  0  0
  146.5158  154.9811  133.3069 H   0  0  0  0  0  0  0  0  0  0  0  0
  142.7300  156.1912  134.9911 H   0  0  0  0  0  0  0  0  0  0  0  0
  148.1181  160.7832  134.0581 H   0  0  0  0  0  0  0  0  0  0  0  0
  148.7844  160.1804  132.5027 H   0  0  0  0  0  0  0  0  0  0  0  0
  147.4195  161.3482  132.5027 H   0  0  0  0  0  0  0  0  0  0  0  0
  1  2  1  0
  2  3  1  0
  3  4  1  0
  4  5  1  0
  5  6  1  0
  6  7  2  0
  6  8  1  0
  8  9  1  0
  8 10  1  0
 10 11  2  0
 11 12  1  0
 12 13  2  0
 13 14  1  0
 14 15  2  0
 15 16  1  0
 16 17  1  0
 16 18  2  0
 15 19  1  0
 19 20  1  0
 20 21  2  0
 20 22  1  0
 22 23  1  0
 23 24  1  0
 23 25  1  0
 23 26  1  0
 19 27  1  0
 27 28  2  0
  4 29  2  0
 29 30  1  0
 30 31  3  0
 29 32  1  0
 32 33  1  0
 32  2  2  0
 28 10  1  0
 27 13  1  0
  1 34  1  0
  1 35  1  0
  1 36  1  0
  5 37  1  0
  8 38  1  6
 11 39  1  0
 12 40  1  0
 14 41  1  0
 17 42  1  0
 24 43  1  0
 24 44  1  0
 24 45  1  0
 25 46  1  0
 25 47  1  0
 25 48  1  0
 26 49  1  0
 26 50  1  0
 26 51  1  0
 28 52  1  0
 33 53  1  0
 33 54  1  0
 33 55  1  0
M  CHG  1  17  -1
M  END
>  <UniqueID>  (94) 
93

>  <SMILES>  (94) 
Cc1sc(NC(=O)[C@H](Br)c2ccc3cc(C([NH-])=O)n(C(=O)OC(C)(C)C)c3c2)c(C#N)c1C

>  <Energy>  (94) 
115.1042065681526

>  <Genealogy>  (94) 
Cc1sc(NC(=O)C(Br)c2ccc3cc(C([NH-])=O)n(C(=O)OC(C)(C)C)c3c2)c(C#N)c1C (protonated)
Cc1sc(NC(=O)[C@H](Br)c2ccc3cc(C([NH-])=O)n(C(=O)OC(C)(C)C)c3c2)c(C#N)c1C (chirality)
Cc1sc(NC(=O)[C@H](Br)c2ccc3cc(C([NH-])=O)n(C(=O)OC(C)(C)C)c3c2)c(C#N)c1C (3D coordinates assigned)
Cc1sc(NC(=O)[C@H](Br)c2ccc3cc(C([NH-])=O)n(C(=O)OC(C)(C)C)c3c2)c(C#N)c1C (optimized conformer: 115.1042065681526 kcal/mol)

>  <smiles>  (94) 
Cc1sc(NC(=O)C(Br)c2ccc3cc(C(N)=O)n(C(=O)OC(C)(C)C)c3c2)c(C#N)c1C

>  <score_type>  (94) 
oracle

>  <origin>  (94) 
adg

>  <m_score__min__energy>  (94) 
-9.6300000000000008

>  <m_primary>  (94) 
energy

$$$$
95:0
     RDKit          3D

 51 52  0  0  0  0  0  0  0  0999 V2000
  140.5330  159.0810  131.9750 C   0  0  0  0  0  0  0  0  0  0  0  0
  139.3160  158.5230  132.0310 C   0  0  0  0  0  0  0  0  0  0  0  0
  138.1630  159.1950  131.3350 C   0  0  0  0  0  0  0  0  0  0  0  0
  139.1180  157.2280  132.7790 C   0  0  0  0  0  0  0  0  0  0  0  0
  140.3780  156.6610  133.0650 O   0  0  0  0  0  0  0  0  0  0  0  0
  140.2640  155.2760  133.3340 C   0  0  0  0  0  0  0  0  0  0  0  0
  141.6550  154.6460  133.3830 C   0  0  0  0  0  0  0  0  0  0  0  0
  142.6480  155.6060  133.7400 O   0  0  0  0  0  0  0  0  0  0  0  0
  142.5460  156.4470  134.8550 C   0  0  0  0  0  0  0  0  0  0  0  0
  142.2380  155.9700  135.9790 O   0  0  0  0  0  0  0  0  0  0  0  0
  142.8080  157.8550  134.7160 N   0  0  0  0  0  0  0  0  0  0  0  0
  141.9620  158.8830  135.0030 C   0  0  0  0  0  0  0  0  0  0  0  0
  140.6660  158.7670  135.6940 C   0  0  0  0  0  0  0  0  0  0  0  0
  139.9240  157.5490  135.6670 N   0  0  0  0  0  0  0  0  0  0  0  0
  140.2410  159.7350  136.3790 O   0  0  0  0  0  0  0  0  0  0  0  0
  142.5170  160.1010  134.6230 C   0  0  0  0  0  0  0  0  0  0  0  0
  143.7520  159.7910  134.1040 C   0  0  0  0  0  0  0  0  0  0  0  0
  144.7340  160.6240  133.5740 C   0  0  0  0  0  0  0  0  0  0  0  0
  145.9090  160.0320  133.0850 C   0  0  0  0  0  0  0  0  0  0  0  0
  146.0790  158.6270  133.1310 C   0  0  0  0  0  0  0  0  0  0  0  0
  147.3350  158.0050  132.5790 C   0  0  0  0  0  0  0  0  0  0  0  0
  148.5840  158.3730  133.4040 C   0  0  0  0  0  0  0  0  0  0  0  0
  149.1600  159.6840  133.0600 N   0  0  0  0  0  0  0  0  0  0  0  0
  148.9410  160.0420  131.6560 C   0  0  0  0  0  0  0  0  0  0  0  0
  145.0590  157.8110  133.6720 C   0  0  0  0  0  0  0  0  0  0  0  0
  143.9050  158.4290  134.1690 C   0  0  0  0  0  0  0  0  0  0  0  0
  141.3830  158.5987  132.4799 H   0  0  0  0  0  0  0  0  0  0  0  0
  140.6821  160.0214  131.4241 H   0  0  0  0  0  0  0  0  0  0  0  0
  137.4678  159.6002  132.0850 H   0  0  0  0  0  0  0  0  0  0  0  0
  138.5415  160.0139  130.7057 H   0  0  0  0  0  0  0  0  0  0  0  0
  137.6370  158.4620  130.7057 H   0  0  0  0  0  0  0  0  0  0  0  0
  138.5808  157.4241  133.7187 H   0  0  0  0  0  0  0  0  0  0  0  0
  138.5300  156.5314  132.1634 H   0  0  0  0  0  0  0  0  0  0  0  0
  139.7626  155.1314  134.3023 H   0  0  0  0  0  0  0  0  0  0  0  0
  139.6745  154.7972  132.5383 H   0  0  0  0  0  0  0  0  0  0  0  0
  141.6554  153.8365  134.1278 H   0  0  0  0  0  0  0  0  0  0  0  0
  141.8941  154.2556  132.3828 H   0  0  0  0  0  0  0  0  0  0  0  0
  139.0090  157.4800  136.1620 H   0  0  0  0  0  0  0  0  0  0  0  0
  140.3210  156.6920  135.2310 H   0  0  0  0  0  0  0  0  0  0  0  0
  142.0643  161.0991  134.7176 H   0  0  0  0  0  0  0  0  0  0  0  0
  144.5930  161.7144  133.5396 H   0  0  0  0  0  0  0  0  0  0  0  0
  146.7039  160.6644  132.6628 H   0  0  0  0  0  0  0  0  0  0  0  0
  147.2187  156.9112  132.5827 H   0  0  0  0  0  0  0  0  0  0  0  0
  147.4806  158.3912  131.5593 H   0  0  0  0  0  0  0  0  0  0  0  0
  148.3052  158.3854  134.4680 H   0  0  0  0  0  0  0  0  0  0  0  0
  149.3508  157.6175  133.1777 H   0  0  0  0  0  0  0  0  0  0  0  0
  148.7600  160.4310  133.6730 H   0  0  0  0  0  0  0  0  0  0  0  0
  148.3677  160.9792  131.6017 H   0  0  0  0  0  0  0  0  0  0  0  0
  149.9116  160.1765  131.1562 H   0  0  0  0  0  0  0  0  0  0  0  0
  148.3793  159.2391  131.1562 H   0  0  0  0  0  0  0  0  0  0  0  0
  145.1693  156.7170  133.7018 H   0  0  0  0  0  0  0  0  0  0  0  0
  1  2  2  0
  2  3  1  0
  2  4  1  0
  4  5  1  0
  5  6  1  0
  6  7  1  0
  7  8  1  0
  8  9  1  0
  9 10  2  0
  9 11  1  0
 11 12  1  0
 12 13  1  0
 13 14  1  0
 13 15  2  0
 12 16  2  0
 16 17  1  0
 17 18  2  0
 18 19  1  0
 19 20  2  0
 20 21  1  0
 21 22  1  0
 22 23  1  0
 23 24  1  0
 20 25  1  0
 25 26  2  0
 26 11  1  0
 26 17  1  0
  1 27  1  0
  1 28  1  0
  3 29  1  0
  3 30  1  0
  3 31  1  0
  4 32  1  0
  4 33  1  0
  6 34  1  0
  6 35  1  0
  7 36  1  0
  7 37  1  0
 14 38  1  0
 14 39  1  0
 16 40  1  0
 18 41  1  0
 19 42  1  0
 21 43  1  0
 21 44  1  0
 22 45  1  0
 22 46  1  0
 23 47  1  0
 24 48  1  0
 24 49  1  0
 24 50  1  0
 25 51  1  0
M  END
>  <UniqueID>  (95) 
94

>  <SMILES>  (95) 
C=C(C)COCCOC(=O)n1c(C(N)=O)cc2ccc(CCNC)cc21

>  <Energy>  (95) 
81.67029095470866

>  <Genealogy>  (95) 
C=C(C)COCCOC(=O)n1c(C(N)=O)cc2ccc(CCNC)cc21 (3D coordinates assigned)
C=C(C)COCCOC(=O)n1c(C(N)=O)cc2ccc(CCNC)cc21 (optimized conformer: 81.67029095470866 kcal/mol)

>  <smiles>  (95) 
C=C(C)COCCOC(=O)n1c(C(N)=O)cc2ccc(CCNC)cc21

>  <score_type>  (95) 
oracle

>  <origin>  (95) 
adg

>  <m_score__min__energy>  (95) 
-7.6699999999999999

>  <m_primary>  (95) 
energy

$$$$
