0:0
     RDKit          3D

 38 39  0  0  0  0  0  0  0  0999 V2000
  144.0820  155.8530  135.1490 C   0  0  0  0  0  0  0  0  0  0  0  0
  143.1750  156.7210  134.3900 N   0  0  0  0  0  0  0  0  0  0  0  0
  141.7800  156.8820  134.8260 C   0  0  0  0  0  0  0  0  0  0  0  0
  141.1320  158.0400  134.1150 C   0  0  0  0  0  0  0  0  0  0  0  0
  141.2870  159.1720  134.5510 O   0  0  0  0  0  0  0  0  0  0  0  0
  140.2570  157.8300  132.9130 C   0  0  0  0  0  0  0  0  0  0  0  0
  140.5880  158.7590  131.9190 O   0  0  0  0  0  0  0  0  0  0  0  0
  143.6930  157.4510  133.2570 C   0  0  0  0  0  0  0  0  0  0  0  0
  143.0440  157.4810  132.1760 O   0  0  0  0  0  0  0  0  0  0  0  0
  144.9570  158.1270  133.3260 N   0  0  0  0  0  0  0  0  0  0  0  0
  145.1950  159.4500  133.5420 C   0  0  0  0  0  0  0  0  0  0  0  0
  144.1660  160.4990  133.7010 C   0  0  0  0  0  0  0  0  0  0  0  0
  142.9100  160.4030  133.0330 N   0  0  0  0  0  0  0  0  0  0  0  0
  144.4030  161.5020  134.4260 O   0  0  0  0  0  0  0  0  0  0  0  0
  146.5670  159.7010  133.5460 C   0  0  0  0  0  0  0  0  0  0  0  0
  147.1620  158.4820  133.3000 C   0  0  0  0  0  0  0  0  0  0  0  0
  148.5070  158.1420  133.2000 C   0  0  0  0  0  0  0  0  0  0  0  0
  148.8290  156.7970  132.9480 C   0  0  0  0  0  0  0  0  0  0  0  0
  147.8070  155.8280  132.7880 C   0  0  0  0  0  0  0  0  0  0  0  0
  148.1640  154.3880  132.5690 C   0  0  0  0  0  0  0  0  0  0  0  0
  148.4400  153.7930  133.7860 F   0  0  0  0  0  0  0  0  0  0  0  0
  146.4530  156.2090  132.9060 C   0  0  0  0  0  0  0  0  0  0  0  0
  146.1650  157.5530  133.1590 C   0  0  0  0  0  0  0  0  0  0  0  0
  143.9210  156.0070  136.2262 H   0  0  0  0  0  0  0  0  0  0  0  0
  143.8815  154.8017  134.8950 H   0  0  0  0  0  0  0  0  0  0  0  0
  145.1235  156.0994  134.8950 H   0  0  0  0  0  0  0  0  0  0  0  0
  141.2222  155.9613  134.5999 H   0  0  0  0  0  0  0  0  0  0  0  0
  141.7676  157.0789  135.9082 H   0  0  0  0  0  0  0  0  0  0  0  0
  140.4065  156.8114  132.5256 H   0  0  0  0  0  0  0  0  0  0  0  0
  139.2041  157.9653  133.2013 H   0  0  0  0  0  0  0  0  0  0  0  0
  141.5160  159.0520  132.1140 H   0  0  0  0  0  0  0  0  0  0  0  0
  142.5090  159.4750  132.7740 H   0  0  0  0  0  0  0  0  0  0  0  0
  147.0678  160.6665  133.7105 H   0  0  0  0  0  0  0  0  0  0  0  0
  149.2941  158.9018  133.3145 H   0  0  0  0  0  0  0  0  0  0  0  0
  149.8838  156.4938  132.8743 H   0  0  0  0  0  0  0  0  0  0  0  0
  147.3204  153.8695  132.0900 H   0  0  0  0  0  0  0  0  0  0  0  0
  149.0494  154.3237  131.9194 H   0  0  0  0  0  0  0  0  0  0  0  0
  145.6465  155.4683  132.8017 H   0  0  0  0  0  0  0  0  0  0  0  0
  1  2  1  0
  2  3  1  0
  3  4  1  0
  4  5  2  0
  4  6  1  0
  6  7  1  0
  2  8  1  0
  8  9  2  0
  8 10  1  0
 10 11  1  0
 11 12  1  0
 12 13  1  0
 12 14  2  0
 11 15  2  0
 15 16  1  0
 16 17  2  0
 17 18  1  0
 18 19  2  0
 19 20  1  0
 20 21  1  0
 19 22  1  0
 22 23  2  0
 23 10  1  0
 23 16  1  0
  1 24  1  0
  1 25  1  0
  1 26  1  0
  3 27  1  0
  3 28  1  0
  6 29  1  0
  6 30  1  0
  7 31  1  0
 13 32  1  0
 15 33  1  0
 17 34  1  0
 18 35  1  0
 20 36  1  0
 20 37  1  0
 22 38  1  0
M  CHG  1  13  -1
M  END
>  <UniqueID>  (1) 
1

>  <SMILES>  (1) 
CN(CC(=O)CO)C(=O)n1c(C([NH-])=O)cc2ccc(CF)cc21

>  <Energy>  (1) 
69.14024160693232

>  <Genealogy>  (1) 
CN(CC(=O)CO)C(=O)n1c(C([NH-])=O)cc2ccc(CF)cc21 (protonated)
CN(CC(=O)CO)C(=O)n1c(C([NH-])=O)cc2ccc(CF)cc21 (3D coordinates assigned)
CN(CC(=O)CO)C(=O)n1c(C([NH-])=O)cc2ccc(CF)cc21 (optimized conformer: 69.14024160693232 kcal/mol)

>  <smiles>  (1) 
CN(CC(=O)CO)C(=O)n1c(C(N)=O)cc2ccc(CF)cc21

>  <score_type>  (1) 
oracle

>  <origin>  (1) 
adg

>  <m_score__min__energy>  (1) 
-5.2300000000000004

>  <m_primary>  (1) 
energy

$$$$
1:0
     RDKit          3D

 47 49  0  0  0  0  0  0  0  0999 V2000
  150.8050  149.0780  130.0160 C   0  0  0  0  0  0  0  0  0  0  0  0
  150.7390  150.3650  130.8320 C   0  0  0  0  0  0  0  0  0  0  0  0
  149.9270  150.1570  132.0520 N   0  0  0  0  0  0  0  0  0  0  0  0
  148.4630  150.1790  131.7900 C   0  0  0  0  0  0  0  0  0  0  0  0
  147.7500  151.4520  132.2950 C   0  0  0  0  0  0  0  0  0  0  0  0
  148.6380  152.6900  132.1140 C   0  0  0  0  0  0  0  0  0  0  0  0
  147.9370  153.8940  132.5730 N   0  0  0  0  0  0  0  0  0  0  0  0
  148.5860  155.1710  132.6580 C   0  0  0  0  0  0  0  0  0  0  0  0
  149.7630  155.3140  132.2330 O   0  0  0  0  0  0  0  0  0  0  0  0
  147.8980  156.2880  133.2410 N   0  0  0  0  0  0  0  0  0  0  0  0
  146.9390  156.2660  134.2100 C   0  0  0  0  0  0  0  0  0  0  0  0
  146.5000  155.0770  134.9710 C   0  0  0  0  0  0  0  0  0  0  0  0
  145.2560  155.0670  135.6660 N   0  0  0  0  0  0  0  0  0  0  0  0
  147.2170  154.0410  134.9770 O   0  0  0  0  0  0  0  0  0  0  0  0
  146.4560  157.5520  134.4440 C   0  0  0  0  0  0  0  0  0  0  0  0
  147.1560  158.3680  133.5850 C   0  0  0  0  0  0  0  0  0  0  0  0
  147.0600  159.7390  133.3740 C   0  0  0  0  0  0  0  0  0  0  0  0
  147.8810  160.3140  132.3880 C   0  0  0  0  0  0  0  0  0  0  0  0
  148.7850  159.5160  131.6400 C   0  0  0  0  0  0  0  0  0  0  0  0
  149.6120  160.1320  130.5420 C   0  0  0  0  0  0  0  0  0  0  0  0
  149.1290  159.7620  129.2980 F   0  0  0  0  0  0  0  0  0  0  0  0
  149.5820  161.5130  130.6240 F   0  0  0  0  0  0  0  0  0  0  0  0
  150.9210  159.7020  130.6620 F   0  0  0  0  0  0  0  0  0  0  0  0
  148.8320  158.1210  131.8670 C   0  0  0  0  0  0  0  0  0  0  0  0
  148.0190  157.5800  132.8690 C   0  0  0  0  0  0  0  0  0  0  0  0
  149.9760  152.5270  132.8710 C   0  0  0  0  0  0  0  0  0  0  0  0
  150.3310  151.0540  133.1550 C   0  0  0  0  0  0  0  0  0  0  0  0
  150.8493  148.2145  130.6961 H   0  0  0  0  0  0  0  0  0  0  0  0
  149.9097  148.9997  129.3817 H   0  0  0  0  0  0  0  0  0  0  0  0
  151.7036  149.0917  129.3817 H   0  0  0  0  0  0  0  0  0  0  0  0
  151.7573  150.6648  131.1203 H   0  0  0  0  0  0  0  0  0  0  0  0
  150.2735  151.1529  130.2217 H   0  0  0  0  0  0  0  0  0  0  0  0
  148.3055  150.1029  130.7040 H   0  0  0  0  0  0  0  0  0  0  0  0
  148.0296  149.3327  132.3432 H   0  0  0  0  0  0  0  0  0  0  0  0
  146.8185  151.5916  131.7268 H   0  0  0  0  0  0  0  0  0  0  0  0
  147.5340  151.3301  133.3667 H   0  0  0  0  0  0  0  0  0  0  0  0
  148.8606  152.7966  131.0420 H   0  0  0  0  0  0  0  0  0  0  0  0
  146.9220  153.8410  132.8190 H   0  0  0  0  0  0  0  0  0  0  0  0
  145.2210  155.1380  136.7070 H   0  0  0  0  0  0  0  0  0  0  0  0
  145.6794  157.8515  135.1632 H   0  0  0  0  0  0  0  0  0  0  0  0
  146.3628  160.3551  133.9607 H   0  0  0  0  0  0  0  0  0  0  0  0
  147.8218  161.3952  132.1942 H   0  0  0  0  0  0  0  0  0  0  0  0
  149.4928  157.4758  131.2694 H   0  0  0  0  0  0  0  0  0  0  0  0
  150.7788  152.9703  132.2636 H   0  0  0  0  0  0  0  0  0  0  0  0
  149.8689  153.0330  133.8418 H   0  0  0  0  0  0  0  0  0  0  0  0
  151.4189  150.9732  133.2963 H   0  0  0  0  0  0  0  0  0  0  0  0
  149.7846  150.7442  134.0580 H   0  0  0  0  0  0  0  0  0  0  0  0
  1  2  1  0
  2  3  1  0
  3  4  1  0
  4  5  1  0
  5  6  1  0
  6  7  1  0
  7  8  1  0
  8  9  2  0
  8 10  1  0
 10 11  1  0
 11 12  1  0
 12 13  1  0
 12 14  2  0
 11 15  2  0
 15 16  1  0
 16 17  2  0
 17 18  1  0
 18 19  2  0
 19 20  1  0
 20 21  1  0
 20 22  1  0
 20 23  1  0
 19 24  1  0
 24 25  2  0
  6 26  1  0
 26 27  1  0
 27  3  1  0
 25 10  1  0
 25 16  1  0
  1 28  1  0
  1 29  1  0
  1 30  1  0
  2 31  1  0
  2 32  1  0
  4 33  1  0
  4 34  1  0
  5 35  1  0
  5 36  1  0
  6 37  1  0
  7 38  1  0
 13 39  1  0
 15 40  1  0
 17 41  1  0
 18 42  1  0
 24 43  1  0
 26 44  1  0
 26 45  1  0
 27 46  1  0
 27 47  1  0
M  CHG  1  13  -1
M  END
>  <UniqueID>  (2) 
2

>  <SMILES>  (2) 
CCN1CCC(NC(=O)n2c(C([NH-])=O)cc3ccc(C(F)(F)F)cc32)CC1

>  <Energy>  (2) 
92.60097802627281

>  <Genealogy>  (2) 
CCN1CCC(NC(=O)n2c(C([NH-])=O)cc3ccc(C(F)(F)F)cc32)CC1 (protonated)
CCN1CCC(NC(=O)n2c(C([NH-])=O)cc3ccc(C(F)(F)F)cc32)CC1 (3D coordinates assigned)
CCN1CCC(NC(=O)n2c(C([NH-])=O)cc3ccc(C(F)(F)F)cc32)CC1 (nonaromatic ring conformer: 92.60097802627281 kcal/mol)

>  <smiles>  (2) 
CCN1CCC(NC(=O)n2c(C(N)=O)cc3ccc(C(F)(F)F)cc32)CC1

>  <score_type>  (2) 
oracle

>  <origin>  (2) 
adg

>  <m_score__min__energy>  (2) 
-8.1899999999999995

>  <m_primary>  (2) 
energy

$$$$
2:0
     RDKit          3D

 57 58  0  0  0  0  0  0  0  0999 V2000
  148.1180  155.1500  132.6150 C   0  0  0  0  0  0  0  0  0  0  0  0
  147.3360  155.8290  133.4670 C   0  0  0  0  0  0  0  0  0  0  0  0
  147.7050  155.9270  134.9000 C   0  0  0  0  0  0  0  0  0  0  0  0
  148.4310  156.8770  135.3050 O   0  0  0  0  0  0  0  0  0  0  0  0
  147.2710  154.9450  135.7990 O   0  0  0  0  0  0  0  0  0  0  0  0
  145.9580  154.3840  135.7850 C   0  0  2  0  0  0  0  0  0  0  0  0
  145.7360  153.6150  137.0880 C   0  0  0  0  0  0  0  0  0  0  0  0
  145.7620  153.4920  134.5460 C   0  0  0  0  0  0  0  0  0  0  0  0
  144.3820  153.3710  134.2020 O   0  0  0  0  0  0  0  0  0  0  0  0
  143.4180  154.3340  134.5250 C   0  0  0  0  0  0  0  0  0  0  0  0
  142.6880  154.8400  133.6270 O   0  0  0  0  0  0  0  0  0  0  0  0
  143.2810  154.7300  135.8580 O   0  0  0  0  0  0  0  0  0  0  0  0
  142.0360  155.0960  136.4500 C   0  0  0  0  0  0  0  0  0  0  0  0
  141.6210  154.0880  137.5210 C   0  0  0  0  0  0  0  0  0  0  0  0
  142.2450  152.8510  137.2700 O   0  0  0  0  0  0  0  0  0  0  0  0
  141.1820  151.6050  137.7500 P   0  0  0  0  0  0  0  0  0  0  0  0
  141.9160  150.6230  138.6360 O   0  0  0  0  0  0  0  0  0  0  0  0
  140.6170  150.7960  136.3780 O   0  0  0  0  0  0  0  0  0  0  0  0
  139.8580  152.2440  138.5910 O   0  0  0  0  0  0  0  0  0  0  0  0
  146.0830  156.4510  132.9720 C   0  0  0  0  0  0  0  0  0  0  0  0
  145.2000  155.7340  132.4260 O   0  0  0  0  0  0  0  0  0  0  0  0
  145.8620  157.8680  133.0770 N   0  0  0  0  0  0  0  0  0  0  0  0
  146.7840  158.8630  132.9400 C   0  0  0  0  0  0  0  0  0  0  0  0
  148.1700  158.6920  132.4580 C   0  0  0  0  0  0  0  0  0  0  0  0
  149.2640  158.9620  133.3310 N   0  0  0  0  0  0  0  0  0  0  0  0
  148.3980  158.3380  131.2710 O   0  0  0  0  0  0  0  0  0  0  0  0
  146.2220  160.0940  133.2680 C   0  0  0  0  0  0  0  0  0  0  0  0
  144.9190  159.8220  133.6110 C   0  0  0  0  0  0  0  0  0  0  0  0
  143.9140  160.6760  134.0550 C   0  0  0  0  0  0  0  0  0  0  0  0
  142.6600  160.1170  134.3530 C   0  0  0  0  0  0  0  0  0  0  0  0
  142.4400  158.7240  134.2140 C   0  0  0  0  0  0  0  0  0  0  0  0
  141.1040  158.1340  134.5660 C   0  0  0  0  0  0  0  0  0  0  0  0
  140.6740  158.5270  136.2880 P   0  0  0  0  0  0  0  0  0  0  0  0
  141.7120  157.9440  137.2190 O   0  0  0  0  0  0  0  0  0  0  0  0
  140.6090  160.2050  136.4930 O   0  0  0  0  0  0  0  0  0  0  0  0
  139.1610  157.8610  136.6510 O   0  0  0  0  0  0  0  0  0  0  0  0
  143.4950  157.8840  133.7950 C   0  0  0  0  0  0  0  0  0  0  0  0
  144.7250  158.4720  133.4830 C   0  0  0  0  0  0  0  0  0  0  0  0
  147.8419  155.0789  131.5526 H   0  0  0  0  0  0  0  0  0  0  0  0
  149.0355  154.6642  132.9786 H   0  0  0  0  0  0  0  0  0  0  0  0
  145.2066  155.1847  135.7189 H   0  0  0  0  0  0  0  0  0  0  0  0
  145.9279  154.2796  137.9433 H   0  0  0  0  0  0  0  0  0  0  0  0
  144.6973  153.2552  137.1290 H   0  0  0  0  0  0  0  0  0  0  0  0
  146.4231  152.7570  137.1290 H   0  0  0  0  0  0  0  0  0  0  0  0
  146.3045  153.9345  133.6975 H   0  0  0  0  0  0  0  0  0  0  0  0
  146.1493  152.4889  134.7780 H   0  0  0  0  0  0  0  0  0  0  0  0
  142.1352  156.0899  136.9107 H   0  0  0  0  0  0  0  0  0  0  0  0
  141.2656  155.1101  135.6650 H   0  0  0  0  0  0  0  0  0  0  0  0
  141.9264  154.4583  138.5107 H   0  0  0  0  0  0  0  0  0  0  0  0
  140.5289  153.9584  137.4983 H   0  0  0  0  0  0  0  0  0  0  0  0
  149.5140  158.2990  134.1000 H   0  0  0  0  0  0  0  0  0  0  0  0
  146.7163  161.0766  133.2553 H   0  0  0  0  0  0  0  0  0  0  0  0
  144.0957  161.7549  134.1691 H   0  0  0  0  0  0  0  0  0  0  0  0
  141.8416  160.7664  134.6973 H   0  0  0  0  0  0  0  0  0  0  0  0
  140.3363  158.5493  133.8965 H   0  0  0  0  0  0  0  0  0  0  0  0
  141.1540  157.0412  134.4504 H   0  0  0  0  0  0  0  0  0  0  0  0
  143.3531  156.7960  133.7161 H   0  0  0  0  0  0  0  0  0  0  0  0
  1  2  2  0
  2  3  1  0
  3  4  2  0
  3  5  1  0
  5  6  1  0
  6  7  1  0
  6  8  1  0
  8  9  1  0
  9 10  1  0
 10 11  2  0
 10 12  1  0
 12 13  1  0
 13 14  1  0
 14 15  1  0
 15 16  1  0
 16 17  2  0
 16 18  1  0
 16 19  1  0
  2 20  1  0
 20 21  2  0
 20 22  1  0
 22 23  1  0
 23 24  1  0
 24 25  1  0
 24 26  2  0
 23 27  2  0
 27 28  1  0
 28 29  2  0
 29 30  1  0
 30 31  2  0
 31 32  1  0
 32 33  1  0
 33 34  2  0
 33 35  1  0
 33 36  1  0
 31 37  1  0
 37 38  2  0
 38 22  1  0
 38 28  1  0
  1 39  1  0
  1 40  1  0
  6 41  1  6
  7 42  1  0
  7 43  1  0
  7 44  1  0
  8 45  1  0
  8 46  1  0
 13 47  1  0
 13 48  1  0
 14 49  1  0
 14 50  1  0
 25 51  1  0
 27 52  1  0
 29 53  1  0
 30 54  1  0
 32 55  1  0
 32 56  1  0
 37 57  1  0
M  CHG  5  18  -1  19  -1  25  -1  35  -1  36  -1
M  END
>  <UniqueID>  (3) 
3

>  <SMILES>  (3) 
C=C(C(=O)O[C@H](C)COC(=O)OCCOP(=O)([O-])[O-])C(=O)n1c(C([NH-])=O)cc2ccc(CP(=O)([O-])[O-])cc21

>  <Energy>  (3) 
75.14903564164379

>  <Genealogy>  (3) 
C=C(C(=O)OC(C)COC(=O)OCCOP(=O)([O-])[O-])C(=O)n1c(C([NH-])=O)cc2ccc(CP(=O)([O-])[O-])cc21 (protonated)
C=C(C(=O)O[C@H](C)COC(=O)OCCOP(=O)([O-])[O-])C(=O)n1c(C([NH-])=O)cc2ccc(CP(=O)([O-])[O-])cc21 (chirality)
C=C(C(=O)O[C@H](C)COC(=O)OCCOP(=O)([O-])[O-])C(=O)n1c(C([NH-])=O)cc2ccc(CP(=O)([O-])[O-])cc21 (3D coordinates assigned)
C=C(C(=O)O[C@H](C)COC(=O)OCCOP(=O)([O-])[O-])C(=O)n1c(C([NH-])=O)cc2ccc(CP(=O)([O-])[O-])cc21 (optimized conformer: 75.14903564164379 kcal/mol)

>  <smiles>  (3) 
C=C(C(=O)OC(C)COC(=O)OCCOP(=O)(O)O)C(=O)n1c(C(N)=O)cc2ccc(CP(=O)(O)O)cc21

>  <score_type>  (3) 
oracle

>  <origin>  (3) 
adg

>  <m_score__min__energy>  (3) 
-7.7000000000000002

>  <m_primary>  (3) 
energy

$$$$
3:0
     RDKit          3D

 31 32  0  0  0  0  0  0  0  0999 V2000
  145.4660  160.3400  132.6140 N   0  0  0  0  0  0  0  0  0  0  0  0
  145.0350  159.3100  133.5000 C   0  0  0  0  0  0  0  0  0  0  0  0
  144.1640  159.5690  134.3720 O   0  0  0  0  0  0  0  0  0  0  0  0
  145.6310  157.9620  133.4070 C   0  0  0  0  0  0  0  0  0  0  0  0
  144.9110  156.7790  133.5690 C   0  0  0  0  0  0  0  0  0  0  0  0
  145.8140  155.7660  133.3310 C   0  0  0  0  0  0  0  0  0  0  0  0
  145.6500  154.3850  133.3770 C   0  0  0  0  0  0  0  0  0  0  0  0
  146.7710  153.5790  133.1160 C   0  0  0  0  0  0  0  0  0  0  0  0
  148.0270  154.1610  132.8010 C   0  0  0  0  0  0  0  0  0  0  0  0
  149.2360  153.2880  132.5820 C   0  0  0  0  0  0  0  0  0  0  0  0
  149.0250  152.4180  131.5260 F   0  0  0  0  0  0  0  0  0  0  0  0
  149.4800  152.5540  133.7280 F   0  0  0  0  0  0  0  0  0  0  0  0
  150.3490  154.0570  132.2930 F   0  0  0  0  0  0  0  0  0  0  0  0
  148.1570  155.5690  132.7850 C   0  0  0  0  0  0  0  0  0  0  0  0
  147.0220  156.3430  133.0410 C   0  0  0  0  0  0  0  0  0  0  0  0
  146.9270  157.6880  133.0900 N   0  0  0  0  0  0  0  0  0  0  0  0
  148.0070  158.6140  132.9070 C   0  0  0  0  0  0  0  0  0  0  0  0
  148.0640  159.6540  133.6170 O   0  0  0  0  0  0  0  0  0  0  0  0
  148.9950  158.4180  131.8000 C   0  0  0  0  0  0  0  0  0  0  0  0
  149.1780  159.9600  130.8590 P   0  0  1  0  0  0  0  0  0  0  0  0
  150.2910  160.7870  131.4630 O   0  0  0  0  0  0  0  0  0  0  0  0
  149.5600  159.6010  129.2500 O   0  0  0  0  0  0  0  0  0  0  0  0
  147.7310  160.8350  130.9160 O   0  0  0  0  0  0  0  0  0  0  0  0
  146.4370  160.7230  132.6690 H   0  0  0  0  0  0  0  0  0  0  0  0
  143.8477  156.6763  133.8312 H   0  0  0  0  0  0  0  0  0  0  0  0
  144.6725  153.9378  133.6106 H   0  0  0  0  0  0  0  0  0  0  0  0
  146.6742  152.4840  133.1562 H   0  0  0  0  0  0  0  0  0  0  0  0
  149.1273  156.0432  132.5763 H   0  0  0  0  0  0  0  0  0  0  0  0
  149.9683  158.1321  132.2255 H   0  0  0  0  0  0  0  0  0  0  0  0
  148.6361  157.6235  131.1292 H   0  0  0  0  0  0  0  0  0  0  0  0
  147.4460  160.7900  131.8640 H   0  0  0  0  0  0  0  0  0  0  0  0
  1  2  1  0
  2  3  2  0
  2  4  1  0
  4  5  2  0
  5  6  1  0
  6  7  2  0
  7  8  1  0
  8  9  2  0
  9 10  1  0
 10 11  1  0
 10 12  1  0
 10 13  1  0
  9 14  1  0
 14 15  2  0
 15 16  1  0
 16 17  1  0
 17 18  2  0
 17 19  1  0
 19 20  1  0
 20 21  2  0
 20 22  1  6
 20 23  1  0
 16  4  1  0
 15  6  1  0
  1 24  1  0
  5 25  1  0
  7 26  1  0
  8 27  1  0
 14 28  1  0
 19 29  1  0
 19 30  1  0
 23 31  1  0
M  CHG  2   1  -1  22  -1
M  END
>  <UniqueID>  (4) 
4

>  <SMILES>  (4) 
[NH-]C(=O)c1cc2ccc(C(F)(F)F)cc2n1C(=O)C[P@@](=O)([O-])O

>  <Energy>  (4) 
64.70506108325074

>  <Genealogy>  (4) 
[NH-]C(=O)c1cc2ccc(C(F)(F)F)cc2n1C(=O)CP(=O)([O-])O (protonated)
[NH-]C(=O)c1cc2ccc(C(F)(F)F)cc2n1C(=O)C[P@@](=O)([O-])O (chirality)
[NH-]C(=O)c1cc2ccc(C(F)(F)F)cc2n1C(=O)C[P@@](=O)([O-])O (3D coordinates assigned)
[NH-]C(=O)c1cc2ccc(C(F)(F)F)cc2n1C(=O)C[P@@](=O)([O-])O (optimized conformer: 64.70506108325074 kcal/mol)

>  <smiles>  (4) 
NC(=O)c1cc2ccc(C(F)(F)F)cc2n1C(=O)CP(=O)(O)O

>  <score_type>  (4) 
oracle

>  <origin>  (4) 
adg

>  <m_score__min__energy>  (4) 
-5.2999999999999998

>  <m_primary>  (4) 
energy

$$$$
4:0
     RDKit          3D

 45 46  0  0  0  0  0  0  0  0999 V2000
  148.3270  155.6940  132.9900 C   0  0  0  0  0  0  0  0  0  0  0  0
  147.4850  156.9380  132.9900 C   0  0  0  0  0  0  0  0  0  0  0  0
  148.0660  158.1790  132.6310 C   0  0  0  0  0  0  0  0  0  0  0  0
  147.3170  159.3680  132.6940 C   0  0  0  0  0  0  0  0  0  0  0  0
  145.9930  159.2810  133.1110 C   0  0  0  0  0  0  0  0  0  0  0  0
  145.0580  160.2720  133.2890 C   0  0  0  0  0  0  0  0  0  0  0  0
  143.9080  159.6180  133.7270 C   0  0  0  0  0  0  0  0  0  0  0  0
  142.6300  160.3100  133.9990 C   0  0  0  0  0  0  0  0  0  0  0  0
  141.5920  159.6230  134.6960 N   0  0  0  0  0  0  0  0  0  0  0  0
  142.4550  161.5110  133.6420 O   0  0  0  0  0  0  0  0  0  0  0  0
  144.1220  158.2730  133.8100 N   0  0  0  0  0  0  0  0  0  0  0  0
  143.1780  157.2610  134.2040 C   0  0  0  0  0  0  0  0  0  0  0  0
  142.8420  157.1530  135.4160 O   0  0  0  0  0  0  0  0  0  0  0  0
  142.5250  156.3810  133.1750 C   0  0  0  0  0  0  0  0  0  0  0  0
  140.9930  155.6690  133.7740 S   0  0  0  0  0  0  0  0  0  0  0  0
  141.2900  154.7360  134.9150 O   0  0  0  0  0  0  0  0  0  0  0  0
  140.3110  154.8940  132.6800 O   0  0  0  0  0  0  0  0  0  0  0  0
  139.9220  156.9320  134.3000 N   0  0  0  0  0  0  0  0  0  0  0  0
  138.9800  157.2780  133.2340 C   0  0  0  0  0  0  0  0  0  0  0  0
  139.5340  158.4300  132.4510 C   0  0  0  0  0  0  0  0  0  0  0  0
  140.7850  158.5700  132.3800 O   0  0  0  0  0  0  0  0  0  0  0  0
  138.6740  159.4230  131.8650 N   0  0  0  0  0  0  0  0  0  0  0  0
  139.1130  160.8190  131.8590 C   0  0  0  0  0  0  0  0  0  0  0  0
  137.4720  159.0350  131.1180 C   0  0  0  0  0  0  0  0  0  0  0  0
  145.4090  158.0840  133.4410 C   0  0  0  0  0  0  0  0  0  0  0  0
  146.1420  156.8910  133.4210 C   0  0  0  0  0  0  0  0  0  0  0  0
  148.5325  155.3904  134.0271 H   0  0  0  0  0  0  0  0  0  0  0  0
  147.7887  154.8869  132.4715 H   0  0  0  0  0  0  0  0  0  0  0  0
  149.2763  155.8938  132.4715 H   0  0  0  0  0  0  0  0  0  0  0  0
  149.1142  158.2133  132.2993 H   0  0  0  0  0  0  0  0  0  0  0  0
  147.7641  160.3356  132.4222 H   0  0  0  0  0  0  0  0  0  0  0  0
  145.1892  161.3512  133.1215 H   0  0  0  0  0  0  0  0  0  0  0  0
  141.4090  158.6110  134.5180 H   0  0  0  0  0  0  0  0  0  0  0  0
  142.3108  156.9816  132.2787 H   0  0  0  0  0  0  0  0  0  0  0  0
  143.2159  155.5563  132.9460 H   0  0  0  0  0  0  0  0  0  0  0  0
  140.5160  157.7710  134.4950 H   0  0  0  0  0  0  0  0  0  0  0  0
  138.8407  156.4127  132.5692 H   0  0  0  0  0  0  0  0  0  0  0  0
  138.0095  157.5566  133.6704 H   0  0  0  0  0  0  0  0  0  0  0  0
  139.2243  161.1728  132.8946 H   0  0  0  0  0  0  0  0  0  0  0  0
  140.0791  160.8973  131.3389 H   0  0  0  0  0  0  0  0  0  0  0  0
  138.3656  161.4362  131.3389 H   0  0  0  0  0  0  0  0  0  0  0  0
  136.6692  158.7759  131.8240 H   0  0  0  0  0  0  0  0  0  0  0  0
  137.1470  159.8739  130.4850 H   0  0  0  0  0  0  0  0  0  0  0  0
  137.6988  158.1644  130.4850 H   0  0  0  0  0  0  0  0  0  0  0  0
  145.6827  155.9415  133.7333 H   0  0  0  0  0  0  0  0  0  0  0  0
  1  2  1  0
  2  3  2  0
  3  4  1  0
  4  5  2  0
  5  6  1  0
  6  7  2  0
  7  8  1  0
  8  9  1  0
  8 10  2  0
  7 11  1  0
 11 12  1  0
 12 13  2  0
 12 14  1  0
 14 15  1  0
 15 16  2  0
 15 17  2  0
 15 18  1  0
 18 19  1  0
 19 20  1  0
 20 21  2  0
 20 22  1  0
 22 23  1  0
 22 24  1  0
 11 25  1  0
 25 26  2  0
 26  2  1  0
 25  5  1  0
  1 27  1  0
  1 28  1  0
  1 29  1  0
  3 30  1  0
  4 31  1  0
  6 32  1  0
  9 33  1  0
 14 34  1  0
 14 35  1  0
 18 36  1  0
 19 37  1  0
 19 38  1  0
 23 39  1  0
 23 40  1  0
 23 41  1  0
 24 42  1  0
 24 43  1  0
 24 44  1  0
 26 45  1  0
M  CHG  1   9  -1
M  END
>  <UniqueID>  (5) 
5

>  <SMILES>  (5) 
Cc1ccc2cc(C([NH-])=O)n(C(=O)CS(=O)(=O)NCC(=O)N(C)C)c2c1

>  <Energy>  (5) 
75.6990558419659

>  <Genealogy>  (5) 
Cc1ccc2cc(C([NH-])=O)n(C(=O)CS(=O)(=O)NCC(=O)N(C)C)c2c1 (protonated)
Cc1ccc2cc(C([NH-])=O)n(C(=O)CS(=O)(=O)NCC(=O)N(C)C)c2c1 (3D coordinates assigned)
Cc1ccc2cc(C([NH-])=O)n(C(=O)CS(=O)(=O)NCC(=O)N(C)C)c2c1 (optimized conformer: 75.6990558419659 kcal/mol)

>  <smiles>  (5) 
Cc1ccc2cc(C(N)=O)n(C(=O)CS(=O)(=O)NCC(=O)N(C)C)c2c1

>  <score_type>  (5) 
oracle

>  <origin>  (5) 
adg

>  <m_score__min__energy>  (5) 
-8.2100000000000009

>  <m_primary>  (5) 
energy

$$$$
5:0
     RDKit          3D

 46 48  0  0  0  0  0  0  0  0999 V2000
  149.5690  157.5520  132.2080 C   0  0  0  0  0  0  0  0  0  0  0  0
  148.2740  157.1410  132.7660 N   0  0  0  0  0  0  0  0  0  0  0  0
  148.0320  155.7130  133.0070 C   0  0  0  0  0  0  0  0  0  0  0  0
  147.2550  158.1290  133.0800 C   0  0  0  0  0  0  0  0  0  0  0  0
  147.5600  159.5220  133.0540 C   0  0  0  0  0  0  0  0  0  0  0  0
  146.5780  160.4860  133.3350 C   0  0  0  0  0  0  0  0  0  0  0  0
  145.2970  160.0450  133.6440 C   0  0  0  0  0  0  0  0  0  0  0  0
  144.1540  160.7640  133.9090 C   0  0  0  0  0  0  0  0  0  0  0  0
  143.1580  159.8090  134.1120 C   0  0  0  0  0  0  0  0  0  0  0  0
  141.7660  160.1420  134.4810 C   0  0  0  0  0  0  0  0  0  0  0  0
  141.1890  159.5790  135.6570 N   0  0  0  0  0  0  0  0  0  0  0  0
  141.0700  160.8970  133.7540 O   0  0  0  0  0  0  0  0  0  0  0  0
  143.6700  158.5540  133.9770 N   0  0  0  0  0  0  0  0  0  0  0  0
  142.9660  157.3060  134.0320 C   0  0  0  0  0  0  0  0  0  0  0  0
  142.7030  156.6870  132.9650 O   0  0  0  0  0  0  0  0  0  0  0  0
  142.5870  156.7770  135.2700 O   0  0  0  0  0  0  0  0  0  0  0  0
  141.2570  156.3440  135.5470 C   0  0  0  0  0  0  0  0  0  0  0  0
  140.3280  157.1940  134.8820 O   0  0  0  0  0  0  0  0  0  0  0  0
  139.7220  156.8470  133.6680 C   0  0  0  0  0  0  0  0  0  0  0  0
  139.4440  155.6410  133.4250 O   0  0  0  0  0  0  0  0  0  0  0  0
  139.4120  157.8950  132.6720 C   0  0  0  0  0  0  0  0  0  0  0  0
  140.4380  158.4930  131.9160 C   0  0  0  0  0  0  0  0  0  0  0  0
  140.1390  159.4960  130.9870 C   0  0  0  0  0  0  0  0  0  0  0  0
  138.8180  159.9110  130.8050 C   0  0  0  0  0  0  0  0  0  0  0  0
  138.5310  160.8840  129.9050 F   0  0  0  0  0  0  0  0  0  0  0  0
  137.7920  159.3210  131.5470 C   0  0  0  0  0  0  0  0  0  0  0  0
  138.0840  158.3170  132.4770 C   0  0  0  0  0  0  0  0  0  0  0  0
  144.9800  158.7150  133.6920 C   0  0  0  0  0  0  0  0  0  0  0  0
  145.9310  157.7290  133.4070 C   0  0  0  0  0  0  0  0  0  0  0  0
  150.2678  157.7738  133.0280 H   0  0  0  0  0  0  0  0  0  0  0  0
  149.9762  156.7389  131.5890 H   0  0  0  0  0  0  0  0  0  0  0  0
  149.4328  158.4511  131.5890 H   0  0  0  0  0  0  0  0  0  0  0  0
  148.0000  155.5242  134.0902 H   0  0  0  0  0  0  0  0  0  0  0  0
  147.0718  155.4225  132.5557 H   0  0  0  0  0  0  0  0  0  0  0  0
  148.8429  155.1224  132.5557 H   0  0  0  0  0  0  0  0  0  0  0  0
  148.5821  159.8470  132.8096 H   0  0  0  0  0  0  0  0  0  0  0  0
  146.8162  161.5596  133.3112 H   0  0  0  0  0  0  0  0  0  0  0  0
  144.0484  161.8581  133.9516 H   0  0  0  0  0  0  0  0  0  0  0  0
  141.4530  158.6220  135.9800 H   0  0  0  0  0  0  0  0  0  0  0  0
  141.1271  155.3111  135.1916 H   0  0  0  0  0  0  0  0  0  0  0  0
  141.0782  156.3863  136.6315 H   0  0  0  0  0  0  0  0  0  0  0  0
  141.4802  158.1702  132.0562 H   0  0  0  0  0  0  0  0  0  0  0  0
  140.9457  159.9583  130.3992 H   0  0  0  0  0  0  0  0  0  0  0  0
  136.7516  159.6465  131.3998 H   0  0  0  0  0  0  0  0  0  0  0  0
  137.2719  157.8557  133.0581 H   0  0  0  0  0  0  0  0  0  0  0  0
  145.6588  156.6636  133.4355 H   0  0  0  0  0  0  0  0  0  0  0  0
  1  2  1  0
  2  3  1  0
  2  4  1  0
  4  5  2  0
  5  6  1  0
  6  7  2  0
  7  8  1  0
  8  9  2  0
  9 10  1  0
 10 11  1  0
 10 12  2  0
  9 13  1  0
 13 14  1  0
 14 15  2  0
 14 16  1  0
 16 17  1  0
 17 18  1  0
 18 19  1  0
 19 20  2  0
 19 21  1  0
 21 22  2  0
 22 23  1  0
 23 24  2  0
 24 25  1  0
 24 26  1  0
 26 27  2  0
 13 28  1  0
 28 29  2  0
 29  4  1  0
 28  7  1  0
 27 21  1  0
  1 30  1  0
  1 31  1  0
  1 32  1  0
  3 33  1  0
  3 34  1  0
  3 35  1  0
  5 36  1  0
  6 37  1  0
  8 38  1  0
 11 39  1  0
 17 40  1  0
 17 41  1  0
 22 42  1  0
 23 43  1  0
 26 44  1  0
 27 45  1  0
 29 46  1  0
M  CHG  1  11  -1
M  END
>  <UniqueID>  (6) 
6

>  <SMILES>  (6) 
CN(C)c1ccc2cc(C([NH-])=O)n(C(=O)OCOC(=O)c3ccc(F)cc3)c2c1

>  <Energy>  (6) 
84.299963777532

>  <Genealogy>  (6) 
CN(C)c1ccc2cc(C([NH-])=O)n(C(=O)OCOC(=O)c3ccc(F)cc3)c2c1 (protonated)
CN(C)c1ccc2cc(C([NH-])=O)n(C(=O)OCOC(=O)c3ccc(F)cc3)c2c1 (3D coordinates assigned)
CN(C)c1ccc2cc(C([NH-])=O)n(C(=O)OCOC(=O)c3ccc(F)cc3)c2c1 (optimized conformer: 84.299963777532 kcal/mol)

>  <smiles>  (6) 
CN(C)c1ccc2cc(C(N)=O)n(C(=O)OCOC(=O)c3ccc(F)cc3)c2c1

>  <score_type>  (6) 
oracle

>  <origin>  (6) 
adg

>  <m_score__min__energy>  (6) 
-7.75

>  <m_primary>  (6) 
energy

$$$$
6:0
     RDKit          3D

 42 43  0  0  0  0  0  0  0  0999 V2000
  141.4540  155.3560  133.6950 C   0  0  0  0  0  0  0  0  0  0  0  0
  141.3780  156.8210  133.6460 N   0  0  0  0  0  0  0  0  0  0  0  0
  140.0590  157.4640  133.6730 C   0  0  0  0  0  0  0  0  0  0  0  0
  142.5880  157.6200  133.5750 C   0  0  0  0  0  0  0  0  0  0  0  0
  142.5270  159.0440  133.6260 C   0  0  0  0  0  0  0  0  0  0  0  0
  143.6930  159.8250  133.5590 C   0  0  0  0  0  0  0  0  0  0  0  0
  144.9130  159.1690  133.4500 C   0  0  0  0  0  0  0  0  0  0  0  0
  146.1920  159.6740  133.3580 C   0  0  0  0  0  0  0  0  0  0  0  0
  147.0210  158.5580  133.2540 C   0  0  0  0  0  0  0  0  0  0  0  0
  148.4890  158.6250  133.0910 C   0  0  0  0  0  0  0  0  0  0  0  0
  149.0880  158.2120  131.8660 N   0  0  0  0  0  0  0  0  0  0  0  0
  149.2200  159.0420  134.0280 O   0  0  0  0  0  0  0  0  0  0  0  0
  146.2830  157.4160  133.3010 N   0  0  0  0  0  0  0  0  0  0  0  0
  146.7470  156.0630  133.1820 C   0  0  0  0  0  0  0  0  0  0  0  0
  147.5300  155.7740  132.2380 O   0  0  0  0  0  0  0  0  0  0  0  0
  146.3160  155.0380  134.1080 N   0  0  0  0  0  0  0  0  0  0  0  0
  145.7540  153.7810  133.5890 C   0  0  0  0  0  0  0  0  0  0  0  0
  144.3330  153.5880  134.0350 C   0  0  0  0  0  0  0  0  0  0  0  0
  143.8850  154.2560  135.0030 O   0  0  0  0  0  0  0  0  0  0  0  0
  143.4890  152.7190  133.3550 O   0  0  0  0  0  0  0  0  0  0  0  0
  146.4820  155.1970  135.5610 C   0  0  0  0  0  0  0  0  0  0  0  0
  147.7240  154.0330  136.2050 P   0  0  0  0  0  0  0  0  0  0  0  0
  148.4540  153.3950  135.0470 O   0  0  0  0  0  0  0  0  0  0  0  0
  148.8370  154.8530  137.1780 O   0  0  0  0  0  0  0  0  0  0  0  0
  146.9650  152.8270  137.1140 O   0  0  0  0  0  0  0  0  0  0  0  0
  144.9980  157.8050  133.4040 C   0  0  0  0  0  0  0  0  0  0  0  0
  143.8590  156.9990  133.4570 C   0  0  0  0  0  0  0  0  0  0  0  0
  141.4712  155.0246  134.7438 H   0  0  0  0  0  0  0  0  0  0  0  0
  140.5769  154.9262  133.1890 H   0  0  0  0  0  0  0  0  0  0  0  0
  142.3708  155.0193  133.1890 H   0  0  0  0  0  0  0  0  0  0  0  0
  139.7466  157.6163  134.7167 H   0  0  0  0  0  0  0  0  0  0  0  0
  140.1145  158.4362  133.1613 H   0  0  0  0  0  0  0  0  0  0  0  0
  139.3273  156.8215  133.1613 H   0  0  0  0  0  0  0  0  0  0  0  0
  141.5495  159.5397  133.7195 H   0  0  0  0  0  0  0  0  0  0  0  0
  143.6416  160.9233  133.5919 H   0  0  0  0  0  0  0  0  0  0  0  0
  146.4942  160.7317  133.3651 H   0  0  0  0  0  0  0  0  0  0  0  0
  148.8840  157.2720  131.4590 H   0  0  0  0  0  0  0  0  0  0  0  0
  145.7837  153.8032  132.4896 H   0  0  0  0  0  0  0  0  0  0  0  0
  146.3549  152.9468  133.9802 H   0  0  0  0  0  0  0  0  0  0  0  0
  146.8072  156.2257  135.7758 H   0  0  0  0  0  0  0  0  0  0  0  0
  145.5187  154.9883  136.0494 H   0  0  0  0  0  0  0  0  0  0  0  0
  143.9450  155.9034  133.4082 H   0  0  0  0  0  0  0  0  0  0  0  0
  1  2  1  0
  2  3  1  0
  2  4  1  0
  4  5  2  0
  5  6  1  0
  6  7  2  0
  7  8  1  0
  8  9  2  0
  9 10  1  0
 10 11  1  0
 10 12  2  0
  9 13  1  0
 13 14  1  0
 14 15  2  0
 14 16  1  0
 16 17  1  0
 17 18  1  0
 18 19  2  0
 18 20  1  0
 16 21  1  0
 21 22  1  0
 22 23  2  0
 22 24  1  0
 22 25  1  0
 13 26  1  0
 26 27  2  0
 27  4  1  0
 26  7  1  0
  1 28  1  0
  1 29  1  0
  1 30  1  0
  3 31  1  0
  3 32  1  0
  3 33  1  0
  5 34  1  0
  6 35  1  0
  8 36  1  0
 11 37  1  0
 17 38  1  0
 17 39  1  0
 21 40  1  0
 21 41  1  0
 27 42  1  0
M  CHG  4  11  -1  20  -1  24  -1  25  -1
M  END
>  <UniqueID>  (7) 
7

>  <SMILES>  (7) 
CN(C)c1ccc2cc(C([NH-])=O)n(C(=O)N(CC(=O)[O-])CP(=O)([O-])[O-])c2c1

>  <Energy>  (7) 
77.01696184119106

>  <Genealogy>  (7) 
CN(C)c1ccc2cc(C([NH-])=O)n(C(=O)N(CC(=O)[O-])CP(=O)([O-])[O-])c2c1 (protonated)
CN(C)c1ccc2cc(C([NH-])=O)n(C(=O)N(CC(=O)[O-])CP(=O)([O-])[O-])c2c1 (3D coordinates assigned)
CN(C)c1ccc2cc(C([NH-])=O)n(C(=O)N(CC(=O)[O-])CP(=O)([O-])[O-])c2c1 (optimized conformer: 77.01696184119106 kcal/mol)

>  <smiles>  (7) 
CN(C)c1ccc2cc(C(N)=O)n(C(=O)N(CC(=O)O)CP(=O)(O)O)c2c1

>  <score_type>  (7) 
oracle

>  <origin>  (7) 
adg

>  <m_score__min__energy>  (7) 
-6.3300000000000001

>  <m_primary>  (7) 
energy

$$$$
7:0
     RDKit          3D

 32 33  0  0  0  0  0  0  0  0999 V2000
  149.2340  157.2680  132.6030 C   0  0  0  0  0  0  0  0  0  0  0  0
  148.1000  158.2170  132.8530 C   0  0  0  0  0  0  0  0  0  0  0  0
  148.3620  159.5890  133.0820 C   0  0  0  0  0  0  0  0  0  0  0  0
  147.3130  160.4790  133.3660 C   0  0  0  0  0  0  0  0  0  0  0  0
  146.0190  159.9680  133.4190 C   0  0  0  0  0  0  0  0  0  0  0  0
  144.8290  160.5970  133.7040 C   0  0  0  0  0  0  0  0  0  0  0  0
  143.8580  159.6010  133.6350 C   0  0  0  0  0  0  0  0  0  0  0  0
  142.4110  159.8630  133.7910 C   0  0  0  0  0  0  0  0  0  0  0  0
  141.4830  159.4820  132.7800 N   0  0  0  0  0  0  0  0  0  0  0  0
  141.9970  160.4770  134.8100 O   0  0  0  0  0  0  0  0  0  0  0  0
  144.4270  158.3990  133.3310 N   0  0  0  0  0  0  0  0  0  0  0  0
  143.7880  157.1150  133.2500 C   0  0  0  0  0  0  0  0  0  0  0  0
  142.8220  156.9420  132.4580 O   0  0  0  0  0  0  0  0  0  0  0  0
  144.2270  156.0680  134.0680 O   0  0  0  0  0  0  0  0  0  0  0  0
  145.1190  155.0550  133.6170 C   0  0  0  0  0  0  0  0  0  0  0  0
  145.2660  154.0840  134.6270 O   0  0  0  0  0  0  0  0  0  0  0  0
  146.8250  154.2370  135.3000 P   0  0  0  0  0  0  0  0  0  0  0  0
  147.1160  155.6880  135.6150 O   0  0  0  0  0  0  0  0  0  0  0  0
  147.9610  153.6770  134.1820 O   0  0  0  0  0  0  0  0  0  0  0  0
  146.9470  153.3170  136.7160 O   0  0  0  0  0  0  0  0  0  0  0  0
  145.7490  158.6410  133.1980 C   0  0  0  0  0  0  0  0  0  0  0  0
  146.7770  157.7290  132.9320 C   0  0  0  0  0  0  0  0  0  0  0  0
  149.6438  156.9250  133.5645 H   0  0  0  0  0  0  0  0  0  0  0  0
  148.8685  156.4027  132.0306 H   0  0  0  0  0  0  0  0  0  0  0  0
  150.0214  157.7802  132.0306 H   0  0  0  0  0  0  0  0  0  0  0  0
  149.3960  159.9615  133.0372 H   0  0  0  0  0  0  0  0  0  0  0  0
  147.5080  161.5473  133.5412 H   0  0  0  0  0  0  0  0  0  0  0  0
  144.6767  161.6612  133.9370 H   0  0  0  0  0  0  0  0  0  0  0  0
  141.7550  158.8130  132.0270 H   0  0  0  0  0  0  0  0  0  0  0  0
  144.7123  154.5838  132.7101 H   0  0  0  0  0  0  0  0  0  0  0  0
  146.0982  155.5004  133.3872 H   0  0  0  0  0  0  0  0  0  0  0  0
  146.5601  156.6602  132.7883 H   0  0  0  0  0  0  0  0  0  0  0  0
  1  2  1  0
  2  3  2  0
  3  4  1  0
  4  5  2  0
  5  6  1  0
  6  7  2  0
  7  8  1  0
  8  9  1  0
  8 10  2  0
  7 11  1  0
 11 12  1  0
 12 13  2  0
 12 14  1  0
 14 15  1  0
 15 16  1  0
 16 17  1  0
 17 18  2  0
 17 19  1  0
 17 20  1  0
 11 21  1  0
 21 22  2  0
 22  2  1  0
 21  5  1  0
  1 23  1  0
  1 24  1  0
  1 25  1  0
  3 26  1  0
  4 27  1  0
  6 28  1  0
  9 29  1  0
 15 30  1  0
 15 31  1  0
 22 32  1  0
M  CHG  3   9  -1  19  -1  20  -1
M  END
>  <UniqueID>  (8) 
8

>  <SMILES>  (8) 
Cc1ccc2cc(C([NH-])=O)n(C(=O)OCOP(=O)([O-])[O-])c2c1

>  <Energy>  (8) 
68.26200344835355

>  <Genealogy>  (8) 
Cc1ccc2cc(C([NH-])=O)n(C(=O)OCOP(=O)([O-])[O-])c2c1 (protonated)
Cc1ccc2cc(C([NH-])=O)n(C(=O)OCOP(=O)([O-])[O-])c2c1 (3D coordinates assigned)
Cc1ccc2cc(C([NH-])=O)n(C(=O)OCOP(=O)([O-])[O-])c2c1 (optimized conformer: 68.26200344835355 kcal/mol)

>  <smiles>  (8) 
Cc1ccc2cc(C(N)=O)n(C(=O)OCOP(=O)(O)O)c2c1

>  <score_type>  (8) 
oracle

>  <origin>  (8) 
adg

>  <m_score__min__energy>  (8) 
-6.4299999999999997

>  <m_primary>  (8) 
energy

$$$$
8:0
     RDKit          3D

 41 42  0  0  0  0  0  0  0  0999 V2000
  138.3910  160.0590  131.0990 C   0  0  0  0  0  0  0  0  0  0  0  0
  139.4720  160.6050  131.8250 O   0  0  0  0  0  0  0  0  0  0  0  0
  140.1790  159.5750  132.4890 C   0  0  0  0  0  0  0  0  0  0  0  0
  139.2310  158.3820  132.6660 C   0  0  0  0  0  0  0  0  0  0  0  0
  139.2390  157.9130  134.0140 O   0  0  0  0  0  0  0  0  0  0  0  0
  139.8990  156.7490  134.4270 C   0  0  0  0  0  0  0  0  0  0  0  0
  140.2370  156.5950  135.6320 O   0  0  0  0  0  0  0  0  0  0  0  0
  140.1920  155.6980  133.4440 C   0  0  0  0  0  0  0  0  0  0  0  0
  139.2680  155.2600  132.7080 O   0  0  0  0  0  0  0  0  0  0  0  0
  141.5170  155.1570  133.3170 N   0  0  0  0  0  0  0  0  0  0  0  0
  142.6990  155.8300  133.3830 C   0  0  0  0  0  0  0  0  0  0  0  0
  142.8510  157.2950  133.5070 C   0  0  0  0  0  0  0  0  0  0  0  0
  142.3590  157.9650  134.6660 N   0  0  0  0  0  0  0  0  0  0  0  0
  143.4290  157.9610  132.6090 O   0  0  0  0  0  0  0  0  0  0  0  0
  143.7700  154.9450  133.2690 C   0  0  0  0  0  0  0  0  0  0  0  0
  143.2000  153.6990  133.1330 C   0  0  0  0  0  0  0  0  0  0  0  0
  143.7990  152.4490  133.0000 C   0  0  0  0  0  0  0  0  0  0  0  0
  142.9600  151.3240  132.9090 C   0  0  0  0  0  0  0  0  0  0  0  0
  141.5500  151.4680  132.9580 C   0  0  0  0  0  0  0  0  0  0  0  0
  140.6740  150.2520  132.8740 C   0  0  0  0  0  0  0  0  0  0  0  0
  139.4180  150.6140  132.4190 F   0  0  0  0  0  0  0  0  0  0  0  0
  140.5570  149.6720  134.1240 F   0  0  0  0  0  0  0  0  0  0  0  0
  140.9800  152.7520  133.0980 C   0  0  0  0  0  0  0  0  0  0  0  0
  141.8390  153.8540  133.1680 C   0  0  0  0  0  0  0  0  0  0  0  0
  140.5990  160.0430  133.7620 O   0  0  0  0  0  0  0  0  0  0  0  0
  141.8180  160.7450  133.6580 C   0  0  0  0  0  0  0  0  0  0  0  0
  137.6343  159.6768  131.8000 H   0  0  0  0  0  0  0  0  0  0  0  0
  137.9434  160.8391  130.4657 H   0  0  0  0  0  0  0  0  0  0  0  0
  138.7532  159.2357  130.4657 H   0  0  0  0  0  0  0  0  0  0  0  0
  141.0620  159.2742  131.9060 H   0  0  0  0  0  0  0  0  0  0  0  0
  138.2098  158.6924  132.4000 H   0  0  0  0  0  0  0  0  0  0  0  0
  139.5710  157.5663  132.0110 H   0  0  0  0  0  0  0  0  0  0  0  0
  141.3570  158.2490  134.7370 H   0  0  0  0  0  0  0  0  0  0  0  0
  144.8423  155.1899  133.2844 H   0  0  0  0  0  0  0  0  0  0  0  0
  144.8936  152.3448  132.9672 H   0  0  0  0  0  0  0  0  0  0  0  0
  143.4017  150.3226  132.7987 H   0  0  0  0  0  0  0  0  0  0  0  0
  141.1255  149.5311  132.1765 H   0  0  0  0  0  0  0  0  0  0  0  0
  139.8890  152.8825  133.1507 H   0  0  0  0  0  0  0  0  0  0  0  0
  142.2011  160.9656  134.6652 H   0  0  0  0  0  0  0  0  0  0  0  0
  142.5500  160.1301  133.1138 H   0  0  0  0  0  0  0  0  0  0  0  0
  141.6535  161.6867  133.1138 H   0  0  0  0  0  0  0  0  0  0  0  0
  1  2  1  0
  2  3  1  0
  3  4  1  0
  4  5  1  0
  5  6  1  0
  6  7  2  0
  6  8  1  0
  8  9  2  0
  8 10  1  0
 10 11  1  0
 11 12  1  0
 12 13  1  0
 12 14  2  0
 11 15  2  0
 15 16  1  0
 16 17  2  0
 17 18  1  0
 18 19  2  0
 19 20  1  0
 20 21  1  0
 20 22  1  0
 19 23  1  0
 23 24  2  0
  3 25  1  0
 25 26  1  0
 24 10  1  0
 24 16  1  0
  1 27  1  0
  1 28  1  0
  1 29  1  0
  3 30  1  0
  4 31  1  0
  4 32  1  0
 13 33  1  0
 15 34  1  0
 17 35  1  0
 18 36  1  0
 20 37  1  0
 23 38  1  0
 26 39  1  0
 26 40  1  0
 26 41  1  0
M  CHG  1  13  -1
M  END
>  <UniqueID>  (9) 
9

>  <SMILES>  (9) 
COC(COC(=O)C(=O)n1c(C([NH-])=O)cc2ccc(C(F)F)cc21)OC

>  <Energy>  (9) 
80.56051268106425

>  <Genealogy>  (9) 
COC(COC(=O)C(=O)n1c(C([NH-])=O)cc2ccc(C(F)F)cc21)OC (protonated)
COC(COC(=O)C(=O)n1c(C([NH-])=O)cc2ccc(C(F)F)cc21)OC (3D coordinates assigned)
COC(COC(=O)C(=O)n1c(C([NH-])=O)cc2ccc(C(F)F)cc21)OC (optimized conformer: 80.56051268106425 kcal/mol)

>  <smiles>  (9) 
COC(COC(=O)C(=O)n1c(C(N)=O)cc2ccc(C(F)F)cc21)OC

>  <score_type>  (9) 
oracle

>  <origin>  (9) 
adg

>  <m_score__min__energy>  (9) 
-5.2400000000000002

>  <m_primary>  (9) 
energy

$$$$
9:0
     RDKit          3D

 38 40  0  0  0  0  0  0  0  0999 V2000
  144.5970  153.6330  132.3550 C   0  0  0  0  0  0  0  0  0  0  0  0
  144.7400  155.0710  132.7550 C   0  0  0  0  0  0  0  0  0  0  0  0
  146.0270  155.6180  132.9850 C   0  0  0  0  0  0  0  0  0  0  0  0
  146.1800  156.9760  133.3180 C   0  0  0  0  0  0  0  0  0  0  0  0
  145.0310  157.7570  133.4050 C   0  0  0  0  0  0  0  0  0  0  0  0
  144.8870  159.0990  133.6860 C   0  0  0  0  0  0  0  0  0  0  0  0
  143.5170  159.3470  133.6090 C   0  0  0  0  0  0  0  0  0  0  0  0
  142.9080  160.6820  133.7790 C   0  0  0  0  0  0  0  0  0  0  0  0
  141.5050  160.7990  134.0050 N   0  0  0  0  0  0  0  0  0  0  0  0
  143.6150  161.7220  133.7380 O   0  0  0  0  0  0  0  0  0  0  0  0
  142.8440  158.2010  133.3130 N   0  0  0  0  0  0  0  0  0  0  0  0
  141.4270  158.0250  133.1550 C   0  0  0  0  0  0  0  0  0  0  0  0
  140.8590  158.5560  132.1630 O   0  0  0  0  0  0  0  0  0  0  0  0
  140.6290  157.1270  134.0960 C   0  0  0  0  0  0  0  0  0  0  0  0
  140.1900  155.8970  133.4010 C   0  0  0  0  0  0  0  0  0  0  0  0
  139.8440  154.9350  132.8580 N   0  0  0  0  0  0  0  0  0  0  0  0
  141.4470  156.7670  135.3460 C   0  0  0  0  0  0  0  0  0  0  0  0
  141.1450  157.8480  136.3850 C   0  0  0  0  0  0  0  0  0  0  0  0
  139.9160  158.6100  135.8920 C   0  0  0  0  0  0  0  0  0  0  0  0
  139.4170  157.8760  134.6550 C   0  0  0  0  0  0  0  0  0  0  0  0
  143.7820  157.2430  133.1760 C   0  0  0  0  0  0  0  0  0  0  0  0
  143.6000  155.9000  132.8340 C   0  0  0  0  0  0  0  0  0  0  0  0
  144.5347  153.0060  133.2567 H   0  0  0  0  0  0  0  0  0  0  0  0
  143.6820  153.5079  131.7574 H   0  0  0  0  0  0  0  0  0  0  0  0
  145.4695  153.3301  131.7574 H   0  0  0  0  0  0  0  0  0  0  0  0
  146.9151  154.9742  132.9023 H   0  0  0  0  0  0  0  0  0  0  0  0
  147.1750  157.4067  133.5036 H   0  0  0  0  0  0  0  0  0  0  0  0
  145.6833  159.8205  133.9210 H   0  0  0  0  0  0  0  0  0  0  0  0
  140.8180  160.3580  133.3560 H   0  0  0  0  0  0  0  0  0  0  0  0
  141.1466  155.7794  135.7260 H   0  0  0  0  0  0  0  0  0  0  0  0
  142.5224  156.7206  135.1194 H   0  0  0  0  0  0  0  0  0  0  0  0
  140.9366  157.3860  137.3613 H   0  0  0  0  0  0  0  0  0  0  0  0
  142.0033  158.5248  136.5084 H   0  0  0  0  0  0  0  0  0  0  0  0
  139.1372  158.6177  136.6688 H   0  0  0  0  0  0  0  0  0  0  0  0
  140.1644  159.6561  135.6596 H   0  0  0  0  0  0  0  0  0  0  0  0
  138.6204  157.1674  134.9256 H   0  0  0  0  0  0  0  0  0  0  0  0
  138.9948  158.5716  133.9148 H   0  0  0  0  0  0  0  0  0  0  0  0
  142.5955  155.4998  132.6318 H   0  0  0  0  0  0  0  0  0  0  0  0
  1  2  1  0
  2  3  2  0
  3  4  1  0
  4  5  2  0
  5  6  1  0
  6  7  2  0
  7  8  1  0
  8  9  1  0
  8 10  2  0
  7 11  1  0
 11 12  1  0
 12 13  2  0
 12 14  1  0
 14 15  1  0
 15 16  3  0
 14 17  1  0
 17 18  1  0
 18 19  1  0
 19 20  1  0
 11 21  1  0
 21 22  2  0
 22  2  1  0
 21  5  1  0
 20 14  1  0
  1 23  1  0
  1 24  1  0
  1 25  1  0
  3 26  1  0
  4 27  1  0
  6 28  1  0
  9 29  1  0
 17 30  1  0
 17 31  1  0
 18 32  1  0
 18 33  1  0
 19 34  1  0
 19 35  1  0
 20 36  1  0
 20 37  1  0
 22 38  1  0
M  CHG  1   9  -1
M  END
>  <UniqueID>  (10) 
10

>  <SMILES>  (10) 
Cc1ccc2cc(C([NH-])=O)n(C(=O)C3(C#N)CCCC3)c2c1

>  <Energy>  (10) 
81.18115975364114

>  <Genealogy>  (10) 
Cc1ccc2cc(C([NH-])=O)n(C(=O)C3(C#N)CCCC3)c2c1 (protonated)
Cc1ccc2cc(C([NH-])=O)n(C(=O)C3(C#N)CCCC3)c2c1 (3D coordinates assigned)
Cc1ccc2cc(C([NH-])=O)n(C(=O)C3(C#N)CCCC3)c2c1 (nonaromatic ring conformer: 81.18115975364114 kcal/mol)

>  <smiles>  (10) 
Cc1ccc2cc(C(N)=O)n(C(=O)C3(C#N)CCCC3)c2c1

>  <score_type>  (10) 
oracle

>  <origin>  (10) 
adg

>  <m_score__min__energy>  (10) 
-7.6799999999999997

>  <m_primary>  (10) 
energy

$$$$
10:0
     RDKit          3D

 61 63  0  0  0  0  0  0  0  0999 V2000
  144.8190  152.4830  132.8560 C   0  0  0  0  0  0  0  0  0  0  0  0
  143.7560  153.5500  133.1770 C   0  0  0  0  0  0  0  0  0  0  0  0
  144.0660  154.8170  132.3700 C   0  0  0  0  0  0  0  0  0  0  0  0
  142.3490  153.0540  132.7930 C   0  0  0  0  0  0  0  0  0  0  0  0
  143.8070  153.9130  134.5650 O   0  0  0  0  0  0  0  0  0  0  0  0
  143.5580  155.1860  135.1000 C   0  0  0  0  0  0  0  0  0  0  0  0
  144.5180  155.9360  135.4270 O   0  0  0  0  0  0  0  0  0  0  0  0
  142.1980  155.6440  135.2620 N   0  0  0  0  0  0  0  0  0  0  0  0
  141.7970  156.3520  136.4870 C   0  0  0  0  0  0  0  0  0  0  0  0
  140.7500  157.4520  136.2120 C   0  0  0  0  0  0  0  0  0  0  0  0
  141.2110  158.5520  135.2290 C   0  0  0  0  0  0  0  0  0  0  0  0
  142.0100  158.0650  134.0770 N   0  0  0  0  0  0  0  0  0  0  0  0
  143.3200  158.6500  133.8280 C   0  0  0  0  0  0  0  0  0  0  0  0
  143.5100  160.0580  133.9190 C   0  0  0  0  0  0  0  0  0  0  0  0
  144.7670  160.6390  133.6920 C   0  0  0  0  0  0  0  0  0  0  0  0
  145.8210  159.8020  133.3520 C   0  0  0  0  0  0  0  0  0  0  0  0
  147.1330  160.1060  133.0730 C   0  0  0  0  0  0  0  0  0  0  0  0
  147.7360  158.8910  132.7680 C   0  0  0  0  0  0  0  0  0  0  0  0
  149.1300  158.7780  132.2920 C   0  0  0  0  0  0  0  0  0  0  0  0
  149.6710  157.5190  131.9010 N   0  0  0  0  0  0  0  0  0  0  0  0
  149.8330  159.8170  132.1750 O   0  0  0  0  0  0  0  0  0  0  0  0
  146.8370  157.8700  132.8710 N   0  0  0  0  0  0  0  0  0  0  0  0
  147.0840  156.4660  132.6780 C   0  0  0  0  0  0  0  0  0  0  0  0
  147.0300  155.9700  131.5200 O   0  0  0  0  0  0  0  0  0  0  0  0
  147.3750  155.6530  133.7800 O   0  0  0  0  0  0  0  0  0  0  0  0
  147.3300  154.2300  133.7410 C   0  0  0  0  0  0  0  0  0  0  0  0
  148.5460  153.6870  133.0580 C   0  0  0  0  0  0  0  0  0  0  0  0
  149.3380  154.5300  132.2210 N   0  0  0  0  0  0  0  0  0  0  0  0
  148.8940  152.4930  133.2510 O   0  0  0  0  0  0  0  0  0  0  0  0
  145.6670  158.4470  133.2320 C   0  0  0  0  0  0  0  0  0  0  0  0
  144.4370  157.8350  133.4980 C   0  0  0  0  0  0  0  0  0  0  0  0
  141.5230  156.9420  133.2520 C   0  0  0  0  0  0  0  0  0  0  0  0
  141.2870  155.6850  134.1070 C   0  0  0  0  0  0  0  0  0  0  0  0
  145.2247  152.0758  133.7939 H   0  0  0  0  0  0  0  0  0  0  0  0
  144.3595  151.6716  132.2724 H   0  0  0  0  0  0  0  0  0  0  0  0
  145.6321  152.9394  132.2724 H   0  0  0  0  0  0  0  0  0  0  0  0
  144.2698  155.6499  133.0590 H   0  0  0  0  0  0  0  0  0  0  0  0
  144.9477  154.6414  131.7361 H   0  0  0  0  0  0  0  0  0  0  0  0
  143.2028  155.0683  131.7361 H   0  0  0  0  0  0  0  0  0  0  0  0
  141.7703  152.8500  133.7060 H   0  0  0  0  0  0  0  0  0  0  0  0
  141.8374  153.8260  132.1994 H   0  0  0  0  0  0  0  0  0  0  0  0
  142.4346  152.1319  132.1994 H   0  0  0  0  0  0  0  0  0  0  0  0
  141.3687  155.6243  137.1920 H   0  0  0  0  0  0  0  0  0  0  0  0
  142.6923  156.8364  136.9039 H   0  0  0  0  0  0  0  0  0  0  0  0
  139.8521  156.9734  135.7939 H   0  0  0  0  0  0  0  0  0  0  0  0
  140.5658  157.9527  137.1740 H   0  0  0  0  0  0  0  0  0  0  0  0
  140.3158  159.0558  134.8355 H   0  0  0  0  0  0  0  0  0  0  0  0
  141.8705  159.2209  135.8014 H   0  0  0  0  0  0  0  0  0  0  0  0
  142.6553  160.7026  134.1720 H   0  0  0  0  0  0  0  0  0  0  0  0
  144.9129  161.7257  133.7808 H   0  0  0  0  0  0  0  0  0  0  0  0
  147.6050  161.0995  133.0880 H   0  0  0  0  0  0  0  0  0  0  0  0
  149.0600  156.7720  131.5040 H   0  0  0  0  0  0  0  0  0  0  0  0
  147.2876  153.8406  134.7689 H   0  0  0  0  0  0  0  0  0  0  0  0
  146.4368  153.9169  133.1805 H   0  0  0  0  0  0  0  0  0  0  0  0
  149.0880  155.5350  132.0900 H   0  0  0  0  0  0  0  0  0  0  0  0
  150.1860  154.1520  131.7440 H   0  0  0  0  0  0  0  0  0  0  0  0
  144.3361  156.7406  133.4525 H   0  0  0  0  0  0  0  0  0  0  0  0
  140.5766  157.2329  132.7728 H   0  0  0  0  0  0  0  0  0  0  0  0
  142.2860  156.7098  132.4944 H   0  0  0  0  0  0  0  0  0  0  0  0
  140.2486  155.6884  134.4699 H   0  0  0  0  0  0  0  0  0  0  0  0
  141.4787  154.7999  133.4826 H   0  0  0  0  0  0  0  0  0  0  0  0
  1  2  1  0
  2  3  1  0
  2  4  1  0
  2  5  1  0
  5  6  1  0
  6  7  2  0
  6  8  1  0
  8  9  1  0
  9 10  1  0
 10 11  1  0
 11 12  1  0
 12 13  1  0
 13 14  2  0
 14 15  1  0
 15 16  2  0
 16 17  1  0
 17 18  2  0
 18 19  1  0
 19 20  1  0
 19 21  2  0
 18 22  1  0
 22 23  1  0
 23 24  2  0
 23 25  1  0
 25 26  1  0
 26 27  1  0
 27 28  1  0
 27 29  2  0
 22 30  1  0
 30 31  2  0
 12 32  1  0
 32 33  1  0
 33  8  1  0
 31 13  1  0
 30 16  1  0
  1 34  1  0
  1 35  1  0
  1 36  1  0
  3 37  1  0
  3 38  1  0
  3 39  1  0
  4 40  1  0
  4 41  1  0
  4 42  1  0
  9 43  1  0
  9 44  1  0
 10 45  1  0
 10 46  1  0
 11 47  1  0
 11 48  1  0
 14 49  1  0
 15 50  1  0
 17 51  1  0
 20 52  1  0
 26 53  1  0
 26 54  1  0
 28 55  1  0
 28 56  1  0
 31 57  1  0
 32 58  1  0
 32 59  1  0
 33 60  1  0
 33 61  1  0
M  CHG  1  20  -1
M  END
>  <UniqueID>  (11) 
11

>  <SMILES>  (11) 
CC(C)(C)OC(=O)N1CCCN(c2ccc3cc(C([NH-])=O)n(C(=O)OCC(N)=O)c3c2)CC1

>  <Energy>  (11) 
97.29963954288135

>  <Genealogy>  (11) 
CC(C)(C)OC(=O)N1CCCN(c2ccc3cc(C([NH-])=O)n(C(=O)OCC(N)=O)c3c2)CC1 (protonated)
CC(C)(C)OC(=O)N1CCCN(c2ccc3cc(C([NH-])=O)n(C(=O)OCC(N)=O)c3c2)CC1 (3D coordinates assigned)
CC(C)(C)OC(=O)N1CCCN(c2ccc3cc(C([NH-])=O)n(C(=O)OCC(N)=O)c3c2)CC1 (nonaromatic ring conformer: 97.29963954288135 kcal/mol)

>  <smiles>  (11) 
CC(C)(C)OC(=O)N1CCCN(c2ccc3cc(C(N)=O)n(C(=O)OCC(N)=O)c3c2)CC1

>  <score_type>  (11) 
oracle

>  <origin>  (11) 
adg

>  <m_score__min__energy>  (11) 
-6.7199999999999998

>  <m_primary>  (11) 
energy

$$$$
11:0
     RDKit          3D

 38 39  0  0  0  0  0  0  0  0999 V2000
  148.3170  154.8420  132.7070 C   0  0  0  0  0  0  0  0  0  0  0  0
  147.9050  156.2760  132.8640 C   0  0  0  0  0  0  0  0  0  0  0  0
  148.8560  157.3110  132.6930 C   0  0  0  0  0  0  0  0  0  0  0  0
  148.4720  158.6590  132.7890 C   0  0  0  0  0  0  0  0  0  0  0  0
  147.1340  158.9380  133.0520 C   0  0  0  0  0  0  0  0  0  0  0  0
  146.4880  160.1490  133.1630 C   0  0  0  0  0  0  0  0  0  0  0  0
  145.1540  159.8340  133.4080 C   0  0  0  0  0  0  0  0  0  0  0  0
  144.1160  160.8510  133.6760 C   0  0  0  0  0  0  0  0  0  0  0  0
  142.7480  160.6030  133.3600 N   0  0  0  0  0  0  0  0  0  0  0  0
  144.4330  161.9340  134.2370 O   0  0  0  0  0  0  0  0  0  0  0  0
  144.9780  158.4820  133.4380 N   0  0  0  0  0  0  0  0  0  0  0  0
  143.7410  157.7620  133.5630 C   0  0  0  0  0  0  0  0  0  0  0  0
  142.9590  157.6780  132.5770 O   0  0  0  0  0  0  0  0  0  0  0  0
  143.4010  157.1750  134.7840 O   0  0  0  0  0  0  0  0  0  0  0  0
  142.0550  157.0530  135.2320 C   0  0  0  0  0  0  0  0  0  0  0  0
  141.4530  158.4430  135.4120 C   0  0  0  0  0  0  0  0  0  0  0  0
  140.9250  158.9260  134.1790 O   0  0  0  0  0  0  0  0  0  0  0  0
  139.9410  158.2520  133.4460 C   0  0  0  0  0  0  0  0  0  0  0  0
  139.2380  157.3530  133.9830 O   0  0  0  0  0  0  0  0  0  0  0  0
  139.6950  158.6330  132.0230 C   0  0  0  0  0  0  0  0  0  0  0  0
  140.7650  159.3990  131.5390 O   0  0  0  0  0  0  0  0  0  0  0  0
  146.2000  157.9470  133.2220 C   0  0  0  0  0  0  0  0  0  0  0  0
  146.5520  156.5980  133.1120 C   0  0  0  0  0  0  0  0  0  0  0  0
  148.4477  154.3872  133.7000 H   0  0  0  0  0  0  0  0  0  0  0  0
  147.5395  154.2957  132.1529 H   0  0  0  0  0  0  0  0  0  0  0  0
  149.2659  154.7917  132.1529 H   0  0  0  0  0  0  0  0  0  0  0  0
  149.9055  157.0572  132.4830 H   0  0  0  0  0  0  0  0  0  0  0  0
  149.2057  159.4684  132.6604 H   0  0  0  0  0  0  0  0  0  0  0  0
  146.9315  161.1519  133.0765 H   0  0  0  0  0  0  0  0  0  0  0  0
  142.4660  159.7520  132.8250 H   0  0  0  0  0  0  0  0  0  0  0  0
  141.4698  156.4932  134.4876 H   0  0  0  0  0  0  0  0  0  0  0  0
  142.0345  156.5165  136.1921 H   0  0  0  0  0  0  0  0  0  0  0  0
  140.6446  158.3930  136.1563 H   0  0  0  0  0  0  0  0  0  0  0  0
  142.2424  159.1294  135.7522 H   0  0  0  0  0  0  0  0  0  0  0  0
  139.5946  157.7222  131.4144 H   0  0  0  0  0  0  0  0  0  0  0  0
  138.7706  159.2261  131.9630 H   0  0  0  0  0  0  0  0  0  0  0  0
  141.5390  159.2130  132.1320 H   0  0  0  0  0  0  0  0  0  0  0  0
  145.7943  155.8074  133.2160 H   0  0  0  0  0  0  0  0  0  0  0  0
  1  2  1  0
  2  3  2  0
  3  4  1  0
  4  5  2  0
  5  6  1  0
  6  7  2  0
  7  8  1  0
  8  9  1  0
  8 10  2  0
  7 11  1  0
 11 12  1  0
 12 13  2  0
 12 14  1  0
 14 15  1  0
 15 16  1  0
 16 17  1  0
 17 18  1  0
 18 19  2  0
 18 20  1  0
 20 21  1  0
 11 22  1  0
 22 23  2  0
 23  2  1  0
 22  5  1  0
  1 24  1  0
  1 25  1  0
  1 26  1  0
  3 27  1  0
  4 28  1  0
  6 29  1  0
  9 30  1  0
 15 31  1  0
 15 32  1  0
 16 33  1  0
 16 34  1  0
 20 35  1  0
 20 36  1  0
 21 37  1  0
 23 38  1  0
M  CHG  1   9  -1
M  END
>  <UniqueID>  (12) 
12

>  <SMILES>  (12) 
Cc1ccc2cc(C([NH-])=O)n(C(=O)OCCOC(=O)CO)c2c1

>  <Energy>  (12) 
69.43147246515578

>  <Genealogy>  (12) 
Cc1ccc2cc(C([NH-])=O)n(C(=O)OCCOC(=O)CO)c2c1 (protonated)
Cc1ccc2cc(C([NH-])=O)n(C(=O)OCCOC(=O)CO)c2c1 (3D coordinates assigned)
Cc1ccc2cc(C([NH-])=O)n(C(=O)OCCOC(=O)CO)c2c1 (optimized conformer: 69.43147246515578 kcal/mol)

>  <smiles>  (12) 
Cc1ccc2cc(C(N)=O)n(C(=O)OCCOC(=O)CO)c2c1

>  <score_type>  (12) 
oracle

>  <origin>  (12) 
adg

>  <m_score__min__energy>  (12) 
-5.0700000000000003

>  <m_primary>  (12) 
energy

$$$$
12:0
     RDKit          3D

 40 41  0  0  0  0  0  0  0  0999 V2000
  148.2020  157.3610  133.8430 N   0  0  0  0  0  0  0  0  0  0  0  0
  147.7270  158.7000  133.7000 C   0  0  0  0  0  0  0  0  0  0  0  0
  148.5550  159.6260  133.4900 O   0  0  0  0  0  0  0  0  0  0  0  0
  146.2810  159.0130  133.7290 C   0  0  0  0  0  0  0  0  0  0  0  0
  145.7770  160.3120  133.6990 C   0  0  0  0  0  0  0  0  0  0  0  0
  144.4070  160.1700  133.7000 C   0  0  0  0  0  0  0  0  0  0  0  0
  143.4100  161.1390  133.7210 C   0  0  0  0  0  0  0  0  0  0  0  0
  142.0750  160.7050  133.7890 C   0  0  0  0  0  0  0  0  0  0  0  0
  141.7650  159.3240  133.8390 C   0  0  0  0  0  0  0  0  0  0  0  0
  140.3360  158.8810  133.9680 C   0  0  0  0  0  0  0  0  0  0  0  0
  139.5150  159.7030  133.2160 F   0  0  0  0  0  0  0  0  0  0  0  0
  139.9520  158.9460  135.2950 F   0  0  0  0  0  0  0  0  0  0  0  0
  142.8060  158.3690  133.8280 C   0  0  0  0  0  0  0  0  0  0  0  0
  144.1250  158.8290  133.7380 C   0  0  0  0  0  0  0  0  0  0  0  0
  145.2660  158.1060  133.7560 N   0  0  0  0  0  0  0  0  0  0  0  0
  145.3740  156.6880  133.9440 C   0  0  0  0  0  0  0  0  0  0  0  0
  145.9760  156.2290  134.9530 O   0  0  0  0  0  0  0  0  0  0  0  0
  144.8330  155.8240  132.9870 O   0  0  0  0  0  0  0  0  0  0  0  0
  145.6200  154.9120  132.2270 C   0  0  0  0  0  0  0  0  0  0  0  0
  146.9430  155.4200  132.0980 O   0  0  0  0  0  0  0  0  0  0  0  0
  148.0590  154.7270  132.5760 C   0  0  0  0  0  0  0  0  0  0  0  0
  149.1660  155.3140  132.7210 O   0  0  0  0  0  0  0  0  0  0  0  0
  147.9290  153.2890  132.9750 C   0  0  0  0  0  0  0  0  0  0  0  0
  148.5070  153.0380  134.3730 C   0  0  0  0  0  0  0  0  0  0  0  0
  147.8620  153.9140  135.4010 C   0  0  0  0  0  0  0  0  0  0  0  0
  148.1130  155.1480  135.4210 O   0  0  0  0  0  0  0  0  0  0  0  0
  147.0160  153.3650  136.3560 O   0  0  0  0  0  0  0  0  0  0  0  0
  149.2280  157.1680  133.8470 H   0  0  0  0  0  0  0  0  0  0  0  0
  147.5470  156.5490  133.8370 H   0  0  0  0  0  0  0  0  0  0  0  0
  146.3508  161.2503  133.6788 H   0  0  0  0  0  0  0  0  0  0  0  0
  143.6580  162.2101  133.6855 H   0  0  0  0  0  0  0  0  0  0  0  0
  141.2621  161.4459  133.8036 H   0  0  0  0  0  0  0  0  0  0  0  0
  140.2468  157.8471  133.6032 H   0  0  0  0  0  0  0  0  0  0  0  0
  142.5860  157.2929  133.8885 H   0  0  0  0  0  0  0  0  0  0  0  0
  145.6493  153.9385  132.7384 H   0  0  0  0  0  0  0  0  0  0  0  0
  145.1758  154.7884  131.2283 H   0  0  0  0  0  0  0  0  0  0  0  0
  146.8642  153.0128  132.9738 H   0  0  0  0  0  0  0  0  0  0  0  0
  148.4932  152.6790  132.2542 H   0  0  0  0  0  0  0  0  0  0  0  0
  148.3394  151.9854  134.6449 H   0  0  0  0  0  0  0  0  0  0  0  0
  149.5818  153.2707  134.3479 H   0  0  0  0  0  0  0  0  0  0  0  0
  1  2  1  0
  2  3  2  0
  2  4  1  0
  4  5  2  0
  5  6  1  0
  6  7  2  0
  7  8  1  0
  8  9  2  0
  9 10  1  0
 10 11  1  0
 10 12  1  0
  9 13  1  0
 13 14  2  0
 14 15  1  0
 15 16  1  0
 16 17  2  0
 16 18  1  0
 18 19  1  0
 19 20  1  0
 20 21  1  0
 21 22  2  0
 21 23  1  0
 23 24  1  0
 24 25  1  0
 25 26  2  0
 25 27  1  0
 15  4  1  0
 14  6  1  0
  1 28  1  0
  1 29  1  0
  5 30  1  0
  7 31  1  0
  8 32  1  0
 10 33  1  0
 13 34  1  0
 19 35  1  0
 19 36  1  0
 23 37  1  0
 23 38  1  0
 24 39  1  0
 24 40  1  0
M  CHG  1  27  -1
M  END
>  <UniqueID>  (13) 
13

>  <SMILES>  (13) 
NC(=O)c1cc2ccc(C(F)F)cc2n1C(=O)OCOC(=O)CCC(=O)[O-]

>  <Energy>  (13) 
72.81288000574342

>  <Genealogy>  (13) 
NC(=O)c1cc2ccc(C(F)F)cc2n1C(=O)OCOC(=O)CCC(=O)[O-] (protonated)
NC(=O)c1cc2ccc(C(F)F)cc2n1C(=O)OCOC(=O)CCC(=O)[O-] (3D coordinates assigned)
NC(=O)c1cc2ccc(C(F)F)cc2n1C(=O)OCOC(=O)CCC(=O)[O-] (optimized conformer: 72.81288000574342 kcal/mol)

>  <smiles>  (13) 
NC(=O)c1cc2ccc(C(F)F)cc2n1C(=O)OCOC(=O)CCC(=O)O

>  <score_type>  (13) 
oracle

>  <origin>  (13) 
adg

>  <m_score__min__energy>  (13) 
-6.21

>  <m_primary>  (13) 
energy

$$$$
13:0
     RDKit          3D

 39 40  0  0  0  0  0  0  0  0999 V2000
  148.6900  157.3280  132.7000 C   0  0  0  0  0  0  0  0  0  0  0  0
  147.6060  158.3030  133.0520 C   0  0  0  0  0  0  0  0  0  0  0  0
  147.9370  159.6310  133.4200 C   0  0  0  0  0  0  0  0  0  0  0  0
  146.9280  160.5610  133.7250 C   0  0  0  0  0  0  0  0  0  0  0  0
  145.6040  160.1410  133.6330 C   0  0  0  0  0  0  0  0  0  0  0  0
  144.4370  160.8240  133.8920 C   0  0  0  0  0  0  0  0  0  0  0  0
  143.4120  159.9110  133.6430 C   0  0  0  0  0  0  0  0  0  0  0  0
  141.9750  160.2430  133.7510 C   0  0  0  0  0  0  0  0  0  0  0  0
  141.0850  160.0230  132.6590 N   0  0  0  0  0  0  0  0  0  0  0  0
  141.5320  160.7560  134.8130 O   0  0  0  0  0  0  0  0  0  0  0  0
  143.9280  158.7150  133.2440 N   0  0  0  0  0  0  0  0  0  0  0  0
  143.2150  157.5000  132.9630 C   0  0  0  0  0  0  0  0  0  0  0  0
  142.3280  157.4960  132.0670 O   0  0  0  0  0  0  0  0  0  0  0  0
  143.5090  156.2680  133.7180 C   0  0  0  0  0  0  0  0  0  0  0  0
  144.3810  156.3060  134.6260 O   0  0  0  0  0  0  0  0  0  0  0  0
  142.8180  155.0410  133.4120 N   0  0  0  0  0  0  0  0  0  0  0  0
  142.8790  153.7930  134.2050 C   0  0  2  0  0  0  0  0  0  0  0  0
  144.2200  153.0600  133.9720 C   0  0  0  0  0  0  0  0  0  0  0  0
  141.7710  152.8680  133.7200 C   0  0  0  0  0  0  0  0  0  0  0  0
  140.9690  153.2640  132.8320 O   0  0  0  0  0  0  0  0  0  0  0  0
  141.6080  151.5910  134.2480 O   0  0  0  0  0  0  0  0  0  0  0  0
  142.6960  154.1180  135.7130 C   0  0  0  0  0  0  0  0  0  0  0  0
  142.0550  153.0680  136.3490 F   0  0  0  0  0  0  0  0  0  0  0  0
  141.9360  155.2590  135.8920 F   0  0  0  0  0  0  0  0  0  0  0  0
  143.9260  154.3230  136.3170 F   0  0  0  0  0  0  0  0  0  0  0  0
  145.2690  158.8700  133.2490 C   0  0  0  0  0  0  0  0  0  0  0  0
  146.2520  157.9170  132.9570 C   0  0  0  0  0  0  0  0  0  0  0  0
  149.1360  156.9269  133.6221 H   0  0  0  0  0  0  0  0  0  0  0  0
  148.2639  156.5033  132.1099 H   0  0  0  0  0  0  0  0  0  0  0  0
  149.4651  157.8388  132.1099 H   0  0  0  0  0  0  0  0  0  0  0  0
  148.9926  159.9366  133.4674 H   0  0  0  0  0  0  0  0  0  0  0  0
  147.1770  161.5890  134.0271 H   0  0  0  0  0  0  0  0  0  0  0  0
  144.3346  161.8675  134.2245 H   0  0  0  0  0  0  0  0  0  0  0  0
  141.3620  159.4200  131.8530 H   0  0  0  0  0  0  0  0  0  0  0  0
  142.1580  155.0660  132.6000 H   0  0  0  0  0  0  0  0  0  0  0  0
  144.6752  152.8112  134.9420 H   0  0  0  0  0  0  0  0  0  0  0  0
  144.0387  152.1355  133.4041 H   0  0  0  0  0  0  0  0  0  0  0  0
  144.9003  153.7117  133.4041 H   0  0  0  0  0  0  0  0  0  0  0  0
  145.9762  156.8940  132.6612 H   0  0  0  0  0  0  0  0  0  0  0  0
  1  2  1  0
  2  3  2  0
  3  4  1  0
  4  5  2  0
  5  6  1  0
  6  7  2  0
  7  8  1  0
  8  9  1  0
  8 10  2  0
  7 11  1  0
 11 12  1  0
 12 13  2  0
 12 14  1  0
 14 15  2  0
 14 16  1  0
 17 16  1  6
 17 18  1  0
 17 19  1  0
 19 20  2  0
 19 21  1  0
 17 22  1  0
 22 23  1  0
 22 24  1  0
 22 25  1  0
 11 26  1  0
 26 27  2  0
 27  2  1  0
 26  5  1  0
  1 28  1  0
  1 29  1  0
  1 30  1  0
  3 31  1  0
  4 32  1  0
  6 33  1  0
  9 34  1  0
 16 35  1  0
 18 36  1  0
 18 37  1  0
 18 38  1  0
 27 39  1  0
M  CHG  2   9  -1  21  -1
M  END
>  <UniqueID>  (14) 
14

>  <SMILES>  (14) 
Cc1ccc2cc(C([NH-])=O)n(C(=O)C(=O)N[C@](C)(C(=O)[O-])C(F)(F)F)c2c1

>  <Energy>  (14) 
80.48267752909076

>  <Genealogy>  (14) 
Cc1ccc2cc(C([NH-])=O)n(C(=O)C(=O)NC(C)(C(=O)[O-])C(F)(F)F)c2c1 (protonated)
Cc1ccc2cc(C([NH-])=O)n(C(=O)C(=O)N[C@](C)(C(=O)[O-])C(F)(F)F)c2c1 (chirality)
Cc1ccc2cc(C([NH-])=O)n(C(=O)C(=O)N[C@](C)(C(=O)[O-])C(F)(F)F)c2c1 (3D coordinates assigned)
Cc1ccc2cc(C([NH-])=O)n(C(=O)C(=O)N[C@](C)(C(=O)[O-])C(F)(F)F)c2c1 (optimized conformer: 80.48267752909076 kcal/mol)

>  <smiles>  (14) 
Cc1ccc2cc(C(N)=O)n(C(=O)C(=O)NC(C)(C(=O)O)C(F)(F)F)c2c1

>  <score_type>  (14) 
oracle

>  <origin>  (14) 
adg

>  <m_score__min__energy>  (14) 
-6.4199999999999999

>  <m_primary>  (14) 
energy

$$$$
14:0
     RDKit          3D

 32 33  0  0  0  0  0  0  0  0999 V2000
  143.0330  161.0840  133.5750 N   0  0  0  0  0  0  0  0  0  0  0  0
  144.4340  161.2450  133.7920 C   0  0  0  0  0  0  0  0  0  0  0  0
  144.8690  162.3570  134.1980 O   0  0  0  0  0  0  0  0  0  0  0  0
  145.3760  160.1220  133.6130 C   0  0  0  0  0  0  0  0  0  0  0  0
  146.7140  160.3030  133.2870 C   0  0  0  0  0  0  0  0  0  0  0  0
  147.2460  159.0380  133.2160 C   0  0  0  0  0  0  0  0  0  0  0  0
  148.5420  158.6350  132.9150 C   0  0  0  0  0  0  0  0  0  0  0  0
  148.8090  157.2580  132.8610 C   0  0  0  0  0  0  0  0  0  0  0  0
  147.7730  156.3120  133.0690 C   0  0  0  0  0  0  0  0  0  0  0  0
  148.0760  154.8350  133.0330 C   0  0  0  0  0  0  0  0  0  0  0  0
  148.3440  154.3950  134.3160 F   0  0  0  0  0  0  0  0  0  0  0  0
  149.1740  154.5780  132.2300 F   0  0  0  0  0  0  0  0  0  0  0  0
  146.9980  154.1270  132.5300 F   0  0  0  0  0  0  0  0  0  0  0  0
  146.4710  156.7620  133.3890 C   0  0  0  0  0  0  0  0  0  0  0  0
  146.2400  158.1420  133.4780 C   0  0  0  0  0  0  0  0  0  0  0  0
  145.0810  158.7940  133.7380 N   0  0  0  0  0  0  0  0  0  0  0  0
  143.7870  158.2180  134.0050 C   0  0  0  0  0  0  0  0  0  0  0  0
  143.0740  158.6760  134.9370 O   0  0  0  0  0  0  0  0  0  0  0  0
  143.1620  156.8280  133.0490 S   0  0  0  0  0  0  0  0  0  0  0  0
  141.4220  157.3770  133.0620 C   0  0  0  0  0  0  0  0  0  0  0  0
  141.2940  158.7080  132.4820 N   0  0  0  0  0  0  0  0  0  0  0  0
  140.3110  159.6410  132.9280 C   0  0  0  0  0  0  0  0  0  0  0  0
  140.5920  160.8660  132.9860 O   0  0  0  0  0  0  0  0  0  0  0  0
  142.6180  160.1410  133.4210 H   0  0  0  0  0  0  0  0  0  0  0  0
  142.3910  161.9030  133.6610 H   0  0  0  0  0  0  0  0  0  0  0  0
  147.2368  161.2565  133.1209 H   0  0  0  0  0  0  0  0  0  0  0  0
  149.3348  159.3734  132.7248 H   0  0  0  0  0  0  0  0  0  0  0  0
  149.8318  156.9092  132.6553 H   0  0  0  0  0  0  0  0  0  0  0  0
  145.6563  156.0440  133.5645 H   0  0  0  0  0  0  0  0  0  0  0  0
  140.8163  156.6692  132.4771 H   0  0  0  0  0  0  0  0  0  0  0  0
  141.0714  157.4117  134.1040 H   0  0  0  0  0  0  0  0  0  0  0  0
  139.3102  159.2903  133.2203 H   0  0  0  0  0  0  0  0  0  0  0  0
  1  2  1  0
  2  3  2  0
  2  4  1  0
  4  5  2  0
  5  6  1  0
  6  7  2  0
  7  8  1  0
  8  9  2  0
  9 10  1  0
 10 11  1  0
 10 12  1  0
 10 13  1  0
  9 14  1  0
 14 15  2  0
 15 16  1  0
 16 17  1  0
 17 18  2  0
 17 19  1  0
 19 20  1  0
 20 21  1  0
 21 22  1  0
 22 23  2  0
 16  4  1  0
 15  6  1  0
  1 24  1  0
  1 25  1  0
  5 26  1  0
  7 27  1  0
  8 28  1  0
 14 29  1  0
 20 30  1  0
 20 31  1  0
 22 32  1  0
M  CHG  1  21  -1
M  END
>  <UniqueID>  (15) 
15

>  <SMILES>  (15) 
NC(=O)c1cc2ccc(C(F)(F)F)cc2n1C(=O)SC[N-]C=O

>  <Energy>  (15) 
66.35749810634121

>  <Genealogy>  (15) 
NC(=O)c1cc2ccc(C(F)(F)F)cc2n1C(=O)SC[N-]C=O (protonated)
NC(=O)c1cc2ccc(C(F)(F)F)cc2n1C(=O)SC[N-]C=O (3D coordinates assigned)
NC(=O)c1cc2ccc(C(F)(F)F)cc2n1C(=O)SC[N-]C=O (optimized conformer: 66.35749810634121 kcal/mol)

>  <smiles>  (15) 
NC(=O)c1cc2ccc(C(F)(F)F)cc2n1C(=O)SCNC=O

>  <score_type>  (15) 
oracle

>  <origin>  (15) 
adg

>  <m_score__min__energy>  (15) 
-5.5999999999999996

>  <m_primary>  (15) 
energy

$$$$
15:0
     RDKit          3D

 39 40  0  0  0  0  0  0  0  0999 V2000
  148.9200  158.9440  134.2580 N   0  0  0  0  0  0  0  0  0  0  0  0
  148.0730  159.6490  133.3530 C   0  0  0  0  0  0  0  0  0  0  0  0
  148.5720  160.5230  132.5970 O   0  0  0  0  0  0  0  0  0  0  0  0
  146.6340  159.3180  133.2850 C   0  0  0  0  0  0  0  0  0  0  0  0
  145.6230  160.2710  133.3950 C   0  0  0  0  0  0  0  0  0  0  0  0
  144.4470  159.5580  133.3780 C   0  0  0  0  0  0  0  0  0  0  0  0
  143.1290  160.0050  133.4450 C   0  0  0  0  0  0  0  0  0  0  0  0
  142.1060  159.0460  133.3760 C   0  0  0  0  0  0  0  0  0  0  0  0
  142.4110  157.6670  133.2460 C   0  0  0  0  0  0  0  0  0  0  0  0
  141.3500  156.6960  133.1350 N   0  0  0  0  0  0  0  0  0  0  0  0
  140.1090  157.3560  132.7100 C   0  0  0  0  0  0  0  0  0  0  0  0
  139.1650  157.4890  133.8650 C   0  0  0  0  0  0  0  0  0  0  0  0
  137.9790  157.8650  133.6740 O   0  0  0  0  0  0  0  0  0  0  0  0
  139.5820  157.1480  135.1460 O   0  0  0  0  0  0  0  0  0  0  0  0
  143.7620  157.2540  133.1710 C   0  0  0  0  0  0  0  0  0  0  0  0
  144.7620  158.2300  133.2590 C   0  0  0  0  0  0  0  0  0  0  0  0
  146.1020  158.0660  133.1950 N   0  0  0  0  0  0  0  0  0  0  0  0
  146.7960  156.8210  133.0210 C   0  0  0  0  0  0  0  0  0  0  0  0
  147.9970  156.8170  132.6360 O   0  0  0  0  0  0  0  0  0  0  0  0
  146.1270  155.6150  133.2620 O   0  0  0  0  0  0  0  0  0  0  0  0
  145.4590  154.8720  132.2460 C   0  0  0  0  0  0  0  0  0  0  0  0
  144.4530  153.8900  132.8500 C   0  0  0  0  0  0  0  0  0  0  0  0
  143.1260  154.4110  132.7710 O   0  0  0  0  0  0  0  0  0  0  0  0
  141.9760  153.6410  132.9710 C   0  0  0  0  0  0  0  0  0  0  0  0
  140.9050  154.1600  133.3860 O   0  0  0  0  0  0  0  0  0  0  0  0
  149.2270  157.9670  134.0550 H   0  0  0  0  0  0  0  0  0  0  0  0
  145.7406  161.3616  133.4778 H   0  0  0  0  0  0  0  0  0  0  0  0
  142.8974  161.0753  133.5487 H   0  0  0  0  0  0  0  0  0  0  0  0
  141.0553  159.3680  133.4233 H   0  0  0  0  0  0  0  0  0  0  0  0
  141.2040  156.2260  134.0590 H   0  0  0  0  0  0  0  0  0  0  0  0
  141.6180  155.9610  132.4380 H   0  0  0  0  0  0  0  0  0  0  0  0
  140.3463  158.3564  132.3191 H   0  0  0  0  0  0  0  0  0  0  0  0
  139.6316  156.7474  131.9279 H   0  0  0  0  0  0  0  0  0  0  0  0
  144.0205  156.1921  133.0466 H   0  0  0  0  0  0  0  0  0  0  0  0
  144.9260  155.5694  131.5831 H   0  0  0  0  0  0  0  0  0  0  0  0
  146.2101  154.2989  131.6825 H   0  0  0  0  0  0  0  0  0  0  0  0
  144.5008  152.9397  132.2981 H   0  0  0  0  0  0  0  0  0  0  0  0
  144.7071  153.7313  133.9084 H   0  0  0  0  0  0  0  0  0  0  0  0
  142.0066  152.5615  132.7621 H   0  0  0  0  0  0  0  0  0  0  0  0
  1  2  1  0
  2  3  2  0
  2  4  1  0
  4  5  2  0
  5  6  1  0
  6  7  2  0
  7  8  1  0
  8  9  2  0
  9 10  1  0
 10 11  1  0
 11 12  1  0
 12 13  2  0
 12 14  1  0
  9 15  1  0
 15 16  2  0
 16 17  1  0
 17 18  1  0
 18 19  2  0
 18 20  1  0
 20 21  1  0
 21 22  1  0
 22 23  1  0
 23 24  1  0
 24 25  2  0
 17  4  1  0
 16  6  1  0
  1 26  1  0
  5 27  1  0
  7 28  1  0
  8 29  1  0
 10 30  1  0
 10 31  1  0
 11 32  1  0
 11 33  1  0
 15 34  1  0
 21 35  1  0
 21 36  1  0
 22 37  1  0
 22 38  1  0
 24 39  1  0
M  CHG  3   1  -1  10   1  14  -1
M  END
>  <UniqueID>  (16) 
16

>  <SMILES>  (16) 
[NH-]C(=O)c1cc2ccc([NH2+]CC(=O)[O-])cc2n1C(=O)OCCOC=O

>  <Energy>  (16) 
73.01319497374926

>  <Genealogy>  (16) 
[NH-]C(=O)c1cc2ccc([NH2+]CC(=O)[O-])cc2n1C(=O)OCCOC=O (protonated)
[NH-]C(=O)c1cc2ccc([NH2+]CC(=O)[O-])cc2n1C(=O)OCCOC=O (3D coordinates assigned)
[NH-]C(=O)c1cc2ccc([NH2+]CC(=O)[O-])cc2n1C(=O)OCCOC=O (optimized conformer: 73.01319497374926 kcal/mol)

>  <smiles>  (16) 
NC(=O)c1cc2ccc(NCC(=O)O)cc2n1C(=O)OCCOC=O

>  <score_type>  (16) 
oracle

>  <origin>  (16) 
adg

>  <m_score__min__energy>  (16) 
-4.7599999999999998

>  <m_primary>  (16) 
energy

$$$$
16:0
     RDKit          3D

 39 40  0  0  0  0  0  0  0  0999 V2000
  141.4560  157.5830  133.4440 C   0  0  0  0  0  0  0  0  0  0  0  0
  142.3390  158.1560  134.4660 N   0  0  0  0  0  0  0  0  0  0  0  0
  141.9200  158.1280  135.8770 C   0  0  0  0  0  0  0  0  0  0  0  0
  140.6340  158.8720  136.0600 C   0  0  0  0  0  0  0  0  0  0  0  0
  140.6490  160.0980  136.3450 O   0  0  0  0  0  0  0  0  0  0  0  0
  139.4200  158.2060  135.9430 O   0  0  0  0  0  0  0  0  0  0  0  0
  143.5960  158.7600  134.0710 C   0  0  0  0  0  0  0  0  0  0  0  0
  143.7660  160.1710  134.1090 C   0  0  0  0  0  0  0  0  0  0  0  0
  144.9830  160.7620  133.7350 C   0  0  0  0  0  0  0  0  0  0  0  0
  146.0150  159.9270  133.3210 C   0  0  0  0  0  0  0  0  0  0  0  0
  147.2990  160.2330  132.9310 C   0  0  0  0  0  0  0  0  0  0  0  0
  147.8970  159.0100  132.6390 C   0  0  0  0  0  0  0  0  0  0  0  0
  149.2670  158.8800  132.1020 C   0  0  0  0  0  0  0  0  0  0  0  0
  149.8160  157.5860  131.8600 N   0  0  0  0  0  0  0  0  0  0  0  0
  149.9750  159.9000  131.8870 O   0  0  0  0  0  0  0  0  0  0  0  0
  147.0190  157.9880  132.8430 N   0  0  0  0  0  0  0  0  0  0  0  0
  147.2690  156.5790  132.7280 C   0  0  0  0  0  0  0  0  0  0  0  0
  147.1180  156.0010  131.6170 O   0  0  0  0  0  0  0  0  0  0  0  0
  147.6570  155.8480  133.8570 O   0  0  0  0  0  0  0  0  0  0  0  0
  147.5630  154.4280  133.9410 C   0  0  0  0  0  0  0  0  0  0  0  0
  148.7010  153.7860  133.2070 C   0  0  0  0  0  0  0  0  0  0  0  0
  149.4420  154.5260  132.2390 N   0  0  0  0  0  0  0  0  0  0  0  0
  149.0110  152.5900  133.4530 O   0  0  0  0  0  0  0  0  0  0  0  0
  145.8700  158.5670  133.2600 C   0  0  0  0  0  0  0  0  0  0  0  0
  144.6750  157.9480  133.6430 C   0  0  0  0  0  0  0  0  0  0  0  0
  140.6293  157.0465  133.9327 H   0  0  0  0  0  0  0  0  0  0  0  0
  141.0494  158.3898  132.8165 H   0  0  0  0  0  0  0  0  0  0  0  0
  142.0272  156.8830  132.8165 H   0  0  0  0  0  0  0  0  0  0  0  0
  141.7812  157.0833  136.1921 H   0  0  0  0  0  0  0  0  0  0  0  0
  142.6981  158.6096  136.4874 H   0  0  0  0  0  0  0  0  0  0  0  0
  142.9317  160.8088  134.4362 H   0  0  0  0  0  0  0  0  0  0  0  0
  145.1164  161.8534  133.7684 H   0  0  0  0  0  0  0  0  0  0  0  0
  147.7556  161.2315  132.8642 H   0  0  0  0  0  0  0  0  0  0  0  0
  149.1970  156.7710  131.6570 H   0  0  0  0  0  0  0  0  0  0  0  0
  147.5956  154.1242  134.9977 H   0  0  0  0  0  0  0  0  0  0  0  0
  146.6158  154.1049  133.4845 H   0  0  0  0  0  0  0  0  0  0  0  0
  149.1990  155.5190  132.0300 H   0  0  0  0  0  0  0  0  0  0  0  0
  150.2390  154.0800  131.7320 H   0  0  0  0  0  0  0  0  0  0  0  0
  144.5754  156.8529  133.6124 H   0  0  0  0  0  0  0  0  0  0  0  0
  1  2  1  0
  2  3  1  0
  3  4  1  0
  4  5  2  0
  4  6  1  0
  2  7  1  0
  7  8  2  0
  8  9  1  0
  9 10  2  0
 10 11  1  0
 11 12  2  0
 12 13  1  0
 13 14  1  0
 13 15  2  0
 12 16  1  0
 16 17  1  0
 17 18  2  0
 17 19  1  0
 19 20  1  0
 20 21  1  0
 21 22  1  0
 21 23  2  0
 16 24  1  0
 24 25  2  0
 25  7  1  0
 24 10  1  0
  1 26  1  0
  1 27  1  0
  1 28  1  0
  3 29  1  0
  3 30  1  0
  8 31  1  0
  9 32  1  0
 11 33  1  0
 14 34  1  0
 20 35  1  0
 20 36  1  0
 22 37  1  0
 22 38  1  0
 25 39  1  0
M  CHG  2   6  -1  14  -1
M  END
>  <UniqueID>  (17) 
17

>  <SMILES>  (17) 
CN(CC(=O)[O-])c1ccc2cc(C([NH-])=O)n(C(=O)OCC(N)=O)c2c1

>  <Energy>  (17) 
75.61590955275113

>  <Genealogy>  (17) 
CN(CC(=O)[O-])c1ccc2cc(C([NH-])=O)n(C(=O)OCC(N)=O)c2c1 (protonated)
CN(CC(=O)[O-])c1ccc2cc(C([NH-])=O)n(C(=O)OCC(N)=O)c2c1 (3D coordinates assigned)
CN(CC(=O)[O-])c1ccc2cc(C([NH-])=O)n(C(=O)OCC(N)=O)c2c1 (optimized conformer: 75.61590955275113 kcal/mol)

>  <smiles>  (17) 
CN(CC(=O)O)c1ccc2cc(C(N)=O)n(C(=O)OCC(N)=O)c2c1

>  <score_type>  (17) 
oracle

>  <origin>  (17) 
adg

>  <m_score__min__energy>  (17) 
-6.3600000000000003

>  <m_primary>  (17) 
energy

$$$$
17:0
     RDKit          3D

 37 38  0  0  0  0  0  0  0  0999 V2000
  141.0530  160.4910  133.2010 N   0  0  0  0  0  0  0  0  0  0  0  0
  140.1190  159.4300  133.0240 C   0  0  0  0  0  0  0  0  0  0  0  0
  138.9650  159.6900  132.5900 O   0  0  0  0  0  0  0  0  0  0  0  0
  140.4740  158.0380  133.3720 C   0  0  0  0  0  0  0  0  0  0  0  0
  140.1040  156.9300  132.6110 C   0  0  0  0  0  0  0  0  0  0  0  0
  140.5720  155.8370  133.3060 C   0  0  0  0  0  0  0  0  0  0  0  0
  140.4920  154.4810  133.0090 C   0  0  0  0  0  0  0  0  0  0  0  0
  141.0820  153.5740  133.9060 C   0  0  0  0  0  0  0  0  0  0  0  0
  141.7390  154.0300  135.0770 C   0  0  0  0  0  0  0  0  0  0  0  0
  142.3340  153.0670  135.9660 N   0  0  0  0  0  0  0  0  0  0  0  0
  142.8790  153.4190  137.2810 C   0  0  0  0  0  0  0  0  0  0  0  0
  142.2660  152.5630  138.4000 C   0  0  0  0  0  0  0  0  0  0  0  0
  140.7580  152.3220  138.2230 C   0  0  0  0  0  0  0  0  0  0  0  0
  140.4800  151.0010  137.5730 C   0  0  0  0  0  0  0  0  0  0  0  0
  140.7680  150.8170  136.3610 O   0  0  0  0  0  0  0  0  0  0  0  0
  139.8740  149.9830  138.2980 O   0  0  0  0  0  0  0  0  0  0  0  0
  141.8000  155.4210  135.3430 C   0  0  0  0  0  0  0  0  0  0  0  0
  141.1960  156.2960  134.4350 C   0  0  0  0  0  0  0  0  0  0  0  0
  141.1470  157.6420  134.4870 N   0  0  0  0  0  0  0  0  0  0  0  0
  141.7520  158.4640  135.4930 C   0  0  0  0  0  0  0  0  0  0  0  0
  142.7880  159.1260  135.2230 O   0  0  0  0  0  0  0  0  0  0  0  0
  140.9730  158.6560  137.0930 P   0  0  0  0  0  0  0  0  0  0  0  0
  140.6280  160.1120  137.3080 O   0  0  0  0  0  0  0  0  0  0  0  0
  139.5590  157.7310  137.1630 O   0  0  0  0  0  0  0  0  0  0  0  0
  142.0380  158.1480  138.3040 O   0  0  0  0  0  0  0  0  0  0  0  0
  141.6510  160.5420  134.0550 H   0  0  0  0  0  0  0  0  0  0  0  0
  139.5549  156.9290  131.6579 H   0  0  0  0  0  0  0  0  0  0  0  0
  139.9826  154.1289  132.0999 H   0  0  0  0  0  0  0  0  0  0  0  0
  141.0334  152.4952  133.6967 H   0  0  0  0  0  0  0  0  0  0  0  0
  142.3870  152.0730  135.6450 H   0  0  0  0  0  0  0  0  0  0  0  0
  143.9677  153.2626  137.2688 H   0  0  0  0  0  0  0  0  0  0  0  0
  142.6333  154.4721  137.4824 H   0  0  0  0  0  0  0  0  0  0  0  0
  142.7763  151.5886  138.4138 H   0  0  0  0  0  0  0  0  0  0  0  0
  142.4000  153.1138  139.3427 H   0  0  0  0  0  0  0  0  0  0  0  0
  140.2756  152.3414  139.2114 H   0  0  0  0  0  0  0  0  0  0  0  0
  140.3582  153.1145  137.5733 H   0  0  0  0  0  0  0  0  0  0  0  0
  142.3093  155.8021  136.2404 H   0  0  0  0  0  0  0  0  0  0  0  0
  1  2  1  0
  2  3  2  0
  2  4  1  0
  4  5  2  0
  5  6  1  0
  6  7  2  0
  7  8  1  0
  8  9  2  0
  9 10  1  0
 10 11  1  0
 11 12  1  0
 12 13  1  0
 13 14  1  0
 14 15  2  0
 14 16  1  0
  9 17  1  0
 17 18  2  0
 18 19  1  0
 19 20  1  0
 20 21  2  0
 20 22  1  0
 22 23  2  0
 22 24  1  0
 22 25  1  0
 19  4  1  0
 18  6  1  0
  1 26  1  0
  5 27  1  0
  7 28  1  0
  8 29  1  0
 10 30  1  0
 11 31  1  0
 11 32  1  0
 12 33  1  0
 12 34  1  0
 13 35  1  0
 13 36  1  0
 17 37  1  0
M  CHG  4   1  -1  16  -1  24  -1  25  -1
M  END
>  <UniqueID>  (18) 
18

>  <SMILES>  (18) 
[NH-]C(=O)c1cc2ccc(NCCCC(=O)[O-])cc2n1C(=O)P(=O)([O-])[O-]

>  <Energy>  (18) 
70.69139069769584

>  <Genealogy>  (18) 
[NH-]C(=O)c1cc2ccc(NCCCC(=O)[O-])cc2n1C(=O)P(=O)([O-])[O-] (protonated)
[NH-]C(=O)c1cc2ccc(NCCCC(=O)[O-])cc2n1C(=O)P(=O)([O-])[O-] (3D coordinates assigned)
[NH-]C(=O)c1cc2ccc(NCCCC(=O)[O-])cc2n1C(=O)P(=O)([O-])[O-] (optimized conformer: 70.69139069769584 kcal/mol)

>  <smiles>  (18) 
NC(=O)c1cc2ccc(NCCCC(=O)O)cc2n1C(=O)P(=O)(O)O

>  <score_type>  (18) 
oracle

>  <origin>  (18) 
adg

>  <m_score__min__energy>  (18) 
-7.0499999999999998

>  <m_primary>  (18) 
energy

$$$$
18:0
     RDKit          3D

 41 43  0  0  0  0  0  0  0  0999 V2000
  140.2710  159.0800  137.0040 N   0  0  0  0  0  0  0  0  0  0  0  0
  140.9120  158.6930  135.7920 C   0  0  0  0  0  0  0  0  0  0  0  0
  141.2480  159.5770  134.9620 O   0  0  0  0  0  0  0  0  0  0  0  0
  141.2110  157.2690  135.5380 C   0  0  0  0  0  0  0  0  0  0  0  0
  142.1170  156.5220  136.2910 C   0  0  0  0  0  0  0  0  0  0  0  0
  142.1620  155.2860  135.6860 C   0  0  0  0  0  0  0  0  0  0  0  0
  142.8930  154.1480  136.0180 C   0  0  0  0  0  0  0  0  0  0  0  0
  142.7250  153.0020  135.2220 C   0  0  0  0  0  0  0  0  0  0  0  0
  141.8330  153.0170  134.1240 C   0  0  0  0  0  0  0  0  0  0  0  0
  141.6560  151.8320  133.3270 C   0  0  0  0  0  0  0  0  0  0  0  0
  141.5050  150.8390  132.6610 C   0  0  0  0  0  0  0  0  0  0  0  0
  141.3280  149.6560  131.8650 C   0  0  0  0  0  0  0  0  0  0  0  0
  142.4320  148.8770  131.5410 O   0  0  0  0  0  0  0  0  0  0  0  0
  140.1200  149.3070  131.4360 C   0  0  0  0  0  0  0  0  0  0  0  0
  138.7620  149.8260  131.5500 C   0  0  0  0  0  0  0  0  0  0  0  0
  138.2850  148.8450  130.8230 N   0  0  0  0  0  0  0  0  0  0  0  0
  139.5710  148.2530  130.6520 C   0  0  0  0  0  0  0  0  0  0  0  0
  140.0210  147.2370  130.0590 O   0  0  0  0  0  0  0  0  0  0  0  0
  141.1100  154.1850  133.8130 C   0  0  0  0  0  0  0  0  0  0  0  0
  141.3060  155.3130  134.6160 C   0  0  0  0  0  0  0  0  0  0  0  0
  140.7120  156.5200  134.5150 N   0  0  0  0  0  0  0  0  0  0  0  0
  139.7240  156.8910  133.5430 C   0  0  0  0  0  0  0  0  0  0  0  0
  138.7300  156.1390  133.3580 O   0  0  0  0  0  0  0  0  0  0  0  0
  139.7920  158.2370  132.8720 C   0  0  0  0  0  0  0  0  0  0  0  0
  138.4520  158.6740  132.2480 C   0  0  0  0  0  0  0  0  0  0  0  0
  138.5290  158.9280  130.7340 C   0  0  0  0  0  0  0  0  0  0  0  0
  137.9750  160.2710  130.3660 C   0  0  0  0  0  0  0  0  0  0  0  0
  138.7440  161.2560  130.2130 O   0  0  0  0  0  0  0  0  0  0  0  0
  136.6090  160.4290  130.1670 O   0  0  0  0  0  0  0  0  0  0  0  0
  139.2420  158.9540  137.1310 H   0  0  0  0  0  0  0  0  0  0  0  0
  142.6765  156.8506  137.1793 H   0  0  0  0  0  0  0  0  0  0  0  0
  143.5806  154.1462  136.8766 H   0  0  0  0  0  0  0  0  0  0  0  0
  143.2907  152.0876  135.4542 H   0  0  0  0  0  0  0  0  0  0  0  0
  138.3141  150.6977  132.0495 H   0  0  0  0  0  0  0  0  0  0  0  0
  140.4117  154.2092  132.9634 H   0  0  0  0  0  0  0  0  0  0  0  0
  140.0896  158.9860  133.6206 H   0  0  0  0  0  0  0  0  0  0  0  0
  140.5226  158.1572  132.0535 H   0  0  0  0  0  0  0  0  0  0  0  0
  137.7097  157.8828  132.4301 H   0  0  0  0  0  0  0  0  0  0  0  0
  138.1734  159.6276  132.7202 H   0  0  0  0  0  0  0  0  0  0  0  0
  139.5814  158.8781  130.4177 H   0  0  0  0  0  0  0  0  0  0  0  0
  137.9270  158.1593  130.2273 H   0  0  0  0  0  0  0  0  0  0  0  0
  1  2  1  0
  2  3  2  0
  2  4  1  0
  4  5  2  0
  5  6  1  0
  6  7  2  0
  7  8  1  0
  8  9  2  0
  9 10  1  0
 10 11  3  0
 11 12  1  0
 12 13  1  0
 12 14  2  3
 14 15  1  0
 15 16  2  0
 16 17  1  0
 17 18  2  0
  9 19  1  0
 19 20  2  0
 20 21  1  0
 21 22  1  0
 22 23  2  0
 22 24  1  0
 24 25  1  0
 25 26  1  0
 26 27  1  0
 27 28  2  0
 27 29  1  0
 21  4  1  0
 20  6  1  0
 17 14  1  0
  1 30  1  0
  5 31  1  0
  7 32  1  0
  8 33  1  0
 15 34  1  0
 19 35  1  0
 24 36  1  0
 24 37  1  0
 25 38  1  0
 25 39  1  0
 26 40  1  0
 26 41  1  0
M  CHG  3   1  -1  13  -1  29  -1
M  END
>  <UniqueID>  (19) 
19

>  <SMILES>  (19) 
[NH-]C(=O)c1cc2ccc(C#CC([O-])=C3C=NC3=O)cc2n1C(=O)CCCC(=O)[O-]

>  <Energy>  (19) 
71.69624769049216

>  <Genealogy>  (19) 
[NH-]C(=O)c1cc2ccc(C#CC([O-])=C3C=NC3=O)cc2n1C(=O)CCCC(=O)[O-] (protonated)
[NH-]C(=O)c1cc2ccc(C#CC([O-])=C3C=NC3=O)cc2n1C(=O)CCCC(=O)[O-] (3D coordinates assigned)
[NH-]C(=O)c1cc2ccc(C#CC([O-])=C3C=NC3=O)cc2n1C(=O)CCCC(=O)[O-] (nonaromatic ring conformer: 71.69624769049216 kcal/mol)

>  <smiles>  (19) 
NC(=O)c1cc2ccc(C#CC(O)=C3C=NC3=O)cc2n1C(=O)CCCC(=O)O

>  <score_type>  (19) 
oracle

>  <origin>  (19) 
adg

>  <m_score__min__energy>  (19) 
-9.3599999999999994

>  <m_primary>  (19) 
energy

$$$$
19:0
     RDKit          3D

 41 42  0  0  0  0  0  0  0  0999 V2000
  147.9720  155.2270  132.5950 C   0  0  0  0  0  0  0  0  0  0  0  0
  147.7160  156.6880  132.8180 C   0  0  0  0  0  0  0  0  0  0  0  0
  148.8060  157.5880  132.9110 C   0  0  0  0  0  0  0  0  0  0  0  0
  148.5890  158.9530  133.1670 C   0  0  0  0  0  0  0  0  0  0  0  0
  147.2720  159.3860  133.3260 C   0  0  0  0  0  0  0  0  0  0  0  0
  146.7790  160.6390  133.6130 C   0  0  0  0  0  0  0  0  0  0  0  0
  145.3960  160.4830  133.6920 C   0  0  0  0  0  0  0  0  0  0  0  0
  144.4580  161.6050  133.8990 C   0  0  0  0  0  0  0  0  0  0  0  0
  143.0580  161.4020  133.7230 N   0  0  0  0  0  0  0  0  0  0  0  0
  144.8780  162.7340  134.2690 O   0  0  0  0  0  0  0  0  0  0  0  0
  145.0470  159.1840  133.4680 N   0  0  0  0  0  0  0  0  0  0  0  0
  143.7460  158.5920  133.5990 C   0  0  0  0  0  0  0  0  0  0  0  0
  143.2220  157.9980  132.6180 O   0  0  0  0  0  0  0  0  0  0  0  0
  143.0620  158.6520  134.8560 N   0  0  0  0  0  0  0  0  0  0  0  0
  141.7880  157.9890  135.1190 C   0  0  0  0  0  0  0  0  0  0  0  0
  140.6190  158.9770  135.0090 C   0  0  0  0  0  0  0  0  0  0  0  0
  140.2230  159.2080  133.5670 C   0  0  0  0  0  0  0  0  0  0  0  0
  140.6180  160.2670  133.0060 O   0  0  0  0  0  0  0  0  0  0  0  0
  139.4350  158.2560  132.8120 N   0  0  0  0  0  0  0  0  0  0  0  0
  139.1070  156.9300  133.3530 C   0  0  0  0  0  0  0  0  0  0  0  0
  138.9790  158.6280  131.4680 C   0  0  0  0  0  0  0  0  0  0  0  0
  146.2060  158.5260  133.2400 C   0  0  0  0  0  0  0  0  0  0  0  0
  146.3950  157.1610  132.9980 C   0  0  0  0  0  0  0  0  0  0  0  0
  148.0612  154.7180  133.5661 H   0  0  0  0  0  0  0  0  0  0  0  0
  147.1366  154.7908  132.0277 H   0  0  0  0  0  0  0  0  0  0  0  0
  148.9059  155.1008  132.0277 H   0  0  0  0  0  0  0  0  0  0  0  0
  149.8327  157.2149  132.7816 H   0  0  0  0  0  0  0  0  0  0  0  0
  149.4307  159.6575  133.2397 H   0  0  0  0  0  0  0  0  0  0  0  0
  147.3543  161.5664  133.7507 H   0  0  0  0  0  0  0  0  0  0  0  0
  142.6550  160.4420  133.7090 H   0  0  0  0  0  0  0  0  0  0  0  0
  141.6455  157.1807  134.3867 H   0  0  0  0  0  0  0  0  0  0  0  0
  141.8089  157.5843  136.1416 H   0  0  0  0  0  0  0  0  0  0  0  0
  139.7554  158.5715  135.5564 H   0  0  0  0  0  0  0  0  0  0  0  0
  140.9377  159.9385  135.4380 H   0  0  0  0  0  0  0  0  0  0  0  0
  139.1168  156.9698  134.4522 H   0  0  0  0  0  0  0  0  0  0  0  0
  138.1074  156.6294  133.0059 H   0  0  0  0  0  0  0  0  0  0  0  0
  139.8512  156.1980  133.0059 H   0  0  0  0  0  0  0  0  0  0  0  0
  138.1289  159.3215  131.5481 H   0  0  0  0  0  0  0  0  0  0  0  0
  139.8009  159.1166  130.9241 H   0  0  0  0  0  0  0  0  0  0  0  0
  138.6654  157.7248  130.9241 H   0  0  0  0  0  0  0  0  0  0  0  0
  145.5381  156.4730  132.9489 H   0  0  0  0  0  0  0  0  0  0  0  0
  1  2  1  0
  2  3  2  0
  3  4  1  0
  4  5  2  0
  5  6  1  0
  6  7  2  0
  7  8  1  0
  8  9  1  0
  8 10  2  0
  7 11  1  0
 11 12  1  0
 12 13  2  0
 12 14  1  0
 14 15  1  0
 15 16  1  0
 16 17  1  0
 17 18  2  0
 17 19  1  0
 19 20  1  0
 19 21  1  0
 11 22  1  0
 22 23  2  0
 23  2  1  0
 22  5  1  0
  1 24  1  0
  1 25  1  0
  1 26  1  0
  3 27  1  0
  4 28  1  0
  6 29  1  0
  9 30  1  0
 15 31  1  0
 15 32  1  0
 16 33  1  0
 16 34  1  0
 20 35  1  0
 20 36  1  0
 20 37  1  0
 21 38  1  0
 21 39  1  0
 21 40  1  0
 23 41  1  0
M  CHG  2   9  -1  14  -1
M  END
>  <UniqueID>  (20) 
20

>  <SMILES>  (20) 
Cc1ccc2cc(C([NH-])=O)n(C(=O)[N-]CCC(=O)N(C)C)c2c1

>  <Energy>  (20) 
72.7546306935632

>  <Genealogy>  (20) 
Cc1ccc2cc(C([NH-])=O)n(C(=O)[N-]CCC(=O)N(C)C)c2c1 (protonated)
Cc1ccc2cc(C([NH-])=O)n(C(=O)[N-]CCC(=O)N(C)C)c2c1 (3D coordinates assigned)
Cc1ccc2cc(C([NH-])=O)n(C(=O)[N-]CCC(=O)N(C)C)c2c1 (optimized conformer: 72.7546306935632 kcal/mol)

>  <smiles>  (20) 
Cc1ccc2cc(C(N)=O)n(C(=O)NCCC(=O)N(C)C)c2c1

>  <score_type>  (20) 
oracle

>  <origin>  (20) 
adg

>  <m_score__min__energy>  (20) 
-7.3499999999999996

>  <m_primary>  (20) 
energy

$$$$
20:0
     RDKit          3D

 39 40  0  0  0  0  0  0  0  0999 V2000
  142.4410  159.6400  132.5400 H   0  0  0  0  0  0  0  0  0  0  0  0
  142.6770  160.2260  133.3760 N   0  0  0  0  0  0  0  0  0  0  0  0
  144.0340  160.4870  133.7270 C   0  0  0  0  0  0  0  0  0  0  0  0
  144.3400  161.6100  134.2110 O   0  0  0  0  0  0  0  0  0  0  0  0
  145.0870  159.4730  133.5170 C   0  0  0  0  0  0  0  0  0  0  0  0
  146.4520  159.7630  133.4850 C   0  0  0  0  0  0  0  0  0  0  0  0
  146.9271  160.7459  133.6201 H   0  0  0  0  0  0  0  0  0  0  0  0
  147.0780  158.5610  133.2490 C   0  0  0  0  0  0  0  0  0  0  0  0
  148.4340  158.2560  133.1580 C   0  0  0  0  0  0  0  0  0  0  0  0
  149.1993  159.0425  133.2339 H   0  0  0  0  0  0  0  0  0  0  0  0
  148.7930  156.9100  132.9660 C   0  0  0  0  0  0  0  0  0  0  0  0
  149.8559  156.6330  132.9069 H   0  0  0  0  0  0  0  0  0  0  0  0
  147.8000  155.9080  132.8480 C   0  0  0  0  0  0  0  0  0  0  0  0
  148.1920  154.4700  132.6940 C   0  0  0  0  0  0  0  0  0  0  0  0
  148.3160  154.0153  133.6879 H   0  0  0  0  0  0  0  0  0  0  0  0
  147.4074  153.9333  132.1405 H   0  0  0  0  0  0  0  0  0  0  0  0
  149.1404  154.4057  132.1405 H   0  0  0  0  0  0  0  0  0  0  0  0
  146.4360  156.2530  132.9620 C   0  0  0  0  0  0  0  0  0  0  0  0
  145.6520  155.4834  132.9066 H   0  0  0  0  0  0  0  0  0  0  0  0
  146.1090  157.5980  133.1470 C   0  0  0  0  0  0  0  0  0  0  0  0
  144.8840  158.1420  133.3050 N   0  0  0  0  0  0  0  0  0  0  0  0
  143.6410  157.4220  133.2940 C   0  0  0  0  0  0  0  0  0  0  0  0
  142.8720  157.5380  132.3000 O   0  0  0  0  0  0  0  0  0  0  0  0
  143.2670  156.5680  134.4440 C   0  0  0  0  0  0  0  0  0  0  0  0
  143.8030  154.8500  134.4600 S   0  0  0  0  0  0  0  0  0  0  0  0
  142.8610  154.4320  132.9890 C   0  0  0  0  0  0  0  0  0  0  0  0
  142.7903  155.1881  132.1932 H   0  0  0  0  0  0  0  0  0  0  0  0
  142.2400  153.2640  132.7960 C   0  0  0  0  0  0  0  0  0  0  0  0
  141.6497  153.1455  131.8754 H   0  0  0  0  0  0  0  0  0  0  0  0
  142.2900  152.1170  133.7340 C   0  0  0  0  0  0  0  0  0  0  0  0
  141.6670  152.1880  135.0710 C   0  0  0  0  0  0  0  0  0  0  0  0
  141.7460  153.2450  135.7550 O   0  0  0  0  0  0  0  0  0  0  0  0
  140.9880  151.0840  135.5850 O   0  0  0  0  0  0  0  0  0  0  0  0
  142.8260  150.9550  133.3140 C   0  0  0  0  0  0  0  0  0  0  0  0
  142.8721  150.0926  133.9952 H   0  0  0  0  0  0  0  0  0  0  0  0
  143.2177  150.8684  132.2897 H   0  0  0  0  0  0  0  0  0  0  0  0
  142.5560  157.0530  135.4670 C   0  0  0  0  0  0  0  0  0  0  0  0
  142.2272  158.1027  135.4596 H   0  0  0  0  0  0  0  0  0  0  0  0
  142.2998  156.4024  136.3161 H   0  0  0  0  0  0  0  0  0  0  0  0
  1  2  1  0
  2  3  1  0
  3  4  2  0
  3  5  1  0
  5  6  2  0
  6  7  1  0
  6  8  1  0
  8  9  2  0
  9 10  1  0
  9 11  1  0
 11 12  1  0
 11 13  2  0
 13 14  1  0
 14 15  1  0
 14 16  1  0
 14 17  1  0
 13 18  1  0
 18 19  1  0
 18 20  2  0
 20 21  1  0
 21 22  1  0
 22 23  2  0
 22 24  1  0
 24 25  1  0
 25 26  1  0
 26 27  1  0
 26 28  2  0
 28 29  1  0
 28 30  1  0
 30 31  1  0
 31 32  2  0
 31 33  1  0
 30 34  2  0
 34 35  1  0
 34 36  1  0
 24 37  2  0
 37 38  1  0
 37 39  1  0
 21  5  1  0
 20  8  1  0
M  CHG  2   2  -1  33  -1
M  END
>  <UniqueID>  (21) 
21

>  <SMILES>  (21) 
C=C(/C=C\SC(=C)C(=O)n1c(C([NH-])=O)cc2ccc(C)cc21)C(=O)[O-]

>  <Energy>  (21) 
83.57303250362015

>  <Genealogy>  (21) 
C=C(/C=C\SC(=C)C(=O)n1c(C([NH-])=O)cc2ccc(C)cc21)C(=O)[O-] (protonated)
C=C(/C=C\SC(=C)C(=O)n1c(C([NH-])=O)cc2ccc(C)cc21)C(=O)[O-] (cis-trans isomerization)
C=C(/C=C\SC(=C)C(=O)n1c(C([NH-])=O)cc2ccc(C)cc21)C(=O)[O-] (3D coordinates assigned)
C=C(/C=C\SC(=C)C(=O)n1c(C([NH-])=O)cc2ccc(C)cc21)C(=O)[O-] (optimized conformer: 83.57303250362015 kcal/mol)

>  <smiles>  (21) 
C=C(/C=C\SC(=C)C(=O)n1c(C(N)=O)cc2ccc(C)cc21)C(=O)O

>  <score_type>  (21) 
oracle

>  <origin>  (21) 
adg

>  <m_score__min__energy>  (21) 
-8.1600000000000001

>  <m_primary>  (21) 
energy

$$$$
21:0
     RDKit          3D

 32 33  0  0  0  0  0  0  0  0999 V2000
  142.7350  160.7860  133.9850 N   0  0  0  0  0  0  0  0  0  0  0  0
  144.0940  161.1800  133.7850 C   0  0  0  0  0  0  0  0  0  0  0  0
  144.3830  162.4060  133.7860 O   0  0  0  0  0  0  0  0  0  0  0  0
  145.1460  160.1680  133.5410 C   0  0  0  0  0  0  0  0  0  0  0  0
  146.4940  160.4760  133.3610 C   0  0  0  0  0  0  0  0  0  0  0  0
  147.1360  159.2630  133.2650 C   0  0  0  0  0  0  0  0  0  0  0  0
  148.4820  158.9780  133.0610 C   0  0  0  0  0  0  0  0  0  0  0  0
  148.8640  157.6280  132.9710 C   0  0  0  0  0  0  0  0  0  0  0  0
  147.9020  156.5920  133.0980 C   0  0  0  0  0  0  0  0  0  0  0  0
  148.3140  155.1510  132.9370 C   0  0  0  0  0  0  0  0  0  0  0  0
  149.5120  155.0940  132.2490 F   0  0  0  0  0  0  0  0  0  0  0  0
  148.4750  154.5480  134.1720 F   0  0  0  0  0  0  0  0  0  0  0  0
  147.3550  154.4440  132.2330 F   0  0  0  0  0  0  0  0  0  0  0  0
  146.5400  156.9260  133.2820 C   0  0  0  0  0  0  0  0  0  0  0  0
  146.1910  158.2780  133.3850 C   0  0  0  0  0  0  0  0  0  0  0  0
  144.9640  158.8180  133.5540 N   0  0  0  0  0  0  0  0  0  0  0  0
  143.7240  158.1010  133.6650 C   0  0  0  0  0  0  0  0  0  0  0  0
  143.1720  157.6350  132.6300 O   0  0  0  0  0  0  0  0  0  0  0  0
  143.1440  157.9050  134.9240 O   0  0  0  0  0  0  0  0  0  0  0  0
  141.8170  157.4220  135.1120 C   0  0  0  0  0  0  0  0  0  0  0  0
  140.6070  158.7260  134.7350 P   0  0  0  0  0  0  0  0  0  0  0  0
  139.2170  158.2710  135.1130 O   0  0  0  0  0  0  0  0  0  0  0  0
  140.6530  159.0760  133.0810 O   0  0  0  0  0  0  0  0  0  0  0  0
  140.9960  160.1190  135.6130 O   0  0  0  0  0  0  0  0  0  0  0  0
  142.4640  159.7800  134.0460 H   0  0  0  0  0  0  0  0  0  0  0  0
  141.9940  161.5100  134.1170 H   0  0  0  0  0  0  0  0  0  0  0  0
  146.9478  161.4766  133.3072 H   0  0  0  0  0  0  0  0  0  0  0  0
  149.2250  159.7843  132.9728 H   0  0  0  0  0  0  0  0  0  0  0  0
  149.9200  157.3718  132.8003 H   0  0  0  0  0  0  0  0  0  0  0  0
  145.7719  156.1409  133.3428 H   0  0  0  0  0  0  0  0  0  0  0  0
  141.6455  156.5647  134.4444 H   0  0  0  0  0  0  0  0  0  0  0  0
  141.6948  157.1150  136.1612 H   0  0  0  0  0  0  0  0  0  0  0  0
  1  2  1  0
  2  3  2  0
  2  4  1  0
  4  5  2  0
  5  6  1  0
  6  7  2  0
  7  8  1  0
  8  9  2  0
  9 10  1  0
 10 11  1  0
 10 12  1  0
 10 13  1  0
  9 14  1  0
 14 15  2  0
 15 16  1  0
 16 17  1  0
 17 18  2  0
 17 19  1  0
 19 20  1  0
 20 21  1  0
 21 22  2  0
 21 23  1  0
 21 24  1  0
 16  4  1  0
 15  6  1  0
  1 25  1  0
  1 26  1  0
  5 27  1  0
  7 28  1  0
  8 29  1  0
 14 30  1  0
 20 31  1  0
 20 32  1  0
M  CHG  2  23  -1  24  -1
M  END
>  <UniqueID>  (22) 
22

>  <SMILES>  (22) 
NC(=O)c1cc2ccc(C(F)(F)F)cc2n1C(=O)OCP(=O)([O-])[O-]

>  <Energy>  (22) 
66.59462990160449

>  <Genealogy>  (22) 
NC(=O)c1cc2ccc(C(F)(F)F)cc2n1C(=O)OCP(=O)([O-])[O-] (protonated)
NC(=O)c1cc2ccc(C(F)(F)F)cc2n1C(=O)OCP(=O)([O-])[O-] (3D coordinates assigned)
NC(=O)c1cc2ccc(C(F)(F)F)cc2n1C(=O)OCP(=O)([O-])[O-] (optimized conformer: 66.59462990160449 kcal/mol)

>  <smiles>  (22) 
NC(=O)c1cc2ccc(C(F)(F)F)cc2n1C(=O)OCP(=O)(O)O

>  <score_type>  (22) 
oracle

>  <origin>  (22) 
adg

>  <m_score__min__energy>  (22) 
-6.0800000000000001

>  <m_primary>  (22) 
energy

$$$$
22:0
     RDKit          3D

 46 47  0  0  0  0  0  0  0  0999 V2000
  141.2960  151.4650  133.4090 C   0  0  0  0  0  0  0  0  0  0  0  0
  142.6860  151.2420  132.9990 N   0  0  0  0  0  0  0  0  0  0  0  0
  143.0330  150.0320  132.2400 C   0  0  0  0  0  0  0  0  0  0  0  0
  141.8350  149.2130  132.0270 C   0  0  0  0  0  0  0  0  0  0  0  0
  140.8900  148.5690  131.8600 N   0  0  0  0  0  0  0  0  0  0  0  0
  143.6840  152.2250  133.3610 C   0  0  0  0  0  0  0  0  0  0  0  0
  144.9050  151.9580  133.1890 O   0  0  0  0  0  0  0  0  0  0  0  0
  143.3040  153.5380  134.0040 C   0  0  0  0  0  0  0  0  0  0  0  0
  144.4670  154.4270  134.1490 N   0  0  0  0  0  0  0  0  0  0  0  0
  144.8840  154.8780  135.4870 C   0  0  0  0  0  0  0  0  0  0  0  0
  146.1900  154.2630  135.8860 C   0  0  0  0  0  0  0  0  0  0  0  0
  146.2300  153.0690  136.2860 O   0  0  0  0  0  0  0  0  0  0  0  0
  147.3700  154.9860  135.7710 O   0  0  0  0  0  0  0  0  0  0  0  0
  145.1410  154.9090  132.9640 C   0  0  0  0  0  0  0  0  0  0  0  0
  144.7160  154.5860  131.8210 O   0  0  0  0  0  0  0  0  0  0  0  0
  146.3060  155.7380  133.0650 N   0  0  0  0  0  0  0  0  0  0  0  0
  147.6110  155.3570  132.9920 C   0  0  0  0  0  0  0  0  0  0  0  0
  148.0820  153.9600  132.8330 C   0  0  0  0  0  0  0  0  0  0  0  0
  147.4040  152.8760  133.4730 N   0  0  0  0  0  0  0  0  0  0  0  0
  149.0920  153.7130  132.1230 O   0  0  0  0  0  0  0  0  0  0  0  0
  148.4450  156.4670  133.1350 C   0  0  0  0  0  0  0  0  0  0  0  0
  147.5980  157.5420  133.3010 C   0  0  0  0  0  0  0  0  0  0  0  0
  147.8820  158.8890  133.4930 C   0  0  0  0  0  0  0  0  0  0  0  0
  146.8000  159.7780  133.6330 C   0  0  0  0  0  0  0  0  0  0  0  0
  145.4620  159.3110  133.5580 C   0  0  0  0  0  0  0  0  0  0  0  0
  144.3140  160.2700  133.7460 C   0  0  0  0  0  0  0  0  0  0  0  0
  143.2290  159.8840  132.9780 F   0  0  0  0  0  0  0  0  0  0  0  0
  143.9150  160.3070  135.0700 F   0  0  0  0  0  0  0  0  0  0  0  0
  144.7120  161.5360  133.3600 F   0  0  0  0  0  0  0  0  0  0  0  0
  145.2170  157.9280  133.3890 C   0  0  0  0  0  0  0  0  0  0  0  0
  146.3130  157.0710  133.2600 C   0  0  0  0  0  0  0  0  0  0  0  0
  141.2347  151.4748  134.5072 H   0  0  0  0  0  0  0  0  0  0  0  0
  140.9475  152.4305  133.0137 H   0  0  0  0  0  0  0  0  0  0  0  0
  140.6630  150.6569  133.0137 H   0  0  0  0  0  0  0  0  0  0  0  0
  143.4545  150.3212  131.2660 H   0  0  0  0  0  0  0  0  0  0  0  0
  143.7728  149.4490  132.8082 H   0  0  0  0  0  0  0  0  0  0  0  0
  142.5494  154.0367  133.3781 H   0  0  0  0  0  0  0  0  0  0  0  0
  142.9053  153.3269  135.0072 H   0  0  0  0  0  0  0  0  0  0  0  0
  144.9911  155.9728  135.4789 H   0  0  0  0  0  0  0  0  0  0  0  0
  144.1178  154.5673  136.2126 H   0  0  0  0  0  0  0  0  0  0  0  0
  147.7450  151.8990  133.3420 H   0  0  0  0  0  0  0  0  0  0  0  0
  146.5920  153.0320  134.1090 H   0  0  0  0  0  0  0  0  0  0  0  0
  149.5448  156.4811  133.1187 H   0  0  0  0  0  0  0  0  0  0  0  0
  148.9206  159.2491  133.5343 H   0  0  0  0  0  0  0  0  0  0  0  0
  146.9937  160.8475  133.8026 H   0  0  0  0  0  0  0  0  0  0  0  0
  144.1892  157.5370  133.3599 H   0  0  0  0  0  0  0  0  0  0  0  0
  1  2  1  0
  2  3  1  0
  3  4  1  0
  4  5  3  0
  2  6  1  0
  6  7  2  0
  6  8  1  0
  8  9  1  0
  9 10  1  0
 10 11  1  0
 11 12  2  0
 11 13  1  0
  9 14  1  0
 14 15  2  0
 14 16  1  0
 16 17  1  0
 17 18  1  0
 18 19  1  0
 18 20  2  0
 17 21  2  0
 21 22  1  0
 22 23  2  0
 23 24  1  0
 24 25  2  0
 25 26  1  0
 26 27  1  0
 26 28  1  0
 26 29  1  0
 25 30  1  0
 30 31  2  0
 31 16  1  0
 31 22  1  0
  1 32  1  0
  1 33  1  0
  1 34  1  0
  3 35  1  0
  3 36  1  0
  8 37  1  0
  8 38  1  0
 10 39  1  0
 10 40  1  0
 19 41  1  0
 19 42  1  0
 21 43  1  0
 23 44  1  0
 24 45  1  0
 30 46  1  0
M  CHG  1  13  -1
M  END
>  <UniqueID>  (23) 
23

>  <SMILES>  (23) 
CN(CC#N)C(=O)CN(CC(=O)[O-])C(=O)n1c(C(N)=O)cc2ccc(C(F)(F)F)cc21

>  <Energy>  (23) 
80.55902104415817

>  <Genealogy>  (23) 
CN(CC#N)C(=O)CN(CC(=O)[O-])C(=O)n1c(C(N)=O)cc2ccc(C(F)(F)F)cc21 (protonated)
CN(CC#N)C(=O)CN(CC(=O)[O-])C(=O)n1c(C(N)=O)cc2ccc(C(F)(F)F)cc21 (3D coordinates assigned)
CN(CC#N)C(=O)CN(CC(=O)[O-])C(=O)n1c(C(N)=O)cc2ccc(C(F)(F)F)cc21 (optimized conformer: 80.55902104415817 kcal/mol)

>  <smiles>  (23) 
CN(CC#N)C(=O)CN(CC(=O)O)C(=O)n1c(C(N)=O)cc2ccc(C(F)(F)F)cc21

>  <score_type>  (23) 
oracle

>  <origin>  (23) 
adg

>  <m_score__min__energy>  (23) 
-7.8499999999999996

>  <m_primary>  (23) 
energy

$$$$
23:0
     RDKit          3D

 46 47  0  0  0  0  0  0  0  0999 V2000
  140.3290  159.2940  132.1310 C   0  0  0  0  0  0  0  0  0  0  0  0
  140.8710  159.5780  133.4580 N   0  0  0  0  0  0  0  0  0  0  0  0
  141.5800  160.8370  133.7150 C   0  0  0  0  0  0  0  0  0  0  0  0
  143.0510  160.5840  133.8620 C   0  0  0  0  0  0  0  0  0  0  0  0
  143.5400  159.2670  134.0950 N   0  0  0  0  0  0  0  0  0  0  0  0
  143.8630  161.5420  133.7830 O   0  0  0  0  0  0  0  0  0  0  0  0
  140.6540  158.6500  134.5330 C   0  0  0  0  0  0  0  0  0  0  0  0
  141.2840  158.7920  135.6180 O   0  0  0  0  0  0  0  0  0  0  0  0
  139.7760  157.4460  134.3470 C   0  0  0  0  0  0  0  0  0  0  0  0
  140.5720  156.2200  134.4850 N   0  0  0  0  0  0  0  0  0  0  0  0
  141.3200  155.9880  135.7240 C   0  0  0  0  0  0  0  0  0  0  0  0
  140.7150  155.2820  133.3980 C   0  0  0  0  0  0  0  0  0  0  0  0
  139.7480  155.0760  132.6190 O   0  0  0  0  0  0  0  0  0  0  0  0
  141.9440  154.5650  133.1920 N   0  0  0  0  0  0  0  0  0  0  0  0
  143.2150  155.0570  133.1890 C   0  0  0  0  0  0  0  0  0  0  0  0
  143.5940  156.4840  133.2550 C   0  0  0  0  0  0  0  0  0  0  0  0
  143.1980  157.4010  132.2400 N   0  0  0  0  0  0  0  0  0  0  0  0
  144.3310  156.8910  134.1930 O   0  0  0  0  0  0  0  0  0  0  0  0
  144.1330  154.0210  133.0260 C   0  0  0  0  0  0  0  0  0  0  0  0
  143.3770  152.8780  132.9070 C   0  0  0  0  0  0  0  0  0  0  0  0
  143.7740  151.5570  132.7350 C   0  0  0  0  0  0  0  0  0  0  0  0
  142.7770  150.5740  132.6660 C   0  0  0  0  0  0  0  0  0  0  0  0
  141.4030  150.9260  132.7470 C   0  0  0  0  0  0  0  0  0  0  0  0
  140.3270  149.8700  132.7370 C   0  0  0  0  0  0  0  0  0  0  0  0
  140.6110  148.8640  131.8280 F   0  0  0  0  0  0  0  0  0  0  0  0
  140.2300  149.3070  133.9960 F   0  0  0  0  0  0  0  0  0  0  0  0
  139.1140  150.4370  132.3940 F   0  0  0  0  0  0  0  0  0  0  0  0
  141.0440  152.2820  132.9170 C   0  0  0  0  0  0  0  0  0  0  0  0
  142.0600  153.2360  132.9950 C   0  0  0  0  0  0  0  0  0  0  0  0
  139.3588  158.7856  132.2323 H   0  0  0  0  0  0  0  0  0  0  0  0
  140.1933  160.2368  131.5809 H   0  0  0  0  0  0  0  0  0  0  0  0
  141.0269  158.6457  131.5809 H   0  0  0  0  0  0  0  0  0  0  0  0
  141.4124  161.5263  132.8743 H   0  0  0  0  0  0  0  0  0  0  0  0
  141.1977  161.2798  134.6465 H   0  0  0  0  0  0  0  0  0  0  0  0
  144.5650  159.0950  134.1890 H   0  0  0  0  0  0  0  0  0  0  0  0
  142.8840  158.4600  134.1830 H   0  0  0  0  0  0  0  0  0  0  0  0
  138.9819  157.4527  135.1082 H   0  0  0  0  0  0  0  0  0  0  0  0
  139.3289  157.4760  133.3424 H   0  0  0  0  0  0  0  0  0  0  0  0
  140.6698  156.1897  136.5881 H   0  0  0  0  0  0  0  0  0  0  0  0
  141.6597  154.9423  135.7569 H   0  0  0  0  0  0  0  0  0  0  0  0
  142.1918  156.6580  135.7569 H   0  0  0  0  0  0  0  0  0  0  0  0
  142.5630  158.2030  132.4550 H   0  0  0  0  0  0  0  0  0  0  0  0
  145.2298  154.1005  132.9984 H   0  0  0  0  0  0  0  0  0  0  0  0
  144.8384  151.2910  132.6554 H   0  0  0  0  0  0  0  0  0  0  0  0
  143.0617  149.5181  132.5478 H   0  0  0  0  0  0  0  0  0  0  0  0
  139.9872  152.5793  132.9864 H   0  0  0  0  0  0  0  0  0  0  0  0
  1  2  1  0
  2  3  1  0
  3  4  1  0
  4  5  1  0
  4  6  2  0
  2  7  1  0
  7  8  2  0
  7  9  1  0
  9 10  1  0
 10 11  1  0
 10 12  1  0
 12 13  2  0
 12 14  1  0
 14 15  1  0
 15 16  1  0
 16 17  1  0
 16 18  2  0
 15 19  2  0
 19 20  1  0
 20 21  2  0
 21 22  1  0
 22 23  2  0
 23 24  1  0
 24 25  1  0
 24 26  1  0
 24 27  1  0
 23 28  1  0
 28 29  2  0
 29 14  1  0
 29 20  1  0
  1 30  1  0
  1 31  1  0
  1 32  1  0
  3 33  1  0
  3 34  1  0
  5 35  1  0
  5 36  1  0
  9 37  1  0
  9 38  1  0
 11 39  1  0
 11 40  1  0
 11 41  1  0
 17 42  1  0
 19 43  1  0
 21 44  1  0
 22 45  1  0
 28 46  1  0
M  CHG  1  17  -1
M  END
>  <UniqueID>  (24) 
24

>  <SMILES>  (24) 
CN(CC(N)=O)C(=O)CN(C)C(=O)n1c(C([NH-])=O)cc2ccc(C(F)(F)F)cc21

>  <Energy>  (24) 
79.87706104454199

>  <Genealogy>  (24) 
CN(CC(N)=O)C(=O)CN(C)C(=O)n1c(C([NH-])=O)cc2ccc(C(F)(F)F)cc21 (protonated)
CN(CC(N)=O)C(=O)CN(C)C(=O)n1c(C([NH-])=O)cc2ccc(C(F)(F)F)cc21 (3D coordinates assigned)
CN(CC(N)=O)C(=O)CN(C)C(=O)n1c(C([NH-])=O)cc2ccc(C(F)(F)F)cc21 (optimized conformer: 79.87706104454199 kcal/mol)

>  <smiles>  (24) 
CN(CC(N)=O)C(=O)CN(C)C(=O)n1c(C(N)=O)cc2ccc(C(F)(F)F)cc21

>  <score_type>  (24) 
oracle

>  <origin>  (24) 
adg

>  <m_score__min__energy>  (24) 
-6.6900000000000004

>  <m_primary>  (24) 
energy

$$$$
24:0
     RDKit          3D

 54 55  0  0  0  0  0  0  0  0999 V2000
  141.3680  158.9880  137.5010 C   0  0  0  0  0  0  0  0  0  0  0  0
  140.5490  159.2190  136.3590 O   0  0  0  0  0  0  0  0  0  0  0  0
  140.1340  158.1860  135.5110 C   0  0  0  0  0  0  0  0  0  0  0  0
  138.9010  157.9270  135.3850 O   0  0  0  0  0  0  0  0  0  0  0  0
  141.1370  157.4510  134.6550 C   0  0  2  0  0  0  0  0  0  0  0  0
  141.4130  156.0340  135.1770 C   0  0  0  0  0  0  0  0  0  0  0  0
  142.7980  155.8850  135.6090 N   0  0  0  0  0  0  0  0  0  0  0  0
  143.6360  154.7770  135.2680 C   0  0  0  0  0  0  0  0  0  0  0  0
  144.8780  154.8400  135.4710 O   0  0  0  0  0  0  0  0  0  0  0  0
  143.0430  153.6110  134.7550 O   0  0  0  0  0  0  0  0  0  0  0  0
  142.8370  153.2940  133.3750 C   0  0  0  0  0  0  0  0  0  0  0  0
  143.7120  154.2010  132.4930 C   0  0  0  0  0  0  0  0  0  0  0  0
  143.2540  151.8270  133.1720 C   0  0  0  0  0  0  0  0  0  0  0  0
  141.3470  153.4510  133.0070 C   0  0  0  0  0  0  0  0  0  0  0  0
  142.3960  158.2050  134.5410 N   0  0  0  0  0  0  0  0  0  0  0  0
  143.3470  157.9600  133.4910 C   0  0  0  0  0  0  0  0  0  0  0  0
  143.0670  157.1620  132.5520 O   0  0  0  0  0  0  0  0  0  0  0  0
  144.6300  158.6010  133.5230 N   0  0  0  0  0  0  0  0  0  0  0  0
  144.9080  159.9320  133.6150 C   0  0  0  0  0  0  0  0  0  0  0  0
  143.9250  161.0170  133.8130 C   0  0  0  0  0  0  0  0  0  0  0  0
  144.3180  162.3960  133.7340 N   0  0  0  0  0  0  0  0  0  0  0  0
  142.7200  160.7330  134.0710 O   0  0  0  0  0  0  0  0  0  0  0  0
  146.2880  160.1460  133.5850 C   0  0  0  0  0  0  0  0  0  0  0  0
  146.8460  158.8930  133.4730 C   0  0  0  0  0  0  0  0  0  0  0  0
  148.1810  158.5090  133.3890 C   0  0  0  0  0  0  0  0  0  0  0  0
  148.4670  157.1410  133.2770 C   0  0  0  0  0  0  0  0  0  0  0  0
  147.4260  156.1820  133.2460 C   0  0  0  0  0  0  0  0  0  0  0  0
  147.7650  154.7170  133.1270 C   0  0  0  0  0  0  0  0  0  0  0  0
  146.6750  154.0360  132.6140 F   0  0  0  0  0  0  0  0  0  0  0  0
  148.8410  154.5360  132.2800 F   0  0  0  0  0  0  0  0  0  0  0  0
  148.0950  154.1800  134.3600 F   0  0  0  0  0  0  0  0  0  0  0  0
  146.0800  156.6150  133.2880 C   0  0  0  0  0  0  0  0  0  0  0  0
  145.8240  157.9800  133.4320 C   0  0  0  0  0  0  0  0  0  0  0  0
  140.7785  159.1543  138.4147 H   0  0  0  0  0  0  0  0  0  0  0  0
  141.7353  157.9512  137.4852 H   0  0  0  0  0  0  0  0  0  0  0  0
  142.2228  159.6801  137.4852 H   0  0  0  0  0  0  0  0  0  0  0  0
  140.6898  157.3592  133.6542 H   0  0  0  0  0  0  0  0  0  0  0  0
  140.7486  155.8313  136.0299 H   0  0  0  0  0  0  0  0  0  0  0  0
  141.2276  155.3222  134.3591 H   0  0  0  0  0  0  0  0  0  0  0  0
  144.3334  154.8452  133.1324 H   0  0  0  0  0  0  0  0  0  0  0  0
  144.3605  153.5796  131.8579 H   0  0  0  0  0  0  0  0  0  0  0  0
  143.0678  154.8268  131.8579 H   0  0  0  0  0  0  0  0  0  0  0  0
  143.3908  151.3458  134.1516 H   0  0  0  0  0  0  0  0  0  0  0  0
  142.4707  151.2976  132.6096 H   0  0  0  0  0  0  0  0  0  0  0  0
  144.1986  151.7888  132.6096 H   0  0  0  0  0  0  0  0  0  0  0  0
  140.7469  153.5142  133.9267 H   0  0  0  0  0  0  0  0  0  0  0  0
  141.2100  154.3686  132.4160 H   0  0  0  0  0  0  0  0  0  0  0  0
  141.0218  152.5822  132.4160 H   0  0  0  0  0  0  0  0  0  0  0  0
  142.6470  158.9110  135.2670 H   0  0  0  0  0  0  0  0  0  0  0  0
  145.2290  162.6600  133.3090 H   0  0  0  0  0  0  0  0  0  0  0  0
  146.8157  161.1096  133.6393 H   0  0  0  0  0  0  0  0  0  0  0  0
  148.9878  159.2565  133.4099 H   0  0  0  0  0  0  0  0  0  0  0  0
  149.5136  156.8086  133.2124 H   0  0  0  0  0  0  0  0  0  0  0  0
  145.2540  155.8929  133.2090 H   0  0  0  0  0  0  0  0  0  0  0  0
  1  2  1  0
  2  3  1  0
  3  4  2  0
  3  5  1  0
  5  6  1  0
  6  7  1  0
  7  8  1  0
  8  9  2  0
  8 10  1  0
 10 11  1  0
 11 12  1  0
 11 13  1  0
 11 14  1  0
  5 15  1  0
 15 16  1  0
 16 17  2  0
 16 18  1  0
 18 19  1  0
 19 20  1  0
 20 21  1  0
 20 22  2  0
 19 23  2  0
 23 24  1  0
 24 25  2  0
 25 26  1  0
 26 27  2  0
 27 28  1  0
 28 29  1  0
 28 30  1  0
 28 31  1  0
 27 32  1  0
 32 33  2  0
 33 18  1  0
 33 24  1  0
  1 34  1  0
  1 35  1  0
  1 36  1  0
  5 37  1  6
  6 38  1  0
  6 39  1  0
 12 40  1  0
 12 41  1  0
 12 42  1  0
 13 43  1  0
 13 44  1  0
 13 45  1  0
 14 46  1  0
 14 47  1  0
 14 48  1  0
 15 49  1  0
 21 50  1  0
 23 51  1  0
 25 52  1  0
 26 53  1  0
 32 54  1  0
M  CHG  2   7  -1  21  -1
M  END
>  <UniqueID>  (25) 
25

>  <SMILES>  (25) 
COC(=O)[C@H](C[N-]C(=O)OC(C)(C)C)NC(=O)n1c(C([NH-])=O)cc2ccc(C(F)(F)F)cc21

>  <Energy>  (25) 
84.10336498986597

>  <Genealogy>  (25) 
COC(=O)[C@H](C[N-]C(=O)OC(C)(C)C)NC(=O)n1c(C([NH-])=O)cc2ccc(C(F)(F)F)cc21 (protonated)
COC(=O)[C@H](C[N-]C(=O)OC(C)(C)C)NC(=O)n1c(C([NH-])=O)cc2ccc(C(F)(F)F)cc21 (3D coordinates assigned)
COC(=O)[C@H](C[N-]C(=O)OC(C)(C)C)NC(=O)n1c(C([NH-])=O)cc2ccc(C(F)(F)F)cc21 (optimized conformer: 84.10336498986597 kcal/mol)

>  <smiles>  (25) 
COC(=O)[C@H](CNC(=O)OC(C)(C)C)NC(=O)n1c(C(N)=O)cc2ccc(C(F)(F)F)cc21

>  <score_type>  (25) 
oracle

>  <origin>  (25) 
adg

>  <m_score__min__energy>  (25) 
-7.2199999999999998

>  <m_primary>  (25) 
energy

$$$$
25:0
     RDKit          3D

 59 60  0  0  0  0  0  0  0  0999 V2000
  144.5920  160.4840  133.5380 C   0  0  0  0  0  0  0  0  0  0  0  0
  145.6900  159.4770  133.3680 C   0  0  0  0  0  0  0  0  0  0  0  0
  147.0440  159.8940  133.3660 C   0  0  0  0  0  0  0  0  0  0  0  0
  148.0800  158.9560  133.2270 C   0  0  0  0  0  0  0  0  0  0  0  0
  147.7340  157.6140  133.1040 C   0  0  0  0  0  0  0  0  0  0  0  0
  148.5330  156.5010  132.9710 C   0  0  0  0  0  0  0  0  0  0  0  0
  147.6550  155.4210  132.9120 C   0  0  0  0  0  0  0  0  0  0  0  0
  148.0910  154.0190  132.7370 C   0  0  0  0  0  0  0  0  0  0  0  0
  147.1690  152.9560  132.9630 N   0  0  0  0  0  0  0  0  0  0  0  0
  149.2730  153.7460  132.4020 O   0  0  0  0  0  0  0  0  0  0  0  0
  146.3650  155.8510  132.9980 N   0  0  0  0  0  0  0  0  0  0  0  0
  145.1750  155.0450  133.0120 C   0  0  0  0  0  0  0  0  0  0  0  0
  144.2270  155.3350  132.2290 O   0  0  0  0  0  0  0  0  0  0  0  0
  145.0310  153.9660  133.9650 N   0  0  1  0  0  0  0  0  0  0  0  0
  145.2810  154.4930  135.3180 C   0  0  0  0  0  0  0  0  0  0  0  0
  143.6850  153.3550  133.8390 C   0  0  0  0  0  0  0  0  0  0  0  0
  142.5450  154.1970  134.4490 C   0  0  0  0  0  0  0  0  0  0  0  0
  141.2840  154.3130  133.5610 C   0  0  0  0  0  0  0  0  0  0  0  0
  140.8510  155.7130  133.4550 N   0  0  0  0  0  0  0  0  0  0  0  0
  139.4970  156.0150  132.9800 C   0  0  0  0  0  0  0  0  0  0  0  0
  141.7470  156.7990  133.7490 C   0  0  0  0  0  0  0  0  0  0  0  0
  142.3900  157.3430  132.8100 O   0  0  0  0  0  0  0  0  0  0  0  0
  141.8830  157.2600  135.0680 O   0  0  0  0  0  0  0  0  0  0  0  0
  141.1810  158.3680  135.6540 C   0  0  0  0  0  0  0  0  0  0  0  0
  139.6940  157.9890  135.7110 C   0  0  0  0  0  0  0  0  0  0  0  0
  141.6860  158.6230  137.0860 C   0  0  0  0  0  0  0  0  0  0  0  0
  141.3270  159.6370  134.7890 C   0  0  0  0  0  0  0  0  0  0  0  0
  146.4300  157.1940  133.1150 C   0  0  0  0  0  0  0  0  0  0  0  0
  145.3770  158.1040  133.2660 C   0  0  0  0  0  0  0  0  0  0  0  0
  144.4102  160.6508  134.6100 H   0  0  0  0  0  0  0  0  0  0  0  0
  144.8872  161.4319  133.0644 H   0  0  0  0  0  0  0  0  0  0  0  0
  143.6731  160.1080  133.0644 H   0  0  0  0  0  0  0  0  0  0  0  0
  147.2859  160.9616  133.4742 H   0  0  0  0  0  0  0  0  0  0  0  0
  149.1333  159.2728  133.2157 H   0  0  0  0  0  0  0  0  0  0  0  0
  149.6315  156.4708  132.9217 H   0  0  0  0  0  0  0  0  0  0  0  0
  146.9700  152.6120  133.9280 H   0  0  0  0  0  0  0  0  0  0  0  0
  145.7640  153.2520  133.7560 H   0  0  0  0  0  0  0  0  0  0  0  0
  144.9350  153.7637  136.0653 H   0  0  0  0  0  0  0  0  0  0  0  0
  146.3588  154.6694  135.4494 H   0  0  0  0  0  0  0  0  0  0  0  0
  144.7359  155.4393  135.4494 H   0  0  0  0  0  0  0  0  0  0  0  0
  143.4715  153.2096  132.7698 H   0  0  0  0  0  0  0  0  0  0  0  0
  143.7143  152.4103  134.4018 H   0  0  0  0  0  0  0  0  0  0  0  0
  142.2511  153.7362  135.4037 H   0  0  0  0  0  0  0  0  0  0  0  0
  142.9391  155.2173  134.5656 H   0  0  0  0  0  0  0  0  0  0  0  0
  141.5133  153.9288  132.5561 H   0  0  0  0  0  0  0  0  0  0  0  0
  140.4740  153.7258  134.0182 H   0  0  0  0  0  0  0  0  0  0  0  0
  138.8305  156.1637  133.8424 H   0  0  0  0  0  0  0  0  0  0  0  0
  139.5179  156.9306  132.3706 H   0  0  0  0  0  0  0  0  0  0  0  0
  139.1268  155.1773  132.3706 H   0  0  0  0  0  0  0  0  0  0  0  0
  139.3762  157.9080  136.7610 H   0  0  0  0  0  0  0  0  0  0  0  0
  139.0985  158.7641  135.2064 H   0  0  0  0  0  0  0  0  0  0  0  0
  139.5421  157.0234  135.2064 H   0  0  0  0  0  0  0  0  0  0  0  0
  140.9453  158.2490  137.8081 H   0  0  0  0  0  0  0  0  0  0  0  0
  142.6416  158.0994  137.2365 H   0  0  0  0  0  0  0  0  0  0  0  0
  141.8319  159.7028  137.2365 H   0  0  0  0  0  0  0  0  0  0  0  0
  141.4282  160.5163  135.4421 H   0  0  0  0  0  0  0  0  0  0  0  0
  142.2207  159.5471  134.1540 H   0  0  0  0  0  0  0  0  0  0  0  0
  140.4362  159.7524  134.1540 H   0  0  0  0  0  0  0  0  0  0  0  0
  144.3334  157.7585  133.3042 H   0  0  0  0  0  0  0  0  0  0  0  0
  1  2  1  0
  2  3  2  0
  3  4  1  0
  4  5  2  0
  5  6  1  0
  6  7  2  0
  7  8  1  0
  8  9  1  0
  8 10  2  0
  7 11  1  0
 11 12  1  0
 12 13  2  0
 12 14  1  0
 14 15  1  0
 14 16  1  0
 16 17  1  0
 17 18  1  0
 18 19  1  0
 19 20  1  0
 19 21  1  0
 21 22  2  0
 21 23  1  0
 23 24  1  0
 24 25  1  0
 24 26  1  0
 24 27  1  0
 11 28  1  0
 28 29  2  0
 29  2  1  0
 28  5  1  0
  1 30  1  0
  1 31  1  0
  1 32  1  0
  3 33  1  0
  4 34  1  0
  6 35  1  0
  9 36  1  0
 14 37  1  6
 15 38  1  0
 15 39  1  0
 15 40  1  0
 16 41  1  0
 16 42  1  0
 17 43  1  0
 17 44  1  0
 18 45  1  0
 18 46  1  0
 20 47  1  0
 20 48  1  0
 20 49  1  0
 25 50  1  0
 25 51  1  0
 25 52  1  0
 26 53  1  0
 26 54  1  0
 26 55  1  0
 27 56  1  0
 27 57  1  0
 27 58  1  0
 29 59  1  0
M  CHG  2   9  -1  14   1
M  END
>  <UniqueID>  (26) 
26

>  <SMILES>  (26) 
Cc1ccc2cc(C([NH-])=O)n(C(=O)[N@@H+](C)CCCN(C)C(=O)OC(C)(C)C)c2c1

>  <Energy>  (26) 
87.9863692121275

>  <Genealogy>  (26) 
Cc1ccc2cc(C([NH-])=O)n(C(=O)[NH+](C)CCCN(C)C(=O)OC(C)(C)C)c2c1 (protonated)
Cc1ccc2cc(C([NH-])=O)n(C(=O)[N@@H+](C)CCCN(C)C(=O)OC(C)(C)C)c2c1 (chirality)
Cc1ccc2cc(C([NH-])=O)n(C(=O)[N@@H+](C)CCCN(C)C(=O)OC(C)(C)C)c2c1 (3D coordinates assigned)
Cc1ccc2cc(C([NH-])=O)n(C(=O)[N@@H+](C)CCCN(C)C(=O)OC(C)(C)C)c2c1 (optimized conformer: 87.9863692121275 kcal/mol)

>  <smiles>  (26) 
Cc1ccc2cc(C(N)=O)n(C(=O)N(C)CCCN(C)C(=O)OC(C)(C)C)c2c1

>  <score_type>  (26) 
oracle

>  <origin>  (26) 
adg

>  <m_score__min__energy>  (26) 
-7.6900000000000004

>  <m_primary>  (26) 
energy

$$$$
26:0
     RDKit          3D

 44 45  0  0  0  0  0  0  0  0999 V2000
  143.5830  161.2120  133.7720 N   0  0  0  0  0  0  0  0  0  0  0  0
  142.3000  160.6030  133.8990 C   0  0  0  0  0  0  0  0  0  0  0  0
  141.3060  161.1310  133.3360 O   0  0  0  0  0  0  0  0  0  0  0  0
  142.1530  159.3480  134.6670 C   0  0  0  0  0  0  0  0  0  0  0  0
  141.3180  159.2010  135.7750 C   0  0  0  0  0  0  0  0  0  0  0  0
  141.5070  157.9030  136.2020 C   0  0  0  0  0  0  0  0  0  0  0  0
  140.9200  157.2080  137.2550 C   0  0  0  0  0  0  0  0  0  0  0  0
  141.2920  155.8660  137.4460 C   0  0  0  0  0  0  0  0  0  0  0  0
  142.2240  155.2380  136.5780 C   0  0  0  0  0  0  0  0  0  0  0  0
  142.6600  153.8180  136.8330 C   0  0  0  0  0  0  0  0  0  0  0  0
  143.5880  153.8070  137.8580 F   0  0  0  0  0  0  0  0  0  0  0  0
  141.5790  153.0330  137.1930 F   0  0  0  0  0  0  0  0  0  0  0  0
  143.2350  153.2700  135.6990 F   0  0  0  0  0  0  0  0  0  0  0  0
  142.8100  155.9850  135.5300 C   0  0  0  0  0  0  0  0  0  0  0  0
  142.4260  157.3200  135.3710 C   0  0  0  0  0  0  0  0  0  0  0  0
  142.8300  158.1920  134.4270 N   0  0  0  0  0  0  0  0  0  0  0  0
  143.7180  157.8930  133.3410 C   0  0  0  0  0  0  0  0  0  0  0  0
  143.2460  157.4690  132.2520 O   0  0  0  0  0  0  0  0  0  0  0  0
  145.1580  158.1690  133.4660 C   0  0  0  0  0  0  0  0  0  0  0  0
  145.5750  159.3530  133.3430 O   0  0  0  0  0  0  0  0  0  0  0  0
  146.0930  157.0970  133.6670 N   0  0  0  0  0  0  0  0  0  0  0  0
  147.5260  157.2670  133.4350 C   0  0  0  0  0  0  0  0  0  0  0  0
  148.1020  156.0210  132.8360 C   0  0  0  0  0  0  0  0  0  0  0  0
  149.3400  155.9530  132.6080 O   0  0  0  0  0  0  0  0  0  0  0  0
  147.2370  154.9220  132.5160 N   0  0  0  0  0  0  0  0  0  0  0  0
  147.0010  153.7510  133.3630 C   0  0  2  0  0  0  0  0  0  0  0  0
  145.5220  153.4930  133.5090 C   0  0  0  0  0  0  0  0  0  0  0  0
  144.7120  154.3660  133.2330 O   0  0  0  0  0  0  0  0  0  0  0  0
  147.7060  153.9270  134.7220 C   0  0  0  0  0  0  0  0  0  0  0  0
  146.7280  154.1230  135.8420 C   0  0  0  0  0  0  0  0  0  0  0  0
  146.6740  153.2960  136.7890 O   0  0  0  0  0  0  0  0  0  0  0  0
  145.8960  155.2370  135.8530 O   0  0  0  0  0  0  0  0  0  0  0  0
  144.2050  160.9870  132.9650 H   0  0  0  0  0  0  0  0  0  0  0  0
  140.6516  159.9581  136.2141 H   0  0  0  0  0  0  0  0  0  0  0  0
  140.1879  157.6935  137.9171 H   0  0  0  0  0  0  0  0  0  0  0  0
  140.8555  155.2949  138.2786 H   0  0  0  0  0  0  0  0  0  0  0  0
  143.5495  155.5272  134.8566 H   0  0  0  0  0  0  0  0  0  0  0  0
  145.7400  156.1410  133.8950 H   0  0  0  0  0  0  0  0  0  0  0  0
  147.6855  158.1093  132.7458 H   0  0  0  0  0  0  0  0  0  0  0  0
  148.0245  157.4688  134.3946 H   0  0  0  0  0  0  0  0  0  0  0  0
  147.4346  152.8610  132.8835 H   0  0  0  0  0  0  0  0  0  0  0  0
  145.1703  152.5137  133.8659 H   0  0  0  0  0  0  0  0  0  0  0  0
  148.3073  153.0294  134.9288 H   0  0  0  0  0  0  0  0  0  0  0  0
  148.3383  154.8251  134.6625 H   0  0  0  0  0  0  0  0  0  0  0  0
  1  2  1  0
  2  3  2  0
  2  4  1  0
  4  5  2  0
  5  6  1  0
  6  7  2  0
  7  8  1  0
  8  9  2  0
  9 10  1  0
 10 11  1  0
 10 12  1  0
 10 13  1  0
  9 14  1  0
 14 15  2  0
 15 16  1  0
 16 17  1  0
 17 18  2  0
 17 19  1  0
 19 20  2  0
 19 21  1  0
 21 22  1  0
 22 23  1  0
 23 24  2  0
 23 25  1  0
 25 26  1  0
 26 27  1  0
 27 28  2  0
 26 29  1  0
 29 30  1  0
 30 31  2  0
 30 32  1  0
 16  4  1  0
 15  6  1  0
  1 33  1  0
  5 34  1  0
  7 35  1  0
  8 36  1  0
 14 37  1  0
 21 38  1  0
 22 39  1  0
 22 40  1  0
 26 41  1  6
 27 42  1  0
 29 43  1  0
 29 44  1  0
M  CHG  3   1  -1  25  -1  32  -1
M  END
>  <UniqueID>  (27) 
27

>  <SMILES>  (27) 
[NH-]C(=O)c1cc2ccc(C(F)(F)F)cc2n1C(=O)C(=O)NCC(=O)[N-][C@H](C=O)CC(=O)[O-]

>  <Energy>  (27) 
76.643265940414

>  <Genealogy>  (27) 
[NH-]C(=O)c1cc2ccc(C(F)(F)F)cc2n1C(=O)C(=O)NCC(=O)[N-]C(C=O)CC(=O)[O-] (protonated)
[NH-]C(=O)c1cc2ccc(C(F)(F)F)cc2n1C(=O)C(=O)NCC(=O)[N-][C@H](C=O)CC(=O)[O-] (chirality)
[NH-]C(=O)c1cc2ccc(C(F)(F)F)cc2n1C(=O)C(=O)NCC(=O)[N-][C@H](C=O)CC(=O)[O-] (3D coordinates assigned)
[NH-]C(=O)c1cc2ccc(C(F)(F)F)cc2n1C(=O)C(=O)NCC(=O)[N-][C@H](C=O)CC(=O)[O-] (optimized conformer: 76.643265940414 kcal/mol)

>  <smiles>  (27) 
NC(=O)c1cc2ccc(C(F)(F)F)cc2n1C(=O)C(=O)NCC(=O)NC(C=O)CC(=O)O

>  <score_type>  (27) 
oracle

>  <origin>  (27) 
adg

>  <m_score__min__energy>  (27) 
-7.2300000000000004

>  <m_primary>  (27) 
energy

$$$$
27:0
     RDKit          3D

 42 43  0  0  0  0  0  0  0  0999 V2000
  142.2130  160.4620  133.2500 N   0  0  0  0  0  0  0  0  0  0  0  0
  143.5720  160.8220  133.4900 C   0  0  0  0  0  0  0  0  0  0  0  0
  143.8580  162.0210  133.7410 O   0  0  0  0  0  0  0  0  0  0  0  0
  144.6310  159.7960  133.4000 C   0  0  0  0  0  0  0  0  0  0  0  0
  145.9830  160.1000  133.2520 C   0  0  0  0  0  0  0  0  0  0  0  0
  146.6370  158.8900  133.3060 C   0  0  0  0  0  0  0  0  0  0  0  0
  147.9920  158.6000  133.1920 C   0  0  0  0  0  0  0  0  0  0  0  0
  148.3860  157.2530  133.2510 C   0  0  0  0  0  0  0  0  0  0  0  0
  147.4260  156.2240  133.4340 C   0  0  0  0  0  0  0  0  0  0  0  0
  147.8540  154.7780  133.4330 C   0  0  0  0  0  0  0  0  0  0  0  0
  148.0870  154.3720  134.7320 F   0  0  0  0  0  0  0  0  0  0  0  0
  146.8690  153.9780  132.8780 F   0  0  0  0  0  0  0  0  0  0  0  0
  149.0130  154.6120  132.6940 F   0  0  0  0  0  0  0  0  0  0  0  0
  146.0540  156.5590  133.5210 C   0  0  0  0  0  0  0  0  0  0  0  0
  145.6940  157.9110  133.4760 C   0  0  0  0  0  0  0  0  0  0  0  0
  144.4560  158.4500  133.5310 N   0  0  0  0  0  0  0  0  0  0  0  0
  143.2210  157.7270  133.6490 C   0  0  0  0  0  0  0  0  0  0  0  0
  142.5440  157.4610  132.6170 O   0  0  0  0  0  0  0  0  0  0  0  0
  142.7880  157.2960  134.9080 O   0  0  0  0  0  0  0  0  0  0  0  0
  141.7620  157.9470  135.6540 C   0  0  0  0  0  0  0  0  0  0  0  0
  140.4150  157.7360  135.0260 C   0  0  0  0  0  0  0  0  0  0  0  0
  139.5220  157.1310  135.6800 O   0  0  0  0  0  0  0  0  0  0  0  0
  140.1280  158.2680  133.7250 N   0  0  0  0  0  0  0  0  0  0  0  0
  138.8140  158.1520  133.0910 C   0  0  0  0  0  0  0  0  0  0  0  0
  138.5050  159.3820  132.2310 C   0  0  0  0  0  0  0  0  0  0  0  0
  139.7620  159.9770  131.5900 C   0  0  0  0  0  0  0  0  0  0  0  0
  140.6410  158.9540  131.2070 O   0  0  0  0  0  0  0  0  0  0  0  0
  141.9720  159.5790  132.7500 H   0  0  0  0  0  0  0  0  0  0  0  0
  146.4321  161.0954  133.1201 H   0  0  0  0  0  0  0  0  0  0  0  0
  148.7335  159.4016  133.0595 H   0  0  0  0  0  0  0  0  0  0  0  0
  149.4504  156.9929  133.1543 H   0  0  0  0  0  0  0  0  0  0  0  0
  145.2884  155.7756  133.6216 H   0  0  0  0  0  0  0  0  0  0  0  0
  141.7488  157.5403  136.6760 H   0  0  0  0  0  0  0  0  0  0  0  0
  141.9738  159.0263  135.6680 H   0  0  0  0  0  0  0  0  0  0  0  0
  140.8910  158.7360  133.1860 H   0  0  0  0  0  0  0  0  0  0  0  0
  138.8007  157.2556  132.4536 H   0  0  0  0  0  0  0  0  0  0  0  0
  138.0512  158.0772  133.8800 H   0  0  0  0  0  0  0  0  0  0  0  0
  137.8066  159.0889  131.4333 H   0  0  0  0  0  0  0  0  0  0  0  0
  138.0682  160.1490  132.8875 H   0  0  0  0  0  0  0  0  0  0  0  0
  139.4758  160.5611  130.7029 H   0  0  0  0  0  0  0  0  0  0  0  0
  140.2646  160.6268  132.3215 H   0  0  0  0  0  0  0  0  0  0  0  0
  141.4980  159.1220  131.6810 H   0  0  0  0  0  0  0  0  0  0  0  0
  1  2  1  0
  2  3  2  0
  2  4  1  0
  4  5  2  0
  5  6  1  0
  6  7  2  0
  7  8  1  0
  8  9  2  0
  9 10  1  0
 10 11  1  0
 10 12  1  0
 10 13  1  0
  9 14  1  0
 14 15  2  0
 15 16  1  0
 16 17  1  0
 17 18  2  0
 17 19  1  0
 19 20  1  0
 20 21  1  0
 21 22  2  0
 21 23  1  0
 23 24  1  0
 24 25  1  0
 25 26  1  0
 26 27  1  0
 16  4  1  0
 15  6  1  0
  1 28  1  0
  5 29  1  0
  7 30  1  0
  8 31  1  0
 14 32  1  0
 20 33  1  0
 20 34  1  0
 23 35  1  0
 24 36  1  0
 24 37  1  0
 25 38  1  0
 25 39  1  0
 26 40  1  0
 26 41  1  0
 27 42  1  0
M  CHG  1   1  -1
M  END
>  <UniqueID>  (28) 
28

>  <SMILES>  (28) 
[NH-]C(=O)c1cc2ccc(C(F)(F)F)cc2n1C(=O)OCC(=O)NCCCO

>  <Energy>  (28) 
72.14446064585195

>  <Genealogy>  (28) 
[NH-]C(=O)c1cc2ccc(C(F)(F)F)cc2n1C(=O)OCC(=O)NCCCO (protonated)
[NH-]C(=O)c1cc2ccc(C(F)(F)F)cc2n1C(=O)OCC(=O)NCCCO (3D coordinates assigned)
[NH-]C(=O)c1cc2ccc(C(F)(F)F)cc2n1C(=O)OCC(=O)NCCCO (optimized conformer: 72.14446064585195 kcal/mol)

>  <smiles>  (28) 
NC(=O)c1cc2ccc(C(F)(F)F)cc2n1C(=O)OCC(=O)NCCCO

>  <score_type>  (28) 
oracle

>  <origin>  (28) 
adg

>  <m_score__min__energy>  (28) 
-5.6500000000000004

>  <m_primary>  (28) 
energy

$$$$
28:0
     RDKit          3D

 36 37  0  0  0  0  0  0  0  0999 V2000
  149.1180  161.5570  130.4840 C   0  0  0  0  0  0  0  0  0  0  0  0
  148.8710  160.3030  131.2670 C   0  0  0  0  0  0  0  0  0  0  0  0
  149.9330  159.3880  131.4770 C   0  0  0  0  0  0  0  0  0  0  0  0
  149.7250  158.2050  132.2070 C   0  0  0  0  0  0  0  0  0  0  0  0
  148.4520  157.9690  132.7170 C   0  0  0  0  0  0  0  0  0  0  0  0
  147.9630  156.8980  133.4340 C   0  0  0  0  0  0  0  0  0  0  0  0
  146.6190  157.1890  133.6600 C   0  0  0  0  0  0  0  0  0  0  0  0
  145.7120  156.3290  134.4490 C   0  0  0  0  0  0  0  0  0  0  0  0
  144.4300  156.8010  134.8580 N   0  0  0  0  0  0  0  0  0  0  0  0
  146.0850  155.1770  134.7960 O   0  0  0  0  0  0  0  0  0  0  0  0
  146.2920  158.3870  133.1030 N   0  0  0  0  0  0  0  0  0  0  0  0
  144.9910  158.9820  132.9940 C   0  0  0  0  0  0  0  0  0  0  0  0
  144.0250  158.2980  132.5660 O   0  0  0  0  0  0  0  0  0  0  0  0
  144.7550  160.3740  133.4960 C   0  0  0  0  0  0  0  0  0  0  0  0
  143.3230  160.5230  133.9080 C   0  0  0  0  0  0  0  0  0  0  0  0
  142.7430  161.6320  133.7500 O   0  0  0  0  0  0  0  0  0  0  0  0
  142.6070  159.3960  134.4320 N   0  0  0  0  0  0  0  0  0  0  0  0
  141.1870  159.4540  134.7690 C   0  0  0  0  0  0  0  0  0  0  0  0
  140.6730  158.0810  135.0560 C   0  0  0  0  0  0  0  0  0  0  0  0
  141.4280  157.0820  134.9310 O   0  0  0  0  0  0  0  0  0  0  0  0
  139.3700  157.9070  135.5040 O   0  0  0  0  0  0  0  0  0  0  0  0
  147.4210  158.8530  132.5330 C   0  0  0  0  0  0  0  0  0  0  0  0
  147.5940  160.0330  131.8060 C   0  0  0  0  0  0  0  0  0  0  0  0
  149.2831  162.3953  131.1768 H   0  0  0  0  0  0  0  0  0  0  0  0
  150.0073  161.4244  129.8503 H   0  0  0  0  0  0  0  0  0  0  0  0
  148.2449  161.7716  129.8503 H   0  0  0  0  0  0  0  0  0  0  0  0
  150.9293  159.6058  131.0648 H   0  0  0  0  0  0  0  0  0  0  0  0
  150.5431  157.4880  132.3701 H   0  0  0  0  0  0  0  0  0  0  0  0
  148.5159  156.0041  133.7586 H   0  0  0  0  0  0  0  0  0  0  0  0
  143.6480  156.8910  134.1720 H   0  0  0  0  0  0  0  0  0  0  0  0
  145.4068  160.5668  134.3609 H   0  0  0  0  0  0  0  0  0  0  0  0
  144.9821  161.0943  132.6963 H   0  0  0  0  0  0  0  0  0  0  0  0
  143.1090  158.4880  134.5590 H   0  0  0  0  0  0  0  0  0  0  0  0
  141.0492  160.0876  135.6576 H   0  0  0  0  0  0  0  0  0  0  0  0
  140.6314  159.8770  133.9191 H   0  0  0  0  0  0  0  0  0  0  0  0
  146.7584  160.7328  131.6574 H   0  0  0  0  0  0  0  0  0  0  0  0
  1  2  1  0
  2  3  2  0
  3  4  1  0
  4  5  2  0
  5  6  1  0
  6  7  2  0
  7  8  1  0
  8  9  1  0
  8 10  2  0
  7 11  1  0
 11 12  1  0
 12 13  2  0
 12 14  1  0
 14 15  1  0
 15 16  2  0
 15 17  1  0
 17 18  1  0
 18 19  1  0
 19 20  2  0
 19 21  1  0
 11 22  1  0
 22 23  2  0
 23  2  1  0
 22  5  1  0
  1 24  1  0
  1 25  1  0
  1 26  1  0
  3 27  1  0
  4 28  1  0
  6 29  1  0
  9 30  1  0
 14 31  1  0
 14 32  1  0
 17 33  1  0
 18 34  1  0
 18 35  1  0
 23 36  1  0
M  CHG  2   9  -1  21  -1
M  END
>  <UniqueID>  (29) 
29

>  <SMILES>  (29) 
Cc1ccc2cc(C([NH-])=O)n(C(=O)CC(=O)NCC(=O)[O-])c2c1

>  <Energy>  (29) 
67.39701733956214

>  <Genealogy>  (29) 
Cc1ccc2cc(C([NH-])=O)n(C(=O)CC(=O)NCC(=O)[O-])c2c1 (protonated)
Cc1ccc2cc(C([NH-])=O)n(C(=O)CC(=O)NCC(=O)[O-])c2c1 (3D coordinates assigned)
Cc1ccc2cc(C([NH-])=O)n(C(=O)CC(=O)NCC(=O)[O-])c2c1 (optimized conformer: 67.39701733956214 kcal/mol)

>  <smiles>  (29) 
Cc1ccc2cc(C(N)=O)n(C(=O)CC(=O)NCC(=O)O)c2c1

>  <score_type>  (29) 
oracle

>  <origin>  (29) 
adg

>  <m_score__min__energy>  (29) 
-6.7199999999999998

>  <m_primary>  (29) 
energy

$$$$
29:0
     RDKit          3D

 37 38  0  0  0  0  0  0  0  0999 V2000
  148.4950  157.5760  134.0080 N   0  0  0  0  0  0  0  0  0  0  0  0
  147.7460  158.7120  133.5760 C   0  0  0  0  0  0  0  0  0  0  0  0
  148.3600  159.7370  133.1750 O   0  0  0  0  0  0  0  0  0  0  0  0
  146.2690  158.6950  133.5430 C   0  0  0  0  0  0  0  0  0  0  0  0
  145.4770  159.8230  133.7440 C   0  0  0  0  0  0  0  0  0  0  0  0
  144.1780  159.3810  133.6280 C   0  0  0  0  0  0  0  0  0  0  0  0
  142.9770  160.0700  133.7730 C   0  0  0  0  0  0  0  0  0  0  0  0
  141.7810  159.3430  133.6580 C   0  0  0  0  0  0  0  0  0  0  0  0
  141.8020  157.9470  133.4000 C   0  0  0  0  0  0  0  0  0  0  0  0
  140.5160  157.1620  133.3450 C   0  0  0  0  0  0  0  0  0  0  0  0
  140.7800  155.8030  133.3000 F   0  0  0  0  0  0  0  0  0  0  0  0
  139.7650  157.4380  134.4710 F   0  0  0  0  0  0  0  0  0  0  0  0
  139.7840  157.4990  132.2200 F   0  0  0  0  0  0  0  0  0  0  0  0
  143.0430  157.2790  133.2920 C   0  0  0  0  0  0  0  0  0  0  0  0
  144.2150  158.0350  133.3780 C   0  0  0  0  0  0  0  0  0  0  0  0
  145.4910  157.6020  133.3140 N   0  0  0  0  0  0  0  0  0  0  0  0
  145.9160  156.2380  133.1780 C   0  0  0  0  0  0  0  0  0  0  0  0
  146.9030  155.9710  132.4390 O   0  0  0  0  0  0  0  0  0  0  0  0
  145.2220  155.1760  133.8660 N   0  0  0  0  0  0  0  0  0  0  0  0
  144.5540  154.1110  133.1010 C   0  0  0  0  0  0  0  0  0  0  0  0
  145.5420  153.0920  132.6150 C   0  0  0  0  0  0  0  0  0  0  0  0
  145.1590  151.9820  132.2870 O   0  0  0  0  0  0  0  0  0  0  0  0
  145.3440  155.0460  135.3240 C   0  0  0  0  0  0  0  0  0  0  0  0
  146.7130  154.5640  135.6950 C   0  0  0  0  0  0  0  0  0  0  0  0
  147.7300  155.2230  135.3560 O   0  0  0  0  0  0  0  0  0  0  0  0
  146.8660  153.3660  136.3800 O   0  0  0  0  0  0  0  0  0  0  0  0
  148.0390  156.6480  134.1530 H   0  0  0  0  0  0  0  0  0  0  0  0
  149.5360  157.6320  134.0790 H   0  0  0  0  0  0  0  0  0  0  0  0
  145.8168  160.8485  133.9513 H   0  0  0  0  0  0  0  0  0  0  0  0
  142.9652  161.1518  133.9717 H   0  0  0  0  0  0  0  0  0  0  0  0
  140.8170  159.8610  133.7691 H   0  0  0  0  0  0  0  0  0  0  0  0
  143.0851  156.1899  133.1438 H   0  0  0  0  0  0  0  0  0  0  0  0
  143.8148  153.6147  133.7469 H   0  0  0  0  0  0  0  0  0  0  0  0
  144.0627  154.5646  132.2276 H   0  0  0  0  0  0  0  0  0  0  0  0
  146.6106  153.3460  132.5547 H   0  0  0  0  0  0  0  0  0  0  0  0
  145.1664  156.0260  135.7909 H   0  0  0  0  0  0  0  0  0  0  0  0
  144.6015  154.3164  135.6795 H   0  0  0  0  0  0  0  0  0  0  0  0
  1  2  1  0
  2  3  2  0
  2  4  1  0
  4  5  2  0
  5  6  1  0
  6  7  2  0
  7  8  1  0
  8  9  2  0
  9 10  1  0
 10 11  1  0
 10 12  1  0
 10 13  1  0
  9 14  1  0
 14 15  2  0
 15 16  1  0
 16 17  1  0
 17 18  2  0
 17 19  1  0
 19 20  1  0
 20 21  1  0
 21 22  2  0
 19 23  1  0
 23 24  1  0
 24 25  2  0
 24 26  1  0
 16  4  1  0
 15  6  1  0
  1 27  1  0
  1 28  1  0
  5 29  1  0
  7 30  1  0
  8 31  1  0
 14 32  1  0
 20 33  1  0
 20 34  1  0
 21 35  1  0
 23 36  1  0
 23 37  1  0
M  CHG  1  26  -1
M  END
>  <UniqueID>  (30) 
30

>  <SMILES>  (30) 
NC(=O)c1cc2ccc(C(F)(F)F)cc2n1C(=O)N(CC=O)CC(=O)[O-]

>  <Energy>  (30) 
74.27504723930535

>  <Genealogy>  (30) 
NC(=O)c1cc2ccc(C(F)(F)F)cc2n1C(=O)N(CC=O)CC(=O)[O-] (protonated)
NC(=O)c1cc2ccc(C(F)(F)F)cc2n1C(=O)N(CC=O)CC(=O)[O-] (3D coordinates assigned)
NC(=O)c1cc2ccc(C(F)(F)F)cc2n1C(=O)N(CC=O)CC(=O)[O-] (optimized conformer: 74.27504723930535 kcal/mol)

>  <smiles>  (30) 
NC(=O)c1cc2ccc(C(F)(F)F)cc2n1C(=O)N(CC=O)CC(=O)O

>  <score_type>  (30) 
oracle

>  <origin>  (30) 
adg

>  <m_score__min__energy>  (30) 
-6.0800000000000001

>  <m_primary>  (30) 
energy

$$$$
30:0
     RDKit          3D

 37 38  0  0  0  0  0  0  0  0999 V2000
  140.6110  160.0330  136.7850 C   0  0  0  0  0  0  0  0  0  0  0  0
  140.6980  158.8970  135.8090 C   0  0  0  0  0  0  0  0  0  0  0  0
  140.2680  159.0760  134.4710 C   0  0  0  0  0  0  0  0  0  0  0  0
  140.3000  158.0060  133.5610 C   0  0  0  0  0  0  0  0  0  0  0  0
  140.7600  156.7740  134.0170 C   0  0  0  0  0  0  0  0  0  0  0  0
  140.8630  155.5670  133.3620 C   0  0  0  0  0  0  0  0  0  0  0  0
  141.3550  154.6710  134.3110 C   0  0  0  0  0  0  0  0  0  0  0  0
  141.6720  153.2500  134.0380 C   0  0  0  0  0  0  0  0  0  0  0  0
  141.7700  152.3010  135.1020 N   0  0  0  0  0  0  0  0  0  0  0  0
  141.8450  152.8590  132.8530 O   0  0  0  0  0  0  0  0  0  0  0  0
  141.5580  155.3050  135.5000 N   0  0  0  0  0  0  0  0  0  0  0  0
  141.9960  154.7190  136.7370 C   0  0  0  0  0  0  0  0  0  0  0  0
  143.0980  154.1090  136.7790 O   0  0  0  0  0  0  0  0  0  0  0  0
  141.1850  154.8390  137.9580 C   0  0  0  0  0  0  0  0  0  0  0  0
  140.3160  155.7480  138.0500 O   0  0  0  0  0  0  0  0  0  0  0  0
  141.3940  153.9280  139.0400 N   0  0  0  0  0  0  0  0  0  0  0  0
  140.5900  152.7300  139.2570 C   0  0  0  0  0  0  0  0  0  0  0  0
  141.2920  151.4900  138.6740 C   0  0  2  0  0  0  0  0  0  0  0  0
  142.4600  151.8480  137.9790 O   0  0  0  0  0  0  0  0  0  0  0  0
  140.3600  150.7270  137.7750 C   0  0  0  0  0  0  0  0  0  0  0  0
  139.3240  150.1890  138.2480 O   0  0  0  0  0  0  0  0  0  0  0  0
  140.6240  150.6260  136.4140 O   0  0  0  0  0  0  0  0  0  0  0  0
  141.1830  156.5880  135.3070 C   0  0  0  0  0  0  0  0  0  0  0  0
  141.1420  157.6290  136.2410 C   0  0  0  0  0  0  0  0  0  0  0  0
  140.6413  159.6379  137.8112 H   0  0  0  0  0  0  0  0  0  0  0  0
  141.4595  160.7156  136.6297 H   0  0  0  0  0  0  0  0  0  0  0  0
  139.6684  160.5784  136.6297 H   0  0  0  0  0  0  0  0  0  0  0  0
  139.9060  160.0612  134.1418 H   0  0  0  0  0  0  0  0  0  0  0  0
  139.9714  158.1379  132.5196 H   0  0  0  0  0  0  0  0  0  0  0  0
  140.6107  155.3545  132.3126 H   0  0  0  0  0  0  0  0  0  0  0  0
  141.7020  152.5910  136.1020 H   0  0  0  0  0  0  0  0  0  0  0  0
  141.9590  151.2960  134.8900 H   0  0  0  0  0  0  0  0  0  0  0  0
  140.4411  152.5860  140.3373 H   0  0  0  0  0  0  0  0  0  0  0  0
  139.6213  152.8581  138.7517 H   0  0  0  0  0  0  0  0  0  0  0  0
  141.5802  150.8403  139.5136 H   0  0  0  0  0  0  0  0  0  0  0  0
  142.6110  152.8190  138.1160 H   0  0  0  0  0  0  0  0  0  0  0  0
  141.4478  157.4634  137.2846 H   0  0  0  0  0  0  0  0  0  0  0  0
  1  2  1  0
  2  3  2  0
  3  4  1  0
  4  5  2  0
  5  6  1  0
  6  7  2  0
  7  8  1  0
  8  9  1  0
  8 10  2  0
  7 11  1  0
 11 12  1  0
 12 13  2  0
 12 14  1  0
 14 15  2  0
 14 16  1  0
 16 17  1  0
 17 18  1  0
 18 19  1  0
 18 20  1  0
 20 21  2  0
 20 22  1  0
 11 23  1  0
 23 24  2  0
 24  2  1  0
 23  5  1  0
  1 25  1  0
  1 26  1  0
  1 27  1  0
  3 28  1  0
  4 29  1  0
  6 30  1  0
  9 31  1  0
  9 32  1  0
 17 33  1  0
 17 34  1  0
 18 35  1  1
 19 36  1  0
 24 37  1  0
M  CHG  2  16  -1  22  -1
M  END
>  <UniqueID>  (31) 
31

>  <SMILES>  (31) 
Cc1ccc2cc(C(N)=O)n(C(=O)C(=O)[N-]C[C@H](O)C(=O)[O-])c2c1

>  <Energy>  (31) 
72.22621735734769

>  <Genealogy>  (31) 
Cc1ccc2cc(C(N)=O)n(C(=O)C(=O)[N-]CC(O)C(=O)[O-])c2c1 (protonated)
Cc1ccc2cc(C(N)=O)n(C(=O)C(=O)[N-]C[C@H](O)C(=O)[O-])c2c1 (chirality)
Cc1ccc2cc(C(N)=O)n(C(=O)C(=O)[N-]C[C@H](O)C(=O)[O-])c2c1 (3D coordinates assigned)
Cc1ccc2cc(C(N)=O)n(C(=O)C(=O)[N-]C[C@H](O)C(=O)[O-])c2c1 (optimized conformer: 72.22621735734769 kcal/mol)

>  <smiles>  (31) 
Cc1ccc2cc(C(N)=O)n(C(=O)C(=O)NCC(O)C(=O)O)c2c1

>  <score_type>  (31) 
oracle

>  <origin>  (31) 
adg

>  <m_score__min__energy>  (31) 
-6.1600000000000001

>  <m_primary>  (31) 
energy

$$$$
31:0
     RDKit          3D

 41 42  0  0  0  0  0  0  0  0999 V2000
  148.2120  154.1260  133.4070 C   0  0  0  0  0  0  0  0  0  0  0  0
  147.5710  154.8300  132.2940 N   0  0  0  0  0  0  0  0  0  0  0  0
  147.4990  156.2420  132.5740 C   0  0  0  0  0  0  0  0  0  0  0  0
  148.6790  157.0300  132.5780 C   0  0  0  0  0  0  0  0  0  0  0  0
  148.6240  158.4040  132.8660 C   0  0  0  0  0  0  0  0  0  0  0  0
  147.3810  158.9580  133.1630 C   0  0  0  0  0  0  0  0  0  0  0  0
  147.0390  160.2580  133.4580 C   0  0  0  0  0  0  0  0  0  0  0  0
  145.6620  160.2400  133.6680 C   0  0  0  0  0  0  0  0  0  0  0  0
  144.8880  161.4240  134.0970 C   0  0  0  0  0  0  0  0  0  0  0  0
  143.5200  161.5790  133.7300 N   0  0  0  0  0  0  0  0  0  0  0  0
  145.4300  162.2880  134.8380 O   0  0  0  0  0  0  0  0  0  0  0  0
  145.1710  158.9790  133.4990 N   0  0  0  0  0  0  0  0  0  0  0  0
  143.8040  158.5460  133.5520 C   0  0  0  0  0  0  0  0  0  0  0  0
  143.3330  157.8560  132.6090 O   0  0  0  0  0  0  0  0  0  0  0  0
  143.0210  158.8890  134.6650 O   0  0  0  0  0  0  0  0  0  0  0  0
  141.5980  158.7470  134.8080 C   0  0  0  0  0  0  0  0  0  0  0  0
  141.1500  158.9670  136.2690 C   0  0  0  0  0  0  0  0  0  0  0  0
  141.2620  157.2980  134.4170 C   0  0  0  0  0  0  0  0  0  0  0  0
  140.8520  159.6960  133.8390 C   0  0  0  0  0  0  0  0  0  0  0  0
  141.4990  159.7860  132.5970 O   0  0  0  0  0  0  0  0  0  0  0  0
  146.2360  158.2060  133.1940 C   0  0  0  0  0  0  0  0  0  0  0  0
  146.2590  156.8400  132.8910 C   0  0  0  0  0  0  0  0  0  0  0  0
  147.8419  154.5325  134.3598 H   0  0  0  0  0  0  0  0  0  0  0  0
  147.9737  153.0537  133.3485 H   0  0  0  0  0  0  0  0  0  0  0  0
  149.3019  154.2631  133.3485 H   0  0  0  0  0  0  0  0  0  0  0  0
  146.6090  154.4430  132.1500 H   0  0  0  0  0  0  0  0  0  0  0  0
  148.1210  154.6620  131.4190 H   0  0  0  0  0  0  0  0  0  0  0  0
  149.6477  156.5598  132.3531 H   0  0  0  0  0  0  0  0  0  0  0  0
  149.5336  159.0226  132.8572 H   0  0  0  0  0  0  0  0  0  0  0  0
  147.7107  161.1272  133.5157 H   0  0  0  0  0  0  0  0  0  0  0  0
  142.8740  160.7590  133.7070 H   0  0  0  0  0  0  0  0  0  0  0  0
  141.9245  158.5867  136.9512 H   0  0  0  0  0  0  0  0  0  0  0  0
  140.9990  160.0417  136.4483 H   0  0  0  0  0  0  0  0  0  0  0  0
  140.2072  158.4293  136.4483 H   0  0  0  0  0  0  0  0  0  0  0  0
  141.1223  156.6957  135.3268 H   0  0  0  0  0  0  0  0  0  0  0  0
  140.3367  157.2839  133.8223 H   0  0  0  0  0  0  0  0  0  0  0  0
  142.0866  156.8781  133.8223 H   0  0  0  0  0  0  0  0  0  0  0  0
  139.8320  159.3151  133.6824 H   0  0  0  0  0  0  0  0  0  0  0  0
  140.8344  160.6996  134.2890 H   0  0  0  0  0  0  0  0  0  0  0  0
  142.4680  159.8980  132.7790 H   0  0  0  0  0  0  0  0  0  0  0  0
  145.3333  156.2458  132.8995 H   0  0  0  0  0  0  0  0  0  0  0  0
  1  2  1  0
  2  3  1  0
  3  4  2  0
  4  5  1  0
  5  6  2  0
  6  7  1  0
  7  8  2  0
  8  9  1  0
  9 10  1  0
  9 11  2  0
  8 12  1  0
 12 13  1  0
 13 14  2  0
 13 15  1  0
 15 16  1  0
 16 17  1  0
 16 18  1  0
 16 19  1  0
 19 20  1  0
 12 21  1  0
 21 22  2  0
 22  3  1  0
 21  6  1  0
  1 23  1  0
  1 24  1  0
  1 25  1  0
  2 26  1  0
  2 27  1  0
  4 28  1  0
  5 29  1  0
  7 30  1  0
 10 31  1  0
 17 32  1  0
 17 33  1  0
 17 34  1  0
 18 35  1  0
 18 36  1  0
 18 37  1  0
 19 38  1  0
 19 39  1  0
 20 40  1  0
 22 41  1  0
M  CHG  2   2   1  10  -1
M  END
>  <UniqueID>  (32) 
32

>  <SMILES>  (32) 
C[NH2+]c1ccc2cc(C([NH-])=O)n(C(=O)OC(C)(C)CO)c2c1

>  <Energy>  (32) 
77.77230601290262

>  <Genealogy>  (32) 
C[NH2+]c1ccc2cc(C([NH-])=O)n(C(=O)OC(C)(C)CO)c2c1 (protonated)
C[NH2+]c1ccc2cc(C([NH-])=O)n(C(=O)OC(C)(C)CO)c2c1 (3D coordinates assigned)
C[NH2+]c1ccc2cc(C([NH-])=O)n(C(=O)OC(C)(C)CO)c2c1 (optimized conformer: 77.77230601290262 kcal/mol)

>  <smiles>  (32) 
CNc1ccc2cc(C(N)=O)n(C(=O)OC(C)(C)CO)c2c1

>  <score_type>  (32) 
oracle

>  <origin>  (32) 
adg

>  <m_score__min__energy>  (32) 
-6.2199999999999998

>  <m_primary>  (32) 
energy

$$$$
32:0
     RDKit          3D

 36 37  0  0  0  0  0  0  0  0999 V2000
  142.7300  155.3590  133.3050 C   0  0  0  0  0  0  0  0  0  0  0  0
  141.3700  154.8160  133.3790 N   0  0  0  0  0  0  0  0  0  0  0  0
  141.1710  153.3900  133.4390 C   0  0  0  0  0  0  0  0  0  0  0  0
  140.1430  152.8820  132.9070 O   0  0  0  0  0  0  0  0  0  0  0  0
  142.1400  152.5030  134.1760 C   0  0  0  0  0  0  0  0  0  0  0  0
  141.7180  152.2860  135.5960 C   0  0  0  0  0  0  0  0  0  0  0  0
  142.0630  153.1010  136.4910 O   0  0  0  0  0  0  0  0  0  0  0  0
  140.9820  151.1580  135.9390 O   0  0  0  0  0  0  0  0  0  0  0  0
  140.2470  155.7000  133.5750 C   0  0  0  0  0  0  0  0  0  0  0  0
  139.1130  155.3960  133.1130 O   0  0  0  0  0  0  0  0  0  0  0  0
  140.4020  156.9210  134.3190 N   0  0  0  0  0  0  0  0  0  0  0  0
  140.2120  158.1970  133.8810 C   0  0  0  0  0  0  0  0  0  0  0  0
  139.8890  158.5960  132.4940 C   0  0  0  0  0  0  0  0  0  0  0  0
  138.7510  158.0370  131.8410 N   0  0  0  0  0  0  0  0  0  0  0  0
  140.5950  159.4410  131.8860 O   0  0  0  0  0  0  0  0  0  0  0  0
  140.4290  159.1040  134.9160 C   0  0  0  0  0  0  0  0  0  0  0  0
  140.7600  158.3380  136.0110 C   0  0  0  0  0  0  0  0  0  0  0  0
  141.0720  158.7180  137.3130 C   0  0  0  0  0  0  0  0  0  0  0  0
  141.3540  157.7070  138.2450 C   0  0  0  0  0  0  0  0  0  0  0  0
  141.3170  156.3420  137.8640 C   0  0  0  0  0  0  0  0  0  0  0  0
  141.6070  155.2620  138.8670 C   0  0  0  0  0  0  0  0  0  0  0  0
  142.1400  155.8220  140.0130 F   0  0  0  0  0  0  0  0  0  0  0  0
  140.4400  154.5920  139.1870 F   0  0  0  0  0  0  0  0  0  0  0  0
  140.9920  155.9940  136.5350 C   0  0  0  0  0  0  0  0  0  0  0  0
  140.7320  157.0240  135.6240 C   0  0  0  0  0  0  0  0  0  0  0  0
  143.1187  155.5142  134.3223 H   0  0  0  0  0  0  0  0  0  0  0  0
  143.3788  154.6510  132.7686 H   0  0  0  0  0  0  0  0  0  0  0  0
  142.7128  156.3192  132.7686 H   0  0  0  0  0  0  0  0  0  0  0  0
  142.1917  151.5296  133.6662 H   0  0  0  0  0  0  0  0  0  0  0  0
  143.1230  152.9966  134.1808 H   0  0  0  0  0  0  0  0  0  0  0  0
  138.2900  157.1770  132.2090 H   0  0  0  0  0  0  0  0  0  0  0  0
  140.3521  160.2003  134.8684 H   0  0  0  0  0  0  0  0  0  0  0  0
  141.0969  159.7788  137.6030 H   0  0  0  0  0  0  0  0  0  0  0  0
  141.6062  157.9765  139.2812 H   0  0  0  0  0  0  0  0  0  0  0  0
  142.3279  154.5539  138.4324 H   0  0  0  0  0  0  0  0  0  0  0  0
  140.9444  154.9401  136.2235 H   0  0  0  0  0  0  0  0  0  0  0  0
  1  2  1  0
  2  3  1  0
  3  4  2  0
  3  5  1  0
  5  6  1  0
  6  7  2  0
  6  8  1  0
  2  9  1  0
  9 10  2  0
  9 11  1  0
 11 12  1  0
 12 13  1  0
 13 14  1  0
 13 15  2  0
 12 16  2  0
 16 17  1  0
 17 18  2  0
 18 19  1  0
 19 20  2  0
 20 21  1  0
 21 22  1  0
 21 23  1  0
 20 24  1  0
 24 25  2  0
 25 11  1  0
 25 17  1  0
  1 26  1  0
  1 27  1  0
  1 28  1  0
  5 29  1  0
  5 30  1  0
 14 31  1  0
 16 32  1  0
 18 33  1  0
 19 34  1  0
 21 35  1  0
 24 36  1  0
M  CHG  2   8  -1  14  -1
M  END
>  <UniqueID>  (33) 
33

>  <SMILES>  (33) 
CN(C(=O)CC(=O)[O-])C(=O)n1c(C([NH-])=O)cc2ccc(C(F)F)cc21

>  <Energy>  (33) 
75.82073602597394

>  <Genealogy>  (33) 
CN(C(=O)CC(=O)[O-])C(=O)n1c(C([NH-])=O)cc2ccc(C(F)F)cc21 (protonated)
CN(C(=O)CC(=O)[O-])C(=O)n1c(C([NH-])=O)cc2ccc(C(F)F)cc21 (3D coordinates assigned)
CN(C(=O)CC(=O)[O-])C(=O)n1c(C([NH-])=O)cc2ccc(C(F)F)cc21 (optimized conformer: 75.82073602597394 kcal/mol)

>  <smiles>  (33) 
CN(C(=O)CC(=O)O)C(=O)n1c(C(N)=O)cc2ccc(C(F)F)cc21

>  <score_type>  (33) 
oracle

>  <origin>  (33) 
adg

>  <m_score__min__energy>  (33) 
-6.2699999999999996

>  <m_primary>  (33) 
energy

$$$$
33:0
     RDKit          3D

 55 56  0  0  0  0  0  0  0  0999 V2000
  145.4900  153.2690  132.6140 C   0  0  0  0  0  0  0  0  0  0  0  0
  144.6400  153.4760  133.8810 C   0  0  1  0  0  0  0  0  0  0  0  0
  144.8870  154.8700  134.4920 C   0  0  0  0  0  0  0  0  0  0  0  0
  146.3350  155.0710  134.8630 C   0  0  0  0  0  0  0  0  0  0  0  0
  147.2430  155.7620  134.1520 C   0  0  0  0  0  0  0  0  0  0  0  0
  146.9750  156.5770  132.9470 C   0  0  0  0  0  0  0  0  0  0  0  0
  147.0180  156.0130  131.8210 O   0  0  0  0  0  0  0  0  0  0  0  0
  146.7750  158.0000  133.0140 N   0  0  0  0  0  0  0  0  0  0  0  0
  147.6900  158.9870  132.7870 C   0  0  0  0  0  0  0  0  0  0  0  0
  149.0940  158.7960  132.3560 C   0  0  0  0  0  0  0  0  0  0  0  0
  149.6220  157.4820  132.2330 N   0  0  0  0  0  0  0  0  0  0  0  0
  149.8350  159.7820  132.1030 O   0  0  0  0  0  0  0  0  0  0  0  0
  147.1130  160.2400  132.9860 C   0  0  0  0  0  0  0  0  0  0  0  0
  145.8170  159.9890  133.3670 C   0  0  0  0  0  0  0  0  0  0  0  0
  144.7950  160.8720  133.6990 C   0  0  0  0  0  0  0  0  0  0  0  0
  143.5520  160.3310  134.0680 C   0  0  0  0  0  0  0  0  0  0  0  0
  143.3630  158.9260  134.1370 C   0  0  0  0  0  0  0  0  0  0  0  0
  142.0180  158.3570  134.5100 C   0  0  0  0  0  0  0  0  0  0  0  0
  141.3920  157.8240  133.3980 F   0  0  0  0  0  0  0  0  0  0  0  0
  141.1980  159.3410  135.0370 F   0  0  0  0  0  0  0  0  0  0  0  0
  142.1880  157.3630  135.4530 F   0  0  0  0  0  0  0  0  0  0  0  0
  144.4210  158.0630  133.7740 C   0  0  0  0  0  0  0  0  0  0  0  0
  145.6410  158.6310  133.3860 C   0  0  0  0  0  0  0  0  0  0  0  0
  143.1790  153.2090  133.7010 N   0  0  0  0  0  0  0  0  0  0  0  0
  142.5260  154.3210  132.9920 C   0  0  0  0  0  0  0  0  0  0  0  0
  142.4090  152.8710  134.9230 C   0  0  0  0  0  0  0  0  0  0  0  0
  141.4650  151.7250  134.7020 C   0  0  0  0  0  0  0  0  0  0  0  0
  140.9840  151.1260  135.7020 O   0  0  0  0  0  0  0  0  0  0  0  0
  141.1000  151.2790  133.3890 N   0  0  0  0  0  0  0  0  0  0  0  0
  141.1380  149.8950  132.9220 C   0  0  0  0  0  0  0  0  0  0  0  0
  142.4600  149.6140  132.2130 C   0  0  0  0  0  0  0  0  0  0  0  0
  143.3130  150.7260  132.3480 O   0  0  0  0  0  0  0  0  0  0  0  0
  146.5216  153.0178  132.9015 H   0  0  0  0  0  0  0  0  0  0  0  0
  145.0653  152.4480  132.0176 H   0  0  0  0  0  0  0  0  0  0  0  0
  145.4904  154.1933  132.0176 H   0  0  0  0  0  0  0  0  0  0  0  0
  144.9830  152.7088  134.5908 H   0  0  0  0  0  0  0  0  0  0  0  0
  144.5979  155.6366  133.7581 H   0  0  0  0  0  0  0  0  0  0  0  0
  144.2847  154.9528  135.4088 H   0  0  0  0  0  0  0  0  0  0  0  0
  146.6795  154.6103  135.8006 H   0  0  0  0  0  0  0  0  0  0  0  0
  148.2856  155.7170  134.4998 H   0  0  0  0  0  0  0  0  0  0  0  0
  149.0690  156.7220  131.7780 H   0  0  0  0  0  0  0  0  0  0  0  0
  147.5935  161.2220  132.8639 H   0  0  0  0  0  0  0  0  0  0  0  0
  144.9549  161.9600  133.6735 H   0  0  0  0  0  0  0  0  0  0  0  0
  142.7154  161.0043  134.3062 H   0  0  0  0  0  0  0  0  0  0  0  0
  144.2897  156.9711  133.7956 H   0  0  0  0  0  0  0  0  0  0  0  0
  142.1103  155.0289  133.7241 H   0  0  0  0  0  0  0  0  0  0  0  0
  143.2643  154.8374  132.3610 H   0  0  0  0  0  0  0  0  0  0  0  0
  141.7153  153.9278  132.3610 H   0  0  0  0  0  0  0  0  0  0  0  0
  143.1146  152.5992  135.7220 H   0  0  0  0  0  0  0  0  0  0  0  0
  141.8106  153.7519  135.1984 H   0  0  0  0  0  0  0  0  0  0  0  0
  141.0364  149.2181  133.7831 H   0  0  0  0  0  0  0  0  0  0  0  0
  140.3104  149.7316  132.2161 H   0  0  0  0  0  0  0  0  0  0  0  0
  142.9362  148.7303  132.6628 H   0  0  0  0  0  0  0  0  0  0  0  0
  142.2700  149.4262  131.1459 H   0  0  0  0  0  0  0  0  0  0  0  0
  142.7380  151.5410  132.3660 H   0  0  0  0  0  0  0  0  0  0  0  0
  1  2  1  0
  2  3  1  0
  3  4  1  0
  4  5  2  3
  5  6  1  0
  6  7  2  0
  6  8  1  0
  8  9  1  0
  9 10  1  0
 10 11  1  0
 10 12  2  0
  9 13  2  0
 13 14  1  0
 14 15  2  0
 15 16  1  0
 16 17  2  0
 17 18  1  0
 18 19  1  0
 18 20  1  0
 18 21  1  0
 17 22  1  0
 22 23  2  0
  2 24  1  0
 24 25  1  0
 24 26  1  0
 26 27  1  0
 27 28  2  0
 27 29  1  0
 29 30  1  0
 30 31  1  0
 31 32  1  0
 23  8  1  0
 23 14  1  0
  1 33  1  0
  1 34  1  0
  1 35  1  0
  2 36  1  1
  3 37  1  0
  3 38  1  0
  4 39  1  0
  5 40  1  0
 11 41  1  0
 13 42  1  0
 15 43  1  0
 16 44  1  0
 22 45  1  0
 25 46  1  0
 25 47  1  0
 25 48  1  0
 26 49  1  0
 26 50  1  0
 30 51  1  0
 30 52  1  0
 31 53  1  0
 31 54  1  0
 32 55  1  0
M  CHG  2  11  -1  29  -1
M  END
>  <UniqueID>  (34) 
34

>  <SMILES>  (34) 
C[C@@H](CC=CC(=O)n1c(C([NH-])=O)cc2ccc(C(F)(F)F)cc21)N(C)CC(=O)[N-]CCO

>  <Energy>  (34) 
96.04964601841218

>  <Genealogy>  (34) 
C[C@@H](CC=CC(=O)n1c(C([NH-])=O)cc2ccc(C(F)(F)F)cc21)N(C)CC(=O)[N-]CCO (protonated)
C[C@@H](CC=CC(=O)n1c(C([NH-])=O)cc2ccc(C(F)(F)F)cc21)N(C)CC(=O)[N-]CCO (3D coordinates assigned)
C[C@@H](CC=CC(=O)n1c(C([NH-])=O)cc2ccc(C(F)(F)F)cc21)N(C)CC(=O)[N-]CCO (optimized conformer: 96.04964601841218 kcal/mol)

>  <smiles>  (34) 
C[C@@H](CC=CC(=O)n1c(C(N)=O)cc2ccc(C(F)(F)F)cc21)N(C)CC(=O)NCCO

>  <score_type>  (34) 
oracle

>  <origin>  (34) 
adg

>  <m_score__min__energy>  (34) 
-6.8600000000000003

>  <m_primary>  (34) 
energy

$$$$
34:0
     RDKit          3D

 40 41  0  0  0  0  0  0  0  0999 V2000
  148.3930  154.9110  132.7630 C   0  0  0  0  0  0  0  0  0  0  0  0
  147.9310  156.3290  132.9350 C   0  0  0  0  0  0  0  0  0  0  0  0
  148.8440  157.4030  132.7920 C   0  0  0  0  0  0  0  0  0  0  0  0
  148.4070  158.7330  132.9080 C   0  0  0  0  0  0  0  0  0  0  0  0
  147.0580  158.9580  133.1670 C   0  0  0  0  0  0  0  0  0  0  0  0
  146.3650  160.1410  133.2820 C   0  0  0  0  0  0  0  0  0  0  0  0
  145.0410  159.7700  133.5090 C   0  0  0  0  0  0  0  0  0  0  0  0
  143.9530  160.7430  133.7420 C   0  0  0  0  0  0  0  0  0  0  0  0
  142.5840  160.3680  133.5980 N   0  0  0  0  0  0  0  0  0  0  0  0
  144.2350  161.9090  134.1300 O   0  0  0  0  0  0  0  0  0  0  0  0
  144.9150  158.4130  133.5200 N   0  0  0  0  0  0  0  0  0  0  0  0
  143.7040  157.6450  133.5810 C   0  0  0  0  0  0  0  0  0  0  0  0
  142.9910  157.5160  132.5530 O   0  0  0  0  0  0  0  0  0  0  0  0
  143.3110  157.0220  134.8050 N   0  0  0  0  0  0  0  0  0  0  0  0
  142.2300  157.5190  135.6470 C   0  0  0  0  0  0  0  0  0  0  0  0
  140.8800  157.1790  135.0130 C   0  0  0  0  0  0  0  0  0  0  0  0
  140.1630  158.4230  134.5630 C   0  0  0  0  0  0  0  0  0  0  0  0
  140.6510  159.5490  134.8560 O   0  0  0  0  0  0  0  0  0  0  0  0
  138.9650  158.3730  133.7770 N   0  0  0  0  0  0  0  0  0  0  0  0
  138.9290  158.3660  132.3210 C   0  0  0  0  0  0  0  0  0  0  0  0
  139.4620  159.6570  131.8080 C   0  0  0  0  0  0  0  0  0  0  0  0
  140.5660  160.0930  132.2270 O   0  0  0  0  0  0  0  0  0  0  0  0
  138.7570  160.3730  130.8410 O   0  0  0  0  0  0  0  0  0  0  0  0
  146.1610  157.9290  133.3130 C   0  0  0  0  0  0  0  0  0  0  0  0
  146.5660  156.5950  133.1770 C   0  0  0  0  0  0  0  0  0  0  0  0
  148.5427  154.4517  133.7513 H   0  0  0  0  0  0  0  0  0  0  0  0
  147.6335  154.3429  132.2059 H   0  0  0  0  0  0  0  0  0  0  0  0
  149.3414  154.8994  132.2059 H   0  0  0  0  0  0  0  0  0  0  0  0
  149.9045  157.1935  132.5883 H   0  0  0  0  0  0  0  0  0  0  0  0
  149.1100  159.5718  132.7974 H   0  0  0  0  0  0  0  0  0  0  0  0
  146.7695  161.1614  133.2101 H   0  0  0  0  0  0  0  0  0  0  0  0
  141.8300  161.0740  133.7530 H   0  0  0  0  0  0  0  0  0  0  0  0
  142.3120  159.3760  133.4220 H   0  0  0  0  0  0  0  0  0  0  0  0
  142.2955  157.0499  136.6398 H   0  0  0  0  0  0  0  0  0  0  0  0
  142.3197  158.6109  135.7458 H   0  0  0  0  0  0  0  0  0  0  0  0
  141.0459  156.5258  134.1436 H   0  0  0  0  0  0  0  0  0  0  0  0
  140.2590  156.6713  135.7657 H   0  0  0  0  0  0  0  0  0  0  0  0
  139.5460  157.5377  131.9425 H   0  0  0  0  0  0  0  0  0  0  0  0
  137.8917  158.2347  131.9794 H   0  0  0  0  0  0  0  0  0  0  0  0
  145.8378  155.7744  133.2569 H   0  0  0  0  0  0  0  0  0  0  0  0
  1  2  1  0
  2  3  2  0
  3  4  1  0
  4  5  2  0
  5  6  1  0
  6  7  2  0
  7  8  1  0
  8  9  1  0
  8 10  2  0
  7 11  1  0
 11 12  1  0
 12 13  2  0
 12 14  1  0
 14 15  1  0
 15 16  1  0
 16 17  1  0
 17 18  2  0
 17 19  1  0
 19 20  1  0
 20 21  1  0
 21 22  2  0
 21 23  1  0
 11 24  1  0
 24 25  2  0
 25  2  1  0
 24  5  1  0
  1 26  1  0
  1 27  1  0
  1 28  1  0
  3 29  1  0
  4 30  1  0
  6 31  1  0
  9 32  1  0
  9 33  1  0
 15 34  1  0
 15 35  1  0
 16 36  1  0
 16 37  1  0
 20 38  1  0
 20 39  1  0
 25 40  1  0
M  CHG  3  14  -1  19  -1  23  -1
M  END
>  <UniqueID>  (35) 
35

>  <SMILES>  (35) 
Cc1ccc2cc(C(N)=O)n(C(=O)[N-]CCC(=O)[N-]CC(=O)[O-])c2c1

>  <Energy>  (35) 
71.12933928150645

>  <Genealogy>  (35) 
Cc1ccc2cc(C(N)=O)n(C(=O)[N-]CCC(=O)[N-]CC(=O)[O-])c2c1 (protonated)
Cc1ccc2cc(C(N)=O)n(C(=O)[N-]CCC(=O)[N-]CC(=O)[O-])c2c1 (3D coordinates assigned)
Cc1ccc2cc(C(N)=O)n(C(=O)[N-]CCC(=O)[N-]CC(=O)[O-])c2c1 (optimized conformer: 71.12933928150645 kcal/mol)

>  <smiles>  (35) 
Cc1ccc2cc(C(N)=O)n(C(=O)NCCC(=O)NCC(=O)O)c2c1

>  <score_type>  (35) 
oracle

>  <origin>  (35) 
adg

>  <m_score__min__energy>  (35) 
-7.1600000000000001

>  <m_primary>  (35) 
energy

$$$$
35:0
     RDKit          3D

 56 57  0  0  0  0  0  0  0  0999 V2000
  142.4180  157.0720  139.9860 C   0  0  0  0  0  0  0  0  0  0  0  0
  141.6480  157.5170  138.8910 O   0  0  0  0  0  0  0  0  0  0  0  0
  141.7650  156.6180  137.8040 C   0  0  0  0  0  0  0  0  0  0  0  0
  141.5670  157.4810  136.1960 P   0  0  1  0  0  0  0  0  0  0  0  0
  141.8480  158.9490  136.4300 O   0  0  0  0  0  0  0  0  0  0  0  0
  142.8070  156.8500  135.0090 C   0  0  0  0  0  0  0  0  0  0  0  0
  143.0080  157.7790  133.8380 C   0  0  0  0  0  0  0  0  0  0  0  0
  142.1340  157.8380  132.9290 O   0  0  0  0  0  0  0  0  0  0  0  0
  144.2120  158.5580  133.7120 N   0  0  0  0  0  0  0  0  0  0  0  0
  144.3350  159.9200  133.6820 C   0  0  0  0  0  0  0  0  0  0  0  0
  143.2390  160.9070  133.7950 C   0  0  0  0  0  0  0  0  0  0  0  0
  141.8950  160.5050  134.0430 N   0  0  0  0  0  0  0  0  0  0  0  0
  143.4980  162.1380  133.6890 O   0  0  0  0  0  0  0  0  0  0  0  0
  145.6730  160.2830  133.5570 C   0  0  0  0  0  0  0  0  0  0  0  0
  146.3720  159.1000  133.4940 C   0  0  0  0  0  0  0  0  0  0  0  0
  147.7340  158.8760  133.3110 C   0  0  0  0  0  0  0  0  0  0  0  0
  148.1740  157.5470  133.1970 C   0  0  0  0  0  0  0  0  0  0  0  0
  147.2490  156.4750  133.2480 C   0  0  0  0  0  0  0  0  0  0  0  0
  147.7400  155.0650  133.0860 C   0  0  0  0  0  0  0  0  0  0  0  0
  145.8740  156.7440  133.4210 C   0  0  0  0  0  0  0  0  0  0  0  0
  145.4670  158.0730  133.5820 C   0  0  0  0  0  0  0  0  0  0  0  0
  139.9930  157.3660  135.5160 O   0  0  0  0  0  0  0  0  0  0  0  0
  139.6860  158.5290  134.7840 C   0  0  0  0  0  0  0  0  0  0  0  0
  138.6150  158.2930  133.8720 O   0  0  0  0  0  0  0  0  0  0  0  0
  138.8230  158.0820  132.4990 C   0  0  0  0  0  0  0  0  0  0  0  0
  139.1100  156.9240  132.0730 O   0  0  0  0  0  0  0  0  0  0  0  0
  138.6450  159.2360  131.5290 C   0  0  0  0  0  0  0  0  0  0  0  0
  137.1630  159.4060  131.1240 C   0  0  0  0  0  0  0  0  0  0  0  0
  139.4810  158.9750  130.2630 C   0  0  0  0  0  0  0  0  0  0  0  0
  139.1350  160.5260  132.2120 C   0  0  0  0  0  0  0  0  0  0  0  0
  141.9211  157.3591  140.9244 H   0  0  0  0  0  0  0  0  0  0  0  0
  142.5172  155.9773  139.9437 H   0  0  0  0  0  0  0  0  0  0  0  0
  143.4160  157.5326  139.9437 H   0  0  0  0  0  0  0  0  0  0  0  0
  142.7575  156.1448  137.8363 H   0  0  0  0  0  0  0  0  0  0  0  0
  140.9695  155.8634  137.8919 H   0  0  0  0  0  0  0  0  0  0  0  0
  143.7669  156.7287  135.5323 H   0  0  0  0  0  0  0  0  0  0  0  0
  142.4374  155.8912  134.6164 H   0  0  0  0  0  0  0  0  0  0  0  0
  141.6660  159.5220  134.3120 H   0  0  0  0  0  0  0  0  0  0  0  0
  146.0850  161.3022  133.5170 H   0  0  0  0  0  0  0  0  0  0  0  0
  148.4439  159.7145  133.2573 H   0  0  0  0  0  0  0  0  0  0  0  0
  149.2458  157.3367  133.0670 H   0  0  0  0  0  0  0  0  0  0  0  0
  147.8967  154.6151  134.0775 H   0  0  0  0  0  0  0  0  0  0  0  0
  146.9933  154.4782  132.5309 H   0  0  0  0  0  0  0  0  0  0  0  0
  148.6897  155.0689  132.5309 H   0  0  0  0  0  0  0  0  0  0  0  0
  145.1383  155.9263  133.4291 H   0  0  0  0  0  0  0  0  0  0  0  0
  139.3939  159.3268  135.4827 H   0  0  0  0  0  0  0  0  0  0  0  0
  140.5758  158.8256  134.2093 H   0  0  0  0  0  0  0  0  0  0  0  0
  136.5415  159.4773  132.0288 H   0  0  0  0  0  0  0  0  0  0  0  0
  137.0488  160.3231  130.5275 H   0  0  0  0  0  0  0  0  0  0  0  0
  136.8441  158.5386  130.5275 H   0  0  0  0  0  0  0  0  0  0  0  0
  140.4943  158.6587  130.5515 H   0  0  0  0  0  0  0  0  0  0  0  0
  139.0054  158.1826  129.6664 H   0  0  0  0  0  0  0  0  0  0  0  0
  139.5407  159.8973  129.6664 H   0  0  0  0  0  0  0  0  0  0  0  0
  139.0883  160.4031  133.3041 H   0  0  0  0  0  0  0  0  0  0  0  0
  140.1730  160.7293  131.9099 H   0  0  0  0  0  0  0  0  0  0  0  0
  138.4937  161.3672  131.9099 H   0  0  0  0  0  0  0  0  0  0  0  0
  1  2  1  0
  2  3  1  0
  3  4  1  0
  4  5  2  0
  4  6  1  0
  6  7  1  0
  7  8  2  0
  7  9  1  0
  9 10  1  0
 10 11  1  0
 11 12  1  0
 11 13  2  0
 10 14  2  0
 14 15  1  0
 15 16  2  0
 16 17  1  0
 17 18  2  0
 18 19  1  0
 18 20  1  0
 20 21  2  0
  4 22  1  6
 22 23  1  0
 23 24  1  0
 24 25  1  0
 25 26  2  0
 25 27  1  0
 27 28  1  0
 27 29  1  0
 27 30  1  0
 21  9  1  0
 21 15  1  0
  1 31  1  0
  1 32  1  0
  1 33  1  0
  3 34  1  0
  3 35  1  0
  6 36  1  0
  6 37  1  0
 12 38  1  0
 14 39  1  0
 16 40  1  0
 17 41  1  0
 19 42  1  0
 19 43  1  0
 19 44  1  0
 20 45  1  0
 23 46  1  0
 23 47  1  0
 28 48  1  0
 28 49  1  0
 28 50  1  0
 29 51  1  0
 29 52  1  0
 29 53  1  0
 30 54  1  0
 30 55  1  0
 30 56  1  0
M  CHG  1  12  -1
M  END
>  <UniqueID>  (36) 
36

>  <SMILES>  (36) 
COC[P@@](=O)(CC(=O)n1c(C([NH-])=O)cc2ccc(C)cc21)OCOC(=O)C(C)(C)C

>  <Energy>  (36) 
85.62913445571564

>  <Genealogy>  (36) 
COCP(=O)(CC(=O)n1c(C([NH-])=O)cc2ccc(C)cc21)OCOC(=O)C(C)(C)C (protonated)
COC[P@@](=O)(CC(=O)n1c(C([NH-])=O)cc2ccc(C)cc21)OCOC(=O)C(C)(C)C (chirality)
COC[P@@](=O)(CC(=O)n1c(C([NH-])=O)cc2ccc(C)cc21)OCOC(=O)C(C)(C)C (3D coordinates assigned)
COC[P@@](=O)(CC(=O)n1c(C([NH-])=O)cc2ccc(C)cc21)OCOC(=O)C(C)(C)C (optimized conformer: 85.62913445571564 kcal/mol)

>  <smiles>  (36) 
COCP(=O)(CC(=O)n1c(C(N)=O)cc2ccc(C)cc21)OCOC(=O)C(C)(C)C

>  <score_type>  (36) 
oracle

>  <origin>  (36) 
adg

>  <m_score__min__energy>  (36) 
-7.6399999999999997

>  <m_primary>  (36) 
energy

$$$$
36:0
     RDKit          3D

 55 56  0  0  0  0  0  0  0  0999 V2000
  142.5000  157.8460  140.0940 C   0  0  0  0  0  0  0  0  0  0  0  0
  141.8670  156.4930  139.9600 C   0  0  0  0  0  0  0  0  0  0  0  0
  141.1560  155.9320  141.0500 C   0  0  0  0  0  0  0  0  0  0  0  0
  140.6050  154.6430  140.9560 C   0  0  0  0  0  0  0  0  0  0  0  0
  140.7850  153.9420  139.7680 C   0  0  0  0  0  0  0  0  0  0  0  0
  140.4040  152.6630  139.4290 C   0  0  0  0  0  0  0  0  0  0  0  0
  140.8850  152.4650  138.1370 C   0  0  0  0  0  0  0  0  0  0  0  0
  140.6470  151.2280  137.3630 C   0  0  0  0  0  0  0  0  0  0  0  0
  140.9850  151.1520  135.9810 N   0  0  0  0  0  0  0  0  0  0  0  0
  140.0960  150.2410  137.9190 O   0  0  0  0  0  0  0  0  0  0  0  0
  141.5400  153.5750  137.6940 N   0  0  0  0  0  0  0  0  0  0  0  0
  142.2870  153.7210  136.4770 C   0  0  0  0  0  0  0  0  0  0  0  0
  143.4590  153.2620  136.3940 O   0  0  0  0  0  0  0  0  0  0  0  0
  141.6950  154.3510  135.3790 O   0  0  0  0  0  0  0  0  0  0  0  0
  142.0990  155.6270  134.8970 C   0  0  0  0  0  0  0  0  0  0  0  0
  143.3470  155.4930  134.2290 O   0  0  0  0  0  0  0  0  0  0  0  0
  144.3380  156.4790  134.2720 C   0  0  0  0  0  0  0  0  0  0  0  0
  144.0370  157.6960  134.1300 O   0  0  0  0  0  0  0  0  0  0  0  0
  145.7610  156.0780  134.5040 C   0  0  0  0  0  0  0  0  0  0  0  0
  146.5190  157.2270  134.6570 F   0  0  0  0  0  0  0  0  0  0  0  0
  145.8850  155.3380  135.6690 F   0  0  0  0  0  0  0  0  0  0  0  0
  146.2790  155.2900  133.3260 C   0  0  0  0  0  0  0  0  0  0  0  0
  146.5970  155.9230  132.2820 O   0  0  0  0  0  0  0  0  0  0  0  0
  146.4290  153.8510  133.3510 N   0  0  0  0  0  0  0  0  0  0  0  0
  147.7150  153.2800  132.9350 C   0  0  0  0  0  0  0  0  0  0  0  0
  145.2980  152.9410  133.5960 C   0  0  0  0  0  0  0  0  0  0  0  0
  144.1290  153.2840  132.6570 C   0  0  0  0  0  0  0  0  0  0  0  0
  142.8960  152.3730  132.8340 C   0  0  1  0  0  0  0  0  0  0  0  0
  142.9190  151.7940  134.1130 O   0  0  0  0  0  0  0  0  0  0  0  0
  141.5620  153.1100  132.6150 C   0  0  0  0  0  0  0  0  0  0  0  0
  140.5830  152.6550  133.5080 O   0  0  0  0  0  0  0  0  0  0  0  0
  141.4700  154.4710  138.7040 C   0  0  0  0  0  0  0  0  0  0  0  0
  142.0440  155.7460  138.7760 C   0  0  0  0  0  0  0  0  0  0  0  0
  142.6155  158.0929  141.1597 H   0  0  0  0  0  0  0  0  0  0  0  0
  143.4879  157.8381  139.6103 H   0  0  0  0  0  0  0  0  0  0  0  0
  141.8609  158.5993  139.6103 H   0  0  0  0  0  0  0  0  0  0  0  0
  141.0345  156.5107  141.9776 H   0  0  0  0  0  0  0  0  0  0  0  0
  140.0484  154.2017  141.7959 H   0  0  0  0  0  0  0  0  0  0  0  0
  139.8397  151.9493  140.0472 H   0  0  0  0  0  0  0  0  0  0  0  0
  141.3760  151.9790  135.4770 H   0  0  0  0  0  0  0  0  0  0  0  0
  141.3444  156.0127  134.1957 H   0  0  0  0  0  0  0  0  0  0  0  0
  142.2000  156.3283  135.7384 H   0  0  0  0  0  0  0  0  0  0  0  0
  148.3051  153.0180  133.8256 H   0  0  0  0  0  0  0  0  0  0  0  0
  147.5375  152.3761  132.3338 H   0  0  0  0  0  0  0  0  0  0  0  0
  148.2665  154.0178  132.3338 H   0  0  0  0  0  0  0  0  0  0  0  0
  145.6189  151.9048  133.4136 H   0  0  0  0  0  0  0  0  0  0  0  0
  144.9662  153.0526  134.6388 H   0  0  0  0  0  0  0  0  0  0  0  0
  143.8227  154.3226  132.8505 H   0  0  0  0  0  0  0  0  0  0  0  0
  144.4911  153.1347  131.6291 H   0  0  0  0  0  0  0  0  0  0  0  0
  142.9565  151.5948  132.0590 H   0  0  0  0  0  0  0  0  0  0  0  0
  142.3580  152.3660  134.6980 H   0  0  0  0  0  0  0  0  0  0  0  0
  141.7171  154.1879  132.7703 H   0  0  0  0  0  0  0  0  0  0  0  0
  141.2180  152.9133  131.5888 H   0  0  0  0  0  0  0  0  0  0  0  0
  140.9980  152.6570  134.4100 H   0  0  0  0  0  0  0  0  0  0  0  0
  142.6181  156.1548  137.9314 H   0  0  0  0  0  0  0  0  0  0  0  0
  1  2  1  0
  2  3  2  0
  3  4  1  0
  4  5  2  0
  5  6  1  0
  6  7  2  0
  7  8  1  0
  8  9  1  0
  8 10  2  0
  7 11  1  0
 11 12  1  0
 12 13  2  0
 12 14  1  0
 14 15  1  0
 15 16  1  0
 16 17  1  0
 17 18  2  0
 17 19  1  0
 19 20  1  0
 19 21  1  0
 19 22  1  0
 22 23  2  0
 22 24  1  0
 24 25  1  0
 24 26  1  0
 26 27  1  0
 27 28  1  0
 28 29  1  0
 28 30  1  0
 30 31  1  0
 11 32  1  0
 32 33  2  0
 33  2  1  0
 32  5  1  0
  1 34  1  0
  1 35  1  0
  1 36  1  0
  3 37  1  0
  4 38  1  0
  6 39  1  0
  9 40  1  0
 15 41  1  0
 15 42  1  0
 25 43  1  0
 25 44  1  0
 25 45  1  0
 26 46  1  0
 26 47  1  0
 27 48  1  0
 27 49  1  0
 28 50  1  6
 29 51  1  0
 30 52  1  0
 30 53  1  0
 31 54  1  0
 33 55  1  0
M  CHG  1   9  -1
M  END
>  <UniqueID>  (37) 
37

>  <SMILES>  (37) 
Cc1ccc2cc(C([NH-])=O)n(C(=O)OCOC(=O)C(F)(F)C(=O)N(C)CC[C@@H](O)CO)c2c1

>  <Energy>  (37) 
79.09655848052296

>  <Genealogy>  (37) 
Cc1ccc2cc(C([NH-])=O)n(C(=O)OCOC(=O)C(F)(F)C(=O)N(C)CC[C@@H](O)CO)c2c1 (protonated)
Cc1ccc2cc(C([NH-])=O)n(C(=O)OCOC(=O)C(F)(F)C(=O)N(C)CC[C@@H](O)CO)c2c1 (3D coordinates assigned)
Cc1ccc2cc(C([NH-])=O)n(C(=O)OCOC(=O)C(F)(F)C(=O)N(C)CC[C@@H](O)CO)c2c1 (optimized conformer: 79.09655848052296 kcal/mol)

>  <smiles>  (37) 
Cc1ccc2cc(C(N)=O)n(C(=O)OCOC(=O)C(F)(F)C(=O)N(C)CC[C@@H](O)CO)c2c1

>  <score_type>  (37) 
oracle

>  <origin>  (37) 
adg

>  <m_score__min__energy>  (37) 
-4.8200000000000003

>  <m_primary>  (37) 
energy

$$$$
37:0
     RDKit          3D

 52 54  0  0  0  0  0  0  0  0999 V2000
  146.9830  152.9070  133.3700 N   0  0  0  0  0  0  0  0  0  0  0  0
  147.8360  154.0540  133.3080 C   0  0  0  0  0  0  0  0  0  0  0  0
  149.0840  153.8810  133.3050 O   0  0  0  0  0  0  0  0  0  0  0  0
  147.2760  155.4250  133.2400 C   0  0  0  0  0  0  0  0  0  0  0  0
  147.8870  156.5080  132.6000 C   0  0  0  0  0  0  0  0  0  0  0  0
  147.0640  157.5870  132.8380 C   0  0  0  0  0  0  0  0  0  0  0  0
  147.1770  158.9100  132.4260 C   0  0  0  0  0  0  0  0  0  0  0  0
  146.1710  159.8110  132.8180 C   0  0  0  0  0  0  0  0  0  0  0  0
  145.0810  159.3800  133.6200 C   0  0  0  0  0  0  0  0  0  0  0  0
  143.9780  160.3390  133.9840 C   0  0  0  0  0  0  0  0  0  0  0  0
  144.4420  161.6440  133.9670 F   0  0  0  0  0  0  0  0  0  0  0  0
  143.5160  160.0420  135.2530 F   0  0  0  0  0  0  0  0  0  0  0  0
  142.9270  160.2420  133.0870 F   0  0  0  0  0  0  0  0  0  0  0  0
  144.9890  158.0170  133.9910 C   0  0  0  0  0  0  0  0  0  0  0  0
  146.0090  157.1490  133.5920 C   0  0  0  0  0  0  0  0  0  0  0  0
  146.1180  155.8270  133.8330 N   0  0  0  0  0  0  0  0  0  0  0  0
  145.2020  155.0330  134.5980 C   0  0  0  0  0  0  0  0  0  0  0  0
  145.6440  154.0570  135.2670 O   0  0  0  0  0  0  0  0  0  0  0  0
  143.7980  155.3570  134.6260 N   0  0  0  0  0  0  0  0  0  0  0  0
  142.9860  155.2480  133.4060 C   0  0  0  0  0  0  0  0  0  0  0  0
  142.0110  156.4260  133.3150 C   0  0  0  0  0  0  0  0  0  0  0  0
  141.3780  156.7220  134.6120 N   0  0  0  0  0  0  0  0  0  0  0  0
  140.6050  157.9370  134.7080 C   0  0  0  0  0  0  0  0  0  0  0  0
  141.1820  159.0590  134.6840 O   0  0  0  0  0  0  0  0  0  0  0  0
  139.1090  157.8890  134.7780 C   0  0  0  0  0  0  0  0  0  0  0  0
  138.6920  158.2330  136.0690 O   0  0  0  0  0  0  0  0  0  0  0  0
  141.6250  155.8140  135.7560 C   0  0  2  0  0  0  0  0  0  0  0  0
  140.9410  156.2590  137.0750 C   0  0  0  0  0  0  0  0  0  0  0  0
  141.6770  157.4050  137.7910 C   0  0  0  0  0  0  0  0  0  0  0  0
  140.9480  158.6000  137.7170 O   0  0  0  0  0  0  0  0  0  0  0  0
  143.1480  155.6310  135.9170 C   0  0  0  0  0  0  0  0  0  0  0  0
  147.4000  151.9490  133.3860 H   0  0  0  0  0  0  0  0  0  0  0  0
  145.9430  152.9910  133.4140 H   0  0  0  0  0  0  0  0  0  0  0  0
  148.8262  156.5000  132.0275 H   0  0  0  0  0  0  0  0  0  0  0  0
  148.0273  159.2418  131.8121 H   0  0  0  0  0  0  0  0  0  0  0  0
  146.2290  160.8623  132.4996 H   0  0  0  0  0  0  0  0  0  0  0  0
  144.1351  157.6499  134.5793 H   0  0  0  0  0  0  0  0  0  0  0  0
  143.6474  155.2545  132.5271 H   0  0  0  0  0  0  0  0  0  0  0  0
  142.4139  154.3090  133.4373 H   0  0  0  0  0  0  0  0  0  0  0  0
  142.5611  157.3166  132.9772 H   0  0  0  0  0  0  0  0  0  0  0  0
  141.2167  156.1545  132.6041 H   0  0  0  0  0  0  0  0  0  0  0  0
  138.6849  158.6001  134.0538 H   0  0  0  0  0  0  0  0  0  0  0  0
  138.7627  156.8726  134.5390 H   0  0  0  0  0  0  0  0  0  0  0  0
  139.2970  158.9600  136.3720 H   0  0  0  0  0  0  0  0  0  0  0  0
  141.1545  154.8458  135.5298 H   0  0  0  0  0  0  0  0  0  0  0  0
  139.9192  156.5932  136.8419 H   0  0  0  0  0  0  0  0  0  0  0  0
  140.9519  155.3933  137.7535 H   0  0  0  0  0  0  0  0  0  0  0  0
  141.8181  157.1357  138.8481 H   0  0  0  0  0  0  0  0  0  0  0  0
  142.6478  157.5580  137.2968 H   0  0  0  0  0  0  0  0  0  0  0  0
  140.6970  158.7240  136.7650 H   0  0  0  0  0  0  0  0  0  0  0  0
  143.5752  156.5502  136.3442 H   0  0  0  0  0  0  0  0  0  0  0  0
  143.3239  154.7718  136.5810 H   0  0  0  0  0  0  0  0  0  0  0  0
  1  2  1  0
  2  3  2  0
  2  4  1  0
  4  5  2  0
  5  6  1  0
  6  7  2  0
  7  8  1  0
  8  9  2  0
  9 10  1  0
 10 11  1  0
 10 12  1  0
 10 13  1  0
  9 14  1  0
 14 15  2  0
 15 16  1  0
 16 17  1  0
 17 18  2  0
 17 19  1  0
 19 20  1  0
 20 21  1  0
 21 22  1  0
 22 23  1  0
 23 24  2  0
 23 25  1  0
 25 26  1  0
 22 27  1  0
 27 28  1  0
 28 29  1  0
 29 30  1  0
 27 31  1  0
 16  4  1  0
 31 19  1  0
 15  6  1  0
  1 32  1  0
  1 33  1  0
  5 34  1  0
  7 35  1  0
  8 36  1  0
 14 37  1  0
 20 38  1  0
 20 39  1  0
 21 40  1  0
 21 41  1  0
 25 42  1  0
 25 43  1  0
 26 44  1  0
 27 45  1  6
 28 46  1  0
 28 47  1  0
 29 48  1  0
 29 49  1  0
 30 50  1  0
 31 51  1  0
 31 52  1  0
M  END
>  <UniqueID>  (38) 
38

>  <SMILES>  (38) 
NC(=O)c1cc2ccc(C(F)(F)F)cc2n1C(=O)N1CCN(C(=O)CO)[C@H](CCO)C1

>  <Energy>  (38) 
97.19774742876261

>  <Genealogy>  (38) 
NC(=O)c1cc2ccc(C(F)(F)F)cc2n1C(=O)N1CCN(C(=O)CO)[C@H](CCO)C1 (3D coordinates assigned)
NC(=O)c1cc2ccc(C(F)(F)F)cc2n1C(=O)N1CCN(C(=O)CO)[C@H](CCO)C1 (nonaromatic ring conformer: 97.19774742876261 kcal/mol)

>  <smiles>  (38) 
NC(=O)c1cc2ccc(C(F)(F)F)cc2n1C(=O)N1CCN(C(=O)CO)[C@H](CCO)C1

>  <score_type>  (38) 
oracle

>  <origin>  (38) 
adg

>  <m_score__min__energy>  (38) 
-6.9900000000000002

>  <m_primary>  (38) 
energy

$$$$
38:0
     RDKit          3D

 45 48  0  0  0  0  0  0  0  0999 V2000
  138.3970  148.9940  130.7470 C   0  0  0  0  0  0  0  0  0  0  0  0
  138.8940  149.9650  131.6590 O   0  0  0  0  0  0  0  0  0  0  0  0
  140.2500  150.0800  131.9780 C   0  0  0  0  0  0  0  0  0  0  0  0
  140.7640  151.3240  132.3560 C   0  0  0  0  0  0  0  0  0  0  0  0
  142.1270  151.4480  132.6780 C   0  0  0  0  0  0  0  0  0  0  0  0
  142.7120  152.7440  133.0890 C   0  0  0  0  0  0  0  0  0  0  0  0
  142.1300  153.9980  132.9860 C   0  0  0  0  0  0  0  0  0  0  0  0
  143.0440  154.8860  133.5140 C   0  0  0  0  0  0  0  0  0  0  0  0
  144.1250  154.1220  133.9050 C   0  0  0  0  0  0  0  0  0  0  0  0
  145.3580  154.6190  134.5370 C   0  0  0  0  0  0  0  0  0  0  0  0
  145.6350  154.2780  135.7190 O   0  0  0  0  0  0  0  0  0  0  0  0
  146.2390  155.5010  133.8240 N   0  0  0  0  0  0  0  0  0  0  0  0
  147.3930  155.1720  133.1800 C   0  0  0  0  0  0  0  0  0  0  0  0
  148.0190  153.8290  133.1780 C   0  0  0  0  0  0  0  0  0  0  0  0
  147.2430  152.6570  133.4300 N   0  0  0  0  0  0  0  0  0  0  0  0
  149.2490  153.7060  132.9340 O   0  0  0  0  0  0  0  0  0  0  0  0
  147.9520  156.2990  132.5770 C   0  0  0  0  0  0  0  0  0  0  0  0
  147.0940  157.3340  132.8730 C   0  0  0  0  0  0  0  0  0  0  0  0
  147.1530  158.6770  132.5120 C   0  0  0  0  0  0  0  0  0  0  0  0
  146.1120  159.5200  132.9370 C   0  0  0  0  0  0  0  0  0  0  0  0
  145.0390  159.0130  133.7150 C   0  0  0  0  0  0  0  0  0  0  0  0
  143.8990  159.9120  134.1230 C   0  0  0  0  0  0  0  0  0  0  0  0
  143.2140  159.3290  135.1720 F   0  0  0  0  0  0  0  0  0  0  0  0
  144.3760  161.1460  134.5260 F   0  0  0  0  0  0  0  0  0  0  0  0
  143.0270  160.1080  133.0660 F   0  0  0  0  0  0  0  0  0  0  0  0
  145.0010  157.6350  134.0320 C   0  0  0  0  0  0  0  0  0  0  0  0
  146.0650  156.8260  133.6200 C   0  0  0  0  0  0  0  0  0  0  0  0
  143.9030  152.8570  133.6350 O   0  0  0  0  0  0  0  0  0  0  0  0
  142.9440  150.3090  132.6100 C   0  0  0  0  0  0  0  0  0  0  0  0
  142.3950  149.0840  132.2280 C   0  0  0  0  0  0  0  0  0  0  0  0
  141.0740  148.9950  131.9230 N   0  0  0  0  0  0  0  0  0  0  0  0
  137.9657  148.1514  131.3074 H   0  0  0  0  0  0  0  0  0  0  0  0
  137.6209  149.4489  130.1140 H   0  0  0  0  0  0  0  0  0  0  0  0
  139.2199  148.6305  130.1140 H   0  0  0  0  0  0  0  0  0  0  0  0
  140.1042  152.2030  132.4014 H   0  0  0  0  0  0  0  0  0  0  0  0
  141.1407  154.2364  132.5682 H   0  0  0  0  0  0  0  0  0  0  0  0
  142.9342  155.9767  133.6047 H   0  0  0  0  0  0  0  0  0  0  0  0
  146.2360  152.7170  133.7010 H   0  0  0  0  0  0  0  0  0  0  0  0
  147.6900  151.7150  133.3880 H   0  0  0  0  0  0  0  0  0  0  0  0
  148.8808  156.3498  131.9899 H   0  0  0  0  0  0  0  0  0  0  0  0
  147.9889  159.0666  131.9124 H   0  0  0  0  0  0  0  0  0  0  0  0
  146.1291  160.5853  132.6634 H   0  0  0  0  0  0  0  0  0  0  0  0
  144.1539  157.2093  134.5899 H   0  0  0  0  0  0  0  0  0  0  0  0
  144.0135  150.3815  132.8569 H   0  0  0  0  0  0  0  0  0  0  0  0
  143.0327  148.1893  132.1738 H   0  0  0  0  0  0  0  0  0  0  0  0
  1  2  1  0
  2  3  1  0
  3  4  2  0
  4  5  1  0
  5  6  1  0
  6  7  2  0
  7  8  1  0
  8  9  2  0
  9 10  1  0
 10 11  2  0
 10 12  1  0
 12 13  1  0
 13 14  1  0
 14 15  1  0
 14 16  2  0
 13 17  2  0
 17 18  1  0
 18 19  2  0
 19 20  1  0
 20 21  2  0
 21 22  1  0
 22 23  1  0
 22 24  1  0
 22 25  1  0
 21 26  1  0
 26 27  2  0
  9 28  1  0
  5 29  2  0
 29 30  1  0
 30 31  2  0
 31  3  1  0
 28  6  1  0
 27 12  1  0
 27 18  1  0
  1 32  1  0
  1 33  1  0
  1 34  1  0
  4 35  1  0
  7 36  1  0
  8 37  1  0
 15 38  1  0
 15 39  1  0
 17 40  1  0
 19 41  1  0
 20 42  1  0
 26 43  1  0
 29 44  1  0
 30 45  1  0
M  END
>  <UniqueID>  (39) 
39

>  <SMILES>  (39) 
COc1cc(-c2ccc(C(=O)n3c(C(N)=O)cc4ccc(C(F)(F)F)cc43)o2)ccn1

>  <Energy>  (39) 
113.57192934104299

>  <Genealogy>  (39) 
COc1cc(-c2ccc(C(=O)n3c(C(N)=O)cc4ccc(C(F)(F)F)cc43)o2)ccn1 (3D coordinates assigned)
COc1cc(-c2ccc(C(=O)n3c(C(N)=O)cc4ccc(C(F)(F)F)cc43)o2)ccn1 (optimized conformer: 113.57192934104299 kcal/mol)

>  <smiles>  (39) 
COc1cc(-c2ccc(C(=O)n3c(C(N)=O)cc4ccc(C(F)(F)F)cc43)o2)ccn1

>  <score_type>  (39) 
oracle

>  <origin>  (39) 
adg

>  <m_score__min__energy>  (39) 
-8.7799999999999994

>  <m_primary>  (39) 
energy

$$$$
39:0
     RDKit          3D

 37 39  0  0  0  0  0  0  0  0999 V2000
  142.5680  160.6920  133.3570 N   0  0  0  0  0  0  0  0  0  0  0  0
  143.9340  160.9310  133.6880 C   0  0  0  0  0  0  0  0  0  0  0  0
  144.2830  162.0750  134.0810 O   0  0  0  0  0  0  0  0  0  0  0  0
  144.9280  159.8500  133.5270 C   0  0  0  0  0  0  0  0  0  0  0  0
  146.3040  160.0680  133.5020 C   0  0  0  0  0  0  0  0  0  0  0  0
  146.8710  158.8170  133.4220 C   0  0  0  0  0  0  0  0  0  0  0  0
  148.2100  158.4430  133.3660 C   0  0  0  0  0  0  0  0  0  0  0  0
  148.5070  157.0740  133.2640 C   0  0  0  0  0  0  0  0  0  0  0  0
  147.4700  156.1090  133.1950 C   0  0  0  0  0  0  0  0  0  0  0  0
  147.8030  154.6400  133.1230 C   0  0  0  0  0  0  0  0  0  0  0  0
  148.8980  154.4270  132.3040 F   0  0  0  0  0  0  0  0  0  0  0  0
  148.1000  154.1440  134.3810 F   0  0  0  0  0  0  0  0  0  0  0  0
  146.7180  153.9520  132.6120 F   0  0  0  0  0  0  0  0  0  0  0  0
  146.1220  156.5280  133.2790 C   0  0  0  0  0  0  0  0  0  0  0  0
  145.8550  157.8980  133.3990 C   0  0  0  0  0  0  0  0  0  0  0  0
  144.6560  158.5160  133.4620 N   0  0  0  0  0  0  0  0  0  0  0  0
  143.3670  157.8860  133.3840 C   0  0  0  0  0  0  0  0  0  0  0  0
  142.7640  157.8240  132.2780 O   0  0  0  0  0  0  0  0  0  0  0  0
  142.7800  157.3640  134.5420 O   0  0  0  0  0  0  0  0  0  0  0  0
  142.4050  158.1630  135.6630 C   0  0  0  0  0  0  0  0  0  0  0  0
  141.0760  158.8850  135.4010 C   0  0  2  0  0  0  0  0  0  0  0  0
  139.9010  158.2960  136.2380 C   0  0  0  0  0  0  0  0  0  0  0  0
  138.9290  157.8780  135.2860 O   0  0  0  0  0  0  0  0  0  0  0  0
  139.3960  158.1210  134.0160 C   0  0  0  0  0  0  0  0  0  0  0  0
  138.7490  157.8540  132.9710 O   0  0  0  0  0  0  0  0  0  0  0  0
  140.6750  158.7080  134.0120 N   0  0  0  0  0  0  0  0  0  0  0  0
  142.3010  159.9330  132.6900 H   0  0  0  0  0  0  0  0  0  0  0  0
  146.8263  161.0354  133.5385 H   0  0  0  0  0  0  0  0  0  0  0  0
  149.0111  159.1960  133.4005 H   0  0  0  0  0  0  0  0  0  0  0  0
  149.5567  156.7463  133.2373 H   0  0  0  0  0  0  0  0  0  0  0  0
  145.3021  155.7952  133.2508 H   0  0  0  0  0  0  0  0  0  0  0  0
  142.2954  157.5160  136.5458 H   0  0  0  0  0  0  0  0  0  0  0  0
  143.1870  158.9174  135.8342 H   0  0  0  0  0  0  0  0  0  0  0  0
  141.2535  159.9373  135.6677 H   0  0  0  0  0  0  0  0  0  0  0  0
  140.2463  157.4399  136.8363 H   0  0  0  0  0  0  0  0  0  0  0  0
  139.4912  159.0346  136.9427 H   0  0  0  0  0  0  0  0  0  0  0  0
  141.2080  159.0190  133.1690 H   0  0  0  0  0  0  0  0  0  0  0  0
  1  2  1  0
  2  3  2  0
  2  4  1  0
  4  5  2  0
  5  6  1  0
  6  7  2  0
  7  8  1  0
  8  9  2  0
  9 10  1  0
 10 11  1  0
 10 12  1  0
 10 13  1  0
  9 14  1  0
 14 15  2  0
 15 16  1  0
 16 17  1  0
 17 18  2  0
 17 19  1  0
 19 20  1  0
 20 21  1  0
 21 22  1  0
 22 23  1  0
 23 24  1  0
 24 25  2  0
 24 26  1  0
 16  4  1  0
 26 21  1  0
 15  6  1  0
  1 27  1  0
  5 28  1  0
  7 29  1  0
  8 30  1  0
 14 31  1  0
 20 32  1  0
 20 33  1  0
 21 34  1  1
 22 35  1  0
 22 36  1  0
 26 37  1  0
M  CHG  1   1  -1
M  END
>  <UniqueID>  (40) 
40

>  <SMILES>  (40) 
[NH-]C(=O)c1cc2ccc(C(F)(F)F)cc2n1C(=O)OC[C@@H]1COC(=O)N1

>  <Energy>  (40) 
89.51458019680757

>  <Genealogy>  (40) 
[NH-]C(=O)c1cc2ccc(C(F)(F)F)cc2n1C(=O)OC[C@@H]1COC(=O)N1 (protonated)
[NH-]C(=O)c1cc2ccc(C(F)(F)F)cc2n1C(=O)OC[C@@H]1COC(=O)N1 (3D coordinates assigned)
[NH-]C(=O)c1cc2ccc(C(F)(F)F)cc2n1C(=O)OC[C@@H]1COC(=O)N1 (nonaromatic ring conformer: 89.51458019680757 kcal/mol)

>  <smiles>  (40) 
NC(=O)c1cc2ccc(C(F)(F)F)cc2n1C(=O)OC[C@@H]1COC(=O)N1

>  <score_type>  (40) 
oracle

>  <origin>  (40) 
adg

>  <m_score__min__energy>  (40) 
-6.6699999999999999

>  <m_primary>  (40) 
energy

$$$$
40:0
     RDKit          3D

 36 38  0  0  0  0  0  0  0  0999 V2000
  138.8900  148.6610  131.1000 C   0  0  0  0  0  0  0  0  0  0  0  0
  139.7980  149.4220  132.0040 C   0  0  0  0  0  0  0  0  0  0  0  0
  140.2650  148.9370  133.1710 N   0  0  0  0  0  0  0  0  0  0  0  0
  140.9610  149.9090  133.6770 O   0  0  0  0  0  0  0  0  0  0  0  0
  140.9220  150.9470  132.8770 C   0  0  0  0  0  0  0  0  0  0  0  0
  141.6040  152.2280  133.1450 C   0  0  0  0  0  0  0  0  0  0  0  0
  142.9870  152.2540  133.4580 C   0  0  0  0  0  0  0  0  0  0  0  0
  143.6440  153.4720  133.7000 C   0  0  0  0  0  0  0  0  0  0  0  0
  142.8960  154.6420  133.6340 C   0  0  0  0  0  0  0  0  0  0  0  0
  143.2890  155.9510  133.7900 C   0  0  0  0  0  0  0  0  0  0  0  0
  142.1350  156.7060  133.6010 C   0  0  0  0  0  0  0  0  0  0  0  0
  142.0950  158.1760  133.7390 C   0  0  0  0  0  0  0  0  0  0  0  0
  141.7260  159.0140  132.6440 N   0  0  0  0  0  0  0  0  0  0  0  0
  142.3390  158.6980  134.8600 O   0  0  0  0  0  0  0  0  0  0  0  0
  141.0710  155.9010  133.3260 N   0  0  0  0  0  0  0  0  0  0  0  0
  139.7450  156.3130  132.9540 C   0  0  0  0  0  0  0  0  0  0  0  0
  138.7500  155.6020  133.2670 O   0  0  0  0  0  0  0  0  0  0  0  0
  139.5620  157.5040  132.2460 O   0  0  0  0  0  0  0  0  0  0  0  0
  138.4570  158.3720  132.4710 C   0  0  0  0  0  0  0  0  0  0  0  0
  138.6640  159.6360  131.7070 C   0  0  0  0  0  0  0  0  0  0  0  0
  139.8120  160.1470  131.6320 O   0  0  0  0  0  0  0  0  0  0  0  0
  137.6030  160.2230  131.0320 O   0  0  0  0  0  0  0  0  0  0  0  0
  141.5530  154.6370  133.3510 C   0  0  0  0  0  0  0  0  0  0  0  0
  140.8770  153.4390  133.0840 C   0  0  0  0  0  0  0  0  0  0  0  0
  140.1790  150.6960  131.7800 N   0  0  0  0  0  0  0  0  0  0  0  0
  138.1844  148.0697  131.7021 H   0  0  0  0  0  0  0  0  0  0  0  0
  138.3308  149.3642  130.4653 H   0  0  0  0  0  0  0  0  0  0  0  0
  139.4846  147.9874  130.4653 H   0  0  0  0  0  0  0  0  0  0  0  0
  143.5509  151.3111  133.5118 H   0  0  0  0  0  0  0  0  0  0  0  0
  144.7183  153.4991  133.9347 H   0  0  0  0  0  0  0  0  0  0  0  0
  144.2996  156.3220  134.0159 H   0  0  0  0  0  0  0  0  0  0  0  0
  141.3590  158.6080  131.7540 H   0  0  0  0  0  0  0  0  0  0  0  0
  141.7460  160.0520  132.7480 H   0  0  0  0  0  0  0  0  0  0  0  0
  137.5310  157.8845  132.1321 H   0  0  0  0  0  0  0  0  0  0  0  0
  138.3764  158.5976  133.5446 H   0  0  0  0  0  0  0  0  0  0  0  0
  139.8060  153.4407  132.8329 H   0  0  0  0  0  0  0  0  0  0  0  0
  1  2  1  0
  2  3  2  0
  3  4  1  0
  4  5  1  0
  5  6  1  0
  6  7  2  0
  7  8  1  0
  8  9  2  0
  9 10  1  0
 10 11  2  0
 11 12  1  0
 12 13  1  0
 12 14  2  0
 11 15  1  0
 15 16  1  0
 16 17  2  0
 16 18  1  0
 18 19  1  0
 19 20  1  0
 20 21  2  0
 20 22  1  0
 15 23  1  0
 23 24  2  0
  5 25  2  0
 25  2  1  0
 24  6  1  0
 23  9  1  0
  1 26  1  0
  1 27  1  0
  1 28  1  0
  7 29  1  0
  8 30  1  0
 10 31  1  0
 13 32  1  0
 13 33  1  0
 19 34  1  0
 19 35  1  0
 24 36  1  0
M  CHG  1  22  -1
M  END
>  <UniqueID>  (41) 
41

>  <SMILES>  (41) 
Cc1noc(-c2ccc3cc(C(N)=O)n(C(=O)OCC(=O)[O-])c3c2)n1

>  <Energy>  (41) 
105.89794955388766

>  <Genealogy>  (41) 
Cc1noc(-c2ccc3cc(C(N)=O)n(C(=O)OCC(=O)[O-])c3c2)n1 (protonated)
Cc1noc(-c2ccc3cc(C(N)=O)n(C(=O)OCC(=O)[O-])c3c2)n1 (3D coordinates assigned)
Cc1noc(-c2ccc3cc(C(N)=O)n(C(=O)OCC(=O)[O-])c3c2)n1 (optimized conformer: 105.89794955388766 kcal/mol)

>  <smiles>  (41) 
Cc1noc(-c2ccc3cc(C(N)=O)n(C(=O)OCC(=O)O)c3c2)n1

>  <score_type>  (41) 
oracle

>  <origin>  (41) 
adg

>  <m_score__min__energy>  (41) 
-7.1399999999999997

>  <m_primary>  (41) 
energy

$$$$
41:0
     RDKit          3D

 50 51  0  0  0  0  0  0  0  0999 V2000
  139.8640  160.1310  132.2140 C   0  0  0  0  0  0  0  0  0  0  0  0
  138.7100  159.2240  132.3400 N   0  0  0  0  0  0  0  0  0  0  0  0
  137.9010  159.2920  131.1110 C   0  0  0  0  0  0  0  0  0  0  0  0
  139.1670  157.8420  132.6010 C   0  0  0  0  0  0  0  0  0  0  0  0
  139.1210  157.5110  134.0980 C   0  0  0  0  0  0  0  0  0  0  0  0
  139.7590  158.5720  134.8720 N   0  0  0  0  0  0  0  0  0  0  0  0
  141.1120  158.5040  135.3380 C   0  0  0  0  0  0  0  0  0  0  0  0
  141.5190  159.2830  136.2420 O   0  0  0  0  0  0  0  0  0  0  0  0
  142.0660  157.5520  134.6950 C   0  0  0  0  0  0  0  0  0  0  0  0
  143.2850  158.3070  134.2450 C   0  0  0  0  0  0  0  0  0  0  0  0
  143.1840  159.6810  133.9080 C   0  0  0  0  0  0  0  0  0  0  0  0
  144.2990  160.3810  133.4180 C   0  0  0  0  0  0  0  0  0  0  0  0
  145.4920  159.6800  133.2600 C   0  0  0  0  0  0  0  0  0  0  0  0
  146.7160  160.1080  132.8010 C   0  0  0  0  0  0  0  0  0  0  0  0
  147.5380  158.9850  132.8350 C   0  0  0  0  0  0  0  0  0  0  0  0
  148.9270  158.9750  132.3320 C   0  0  0  0  0  0  0  0  0  0  0  0
  149.5240  157.7470  131.9250 N   0  0  0  0  0  0  0  0  0  0  0  0
  149.6060  160.0340  132.2900 O   0  0  0  0  0  0  0  0  0  0  0  0
  146.8490  157.9040  133.3040 N   0  0  0  0  0  0  0  0  0  0  0  0
  147.3510  156.5810  133.5510 C   0  0  0  0  0  0  0  0  0  0  0  0
  147.4890  155.7720  132.5930 O   0  0  0  0  0  0  0  0  0  0  0  0
  147.6570  156.1730  134.8880 N   0  0  0  0  0  0  0  0  0  0  0  0
  147.2900  154.8760  135.4450 C   0  0  0  0  0  0  0  0  0  0  0  0
  148.1250  154.5740  136.6920 C   0  0  0  0  0  0  0  0  0  0  0  0
  147.3550  153.7070  137.6380 C   0  0  0  0  0  0  0  0  0  0  0  0
  147.3090  153.9910  138.8640 O   0  0  0  0  0  0  0  0  0  0  0  0
  146.6380  152.6200  137.1550 O   0  0  0  0  0  0  0  0  0  0  0  0
  145.5990  158.3470  133.5570 C   0  0  0  0  0  0  0  0  0  0  0  0
  144.5110  157.6280  134.0660 C   0  0  0  0  0  0  0  0  0  0  0  0
  140.2210  160.4116  133.2159 H   0  0  0  0  0  0  0  0  0  0  0  0
  140.6714  159.6232  131.6660 H   0  0  0  0  0  0  0  0  0  0  0  0
  139.5614  161.0355  131.6660 H   0  0  0  0  0  0  0  0  0  0  0  0
  136.8373  159.3814  131.3767 H   0  0  0  0  0  0  0  0  0  0  0  0
  138.2060  160.1677  130.5192 H   0  0  0  0  0  0  0  0  0  0  0  0
  138.0555  158.3777  130.5192 H   0  0  0  0  0  0  0  0  0  0  0  0
  138.5150  157.1410  132.0592 H   0  0  0  0  0  0  0  0  0  0  0  0
  140.2082  157.7509  132.2580 H   0  0  0  0  0  0  0  0  0  0  0  0
  138.0725  157.4108  134.4153 H   0  0  0  0  0  0  0  0  0  0  0  0
  139.6596  156.5679  134.2724 H   0  0  0  0  0  0  0  0  0  0  0  0
  142.3587  156.7779  135.4197 H   0  0  0  0  0  0  0  0  0  0  0  0
  141.5853  157.0737  133.8289 H   0  0  0  0  0  0  0  0  0  0  0  0
  142.2238  160.2033  134.0315 H   0  0  0  0  0  0  0  0  0  0  0  0
  144.2319  161.4498  133.1668 H   0  0  0  0  0  0  0  0  0  0  0  0
  146.9879  161.1231  132.4758 H   0  0  0  0  0  0  0  0  0  0  0  0
  148.9460  156.9810  131.5090 H   0  0  0  0  0  0  0  0  0  0  0  0
  146.2241  154.8869  135.7167 H   0  0  0  0  0  0  0  0  0  0  0  0
  147.4806  154.0977  134.6914 H   0  0  0  0  0  0  0  0  0  0  0  0
  149.0475  154.0545  136.3934 H   0  0  0  0  0  0  0  0  0  0  0  0
  148.3704  155.5209  137.1951 H   0  0  0  0  0  0  0  0  0  0  0  0
  144.6081  156.5621  134.3200 H   0  0  0  0  0  0  0  0  0  0  0  0
  1  2  1  0
  2  3  1  0
  2  4  1  0
  4  5  1  0
  5  6  1  0
  6  7  1  0
  7  8  2  0
  7  9  1  0
  9 10  1  0
 10 11  2  0
 11 12  1  0
 12 13  2  0
 13 14  1  0
 14 15  2  0
 15 16  1  0
 16 17  1  0
 16 18  2  0
 15 19  1  0
 19 20  1  0
 20 21  2  0
 20 22  1  0
 22 23  1  0
 23 24  1  0
 24 25  1  0
 25 26  2  0
 25 27  1  0
 19 28  1  0
 28 29  2  0
 29 10  1  0
 28 13  1  0
  1 30  1  0
  1 31  1  0
  1 32  1  0
  3 33  1  0
  3 34  1  0
  3 35  1  0
  4 36  1  0
  4 37  1  0
  5 38  1  0
  5 39  1  0
  9 40  1  0
  9 41  1  0
 11 42  1  0
 12 43  1  0
 14 44  1  0
 17 45  1  0
 23 46  1  0
 23 47  1  0
 24 48  1  0
 24 49  1  0
 29 50  1  0
M  CHG  4   6  -1  17  -1  22  -1  27  -1
M  END
>  <UniqueID>  (42) 
42

>  <SMILES>  (42) 
CN(C)CC[N-]C(=O)Cc1ccc2cc(C([NH-])=O)n(C(=O)[N-]CCC(=O)[O-])c2c1

>  <Energy>  (42) 
76.34946315179448

>  <Genealogy>  (42) 
CN(C)CC[N-]C(=O)Cc1ccc2cc(C([NH-])=O)n(C(=O)[N-]CCC(=O)[O-])c2c1 (protonated)
CN(C)CC[N-]C(=O)Cc1ccc2cc(C([NH-])=O)n(C(=O)[N-]CCC(=O)[O-])c2c1 (3D coordinates assigned)
CN(C)CC[N-]C(=O)Cc1ccc2cc(C([NH-])=O)n(C(=O)[N-]CCC(=O)[O-])c2c1 (optimized conformer: 76.34946315179448 kcal/mol)

>  <smiles>  (42) 
CN(C)CCNC(=O)Cc1ccc2cc(C(N)=O)n(C(=O)NCCC(=O)O)c2c1

>  <score_type>  (42) 
oracle

>  <origin>  (42) 
adg

>  <m_score__min__energy>  (42) 
-8.1500000000000004

>  <m_primary>  (42) 
energy

$$$$
42:0
     RDKit          3D

 38 39  0  0  0  0  0  0  0  0999 V2000
  140.1730  149.9630  132.6120 C   0  0  0  0  0  0  0  0  0  0  0  0
  141.2240  151.0180  132.7900 C   0  0  0  0  0  0  0  0  0  0  0  0
  142.5930  150.6560  132.8200 C   0  0  0  0  0  0  0  0  0  0  0  0
  143.5890  151.6370  132.9600 C   0  0  0  0  0  0  0  0  0  0  0  0
  143.1880  152.9670  133.0470 C   0  0  0  0  0  0  0  0  0  0  0  0
  143.9380  154.1110  133.2070 C   0  0  0  0  0  0  0  0  0  0  0  0
  143.0160  155.1560  133.2380 C   0  0  0  0  0  0  0  0  0  0  0  0
  143.3970  156.5810  133.3280 C   0  0  0  0  0  0  0  0  0  0  0  0
  143.1300  157.4580  132.2360 N   0  0  0  0  0  0  0  0  0  0  0  0
  143.9330  157.0410  134.3710 O   0  0  0  0  0  0  0  0  0  0  0  0
  141.7460  154.6760  133.1040 N   0  0  0  0  0  0  0  0  0  0  0  0
  140.5210  155.4250  133.1360 C   0  0  0  0  0  0  0  0  0  0  0  0
  139.4900  154.9060  133.6400 O   0  0  0  0  0  0  0  0  0  0  0  0
  140.4810  156.7620  132.6120 N   0  0  0  0  0  0  0  0  0  0  0  0
  139.3270  157.6640  132.7250 C   0  0  1  0  0  0  0  0  0  0  0  0
  139.1100  158.1510  134.1740 C   0  0  0  0  0  0  0  0  0  0  0  0
  140.2780  158.9890  134.7030 C   0  0  0  0  0  0  0  0  0  0  0  0
  141.4950  158.4710  134.2440 O   0  0  0  0  0  0  0  0  0  0  0  0
  139.4670  158.8120  131.7590 C   0  0  0  0  0  0  0  0  0  0  0  0
  140.6120  159.1650  131.3710 O   0  0  0  0  0  0  0  0  0  0  0  0
  138.3530  159.5260  131.3300 O   0  0  0  0  0  0  0  0  0  0  0  0
  141.8690  153.3360  132.9890 C   0  0  0  0  0  0  0  0  0  0  0  0
  140.8550  152.3790  132.8680 C   0  0  0  0  0  0  0  0  0  0  0  0
  139.8292  149.6179  133.5982 H   0  0  0  0  0  0  0  0  0  0  0  0
  139.3232  150.3825  132.0536 H   0  0  0  0  0  0  0  0  0  0  0  0
  140.5958  149.1148  132.0536 H   0  0  0  0  0  0  0  0  0  0  0  0
  142.8790  149.5974  132.7329 H   0  0  0  0  0  0  0  0  0  0  0  0
  144.6534  151.3623  132.9997 H   0  0  0  0  0  0  0  0  0  0  0  0
  145.0322  154.1844  133.2922 H   0  0  0  0  0  0  0  0  0  0  0  0
  142.3570  158.1590  132.2870 H   0  0  0  0  0  0  0  0  0  0  0  0
  141.3630  157.1590  132.2160 H   0  0  0  0  0  0  0  0  0  0  0  0
  138.4238  157.0970  132.4551 H   0  0  0  0  0  0  0  0  0  0  0  0
  138.1965  158.7630  134.2054 H   0  0  0  0  0  0  0  0  0  0  0  0
  139.0278  157.2593  134.8129 H   0  0  0  0  0  0  0  0  0  0  0  0
  140.1693  160.0256  134.3515 H   0  0  0  0  0  0  0  0  0  0  0  0
  140.2692  158.9609  135.8026 H   0  0  0  0  0  0  0  0  0  0  0  0
  141.4850  158.5780  133.2580 H   0  0  0  0  0  0  0  0  0  0  0  0
  139.7973  152.6793  132.8345 H   0  0  0  0  0  0  0  0  0  0  0  0
  1  2  1  0
  2  3  2  0
  3  4  1  0
  4  5  2  0
  5  6  1  0
  6  7  2  0
  7  8  1  0
  8  9  1  0
  8 10  2  0
  7 11  1  0
 11 12  1  0
 12 13  2  0
 12 14  1  0
 14 15  1  0
 15 16  1  0
 16 17  1  0
 17 18  1  0
 15 19  1  0
 19 20  2  0
 19 21  1  0
 11 22  1  0
 22 23  2  0
 23  2  1  0
 22  5  1  0
  1 24  1  0
  1 25  1  0
  1 26  1  0
  3 27  1  0
  4 28  1  0
  6 29  1  0
  9 30  1  0
 14 31  1  0
 15 32  1  6
 16 33  1  0
 16 34  1  0
 17 35  1  0
 17 36  1  0
 18 37  1  0
 23 38  1  0
M  CHG  2   9  -1  21  -1
M  END
>  <UniqueID>  (43) 
43

>  <SMILES>  (43) 
Cc1ccc2cc(C([NH-])=O)n(C(=O)N[C@@H](CCO)C(=O)[O-])c2c1

>  <Energy>  (43) 
71.84338635106157

>  <Genealogy>  (43) 
Cc1ccc2cc(C([NH-])=O)n(C(=O)NC(CCO)C(=O)[O-])c2c1 (protonated)
Cc1ccc2cc(C([NH-])=O)n(C(=O)N[C@@H](CCO)C(=O)[O-])c2c1 (chirality)
Cc1ccc2cc(C([NH-])=O)n(C(=O)N[C@@H](CCO)C(=O)[O-])c2c1 (3D coordinates assigned)
Cc1ccc2cc(C([NH-])=O)n(C(=O)N[C@@H](CCO)C(=O)[O-])c2c1 (optimized conformer: 71.84338635106157 kcal/mol)

>  <smiles>  (43) 
Cc1ccc2cc(C(N)=O)n(C(=O)NC(CC[O-])C(=O)O)c2c1

>  <score_type>  (43) 
oracle

>  <origin>  (43) 
adg

>  <m_score__min__energy>  (43) 
-5.8899999999999997

>  <m_primary>  (43) 
energy

$$$$
43:0
     RDKit          3D

 51 53  0  0  0  0  0  0  0  0999 V2000
  146.7070  157.8720  132.8850 C   0  0  0  0  0  0  0  0  0  0  0  0
  148.0560  157.2020  133.2290 C   0  0  0  0  0  0  0  0  0  0  0  0
  148.4540  157.5540  134.6740 C   0  0  0  0  0  0  0  0  0  0  0  0
  149.0720  157.7410  132.3140 N   0  0  0  0  0  0  0  0  0  0  0  0
  147.9680  155.6870  133.0850 C   0  0  0  0  0  0  0  0  0  0  0  0
  148.9060  155.0550  132.5290 O   0  0  0  0  0  0  0  0  0  0  0  0
  146.8410  154.9510  133.5800 N   0  0  0  0  0  0  0  0  0  0  0  0
  145.9660  154.2620  132.6290 C   0  0  0  0  0  0  0  0  0  0  0  0
  144.5080  154.4100  133.0750 C   0  0  0  0  0  0  0  0  0  0  0  0
  144.3550  154.1930  134.5240 N   0  0  0  0  0  0  0  0  0  0  0  0
  143.0510  154.3390  135.1220 C   0  0  0  0  0  0  0  0  0  0  0  0
  142.8810  154.1320  136.3550 O   0  0  0  0  0  0  0  0  0  0  0  0
  141.9330  154.7550  134.3280 N   0  0  0  0  0  0  0  0  0  0  0  0
  141.0110  153.9700  133.7110 C   0  0  0  0  0  0  0  0  0  0  0  0
  140.9860  152.4910  133.7290 C   0  0  0  0  0  0  0  0  0  0  0  0
  141.3860  151.7660  134.8900 N   0  0  0  0  0  0  0  0  0  0  0  0
  140.6160  151.8580  132.7050 O   0  0  0  0  0  0  0  0  0  0  0  0
  140.1040  154.7580  133.0030 C   0  0  0  0  0  0  0  0  0  0  0  0
  140.5120  156.0580  133.2050 C   0  0  0  0  0  0  0  0  0  0  0  0
  139.9980  157.2530  132.7130 C   0  0  0  0  0  0  0  0  0  0  0  0
  140.6460  158.4480  133.0720 C   0  0  0  0  0  0  0  0  0  0  0  0
  141.7830  158.4310  133.9240 C   0  0  0  0  0  0  0  0  0  0  0  0
  142.5040  159.7110  134.2660 C   0  0  0  0  0  0  0  0  0  0  0  0
  143.6560  159.8010  133.5060 F   0  0  0  0  0  0  0  0  0  0  0  0
  142.8450  159.7300  135.6080 F   0  0  0  0  0  0  0  0  0  0  0  0
  141.7020  160.8090  134.0060 F   0  0  0  0  0  0  0  0  0  0  0  0
  142.2900  157.1940  134.3820 C   0  0  0  0  0  0  0  0  0  0  0  0
  141.6200  156.0250  134.0100 C   0  0  0  0  0  0  0  0  0  0  0  0
  145.5190  153.7860  135.3250 C   0  0  0  0  0  0  0  0  0  0  0  0
  146.7070  154.7050  135.0230 C   0  0  0  0  0  0  0  0  0  0  0  0
  146.1800  158.1337  133.8144 H   0  0  0  0  0  0  0  0  0  0  0  0
  146.8898  158.7840  132.2978 H   0  0  0  0  0  0  0  0  0  0  0  0
  146.0907  157.1752  132.2978 H   0  0  0  0  0  0  0  0  0  0  0  0
  147.8197  156.9930  135.3760 H   0  0  0  0  0  0  0  0  0  0  0  0
  149.5084  157.2875  134.8392 H   0  0  0  0  0  0  0  0  0  0  0  0
  148.3183  158.6330  134.8392 H   0  0  0  0  0  0  0  0  0  0  0  0
  149.2700  157.0430  131.5600 H   0  0  0  0  0  0  0  0  0  0  0  0
  149.9700  157.9040  132.8290 H   0  0  0  0  0  0  0  0  0  0  0  0
  146.0903  154.7046  131.6297 H   0  0  0  0  0  0  0  0  0  0  0  0
  146.2316  153.1951  132.5937 H   0  0  0  0  0  0  0  0  0  0  0  0
  144.1613  155.4243  132.8282 H   0  0  0  0  0  0  0  0  0  0  0  0
  143.9108  153.6497  132.5502 H   0  0  0  0  0  0  0  0  0  0  0  0
  141.9170  152.2350  135.6580 H   0  0  0  0  0  0  0  0  0  0  0  0
  139.2445  154.4141  132.4089 H   0  0  0  0  0  0  0  0  0  0  0  0
  139.1110  157.2629  132.0625 H   0  0  0  0  0  0  0  0  0  0  0  0
  140.2683  159.4074  132.6888 H   0  0  0  0  0  0  0  0  0  0  0  0
  143.1887  157.1521  135.0149 H   0  0  0  0  0  0  0  0  0  0  0  0
  145.2679  153.8538  136.3938 H   0  0  0  0  0  0  0  0  0  0  0  0
  145.7888  152.7502  135.0713 H   0  0  0  0  0  0  0  0  0  0  0  0
  146.5563  155.6656  135.5374 H   0  0  0  0  0  0  0  0  0  0  0  0
  147.6247  154.2125  135.3771 H   0  0  0  0  0  0  0  0  0  0  0  0
  1  2  1  0
  2  3  1  0
  2  4  1  0
  2  5  1  0
  5  6  2  0
  5  7  1  0
  7  8  1  0
  8  9  1  0
  9 10  1  0
 10 11  1  0
 11 12  2  0
 11 13  1  0
 13 14  1  0
 14 15  1  0
 15 16  1  0
 15 17  2  0
 14 18  2  0
 18 19  1  0
 19 20  2  0
 20 21  1  0
 21 22  2  0
 22 23  1  0
 23 24  1  0
 23 25  1  0
 23 26  1  0
 22 27  1  0
 27 28  2  0
 10 29  1  0
 29 30  1  0
 30  7  1  0
 28 13  1  0
 28 19  1  0
  1 31  1  0
  1 32  1  0
  1 33  1  0
  3 34  1  0
  3 35  1  0
  3 36  1  0
  4 37  1  0
  4 38  1  0
  8 39  1  0
  8 40  1  0
  9 41  1  0
  9 42  1  0
 16 43  1  0
 18 44  1  0
 20 45  1  0
 21 46  1  0
 27 47  1  0
 29 48  1  0
 29 49  1  0
 30 50  1  0
 30 51  1  0
M  CHG  1  16  -1
M  END
>  <UniqueID>  (44) 
44

>  <SMILES>  (44) 
CC(C)(N)C(=O)N1CCN(C(=O)n2c(C([NH-])=O)cc3ccc(C(F)(F)F)cc32)CC1

>  <Energy>  (44) 
93.59944869244035

>  <Genealogy>  (44) 
CC(C)(N)C(=O)N1CCN(C(=O)n2c(C([NH-])=O)cc3ccc(C(F)(F)F)cc32)CC1 (protonated)
CC(C)(N)C(=O)N1CCN(C(=O)n2c(C([NH-])=O)cc3ccc(C(F)(F)F)cc32)CC1 (3D coordinates assigned)
CC(C)(N)C(=O)N1CCN(C(=O)n2c(C([NH-])=O)cc3ccc(C(F)(F)F)cc32)CC1 (nonaromatic ring conformer: 93.59944869244035 kcal/mol)

>  <smiles>  (44) 
CC(C)(N)C(=O)N1CCN(C(=O)n2c(C(N)=O)cc3ccc(C(F)(F)F)cc32)CC1

>  <score_type>  (44) 
oracle

>  <origin>  (44) 
adg

>  <m_score__min__energy>  (44) 
-7.8399999999999999

>  <m_primary>  (44) 
energy

$$$$
44:0
     RDKit          3D

 50 51  0  0  0  0  0  0  0  0999 V2000
  139.5970  157.8500  133.3110 C   0  0  0  0  0  0  0  0  0  0  0  0
  141.0200  158.2960  133.4610 C   0  0  0  0  0  0  0  0  0  0  0  0
  141.3080  159.6580  133.7490 C   0  0  0  0  0  0  0  0  0  0  0  0
  142.6390  160.1000  133.8460 C   0  0  0  0  0  0  0  0  0  0  0  0
  143.6520  159.1740  133.6310 C   0  0  0  0  0  0  0  0  0  0  0  0
  145.0220  159.3230  133.6490 C   0  0  0  0  0  0  0  0  0  0  0  0
  145.5400  158.0580  133.3650 C   0  0  0  0  0  0  0  0  0  0  0  0
  146.9760  157.7340  133.4110 C   0  0  0  0  0  0  0  0  0  0  0  0
  147.4990  156.9600  134.4900 N   0  0  0  0  0  0  0  0  0  0  0  0
  147.7400  158.0820  132.4750 O   0  0  0  0  0  0  0  0  0  0  0  0
  144.5280  157.1700  133.1650 N   0  0  0  0  0  0  0  0  0  0  0  0
  144.6140  155.7830  132.8020 C   0  0  0  0  0  0  0  0  0  0  0  0
  143.9860  155.3910  131.7780 O   0  0  0  0  0  0  0  0  0  0  0  0
  145.5090  154.8870  133.5220 N   0  0  2  0  0  0  0  0  0  0  0  0
  146.5380  154.3170  132.6150 C   0  0  0  0  0  0  0  0  0  0  0  0
  147.8570  154.0110  133.3570 C   0  0  0  0  0  0  0  0  0  0  0  0
  149.0880  154.4790  132.5750 C   0  0  0  0  0  0  0  0  0  0  0  0
  149.2070  155.9370  132.6060 N   0  0  0  0  0  0  0  0  0  0  0  0
  144.7680  153.8140  134.1570 C   0  0  0  0  0  0  0  0  0  0  0  0
  144.8640  152.6280  133.7290 O   0  0  0  0  0  0  0  0  0  0  0  0
  143.9830  154.0730  135.3270 N   0  0  0  0  0  0  0  0  0  0  0  0
  142.5340  154.2170  135.1910 C   0  0  0  0  0  0  0  0  0  0  0  0
  144.6220  154.0640  136.6470 C   0  0  0  0  0  0  0  0  0  0  0  0
  146.1050  153.9330  136.5140 C   0  0  0  0  0  0  0  0  0  0  0  0
  146.7670  154.8070  135.8940 O   0  0  0  0  0  0  0  0  0  0  0  0
  146.7660  152.8590  137.1090 O   0  0  0  0  0  0  0  0  0  0  0  0
  143.3830  157.8610  133.3460 C   0  0  0  0  0  0  0  0  0  0  0  0
  142.0720  157.3870  133.2400 C   0  0  0  0  0  0  0  0  0  0  0  0
  139.1498  157.7099  134.3062 H   0  0  0  0  0  0  0  0  0  0  0  0
  139.0298  158.6135  132.7584 H   0  0  0  0  0  0  0  0  0  0  0  0
  139.5670  156.8994  132.7584 H   0  0  0  0  0  0  0  0  0  0  0  0
  140.4836  160.3711  133.8970 H   0  0  0  0  0  0  0  0  0  0  0  0
  142.8715  161.1482  134.0851 H   0  0  0  0  0  0  0  0  0  0  0  0
  145.5885  160.2451  133.8458 H   0  0  0  0  0  0  0  0  0  0  0  0
  147.8110  155.9720  134.3430 H   0  0  0  0  0  0  0  0  0  0  0  0
  145.9830  155.4320  134.2770 H   0  0  0  0  0  0  0  0  0  0  0  0
  146.1505  153.3839  132.1800 H   0  0  0  0  0  0  0  0  0  0  0  0
  146.7522  155.0611  131.8338 H   0  0  0  0  0  0  0  0  0  0  0  0
  147.8415  154.5223  134.3308 H   0  0  0  0  0  0  0  0  0  0  0  0
  147.9298  152.9199  133.4762 H   0  0  0  0  0  0  0  0  0  0  0  0
  149.9890  154.0351  133.0235 H   0  0  0  0  0  0  0  0  0  0  0  0
  148.9802  154.1588  131.5282 H   0  0  0  0  0  0  0  0  0  0  0  0
  148.7630  156.3270  131.7470 H   0  0  0  0  0  0  0  0  0  0  0  0
  148.6350  156.2830  133.4100 H   0  0  0  0  0  0  0  0  0  0  0  0
  142.0747  154.2626  136.1895 H   0  0  0  0  0  0  0  0  0  0  0  0
  142.3075  155.1421  134.6406 H   0  0  0  0  0  0  0  0  0  0  0  0
  142.1299  153.3546  134.6406 H   0  0  0  0  0  0  0  0  0  0  0  0
  144.3876  155.0039  137.1683 H   0  0  0  0  0  0  0  0  0  0  0  0
  144.2406  153.2055  137.2192 H   0  0  0  0  0  0  0  0  0  0  0  0
  141.8686  156.3350  132.9913 H   0  0  0  0  0  0  0  0  0  0  0  0
  1  2  1  0
  2  3  2  0
  3  4  1  0
  4  5  2  0
  5  6  1  0
  6  7  2  0
  7  8  1  0
  8  9  1  0
  8 10  2  0
  7 11  1  0
 11 12  1  0
 12 13  2  0
 12 14  1  0
 14 15  1  0
 15 16  1  0
 16 17  1  0
 17 18  1  0
 14 19  1  0
 19 20  2  0
 19 21  1  0
 21 22  1  0
 21 23  1  0
 23 24  1  0
 24 25  2  0
 24 26  1  0
 11 27  1  0
 27 28  2  0
 28  2  1  0
 27  5  1  0
  1 29  1  0
  1 30  1  0
  1 31  1  0
  3 32  1  0
  4 33  1  0
  6 34  1  0
  9 35  1  0
 14 36  1  1
 15 37  1  0
 15 38  1  0
 16 39  1  0
 16 40  1  0
 17 41  1  0
 17 42  1  0
 18 43  1  0
 18 44  1  0
 22 45  1  0
 22 46  1  0
 22 47  1  0
 23 48  1  0
 23 49  1  0
 28 50  1  0
M  CHG  3   9  -1  14   1  26  -1
M  END
>  <UniqueID>  (45) 
45

>  <SMILES>  (45) 
Cc1ccc2cc(C([NH-])=O)n(C(=O)[NH+](CCCN)C(=O)N(C)CC(=O)[O-])c2c1

>  <Energy>  (45) 
93.43682767472836

>  <Genealogy>  (45) 
Cc1ccc2cc(C([NH-])=O)n(C(=O)[NH+](CCCN)C(=O)N(C)CC(=O)[O-])c2c1 (protonated)
Cc1ccc2cc(C([NH-])=O)n(C(=O)[NH+](CCCN)C(=O)N(C)CC(=O)[O-])c2c1 (3D coordinates assigned)
Cc1ccc2cc(C([NH-])=O)n(C(=O)[NH+](CCCN)C(=O)N(C)CC(=O)[O-])c2c1 (optimized conformer: 93.43682767472836 kcal/mol)

>  <smiles>  (45) 
Cc1ccc2cc(C(N)=O)n(C(=O)N(CCCN)C(=O)N(C)CC(=O)O)c2c1

>  <score_type>  (45) 
oracle

>  <origin>  (45) 
adg

>  <m_score__min__energy>  (45) 
-5.3399999999999999

>  <m_primary>  (45) 
energy

$$$$
45:0
     RDKit          3D

 30 31  0  0  0  0  0  0  0  0999 V2000
  147.0780  160.8810  133.4480 N   0  0  0  0  0  0  0  0  0  0  0  0
  146.0120  159.9380  133.3790 C   0  0  0  0  0  0  0  0  0  0  0  0
  144.8240  160.3530  133.3110 O   0  0  0  0  0  0  0  0  0  0  0  0
  146.2830  158.4860  133.3460 C   0  0  0  0  0  0  0  0  0  0  0  0
  145.2870  157.5110  133.4200 C   0  0  0  0  0  0  0  0  0  0  0  0
  145.9430  156.3080  133.2800 C   0  0  0  0  0  0  0  0  0  0  0  0
  145.4470  155.0070  133.2840 C   0  0  0  0  0  0  0  0  0  0  0  0
  146.3660  153.9520  133.1390 C   0  0  0  0  0  0  0  0  0  0  0  0
  147.7470  154.2190  132.9970 C   0  0  0  0  0  0  0  0  0  0  0  0
  148.6780  153.1310  132.8580 C   0  0  0  0  0  0  0  0  0  0  0  0
  149.4580  152.2200  132.7420 C   0  0  0  0  0  0  0  0  0  0  0  0
  150.4080  151.1110  132.5990 C   0  0  0  0  0  0  0  0  0  0  0  0
  150.5800  150.7980  131.2440 O   0  0  0  0  0  0  0  0  0  0  0  0
  148.2170  155.5480  132.9970 C   0  0  0  0  0  0  0  0  0  0  0  0
  147.2800  156.5760  133.1330 C   0  0  0  0  0  0  0  0  0  0  0  0
  147.5030  157.9060  133.1770 N   0  0  0  0  0  0  0  0  0  0  0  0
  148.7870  158.5430  133.1310 C   0  0  0  0  0  0  0  0  0  0  0  0
  149.1760  159.2360  134.1100 O   0  0  0  0  0  0  0  0  0  0  0  0
  149.6170  158.4900  131.8880 C   0  0  0  0  0  0  0  0  0  0  0  0
  149.1770  160.1840  130.6680 I   0  0  0  0  0  0  0  0  0  0  0  0
  147.7670  160.8570  134.2330 H   0  0  0  0  0  0  0  0  0  0  0  0
  144.2076  157.6696  133.5603 H   0  0  0  0  0  0  0  0  0  0  0  0
  144.3706  154.8104  133.3970 H   0  0  0  0  0  0  0  0  0  0  0  0
  146.0076  152.9120  133.1361 H   0  0  0  0  0  0  0  0  0  0  0  0
  151.3765  151.4032  133.0310 H   0  0  0  0  0  0  0  0  0  0  0  0
  150.0149  150.2290  133.1259 H   0  0  0  0  0  0  0  0  0  0  0  0
  151.4440  151.2010  130.9660 H   0  0  0  0  0  0  0  0  0  0  0  0
  149.2895  155.7694  132.8930 H   0  0  0  0  0  0  0  0  0  0  0  0
  150.6833  158.4995  132.1582 H   0  0  0  0  0  0  0  0  0  0  0  0
  149.3882  157.5684  131.3328 H   0  0  0  0  0  0  0  0  0  0  0  0
  1  2  1  0
  2  3  2  0
  2  4  1  0
  4  5  2  0
  5  6  1  0
  6  7  2  0
  7  8  1  0
  8  9  2  0
  9 10  1  0
 10 11  3  0
 11 12  1  0
 12 13  1  0
  9 14  1  0
 14 15  2  0
 15 16  1  0
 16 17  1  0
 17 18  2  0
 17 19  1  0
 19 20  1  0
 16  4  1  0
 15  6  1  0
  1 21  1  0
  5 22  1  0
  7 23  1  0
  8 24  1  0
 12 25  1  0
 12 26  1  0
 13 27  1  0
 14 28  1  0
 19 29  1  0
 19 30  1  0
M  CHG  1   1  -1
M  END
>  <UniqueID>  (46) 
46

>  <SMILES>  (46) 
[NH-]C(=O)c1cc2ccc(C#CCO)cc2n1C(=O)CI

>  <Energy>  (46) 
63.84575417871335

>  <Genealogy>  (46) 
[NH-]C(=O)c1cc2ccc(C#CCO)cc2n1C(=O)CI (protonated)
[NH-]C(=O)c1cc2ccc(C#CCO)cc2n1C(=O)CI (3D coordinates assigned)
[NH-]C(=O)c1cc2ccc(C#CCO)cc2n1C(=O)CI (optimized conformer: 63.84575417871335 kcal/mol)

>  <smiles>  (46) 
NC(=O)c1cc2ccc(C#CCO)cc2n1C(=O)CI

>  <score_type>  (46) 
oracle

>  <origin>  (46) 
adg

>  <m_score__min__energy>  (46) 
-7.71

>  <m_primary>  (46) 
energy

$$$$
46:0
     RDKit          3D

 49 50  0  0  0  0  0  0  0  0999 V2000
  148.2650  151.3660  131.9280 C   0  0  0  0  0  0  0  0  0  0  0  0
  149.1250  152.2300  132.8540 C   0  0  0  0  0  0  0  0  0  0  0  0
  149.6120  151.4120  134.0520 C   0  0  0  0  0  0  0  0  0  0  0  0
  148.2150  153.6750  133.4220 S   0  0  0  0  0  0  0  0  0  0  0  0
  148.8990  154.9170  132.9250 O   0  0  0  0  0  0  0  0  0  0  0  0
  146.8260  153.6250  132.8540 O   0  0  0  0  0  0  0  0  0  0  0  0
  148.1110  153.7630  135.2080 C   0  0  0  0  0  0  0  0  0  0  0  0
  146.6890  153.7830  135.6880 C   0  0  0  0  0  0  0  0  0  0  0  0
  146.3700  153.1690  136.7440 O   0  0  0  0  0  0  0  0  0  0  0  0
  145.7060  154.5510  134.9820 N   0  0  0  0  0  0  0  0  0  0  0  0
  144.2820  154.4500  135.3090 C   0  0  0  0  0  0  0  0  0  0  0  0
  143.4080  155.0850  134.2190 C   0  0  0  0  0  0  0  0  0  0  0  0
  144.1930  155.9440  133.2580 C   0  0  0  0  0  0  0  0  0  0  0  0
  144.9220  155.3870  132.3930 O   0  0  0  0  0  0  0  0  0  0  0  0
  144.1320  157.3780  133.3100 N   0  0  0  0  0  0  0  0  0  0  0  0
  145.1640  158.2580  133.4350 C   0  0  0  0  0  0  0  0  0  0  0  0
  146.5970  157.9110  133.3860 C   0  0  0  0  0  0  0  0  0  0  0  0
  147.0360  156.6330  133.8380 N   0  0  0  0  0  0  0  0  0  0  0  0
  147.4440  158.7440  132.9700 O   0  0  0  0  0  0  0  0  0  0  0  0
  144.6820  159.5580  133.5810 C   0  0  0  0  0  0  0  0  0  0  0  0
  143.3100  159.4440  133.5310 C   0  0  0  0  0  0  0  0  0  0  0  0
  142.3230  160.4170  133.6450 C   0  0  0  0  0  0  0  0  0  0  0  0
  140.9790  160.0000  133.6090 C   0  0  0  0  0  0  0  0  0  0  0  0
  140.6480  158.6250  133.4790 C   0  0  0  0  0  0  0  0  0  0  0  0
  139.2030  158.1960  133.4310 C   0  0  0  0  0  0  0  0  0  0  0  0
  138.4910  159.0710  132.6310 F   0  0  0  0  0  0  0  0  0  0  0  0
  138.6560  158.1980  134.7030 F   0  0  0  0  0  0  0  0  0  0  0  0
  139.0870  156.9170  132.9140 F   0  0  0  0  0  0  0  0  0  0  0  0
  141.6820  157.6720  133.3250 C   0  0  0  0  0  0  0  0  0  0  0  0
  143.0050  158.1180  133.3670 C   0  0  0  0  0  0  0  0  0  0  0  0
  147.6165  150.7144  132.5321 H   0  0  0  0  0  0  0  0  0  0  0  0
  147.6437  152.0150  131.2933 H   0  0  0  0  0  0  0  0  0  0  0  0
  148.9168  150.7478  131.2933 H   0  0  0  0  0  0  0  0  0  0  0  0
  149.9973  152.5747  132.2793 H   0  0  0  0  0  0  0  0  0  0  0  0
  149.3133  151.9137  134.9843 H   0  0  0  0  0  0  0  0  0  0  0  0
  149.1646  150.4077  134.0165 H   0  0  0  0  0  0  0  0  0  0  0  0
  150.7081  151.3266  134.0165 H   0  0  0  0  0  0  0  0  0  0  0  0
  148.6183  152.8863  135.6369 H   0  0  0  0  0  0  0  0  0  0  0  0
  148.5918  154.6983  135.5307 H   0  0  0  0  0  0  0  0  0  0  0  0
  146.0140  155.1360  134.1730 H   0  0  0  0  0  0  0  0  0  0  0  0
  144.0128  153.3882  135.4095 H   0  0  0  0  0  0  0  0  0  0  0  0
  144.1052  154.9897  136.2510 H   0  0  0  0  0  0  0  0  0  0  0  0
  142.9181  154.2810  133.6502 H   0  0  0  0  0  0  0  0  0  0  0  0
  142.6782  155.7369  134.7214 H   0  0  0  0  0  0  0  0  0  0  0  0
  146.9110  155.7830  133.2440 H   0  0  0  0  0  0  0  0  0  0  0  0
  145.2712  160.4780  133.7088 H   0  0  0  0  0  0  0  0  0  0  0  0
  142.5844  161.4793  133.7597 H   0  0  0  0  0  0  0  0  0  0  0  0
  140.1757  160.7479  133.6824 H   0  0  0  0  0  0  0  0  0  0  0  0
  141.4501  156.6071  133.1760 H   0  0  0  0  0  0  0  0  0  0  0  0
  1  2  1  0
  2  3  1  0
  2  4  1  0
  4  5  2  0
  4  6  2  0
  4  7  1  0
  7  8  1  0
  8  9  2  0
  8 10  1  0
 10 11  1  0
 11 12  1  0
 12 13  1  0
 13 14  2  0
 13 15  1  0
 15 16  1  0
 16 17  1  0
 17 18  1  0
 17 19  2  0
 16 20  2  0
 20 21  1  0
 21 22  2  0
 22 23  1  0
 23 24  2  0
 24 25  1  0
 25 26  1  0
 25 27  1  0
 25 28  1  0
 24 29  1  0
 29 30  2  0
 30 15  1  0
 30 21  1  0
  1 31  1  0
  1 32  1  0
  1 33  1  0
  2 34  1  0
  3 35  1  0
  3 36  1  0
  3 37  1  0
  7 38  1  0
  7 39  1  0
 10 40  1  0
 11 41  1  0
 11 42  1  0
 12 43  1  0
 12 44  1  0
 18 45  1  0
 20 46  1  0
 22 47  1  0
 23 48  1  0
 29 49  1  0
M  CHG  1  18  -1
M  END
>  <UniqueID>  (47) 
47

>  <SMILES>  (47) 
CC(C)S(=O)(=O)CC(=O)NCCC(=O)n1c(C([NH-])=O)cc2ccc(C(F)(F)F)cc21

>  <Energy>  (47) 
69.6684150495274

>  <Genealogy>  (47) 
CC(C)S(=O)(=O)CC(=O)NCCC(=O)n1c(C([NH-])=O)cc2ccc(C(F)(F)F)cc21 (protonated)
CC(C)S(=O)(=O)CC(=O)NCCC(=O)n1c(C([NH-])=O)cc2ccc(C(F)(F)F)cc21 (3D coordinates assigned)
CC(C)S(=O)(=O)CC(=O)NCCC(=O)n1c(C([NH-])=O)cc2ccc(C(F)(F)F)cc21 (optimized conformer: 69.6684150495274 kcal/mol)

>  <smiles>  (47) 
CC(C)S(=O)(=O)CC(=O)NCCC(=O)n1c(C(N)=O)cc2ccc(C(F)(F)F)cc21

>  <score_type>  (47) 
oracle

>  <origin>  (47) 
adg

>  <m_score__min__energy>  (47) 
-7.5300000000000002

>  <m_primary>  (47) 
energy

$$$$
47:0
     RDKit          3D

 55 57  0  0  0  0  0  0  0  0999 V2000
  145.1150  160.2880  133.5540 C   0  0  0  0  0  0  0  0  0  0  0  0
  146.1460  159.2230  133.3270 C   0  0  0  0  0  0  0  0  0  0  0  0
  147.5010  159.5880  133.1310 C   0  0  0  0  0  0  0  0  0  0  0  0
  148.4880  158.6030  132.9510 C   0  0  0  0  0  0  0  0  0  0  0  0
  148.0920  157.2700  132.9760 C   0  0  0  0  0  0  0  0  0  0  0  0
  148.8400  156.1200  132.8560 C   0  0  0  0  0  0  0  0  0  0  0  0
  147.9280  155.0740  132.9640 C   0  0  0  0  0  0  0  0  0  0  0  0
  148.2990  153.6520  132.8120 C   0  0  0  0  0  0  0  0  0  0  0  0
  147.5340  152.6160  133.4290 N   0  0  0  0  0  0  0  0  0  0  0  0
  149.2730  153.3440  132.0730 O   0  0  0  0  0  0  0  0  0  0  0  0
  146.6670  155.5560  133.1590 N   0  0  0  0  0  0  0  0  0  0  0  0
  145.4620  154.8140  133.4080 C   0  0  0  0  0  0  0  0  0  0  0  0
  145.2440  154.3450  134.5580 O   0  0  0  0  0  0  0  0  0  0  0  0
  144.4730  154.5600  132.3050 C   0  0  0  0  0  0  0  0  0  0  0  0
  143.1560  154.0110  132.8680 C   0  0  0  0  0  0  0  0  0  0  0  0
  143.2000  152.4820  132.9740 C   0  0  0  0  0  0  0  0  0  0  0  0
  141.7980  151.8650  133.0770 C   0  0  0  0  0  0  0  0  0  0  0  0
  141.6880  150.6650  132.2010 N   0  0  0  0  0  0  0  0  0  0  0  0
  142.9570  149.9060  132.2280 C   0  0  0  0  0  0  0  0  0  0  0  0
  140.5080  149.8250  132.5670 C   0  0  0  0  0  0  0  0  0  0  0  0
  140.6040  148.3710  132.0780 C   0  0  0  0  0  0  0  0  0  0  0  0
  140.1990  148.4080  130.6130 C   0  0  0  0  0  0  0  0  0  0  0  0
  139.2770  149.6160  130.4660 C   0  0  0  0  0  0  0  0  0  0  0  0
  139.2560  150.3100  131.8260 C   0  0  0  0  0  0  0  0  0  0  0  0
  146.7840  156.9010  133.1590 C   0  0  0  0  0  0  0  0  0  0  0  0
  145.7830  157.8580  133.3580 C   0  0  0  0  0  0  0  0  0  0  0  0
  144.9721  160.4356  134.6346 H   0  0  0  0  0  0  0  0  0  0  0  0
  145.4536  161.2295  133.0969 H   0  0  0  0  0  0  0  0  0  0  0  0
  144.1630  159.9801  133.0969 H   0  0  0  0  0  0  0  0  0  0  0  0
  147.7832  160.6511  133.1196 H   0  0  0  0  0  0  0  0  0  0  0  0
  149.5415  158.8783  132.7951 H   0  0  0  0  0  0  0  0  0  0  0  0
  149.9272  156.0441  132.7066 H   0  0  0  0  0  0  0  0  0  0  0  0
  146.6170  152.8170  133.8850 H   0  0  0  0  0  0  0  0  0  0  0  0
  147.8430  151.6210  133.3490 H   0  0  0  0  0  0  0  0  0  0  0  0
  144.2732  155.5034  131.7758 H   0  0  0  0  0  0  0  0  0  0  0  0
  144.8983  153.8160  131.6154 H   0  0  0  0  0  0  0  0  0  0  0  0
  142.9871  154.4364  133.8682 H   0  0  0  0  0  0  0  0  0  0  0  0
  142.3390  154.2922  132.1872 H   0  0  0  0  0  0  0  0  0  0  0  0
  143.6989  152.0795  132.0800 H   0  0  0  0  0  0  0  0  0  0  0  0
  143.7497  152.2237  133.8911 H   0  0  0  0  0  0  0  0  0  0  0  0
  141.6084  151.5702  134.1196 H   0  0  0  0  0  0  0  0  0  0  0  0
  141.0575  152.6106  132.7520 H   0  0  0  0  0  0  0  0  0  0  0  0
  143.2554  149.7275  133.2716 H   0  0  0  0  0  0  0  0  0  0  0  0
  142.8187  148.9422  131.7162 H   0  0  0  0  0  0  0  0  0  0  0  0
  143.7408  150.4838  131.7162 H   0  0  0  0  0  0  0  0  0  0  0  0
  140.4703  149.8957  133.6641 H   0  0  0  0  0  0  0  0  0  0  0  0
  141.6332  147.9972  132.1831 H   0  0  0  0  0  0  0  0  0  0  0  0
  139.9582  147.6999  132.6633 H   0  0  0  0  0  0  0  0  0  0  0  0
  141.0863  148.5234  129.9732 H   0  0  0  0  0  0  0  0  0  0  0  0
  139.6982  147.4773  130.3081 H   0  0  0  0  0  0  0  0  0  0  0  0
  139.6649  150.2993  129.6961 H   0  0  0  0  0  0  0  0  0  0  0  0
  138.2659  149.3110  130.1582 H   0  0  0  0  0  0  0  0  0  0  0  0
  139.2864  151.4021  131.6984 H   0  0  0  0  0  0  0  0  0  0  0  0
  138.3392  150.0726  132.3855 H   0  0  0  0  0  0  0  0  0  0  0  0
  144.7402  157.5554  133.5341 H   0  0  0  0  0  0  0  0  0  0  0  0
  1  2  1  0
  2  3  2  0
  3  4  1  0
  4  5  2  0
  5  6  1  0
  6  7  2  0
  7  8  1  0
  8  9  1  0
  8 10  2  0
  7 11  1  0
 11 12  1  0
 12 13  2  0
 12 14  1  0
 14 15  1  0
 15 16  1  0
 16 17  1  0
 17 18  1  0
 18 19  1  0
 18 20  1  0
 20 21  1  0
 21 22  1  0
 22 23  1  0
 23 24  1  0
 11 25  1  0
 25 26  2  0
 26  2  1  0
 25  5  1  0
 24 20  1  0
  1 27  1  0
  1 28  1  0
  1 29  1  0
  3 30  1  0
  4 31  1  0
  6 32  1  0
  9 33  1  0
  9 34  1  0
 14 35  1  0
 14 36  1  0
 15 37  1  0
 15 38  1  0
 16 39  1  0
 16 40  1  0
 17 41  1  0
 17 42  1  0
 19 43  1  0
 19 44  1  0
 19 45  1  0
 20 46  1  0
 21 47  1  0
 21 48  1  0
 22 49  1  0
 22 50  1  0
 23 51  1  0
 23 52  1  0
 24 53  1  0
 24 54  1  0
 26 55  1  0
M  END
>  <UniqueID>  (48) 
48

>  <SMILES>  (48) 
Cc1ccc2cc(C(N)=O)n(C(=O)CCCCN(C)C3CCCC3)c2c1

>  <Energy>  (48) 
97.8362600731718

>  <Genealogy>  (48) 
Cc1ccc2cc(C(N)=O)n(C(=O)CCCCN(C)C3CCCC3)c2c1 (3D coordinates assigned)
Cc1ccc2cc(C(N)=O)n(C(=O)CCCCN(C)C3CCCC3)c2c1 (nonaromatic ring conformer: 97.8362600731718 kcal/mol)

>  <smiles>  (48) 
Cc1ccc2cc(C(N)=O)n(C(=O)CCCCN(C)C3CCCC3)c2c1

>  <score_type>  (48) 
oracle

>  <origin>  (48) 
adg

>  <m_score__min__energy>  (48) 
-9.1500000000000004

>  <m_primary>  (48) 
energy

$$$$
48:0
     RDKit          3D

 37 38  0  0  0  0  0  0  0  0999 V2000
  141.7230  158.9430  132.9100 N   0  0  0  0  0  0  0  0  0  0  0  0
  142.7820  158.1700  133.4770 C   0  0  0  0  0  0  0  0  0  0  0  0
  143.9410  158.2740  132.9960 O   0  0  0  0  0  0  0  0  0  0  0  0
  142.5360  157.2790  134.6330 C   0  0  0  0  0  0  0  0  0  0  0  0
  143.2140  156.0810  134.8580 C   0  0  0  0  0  0  0  0  0  0  0  0
  142.6370  155.5420  135.9860 C   0  0  0  0  0  0  0  0  0  0  0  0
  142.9480  154.3760  136.6800 C   0  0  0  0  0  0  0  0  0  0  0  0
  142.2220  154.0920  137.8490 C   0  0  0  0  0  0  0  0  0  0  0  0
  141.1960  154.9650  138.2970 C   0  0  0  0  0  0  0  0  0  0  0  0
  140.4740  154.6860  139.5910 C   0  0  0  0  0  0  0  0  0  0  0  0
  139.1240  154.4840  139.3630 F   0  0  0  0  0  0  0  0  0  0  0  0
  140.9850  153.5520  140.2010 F   0  0  0  0  0  0  0  0  0  0  0  0
  140.6310  155.7640  140.4410 F   0  0  0  0  0  0  0  0  0  0  0  0
  140.9260  156.1490  137.5740 C   0  0  0  0  0  0  0  0  0  0  0  0
  141.6530  156.3970  136.4040 C   0  0  0  0  0  0  0  0  0  0  0  0
  141.5760  157.4660  135.5820 N   0  0  0  0  0  0  0  0  0  0  0  0
  140.7280  158.6110  135.7530 C   0  0  0  0  0  0  0  0  0  0  0  0
  140.9430  159.4160  136.7010 O   0  0  0  0  0  0  0  0  0  0  0  0
  139.6930  158.8510  134.8440 O   0  0  0  0  0  0  0  0  0  0  0  0
  138.7270  157.8650  134.4860 C   0  0  0  0  0  0  0  0  0  0  0  0
  139.1970  157.0990  133.2890 C   0  0  0  0  0  0  0  0  0  0  0  0
  139.4750  155.8740  133.3950 O   0  0  0  0  0  0  0  0  0  0  0  0
  139.3100  157.7630  132.0270 N   0  0  0  0  0  0  0  0  0  0  0  0
  138.3310  158.7240  131.5350 C   0  0  0  0  0  0  0  0  0  0  0  0
  138.9900  160.0450  131.2960 C   0  0  0  0  0  0  0  0  0  0  0  0
  139.8880  160.4530  132.0780 O   0  0  0  0  0  0  0  0  0  0  0  0
  138.5800  160.8470  130.2390 O   0  0  0  0  0  0  0  0  0  0  0  0
  141.9180  159.5980  132.1210 H   0  0  0  0  0  0  0  0  0  0  0  0
  140.7370  158.8400  133.2390 H   0  0  0  0  0  0  0  0  0  0  0  0
  144.0350  155.6570  134.2612 H   0  0  0  0  0  0  0  0  0  0  0  0
  143.7377  153.6979  136.3242 H   0  0  0  0  0  0  0  0  0  0  0  0
  142.4513  153.1826  138.4238 H   0  0  0  0  0  0  0  0  0  0  0  0
  140.1620  156.8593  137.9228 H   0  0  0  0  0  0  0  0  0  0  0  0
  138.5839  157.1725  135.3285 H   0  0  0  0  0  0  0  0  0  0  0  0
  137.7755  158.3620  134.2459 H   0  0  0  0  0  0  0  0  0  0  0  0
  137.9001  158.3555  130.5924 H   0  0  0  0  0  0  0  0  0  0  0  0
  137.5355  158.8466  132.2847 H   0  0  0  0  0  0  0  0  0  0  0  0
  1  2  1  0
  2  3  2  0
  2  4  1  0
  4  5  2  0
  5  6  1  0
  6  7  2  0
  7  8  1  0
  8  9  2  0
  9 10  1  0
 10 11  1  0
 10 12  1  0
 10 13  1  0
  9 14  1  0
 14 15  2  0
 15 16  1  0
 16 17  1  0
 17 18  2  0
 17 19  1  0
 19 20  1  0
 20 21  1  0
 21 22  2  0
 21 23  1  0
 23 24  1  0
 24 25  1  0
 25 26  2  0
 25 27  1  0
 16  4  1  0
 15  6  1  0
  1 28  1  0
  1 29  1  0
  5 30  1  0
  7 31  1  0
  8 32  1  0
 14 33  1  0
 20 34  1  0
 20 35  1  0
 24 36  1  0
 24 37  1  0
M  CHG  2  23  -1  27  -1
M  END
>  <UniqueID>  (49) 
49

>  <SMILES>  (49) 
NC(=O)c1cc2ccc(C(F)(F)F)cc2n1C(=O)OCC(=O)[N-]CC(=O)[O-]

>  <Energy>  (49) 
69.9267986892436

>  <Genealogy>  (49) 
NC(=O)c1cc2ccc(C(F)(F)F)cc2n1C(=O)OCC(=O)[N-]CC(=O)[O-] (protonated)
NC(=O)c1cc2ccc(C(F)(F)F)cc2n1C(=O)OCC(=O)[N-]CC(=O)[O-] (3D coordinates assigned)
NC(=O)c1cc2ccc(C(F)(F)F)cc2n1C(=O)OCC(=O)[N-]CC(=O)[O-] (optimized conformer: 69.9267986892436 kcal/mol)

>  <smiles>  (49) 
NC(=O)c1cc2ccc(C(F)(F)F)cc2n1C(=O)OCC(=O)NCC(=O)O

>  <score_type>  (49) 
oracle

>  <origin>  (49) 
adg

>  <m_score__min__energy>  (49) 
-6.8200000000000003

>  <m_primary>  (49) 
energy

$$$$
49:0
     RDKit          3D

 39 40  0  0  0  0  0  0  0  0999 V2000
  142.7340  153.4750  133.8610 C   0  0  0  0  0  0  0  0  0  0  0  0
  141.9780  154.6940  134.1660 N   0  0  0  0  0  0  0  0  0  0  0  0
  140.6940  154.9040  133.5430 C   0  0  0  0  0  0  0  0  0  0  0  0
  140.2260  154.0380  132.7540 O   0  0  0  0  0  0  0  0  0  0  0  0
  139.9570  156.1020  133.8030 N   0  0  0  0  0  0  0  0  0  0  0  0
  139.4640  156.9800  132.7550 C   0  0  0  0  0  0  0  0  0  0  0  0
  138.8550  158.1920  133.3770 C   0  0  0  0  0  0  0  0  0  0  0  0
  138.7030  158.2530  134.6250 O   0  0  0  0  0  0  0  0  0  0  0  0
  138.4040  159.2320  132.5750 O   0  0  0  0  0  0  0  0  0  0  0  0
  142.4720  155.6100  135.1650 C   0  0  0  0  0  0  0  0  0  0  0  0
  143.5820  156.1870  135.0000 O   0  0  0  0  0  0  0  0  0  0  0  0
  141.7110  155.8930  136.3520 N   0  0  0  0  0  0  0  0  0  0  0  0
  141.2740  157.1040  136.7990 C   0  0  0  0  0  0  0  0  0  0  0  0
  141.4000  158.3860  136.0760 C   0  0  0  0  0  0  0  0  0  0  0  0
  140.5390  159.4740  136.4030 N   0  0  0  0  0  0  0  0  0  0  0  0
  142.2490  158.5240  135.1560 O   0  0  0  0  0  0  0  0  0  0  0  0
  140.6470  156.9680  138.0360 C   0  0  0  0  0  0  0  0  0  0  0  0
  140.7110  155.6250  138.3320 C   0  0  0  0  0  0  0  0  0  0  0  0
  140.2620  154.9290  139.4520 C   0  0  0  0  0  0  0  0  0  0  0  0
  140.4970  153.5450  139.5050 C   0  0  0  0  0  0  0  0  0  0  0  0
  141.1850  152.8890  138.4520 C   0  0  0  0  0  0  0  0  0  0  0  0
  141.4140  151.4040  138.5120 C   0  0  0  0  0  0  0  0  0  0  0  0
  140.3790  150.6930  137.7010 C   0  0  0  0  0  0  0  0  0  0  0  0
  139.3190  150.2850  138.2440 O   0  0  0  0  0  0  0  0  0  0  0  0
  140.6080  150.4330  136.3560 O   0  0  0  0  0  0  0  0  0  0  0  0
  141.6160  153.6250  137.3270 C   0  0  0  0  0  0  0  0  0  0  0  0
  141.3550  154.9990  137.2970 C   0  0  0  0  0  0  0  0  0  0  0  0
  143.0367  152.9869  134.7991 H   0  0  0  0  0  0  0  0  0  0  0  0
  142.1029  152.7885  133.2775 H   0  0  0  0  0  0  0  0  0  0  0  0
  143.6295  153.7352  133.2775 H   0  0  0  0  0  0  0  0  0  0  0  0
  140.2982  157.2803  132.1038 H   0  0  0  0  0  0  0  0  0  0  0  0
  138.7074  156.4521  132.1559 H   0  0  0  0  0  0  0  0  0  0  0  0
  139.5020  159.3690  136.3590 H   0  0  0  0  0  0  0  0  0  0  0  0
  140.1966  157.7646  138.6464 H   0  0  0  0  0  0  0  0  0  0  0  0
  139.7395  155.4471  140.2697 H   0  0  0  0  0  0  0  0  0  0  0  0
  140.1445  152.9649  140.3706 H   0  0  0  0  0  0  0  0  0  0  0  0
  142.4122  151.1731  138.1117 H   0  0  0  0  0  0  0  0  0  0  0  0
  141.3446  151.0703  139.5579 H   0  0  0  0  0  0  0  0  0  0  0  0
  142.1426  153.1316  136.4968 H   0  0  0  0  0  0  0  0  0  0  0  0
  1  2  1  0
  2  3  1  0
  3  4  2  0
  3  5  1  0
  5  6  1  0
  6  7  1  0
  7  8  2  0
  7  9  1  0
  2 10  1  0
 10 11  2  0
 10 12  1  0
 12 13  1  0
 13 14  1  0
 14 15  1  0
 14 16  2  0
 13 17  2  0
 17 18  1  0
 18 19  2  0
 19 20  1  0
 20 21  2  0
 21 22  1  0
 22 23  1  0
 23 24  2  0
 23 25  1  0
 21 26  1  0
 26 27  2  0
 27 12  1  0
 27 18  1  0
  1 28  1  0
  1 29  1  0
  1 30  1  0
  6 31  1  0
  6 32  1  0
 15 33  1  0
 17 34  1  0
 19 35  1  0
 20 36  1  0
 22 37  1  0
 22 38  1  0
 26 39  1  0
M  CHG  4   5  -1   9  -1  15  -1  25  -1
M  END
>  <UniqueID>  (50) 
50

>  <SMILES>  (50) 
CN(C(=O)[N-]CC(=O)[O-])C(=O)n1c(C([NH-])=O)cc2ccc(CC(=O)[O-])cc21

>  <Energy>  (50) 
73.3196754163744

>  <Genealogy>  (50) 
CN(C(=O)[N-]CC(=O)[O-])C(=O)n1c(C([NH-])=O)cc2ccc(CC(=O)[O-])cc21 (protonated)
CN(C(=O)[N-]CC(=O)[O-])C(=O)n1c(C([NH-])=O)cc2ccc(CC(=O)[O-])cc21 (3D coordinates assigned)
CN(C(=O)[N-]CC(=O)[O-])C(=O)n1c(C([NH-])=O)cc2ccc(CC(=O)[O-])cc21 (optimized conformer: 73.3196754163744 kcal/mol)

>  <smiles>  (50) 
CN(C(=O)NCC(=O)O)C(=O)n1c(C(N)=O)cc2ccc(CC(=O)O)cc21

>  <score_type>  (50) 
oracle

>  <origin>  (50) 
adg

>  <m_score__min__energy>  (50) 
-7.46

>  <m_primary>  (50) 
energy

$$$$
50:0
     RDKit          3D

 33 34  0  0  0  0  0  0  0  0999 V2000
  142.6620  160.7040  134.0220 N   0  0  0  0  0  0  0  0  0  0  0  0
  143.9980  161.1390  133.7840 C   0  0  0  0  0  0  0  0  0  0  0  0
  144.2450  162.3730  133.7390 O   0  0  0  0  0  0  0  0  0  0  0  0
  145.0640  160.1430  133.5490 C   0  0  0  0  0  0  0  0  0  0  0  0
  146.4040  160.4860  133.3760 C   0  0  0  0  0  0  0  0  0  0  0  0
  147.0770  159.2900  133.2870 C   0  0  0  0  0  0  0  0  0  0  0  0
  148.4320  159.0390  133.0940 C   0  0  0  0  0  0  0  0  0  0  0  0
  148.8510  157.7010  133.0100 C   0  0  0  0  0  0  0  0  0  0  0  0
  147.9150  156.6410  133.1320 C   0  0  0  0  0  0  0  0  0  0  0  0
  148.3640  155.2100  132.9790 C   0  0  0  0  0  0  0  0  0  0  0  0
  148.4830  154.6010  134.2160 F   0  0  0  0  0  0  0  0  0  0  0  0
  147.4350  154.5190  132.2250 F   0  0  0  0  0  0  0  0  0  0  0  0
  149.5940  155.1480  132.3460 F   0  0  0  0  0  0  0  0  0  0  0  0
  146.5440  156.9400  133.3030 C   0  0  0  0  0  0  0  0  0  0  0  0
  146.1570  158.2800  133.3990 C   0  0  0  0  0  0  0  0  0  0  0  0
  144.9120  158.7870  133.5550 N   0  0  0  0  0  0  0  0  0  0  0  0
  143.6890  158.0370  133.6430 C   0  0  0  0  0  0  0  0  0  0  0  0
  143.1130  157.6470  132.5910 O   0  0  0  0  0  0  0  0  0  0  0  0
  143.1480  157.7280  134.8950 O   0  0  0  0  0  0  0  0  0  0  0  0
  142.4300  156.5230  135.1450 C   0  0  0  0  0  0  0  0  0  0  0  0
  141.3330  156.7910  135.9890 O   0  0  0  0  0  0  0  0  0  0  0  0
  140.6330  158.2830  135.5480 P   0  0  2  0  0  0  0  0  0  0  0  0
  141.3280  159.4040  136.2870 O   0  0  0  0  0  0  0  0  0  0  0  0
  138.9970  158.2680  135.9790 O   0  0  0  0  0  0  0  0  0  0  0  0
  140.7630  158.5450  133.8810 O   0  0  0  0  0  0  0  0  0  0  0  0
  142.4690  159.7650  134.4380 H   0  0  0  0  0  0  0  0  0  0  0  0
  146.8320  161.4979  133.3222 H   0  0  0  0  0  0  0  0  0  0  0  0
  149.1541  159.8645  133.0096 H   0  0  0  0  0  0  0  0  0  0  0  0
  149.9147  157.4724  132.8481 H   0  0  0  0  0  0  0  0  0  0  0  0
  145.7968  156.1347  133.3594 H   0  0  0  0  0  0  0  0  0  0  0  0
  142.0665  156.1095  134.1927 H   0  0  0  0  0  0  0  0  0  0  0  0
  143.0962  155.7960  135.6325 H   0  0  0  0  0  0  0  0  0  0  0  0
  141.6970  158.8440  133.7430 H   0  0  0  0  0  0  0  0  0  0  0  0
  1  2  1  0
  2  3  2  0
  2  4  1  0
  4  5  2  0
  5  6  1  0
  6  7  2  0
  7  8  1  0
  8  9  2  0
  9 10  1  0
 10 11  1  0
 10 12  1  0
 10 13  1  0
  9 14  1  0
 14 15  2  0
 15 16  1  0
 16 17  1  0
 17 18  2  0
 17 19  1  0
 19 20  1  0
 20 21  1  0
 21 22  1  0
 22 23  2  0
 22 24  1  1
 22 25  1  0
 16  4  1  0
 15  6  1  0
  1 26  1  0
  5 27  1  0
  7 28  1  0
  8 29  1  0
 14 30  1  0
 20 31  1  0
 20 32  1  0
 25 33  1  0
M  CHG  2   1  -1  24  -1
M  END
>  <UniqueID>  (51) 
51

>  <SMILES>  (51) 
[NH-]C(=O)c1cc2ccc(C(F)(F)F)cc2n1C(=O)OCO[P@](=O)([O-])O

>  <Energy>  (51) 
69.61705515218637

>  <Genealogy>  (51) 
[NH-]C(=O)c1cc2ccc(C(F)(F)F)cc2n1C(=O)OCOP(=O)([O-])O (protonated)
[NH-]C(=O)c1cc2ccc(C(F)(F)F)cc2n1C(=O)OCO[P@](=O)([O-])O (chirality)
[NH-]C(=O)c1cc2ccc(C(F)(F)F)cc2n1C(=O)OCO[P@](=O)([O-])O (3D coordinates assigned)
[NH-]C(=O)c1cc2ccc(C(F)(F)F)cc2n1C(=O)OCO[P@](=O)([O-])O (optimized conformer: 69.61705515218637 kcal/mol)

>  <smiles>  (51) 
NC(=O)c1cc2ccc(C(F)(F)F)cc2n1C(=O)OCOP(=O)(O)O

>  <score_type>  (51) 
oracle

>  <origin>  (51) 
adg

>  <m_score__min__energy>  (51) 
-5.2699999999999996

>  <m_primary>  (51) 
energy

$$$$
51:0
     RDKit          3D

 45 47  0  0  0  0  0  0  0  0999 V2000
  146.6050  162.6950  134.4900 N   0  0  0  0  0  0  0  0  0  0  0  0
  145.2390  162.5260  134.1080 C   0  0  0  0  0  0  0  0  0  0  0  0
  144.4870  163.5360  134.0430 O   0  0  0  0  0  0  0  0  0  0  0  0
  144.6760  161.1860  133.8520 C   0  0  0  0  0  0  0  0  0  0  0  0
  143.3310  160.8740  134.0280 C   0  0  0  0  0  0  0  0  0  0  0  0
  143.2310  159.5300  133.7510 C   0  0  0  0  0  0  0  0  0  0  0  0
  142.1170  158.7000  133.7550 C   0  0  0  0  0  0  0  0  0  0  0  0
  142.2960  157.3550  133.3890 C   0  0  0  0  0  0  0  0  0  0  0  0
  143.5730  156.8640  133.0160 C   0  0  0  0  0  0  0  0  0  0  0  0
  143.7000  155.4780  132.6380 N   0  0  0  0  0  0  0  0  0  0  0  0
  143.9970  154.3770  133.5690 C   0  0  1  0  0  0  0  0  0  0  0  0
  144.3270  153.0750  132.7880 C   0  0  0  0  0  0  0  0  0  0  0  0
  145.8320  152.7670  132.6790 C   0  0  0  0  0  0  0  0  0  0  0  0
  146.6910  154.0360  132.5980 C   0  0  0  0  0  0  0  0  0  0  0  0
  146.3850  154.9620  133.6990 N   0  0  0  0  0  0  0  0  0  0  0  0
  147.3010  156.0350  133.9890 C   0  0  0  0  0  0  0  0  0  0  0  0
  148.4460  156.0630  133.4640 O   0  0  0  0  0  0  0  0  0  0  0  0
  146.9300  157.0580  134.8540 O   0  0  0  0  0  0  0  0  0  0  0  0
  145.1600  154.7790  134.4920 C   0  0  0  0  0  0  0  0  0  0  0  0
  144.6840  157.7460  133.0250 C   0  0  0  0  0  0  0  0  0  0  0  0
  144.4800  159.0750  133.4150 C   0  0  0  0  0  0  0  0  0  0  0  0
  145.3800  160.0830  133.4690 N   0  0  0  0  0  0  0  0  0  0  0  0
  146.7630  160.0210  133.0800 C   0  0  0  0  0  0  0  0  0  0  0  0
  147.6680  160.2500  133.9290 O   0  0  0  0  0  0  0  0  0  0  0  0
  147.1010  159.7130  131.7590 O   0  0  0  0  0  0  0  0  0  0  0  0
  148.4150  159.3330  131.3690 C   0  0  0  0  0  0  0  0  0  0  0  0
  149.2250  160.7240  130.6190 Cl  0  0  0  0  0  0  0  0  0  0  0  0
  147.2060  161.8730  134.7190 H   0  0  0  0  0  0  0  0  0  0  0  0
  146.9950  163.6540  134.6280 H   0  0  0  0  0  0  0  0  0  0  0  0
  142.5209  161.5563  134.3251 H   0  0  0  0  0  0  0  0  0  0  0  0
  141.1252  159.0838  134.0360 H   0  0  0  0  0  0  0  0  0  0  0  0
  141.4329  156.6731  133.3919 H   0  0  0  0  0  0  0  0  0  0  0  0
  143.6170  155.2510  131.6190 H   0  0  0  0  0  0  0  0  0  0  0  0
  143.1097  154.1788  134.1882 H   0  0  0  0  0  0  0  0  0  0  0  0
  143.8390  152.2327  133.3002 H   0  0  0  0  0  0  0  0  0  0  0  0
  143.9597  153.2211  131.7615 H   0  0  0  0  0  0  0  0  0  0  0  0
  146.1384  152.1904  133.5642 H   0  0  0  0  0  0  0  0  0  0  0  0
  145.9889  152.1993  131.7500 H   0  0  0  0  0  0  0  0  0  0  0  0
  147.7527  153.7536  132.6524 H   0  0  0  0  0  0  0  0  0  0  0  0
  146.4704  154.5434  131.6473 H   0  0  0  0  0  0  0  0  0  0  0  0
  145.3233  153.9884  135.2391 H   0  0  0  0  0  0  0  0  0  0  0  0
  144.9114  155.7228  134.9994 H   0  0  0  0  0  0  0  0  0  0  0  0
  145.6839  157.3934  132.7319 H   0  0  0  0  0  0  0  0  0  0  0  0
  148.9826  159.0096  132.2540 H   0  0  0  0  0  0  0  0  0  0  0  0
  148.3619  158.5031  130.6489 H   0  0  0  0  0  0  0  0  0  0  0  0
  1  2  1  0
  2  3  2  0
  2  4  1  0
  4  5  2  0
  5  6  1  0
  6  7  2  0
  7  8  1  0
  8  9  2  0
  9 10  1  0
 10 11  1  0
 11 12  1  0
 12 13  1  0
 13 14  1  0
 14 15  1  0
 15 16  1  0
 16 17  2  0
 16 18  1  0
 15 19  1  0
  9 20  1  0
 20 21  2  0
 21 22  1  0
 22 23  1  0
 23 24  2  0
 23 25  1  0
 25 26  1  0
 26 27  1  0
 22  4  1  0
 21  6  1  0
 19 11  1  0
  1 28  1  0
  1 29  1  0
  5 30  1  0
  7 31  1  0
  8 32  1  0
 10 33  1  0
 11 34  1  1
 12 35  1  0
 12 36  1  0
 13 37  1  0
 13 38  1  0
 14 39  1  0
 14 40  1  0
 19 41  1  0
 19 42  1  0
 20 43  1  0
 26 44  1  0
 26 45  1  0
M  CHG  1  18  -1
M  END
>  <UniqueID>  (52) 
52

>  <SMILES>  (52) 
NC(=O)c1cc2ccc(N[C@H]3CCCN(C(=O)[O-])C3)cc2n1C(=O)OCCl

>  <Energy>  (52) 
85.40797544478032

>  <Genealogy>  (52) 
NC(=O)c1cc2ccc(N[C@H]3CCCN(C(=O)[O-])C3)cc2n1C(=O)OCCl (protonated)
NC(=O)c1cc2ccc(N[C@H]3CCCN(C(=O)[O-])C3)cc2n1C(=O)OCCl (3D coordinates assigned)
NC(=O)c1cc2ccc(N[C@H]3CCCN(C(=O)[O-])C3)cc2n1C(=O)OCCl (nonaromatic ring conformer: 85.40797544478032 kcal/mol)

>  <smiles>  (52) 
NC(=O)c1cc2ccc(N[C@H]3CCCN(C(=O)O)C3)cc2n1C(=O)OCCl

>  <score_type>  (52) 
oracle

>  <origin>  (52) 
adg

>  <m_score__min__energy>  (52) 
-8.4700000000000006

>  <m_primary>  (52) 
energy

$$$$
52:0
     RDKit          3D

 54 55  0  0  0  0  0  0  0  0999 V2000
  141.4570  156.9440  136.6800 C   0  0  0  0  0  0  0  0  0  0  0  0
  140.6290  156.6650  135.5040 N   0  0  0  0  0  0  0  0  0  0  0  0
  140.9070  155.4740  134.6880 C   0  0  0  0  0  0  0  0  0  0  0  0
  141.8340  154.4840  135.4110 C   0  0  0  0  0  0  0  0  0  0  0  0
  143.1420  154.2090  134.6440 C   0  0  0  0  0  0  0  0  0  0  0  0
  144.0660  155.4020  134.6160 C   0  0  0  0  0  0  0  0  0  0  0  0
  145.0090  155.4610  135.4500 O   0  0  0  0  0  0  0  0  0  0  0  0
  143.8650  156.4960  133.6970 N   0  0  0  0  0  0  0  0  0  0  0  0
  143.6310  156.1820  132.2840 C   0  0  0  0  0  0  0  0  0  0  0  0
  144.1230  157.8660  134.0810 C   0  0  0  0  0  0  0  0  0  0  0  0
  143.2740  158.5020  134.7670 O   0  0  0  0  0  0  0  0  0  0  0  0
  145.3220  158.5400  133.6630 N   0  0  0  0  0  0  0  0  0  0  0  0
  145.5030  159.8710  133.4390 C   0  0  0  0  0  0  0  0  0  0  0  0
  144.4940  160.9280  133.7040 C   0  0  0  0  0  0  0  0  0  0  0  0
  143.1020  160.7030  133.4650 N   0  0  0  0  0  0  0  0  0  0  0  0
  144.8590  162.0580  134.1250 O   0  0  0  0  0  0  0  0  0  0  0  0
  146.8000  160.1040  132.9760 C   0  0  0  0  0  0  0  0  0  0  0  0
  147.4050  158.8680  132.9360 C   0  0  0  0  0  0  0  0  0  0  0  0
  148.6760  158.5030  132.5040 C   0  0  0  0  0  0  0  0  0  0  0  0
  149.0130  157.1380  132.5250 C   0  0  0  0  0  0  0  0  0  0  0  0
  148.0890  156.1690  132.9960 C   0  0  0  0  0  0  0  0  0  0  0  0
  148.4250  154.7010  132.9490 C   0  0  0  0  0  0  0  0  0  0  0  0
  147.4380  154.0300  132.2520 F   0  0  0  0  0  0  0  0  0  0  0  0
  149.6390  154.4900  132.3190 F   0  0  0  0  0  0  0  0  0  0  0  0
  148.5040  154.1840  134.2290 F   0  0  0  0  0  0  0  0  0  0  0  0
  146.8010  156.5810  133.4090 C   0  0  0  0  0  0  0  0  0  0  0  0
  146.4960  157.9440  133.3730 C   0  0  0  0  0  0  0  0  0  0  0  0
  139.6190  157.6160  135.1150 C   0  0  0  0  0  0  0  0  0  0  0  0
  139.2790  158.5410  135.9040 O   0  0  0  0  0  0  0  0  0  0  0  0
  138.9960  157.4980  133.8650 O   0  0  0  0  0  0  0  0  0  0  0  0
  139.1050  158.4790  132.8370 C   0  0  0  0  0  0  0  0  0  0  0  0
  140.4850  159.0510  132.7990 C   0  0  0  0  0  0  0  0  0  0  0  0
  141.4740  158.3120  132.5540 O   0  0  0  0  0  0  0  0  0  0  0  0
  140.6760  160.4100  133.0180 O   0  0  0  0  0  0  0  0  0  0  0  0
  140.8753  156.7480  137.5928 H   0  0  0  0  0  0  0  0  0  0  0  0
  142.3455  156.2956  136.6651 H   0  0  0  0  0  0  0  0  0  0  0  0
  141.7719  157.9979  136.6651 H   0  0  0  0  0  0  0  0  0  0  0  0
  139.9563  154.9693  134.4610 H   0  0  0  0  0  0  0  0  0  0  0  0
  141.4126  155.8030  133.7681 H   0  0  0  0  0  0  0  0  0  0  0  0
  142.0875  154.8987  136.3978 H   0  0  0  0  0  0  0  0  0  0  0  0
  141.2944  153.5288  135.4916 H   0  0  0  0  0  0  0  0  0  0  0  0
  143.6644  153.3713  135.1292 H   0  0  0  0  0  0  0  0  0  0  0  0
  142.8726  153.9746  133.6036 H   0  0  0  0  0  0  0  0  0  0  0  0
  142.9753  155.3021  132.2076 H   0  0  0  0  0  0  0  0  0  0  0  0
  143.1509  157.0409  131.7922 H   0  0  0  0  0  0  0  0  0  0  0  0
  144.5912  155.9675  131.7922 H   0  0  0  0  0  0  0  0  0  0  0  0
  142.7410  159.7960  133.0980 H   0  0  0  0  0  0  0  0  0  0  0  0
  142.4120  161.4630  133.6500 H   0  0  0  0  0  0  0  0  0  0  0  0
  147.2447  161.0718  132.7011 H   0  0  0  0  0  0  0  0  0  0  0  0
  149.3954  159.2591  132.1566 H   0  0  0  0  0  0  0  0  0  0  0  0
  150.0044  156.8174  132.1723 H   0  0  0  0  0  0  0  0  0  0  0  0
  146.0571  155.8461  133.7504 H   0  0  0  0  0  0  0  0  0  0  0  0
  138.8805  158.0121  131.8667 H   0  0  0  0  0  0  0  0  0  0  0  0
  138.3910  159.2898  133.0438 H   0  0  0  0  0  0  0  0  0  0  0  0
  1  2  1  0
  2  3  1  0
  3  4  1  0
  4  5  1  0
  5  6  1  0
  6  7  2  0
  6  8  1  0
  8  9  1  0
  8 10  1  0
 10 11  2  0
 10 12  1  0
 12 13  1  0
 13 14  1  0
 14 15  1  0
 14 16  2  0
 13 17  2  0
 17 18  1  0
 18 19  2  0
 19 20  1  0
 20 21  2  0
 21 22  1  0
 22 23  1  0
 22 24  1  0
 22 25  1  0
 21 26  1  0
 26 27  2  0
  2 28  1  0
 28 29  2  0
 28 30  1  0
 30 31  1  0
 31 32  1  0
 32 33  2  0
 32 34  1  0
 27 12  1  0
 27 18  1  0
  1 35  1  0
  1 36  1  0
  1 37  1  0
  3 38  1  0
  3 39  1  0
  4 40  1  0
  4 41  1  0
  5 42  1  0
  5 43  1  0
  9 44  1  0
  9 45  1  0
  9 46  1  0
 15 47  1  0
 15 48  1  0
 17 49  1  0
 19 50  1  0
 20 51  1  0
 26 52  1  0
 31 53  1  0
 31 54  1  0
M  CHG  1  34  -1
M  END
>  <UniqueID>  (53) 
53

>  <SMILES>  (53) 
CN(CCCC(=O)N(C)C(=O)n1c(C(N)=O)cc2ccc(C(F)(F)F)cc21)C(=O)OCC(=O)[O-]

>  <Energy>  (53) 
86.06627220482

>  <Genealogy>  (53) 
CN(CCCC(=O)N(C)C(=O)n1c(C(N)=O)cc2ccc(C(F)(F)F)cc21)C(=O)OCC(=O)[O-] (protonated)
CN(CCCC(=O)N(C)C(=O)n1c(C(N)=O)cc2ccc(C(F)(F)F)cc21)C(=O)OCC(=O)[O-] (3D coordinates assigned)
CN(CCCC(=O)N(C)C(=O)n1c(C(N)=O)cc2ccc(C(F)(F)F)cc21)C(=O)OCC(=O)[O-] (optimized conformer: 86.06627220482 kcal/mol)

>  <smiles>  (53) 
CN(CCCC(=O)N(C)C(=O)n1c(C(N)=O)cc2ccc(C(F)(F)F)cc21)C(=O)OCC(=O)O

>  <score_type>  (53) 
oracle

>  <origin>  (53) 
adg

>  <m_score__min__energy>  (53) 
-6.7800000000000002

>  <m_primary>  (53) 
energy

$$$$
53:0
     RDKit          3D

 38 39  0  0  0  0  0  0  0  0999 V2000
  142.2180  160.2960  132.9970 N   0  0  0  0  0  0  0  0  0  0  0  0
  143.5120  160.7050  133.4300 C   0  0  0  0  0  0  0  0  0  0  0  0
  143.7110  161.9120  133.7290 O   0  0  0  0  0  0  0  0  0  0  0  0
  144.6310  159.7400  133.4970 C   0  0  0  0  0  0  0  0  0  0  0  0
  145.9680  160.1120  133.6200 C   0  0  0  0  0  0  0  0  0  0  0  0
  146.6810  158.9340  133.5680 C   0  0  0  0  0  0  0  0  0  0  0  0
  148.0520  158.7120  133.6260 C   0  0  0  0  0  0  0  0  0  0  0  0
  148.5070  157.3850  133.5440 C   0  0  0  0  0  0  0  0  0  0  0  0
  147.5920  156.3070  133.4260 C   0  0  0  0  0  0  0  0  0  0  0  0
  148.1070  154.8980  133.2820 C   0  0  0  0  0  0  0  0  0  0  0  0
  148.2900  154.3500  134.5390 F   0  0  0  0  0  0  0  0  0  0  0  0
  149.3120  154.8760  132.6040 F   0  0  0  0  0  0  0  0  0  0  0  0
  147.2020  154.1230  132.5800 F   0  0  0  0  0  0  0  0  0  0  0  0
  146.2040  156.5770  133.3510 C   0  0  0  0  0  0  0  0  0  0  0  0
  145.7840  157.9090  133.4230 C   0  0  0  0  0  0  0  0  0  0  0  0
  144.5240  158.3870  133.3810 N   0  0  0  0  0  0  0  0  0  0  0  0
  143.3290  157.6000  133.3050 C   0  0  0  0  0  0  0  0  0  0  0  0
  143.0570  156.9780  132.2430 O   0  0  0  0  0  0  0  0  0  0  0  0
  142.4670  157.4170  134.5160 C   0  0  0  0  0  0  0  0  0  0  0  0
  141.0390  157.6800  134.1570 C   0  0  0  0  0  0  0  0  0  0  0  0
  140.1310  157.4340  134.9970 O   0  0  0  0  0  0  0  0  0  0  0  0
  140.7040  158.1620  132.8470 N   0  0  0  0  0  0  0  0  0  0  0  0
  139.3220  158.3340  132.4040 C   0  0  0  0  0  0  0  0  0  0  0  0
  139.2580  159.2850  131.2090 C   0  0  0  0  0  0  0  0  0  0  0  0
  140.5090  159.3620  130.5810 O   0  0  0  0  0  0  0  0  0  0  0  0
  142.0940  159.7360  132.1240 H   0  0  0  0  0  0  0  0  0  0  0  0
  146.3692  161.1298  133.7343 H   0  0  0  0  0  0  0  0  0  0  0  0
  148.7583  159.5485  133.7327 H   0  0  0  0  0  0  0  0  0  0  0  0
  149.5872  157.1792  133.5717 H   0  0  0  0  0  0  0  0  0  0  0  0
  145.4753  155.7606  133.2391 H   0  0  0  0  0  0  0  0  0  0  0  0
  142.5681  156.3858  134.8854 H   0  0  0  0  0  0  0  0  0  0  0  0
  142.7831  158.1206  135.3003 H   0  0  0  0  0  0  0  0  0  0  0  0
  141.4740  158.4290  132.1930 H   0  0  0  0  0  0  0  0  0  0  0  0
  138.9113  157.3565  132.1113 H   0  0  0  0  0  0  0  0  0  0  0  0
  138.7338  158.7601  133.2301 H   0  0  0  0  0  0  0  0  0  0  0  0
  138.5130  158.9142  130.4896 H   0  0  0  0  0  0  0  0  0  0  0  0
  138.9734  160.2866  131.5636 H   0  0  0  0  0  0  0  0  0  0  0  0
  141.1560  159.6540  131.2760 H   0  0  0  0  0  0  0  0  0  0  0  0
  1  2  1  0
  2  3  2  0
  2  4  1  0
  4  5  2  0
  5  6  1  0
  6  7  2  0
  7  8  1  0
  8  9  2  0
  9 10  1  0
 10 11  1  0
 10 12  1  0
 10 13  1  0
  9 14  1  0
 14 15  2  0
 15 16  1  0
 16 17  1  0
 17 18  2  0
 17 19  1  0
 19 20  1  0
 20 21  2  0
 20 22  1  0
 22 23  1  0
 23 24  1  0
 24 25  1  0
 16  4  1  0
 15  6  1  0
  1 26  1  0
  5 27  1  0
  7 28  1  0
  8 29  1  0
 14 30  1  0
 19 31  1  0
 19 32  1  0
 22 33  1  0
 23 34  1  0
 23 35  1  0
 24 36  1  0
 24 37  1  0
 25 38  1  0
M  CHG  1   1  -1
M  END
>  <UniqueID>  (54) 
54

>  <SMILES>  (54) 
[NH-]C(=O)c1cc2ccc(C(F)(F)F)cc2n1C(=O)CC(=O)NCCO

>  <Energy>  (54) 
70.05041467901407

>  <Genealogy>  (54) 
[NH-]C(=O)c1cc2ccc(C(F)(F)F)cc2n1C(=O)CC(=O)NCCO (protonated)
[NH-]C(=O)c1cc2ccc(C(F)(F)F)cc2n1C(=O)CC(=O)NCCO (3D coordinates assigned)
[NH-]C(=O)c1cc2ccc(C(F)(F)F)cc2n1C(=O)CC(=O)NCCO (optimized conformer: 70.05041467901407 kcal/mol)

>  <smiles>  (54) 
NC(=O)c1cc2ccc(C(F)(F)F)cc2n1C(=O)CC(=O)NCCO

>  <score_type>  (54) 
oracle

>  <origin>  (54) 
adg

>  <m_score__min__energy>  (54) 
-5.7999999999999998

>  <m_primary>  (54) 
energy

$$$$
54:0
     RDKit          3D

 50 51  0  0  0  0  0  0  0  0999 V2000
  149.5990  160.1050  131.0350 C   0  0  0  0  0  0  0  0  0  0  0  0
  148.3160  160.3990  131.2730 C   0  0  0  0  0  0  0  0  0  0  0  0
  147.7680  160.4790  132.6700 C   0  0  0  0  0  0  0  0  0  0  0  0
  147.1320  159.1760  133.0690 C   0  0  0  0  0  0  0  0  0  0  0  0
  147.9420  158.0660  133.4220 C   0  0  0  0  0  0  0  0  0  0  0  0
  147.3570  156.8360  133.7680 C   0  0  0  0  0  0  0  0  0  0  0  0
  145.9690  156.7370  133.7240 C   0  0  0  0  0  0  0  0  0  0  0  0
  145.1440  155.6890  134.0580 C   0  0  0  0  0  0  0  0  0  0  0  0
  143.8470  156.1620  133.8640 C   0  0  0  0  0  0  0  0  0  0  0  0
  142.6400  155.3670  134.1870 C   0  0  0  0  0  0  0  0  0  0  0  0
  141.4130  155.5300  133.4750 N   0  0  0  0  0  0  0  0  0  0  0  0
  142.7040  154.4980  135.0980 O   0  0  0  0  0  0  0  0  0  0  0  0
  143.8700  157.4460  133.4060 N   0  0  0  0  0  0  0  0  0  0  0  0
  142.7570  158.3390  133.2290 C   0  0  0  0  0  0  0  0  0  0  0  0
  141.9830  158.1620  132.2490 O   0  0  0  0  0  0  0  0  0  0  0  0
  142.4960  159.4060  134.1680 N   0  0  0  0  0  0  0  0  0  0  0  0
  142.6960  160.7920  133.7370 C   0  0  0  0  0  0  0  0  0  0  0  0
  142.1250  159.1270  135.5650 C   0  0  0  0  0  0  0  0  0  0  0  0
  140.6010  158.9950  135.7170 C   0  0  0  0  0  0  0  0  0  0  0  0
  140.0480  157.9670  134.7760 C   0  0  0  0  0  0  0  0  0  0  0  0
  140.0000  156.7590  135.1360 O   0  0  0  0  0  0  0  0  0  0  0  0
  139.6220  158.3580  133.4600 N   0  0  0  0  0  0  0  0  0  0  0  0
  139.1570  157.4460  132.4570 C   0  0  0  0  0  0  0  0  0  0  0  0
  139.1510  156.2020  132.6700 O   0  0  0  0  0  0  0  0  0  0  0  0
  138.7100  157.9540  131.2340 O   0  0  0  0  0  0  0  0  0  0  0  0
  138.3810  159.3250  131.0460 C   0  0  0  0  0  0  0  0  0  0  0  0
  145.1760  157.7900  133.3520 C   0  0  0  0  0  0  0  0  0  0  0  0
  145.7270  159.0390  133.0440 C   0  0  0  0  0  0  0  0  0  0  0  0
  149.9688  160.0542  130.0003 H   0  0  0  0  0  0  0  0  0  0  0  0
  150.2843  159.9140  131.8740 H   0  0  0  0  0  0  0  0  0  0  0  0
  147.6437  160.5874  130.4230 H   0  0  0  0  0  0  0  0  0  0  0  0
  148.5879  160.7084  133.3665 H   0  0  0  0  0  0  0  0  0  0  0  0
  147.0040  161.2697  132.7046 H   0  0  0  0  0  0  0  0  0  0  0  0
  149.0372  158.1690  133.4249 H   0  0  0  0  0  0  0  0  0  0  0  0
  147.9771  155.9773  134.0647 H   0  0  0  0  0  0  0  0  0  0  0  0
  145.4438  154.6891  134.4048 H   0  0  0  0  0  0  0  0  0  0  0  0
  140.5690  154.9840  133.7600 H   0  0  0  0  0  0  0  0  0  0  0  0
  141.3550  156.1010  132.6070 H   0  0  0  0  0  0  0  0  0  0  0  0
  142.7896  161.4408  134.6203 H   0  0  0  0  0  0  0  0  0  0  0  0
  143.6132  160.8596  133.1335 H   0  0  0  0  0  0  0  0  0  0  0  0
  141.8353  161.1162  133.1335 H   0  0  0  0  0  0  0  0  0  0  0  0
  142.6004  158.1871  135.8821 H   0  0  0  0  0  0  0  0  0  0  0  0
  142.4674  159.9640  136.1913 H   0  0  0  0  0  0  0  0  0  0  0  0
  140.3681  158.6976  136.7501 H   0  0  0  0  0  0  0  0  0  0  0  0
  140.1424  159.9662  135.4796 H   0  0  0  0  0  0  0  0  0  0  0  0
  139.6490  159.3740  133.2130 H   0  0  0  0  0  0  0  0  0  0  0  0
  138.2642  159.8117  132.0255 H   0  0  0  0  0  0  0  0  0  0  0  0
  139.1855  159.8214  130.4835 H   0  0  0  0  0  0  0  0  0  0  0  0
  137.4388  159.4022  130.4835 H   0  0  0  0  0  0  0  0  0  0  0  0
  145.0817  159.8925  132.7889 H   0  0  0  0  0  0  0  0  0  0  0  0
  1  2  2  0
  2  3  1  0
  3  4  1  0
  4  5  2  0
  5  6  1  0
  6  7  2  0
  7  8  1  0
  8  9  2  0
  9 10  1  0
 10 11  1  0
 10 12  2  0
  9 13  1  0
 13 14  1  0
 14 15  2  0
 14 16  1  0
 16 17  1  0
 16 18  1  0
 18 19  1  0
 19 20  1  0
 20 21  2  0
 20 22  1  0
 22 23  1  0
 23 24  2  0
 23 25  1  0
 25 26  1  0
 13 27  1  0
 27 28  2  0
 28  4  1  0
 27  7  1  0
  1 29  1  0
  1 30  1  0
  2 31  1  0
  3 32  1  0
  3 33  1  0
  5 34  1  0
  6 35  1  0
  8 36  1  0
 11 37  1  0
 11 38  1  0
 17 39  1  0
 17 40  1  0
 17 41  1  0
 18 42  1  0
 18 43  1  0
 19 44  1  0
 19 45  1  0
 22 46  1  0
 26 47  1  0
 26 48  1  0
 26 49  1  0
 28 50  1  0
M  END
>  <UniqueID>  (55) 
55

>  <SMILES>  (55) 
C=CCc1ccc2cc(C(N)=O)n(C(=O)N(C)CCC(=O)NC(=O)OC)c2c1

>  <Energy>  (55) 
80.67415152296094

>  <Genealogy>  (55) 
C=CCc1ccc2cc(C(N)=O)n(C(=O)N(C)CCC(=O)NC(=O)OC)c2c1 (3D coordinates assigned)
C=CCc1ccc2cc(C(N)=O)n(C(=O)N(C)CCC(=O)NC(=O)OC)c2c1 (optimized conformer: 80.67415152296094 kcal/mol)

>  <smiles>  (55) 
C=CCc1ccc2cc(C(N)=O)n(C(=O)N(C)CCC(=O)NC(=O)OC)c2c1

>  <score_type>  (55) 
oracle

>  <origin>  (55) 
adg

>  <m_score__min__energy>  (55) 
-7.9199999999999999

>  <m_primary>  (55) 
energy

$$$$
55:0
     RDKit          3D

 40 41  0  0  0  0  0  0  0  0999 V2000
  148.5990  155.3550  132.6270 C   0  0  0  0  0  0  0  0  0  0  0  0
  148.0710  156.7500  132.7690 C   0  0  0  0  0  0  0  0  0  0  0  0
  148.9600  157.8520  132.7370 C   0  0  0  0  0  0  0  0  0  0  0  0
  148.4840  159.1600  132.9200 C   0  0  0  0  0  0  0  0  0  0  0  0
  147.1200  159.3350  133.1350 C   0  0  0  0  0  0  0  0  0  0  0  0
  146.4060  160.4850  133.3800 C   0  0  0  0  0  0  0  0  0  0  0  0
  145.0880  160.0700  133.5440 C   0  0  0  0  0  0  0  0  0  0  0  0
  143.9660  161.0030  133.7720 C   0  0  0  0  0  0  0  0  0  0  0  0
  142.6820  160.5300  134.1810 N   0  0  0  0  0  0  0  0  0  0  0  0
  144.1290  162.2320  133.5500 O   0  0  0  0  0  0  0  0  0  0  0  0
  144.9880  158.7170  133.4190 N   0  0  0  0  0  0  0  0  0  0  0  0
  143.8210  157.9070  133.6430 C   0  0  0  0  0  0  0  0  0  0  0  0
  143.7260  157.2190  134.6950 O   0  0  0  0  0  0  0  0  0  0  0  0
  142.7970  157.8970  132.6850 O   0  0  0  0  0  0  0  0  0  0  0  0
  141.4370  158.1060  132.9530 C   0  0  0  0  0  0  0  0  0  0  0  0
  140.8920  159.2120  132.6890 O   0  0  0  0  0  0  0  0  0  0  0  0
  140.6700  157.0250  133.5970 C   0  0  0  0  0  0  0  0  0  0  0  0
  139.7630  156.4630  132.9230 O   0  0  0  0  0  0  0  0  0  0  0  0
  140.9200  156.5820  134.9520 N   0  0  0  0  0  0  0  0  0  0  0  0
  141.3680  155.2000  135.1560 C   0  0  0  0  0  0  0  0  0  0  0  0
  140.6330  157.4340  136.1180 C   0  0  0  0  0  0  0  0  0  0  0  0
  141.2780  158.7770  135.9640 C   0  0  0  0  0  0  0  0  0  0  0  0
  142.4520  158.9700  136.3730 O   0  0  0  0  0  0  0  0  0  0  0  0
  140.5800  159.8150  135.3590 O   0  0  0  0  0  0  0  0  0  0  0  0
  146.2430  158.2800  133.1650 C   0  0  0  0  0  0  0  0  0  0  0  0
  146.6950  156.9630  133.0060 C   0  0  0  0  0  0  0  0  0  0  0  0
  148.7630  154.9217  133.6247 H   0  0  0  0  0  0  0  0  0  0  0  0
  147.8708  154.7416  132.0760 H   0  0  0  0  0  0  0  0  0  0  0  0
  149.5508  155.3775  132.0760 H   0  0  0  0  0  0  0  0  0  0  0  0
  150.0334  157.6815  132.5672 H   0  0  0  0  0  0  0  0  0  0  0  0
  149.1684  160.0207  132.8942 H   0  0  0  0  0  0  0  0  0  0  0  0
  146.7940  161.5129  133.4346 H   0  0  0  0  0  0  0  0  0  0  0  0
  142.4680  159.5090  134.2130 H   0  0  0  0  0  0  0  0  0  0  0  0
  141.9130  161.2080  134.3810 H   0  0  0  0  0  0  0  0  0  0  0  0
  141.4355  154.9918  136.2340 H   0  0  0  0  0  0  0  0  0  0  0  0
  140.6478  154.5090  134.6935 H   0  0  0  0  0  0  0  0  0  0  0  0
  142.3566  155.0630  134.6935 H   0  0  0  0  0  0  0  0  0  0  0  0
  139.5447  157.5646  136.2106 H   0  0  0  0  0  0  0  0  0  0  0  0
  141.0372  156.9487  137.0186 H   0  0  0  0  0  0  0  0  0  0  0  0
  145.9954  156.1161  133.0643 H   0  0  0  0  0  0  0  0  0  0  0  0
  1  2  1  0
  2  3  2  0
  3  4  1  0
  4  5  2  0
  5  6  1  0
  6  7  2  0
  7  8  1  0
  8  9  1  0
  8 10  2  0
  7 11  1  0
 11 12  1  0
 12 13  2  0
 12 14  1  0
 14 15  1  0
 15 16  2  0
 15 17  1  0
 17 18  2  0
 17 19  1  0
 19 20  1  0
 19 21  1  0
 21 22  1  0
 22 23  2  0
 22 24  1  0
 11 25  1  0
 25 26  2  0
 26  2  1  0
 25  5  1  0
  1 27  1  0
  1 28  1  0
  1 29  1  0
  3 30  1  0
  4 31  1  0
  6 32  1  0
  9 33  1  0
  9 34  1  0
 20 35  1  0
 20 36  1  0
 20 37  1  0
 21 38  1  0
 21 39  1  0
 26 40  1  0
M  CHG  1  24  -1
M  END
>  <UniqueID>  (56) 
56

>  <SMILES>  (56) 
Cc1ccc2cc(C(N)=O)n(C(=O)OC(=O)C(=O)N(C)CC(=O)[O-])c2c1

>  <Energy>  (56) 
79.83545170265818

>  <Genealogy>  (56) 
Cc1ccc2cc(C(N)=O)n(C(=O)OC(=O)C(=O)N(C)CC(=O)[O-])c2c1 (protonated)
Cc1ccc2cc(C(N)=O)n(C(=O)OC(=O)C(=O)N(C)CC(=O)[O-])c2c1 (3D coordinates assigned)
Cc1ccc2cc(C(N)=O)n(C(=O)OC(=O)C(=O)N(C)CC(=O)[O-])c2c1 (optimized conformer: 79.83545170265818 kcal/mol)

>  <smiles>  (56) 
Cc1ccc2cc(C(N)=O)n(C(=O)OC(=O)C(=O)N(C)CC(=O)O)c2c1

>  <score_type>  (56) 
oracle

>  <origin>  (56) 
adg

>  <m_score__min__energy>  (56) 
-6.4900000000000002

>  <m_primary>  (56) 
energy

$$$$
56:0
     RDKit          3D

 39 40  0  0  0  0  0  0  0  0999 V2000
  139.7490  159.3420  130.4910 C   0  0  0  0  0  0  0  0  0  0  0  0
  140.5900  159.1290  131.6010 O   0  0  0  0  0  0  0  0  0  0  0  0
  139.8440  159.2840  132.7910 C   0  0  0  0  0  0  0  0  0  0  0  0
  138.7960  158.1740  132.8880 C   0  0  0  0  0  0  0  0  0  0  0  0
  139.1160  157.1860  134.0150 C   0  0  0  0  0  0  0  0  0  0  0  0
  140.3580  156.4750  133.7320 N   0  0  0  0  0  0  0  0  0  0  0  0
  140.4060  155.1610  133.1660 C   0  0  0  0  0  0  0  0  0  0  0  0
  139.3410  154.5820  132.8180 O   0  0  0  0  0  0  0  0  0  0  0  0
  141.6680  154.4950  133.0030 N   0  0  0  0  0  0  0  0  0  0  0  0
  142.9070  155.0630  132.9970 C   0  0  0  0  0  0  0  0  0  0  0  0
  143.1930  156.5120  133.0020 C   0  0  0  0  0  0  0  0  0  0  0  0
  142.2850  157.4490  132.4190 N   0  0  0  0  0  0  0  0  0  0  0  0
  144.2820  156.9250  133.4800 O   0  0  0  0  0  0  0  0  0  0  0  0
  143.8970  154.0850  132.9400 C   0  0  0  0  0  0  0  0  0  0  0  0
  143.2200  152.8870  132.8980 C   0  0  0  0  0  0  0  0  0  0  0  0
  143.7110  151.5860  132.8650 C   0  0  0  0  0  0  0  0  0  0  0  0
  142.7840  150.5310  132.8780 C   0  0  0  0  0  0  0  0  0  0  0  0
  141.3890  150.7910  132.9170 C   0  0  0  0  0  0  0  0  0  0  0  0
  140.4070  149.6510  132.9990 C   0  0  0  0  0  0  0  0  0  0  0  0
  139.1680  150.0390  132.5190 F   0  0  0  0  0  0  0  0  0  0  0  0
  140.8430  148.5740  132.2470 F   0  0  0  0  0  0  0  0  0  0  0  0
  140.2760  149.2560  134.3170 F   0  0  0  0  0  0  0  0  0  0  0  0
  140.9320  152.1280  132.9780 C   0  0  0  0  0  0  0  0  0  0  0  0
  141.8770  153.1600  132.9390 C   0  0  0  0  0  0  0  0  0  0  0  0
  138.7380  159.5980  130.8408 H   0  0  0  0  0  0  0  0  0  0  0  0
  140.1467  160.1678  129.8828 H   0  0  0  0  0  0  0  0  0  0  0  0
  139.7057  158.4265  129.8828 H   0  0  0  0  0  0  0  0  0  0  0  0
  140.5199  159.2260  133.6569 H   0  0  0  0  0  0  0  0  0  0  0  0
  139.3405  160.2619  132.7817 H   0  0  0  0  0  0  0  0  0  0  0  0
  137.8130  158.6283  133.0812 H   0  0  0  0  0  0  0  0  0  0  0  0
  138.7957  157.6201  131.9376 H   0  0  0  0  0  0  0  0  0  0  0  0
  139.2217  157.7374  134.9609 H   0  0  0  0  0  0  0  0  0  0  0  0
  138.2969  156.4558  134.0920 H   0  0  0  0  0  0  0  0  0  0  0  0
  142.4830  158.4720  132.4730 H   0  0  0  0  0  0  0  0  0  0  0  0
  141.4640  157.1290  131.8590 H   0  0  0  0  0  0  0  0  0  0  0  0
  144.9864  154.2372  132.9306 H   0  0  0  0  0  0  0  0  0  0  0  0
  144.7927  151.3894  132.8298 H   0  0  0  0  0  0  0  0  0  0  0  0
  143.1430  149.4914  132.8577 H   0  0  0  0  0  0  0  0  0  0  0  0
  139.8578  152.3520  133.0544 H   0  0  0  0  0  0  0  0  0  0  0  0
  1  2  1  0
  2  3  1  0
  3  4  1  0
  4  5  1  0
  5  6  1  0
  6  7  1  0
  7  8  2  0
  7  9  1  0
  9 10  1  0
 10 11  1  0
 11 12  1  0
 11 13  2  0
 10 14  2  0
 14 15  1  0
 15 16  2  0
 16 17  1  0
 17 18  2  0
 18 19  1  0
 19 20  1  0
 19 21  1  0
 19 22  1  0
 18 23  1  0
 23 24  2  0
 24  9  1  0
 24 15  1  0
  1 25  1  0
  1 26  1  0
  1 27  1  0
  3 28  1  0
  3 29  1  0
  4 30  1  0
  4 31  1  0
  5 32  1  0
  5 33  1  0
 12 34  1  0
 12 35  1  0
 14 36  1  0
 16 37  1  0
 17 38  1  0
 23 39  1  0
M  CHG  1   6  -1
M  END
>  <UniqueID>  (57) 
57

>  <SMILES>  (57) 
COCCC[N-]C(=O)n1c(C(N)=O)cc2ccc(C(F)(F)F)cc21

>  <Energy>  (57) 
73.83409918042858

>  <Genealogy>  (57) 
COCCC[N-]C(=O)n1c(C(N)=O)cc2ccc(C(F)(F)F)cc21 (protonated)
COCCC[N-]C(=O)n1c(C(N)=O)cc2ccc(C(F)(F)F)cc21 (3D coordinates assigned)
COCCC[N-]C(=O)n1c(C(N)=O)cc2ccc(C(F)(F)F)cc21 (optimized conformer: 73.83409918042858 kcal/mol)

>  <smiles>  (57) 
COCCCNC(=O)n1c(C(N)=O)cc2ccc(C(F)(F)F)cc21

>  <score_type>  (57) 
oracle

>  <origin>  (57) 
adg

>  <m_score__min__energy>  (57) 
-6.0599999999999996

>  <m_primary>  (57) 
energy

$$$$
57:0
     RDKit          3D

 57 59  0  0  0  0  0  0  0  0999 V2000
  141.3650  158.8710  133.8250 C   0  0  0  0  0  0  0  0  0  0  0  0
  142.7950  159.3090  133.7620 C   0  0  0  0  0  0  0  0  0  0  0  0
  143.1180  160.6700  133.9450 C   0  0  0  0  0  0  0  0  0  0  0  0
  144.4460  161.1080  133.8200 C   0  0  0  0  0  0  0  0  0  0  0  0
  145.4190  160.1580  133.5260 C   0  0  0  0  0  0  0  0  0  0  0  0
  146.7550  160.3260  133.2540 C   0  0  0  0  0  0  0  0  0  0  0  0
  147.2390  159.0500  132.9660 C   0  0  0  0  0  0  0  0  0  0  0  0
  148.6390  158.7750  132.5430 C   0  0  0  0  0  0  0  0  0  0  0  0
  148.9240  157.8650  131.4710 N   0  0  0  0  0  0  0  0  0  0  0  0
  149.5990  159.3250  133.1320 O   0  0  0  0  0  0  0  0  0  0  0  0
  146.2440  158.1200  133.1080 N   0  0  0  0  0  0  0  0  0  0  0  0
  146.3600  156.6830  133.0460 C   0  0  0  0  0  0  0  0  0  0  0  0
  147.0690  156.1490  132.1550 O   0  0  0  0  0  0  0  0  0  0  0  0
  145.6180  155.7900  134.0100 C   0  0  0  0  0  0  0  0  0  0  0  0
  144.2940  155.3800  133.5200 N   0  0  0  0  0  0  0  0  0  0  0  0
  143.2350  155.1100  134.5020 C   0  0  0  0  0  0  0  0  0  0  0  0
  142.9110  153.6240  134.5940 C   0  0  0  0  0  0  0  0  0  0  0  0
  142.7260  153.0610  133.2600 N   0  0  0  0  0  0  0  0  0  0  0  0
  141.7120  152.0560  133.0660 C   0  0  0  0  0  0  0  0  0  0  0  0
  140.5920  152.2110  133.6150 O   0  0  0  0  0  0  0  0  0  0  0  0
  141.9700  150.7780  132.2970 C   0  0  0  0  0  0  0  0  0  0  0  0
  140.6920  149.9270  132.0350 C   0  0  0  0  0  0  0  0  0  0  0  0
  140.9340  148.8590  130.9460 C   0  0  0  0  0  0  0  0  0  0  0  0
  140.2240  149.2440  133.3290 C   0  0  0  0  0  0  0  0  0  0  0  0
  139.6480  150.7780  131.6180 O   0  0  0  0  0  0  0  0  0  0  0  0
  143.7900  153.2680  132.2780 C   0  0  0  0  0  0  0  0  0  0  0  0
  144.1890  154.7450  132.1990 C   0  0  0  0  0  0  0  0  0  0  0  0
  145.1270  158.8270  133.3960 C   0  0  0  0  0  0  0  0  0  0  0  0
  143.8110  158.3780  133.4580 C   0  0  0  0  0  0  0  0  0  0  0  0
  141.0565  158.7765  134.8766 H   0  0  0  0  0  0  0  0  0  0  0  0
  140.7308  159.6161  133.3223 H   0  0  0  0  0  0  0  0  0  0  0  0
  141.2569  157.8986  133.3223 H   0  0  0  0  0  0  0  0  0  0  0  0
  142.3246  161.3924  134.1871 H   0  0  0  0  0  0  0  0  0  0  0  0
  144.7088  162.1682  133.9503 H   0  0  0  0  0  0  0  0  0  0  0  0
  147.3231  161.2679  133.2617 H   0  0  0  0  0  0  0  0  0  0  0  0
  149.9170  157.6790  131.2070 H   0  0  0  0  0  0  0  0  0  0  0  0
  148.1740  157.3300  130.9830 H   0  0  0  0  0  0  0  0  0  0  0  0
  146.2211  154.8867  134.1843 H   0  0  0  0  0  0  0  0  0  0  0  0
  145.4599  156.3667  134.9332 H   0  0  0  0  0  0  0  0  0  0  0  0
  143.5670  155.4634  135.4894 H   0  0  0  0  0  0  0  0  0  0  0  0
  142.3261  155.6376  134.1770 H   0  0  0  0  0  0  0  0  0  0  0  0
  143.7394  153.1026  135.0960 H   0  0  0  0  0  0  0  0  0  0  0  0
  141.9814  153.4959  135.1679 H   0  0  0  0  0  0  0  0  0  0  0  0
  142.4146  151.0423  131.3262 H   0  0  0  0  0  0  0  0  0  0  0  0
  142.6398  150.1636  132.9166 H   0  0  0  0  0  0  0  0  0  0  0  0
  141.1531  147.8922  131.4228 H   0  0  0  0  0  0  0  0  0  0  0  0
  140.0347  148.7635  130.3198 H   0  0  0  0  0  0  0  0  0  0  0  0
  141.7866  149.1605  130.3198 H   0  0  0  0  0  0  0  0  0  0  0  0
  140.6061  149.8016  134.1968 H   0  0  0  0  0  0  0  0  0  0  0  0
  139.1245  149.2283  133.3584 H   0  0  0  0  0  0  0  0  0  0  0  0
  140.6063  148.2130  133.3584 H   0  0  0  0  0  0  0  0  0  0  0  0
  139.9990  151.7050  131.5910 H   0  0  0  0  0  0  0  0  0  0  0  0
  144.6685  152.6738  132.5698 H   0  0  0  0  0  0  0  0  0  0  0  0
  143.4202  152.9531  131.2911 H   0  0  0  0  0  0  0  0  0  0  0  0
  145.1642  154.8187  131.6955 H   0  0  0  0  0  0  0  0  0  0  0  0
  143.3999  155.2709  131.6415 H   0  0  0  0  0  0  0  0  0  0  0  0
  143.5683  157.3210  133.2741 H   0  0  0  0  0  0  0  0  0  0  0  0
  1  2  1  0
  2  3  2  0
  3  4  1  0
  4  5  2  0
  5  6  1  0
  6  7  2  0
  7  8  1  0
  8  9  1  0
  8 10  2  0
  7 11  1  0
 11 12  1  0
 12 13  2  0
 12 14  1  0
 14 15  1  0
 15 16  1  0
 16 17  1  0
 17 18  1  0
 18 19  1  0
 19 20  2  0
 19 21  1  0
 21 22  1  0
 22 23  1  0
 22 24  1  0
 22 25  1  0
 18 26  1  0
 26 27  1  0
 11 28  1  0
 28 29  2  0
 29  2  1  0
 28  5  1  0
 27 15  1  0
  1 30  1  0
  1 31  1  0
  1 32  1  0
  3 33  1  0
  4 34  1  0
  6 35  1  0
  9 36  1  0
  9 37  1  0
 14 38  1  0
 14 39  1  0
 16 40  1  0
 16 41  1  0
 17 42  1  0
 17 43  1  0
 21 44  1  0
 21 45  1  0
 23 46  1  0
 23 47  1  0
 23 48  1  0
 24 49  1  0
 24 50  1  0
 24 51  1  0
 25 52  1  0
 26 53  1  0
 26 54  1  0
 27 55  1  0
 27 56  1  0
 29 57  1  0
M  END
>  <UniqueID>  (58) 
58

>  <SMILES>  (58) 
Cc1ccc2cc(C(N)=O)n(C(=O)CN3CCN(C(=O)CC(C)(C)O)CC3)c2c1

>  <Energy>  (58) 
109.550524542723

>  <Genealogy>  (58) 
Cc1ccc2cc(C(N)=O)n(C(=O)CN3CCN(C(=O)CC(C)(C)O)CC3)c2c1 (3D coordinates assigned)
Cc1ccc2cc(C(N)=O)n(C(=O)CN3CCN(C(=O)CC(C)(C)O)CC3)c2c1 (nonaromatic ring conformer: 109.550524542723 kcal/mol)

>  <smiles>  (58) 
Cc1ccc2cc(C(N)=O)n(C(=O)CN3CCN(C(=O)CC(C)(C)O)CC3)c2c1

>  <score_type>  (58) 
oracle

>  <origin>  (58) 
adg

>  <m_score__min__energy>  (58) 
-9.0600000000000005

>  <m_primary>  (58) 
energy

$$$$
58:0
     RDKit          3D

 39 40  0  0  0  0  0  0  0  0999 V2000
  145.7000  154.5320  133.1030 C   0  0  0  0  0  0  0  0  0  0  0  0
  145.9720  156.0070  133.1320 C   0  0  0  0  0  0  0  0  0  0  0  0
  147.2790  156.4900  132.8800 C   0  0  0  0  0  0  0  0  0  0  0  0
  147.5550  157.8680  132.9330 C   0  0  0  0  0  0  0  0  0  0  0  0
  146.5140  158.7290  133.2630 C   0  0  0  0  0  0  0  0  0  0  0  0
  146.4960  160.1020  133.3640 C   0  0  0  0  0  0  0  0  0  0  0  0
  145.1880  160.4320  133.7130 C   0  0  0  0  0  0  0  0  0  0  0  0
  144.7380  161.8170  133.9730 C   0  0  0  0  0  0  0  0  0  0  0  0
  143.3890  162.2110  133.7320 N   0  0  0  0  0  0  0  0  0  0  0  0
  145.5490  162.6580  134.4450 O   0  0  0  0  0  0  0  0  0  0  0  0
  144.4270  159.3060  133.8270 N   0  0  0  0  0  0  0  0  0  0  0  0
  143.0210  159.2180  134.1100 C   0  0  0  0  0  0  0  0  0  0  0  0
  142.5660  159.7230  135.1720 O   0  0  0  0  0  0  0  0  0  0  0  0
  142.0850  158.5410  133.1440 C   0  0  0  0  0  0  0  0  0  0  0  0
  140.8480  159.3620  132.8660 C   0  0  0  0  0  0  0  0  0  0  0  0
  140.8940  160.6150  133.0250 O   0  0  0  0  0  0  0  0  0  0  0  0
  139.6370  158.7620  132.3490 N   0  0  0  0  0  0  0  0  0  0  0  0
  138.8230  157.9290  133.2420 C   0  0  0  0  0  0  0  0  0  0  0  0
  139.2070  158.9440  130.9530 C   0  0  0  0  0  0  0  0  0  0  0  0
  138.2790  160.1130  130.8380 C   0  0  0  0  0  0  0  0  0  0  0  0
  138.7220  161.2420  130.4960 O   0  0  0  0  0  0  0  0  0  0  0  0
  136.9220  159.9580  131.0950 O   0  0  0  0  0  0  0  0  0  0  0  0
  145.2510  158.2730  133.5430 C   0  0  0  0  0  0  0  0  0  0  0  0
  144.9410  156.9090  133.4740 C   0  0  0  0  0  0  0  0  0  0  0  0
  145.6299  154.1518  134.1328 H   0  0  0  0  0  0  0  0  0  0  0  0
  144.7521  154.3442  132.5775 H   0  0  0  0  0  0  0  0  0  0  0  0
  146.5186  154.0185  132.5775 H   0  0  0  0  0  0  0  0  0  0  0  0
  148.0855  155.7812  132.6407 H   0  0  0  0  0  0  0  0  0  0  0  0
  148.5632  158.2529  132.7200 H   0  0  0  0  0  0  0  0  0  0  0  0
  147.3368  160.7927  133.2031 H   0  0  0  0  0  0  0  0  0  0  0  0
  142.5940  161.5770  133.9680 H   0  0  0  0  0  0  0  0  0  0  0  0
  142.6173  158.3729  132.1961 H   0  0  0  0  0  0  0  0  0  0  0  0
  141.7620  157.5935  133.5998 H   0  0  0  0  0  0  0  0  0  0  0  0
  139.0607  158.1722  134.2881 H   0  0  0  0  0  0  0  0  0  0  0  0
  137.7567  158.1229  133.0536 H   0  0  0  0  0  0  0  0  0  0  0  0
  139.0415  156.8675  133.0536 H   0  0  0  0  0  0  0  0  0  0  0  0
  140.0907  159.1200  130.3221 H   0  0  0  0  0  0  0  0  0  0  0  0
  138.6793  158.0372  130.6224 H   0  0  0  0  0  0  0  0  0  0  0  0
  143.9219  156.5501  133.6806 H   0  0  0  0  0  0  0  0  0  0  0  0
  1  2  1  0
  2  3  2  0
  3  4  1  0
  4  5  2  0
  5  6  1  0
  6  7  2  0
  7  8  1  0
  8  9  1  0
  8 10  2  0
  7 11  1  0
 11 12  1  0
 12 13  2  0
 12 14  1  0
 14 15  1  0
 15 16  2  0
 15 17  1  0
 17 18  1  0
 17 19  1  0
 19 20  1  0
 20 21  2  0
 20 22  1  0
 11 23  1  0
 23 24  2  0
 24  2  1  0
 23  5  1  0
  1 25  1  0
  1 26  1  0
  1 27  1  0
  3 28  1  0
  4 29  1  0
  6 30  1  0
  9 31  1  0
 14 32  1  0
 14 33  1  0
 18 34  1  0
 18 35  1  0
 18 36  1  0
 19 37  1  0
 19 38  1  0
 24 39  1  0
M  CHG  2   9  -1  22  -1
M  END
>  <UniqueID>  (59) 
59

>  <SMILES>  (59) 
Cc1ccc2cc(C([NH-])=O)n(C(=O)CC(=O)N(C)CC(=O)[O-])c2c1

>  <Energy>  (59) 
75.6013329549295

>  <Genealogy>  (59) 
Cc1ccc2cc(C([NH-])=O)n(C(=O)CC(=O)N(C)CC(=O)[O-])c2c1 (protonated)
Cc1ccc2cc(C([NH-])=O)n(C(=O)CC(=O)N(C)CC(=O)[O-])c2c1 (3D coordinates assigned)
Cc1ccc2cc(C([NH-])=O)n(C(=O)CC(=O)N(C)CC(=O)[O-])c2c1 (optimized conformer: 75.6013329549295 kcal/mol)

>  <smiles>  (59) 
Cc1ccc2cc(C(N)=O)n(C(=O)CC(=O)N(C)CC(=O)O)c2c1

>  <score_type>  (59) 
oracle

>  <origin>  (59) 
adg

>  <m_score__min__energy>  (59) 
-6.5899999999999999

>  <m_primary>  (59) 
energy

$$$$
59:0
     RDKit          3D

 57 58  0  0  0  0  0  0  0  0999 V2000
  141.8350  153.1050  133.9080 C   0  0  0  0  0  0  0  0  0  0  0  0
  143.1310  153.5290  134.6170 C   0  0  0  0  0  0  0  0  0  0  0  0
  143.1190  153.3570  136.0940 N   0  0  0  0  0  0  0  0  0  0  0  0
  144.3190  153.9250  136.7520 C   0  0  0  0  0  0  0  0  0  0  0  0
  145.4630  154.1110  135.7470 C   0  0  0  0  0  0  0  0  0  0  0  0
  146.7510  154.2760  136.4320 N   0  0  0  0  0  0  0  0  0  0  0  0
  147.7310  155.2360  135.9130 C   0  0  0  0  0  0  0  0  0  0  0  0
  147.0530  153.5240  137.6230 C   0  0  0  0  0  0  0  0  0  0  0  0
  147.3390  154.1160  138.6970 O   0  0  0  0  0  0  0  0  0  0  0  0
  147.0540  152.1350  137.6000 O   0  0  0  0  0  0  0  0  0  0  0  0
  141.8660  153.7980  136.7460 C   0  0  0  0  0  0  0  0  0  0  0  0
  141.8670  155.2790  136.9690 C   0  0  0  0  0  0  0  0  0  0  0  0
  142.2800  155.7580  138.0560 O   0  0  0  0  0  0  0  0  0  0  0  0
  141.4380  156.1430  135.9170 N   0  0  0  0  0  0  0  0  0  0  0  0
  142.2040  157.2970  135.4650 C   0  0  0  0  0  0  0  0  0  0  0  0
  143.4260  156.8380  134.6570 C   0  0  0  0  0  0  0  0  0  0  0  0
  143.7150  157.7200  133.4710 C   0  0  0  0  0  0  0  0  0  0  0  0
  142.9530  157.6970  132.4670 O   0  0  0  0  0  0  0  0  0  0  0  0
  144.9410  158.4630  133.4040 N   0  0  0  0  0  0  0  0  0  0  0  0
  145.1350  159.8020  133.5730 C   0  0  0  0  0  0  0  0  0  0  0  0
  144.0800  160.8220  133.7320 C   0  0  0  0  0  0  0  0  0  0  0  0
  142.7300  160.5340  133.3890 N   0  0  0  0  0  0  0  0  0  0  0  0
  144.3790  161.9750  134.1320 O   0  0  0  0  0  0  0  0  0  0  0  0
  146.4900  160.1120  133.4880 C   0  0  0  0  0  0  0  0  0  0  0  0
  147.1240  158.9140  133.2510 C   0  0  0  0  0  0  0  0  0  0  0  0
  148.4760  158.6330  133.0770 C   0  0  0  0  0  0  0  0  0  0  0  0
  148.8450  157.2950  132.8600 C   0  0  0  0  0  0  0  0  0  0  0  0
  147.8680  156.2700  132.8400 C   0  0  0  0  0  0  0  0  0  0  0  0
  148.2740  154.8480  132.5830 C   0  0  0  0  0  0  0  0  0  0  0  0
  146.5050  156.5960  133.0010 C   0  0  0  0  0  0  0  0  0  0  0  0
  146.1650  157.9370  133.2020 C   0  0  0  0  0  0  0  0  0  0  0  0
  141.0711  152.8551  134.6590 H   0  0  0  0  0  0  0  0  0  0  0  0
  141.4739  153.9318  133.2788 H   0  0  0  0  0  0  0  0  0  0  0  0
  142.0324  152.2246  133.2788 H   0  0  0  0  0  0  0  0  0  0  0  0
  143.9567  152.9274  134.2092 H   0  0  0  0  0  0  0  0  0  0  0  0
  143.2467  154.6071  134.4318 H   0  0  0  0  0  0  0  0  0  0  0  0
  144.0614  154.9015  137.1881 H   0  0  0  0  0  0  0  0  0  0  0  0
  144.6514  153.2278  137.5352 H   0  0  0  0  0  0  0  0  0  0  0  0
  145.5145  153.2269  135.0945 H   0  0  0  0  0  0  0  0  0  0  0  0
  145.2639  155.0179  135.1571 H   0  0  0  0  0  0  0  0  0  0  0  0
  148.2381  155.7328  136.7532 H   0  0  0  0  0  0  0  0  0  0  0  0
  148.4734  154.7060  135.2983 H   0  0  0  0  0  0  0  0  0  0  0  0
  147.2164  155.9892  135.2983 H   0  0  0  0  0  0  0  0  0  0  0  0
  141.0137  153.5319  136.1035 H   0  0  0  0  0  0  0  0  0  0  0  0
  141.7851  153.2976  137.7222 H   0  0  0  0  0  0  0  0  0  0  0  0
  141.5664  157.9308  134.8312 H   0  0  0  0  0  0  0  0  0  0  0  0
  142.5463  157.8666  136.3416 H   0  0  0  0  0  0  0  0  0  0  0  0
  144.3048  156.8419  135.3186 H   0  0  0  0  0  0  0  0  0  0  0  0
  143.2053  155.8317  134.2715 H   0  0  0  0  0  0  0  0  0  0  0  0
  142.4960  159.8340  132.6540 H   0  0  0  0  0  0  0  0  0  0  0  0
  146.9548  161.1039  133.5889 H   0  0  0  0  0  0  0  0  0  0  0  0
  149.2309  159.4325  133.1084 H   0  0  0  0  0  0  0  0  0  0  0  0
  149.9038  157.0408  132.7040 H   0  0  0  0  0  0  0  0  0  0  0  0
  148.4219  154.3299  133.5420 H   0  0  0  0  0  0  0  0  0  0  0  0
  147.4852  154.3394  132.0093 H   0  0  0  0  0  0  0  0  0  0  0  0
  149.2124  154.8326  132.0093 H   0  0  0  0  0  0  0  0  0  0  0  0
  145.7303  155.8157  132.9693 H   0  0  0  0  0  0  0  0  0  0  0  0
  1  2  1  0
  2  3  1  0
  3  4  1  0
  4  5  1  0
  5  6  1  0
  6  7  1  0
  6  8  1  0
  8  9  2  0
  8 10  1  0
  3 11  1  0
 11 12  1  0
 12 13  2  0
 12 14  1  0
 14 15  1  0
 15 16  1  0
 16 17  1  0
 17 18  2  0
 17 19  1  0
 19 20  1  0
 20 21  1  0
 21 22  1  0
 21 23  2  0
 20 24  2  0
 24 25  1  0
 25 26  2  0
 26 27  1  0
 27 28  2  0
 28 29  1  0
 28 30  1  0
 30 31  2  0
 31 19  1  0
 31 25  1  0
  1 32  1  0
  1 33  1  0
  1 34  1  0
  2 35  1  0
  2 36  1  0
  4 37  1  0
  4 38  1  0
  5 39  1  0
  5 40  1  0
  7 41  1  0
  7 42  1  0
  7 43  1  0
 11 44  1  0
 11 45  1  0
 15 46  1  0
 15 47  1  0
 16 48  1  0
 16 49  1  0
 22 50  1  0
 24 51  1  0
 26 52  1  0
 27 53  1  0
 29 54  1  0
 29 55  1  0
 29 56  1  0
 30 57  1  0
M  CHG  3  10  -1  14  -1  22  -1
M  END
>  <UniqueID>  (60) 
60

>  <SMILES>  (60) 
CCN(CCN(C)C(=O)[O-])CC(=O)[N-]CCC(=O)n1c(C([NH-])=O)cc2ccc(C)cc21

>  <Energy>  (60) 
88.46437273568202

>  <Genealogy>  (60) 
CCN(CCN(C)C(=O)[O-])CC(=O)[N-]CCC(=O)n1c(C([NH-])=O)cc2ccc(C)cc21 (protonated)
CCN(CCN(C)C(=O)[O-])CC(=O)[N-]CCC(=O)n1c(C([NH-])=O)cc2ccc(C)cc21 (3D coordinates assigned)
CCN(CCN(C)C(=O)[O-])CC(=O)[N-]CCC(=O)n1c(C([NH-])=O)cc2ccc(C)cc21 (optimized conformer: 88.46437273568202 kcal/mol)

>  <smiles>  (60) 
CCN(CCN(C)C(=O)O)CC(=O)NCCC(=O)n1c(C(N)=O)cc2ccc(C)cc21

>  <score_type>  (60) 
oracle

>  <origin>  (60) 
adg

>  <m_score__min__energy>  (60) 
-7.5899999999999999

>  <m_primary>  (60) 
energy

$$$$
60:0
     RDKit          3D

 54 55  0  0  0  0  0  0  0  0999 V2000
  145.6490  155.3280  134.5920 C   0  0  0  0  0  0  0  0  0  0  0  0
  146.9050  155.5250  133.8650 N   0  0  0  0  0  0  0  0  0  0  0  0
  148.0920  154.7320  134.2280 C   0  0  0  0  0  0  0  0  0  0  0  0
  148.5760  153.9220  133.0660 C   0  0  0  0  0  0  0  0  0  0  0  0
  149.5000  154.3830  132.3430 O   0  0  0  0  0  0  0  0  0  0  0  0
  148.0510  152.6390  132.8420 O   0  0  0  0  0  0  0  0  0  0  0  0
  148.8090  151.4390  132.6200 C   0  0  0  0  0  0  0  0  0  0  0  0
  149.6130  151.0740  133.8820 C   0  0  0  0  0  0  0  0  0  0  0  0
  147.8040  150.3150  132.3270 C   0  0  0  0  0  0  0  0  0  0  0  0
  149.7500  151.5920  131.4090 C   0  0  0  0  0  0  0  0  0  0  0  0
  146.9330  156.4410  132.7510 C   0  0  0  0  0  0  0  0  0  0  0  0
  147.0160  155.9980  131.5730 O   0  0  0  0  0  0  0  0  0  0  0  0
  146.8620  157.8610  132.9570 N   0  0  0  0  0  0  0  0  0  0  0  0
  147.8310  158.7840  132.7090 C   0  0  0  0  0  0  0  0  0  0  0  0
  149.1940  158.4910  132.2220 C   0  0  0  0  0  0  0  0  0  0  0  0
  149.6790  157.1510  132.2260 N   0  0  0  0  0  0  0  0  0  0  0  0
  149.9390  159.4150  131.7980 O   0  0  0  0  0  0  0  0  0  0  0  0
  147.3580  160.0670  132.9820 C   0  0  0  0  0  0  0  0  0  0  0  0
  146.0520  159.8960  133.3860 C   0  0  0  0  0  0  0  0  0  0  0  0
  145.0960  160.8340  133.7570 C   0  0  0  0  0  0  0  0  0  0  0  0
  143.8140  160.3710  134.0980 C   0  0  0  0  0  0  0  0  0  0  0  0
  143.5010  158.9830  134.0600 C   0  0  0  0  0  0  0  0  0  0  0  0
  142.1750  158.5170  134.4100 N   0  0  0  0  0  0  0  0  0  0  0  0
  141.7550  157.1550  134.0630 C   0  0  0  0  0  0  0  0  0  0  0  0
  141.2390  159.3760  135.1500 C   0  0  0  0  0  0  0  0  0  0  0  0
  140.8240  158.7430  136.4450 C   0  0  0  0  0  0  0  0  0  0  0  0
  141.4460  159.0220  137.5030 O   0  0  0  0  0  0  0  0  0  0  0  0
  139.7400  157.8720  136.4970 O   0  0  0  0  0  0  0  0  0  0  0  0
  144.5090  158.0640  133.6710 C   0  0  0  0  0  0  0  0  0  0  0  0
  145.7770  158.5560  133.3540 C   0  0  0  0  0  0  0  0  0  0  0  0
  145.8431  155.3585  135.6743 H   0  0  0  0  0  0  0  0  0  0  0  0
  144.9411  156.1261  134.3239 H   0  0  0  0  0  0  0  0  0  0  0  0
  145.2194  154.3515  134.3239 H   0  0  0  0  0  0  0  0  0  0  0  0
  148.8938  155.4127  134.5501 H   0  0  0  0  0  0  0  0  0  0  0  0
  147.8172  154.0450  135.0420 H   0  0  0  0  0  0  0  0  0  0  0  0
  149.0306  151.3384  134.7770 H   0  0  0  0  0  0  0  0  0  0  0  0
  149.8200  149.9937  133.8852 H   0  0  0  0  0  0  0  0  0  0  0  0
  150.5626  151.6293  133.8852 H   0  0  0  0  0  0  0  0  0  0  0  0
  147.4322  149.8992  133.2751 H   0  0  0  0  0  0  0  0  0  0  0  0
  146.9605  150.7191  131.7480 H   0  0  0  0  0  0  0  0  0  0  0  0
  148.2996  149.5218  131.7480 H   0  0  0  0  0  0  0  0  0  0  0  0
  150.7782  151.7592  131.7624 H   0  0  0  0  0  0  0  0  0  0  0  0
  149.7159  150.6765  130.8001 H   0  0  0  0  0  0  0  0  0  0  0  0
  149.4276  152.4495  130.8001 H   0  0  0  0  0  0  0  0  0  0  0  0
  149.1370  156.3850  131.7700 H   0  0  0  0  0  0  0  0  0  0  0  0
  147.9102  161.0142  132.8936 H   0  0  0  0  0  0  0  0  0  0  0  0
  145.3359  161.9072  133.7829 H   0  0  0  0  0  0  0  0  0  0  0  0
  143.0401  161.0925  134.3991 H   0  0  0  0  0  0  0  0  0  0  0  0
  141.5777  156.5801  134.9839 H   0  0  0  0  0  0  0  0  0  0  0  0
  140.8279  157.1964  133.4724 H   0  0  0  0  0  0  0  0  0  0  0  0
  142.5444  156.6671  133.4724 H   0  0  0  0  0  0  0  0  0  0  0  0
  141.7275  160.3384  135.3622 H   0  0  0  0  0  0  0  0  0  0  0  0
  140.3407  159.5227  134.5323 H   0  0  0  0  0  0  0  0  0  0  0  0
  144.2963  156.9859  133.6201 H   0  0  0  0  0  0  0  0  0  0  0  0
  1  2  1  0
  2  3  1  0
  3  4  1  0
  4  5  2  0
  4  6  1  0
  6  7  1  0
  7  8  1  0
  7  9  1  0
  7 10  1  0
  2 11  1  0
 11 12  2  0
 11 13  1  0
 13 14  1  0
 14 15  1  0
 15 16  1  0
 15 17  2  0
 14 18  2  0
 18 19  1  0
 19 20  2  0
 20 21  1  0
 21 22  2  0
 22 23  1  0
 23 24  1  0
 23 25  1  0
 25 26  1  0
 26 27  2  0
 26 28  1  0
 22 29  1  0
 29 30  2  0
 30 13  1  0
 30 19  1  0
  1 31  1  0
  1 32  1  0
  1 33  1  0
  3 34  1  0
  3 35  1  0
  8 36  1  0
  8 37  1  0
  8 38  1  0
  9 39  1  0
  9 40  1  0
  9 41  1  0
 10 42  1  0
 10 43  1  0
 10 44  1  0
 16 45  1  0
 18 46  1  0
 20 47  1  0
 21 48  1  0
 24 49  1  0
 24 50  1  0
 24 51  1  0
 25 52  1  0
 25 53  1  0
 29 54  1  0
M  CHG  2  16  -1  28  -1
M  END
>  <UniqueID>  (61) 
61

>  <SMILES>  (61) 
CN(CC(=O)OC(C)(C)C)C(=O)n1c(C([NH-])=O)cc2ccc(N(C)CC(=O)[O-])cc21

>  <Energy>  (61) 
84.78061928640355

>  <Genealogy>  (61) 
CN(CC(=O)OC(C)(C)C)C(=O)n1c(C([NH-])=O)cc2ccc(N(C)CC(=O)[O-])cc21 (protonated)
CN(CC(=O)OC(C)(C)C)C(=O)n1c(C([NH-])=O)cc2ccc(N(C)CC(=O)[O-])cc21 (3D coordinates assigned)
CN(CC(=O)OC(C)(C)C)C(=O)n1c(C([NH-])=O)cc2ccc(N(C)CC(=O)[O-])cc21 (optimized conformer: 84.78061928640355 kcal/mol)

>  <smiles>  (61) 
CN(CC(=O)OC(C)(C)C)C(=O)n1c(C(N)=O)cc2ccc(N(C)CC(=O)O)cc21

>  <score_type>  (61) 
oracle

>  <origin>  (61) 
adg

>  <m_score__min__energy>  (61) 
-7.7000000000000002

>  <m_primary>  (61) 
energy

$$$$
61:0
     RDKit          3D

 43 44  0  0  0  0  0  0  0  0999 V2000
  139.9640  160.1330  132.4250 C   0  0  0  0  0  0  0  0  0  0  0  0
  140.5420  159.0010  133.1380 N   0  0  0  0  0  0  0  0  0  0  0  0
  139.7460  157.8620  133.5060 C   0  0  0  0  0  0  0  0  0  0  0  0
  138.5000  157.8940  133.3010 O   0  0  0  0  0  0  0  0  0  0  0  0
  140.3350  156.6860  134.1070 N   0  0  0  0  0  0  0  0  0  0  0  0
  140.2980  155.4220  133.3600 C   0  0  0  0  0  0  0  0  0  0  0  0
  140.9510  156.7160  135.4440 C   0  0  0  0  0  0  0  0  0  0  0  0
  142.4790  156.7840  135.3590 C   0  0  0  0  0  0  0  0  0  0  0  0
  142.9050  158.0560  134.7850 N   0  0  0  0  0  0  0  0  0  0  0  0
  143.5620  158.1850  133.5180 C   0  0  0  0  0  0  0  0  0  0  0  0
  143.0220  157.7200  132.4780 O   0  0  0  0  0  0  0  0  0  0  0  0
  144.8190  158.8760  133.4280 N   0  0  0  0  0  0  0  0  0  0  0  0
  145.0540  160.2150  133.5620 C   0  0  0  0  0  0  0  0  0  0  0  0
  144.0330  161.2710  133.7330 C   0  0  0  0  0  0  0  0  0  0  0  0
  142.6490  160.9270  133.7120 N   0  0  0  0  0  0  0  0  0  0  0  0
  144.3630  162.4690  133.9290 O   0  0  0  0  0  0  0  0  0  0  0  0
  146.4160  160.4860  133.4540 C   0  0  0  0  0  0  0  0  0  0  0  0
  147.0160  159.2670  133.2460 C   0  0  0  0  0  0  0  0  0  0  0  0
  148.3630  158.9500  133.0930 C   0  0  0  0  0  0  0  0  0  0  0  0
  148.7070  157.5980  132.9320 C   0  0  0  0  0  0  0  0  0  0  0  0
  147.7060  156.5960  132.9240 C   0  0  0  0  0  0  0  0  0  0  0  0
  148.0920  155.1520  132.8080 C   0  0  0  0  0  0  0  0  0  0  0  0
  146.3520  156.9530  133.0990 C   0  0  0  0  0  0  0  0  0  0  0  0
  146.0330  158.3110  133.2360 C   0  0  0  0  0  0  0  0  0  0  0  0
  139.5878  160.8697  133.1501 H   0  0  0  0  0  0  0  0  0  0  0  0
  140.7339  160.6003  131.7934 H   0  0  0  0  0  0  0  0  0  0  0  0
  139.1340  159.7834  131.7934 H   0  0  0  0  0  0  0  0  0  0  0  0
  141.5550  159.0520  133.3830 H   0  0  0  0  0  0  0  0  0  0  0  0
  140.2733  154.5792  134.0664 H   0  0  0  0  0  0  0  0  0  0  0  0
  139.3987  155.3963  132.7270 H   0  0  0  0  0  0  0  0  0  0  0  0
  141.1942  155.3438  132.7270 H   0  0  0  0  0  0  0  0  0  0  0  0
  140.5839  157.5997  135.9865 H   0  0  0  0  0  0  0  0  0  0  0  0
  140.6764  155.7900  135.9704 H   0  0  0  0  0  0  0  0  0  0  0  0
  142.9022  156.6835  136.3693 H   0  0  0  0  0  0  0  0  0  0  0  0
  142.8352  155.9669  134.7144 H   0  0  0  0  0  0  0  0  0  0  0  0
  142.3220  159.9940  134.0470 H   0  0  0  0  0  0  0  0  0  0  0  0
  146.9074  161.4678  133.5210 H   0  0  0  0  0  0  0  0  0  0  0  0
  149.1341  159.7344  133.0981 H   0  0  0  0  0  0  0  0  0  0  0  0
  149.7630  157.3147  132.8111 H   0  0  0  0  0  0  0  0  0  0  0  0
  148.2071  154.7213  133.8136 H   0  0  0  0  0  0  0  0  0  0  0  0
  147.3084  154.6056  132.2626 H   0  0  0  0  0  0  0  0  0  0  0  0
  149.0437  155.0695  132.2626 H   0  0  0  0  0  0  0  0  0  0  0  0
  145.5659  156.1841  133.1272 H   0  0  0  0  0  0  0  0  0  0  0  0
  1  2  1  0
  2  3  1  0
  3  4  2  0
  3  5  1  0
  5  6  1  0
  5  7  1  0
  7  8  1  0
  8  9  1  0
  9 10  1  0
 10 11  2  0
 10 12  1  0
 12 13  1  0
 13 14  1  0
 14 15  1  0
 14 16  2  0
 13 17  2  0
 17 18  1  0
 18 19  2  0
 19 20  1  0
 20 21  2  0
 21 22  1  0
 21 23  1  0
 23 24  2  0
 24 12  1  0
 24 18  1  0
  1 25  1  0
  1 26  1  0
  1 27  1  0
  2 28  1  0
  6 29  1  0
  6 30  1  0
  6 31  1  0
  7 32  1  0
  7 33  1  0
  8 34  1  0
  8 35  1  0
 15 36  1  0
 17 37  1  0
 19 38  1  0
 20 39  1  0
 22 40  1  0
 22 41  1  0
 22 42  1  0
 23 43  1  0
M  CHG  2   9  -1  15  -1
M  END
>  <UniqueID>  (62) 
62

>  <SMILES>  (62) 
CNC(=O)N(C)CC[N-]C(=O)n1c(C([NH-])=O)cc2ccc(C)cc21

>  <Energy>  (62) 
73.2929871855457

>  <Genealogy>  (62) 
CNC(=O)N(C)CC[N-]C(=O)n1c(C([NH-])=O)cc2ccc(C)cc21 (protonated)
CNC(=O)N(C)CC[N-]C(=O)n1c(C([NH-])=O)cc2ccc(C)cc21 (3D coordinates assigned)
CNC(=O)N(C)CC[N-]C(=O)n1c(C([NH-])=O)cc2ccc(C)cc21 (optimized conformer: 73.2929871855457 kcal/mol)

>  <smiles>  (62) 
CNC(=O)N(C)CCNC(=O)n1c(C(N)=O)cc2ccc(C)cc21

>  <score_type>  (62) 
oracle

>  <origin>  (62) 
adg

>  <m_score__min__energy>  (62) 
-7.0199999999999996

>  <m_primary>  (62) 
energy

$$$$
62:0
     RDKit          3D

 37 39  0  0  0  0  0  0  0  0999 V2000
  146.5060  160.0110  133.1540 N   0  0  0  0  0  0  0  0  0  0  0  0
  145.0880  160.0040  133.3280 C   0  0  0  0  0  0  0  0  0  0  0  0
  144.4750  161.1020  133.3950 O   0  0  0  0  0  0  0  0  0  0  0  0
  144.3360  158.7310  133.4160 C   0  0  0  0  0  0  0  0  0  0  0  0
  142.9480  158.6210  133.3290 C   0  0  0  0  0  0  0  0  0  0  0  0
  142.6770  157.2810  133.4960 C   0  0  0  0  0  0  0  0  0  0  0  0
  141.4650  156.5980  133.4550 C   0  0  0  0  0  0  0  0  0  0  0  0
  141.4910  155.2000  133.5930 C   0  0  0  0  0  0  0  0  0  0  0  0
  142.7210  154.5090  133.7490 C   0  0  0  0  0  0  0  0  0  0  0  0
  142.7360  153.0100  133.9090 C   0  0  0  0  0  0  0  0  0  0  0  0
  141.7430  152.4270  133.1420 F   0  0  0  0  0  0  0  0  0  0  0  0
  143.9540  152.4880  133.5070 F   0  0  0  0  0  0  0  0  0  0  0  0
  142.5270  152.6920  135.2370 F   0  0  0  0  0  0  0  0  0  0  0  0
  143.9270  155.2440  133.8220 C   0  0  0  0  0  0  0  0  0  0  0  0
  143.8670  156.6330  133.6880 C   0  0  0  0  0  0  0  0  0  0  0  0
  144.8930  157.5080  133.6410 N   0  0  0  0  0  0  0  0  0  0  0  0
  146.2860  157.1700  133.6700 C   0  0  0  0  0  0  0  0  0  0  0  0
  146.9920  157.5160  134.6550 O   0  0  0  0  0  0  0  0  0  0  0  0
  146.8880  156.3150  132.5940 C   0  0  0  0  0  0  0  0  0  0  0  0
  148.2200  156.7420  132.3190 O   0  0  0  0  0  0  0  0  0  0  0  0
  148.5690  158.0730  132.0660 C   0  0  0  0  0  0  0  0  0  0  0  0
  148.8540  158.6430  130.8410 C   0  0  0  0  0  0  0  0  0  0  0  0
  149.1730  159.9460  131.1680 C   0  0  0  0  0  0  0  0  0  0  0  0
  149.6000  160.9920  130.2350 C   0  0  0  0  0  0  0  0  0  0  0  0
  150.2920  160.7000  129.2240 O   0  0  0  0  0  0  0  0  0  0  0  0
  149.2510  162.3160  130.4690 O   0  0  0  0  0  0  0  0  0  0  0  0
  149.0590  160.1240  132.5000 N   0  0  0  0  0  0  0  0  0  0  0  0
  148.6930  158.9820  133.0040 O   0  0  0  0  0  0  0  0  0  0  0  0
  147.0610  159.1280  133.1460 H   0  0  0  0  0  0  0  0  0  0  0  0
  147.0170  160.9190  133.0680 H   0  0  0  0  0  0  0  0  0  0  0  0
  142.2239  159.4321  133.1624 H   0  0  0  0  0  0  0  0  0  0  0  0
  140.5155  157.1364  133.3187 H   0  0  0  0  0  0  0  0  0  0  0  0
  140.5475  154.6346  133.5800 H   0  0  0  0  0  0  0  0  0  0  0  0
  144.8888  154.7343  133.9805 H   0  0  0  0  0  0  0  0  0  0  0  0
  146.9032  155.2669  132.9276 H   0  0  0  0  0  0  0  0  0  0  0  0
  146.2836  156.4072  131.6796 H   0  0  0  0  0  0  0  0  0  0  0  0
  148.8322  158.1733  129.8466 H   0  0  0  0  0  0  0  0  0  0  0  0
  1  2  1  0
  2  3  2  0
  2  4  1  0
  4  5  2  0
  5  6  1  0
  6  7  2  0
  7  8  1  0
  8  9  2  0
  9 10  1  0
 10 11  1  0
 10 12  1  0
 10 13  1  0
  9 14  1  0
 14 15  2  0
 15 16  1  0
 16 17  1  0
 17 18  2  0
 17 19  1  0
 19 20  1  0
 20 21  1  0
 21 22  2  0
 22 23  1  0
 23 24  1  0
 24 25  2  0
 24 26  1  0
 23 27  2  0
 27 28  1  0
 16  4  1  0
 28 21  1  0
 15  6  1  0
  1 29  1  0
  1 30  1  0
  5 31  1  0
  7 32  1  0
  8 33  1  0
 14 34  1  0
 19 35  1  0
 19 36  1  0
 22 37  1  0
M  CHG  1  26  -1
M  END
>  <UniqueID>  (63) 
63

>  <SMILES>  (63) 
NC(=O)c1cc2ccc(C(F)(F)F)cc2n1C(=O)COc1cc(C(=O)[O-])no1

>  <Energy>  (63) 
105.0003607564009

>  <Genealogy>  (63) 
NC(=O)c1cc2ccc(C(F)(F)F)cc2n1C(=O)COc1cc(C(=O)[O-])no1 (protonated)
NC(=O)c1cc2ccc(C(F)(F)F)cc2n1C(=O)COc1cc(C(=O)[O-])no1 (3D coordinates assigned)
NC(=O)c1cc2ccc(C(F)(F)F)cc2n1C(=O)COc1cc(C(=O)[O-])no1 (optimized conformer: 105.0003607564009 kcal/mol)

>  <smiles>  (63) 
NC(=O)c1cc2ccc(C(F)(F)F)cc2n1C(=O)COc1cc(C(=O)O)no1

>  <score_type>  (63) 
oracle

>  <origin>  (63) 
adg

>  <m_score__min__energy>  (63) 
-6.7699999999999996

>  <m_primary>  (63) 
energy

$$$$
63:0
     RDKit          3D

 44 45  0  0  0  0  0  0  0  0999 V2000
  138.7370  157.8830  134.0260 C   0  0  0  0  0  0  0  0  0  0  0  0
  139.5670  158.4050  132.8380 C   0  0  0  0  0  0  0  0  0  0  0  0
  138.7120  158.4400  131.5590 C   0  0  0  0  0  0  0  0  0  0  0  0
  140.7640  157.4680  132.6140 C   0  0  0  0  0  0  0  0  0  0  0  0
  140.0940  159.7430  133.1290 N   0  0  0  0  0  0  0  0  0  0  0  0
  141.2090  160.0600  133.9730 C   0  0  0  0  0  0  0  0  0  0  0  0
  141.0610  160.2030  135.2160 O   0  0  0  0  0  0  0  0  0  0  0  0
  142.5510  160.2900  133.3590 C   0  0  0  0  0  0  0  0  0  0  0  0
  143.5890  159.5450  134.1390 C   0  0  0  0  0  0  0  0  0  0  0  0
  143.2340  158.6840  134.9880 O   0  0  0  0  0  0  0  0  0  0  0  0
  144.9780  159.7110  133.8330 N   0  0  0  0  0  0  0  0  0  0  0  0
  145.6870  160.8710  133.7580 C   0  0  0  0  0  0  0  0  0  0  0  0
  145.1800  162.2110  134.1190 C   0  0  0  0  0  0  0  0  0  0  0  0
  145.9450  163.0530  134.9790 N   0  0  0  0  0  0  0  0  0  0  0  0
  144.0650  162.6120  133.6930 O   0  0  0  0  0  0  0  0  0  0  0  0
  146.9920  160.6170  133.3410 C   0  0  0  0  0  0  0  0  0  0  0  0
  147.0600  159.2510  133.1670 C   0  0  0  0  0  0  0  0  0  0  0  0
  148.1170  158.4500  132.7460 C   0  0  0  0  0  0  0  0  0  0  0  0
  147.8900  157.0670  132.6340 C   0  0  0  0  0  0  0  0  0  0  0  0
  146.6230  156.5140  132.9480 C   0  0  0  0  0  0  0  0  0  0  0  0
  146.3870  155.0360  132.7940 C   0  0  0  0  0  0  0  0  0  0  0  0
  147.6620  154.2720  132.9910 C   0  0  0  0  0  0  0  0  0  0  0  0
  148.1450  154.1460  134.1050 O   0  0  0  0  0  0  0  0  0  0  0  0
  145.5700  157.3610  133.3610 C   0  0  0  0  0  0  0  0  0  0  0  0
  145.8300  158.7310  133.4720 C   0  0  0  0  0  0  0  0  0  0  0  0
  139.2165  158.1846  134.9689 H   0  0  0  0  0  0  0  0  0  0  0  0
  137.7227  158.3061  133.9787 H   0  0  0  0  0  0  0  0  0  0  0  0
  138.6790  156.7855  133.9787 H   0  0  0  0  0  0  0  0  0  0  0  0
  137.6470  158.4836  131.8310 H   0  0  0  0  0  0  0  0  0  0  0  0
  138.9756  159.3281  130.9659 H   0  0  0  0  0  0  0  0  0  0  0  0
  138.9022  157.5333  130.9659 H   0  0  0  0  0  0  0  0  0  0  0  0
  141.1687  157.1512  133.5866 H   0  0  0  0  0  0  0  0  0  0  0  0
  140.4365  156.5838  132.0475 H   0  0  0  0  0  0  0  0  0  0  0  0
  141.5437  157.9982  132.0475 H   0  0  0  0  0  0  0  0  0  0  0  0
  142.5453  159.9309  132.3193 H   0  0  0  0  0  0  0  0  0  0  0  0
  142.7822  161.3653  133.3733 H   0  0  0  0  0  0  0  0  0  0  0  0
  146.9840  163.1030  134.8970 H   0  0  0  0  0  0  0  0  0  0  0  0
  147.7968  161.3503  133.1840 H   0  0  0  0  0  0  0  0  0  0  0  0
  149.0990  158.8850  132.5084 H   0  0  0  0  0  0  0  0  0  0  0  0
  148.7040  156.4072  132.2992 H   0  0  0  0  0  0  0  0  0  0  0  0
  145.6504  154.7081  133.5423 H   0  0  0  0  0  0  0  0  0  0  0  0
  146.0119  154.8418  131.7783 H   0  0  0  0  0  0  0  0  0  0  0  0
  148.1667  153.8210  132.1239 H   0  0  0  0  0  0  0  0  0  0  0  0
  144.5736  156.9544  133.5888 H   0  0  0  0  0  0  0  0  0  0  0  0
  1  2  1  0
  2  3  1  0
  2  4  1  0
  2  5  1  0
  5  6  1  0
  6  7  2  0
  6  8  1  0
  8  9  1  0
  9 10  2  0
  9 11  1  0
 11 12  1  0
 12 13  1  0
 13 14  1  0
 13 15  2  0
 12 16  2  0
 16 17  1  0
 17 18  2  0
 18 19  1  0
 19 20  2  0
 20 21  1  0
 21 22  1  0
 22 23  2  0
 20 24  1  0
 24 25  2  0
 25 11  1  0
 25 17  1  0
  1 26  1  0
  1 27  1  0
  1 28  1  0
  3 29  1  0
  3 30  1  0
  3 31  1  0
  4 32  1  0
  4 33  1  0
  4 34  1  0
  8 35  1  0
  8 36  1  0
 14 37  1  0
 16 38  1  0
 18 39  1  0
 19 40  1  0
 21 41  1  0
 21 42  1  0
 22 43  1  0
 24 44  1  0
M  CHG  2   5  -1  14  -1
M  END
>  <UniqueID>  (64) 
64

>  <SMILES>  (64) 
CC(C)(C)[N-]C(=O)CC(=O)n1c(C([NH-])=O)cc2ccc(CC=O)cc21

>  <Energy>  (64) 
71.39639619554889

>  <Genealogy>  (64) 
CC(C)(C)[N-]C(=O)CC(=O)n1c(C([NH-])=O)cc2ccc(CC=O)cc21 (protonated)
CC(C)(C)[N-]C(=O)CC(=O)n1c(C([NH-])=O)cc2ccc(CC=O)cc21 (3D coordinates assigned)
CC(C)(C)[N-]C(=O)CC(=O)n1c(C([NH-])=O)cc2ccc(CC=O)cc21 (optimized conformer: 71.39639619554889 kcal/mol)

>  <smiles>  (64) 
CC(C)(C)NC(=O)CC(=O)n1c(C(N)=O)cc2ccc(CC=O)cc21

>  <score_type>  (64) 
oracle

>  <origin>  (64) 
adg

>  <m_score__min__energy>  (64) 
-7.5

>  <m_primary>  (64) 
energy

$$$$
64:0
     RDKit          3D

 48 49  0  0  0  0  0  0  0  0999 V2000
  142.0510  157.1010  134.8620 C   0  0  0  0  0  0  0  0  0  0  0  0
  143.1770  157.9570  134.3610 C   0  0  0  0  0  0  0  0  0  0  0  0
  143.0160  159.3600  134.2590 C   0  0  0  0  0  0  0  0  0  0  0  0
  144.0620  160.1690  133.7830 C   0  0  0  0  0  0  0  0  0  0  0  0
  145.2460  159.5440  133.4010 C   0  0  0  0  0  0  0  0  0  0  0  0
  146.4330  160.0850  132.9580 C   0  0  0  0  0  0  0  0  0  0  0  0
  147.2860  158.9990  132.7700 C   0  0  0  0  0  0  0  0  0  0  0  0
  148.6690  159.1150  132.2640 C   0  0  0  0  0  0  0  0  0  0  0  0
  149.0110  158.5550  130.9980 N   0  0  0  0  0  0  0  0  0  0  0  0
  149.5610  159.6830  132.9480 O   0  0  0  0  0  0  0  0  0  0  0  0
  146.6480  157.8340  133.0750 N   0  0  0  0  0  0  0  0  0  0  0  0
  147.2040  156.5150  133.1340 C   0  0  0  0  0  0  0  0  0  0  0  0
  148.0880  156.1680  132.3040 O   0  0  0  0  0  0  0  0  0  0  0  0
  146.6940  155.5760  134.0840 N   0  0  0  0  0  0  0  0  0  0  0  0
  147.4260  155.1370  135.2680 C   0  0  0  0  0  0  0  0  0  0  0  0
  146.6380  154.1030  136.0250 C   0  0  0  0  0  0  0  0  0  0  0  0
  145.3810  154.1410  135.9790 O   0  0  0  0  0  0  0  0  0  0  0  0
  147.2680  153.0930  136.8240 N   0  0  0  0  0  0  0  0  0  0  0  0
  147.6060  153.2040  138.2450 C   0  0  2  0  0  0  0  0  0  0  0  0
  149.0320  153.6700  138.3910 C   0  0  0  0  0  0  0  0  0  0  0  0
  149.9780  153.0160  137.8760 O   0  0  0  0  0  0  0  0  0  0  0  0
  149.3130  154.8240  139.1140 O   0  0  0  0  0  0  0  0  0  0  0  0
  147.3210  151.8530  138.9820 C   0  0  0  0  0  0  0  0  0  0  0  0
  145.8240  151.7030  139.3360 C   0  0  0  0  0  0  0  0  0  0  0  0
  147.7490  150.6580  138.1000 C   0  0  0  0  0  0  0  0  0  0  0  0
  148.1470  151.8040  140.2880 C   0  0  0  0  0  0  0  0  0  0  0  0
  145.4040  158.1840  133.4630 C   0  0  0  0  0  0  0  0  0  0  0  0
  144.3840  157.3560  133.9440 C   0  0  0  0  0  0  0  0  0  0  0  0
  142.0515  157.1014  135.9620 H   0  0  0  0  0  0  0  0  0  0  0  0
  141.0945  157.5020  134.4956 H   0  0  0  0  0  0  0  0  0  0  0  0
  142.1816  156.0721  134.4956 H   0  0  0  0  0  0  0  0  0  0  0  0
  142.0625  159.8215  134.5554 H   0  0  0  0  0  0  0  0  0  0  0  0
  143.9489  161.2610  133.7145 H   0  0  0  0  0  0  0  0  0  0  0  0
  146.6594  161.1481  132.7887 H   0  0  0  0  0  0  0  0  0  0  0  0
  148.8980  157.5320  130.8150 H   0  0  0  0  0  0  0  0  0  0  0  0
  148.3879  154.7027  134.9579 H   0  0  0  0  0  0  0  0  0  0  0  0
  147.5935  156.0046  135.9231 H   0  0  0  0  0  0  0  0  0  0  0  0
  146.9671  153.9586  138.7270 H   0  0  0  0  0  0  0  0  0  0  0  0
  145.7052  151.6911  140.4295 H   0  0  0  0  0  0  0  0  0  0  0  0
  145.2611  152.5492  138.9152 H   0  0  0  0  0  0  0  0  0  0  0  0
  145.4402  150.7619  138.9152 H   0  0  0  0  0  0  0  0  0  0  0  0
  148.0501  149.8174  138.7425 H   0  0  0  0  0  0  0  0  0  0  0  0
  146.9052  150.3503  137.4649 H   0  0  0  0  0  0  0  0  0  0  0  0
  148.5963  150.9559  137.4649 H   0  0  0  0  0  0  0  0  0  0  0  0
  147.4684  151.8443  141.1528 H   0  0  0  0  0  0  0  0  0  0  0  0
  148.7270  150.8699  140.3202 H   0  0  0  0  0  0  0  0  0  0  0  0
  148.8333  152.6630  140.3202 H   0  0  0  0  0  0  0  0  0  0  0  0
  144.5192  156.2656  133.9958 H   0  0  0  0  0  0  0  0  0  0  0  0
  1  2  1  0
  2  3  2  0
  3  4  1  0
  4  5  2  0
  5  6  1  0
  6  7  2  0
  7  8  1  0
  8  9  1  0
  8 10  2  0
  7 11  1  0
 11 12  1  0
 12 13  2  0
 12 14  1  0
 14 15  1  0
 15 16  1  0
 16 17  2  0
 16 18  1  0
 18 19  1  0
 19 20  1  0
 20 21  2  0
 20 22  1  0
 19 23  1  0
 23 24  1  0
 23 25  1  0
 23 26  1  0
 11 27  1  0
 27 28  2  0
 28  2  1  0
 27  5  1  0
  1 29  1  0
  1 30  1  0
  1 31  1  0
  3 32  1  0
  4 33  1  0
  6 34  1  0
  9 35  1  0
 15 36  1  0
 15 37  1  0
 19 38  1  1
 24 39  1  0
 24 40  1  0
 24 41  1  0
 25 42  1  0
 25 43  1  0
 25 44  1  0
 26 45  1  0
 26 46  1  0
 26 47  1  0
 28 48  1  0
M  CHG  4   9  -1  14  -1  18  -1  22  -1
M  END
>  <UniqueID>  (65) 
65

>  <SMILES>  (65) 
Cc1ccc2cc(C([NH-])=O)n(C(=O)[N-]CC(=O)[N-][C@H](C(=O)[O-])C(C)(C)C)c2c1

>  <Energy>  (65) 
77.4501529189793

>  <Genealogy>  (65) 
Cc1ccc2cc(C([NH-])=O)n(C(=O)[N-]CC(=O)[N-][C@H](C(=O)[O-])C(C)(C)C)c2c1 (protonated)
Cc1ccc2cc(C([NH-])=O)n(C(=O)[N-]CC(=O)[N-][C@H](C(=O)[O-])C(C)(C)C)c2c1 (3D coordinates assigned)
Cc1ccc2cc(C([NH-])=O)n(C(=O)[N-]CC(=O)[N-][C@H](C(=O)[O-])C(C)(C)C)c2c1 (optimized conformer: 77.4501529189793 kcal/mol)

>  <smiles>  (65) 
Cc1ccc2cc(C(N)=O)n(C(=O)NCC(=O)N[C@H](C(=O)O)C(C)(C)C)c2c1

>  <score_type>  (65) 
oracle

>  <origin>  (65) 
adg

>  <m_score__min__energy>  (65) 
-8.3499999999999996

>  <m_primary>  (65) 
energy

$$$$
65:0
     RDKit          3D

 39 40  0  0  0  0  0  0  0  0999 V2000
  142.4870  151.3500  138.9730 C   0  0  0  0  0  0  0  0  0  0  0  0
  141.2900  151.9600  138.2130 C   0  0  0  0  0  0  0  0  0  0  0  0
  140.6090  153.0310  139.0920 C   0  0  0  0  0  0  0  0  0  0  0  0
  141.7470  152.5570  136.9420 N   0  0  0  0  0  0  0  0  0  0  0  0
  142.6400  153.6830  136.8330 C   0  0  0  0  0  0  0  0  0  0  0  0
  143.1590  154.1900  137.8630 O   0  0  0  0  0  0  0  0  0  0  0  0
  142.9640  154.2560  135.5130 C   0  0  0  0  0  0  0  0  0  0  0  0
  144.1530  154.5650  135.2350 O   0  0  0  0  0  0  0  0  0  0  0  0
  141.9320  154.4660  134.5350 N   0  0  0  0  0  0  0  0  0  0  0  0
  141.3250  153.5290  133.7540 C   0  0  0  0  0  0  0  0  0  0  0  0
  141.6860  152.0980  133.6860 C   0  0  0  0  0  0  0  0  0  0  0  0
  142.5680  151.6360  132.6650 N   0  0  0  0  0  0  0  0  0  0  0  0
  141.2390  151.2790  134.5320 O   0  0  0  0  0  0  0  0  0  0  0  0
  140.3350  154.1180  132.9700 C   0  0  0  0  0  0  0  0  0  0  0  0
  140.3520  155.4550  133.3040 C   0  0  0  0  0  0  0  0  0  0  0  0
  139.5730  156.5060  132.8320 C   0  0  0  0  0  0  0  0  0  0  0  0
  139.7960  157.7850  133.3720 C   0  0  0  0  0  0  0  0  0  0  0  0
  140.7690  157.9850  134.3860 C   0  0  0  0  0  0  0  0  0  0  0  0
  141.0280  159.3690  134.9280 C   0  0  0  0  0  0  0  0  0  0  0  0
  140.2520  159.6060  136.0490 F   0  0  0  0  0  0  0  0  0  0  0  0
  142.3620  159.4790  135.2710 F   0  0  0  0  0  0  0  0  0  0  0  0
  140.7250  160.3290  133.9800 F   0  0  0  0  0  0  0  0  0  0  0  0
  141.5540  156.8930  134.8220 C   0  0  0  0  0  0  0  0  0  0  0  0
  141.3220  155.6370  134.2530 C   0  0  0  0  0  0  0  0  0  0  0  0
  140.2800  150.8680  137.9010 C   0  0  0  0  0  0  0  0  0  0  0  0
  140.2140  150.3790  136.7410 O   0  0  0  0  0  0  0  0  0  0  0  0
  139.4760  150.3340  138.9020 O   0  0  0  0  0  0  0  0  0  0  0  0
  142.3164  151.4370  140.0562 H   0  0  0  0  0  0  0  0  0  0  0  0
  142.5910  150.2889  138.7022 H   0  0  0  0  0  0  0  0  0  0  0  0
  143.4066  151.8894  138.7022 H   0  0  0  0  0  0  0  0  0  0  0  0
  140.7641  152.7871  140.1533 H   0  0  0  0  0  0  0  0  0  0  0  0
  141.0467  154.0164  138.8745 H   0  0  0  0  0  0  0  0  0  0  0  0
  139.5309  153.0526  138.8745 H   0  0  0  0  0  0  0  0  0  0  0  0
  141.3840  152.1510  136.0490 H   0  0  0  0  0  0  0  0  0  0  0  0
  142.4400  151.9340  131.6710 H   0  0  0  0  0  0  0  0  0  0  0  0
  139.6793  153.6214  132.2397 H   0  0  0  0  0  0  0  0  0  0  0  0
  138.8064  156.3418  132.0604 H   0  0  0  0  0  0  0  0  0  0  0  0
  139.2099  158.6402  133.0045 H   0  0  0  0  0  0  0  0  0  0  0  0
  142.3290  157.0283  135.5908 H   0  0  0  0  0  0  0  0  0  0  0  0
  1  2  1  0
  2  3  1  0
  2  4  1  0
  4  5  1  0
  5  6  2  0
  5  7  1  0
  7  8  2  0
  7  9  1  0
  9 10  1  0
 10 11  1  0
 11 12  1  0
 11 13  2  0
 10 14  2  0
 14 15  1  0
 15 16  2  0
 16 17  1  0
 17 18  2  0
 18 19  1  0
 19 20  1  0
 19 21  1  0
 19 22  1  0
 18 23  1  0
 23 24  2  0
  2 25  1  0
 25 26  2  0
 25 27  1  0
 24  9  1  0
 24 15  1  0
  1 28  1  0
  1 29  1  0
  1 30  1  0
  3 31  1  0
  3 32  1  0
  3 33  1  0
  4 34  1  0
 12 35  1  0
 14 36  1  0
 16 37  1  0
 17 38  1  0
 23 39  1  0
M  CHG  2  12  -1  27  -1
M  END
>  <UniqueID>  (66) 
66

>  <SMILES>  (66) 
CC(C)(NC(=O)C(=O)n1c(C([NH-])=O)cc2ccc(C(F)(F)F)cc21)C(=O)[O-]

>  <Energy>  (66) 
78.10338716501386

>  <Genealogy>  (66) 
CC(C)(NC(=O)C(=O)n1c(C([NH-])=O)cc2ccc(C(F)(F)F)cc21)C(=O)[O-] (protonated)
CC(C)(NC(=O)C(=O)n1c(C([NH-])=O)cc2ccc(C(F)(F)F)cc21)C(=O)[O-] (3D coordinates assigned)
CC(C)(NC(=O)C(=O)n1c(C([NH-])=O)cc2ccc(C(F)(F)F)cc21)C(=O)[O-] (optimized conformer: 78.10338716501386 kcal/mol)

>  <smiles>  (66) 
CC(C)(NC(=O)C(=O)n1c(C(N)=O)cc2ccc(C(F)(F)F)cc21)C(=O)O

>  <score_type>  (66) 
oracle

>  <origin>  (66) 
adg

>  <m_score__min__energy>  (66) 
-7.04

>  <m_primary>  (66) 
energy

$$$$
66:0
     RDKit          3D

 61 64  0  0  0  0  0  0  0  0999 V2000
  140.4130  155.9180  133.8600 N   0  0  0  0  0  0  0  0  0  0  0  0
  140.7980  154.6360  133.3660 C   0  0  0  0  0  0  0  0  0  0  0  0
  139.9060  153.8150  133.0210 O   0  0  0  0  0  0  0  0  0  0  0  0
  142.2180  154.2330  133.2920 C   0  0  0  0  0  0  0  0  0  0  0  0
  142.6500  153.0310  132.7380 C   0  0  0  0  0  0  0  0  0  0  0  0
  144.0220  153.0550  132.8430 C   0  0  0  0  0  0  0  0  0  0  0  0
  144.9680  152.1280  132.4170 C   0  0  0  0  0  0  0  0  0  0  0  0
  146.3260  152.4380  132.6070 C   0  0  0  0  0  0  0  0  0  0  0  0
  146.7140  153.6610  133.2150 C   0  0  0  0  0  0  0  0  0  0  0  0
  148.1760  153.9950  133.3670 C   0  0  0  0  0  0  0  0  0  0  0  0
  148.6760  154.4160  132.1500 F   0  0  0  0  0  0  0  0  0  0  0  0
  148.3570  155.0000  134.3010 F   0  0  0  0  0  0  0  0  0  0  0  0
  148.8850  152.8820  133.7870 F   0  0  0  0  0  0  0  0  0  0  0  0
  145.7220  154.5930  133.5970 C   0  0  0  0  0  0  0  0  0  0  0  0
  144.3780  154.2420  133.4300 C   0  0  0  0  0  0  0  0  0  0  0  0
  143.2780  154.9720  133.7250 N   0  0  0  0  0  0  0  0  0  0  0  0
  143.2470  156.3220  134.2170 C   0  0  0  0  0  0  0  0  0  0  0  0
  143.3130  156.5210  135.4610 O   0  0  0  0  0  0  0  0  0  0  0  0
  143.2810  157.5080  133.2790 C   0  0  2  0  0  0  0  0  0  0  0  0
  144.4500  158.4520  133.6310 C   0  0  0  0  0  0  0  0  0  0  0  0
  145.8310  157.8360  133.3440 C   0  0  0  0  0  0  0  0  0  0  0  0
  146.9200  158.7050  133.8470 N   0  0  0  0  0  0  0  0  0  0  0  0
  148.2140  158.0090  133.8350 C   0  0  0  0  0  0  0  0  0  0  0  0
  148.8700  158.2830  132.4940 C   0  0  0  0  0  0  0  0  0  0  0  0
  148.2440  159.5760  132.0060 C   0  0  0  0  0  0  0  0  0  0  0  0
  147.1170  159.8830  132.9880 C   0  0  0  0  0  0  0  0  0  0  0  0
  142.0160  158.2420  133.3350 N   0  0  0  0  0  0  0  0  0  0  0  0
  141.8030  159.4390  134.0860 C   0  0  0  0  0  0  0  0  0  0  0  0
  141.5720  160.5290  133.4980 O   0  0  0  0  0  0  0  0  0  0  0  0
  141.8580  159.3770  135.4800 O   0  0  0  0  0  0  0  0  0  0  0  0
  140.6980  159.2540  136.3050 C   0  0  2  0  0  0  0  0  0  0  0  0
  141.0040  158.3660  137.4720 C   0  0  0  0  0  0  0  0  0  0  0  0
  140.6480  156.9880  136.9550 C   0  0  0  0  0  0  0  0  0  0  0  0
  139.7380  157.1090  135.8860 O   0  0  0  0  0  0  0  0  0  0  0  0
  139.6070  158.4800  135.5870 C   0  0  0  0  0  0  0  0  0  0  0  0
  141.0980  156.5450  134.3330 H   0  0  0  0  0  0  0  0  0  0  0  0
  139.4110  156.2100  133.8320 H   0  0  0  0  0  0  0  0  0  0  0  0
  142.0275  152.2325  132.3081 H   0  0  0  0  0  0  0  0  0  0  0  0
  144.6628  151.1819  131.9461 H   0  0  0  0  0  0  0  0  0  0  0  0
  147.0971  151.7246  132.2807 H   0  0  0  0  0  0  0  0  0  0  0  0
  146.0003  155.5713  134.0158 H   0  0  0  0  0  0  0  0  0  0  0  0
  143.4300  157.1287  132.2573 H   0  0  0  0  0  0  0  0  0  0  0  0
  144.3472  159.3727  133.0379 H   0  0  0  0  0  0  0  0  0  0  0  0
  144.3975  158.6502  134.7117 H   0  0  0  0  0  0  0  0  0  0  0  0
  145.8965  156.8558  133.8389 H   0  0  0  0  0  0  0  0  0  0  0  0
  145.9453  157.7291  132.2552 H   0  0  0  0  0  0  0  0  0  0  0  0
  148.8508  158.3871  134.6483 H   0  0  0  0  0  0  0  0  0  0  0  0
  148.0727  156.9281  133.9823 H   0  0  0  0  0  0  0  0  0  0  0  0
  149.9572  158.4008  132.6126 H   0  0  0  0  0  0  0  0  0  0  0  0
  148.7177  157.4570  131.7837 H   0  0  0  0  0  0  0  0  0  0  0  0
  148.9870  160.3871  132.0085 H   0  0  0  0  0  0  0  0  0  0  0  0
  147.8716  159.4840  130.9751 H   0  0  0  0  0  0  0  0  0  0  0  0
  147.3878  160.7524  133.6051 H   0  0  0  0  0  0  0  0  0  0  0  0
  146.1904  160.1134  132.4419 H   0  0  0  0  0  0  0  0  0  0  0  0
  140.3987  160.2767  136.5780 H   0  0  0  0  0  0  0  0  0  0  0  0
  142.0683  158.4233  137.7439 H   0  0  0  0  0  0  0  0  0  0  0  0
  140.4530  158.6426  138.3830 H   0  0  0  0  0  0  0  0  0  0  0  0
  141.5592  156.4806  136.6054 H   0  0  0  0  0  0  0  0  0  0  0  0
  140.1887  156.4001  137.7633 H   0  0  0  0  0  0  0  0  0  0  0  0
  139.7025  158.6306  134.5016 H   0  0  0  0  0  0  0  0  0  0  0  0
  138.6209  158.8379  135.9181 H   0  0  0  0  0  0  0  0  0  0  0  0
  1  2  1  0
  2  3  2  0
  2  4  1  0
  4  5  2  0
  5  6  1  0
  6  7  2  0
  7  8  1  0
  8  9  2  0
  9 10  1  0
 10 11  1  0
 10 12  1  0
 10 13  1  0
  9 14  1  0
 14 15  2  0
 15 16  1  0
 16 17  1  0
 17 18  2  0
 17 19  1  0
 19 20  1  0
 20 21  1  0
 21 22  1  0
 22 23  1  0
 23 24  1  0
 24 25  1  0
 25 26  1  0
 19 27  1  0
 27 28  1  0
 28 29  2  0
 28 30  1  0
 30 31  1  0
 31 32  1  0
 32 33  1  0
 33 34  1  0
 34 35  1  0
 16  4  1  0
 26 22  1  0
 35 31  1  0
 15  6  1  0
  1 36  1  0
  1 37  1  0
  5 38  1  0
  7 39  1  0
  8 40  1  0
 14 41  1  0
 19 42  1  6
 20 43  1  0
 20 44  1  0
 21 45  1  0
 21 46  1  0
 23 47  1  0
 23 48  1  0
 24 49  1  0
 24 50  1  0
 25 51  1  0
 25 52  1  0
 26 53  1  0
 26 54  1  0
 31 55  1  1
 32 56  1  0
 32 57  1  0
 33 58  1  0
 33 59  1  0
 35 60  1  0
 35 61  1  0
M  CHG  1  27  -1
M  END
>  <UniqueID>  (67) 
67

>  <SMILES>  (67) 
NC(=O)c1cc2ccc(C(F)(F)F)cc2n1C(=O)[C@H](CCN1CCCC1)[N-]C(=O)O[C@@H]1CCOC1

>  <Energy>  (67) 
103.33553408879521

>  <Genealogy>  (67) 
NC(=O)c1cc2ccc(C(F)(F)F)cc2n1C(=O)[C@H](CCN1CCCC1)[N-]C(=O)OC1CCOC1 (protonated)
NC(=O)c1cc2ccc(C(F)(F)F)cc2n1C(=O)[C@H](CCN1CCCC1)[N-]C(=O)O[C@@H]1CCOC1 (chirality)
NC(=O)c1cc2ccc(C(F)(F)F)cc2n1C(=O)[C@H](CCN1CCCC1)[N-]C(=O)O[C@@H]1CCOC1 (3D coordinates assigned)
NC(=O)c1cc2ccc(C(F)(F)F)cc2n1C(=O)[C@H](CCN1CCCC1)[N-]C(=O)O[C@@H]1CCOC1 (nonaromatic ring conformer: 103.33553408879521 kcal/mol)

>  <smiles>  (67) 
NC(=O)c1cc2ccc(C(F)(F)F)cc2n1C(=O)[C@H](CCN1CCCC1)NC(=O)OC1CCOC1

>  <score_type>  (67) 
oracle

>  <origin>  (67) 
adg

>  <m_score__min__energy>  (67) 
-8.7799999999999994

>  <m_primary>  (67) 
energy

$$$$
67:0
     RDKit          3D

 55 59  0  0  0  0  0  0  0  0999 V2000
  141.3850  159.7350  132.5600 N   0  0  0  0  0  0  0  0  0  0  0  0
  140.6050  158.6270  133.0100 C   0  0  0  0  0  0  0  0  0  0  0  0
  139.8100  158.0680  132.2070 O   0  0  0  0  0  0  0  0  0  0  0  0
  140.7230  158.1530  134.3670 N   0  0  0  0  0  0  0  0  0  0  0  0
  139.4850  157.8650  135.1270 C   0  0  0  0  0  0  0  0  0  0  0  0
  139.7710  157.5490  136.6080 C   0  0  2  0  0  0  0  0  0  0  0  0
  140.2410  158.8050  137.3520 C   0  0  0  0  0  0  0  0  0  0  0  0
  141.7660  158.7840  137.2110 C   0  0  0  0  0  0  0  0  0  0  0  0
  142.0580  157.5170  136.3980 C   0  0  2  0  0  0  0  0  0  0  0  0
  142.0730  157.8280  134.8880 C   0  0  0  0  0  0  0  0  0  0  0  0
  140.9150  156.6600  136.6500 N   0  0  0  0  0  0  0  0  0  0  0  0
  140.9820  155.5220  137.5240 C   0  0  0  0  0  0  0  0  0  0  0  0
  140.7300  155.6560  138.7530 O   0  0  0  0  0  0  0  0  0  0  0  0
  141.4310  154.1870  137.0050 C   0  0  0  0  0  0  0  0  0  0  0  0
  142.8510  154.2010  136.6740 N   0  0  0  0  0  0  0  0  0  0  0  0
  143.4380  154.9540  135.7250 C   0  0  0  0  0  0  0  0  0  0  0  0
  144.7920  154.6740  135.7320 C   0  0  0  0  0  0  0  0  0  0  0  0
  145.8450  155.2700  134.8750 C   0  0  0  0  0  0  0  0  0  0  0  0
  147.0420  154.5550  134.6100 C   0  0  0  0  0  0  0  0  0  0  0  0
  148.0510  155.1140  133.8100 C   0  0  0  0  0  0  0  0  0  0  0  0
  147.8400  156.3830  133.2850 C   0  0  0  0  0  0  0  0  0  0  0  0
  148.6660  157.1650  132.5100 C   0  0  0  0  0  0  0  0  0  0  0  0
  147.9580  158.3420  132.2910 C   0  0  0  0  0  0  0  0  0  0  0  0
  148.4510  159.4350  131.4280 C   0  0  0  0  0  0  0  0  0  0  0  0
  148.9390  159.1750  130.1110 N   0  0  0  0  0  0  0  0  0  0  0  0
  148.5150  160.6070  131.8880 O   0  0  0  0  0  0  0  0  0  0  0  0
  146.7470  158.3010  132.9170 N   0  0  0  0  0  0  0  0  0  0  0  0
  145.7930  159.3720  133.0340 C   0  0  0  0  0  0  0  0  0  0  0  0
  146.1410  160.4920  133.4940 O   0  0  0  0  0  0  0  0  0  0  0  0
  144.4760  159.1840  132.6320 O   0  0  0  0  0  0  0  0  0  0  0  0
  146.6870  157.0890  133.5170 C   0  0  0  0  0  0  0  0  0  0  0  0
  145.6700  156.5610  134.3220 C   0  0  0  0  0  0  0  0  0  0  0  0
  144.9520  153.7210  136.7260 C   0  0  0  0  0  0  0  0  0  0  0  0
  143.7570  153.4530  137.2850 N   0  0  0  0  0  0  0  0  0  0  0  0
  142.3720  159.6040  132.2470 H   0  0  0  0  0  0  0  0  0  0  0  0
  138.9826  156.9993  134.6707 H   0  0  0  0  0  0  0  0  0  0  0  0
  138.8497  158.7622  135.0898 H   0  0  0  0  0  0  0  0  0  0  0  0
  138.8558  157.1360  137.0574 H   0  0  0  0  0  0  0  0  0  0  0  0
  139.9476  158.7624  138.4113 H   0  0  0  0  0  0  0  0  0  0  0  0
  139.7952  159.7245  136.9449 H   0  0  0  0  0  0  0  0  0  0  0  0
  142.2473  158.7319  138.1987 H   0  0  0  0  0  0  0  0  0  0  0  0
  142.1541  159.6916  136.7256 H   0  0  0  0  0  0  0  0  0  0  0  0
  143.0285  157.0789  136.6740 H   0  0  0  0  0  0  0  0  0  0  0  0
  142.4579  156.9494  134.3496 H   0  0  0  0  0  0  0  0  0  0  0  0
  142.7148  158.7076  134.7319 H   0  0  0  0  0  0  0  0  0  0  0  0
  141.2495  153.4230  137.7753 H   0  0  0  0  0  0  0  0  0  0  0  0
  140.8624  153.9590  136.0914 H   0  0  0  0  0  0  0  0  0  0  0  0
  142.9293  155.6675  135.0601 H   0  0  0  0  0  0  0  0  0  0  0  0
  147.1808  153.5506  135.0367 H   0  0  0  0  0  0  0  0  0  0  0  0
  148.9811  154.5637  133.6048 H   0  0  0  0  0  0  0  0  0  0  0  0
  149.6716  156.9129  132.1422 H   0  0  0  0  0  0  0  0  0  0  0  0
  149.0580  158.1980  129.7640 H   0  0  0  0  0  0  0  0  0  0  0  0
  149.2930  159.9590  129.5180 H   0  0  0  0  0  0  0  0  0  0  0  0
  144.7544  157.1375  134.5204 H   0  0  0  0  0  0  0  0  0  0  0  0
  145.9067  153.2562  137.0132 H   0  0  0  0  0  0  0  0  0  0  0  0
  1  2  1  0
  2  3  2  0
  2  4  1  0
  4  5  1  0
  5  6  1  0
  6  7  1  0
  7  8  1  0
  8  9  1  0
  9 10  1  0
  9 11  1  0
 11 12  1  0
 12 13  2  0
 12 14  1  0
 14 15  1  0
 15 16  1  0
 16 17  2  0
 17 18  1  0
 18 19  2  0
 19 20  1  0
 20 21  2  0
 21 22  1  0
 22 23  2  0
 23 24  1  0
 24 25  1  0
 24 26  2  0
 23 27  1  0
 27 28  1  0
 28 29  2  0
 28 30  1  0
 27 31  1  0
 31 32  2  0
 17 33  1  0
 33 34  2  0
 10  4  1  0
 34 15  1  0
 11  6  1  0
 32 18  1  0
 31 21  1  0
  1 35  1  0
  5 36  1  0
  5 37  1  0
  6 38  1  1
  7 39  1  0
  7 40  1  0
  8 41  1  0
  8 42  1  0
  9 43  1  1
 10 44  1  0
 10 45  1  0
 14 46  1  0
 14 47  1  0
 16 48  1  0
 19 49  1  0
 20 50  1  0
 22 51  1  0
 25 52  1  0
 25 53  1  0
 32 54  1  0
 33 55  1  0
M  CHG  2   1  -1  30  -1
M  END
>  <UniqueID>  (68) 
68

>  <SMILES>  (68) 
[NH-]C(=O)N1C[C@H]2CC[C@@H](C1)N2C(=O)Cn1cc(-c2ccc3cc(C(N)=O)n(C(=O)[O-])c3c2)cn1

>  <Energy>  (68) 
147.1722844792785

>  <Genealogy>  (68) 
[NH-]C(=O)N1CC2CC[C@H](C1)N2C(=O)Cn1cc(-c2ccc3cc(C(N)=O)n(C(=O)[O-])c3c2)cn1 (protonated)
[NH-]C(=O)N1C[C@H]2CC[C@@H](C1)N2C(=O)Cn1cc(-c2ccc3cc(C(N)=O)n(C(=O)[O-])c3c2)cn1 (chirality)
[NH-]C(=O)N1C[C@H]2CC[C@@H](C1)N2C(=O)Cn1cc(-c2ccc3cc(C(N)=O)n(C(=O)[O-])c3c2)cn1 (3D coordinates assigned)
[NH-]C(=O)N1C[C@H]2CC[C@@H](C1)N2C(=O)Cn1cc(-c2ccc3cc(C(N)=O)n(C(=O)[O-])c3c2)cn1 (nonaromatic ring conformer: 147.1722844792785 kcal/mol)

>  <smiles>  (68) 
NC(=O)c1cc2ccc(-c3cnn(CC(=O)N4C5CC[C@@H]4CN(C(N)=O)C5)c3)cc2n1C(=O)O

>  <score_type>  (68) 
oracle

>  <origin>  (68) 
adg

>  <m_score__min__energy>  (68) 
-9.4000000000000004

>  <m_primary>  (68) 
energy

$$$$
68:0
     RDKit          3D

 35 36  0  0  0  0  0  0  0  0999 V2000
  140.7700  153.0820  140.3920 C   0  0  0  0  0  0  0  0  0  0  0  0
  141.2690  153.1100  139.0090 N   0  0  0  0  0  0  0  0  0  0  0  0
  141.2110  154.3520  138.2720 C   0  0  0  0  0  0  0  0  0  0  0  0
  140.6370  155.5100  138.8610 C   0  0  0  0  0  0  0  0  0  0  0  0
  140.5920  156.7270  138.1620 C   0  0  0  0  0  0  0  0  0  0  0  0
  141.1180  156.7590  136.8750 C   0  0  0  0  0  0  0  0  0  0  0  0
  141.2330  157.8100  135.9940 C   0  0  0  0  0  0  0  0  0  0  0  0
  141.8480  157.2770  134.8650 C   0  0  0  0  0  0  0  0  0  0  0  0
  142.1120  158.0580  133.6390 C   0  0  0  0  0  0  0  0  0  0  0  0
  142.2510  157.4180  132.3710 N   0  0  0  0  0  0  0  0  0  0  0  0
  142.1600  159.3160  133.7060 O   0  0  0  0  0  0  0  0  0  0  0  0
  142.1170  155.9530  135.0420 N   0  0  0  0  0  0  0  0  0  0  0  0
  142.8430  155.0820  134.1590 C   0  0  0  0  0  0  0  0  0  0  0  0
  144.0810  154.9100  134.3200 O   0  0  0  0  0  0  0  0  0  0  0  0
  142.1790  154.4260  133.1240 O   0  0  0  0  0  0  0  0  0  0  0  0
  141.5340  152.4760  133.2880 I   0  0  0  0  0  0  0  0  0  0  0  0
  141.6600  155.6500  136.2780 C   0  0  0  0  0  0  0  0  0  0  0  0
  141.7390  154.4300  136.9620 C   0  0  0  0  0  0  0  0  0  0  0  0
  141.7380  151.8760  138.3460 C   0  0  0  0  0  0  0  0  0  0  0  0
  140.5890  151.1040  137.7550 C   0  0  0  0  0  0  0  0  0  0  0  0
  139.6180  150.7410  138.4700 O   0  0  0  0  0  0  0  0  0  0  0  0
  140.6190  150.7450  136.4130 O   0  0  0  0  0  0  0  0  0  0  0  0
  142.5500  151.0270  139.2890 C   0  0  0  0  0  0  0  0  0  0  0  0
  143.7970  150.9500  139.1400 O   0  0  0  0  0  0  0  0  0  0  0  0
  141.9480  150.3650  140.3530 O   0  0  0  0  0  0  0  0  0  0  0  0
  141.6194  153.1297  141.0893 H   0  0  0  0  0  0  0  0  0  0  0  0
  140.1084  153.9444  140.5606 H   0  0  0  0  0  0  0  0  0  0  0  0
  140.2090  152.1510  140.5606 H   0  0  0  0  0  0  0  0  0  0  0  0
  140.2222  155.4527  139.8782 H   0  0  0  0  0  0  0  0  0  0  0  0
  140.1543  157.6271  138.6182 H   0  0  0  0  0  0  0  0  0  0  0  0
  140.9082  158.8494  136.1491 H   0  0  0  0  0  0  0  0  0  0  0  0
  142.4780  157.9830  131.5210 H   0  0  0  0  0  0  0  0  0  0  0  0
  142.0470  156.4010  132.2540 H   0  0  0  0  0  0  0  0  0  0  0  0
  142.2021  153.5508  136.4901 H   0  0  0  0  0  0  0  0  0  0  0  0
  142.3974  152.1695  137.5159 H   0  0  0  0  0  0  0  0  0  0  0  0
  1  2  1  0
  2  3  1  0
  3  4  2  0
  4  5  1  0
  5  6  2  0
  6  7  1  0
  7  8  2  0
  8  9  1  0
  9 10  1  0
  9 11  2  0
  8 12  1  0
 12 13  1  0
 13 14  2  0
 13 15  1  0
 15 16  1  0
 12 17  1  0
 17 18  2  0
  2 19  1  0
 19 20  1  0
 20 21  2  0
 20 22  1  0
 19 23  1  0
 23 24  2  0
 23 25  1  0
 18  3  1  0
 17  6  1  0
  1 26  1  0
  1 27  1  0
  1 28  1  0
  4 29  1  0
  5 30  1  0
  7 31  1  0
 10 32  1  0
 10 33  1  0
 18 34  1  0
 19 35  1  0
M  CHG  2  22  -1  25  -1
M  END
>  <UniqueID>  (69) 
69

>  <SMILES>  (69) 
CN(c1ccc2cc(C(N)=O)n(C(=O)OI)c2c1)C(C(=O)[O-])C(=O)[O-]

>  <Energy>  (69) 
78.92788383822455

>  <Genealogy>  (69) 
CN(c1ccc2cc(C(N)=O)n(C(=O)OI)c2c1)C(C(=O)[O-])C(=O)[O-] (protonated)
CN(c1ccc2cc(C(N)=O)n(C(=O)OI)c2c1)C(C(=O)[O-])C(=O)[O-] (3D coordinates assigned)
CN(c1ccc2cc(C(N)=O)n(C(=O)OI)c2c1)C(C(=O)[O-])C(=O)[O-] (optimized conformer: 78.92788383822455 kcal/mol)

>  <smiles>  (69) 
CN(c1ccc2cc(C(N)=O)n(C(=O)OI)c2c1)C(C(=O)O)C(=O)O

>  <score_type>  (69) 
oracle

>  <origin>  (69) 
adg

>  <m_score__min__energy>  (69) 
-7.4400000000000004

>  <m_primary>  (69) 
energy

$$$$
69:0
     RDKit          3D

 50 52  0  0  0  0  0  0  0  0999 V2000
  141.4708  155.5358  134.8883 H   0  0  0  0  0  0  0  0  0  0  0  0
  141.0530  155.2490  133.9120 C   0  0  0  0  0  0  0  0  0  0  0  0
  140.4570  156.2940  133.0580 C   0  0  0  0  0  0  0  0  0  0  0  0
  139.5290  156.0080  132.2530 O   0  0  0  0  0  0  0  0  0  0  0  0
  140.9570  157.6410  133.1100 N   0  0  0  0  0  0  0  0  0  0  0  0
  140.2480  158.8010  133.0160 C   0  0  0  0  0  0  0  0  0  0  0  0
  138.8080  158.9020  132.6870 C   0  0  0  0  0  0  0  0  0  0  0  0
  138.3650  159.9220  132.0970 O   0  0  0  0  0  0  0  0  0  0  0  0
  137.8990  157.8640  133.0570 N   0  0  0  0  0  0  0  0  0  0  0  0
  138.2350  156.9780  133.4950 H   0  0  0  0  0  0  0  0  0  0  0  0
  136.8800  157.9630  132.8520 H   0  0  0  0  0  0  0  0  0  0  0  0
  141.0910  159.9010  133.1750 C   0  0  0  0  0  0  0  0  0  0  0  0
  140.8112  160.9646  133.1526 H   0  0  0  0  0  0  0  0  0  0  0  0
  142.3480  159.3720  133.3660 C   0  0  0  0  0  0  0  0  0  0  0  0
  143.5680  160.0100  133.5700 C   0  0  0  0  0  0  0  0  0  0  0  0
  143.6371  161.1076  133.5913 H   0  0  0  0  0  0  0  0  0  0  0  0
  144.7090  159.2090  133.7480 C   0  0  0  0  0  0  0  0  0  0  0  0
  145.6901  159.6831  133.8987 H   0  0  0  0  0  0  0  0  0  0  0  0
  144.6060  157.7950  133.7350 C   0  0  0  0  0  0  0  0  0  0  0  0
  145.8360  156.9520  133.8950 C   0  0  0  0  0  0  0  0  0  0  0  0
  146.0454  156.8084  134.9653 H   0  0  0  0  0  0  0  0  0  0  0  0
  145.6746  155.9738  133.4185 H   0  0  0  0  0  0  0  0  0  0  0  0
  146.6901  157.4555  133.4185 H   0  0  0  0  0  0  0  0  0  0  0  0
  143.3540  157.1830  133.5070 C   0  0  0  0  0  0  0  0  0  0  0  0
  143.2580  156.0876  133.4772 H   0  0  0  0  0  0  0  0  0  0  0  0
  142.2390  158.0070  133.3200 C   0  0  0  0  0  0  0  0  0  0  0  0
  141.1030  153.9660  133.5410 C   0  0  0  0  0  0  0  0  0  0  0  0
  140.7160  153.6700  132.5548 H   0  0  0  0  0  0  0  0  0  0  0  0
  141.6810  152.9240  134.4540 C   0  0  0  0  0  0  0  0  0  0  0  0
  142.4723  153.3788  135.0681 H   0  0  0  0  0  0  0  0  0  0  0  0
  140.8811  152.5311  135.0988 H   0  0  0  0  0  0  0  0  0  0  0  0
  142.2500  151.8180  133.6730 N   0  0  0  0  0  0  0  0  0  0  0  0
  141.5170  150.5880  133.5470 C   0  0  0  0  0  0  0  0  0  0  0  0
  140.9590  150.0740  134.5560 O   0  0  0  0  0  0  0  0  0  0  0  0
  141.4410  149.9520  132.3010 O   0  0  0  0  0  0  0  0  0  0  0  0
  140.8040  148.6930  132.0990 C   0  0  0  0  0  0  0  0  0  0  0  0
  141.5148  147.8840  132.3233 H   0  0  0  0  0  0  0  0  0  0  0  0
  139.9323  148.6161  132.7655 H   0  0  0  0  0  0  0  0  0  0  0  0
  140.3390  148.5730  130.6410 C   0  0  1  0  0  0  0  0  0  0  0  0
  141.2684  148.9731  130.2096 H   0  0  0  0  0  0  0  0  0  0  0  0
  139.4240  147.3910  130.3250 C   0  0  0  0  0  0  0  0  0  0  0  0
  139.4960  146.8841  129.3514 H   0  0  0  0  0  0  0  0  0  0  0  0
  139.1996  146.4289  130.8087 H   0  0  0  0  0  0  0  0  0  0  0  0
  138.8530  148.7970  130.4100 C   0  0  0  0  0  0  0  0  0  0  0  0
  138.5090  149.3620  129.1950 F   0  0  0  0  0  0  0  0  0  0  0  0
  138.0580  149.0440  131.5140 F   0  0  0  0  0  0  0  0  0  0  0  0
  143.5410  151.9690  132.9950 C   0  0  0  0  0  0  0  0  0  0  0  0
  144.3403  152.0625  133.7449 H   0  0  0  0  0  0  0  0  0  0  0  0
  143.7300  151.0868  132.3657 H   0  0  0  0  0  0  0  0  0  0  0  0
  143.5214  152.8710  132.3657 H   0  0  0  0  0  0  0  0  0  0  0  0
  1  2  1  0
  2  3  1  0
  3  4  2  0
  3  5  1  0
  5  6  1  0
  6  7  1  0
  7  8  2  0
  7  9  1  0
  9 10  1  0
  9 11  1  0
  6 12  2  0
 12 13  1  0
 12 14  1  0
 14 15  2  0
 15 16  1  0
 15 17  1  0
 17 18  1  0
 17 19  2  0
 19 20  1  0
 20 21  1  0
 20 22  1  0
 20 23  1  0
 19 24  1  0
 24 25  1  0
 24 26  2  0
  2 27  2  0
 27 28  1  0
 27 29  1  0
 29 30  1  0
 29 31  1  0
 29 32  1  0
 32 33  1  0
 33 34  2  0
 33 35  1  0
 35 36  1  0
 36 37  1  0
 36 38  1  0
 36 39  1  0
 39 40  1  6
 39 41  1  0
 41 42  1  0
 41 43  1  0
 41 44  1  0
 44 45  1  0
 44 46  1  0
 32 47  1  0
 47 48  1  0
 47 49  1  0
 47 50  1  0
 26  5  1  0
 44 39  1  0
 26 14  1  0
M  END
>  <UniqueID>  (70) 
70

>  <SMILES>  (70) 
Cc1ccc2cc(C(N)=O)n(C(=O)/C=C/CN(C)C(=O)OC[C@H]3CC3(F)F)c2c1

>  <Energy>  (70) 
349.69453089645026

>  <Genealogy>  (70) 
Cc1ccc2cc(C(N)=O)n(C(=O)/C=C/CN(C)C(=O)OC[C@H]3CC3(F)F)c2c1 (chirality)
Cc1ccc2cc(C(N)=O)n(C(=O)/C=C/CN(C)C(=O)OC[C@H]3CC3(F)F)c2c1 (cis-trans isomerization)
Cc1ccc2cc(C(N)=O)n(C(=O)/C=C/CN(C)C(=O)OC[C@H]3CC3(F)F)c2c1 (3D coordinates assigned)
Cc1ccc2cc(C(N)=O)n(C(=O)/C=C/CN(C)C(=O)OC[C@H]3CC3(F)F)c2c1 (nonaromatic ring conformer: 349.69453089645026 kcal/mol)

>  <smiles>  (70) 
Cc1ccc2cc(C(N)=O)n(C(=O)/C=C/CN(C)C(=O)OCC3CC3(F)F)c2c1

>  <score_type>  (70) 
oracle

>  <origin>  (70) 
adg

>  <m_score__min__energy>  (70) 
-8.1899999999999995

>  <m_primary>  (70) 
energy

$$$$
70:0
     RDKit          3D

 44 45  0  0  0  0  0  0  0  0999 V2000
  141.3820  152.6950  138.1950 N   0  0  0  0  0  0  0  0  0  0  0  0
  140.8190  153.9230  138.6500 C   0  0  0  0  0  0  0  0  0  0  0  0
  140.1500  153.9370  139.7170 O   0  0  0  0  0  0  0  0  0  0  0  0
  140.9850  155.1510  137.8450 C   0  0  0  0  0  0  0  0  0  0  0  0
  140.4170  156.3760  138.1880 C   0  0  0  0  0  0  0  0  0  0  0  0
  140.8810  157.2690  137.2490 C   0  0  0  0  0  0  0  0  0  0  0  0
  140.6150  158.6260  137.0990 C   0  0  0  0  0  0  0  0  0  0  0  0
  141.2060  159.2980  136.0150 C   0  0  0  0  0  0  0  0  0  0  0  0
  142.0540  158.6080  135.1100 C   0  0  0  0  0  0  0  0  0  0  0  0
  142.6310  159.3260  133.9160 C   0  0  0  0  0  0  0  0  0  0  0  0
  143.4410  158.4780  133.1800 F   0  0  0  0  0  0  0  0  0  0  0  0
  143.3810  160.4010  134.3510 F   0  0  0  0  0  0  0  0  0  0  0  0
  141.6200  159.7860  133.0890 F   0  0  0  0  0  0  0  0  0  0  0  0
  142.2800  157.2240  135.2840 C   0  0  0  0  0  0  0  0  0  0  0  0
  141.6940  156.5840  136.3840 C   0  0  0  0  0  0  0  0  0  0  0  0
  141.7660  155.2800  136.7350 N   0  0  0  0  0  0  0  0  0  0  0  0
  142.4580  154.2400  136.0240 C   0  0  0  0  0  0  0  0  0  0  0  0
  143.5150  153.7460  136.5010 O   0  0  0  0  0  0  0  0  0  0  0  0
  141.9640  153.7930  134.7950 O   0  0  0  0  0  0  0  0  0  0  0  0
  142.3700  152.5640  134.2020 C   0  0  0  0  0  0  0  0  0  0  0  0
  141.3600  151.5090  134.5050 C   0  0  0  0  0  0  0  0  0  0  0  0
  140.9990  151.3160  135.6990 O   0  0  0  0  0  0  0  0  0  0  0  0
  140.8350  150.7340  133.4640 O   0  0  0  0  0  0  0  0  0  0  0  0
  141.5670  150.4070  132.2860 C   0  0  0  0  0  0  0  0  0  0  0  0
  141.1860  149.0360  131.7970 C   0  0  0  0  0  0  0  0  0  0  0  0
  141.3370  148.0580  132.5770 O   0  0  0  0  0  0  0  0  0  0  0  0
  140.6250  148.7960  130.4980 N   0  0  0  0  0  0  0  0  0  0  0  0
  139.2330  148.4840  130.1840 C   0  0  0  0  0  0  0  0  0  0  0  0
  139.0370  146.9820  129.9760 C   0  0  0  0  0  0  0  0  0  0  0  0
  140.1660  146.2630  130.3920 O   0  0  0  0  0  0  0  0  0  0  0  0
  141.8050  152.6190  137.2430 H   0  0  0  0  0  0  0  0  0  0  0  0
  139.7412  156.5851  139.0304 H   0  0  0  0  0  0  0  0  0  0  0  0
  139.9620  159.1572  137.8071 H   0  0  0  0  0  0  0  0  0  0  0  0
  141.0091  160.3700  135.8666 H   0  0  0  0  0  0  0  0  0  0  0  0
  142.9020  156.6618  134.5719 H   0  0  0  0  0  0  0  0  0  0  0  0
  142.4514  152.6917  133.1125 H   0  0  0  0  0  0  0  0  0  0  0  0
  143.3468  152.2648  134.6098 H   0  0  0  0  0  0  0  0  0  0  0  0
  141.3433  151.1465  131.5030 H   0  0  0  0  0  0  0  0  0  0  0  0
  142.6420  150.4175  132.5188 H   0  0  0  0  0  0  0  0  0  0  0  0
  138.5942  148.8176  131.0150 H   0  0  0  0  0  0  0  0  0  0  0  0
  138.9608  149.0032  129.2533 H   0  0  0  0  0  0  0  0  0  0  0  0
  138.1649  146.6496  130.5581 H   0  0  0  0  0  0  0  0  0  0  0  0
  138.8800  146.7956  128.9033 H   0  0  0  0  0  0  0  0  0  0  0  0
  140.7690  146.9110  130.8400 H   0  0  0  0  0  0  0  0  0  0  0  0
  1  2  1  0
  2  3  2  0
  2  4  1  0
  4  5  2  0
  5  6  1  0
  6  7  2  0
  7  8  1  0
  8  9  2  0
  9 10  1  0
 10 11  1  0
 10 12  1  0
 10 13  1  0
  9 14  1  0
 14 15  2  0
 15 16  1  0
 16 17  1  0
 17 18  2  0
 17 19  1  0
 19 20  1  0
 20 21  1  0
 21 22  2  0
 21 23  1  0
 23 24  1  0
 24 25  1  0
 25 26  2  0
 25 27  1  0
 27 28  1  0
 28 29  1  0
 29 30  1  0
 16  4  1  0
 15  6  1  0
  1 31  1  0
  5 32  1  0
  7 33  1  0
  8 34  1  0
 14 35  1  0
 20 36  1  0
 20 37  1  0
 24 38  1  0
 24 39  1  0
 28 40  1  0
 28 41  1  0
 29 42  1  0
 29 43  1  0
 30 44  1  0
M  CHG  2   1  -1  27  -1
M  END
>  <UniqueID>  (71) 
71

>  <SMILES>  (71) 
[NH-]C(=O)c1cc2ccc(C(F)(F)F)cc2n1C(=O)OCC(=O)OCC(=O)[N-]CCO

>  <Energy>  (71) 
76.38837322352785

>  <Genealogy>  (71) 
[NH-]C(=O)c1cc2ccc(C(F)(F)F)cc2n1C(=O)OCC(=O)OCC(=O)[N-]CCO (protonated)
[NH-]C(=O)c1cc2ccc(C(F)(F)F)cc2n1C(=O)OCC(=O)OCC(=O)[N-]CCO (3D coordinates assigned)
[NH-]C(=O)c1cc2ccc(C(F)(F)F)cc2n1C(=O)OCC(=O)OCC(=O)[N-]CCO (optimized conformer: 76.38837322352785 kcal/mol)

>  <smiles>  (71) 
NC(=O)c1cc2ccc(C(F)(F)F)cc2n1C(=O)OCC(=O)OCC(=O)NCCO

>  <score_type>  (71) 
oracle

>  <origin>  (71) 
adg

>  <m_score__min__energy>  (71) 
-5.6699999999999999

>  <m_primary>  (71) 
energy

$$$$
71:0
     RDKit          3D

 51 52  0  0  0  0  0  0  0  0999 V2000
  149.1590  157.4600  132.2890 C   0  0  0  0  0  0  0  0  0  0  0  0
  148.0470  158.4060  132.6320 C   0  0  0  0  0  0  0  0  0  0  0  0
  148.3420  159.7460  132.9820 C   0  0  0  0  0  0  0  0  0  0  0  0
  147.3150  160.6330  133.3480 C   0  0  0  0  0  0  0  0  0  0  0  0
  146.0100  160.1490  133.3620 C   0  0  0  0  0  0  0  0  0  0  0  0
  144.8320  160.7770  133.6990 C   0  0  0  0  0  0  0  0  0  0  0  0
  143.8410  159.8070  133.5580 C   0  0  0  0  0  0  0  0  0  0  0  0
  142.4000  160.0730  133.7570 C   0  0  0  0  0  0  0  0  0  0  0  0
  141.4740  159.0060  133.9510 N   0  0  0  0  0  0  0  0  0  0  0  0
  141.9740  161.2590  133.7250 O   0  0  0  0  0  0  0  0  0  0  0  0
  144.3890  158.6260  133.1560 N   0  0  0  0  0  0  0  0  0  0  0  0
  143.7340  157.3630  132.9690 C   0  0  0  0  0  0  0  0  0  0  0  0
  142.7370  157.2850  132.2020 O   0  0  0  0  0  0  0  0  0  0  0  0
  144.2790  156.1180  133.6110 C   0  0  0  0  0  0  0  0  0  0  0  0
  143.8940  154.8680  132.8630 C   0  0  0  0  0  0  0  0  0  0  0  0
  144.3840  154.6370  131.7240 O   0  0  0  0  0  0  0  0  0  0  0  0
  143.0300  153.8840  133.4440 N   0  0  0  0  0  0  0  0  0  0  0  0
  141.5720  153.9520  133.5200 C   0  0  0  0  0  0  0  0  0  0  0  0
  141.1120  155.3840  133.8130 C   0  0  0  0  0  0  0  0  0  0  0  0
  139.7090  155.6990  133.2710 C   0  0  0  0  0  0  0  0  0  0  0  0
  139.7020  156.9670  132.5240 N   0  0  0  0  0  0  0  0  0  0  0  0
  138.7010  157.9050  133.0580 C   0  0  0  0  0  0  0  0  0  0  0  0
  138.3550  158.9840  132.0250 C   0  0  0  0  0  0  0  0  0  0  0  0
  139.5850  159.8050  131.6250 C   0  0  0  0  0  0  0  0  0  0  0  0
  140.5910  158.9780  131.1040 O   0  0  0  0  0  0  0  0  0  0  0  0
  145.7120  158.8530  133.0340 C   0  0  0  0  0  0  0  0  0  0  0  0
  146.7130  157.9450  132.6750 C   0  0  0  0  0  0  0  0  0  0  0  0
  149.6115  157.0750  133.2147 H   0  0  0  0  0  0  0  0  0  0  0  0
  148.7586  156.6215  131.7003 H   0  0  0  0  0  0  0  0  0  0  0  0
  149.9225  157.9897  131.7003 H   0  0  0  0  0  0  0  0  0  0  0  0
  149.3847  160.0960  132.9673 H   0  0  0  0  0  0  0  0  0  0  0  0
  147.5356  161.6770  133.6151 H   0  0  0  0  0  0  0  0  0  0  0  0
  144.7007  161.8230  134.0131 H   0  0  0  0  0  0  0  0  0  0  0  0
  141.1570  158.4170  133.1490 H   0  0  0  0  0  0  0  0  0  0  0  0
  145.3764  156.1876  133.6406 H   0  0  0  0  0  0  0  0  0  0  0  0
  143.8511  156.0481  134.6219 H   0  0  0  0  0  0  0  0  0  0  0  0
  141.1446  153.6244  132.5608 H   0  0  0  0  0  0  0  0  0  0  0  0
  141.2290  153.2964  134.3340 H   0  0  0  0  0  0  0  0  0  0  0  0
  141.1056  155.5317  134.9030 H   0  0  0  0  0  0  0  0  0  0  0  0
  141.8150  156.0605  133.3050 H   0  0  0  0  0  0  0  0  0  0  0  0
  139.3916  154.8859  132.6016 H   0  0  0  0  0  0  0  0  0  0  0  0
  139.0182  155.7911  134.1221 H   0  0  0  0  0  0  0  0  0  0  0  0
  140.6420  157.4160  132.6490 H   0  0  0  0  0  0  0  0  0  0  0  0
  137.7881  157.3485  133.3168 H   0  0  0  0  0  0  0  0  0  0  0  0
  139.1191  158.3943  133.9501 H   0  0  0  0  0  0  0  0  0  0  0  0
  137.9438  158.4987  131.1276 H   0  0  0  0  0  0  0  0  0  0  0  0
  137.6208  159.6669  132.4772 H   0  0  0  0  0  0  0  0  0  0  0  0
  139.2936  160.5419  130.8621 H   0  0  0  0  0  0  0  0  0  0  0  0
  139.9752  160.3121  132.5198 H   0  0  0  0  0  0  0  0  0  0  0  0
  141.0600  158.5780  131.8820 H   0  0  0  0  0  0  0  0  0  0  0  0
  146.4680  156.9004  132.4328 H   0  0  0  0  0  0  0  0  0  0  0  0
  1  2  1  0
  2  3  2  0
  3  4  1  0
  4  5  2  0
  5  6  1  0
  6  7  2  0
  7  8  1  0
  8  9  1  0
  8 10  2  0
  7 11  1  0
 11 12  1  0
 12 13  2  0
 12 14  1  0
 14 15  1  0
 15 16  2  0
 15 17  1  0
 17 18  1  0
 18 19  1  0
 19 20  1  0
 20 21  1  0
 21 22  1  0
 22 23  1  0
 23 24  1  0
 24 25  1  0
 11 26  1  0
 26 27  2  0
 27  2  1  0
 26  5  1  0
  1 28  1  0
  1 29  1  0
  1 30  1  0
  3 31  1  0
  4 32  1  0
  6 33  1  0
  9 34  1  0
 14 35  1  0
 14 36  1  0
 18 37  1  0
 18 38  1  0
 19 39  1  0
 19 40  1  0
 20 41  1  0
 20 42  1  0
 21 43  1  0
 22 44  1  0
 22 45  1  0
 23 46  1  0
 23 47  1  0
 24 48  1  0
 24 49  1  0
 25 50  1  0
 27 51  1  0
M  CHG  2   9  -1  17  -1
M  END
>  <UniqueID>  (72) 
72

>  <SMILES>  (72) 
Cc1ccc2cc(C([NH-])=O)n(C(=O)CC(=O)[N-]CCCNCCCO)c2c1

>  <Energy>  (72) 
79.985280294576

>  <Genealogy>  (72) 
Cc1ccc2cc(C([NH-])=O)n(C(=O)CC(=O)[N-]CCCNCCCO)c2c1 (protonated)
Cc1ccc2cc(C([NH-])=O)n(C(=O)CC(=O)[N-]CCCNCCCO)c2c1 (3D coordinates assigned)
Cc1ccc2cc(C([NH-])=O)n(C(=O)CC(=O)[N-]CCCNCCCO)c2c1 (optimized conformer: 79.985280294576 kcal/mol)

>  <smiles>  (72) 
Cc1ccc2cc(C(N)=O)n(C(=O)CC(=O)NCCCNCCCO)c2c1

>  <score_type>  (72) 
oracle

>  <origin>  (72) 
adg

>  <m_score__min__energy>  (72) 
-6.4000000000000004

>  <m_primary>  (72) 
energy

$$$$
72:0
     RDKit          3D

 40 42  0  0  0  0  0  0  0  0999 V2000
  139.8490  149.3590  132.6030 C   0  0  0  0  0  0  0  0  0  0  0  0
  140.5650  150.3200  132.7300 C   0  0  0  0  0  0  0  0  0  0  0  0
  141.4190  151.4680  132.8900 C   0  0  0  0  0  0  0  0  0  0  0  0
  142.8230  151.3050  132.9200 C   0  0  0  0  0  0  0  0  0  0  0  0
  143.6660  152.4190  133.0730 C   0  0  0  0  0  0  0  0  0  0  0  0
  143.0740  153.6730  133.1960 C   0  0  0  0  0  0  0  0  0  0  0  0
  143.6490  154.9190  133.3150 C   0  0  0  0  0  0  0  0  0  0  0  0
  142.5820  155.8160  133.3680 C   0  0  0  0  0  0  0  0  0  0  0  0
  142.7450  157.2740  133.5460 C   0  0  0  0  0  0  0  0  0  0  0  0
  142.3920  157.9090  134.7720 N   0  0  0  0  0  0  0  0  0  0  0  0
  143.2310  157.9660  132.6110 O   0  0  0  0  0  0  0  0  0  0  0  0
  141.3970  155.1490  133.2900 N   0  0  0  0  0  0  0  0  0  0  0  0
  140.0770  155.7100  133.2190 C   0  0  0  0  0  0  0  0  0  0  0  0
  139.1060  154.9660  132.9170 O   0  0  0  0  0  0  0  0  0  0  0  0
  139.8570  157.1430  133.4980 C   0  0  0  0  0  0  0  0  0  0  0  0
  139.6500  157.5100  134.6870 O   0  0  0  0  0  0  0  0  0  0  0  0
  139.8440  158.1690  132.3870 C   0  0  1  0  0  0  0  0  0  0  0  0
  138.4910  158.2310  131.6800 C   0  0  0  0  0  0  0  0  0  0  0  0
  138.3250  159.6740  131.2020 C   0  0  0  0  0  0  0  0  0  0  0  0
  139.4600  160.4890  131.8210 C   0  0  0  0  0  0  0  0  0  0  0  0
  140.0830  159.5960  132.8890 C   0  0  2  0  0  0  0  0  0  0  0  0
  141.5040  159.8960  133.0780 N   0  0  0  0  0  0  0  0  0  0  0  0
  141.7130  153.8410  133.1810 C   0  0  0  0  0  0  0  0  0  0  0  0
  140.8500  152.7510  133.0140 C   0  0  0  0  0  0  0  0  0  0  0  0
  139.1955  148.4818  132.4871 H   0  0  0  0  0  0  0  0  0  0  0  0
  143.2585  150.2995  132.8229 H   0  0  0  0  0  0  0  0  0  0  0  0
  144.7597  152.3037  133.0949 H   0  0  0  0  0  0  0  0  0  0  0  0
  144.7222  155.1564  133.3589 H   0  0  0  0  0  0  0  0  0  0  0  0
  141.5630  158.5390  134.8330 H   0  0  0  0  0  0  0  0  0  0  0  0
  140.6509  157.8400  131.7157 H   0  0  0  0  0  0  0  0  0  0  0  0
  138.4766  157.5414  130.8231 H   0  0  0  0  0  0  0  0  0  0  0  0
  137.6730  157.9352  132.3534 H   0  0  0  0  0  0  0  0  0  0  0  0
  138.3855  159.7167  130.1045 H   0  0  0  0  0  0  0  0  0  0  0  0
  137.3464  160.0752  131.5044 H   0  0  0  0  0  0  0  0  0  0  0  0
  140.2066  160.7477  131.0557 H   0  0  0  0  0  0  0  0  0  0  0  0
  139.0919  161.4331  132.2490 H   0  0  0  0  0  0  0  0  0  0  0  0
  139.6351  159.7521  133.8815 H   0  0  0  0  0  0  0  0  0  0  0  0
  142.0280  159.7120  132.1900 H   0  0  0  0  0  0  0  0  0  0  0  0
  141.8840  159.2430  133.8000 H   0  0  0  0  0  0  0  0  0  0  0  0
  139.7596  152.8923  132.9806 H   0  0  0  0  0  0  0  0  0  0  0  0
  1  2  3  0
  2  3  1  0
  3  4  2  0
  4  5  1  0
  5  6  2  0
  6  7  1  0
  7  8  2  0
  8  9  1  0
  9 10  1  0
  9 11  2  0
  8 12  1  0
 12 13  1  0
 13 14  2  0
 13 15  1  0
 15 16  2  0
 15 17  1  0
 17 18  1  0
 18 19  1  0
 19 20  1  0
 20 21  1  0
 21 22  1  0
 12 23  1  0
 23 24  2  0
 24  3  1  0
 23  6  1  0
 21 17  1  0
  1 25  1  0
  4 26  1  0
  5 27  1  0
  7 28  1  0
 10 29  1  0
 17 30  1  6
 18 31  1  0
 18 32  1  0
 19 33  1  0
 19 34  1  0
 20 35  1  0
 20 36  1  0
 21 37  1  1
 22 38  1  0
 22 39  1  0
 24 40  1  0
M  CHG  1  10  -1
M  END
>  <UniqueID>  (73) 
73

>  <SMILES>  (73) 
C#Cc1ccc2cc(C([NH-])=O)n(C(=O)C(=O)[C@H]3CCC[C@@H]3N)c2c1

>  <Energy>  (73) 
79.93207847719673

>  <Genealogy>  (73) 
C#Cc1ccc2cc(C([NH-])=O)n(C(=O)C(=O)C3CCCC3N)c2c1 (protonated)
C#Cc1ccc2cc(C([NH-])=O)n(C(=O)C(=O)[C@H]3CCC[C@@H]3N)c2c1 (chirality)
C#Cc1ccc2cc(C([NH-])=O)n(C(=O)C(=O)[C@H]3CCC[C@@H]3N)c2c1 (3D coordinates assigned)
C#Cc1ccc2cc(C([NH-])=O)n(C(=O)C(=O)[C@H]3CCC[C@@H]3N)c2c1 (nonaromatic ring conformer: 79.93207847719673 kcal/mol)

>  <smiles>  (73) 
C#Cc1ccc2cc(C(N)=O)n(C(=O)C(=O)C3CCCC3N)c2c1

>  <score_type>  (73) 
oracle

>  <origin>  (73) 
adg

>  <m_score__min__energy>  (73) 
-8.4199999999999999

>  <m_primary>  (73) 
energy

$$$$
73:0
     RDKit          3D

 55 56  0  0  0  0  0  0  0  0999 V2000
  140.6040  152.4760  132.9520 C   0  0  0  0  0  0  0  0  0  0  0  0
  141.0820  153.8260  133.2690 N   0  0  0  0  0  0  0  0  0  0  0  0
  140.2180  154.9830  132.9910 C   0  0  0  0  0  0  0  0  0  0  0  0
  140.3510  156.0140  134.1230 C   0  0  0  0  0  0  0  0  0  0  0  0
  141.6130  156.7920  134.0330 N   0  0  0  0  0  0  0  0  0  0  0  0
  141.6640  157.5260  132.7560 C   0  0  0  0  0  0  0  0  0  0  0  0
  141.7310  157.7460  135.1520 C   0  0  0  0  0  0  0  0  0  0  0  0
  142.3860  154.0280  133.8560 C   0  0  0  0  0  0  0  0  0  0  0  0
  142.4890  154.1610  135.1050 O   0  0  0  0  0  0  0  0  0  0  0  0
  143.6380  154.1440  133.0070 C   0  0  1  0  0  0  0  0  0  0  0  0
  143.6860  155.4090  132.3970 O   0  0  0  0  0  0  0  0  0  0  0  0
  144.8950  153.8880  133.8100 C   0  0  0  0  0  0  0  0  0  0  0  0
  144.8450  153.1370  134.8210 O   0  0  0  0  0  0  0  0  0  0  0  0
  146.1390  154.5210  133.4670 N   0  0  0  0  0  0  0  0  0  0  0  0
  146.4510  155.8420  133.5860 C   0  0  0  0  0  0  0  0  0  0  0  0
  145.5540  156.8970  134.1040 C   0  0  0  0  0  0  0  0  0  0  0  0
  144.4010  156.5370  134.8600 N   0  0  0  0  0  0  0  0  0  0  0  0
  145.7800  158.1130  133.8670 O   0  0  0  0  0  0  0  0  0  0  0  0
  147.7810  156.0610  133.2370 C   0  0  0  0  0  0  0  0  0  0  0  0
  148.2770  154.8230  132.8990 C   0  0  0  0  0  0  0  0  0  0  0  0
  149.5560  154.4470  132.5130 C   0  0  0  0  0  0  0  0  0  0  0  0
  149.7970  153.0890  132.2500 C   0  0  0  0  0  0  0  0  0  0  0  0
  148.7590  152.1200  132.3710 C   0  0  0  0  0  0  0  0  0  0  0  0
  149.0210  150.7160  132.1100 N   0  0  0  0  0  0  0  0  0  0  0  0
  148.1050  149.6810  132.6090 C   0  0  0  0  0  0  0  0  0  0  0  0
  150.2180  150.3050  131.3640 C   0  0  0  0  0  0  0  0  0  0  0  0
  147.4660  152.5550  132.7680 C   0  0  0  0  0  0  0  0  0  0  0  0
  147.2660  153.9120  133.0390 C   0  0  0  0  0  0  0  0  0  0  0  0
  140.4097  151.9272  133.8853 H   0  0  0  0  0  0  0  0  0  0  0  0
  139.6753  152.5439  132.3665 H   0  0  0  0  0  0  0  0  0  0  0  0
  141.3686  151.9444  132.3665 H   0  0  0  0  0  0  0  0  0  0  0  0
  140.5200  155.4443  132.0392 H   0  0  0  0  0  0  0  0  0  0  0  0
  139.1722  154.6485  132.9245 H   0  0  0  0  0  0  0  0  0  0  0  0
  139.5015  156.7107  134.0682 H   0  0  0  0  0  0  0  0  0  0  0  0
  140.3613  155.4663  135.0769 H   0  0  0  0  0  0  0  0  0  0  0  0
  142.4350  156.1450  134.0590 H   0  0  0  0  0  0  0  0  0  0  0  0
  141.7390  158.6051  132.9560 H   0  0  0  0  0  0  0  0  0  0  0  0
  142.5415  157.1981  132.1794 H   0  0  0  0  0  0  0  0  0  0  0  0
  140.7496  157.3226  132.1794 H   0  0  0  0  0  0  0  0  0  0  0  0
  141.6638  157.2024  136.1059 H   0  0  0  0  0  0  0  0  0  0  0  0
  142.7000  158.2632  135.0922 H   0  0  0  0  0  0  0  0  0  0  0  0
  140.9173  158.4837  135.0922 H   0  0  0  0  0  0  0  0  0  0  0  0
  143.5911  153.3678  132.2290 H   0  0  0  0  0  0  0  0  0  0  0  0
  143.8810  156.0800  133.1040 H   0  0  0  0  0  0  0  0  0  0  0  0
  143.7450  155.7990  134.5190 H   0  0  0  0  0  0  0  0  0  0  0  0
  148.3203  157.0197  133.2325 H   0  0  0  0  0  0  0  0  0  0  0  0
  150.3590  155.1925  132.4158 H   0  0  0  0  0  0  0  0  0  0  0  0
  150.8039  152.7676  131.9454 H   0  0  0  0  0  0  0  0  0  0  0  0
  148.1098  149.6865  133.7090 H   0  0  0  0  0  0  0  0  0  0  0  0
  147.0872  149.8861  132.2458 H   0  0  0  0  0  0  0  0  0  0  0  0
  148.4323  148.6956  132.2458 H   0  0  0  0  0  0  0  0  0  0  0  0
  151.0148  150.0314  132.0712 H   0  0  0  0  0  0  0  0  0  0  0  0
  149.9760  149.4385  130.7311 H   0  0  0  0  0  0  0  0  0  0  0  0
  150.5594  151.1374  130.7311 H   0  0  0  0  0  0  0  0  0  0  0  0
  146.6375  151.8373  132.8605 H   0  0  0  0  0  0  0  0  0  0  0  0
  1  2  1  0
  2  3  1  0
  3  4  1  0
  4  5  1  0
  5  6  1  0
  5  7  1  0
  2  8  1  0
  8  9  2  0
  8 10  1  0
 10 11  1  0
 10 12  1  0
 12 13  2  0
 12 14  1  0
 14 15  1  0
 15 16  1  0
 16 17  1  0
 16 18  2  0
 15 19  2  0
 19 20  1  0
 20 21  2  0
 21 22  1  0
 22 23  2  0
 23 24  1  0
 24 25  1  0
 24 26  1  0
 23 27  1  0
 27 28  2  0
 28 14  1  0
 28 20  1  0
  1 29  1  0
  1 30  1  0
  1 31  1  0
  3 32  1  0
  3 33  1  0
  4 34  1  0
  4 35  1  0
  5 36  1  0
  6 37  1  0
  6 38  1  0
  6 39  1  0
  7 40  1  0
  7 41  1  0
  7 42  1  0
 10 43  1  6
 11 44  1  0
 17 45  1  0
 19 46  1  0
 21 47  1  0
 22 48  1  0
 25 49  1  0
 25 50  1  0
 25 51  1  0
 26 52  1  0
 26 53  1  0
 26 54  1  0
 27 55  1  0
M  CHG  2   5   1  17  -1
M  END
>  <UniqueID>  (74) 
74

>  <SMILES>  (74) 
CN(CC[NH+](C)C)C(=O)[C@@H](O)C(=O)n1c(C([NH-])=O)cc2ccc(N(C)C)cc21

>  <Energy>  (74) 
89.95056433783544

>  <Genealogy>  (74) 
CN(CC[NH+](C)C)C(=O)C(O)C(=O)n1c(C([NH-])=O)cc2ccc(N(C)C)cc21 (protonated)
CN(CC[NH+](C)C)C(=O)[C@@H](O)C(=O)n1c(C([NH-])=O)cc2ccc(N(C)C)cc21 (chirality)
CN(CC[NH+](C)C)C(=O)[C@@H](O)C(=O)n1c(C([NH-])=O)cc2ccc(N(C)C)cc21 (3D coordinates assigned)
CN(CC[NH+](C)C)C(=O)[C@@H](O)C(=O)n1c(C([NH-])=O)cc2ccc(N(C)C)cc21 (optimized conformer: 89.95056433783544 kcal/mol)

>  <smiles>  (74) 
CN(C)CCN(C)C(=O)C(O)C(=O)n1c(C(N)=O)cc2ccc(N(C)C)cc21

>  <score_type>  (74) 
oracle

>  <origin>  (74) 
adg

>  <m_score__min__energy>  (74) 
-5.9100000000000001

>  <m_primary>  (74) 
energy

$$$$
74:0
     RDKit          3D

 39 40  0  0  0  0  0  0  0  0999 V2000
  138.7680  157.9620  132.7370 C   0  0  0  0  0  0  0  0  0  0  0  0
  140.1090  157.5480  133.1620 N   0  0  0  0  0  0  0  0  0  0  0  0
  140.2540  156.4250  134.0980 C   0  0  0  0  0  0  0  0  0  0  0  0
  140.2190  155.1180  133.3680 C   0  0  0  0  0  0  0  0  0  0  0  0
  139.1270  154.6450  132.9590 O   0  0  0  0  0  0  0  0  0  0  0  0
  141.4050  154.4560  133.0750 O   0  0  0  0  0  0  0  0  0  0  0  0
  141.2820  158.2700  132.7200 C   0  0  0  0  0  0  0  0  0  0  0  0
  141.1630  159.4510  132.2880 O   0  0  0  0  0  0  0  0  0  0  0  0
  142.6680  157.6890  132.8350 C   0  0  0  0  0  0  0  0  0  0  0  0
  143.4080  158.3700  133.9450 C   0  0  0  0  0  0  0  0  0  0  0  0
  142.9110  158.4140  135.1010 O   0  0  0  0  0  0  0  0  0  0  0  0
  144.7220  158.8950  133.7200 N   0  0  0  0  0  0  0  0  0  0  0  0
  145.0940  160.1970  133.5850 C   0  0  0  0  0  0  0  0  0  0  0  0
  144.2030  161.3680  133.7360 C   0  0  0  0  0  0  0  0  0  0  0  0
  142.7870  161.2160  133.7150 N   0  0  0  0  0  0  0  0  0  0  0  0
  144.6950  162.5150  133.9100 O   0  0  0  0  0  0  0  0  0  0  0  0
  146.4600  160.2820  133.3160 C   0  0  0  0  0  0  0  0  0  0  0  0
  146.9110  158.9790  133.2980 C   0  0  0  0  0  0  0  0  0  0  0  0
  148.1820  158.4680  133.0560 C   0  0  0  0  0  0  0  0  0  0  0  0
  148.3490  157.0720  133.0880 C   0  0  0  0  0  0  0  0  0  0  0  0
  147.2520  156.2150  133.3670 C   0  0  0  0  0  0  0  0  0  0  0  0
  147.4340  154.7170  133.3710 C   0  0  0  0  0  0  0  0  0  0  0  0
  146.3970  154.0990  132.6990 F   0  0  0  0  0  0  0  0  0  0  0  0
  147.4570  154.2370  134.6680 F   0  0  0  0  0  0  0  0  0  0  0  0
  148.6270  154.4000  132.7480 F   0  0  0  0  0  0  0  0  0  0  0  0
  145.9710  156.7740  133.5780 C   0  0  0  0  0  0  0  0  0  0  0  0
  145.8400  158.1650  133.5490 C   0  0  0  0  0  0  0  0  0  0  0  0
  138.1455  158.1542  133.6233 H   0  0  0  0  0  0  0  0  0  0  0  0
  138.8412  158.8794  132.1344 H   0  0  0  0  0  0  0  0  0  0  0  0
  138.3114  157.1630  132.1344 H   0  0  0  0  0  0  0  0  0  0  0  0
  141.2142  156.5175  134.6266 H   0  0  0  0  0  0  0  0  0  0  0  0
  139.4193  156.4520  134.8140 H   0  0  0  0  0  0  0  0  0  0  0  0
  142.5970  156.6123  133.0490 H   0  0  0  0  0  0  0  0  0  0  0  0
  143.2077  157.8417  131.8887 H   0  0  0  0  0  0  0  0  0  0  0  0
  142.3400  160.2970  133.9130 H   0  0  0  0  0  0  0  0  0  0  0  0
  147.0519  161.1947  133.1528 H   0  0  0  0  0  0  0  0  0  0  0  0
  149.0307  159.1356  132.8460 H   0  0  0  0  0  0  0  0  0  0  0  0
  149.3415  156.6389  132.8945 H   0  0  0  0  0  0  0  0  0  0  0  0
  145.0983  156.1297  133.7606 H   0  0  0  0  0  0  0  0  0  0  0  0
  1  2  1  0
  2  3  1  0
  3  4  1  0
  4  5  2  0
  4  6  1  0
  2  7  1  0
  7  8  2  0
  7  9  1  0
  9 10  1  0
 10 11  2  0
 10 12  1  0
 12 13  1  0
 13 14  1  0
 14 15  1  0
 14 16  2  0
 13 17  2  0
 17 18  1  0
 18 19  2  0
 19 20  1  0
 20 21  2  0
 21 22  1  0
 22 23  1  0
 22 24  1  0
 22 25  1  0
 21 26  1  0
 26 27  2  0
 27 12  1  0
 27 18  1  0
  1 28  1  0
  1 29  1  0
  1 30  1  0
  3 31  1  0
  3 32  1  0
  9 33  1  0
  9 34  1  0
 15 35  1  0
 17 36  1  0
 19 37  1  0
 20 38  1  0
 26 39  1  0
M  CHG  2   6  -1  15  -1
M  END
>  <UniqueID>  (75) 
75

>  <SMILES>  (75) 
CN(CC(=O)[O-])C(=O)CC(=O)n1c(C([NH-])=O)cc2ccc(C(F)(F)F)cc21

>  <Energy>  (75) 
73.80773021816029

>  <Genealogy>  (75) 
CN(CC(=O)[O-])C(=O)CC(=O)n1c(C([NH-])=O)cc2ccc(C(F)(F)F)cc21 (protonated)
CN(CC(=O)[O-])C(=O)CC(=O)n1c(C([NH-])=O)cc2ccc(C(F)(F)F)cc21 (3D coordinates assigned)
CN(CC(=O)[O-])C(=O)CC(=O)n1c(C([NH-])=O)cc2ccc(C(F)(F)F)cc21 (optimized conformer: 73.80773021816029 kcal/mol)

>  <smiles>  (75) 
CN(CC(=O)O)C(=O)CC(=O)n1c(C(N)=O)cc2ccc(C(F)(F)F)cc21

>  <score_type>  (75) 
oracle

>  <origin>  (75) 
adg

>  <m_score__min__energy>  (75) 
-6.5199999999999996

>  <m_primary>  (75) 
energy

$$$$
75:0
     RDKit          3D

 53 56  0  0  0  0  0  0  0  0999 V2000
  149.4670  157.5350  132.2020 N   0  0  0  0  0  0  0  0  0  0  0  0
  148.9020  158.8150  132.4770 C   0  0  0  0  0  0  0  0  0  0  0  0
  149.6240  159.8420  132.3770 O   0  0  0  0  0  0  0  0  0  0  0  0
  147.4710  158.9260  132.8290 C   0  0  0  0  0  0  0  0  0  0  0  0
  146.7470  160.1130  132.7310 C   0  0  0  0  0  0  0  0  0  0  0  0
  145.5050  159.8260  133.2480 C   0  0  0  0  0  0  0  0  0  0  0  0
  144.3890  160.6410  133.4000 C   0  0  0  0  0  0  0  0  0  0  0  0
  143.2310  160.0750  133.9580 C   0  0  0  0  0  0  0  0  0  0  0  0
  143.2000  158.7130  134.3480 C   0  0  0  0  0  0  0  0  0  0  0  0
  141.9880  158.1780  134.9200 N   0  0  0  0  0  0  0  0  0  0  0  0
  140.9270  157.5130  134.1490 C   0  0  0  0  0  0  0  0  0  0  0  0
  139.5450  158.1220  134.5230 C   0  0  0  0  0  0  0  0  0  0  0  0
  138.5490  158.1120  133.3600 C   0  0  0  0  0  0  0  0  0  0  0  0
  139.1430  158.8790  132.1660 C   0  0  0  0  0  0  0  0  0  0  0  0
  140.6700  158.8430  131.9710 C   0  0  0  0  0  0  0  0  0  0  0  0
  141.2400  157.5830  132.6290 C   0  0  0  0  0  0  0  0  0  0  0  0
  138.4560  160.1780  131.7610 C   0  0  0  0  0  0  0  0  0  0  0  0
  138.2790  158.9250  130.9120 C   0  0  0  0  0  0  0  0  0  0  0  0
  144.3550  157.9130  134.1620 C   0  0  0  0  0  0  0  0  0  0  0  0
  145.5020  158.5100  133.6270 C   0  0  0  0  0  0  0  0  0  0  0  0
  146.7010  157.9410  133.3720 N   0  0  0  0  0  0  0  0  0  0  0  0
  147.0570  156.5710  133.6120 C   0  0  0  0  0  0  0  0  0  0  0  0
  147.1100  155.7550  132.6520 O   0  0  0  0  0  0  0  0  0  0  0  0
  147.3230  156.1440  134.9180 O   0  0  0  0  0  0  0  0  0  0  0  0
  147.6100  154.7900  135.2630 C   0  0  0  0  0  0  0  0  0  0  0  0
  146.6650  154.2840  136.3540 C   0  0  0  0  0  0  0  0  0  0  0  0
  147.5720  153.3910  137.6590 P   0  0  0  0  0  0  0  0  0  0  0  0
  149.0470  153.3960  137.3340 O   0  0  0  0  0  0  0  0  0  0  0  0
  147.0230  151.7930  137.7430 O   0  0  0  0  0  0  0  0  0  0  0  0
  147.3280  154.1490  139.1510 O   0  0  0  0  0  0  0  0  0  0  0  0
  148.8720  156.7490  131.8590 H   0  0  0  0  0  0  0  0  0  0  0  0
  147.0949  161.0749  132.3263 H   0  0  0  0  0  0  0  0  0  0  0  0
  144.4122  161.6969  133.0926 H   0  0  0  0  0  0  0  0  0  0  0  0
  142.3349  160.6982  134.0943 H   0  0  0  0  0  0  0  0  0  0  0  0
  141.8900  158.2200  135.9600 H   0  0  0  0  0  0  0  0  0  0  0  0
  140.8852  156.4443  134.4061 H   0  0  0  0  0  0  0  0  0  0  0  0
  139.1192  157.5398  135.3535 H   0  0  0  0  0  0  0  0  0  0  0  0
  139.7142  159.1729  134.8006 H   0  0  0  0  0  0  0  0  0  0  0  0
  138.3439  157.0731  133.0624 H   0  0  0  0  0  0  0  0  0  0  0  0
  137.6130  158.5958  133.6761 H   0  0  0  0  0  0  0  0  0  0  0  0
  140.9020  158.8320  130.8958 H   0  0  0  0  0  0  0  0  0  0  0  0
  141.1195  159.7336  132.4344 H   0  0  0  0  0  0  0  0  0  0  0  0
  140.8042  156.7004  132.1379 H   0  0  0  0  0  0  0  0  0  0  0  0
  142.3336  157.6108  132.5136 H   0  0  0  0  0  0  0  0  0  0  0  0
  137.6142  160.5634  132.3550 H   0  0  0  0  0  0  0  0  0  0  0  0
  138.7910  161.2078  131.5677 H   0  0  0  0  0  0  0  0  0  0  0  0
  137.3093  158.4061  130.8930 H   0  0  0  0  0  0  0  0  0  0  0  0
  138.4333  158.6758  129.8518 H   0  0  0  0  0  0  0  0  0  0  0  0
  144.3499  156.8467  134.4321 H   0  0  0  0  0  0  0  0  0  0  0  0
  147.4952  154.1600  134.3686 H   0  0  0  0  0  0  0  0  0  0  0  0
  148.6406  154.7391  135.6443 H   0  0  0  0  0  0  0  0  0  0  0  0
  146.1449  155.1428  136.8034 H   0  0  0  0  0  0  0  0  0  0  0  0
  145.9467  153.5891  135.8945 H   0  0  0  0  0  0  0  0  0  0  0  0
  1  2  1  0
  2  3  2  0
  2  4  1  0
  4  5  2  0
  5  6  1  0
  6  7  2  0
  7  8  1  0
  8  9  2  0
  9 10  1  0
 10 11  1  0
 11 12  1  0
 12 13  1  0
 13 14  1  0
 14 15  1  0
 15 16  1  0
 14 17  1  0
 17 18  1  0
  9 19  1  0
 19 20  2  0
 20 21  1  0
 21 22  1  0
 22 23  2  0
 22 24  1  0
 24 25  1  0
 25 26  1  0
 26 27  1  0
 27 28  2  0
 27 29  1  0
 27 30  1  0
 21  4  1  0
 20  6  1  0
 16 11  1  0
 18 14  1  0
  1 31  1  0
  5 32  1  0
  7 33  1  0
  8 34  1  0
 10 35  1  0
 11 36  1  0
 12 37  1  0
 12 38  1  0
 13 39  1  0
 13 40  1  0
 15 41  1  0
 15 42  1  0
 16 43  1  0
 16 44  1  0
 17 45  1  0
 17 46  1  0
 18 47  1  0
 18 48  1  0
 19 49  1  0
 25 50  1  0
 25 51  1  0
 26 52  1  0
 26 53  1  0
M  CHG  3   1  -1  29  -1  30  -1
M  END
>  <UniqueID>  (76) 
76

>  <SMILES>  (76) 
[NH-]C(=O)c1cc2ccc(NC3CCC4(CC3)CC4)cc2n1C(=O)OCCP(=O)([O-])[O-]

>  <Energy>  (76) 
354.67460059986394

>  <Genealogy>  (76) 
[NH-]C(=O)c1cc2ccc(NC3CCC4(CC3)CC4)cc2n1C(=O)OCCP(=O)([O-])[O-] (protonated)
[NH-]C(=O)c1cc2ccc(NC3CCC4(CC3)CC4)cc2n1C(=O)OCCP(=O)([O-])[O-] (3D coordinates assigned)
[NH-]C(=O)c1cc2ccc(NC3CCC4(CC3)CC4)cc2n1C(=O)OCCP(=O)([O-])[O-] (nonaromatic ring conformer: 354.67460059986394 kcal/mol)

>  <smiles>  (76) 
NC(=O)c1cc2ccc(NC3CCC4(CC3)CC4)cc2n1C(=O)OCCP(=O)(O)O

>  <score_type>  (76) 
oracle

>  <origin>  (76) 
adg

>  <m_score__min__energy>  (76) 
-9.5399999999999991

>  <m_primary>  (76) 
energy

$$$$
76:0
     RDKit          3D

 36 37  0  0  0  0  0  0  0  0999 V2000
  142.4880  160.7870  133.6660 N   0  0  0  0  0  0  0  0  0  0  0  0
  143.8720  161.1250  133.7310 C   0  0  0  0  0  0  0  0  0  0  0  0
  144.2070  162.3300  133.8790 O   0  0  0  0  0  0  0  0  0  0  0  0
  144.8940  160.0600  133.6480 C   0  0  0  0  0  0  0  0  0  0  0  0
  146.2640  160.3050  133.5830 C   0  0  0  0  0  0  0  0  0  0  0  0
  146.8520  159.0660  133.4600 C   0  0  0  0  0  0  0  0  0  0  0  0
  148.1950  158.7170  133.3610 C   0  0  0  0  0  0  0  0  0  0  0  0
  148.5150  157.3520  133.2660 C   0  0  0  0  0  0  0  0  0  0  0  0
  147.4950  156.3670  133.2910 C   0  0  0  0  0  0  0  0  0  0  0  0
  147.8460  154.9150  133.1650 C   0  0  0  0  0  0  0  0  0  0  0  0
  147.7390  154.1300  134.7610 Cl  0  0  0  0  0  0  0  0  0  0  0  0
  146.1420  156.7620  133.3820 C   0  0  0  0  0  0  0  0  0  0  0  0
  145.8520  158.1280  133.4560 C   0  0  0  0  0  0  0  0  0  0  0  0
  144.6450  158.7230  133.5670 N   0  0  0  0  0  0  0  0  0  0  0  0
  143.3700  158.0650  133.6370 C   0  0  0  0  0  0  0  0  0  0  0  0
  142.6770  157.9320  132.5920 O   0  0  0  0  0  0  0  0  0  0  0  0
  142.8520  157.5340  134.9370 C   0  0  0  0  0  0  0  0  0  0  0  0
  141.5230  157.1070  134.7560 O   0  0  0  0  0  0  0  0  0  0  0  0
  140.5000  158.1210  135.6700 P   0  0  1  0  0  0  0  0  0  0  0  0
  140.3940  157.5850  137.0820 O   0  0  0  0  0  0  0  0  0  0  0  0
  141.1390  159.6890  135.7030 O   0  0  0  0  0  0  0  0  0  0  0  0
  138.9630  158.1120  134.9390 O   0  0  0  0  0  0  0  0  0  0  0  0
  139.1880  158.0930  133.2500 P   0  0  2  0  0  0  0  0  0  0  0  0
  137.9470  158.6050  132.5560 O   0  0  0  0  0  0  0  0  0  0  0  0
  139.5450  156.5330  132.6960 O   0  0  0  0  0  0  0  0  0  0  0  0
  140.4810  159.1130  132.8680 O   0  0  0  0  0  0  0  0  0  0  0  0
  142.1720  159.7970  133.7740 H   0  0  0  0  0  0  0  0  0  0  0  0
  146.7690  161.2815  133.6217 H   0  0  0  0  0  0  0  0  0  0  0  0
  148.9819  159.4856  133.3572 H   0  0  0  0  0  0  0  0  0  0  0  0
  149.5669  157.0445  133.1713 H   0  0  0  0  0  0  0  0  0  0  0  0
  147.1452  154.4284  132.4706 H   0  0  0  0  0  0  0  0  0  0  0  0
  148.8724  154.8205  132.7809 H   0  0  0  0  0  0  0  0  0  0  0  0
  145.3361  156.0134  133.3944 H   0  0  0  0  0  0  0  0  0  0  0  0
  143.4717  156.6856  135.2629 H   0  0  0  0  0  0  0  0  0  0  0  0
  142.8900  158.3217  135.7039 H   0  0  0  0  0  0  0  0  0  0  0  0
  141.1080  159.0200  133.6300 H   0  0  0  0  0  0  0  0  0  0  0  0
  1  2  1  0
  2  3  2  0
  2  4  1  0
  4  5  2  0
  5  6  1  0
  6  7  2  0
  7  8  1  0
  8  9  2  0
  9 10  1  0
 10 11  1  0
  9 12  1  0
 12 13  2  0
 13 14  1  0
 14 15  1  0
 15 16  2  0
 15 17  1  0
 17 18  1  0
 18 19  1  0
 19 20  2  0
 19 21  1  1
 19 22  1  0
 22 23  1  0
 23 24  2  0
 23 25  1  6
 23 26  1  0
 14  4  1  0
 13  6  1  0
  1 27  1  0
  5 28  1  0
  7 29  1  0
  8 30  1  0
 10 31  1  0
 10 32  1  0
 12 33  1  0
 17 34  1  0
 17 35  1  0
 26 36  1  0
M  CHG  3   1  -1  21  -1  25  -1
M  END
>  <UniqueID>  (77) 
77

>  <SMILES>  (77) 
[NH-]C(=O)c1cc2ccc(CCl)cc2n1C(=O)CO[P@@](=O)([O-])O[P@](=O)([O-])O

>  <Energy>  (77) 
69.96684580865127

>  <Genealogy>  (77) 
[NH-]C(=O)c1cc2ccc(CCl)cc2n1C(=O)COP(=O)([O-])OP(=O)([O-])O (protonated)
[NH-]C(=O)c1cc2ccc(CCl)cc2n1C(=O)CO[P@@](=O)([O-])O[P@](=O)([O-])O (chirality)
[NH-]C(=O)c1cc2ccc(CCl)cc2n1C(=O)CO[P@@](=O)([O-])O[P@](=O)([O-])O (3D coordinates assigned)
[NH-]C(=O)c1cc2ccc(CCl)cc2n1C(=O)CO[P@@](=O)([O-])O[P@](=O)([O-])O (optimized conformer: 69.96684580865127 kcal/mol)

>  <smiles>  (77) 
NC(=O)c1cc2ccc(CCl)cc2n1C(=O)COP(=O)(O)OP(=O)(O)O

>  <score_type>  (77) 
oracle

>  <origin>  (77) 
adg

>  <m_score__min__energy>  (77) 
-6.7599999999999998

>  <m_primary>  (77) 
energy

$$$$
77:0
     RDKit          3D

 31 32  0  0  0  0  0  0  0  0999 V2000
  146.6230  152.8540  133.3170 N   0  0  0  0  0  0  0  0  0  0  0  0
  147.8430  153.5950  133.2570 C   0  0  0  0  0  0  0  0  0  0  0  0
  148.9410  152.9860  133.3570 O   0  0  0  0  0  0  0  0  0  0  0  0
  147.8380  155.0670  133.1460 C   0  0  0  0  0  0  0  0  0  0  0  0
  148.8930  155.7960  132.6060 C   0  0  0  0  0  0  0  0  0  0  0  0
  148.5300  157.1160  132.7420 C   0  0  0  0  0  0  0  0  0  0  0  0
  149.2020  158.2710  132.3570 C   0  0  0  0  0  0  0  0  0  0  0  0
  148.5720  159.5050  132.5830 C   0  0  0  0  0  0  0  0  0  0  0  0
  147.2890  159.5700  133.1790 C   0  0  0  0  0  0  0  0  0  0  0  0
  146.6780  160.8620  133.3760 N   0  0  0  0  0  0  0  0  0  0  0  0
  145.4240  161.0920  134.0960 C   0  0  0  0  0  0  0  0  0  0  0  0
  145.3030  162.5530  134.5380 C   0  0  0  0  0  0  0  0  0  0  0  0
  146.5070  163.2370  134.3170 O   0  0  0  0  0  0  0  0  0  0  0  0
  146.6320  158.3690  133.5490 C   0  0  0  0  0  0  0  0  0  0  0  0
  147.2930  157.1530  133.3340 C   0  0  0  0  0  0  0  0  0  0  0  0
  146.8530  155.9000  133.5870 N   0  0  0  0  0  0  0  0  0  0  0  0
  145.5620  155.5290  134.1030 C   0  0  0  0  0  0  0  0  0  0  0  0
  144.6320  155.2070  133.3170 O   0  0  0  0  0  0  0  0  0  0  0  0
  145.3260  155.5240  135.4720 O   0  0  0  0  0  0  0  0  0  0  0  0
  146.6460  151.8110  133.3560 H   0  0  0  0  0  0  0  0  0  0  0  0
  145.7030  153.3370  133.4080 H   0  0  0  0  0  0  0  0  0  0  0  0
  149.8198  155.4010  132.1644 H   0  0  0  0  0  0  0  0  0  0  0  0
  150.1965  158.2193  131.8898 H   0  0  0  0  0  0  0  0  0  0  0  0
  149.0825  160.4352  132.2928 H   0  0  0  0  0  0  0  0  0  0  0  0
  147.1550  161.7010  132.9750 H   0  0  0  0  0  0  0  0  0  0  0  0
  144.5798  160.8453  133.4353 H   0  0  0  0  0  0  0  0  0  0  0  0
  145.4129  160.4536  134.9917 H   0  0  0  0  0  0  0  0  0  0  0  0
  144.5005  163.0391  133.9638 H   0  0  0  0  0  0  0  0  0  0  0  0
  145.0720  162.5802  135.6131 H   0  0  0  0  0  0  0  0  0  0  0  0
  147.2080  162.7490  134.8230 H   0  0  0  0  0  0  0  0  0  0  0  0
  145.6265  158.3919  133.9945 H   0  0  0  0  0  0  0  0  0  0  0  0
  1  2  1  0
  2  3  2  0
  2  4  1  0
  4  5  2  0
  5  6  1  0
  6  7  2  0
  7  8  1  0
  8  9  2  0
  9 10  1  0
 10 11  1  0
 11 12  1  0
 12 13  1  0
  9 14  1  0
 14 15  2  0
 15 16  1  0
 16 17  1  0
 17 18  2  0
 17 19  1  0
 16  4  1  0
 15  6  1  0
  1 20  1  0
  1 21  1  0
  5 22  1  0
  7 23  1  0
  8 24  1  0
 10 25  1  0
 11 26  1  0
 11 27  1  0
 12 28  1  0
 12 29  1  0
 13 30  1  0
 14 31  1  0
M  CHG  1  19  -1
M  END
>  <UniqueID>  (78) 
78

>  <SMILES>  (78) 
NC(=O)c1cc2ccc(NCCO)cc2n1C(=O)[O-]

>  <Energy>  (78) 
68.9383747193609

>  <Genealogy>  (78) 
NC(=O)c1cc2ccc(NCCO)cc2n1C(=O)[O-] (protonated)
NC(=O)c1cc2ccc(NCCO)cc2n1C(=O)[O-] (3D coordinates assigned)
NC(=O)c1cc2ccc(NCCO)cc2n1C(=O)[O-] (optimized conformer: 68.9383747193609 kcal/mol)

>  <smiles>  (78) 
NC(=O)c1cc2ccc(NCCO)cc2n1C(=O)O

>  <score_type>  (78) 
oracle

>  <origin>  (78) 
adg

>  <m_score__min__energy>  (78) 
-5.6500000000000004

>  <m_primary>  (78) 
energy

$$$$
78:0
     RDKit          3D

 32 33  0  0  0  0  0  0  0  0999 V2000
  144.4020  154.6380  131.5290 C   0  0  0  0  0  0  0  0  0  0  0  0
  144.1390  154.5760  133.0360 C   0  0  2  0  0  0  0  0  0  0  0  0
  142.3390  153.9200  133.3740 Br  0  0  0  0  0  0  0  0  0  0  0  0
  144.2950  155.9330  133.6760 C   0  0  0  0  0  0  0  0  0  0  0  0
  144.8930  156.0290  134.7830 O   0  0  0  0  0  0  0  0  0  0  0  0
  143.8120  157.1600  133.0120 C   0  0  0  0  0  0  0  0  0  0  0  0
  142.8070  157.1170  132.2500 O   0  0  0  0  0  0  0  0  0  0  0  0
  144.4700  158.4170  133.2380 N   0  0  0  0  0  0  0  0  0  0  0  0
  143.8890  159.6160  133.5300 C   0  0  0  0  0  0  0  0  0  0  0  0
  142.4410  159.8280  133.7630 C   0  0  0  0  0  0  0  0  0  0  0  0
  141.4740  159.4350  132.7870 N   0  0  0  0  0  0  0  0  0  0  0  0
  142.0440  160.3710  134.8290 O   0  0  0  0  0  0  0  0  0  0  0  0
  144.8640  160.6110  133.6340 C   0  0  0  0  0  0  0  0  0  0  0  0
  146.0600  159.9800  133.3820 C   0  0  0  0  0  0  0  0  0  0  0  0
  147.3540  160.4930  133.3390 C   0  0  0  0  0  0  0  0  0  0  0  0
  148.4030  159.6090  133.0280 C   0  0  0  0  0  0  0  0  0  0  0  0
  148.1390  158.2460  132.7540 C   0  0  0  0  0  0  0  0  0  0  0  0
  149.2120  157.3630  132.4160 N   0  0  0  0  0  0  0  0  0  0  0  0
  146.8150  157.7610  132.8020 C   0  0  0  0  0  0  0  0  0  0  0  0
  145.7950  158.6570  133.1400 C   0  0  0  0  0  0  0  0  0  0  0  0
  145.4586  154.8871  131.3511 H   0  0  0  0  0  0  0  0  0  0  0  0
  144.1743  153.6616  131.0766 H   0  0  0  0  0  0  0  0  0  0  0  0
  143.7621  155.4099  131.0766 H   0  0  0  0  0  0  0  0  0  0  0  0
  144.8784  153.8903  133.4754 H   0  0  0  0  0  0  0  0  0  0  0  0
  140.4600  159.6250  132.9510 H   0  0  0  0  0  0  0  0  0  0  0  0
  141.7520  158.9720  131.8940 H   0  0  0  0  0  0  0  0  0  0  0  0
  144.7082  161.6745  133.8680 H   0  0  0  0  0  0  0  0  0  0  0  0
  147.5496  161.5563  133.5419 H   0  0  0  0  0  0  0  0  0  0  0  0
  149.4379  159.9805  132.9975 H   0  0  0  0  0  0  0  0  0  0  0  0
  149.9810  157.1740  133.0990 H   0  0  0  0  0  0  0  0  0  0  0  0
  149.2220  156.8610  131.5000 H   0  0  0  0  0  0  0  0  0  0  0  0
  146.5908  156.7073  132.5798 H   0  0  0  0  0  0  0  0  0  0  0  0
  1  2  1  0
  2  3  1  0
  2  4  1  0
  4  5  2  0
  4  6  1  0
  6  7  2  0
  6  8  1  0
  8  9  1  0
  9 10  1  0
 10 11  1  0
 10 12  2  0
  9 13  2  0
 13 14  1  0
 14 15  2  0
 15 16  1  0
 16 17  2  0
 17 18  1  0
 17 19  1  0
 19 20  2  0
 20  8  1  0
 20 14  1  0
  1 21  1  0
  1 22  1  0
  1 23  1  0
  2 24  1  1
 11 25  1  0
 11 26  1  0
 13 27  1  0
 15 28  1  0
 16 29  1  0
 18 30  1  0
 18 31  1  0
 19 32  1  0
M  END
>  <UniqueID>  (79) 
79

>  <SMILES>  (79) 
C[C@H](Br)C(=O)C(=O)n1c(C(N)=O)cc2ccc(N)cc21

>  <Energy>  (79) 
67.7840718563337

>  <Genealogy>  (79) 
C[C@H](Br)C(=O)C(=O)n1c(C(N)=O)cc2ccc(N)cc21 (chirality)
C[C@H](Br)C(=O)C(=O)n1c(C(N)=O)cc2ccc(N)cc21 (3D coordinates assigned)
C[C@H](Br)C(=O)C(=O)n1c(C(N)=O)cc2ccc(N)cc21 (optimized conformer: 67.7840718563337 kcal/mol)

>  <smiles>  (79) 
CC(Br)C(=O)C(=O)n1c(C(N)=O)cc2ccc(N)cc21

>  <score_type>  (79) 
oracle

>  <origin>  (79) 
adg

>  <m_score__min__energy>  (79) 
-7.1200000000000001

>  <m_primary>  (79) 
energy

$$$$
79:0
     RDKit          3D

 35 36  0  0  0  0  0  0  0  0999 V2000
  138.2270  161.2870  131.9990 H   0  0  0  0  0  0  0  0  0  0  0  0
  138.6810  160.3620  131.8300 N   0  0  0  0  0  0  0  0  0  0  0  0
  139.8140  159.9500  132.5890 C   0  0  0  0  0  0  0  0  0  0  0  0
  140.6020  160.8230  133.0430 O   0  0  0  0  0  0  0  0  0  0  0  0
  140.0900  158.5180  132.8320 C   0  0  0  0  0  0  0  0  0  0  0  0
  139.1810  157.4970  132.5580 C   0  0  0  0  0  0  0  0  0  0  0  0
  138.1785  157.5977  132.1166 H   0  0  0  0  0  0  0  0  0  0  0  0
  139.8040  156.3360  132.9570 C   0  0  0  0  0  0  0  0  0  0  0  0
  139.3660  155.0160  132.8980 C   0  0  0  0  0  0  0  0  0  0  0  0
  138.3692  154.7669  132.5052 H   0  0  0  0  0  0  0  0  0  0  0  0
  140.2350  154.0120  133.3550 C   0  0  0  0  0  0  0  0  0  0  0  0
  139.9119  152.9608  133.3293 H   0  0  0  0  0  0  0  0  0  0  0  0
  141.5260  154.3370  133.8500 C   0  0  0  0  0  0  0  0  0  0  0  0
  142.4490  153.2360  134.3290 C   0  0  1  0  0  0  0  0  0  0  0  0
  142.7953  153.4930  135.3409 H   0  0  0  0  0  0  0  0  0  0  0  0
  141.7120  151.9260  134.4130 C   0  0  0  0  0  0  0  0  0  0  0  0
  141.6250  151.1910  133.3940 O   0  0  0  0  0  0  0  0  0  0  0  0
  141.1710  151.4910  135.6170 O   0  0  0  0  0  0  0  0  0  0  0  0
  143.6930  153.1280  133.4390 C   0  0  0  0  0  0  0  0  0  0  0  0
  144.5901  153.0501  134.0707 H   0  0  0  0  0  0  0  0  0  0  0  0
  143.6129  152.2334  132.8039 H   0  0  0  0  0  0  0  0  0  0  0  0
  143.7683  154.0230  132.8039 H   0  0  0  0  0  0  0  0  0  0  0  0
  141.9340  155.6920  133.8900 C   0  0  0  0  0  0  0  0  0  0  0  0
  142.9326  155.9684  134.2594 H   0  0  0  0  0  0  0  0  0  0  0  0
  141.0380  156.6710  133.4490 C   0  0  0  0  0  0  0  0  0  0  0  0
  141.2250  158.0060  133.3850 N   0  0  0  0  0  0  0  0  0  0  0  0
  142.4150  158.7160  133.7550 C   0  0  0  0  0  0  0  0  0  0  0  0
  143.4540  158.5790  133.0560 O   0  0  0  0  0  0  0  0  0  0  0  0
  142.4280  159.5280  134.9920 C   0  0  0  0  0  0  0  0  0  0  0  0
  143.1414  160.3645  135.0286 H   0  0  0  0  0  0  0  0  0  0  0  0
  141.6540  159.3440  136.0750 C   0  0  0  0  0  0  0  0  0  0  0  0
  141.6716  160.1357  136.8385 H   0  0  0  0  0  0  0  0  0  0  0  0
  140.7830  158.1830  136.3390 C   0  0  0  0  0  0  0  0  0  0  0  0
  141.2170  157.1560  136.9230 O   0  0  0  0  0  0  0  0  0  0  0  0
  139.4340  158.2650  136.0240 O   0  0  0  0  0  0  0  0  0  0  0  0
  1  2  1  0
  2  3  1  0
  3  4  2  0
  3  5  1  0
  5  6  2  0
  6  7  1  0
  6  8  1  0
  8  9  2  0
  9 10  1  0
  9 11  1  0
 11 12  1  0
 11 13  2  0
 13 14  1  0
 14 15  1  1
 14 16  1  0
 16 17  2  0
 16 18  1  0
 14 19  1  0
 19 20  1  0
 19 21  1  0
 19 22  1  0
 13 23  1  0
 23 24  1  0
 23 25  2  0
 25 26  1  0
 26 27  1  0
 27 28  2  0
 27 29  1  0
 29 30  1  0
 29 31  2  0
 31 32  1  0
 31 33  1  0
 33 34  2  0
 33 35  1  0
 26  5  1  0
 25  8  1  0
M  CHG  3   2  -1  18  -1  35  -1
M  END
>  <UniqueID>  (80) 
80

>  <SMILES>  (80) 
C[C@H](C(=O)[O-])c1ccc2cc(C([NH-])=O)n(C(=O)/C=C\C(=O)[O-])c2c1

>  <Energy>  (80) 
79.5425663209377

>  <Genealogy>  (80) 
CC(C(=O)[O-])c1ccc2cc(C([NH-])=O)n(C(=O)/C=C\C(=O)[O-])c2c1 (protonated)
C[C@H](C(=O)[O-])c1ccc2cc(C([NH-])=O)n(C(=O)/C=C\C(=O)[O-])c2c1 (chirality)
C[C@H](C(=O)[O-])c1ccc2cc(C([NH-])=O)n(C(=O)/C=C\C(=O)[O-])c2c1 (cis-trans isomerization)
C[C@H](C(=O)[O-])c1ccc2cc(C([NH-])=O)n(C(=O)/C=C\C(=O)[O-])c2c1 (3D coordinates assigned)
C[C@H](C(=O)[O-])c1ccc2cc(C([NH-])=O)n(C(=O)/C=C\C(=O)[O-])c2c1 (optimized conformer: 79.5425663209377 kcal/mol)

>  <smiles>  (80) 
CC(C(=O)O)c1ccc2cc(C(N)=O)n(C(=O)/C=C\C(=O)O)c2c1

>  <score_type>  (80) 
oracle

>  <origin>  (80) 
adg

>  <m_score__min__energy>  (80) 
-7.3300000000000001

>  <m_primary>  (80) 
energy

$$$$
80:0
     RDKit          3D

 38 39  0  0  0  0  0  0  0  0999 V2000
  148.4630  155.1680  132.6060 C   0  0  0  0  0  0  0  0  0  0  0  0
  148.0440  156.6020  132.7360 C   0  0  0  0  0  0  0  0  0  0  0  0
  148.9990  157.6370  132.5930 C   0  0  0  0  0  0  0  0  0  0  0  0
  148.6260  158.9800  132.7640 C   0  0  0  0  0  0  0  0  0  0  0  0
  147.2970  159.2550  133.0710 C   0  0  0  0  0  0  0  0  0  0  0  0
  146.6800  160.4600  133.3010 C   0  0  0  0  0  0  0  0  0  0  0  0
  145.3560  160.1460  133.5840 C   0  0  0  0  0  0  0  0  0  0  0  0
  144.3450  161.1670  133.9060 C   0  0  0  0  0  0  0  0  0  0  0  0
  142.9720  160.8090  134.0630 N   0  0  0  0  0  0  0  0  0  0  0  0
  144.7080  162.3540  134.1190 O   0  0  0  0  0  0  0  0  0  0  0  0
  145.1430  158.7990  133.5060 N   0  0  0  0  0  0  0  0  0  0  0  0
  143.8740  158.1110  133.5310 C   0  0  0  0  0  0  0  0  0  0  0  0
  143.4050  157.6070  132.4760 O   0  0  0  0  0  0  0  0  0  0  0  0
  143.1870  157.9580  134.7440 O   0  0  0  0  0  0  0  0  0  0  0  0
  142.2520  156.9530  135.0270 C   0  0  0  0  0  0  0  0  0  0  0  0
  142.5490  155.9780  135.7660 O   0  0  0  0  0  0  0  0  0  0  0  0
  140.9370  157.0220  134.4680 N   0  0  0  0  0  0  0  0  0  0  0  0
  140.0110  158.1300  134.6910 C   0  0  2  0  0  0  0  0  0  0  0  0
  139.8270  158.9540  133.4060 C   0  0  0  0  0  0  0  0  0  0  0  0
  141.0560  159.1720  132.7680 O   0  0  0  0  0  0  0  0  0  0  0  0
  140.5510  159.0050  135.7840 C   0  0  0  0  0  0  0  0  0  0  0  0
  141.1080  160.1010  135.5070 O   0  0  0  0  0  0  0  0  0  0  0  0
  140.4060  158.6250  137.1120 O   0  0  0  0  0  0  0  0  0  0  0  0
  146.3540  158.2660  133.2070 C   0  0  0  0  0  0  0  0  0  0  0  0
  146.7110  156.9160  133.0720 C   0  0  0  0  0  0  0  0  0  0  0  0
  148.5907  154.7311  133.6074 H   0  0  0  0  0  0  0  0  0  0  0  0
  147.6907  154.6086  132.0576 H   0  0  0  0  0  0  0  0  0  0  0  0
  149.4149  155.1124  132.0576 H   0  0  0  0  0  0  0  0  0  0  0  0
  150.0414  157.3873  132.3460 H   0  0  0  0  0  0  0  0  0  0  0  0
  149.3624  159.7903  132.6584 H   0  0  0  0  0  0  0  0  0  0  0  0
  147.1363  161.4604  133.2682 H   0  0  0  0  0  0  0  0  0  0  0  0
  142.6710  159.8100  134.0120 H   0  0  0  0  0  0  0  0  0  0  0  0
  142.2600  161.5410  134.2830 H   0  0  0  0  0  0  0  0  0  0  0  0
  139.0306  157.7254  134.9827 H   0  0  0  0  0  0  0  0  0  0  0  0
  139.1586  158.4099  132.7225 H   0  0  0  0  0  0  0  0  0  0  0  0
  139.3939  159.9289  133.6742 H   0  0  0  0  0  0  0  0  0  0  0  0
  141.7450  158.7040  133.3090 H   0  0  0  0  0  0  0  0  0  0  0  0
  145.9674  156.1199  133.2249 H   0  0  0  0  0  0  0  0  0  0  0  0
  1  2  1  0
  2  3  2  0
  3  4  1  0
  4  5  2  0
  5  6  1  0
  6  7  2  0
  7  8  1  0
  8  9  1  0
  8 10  2  0
  7 11  1  0
 11 12  1  0
 12 13  2  0
 12 14  1  0
 14 15  1  0
 15 16  2  0
 15 17  1  0
 17 18  1  0
 18 19  1  0
 19 20  1  0
 18 21  1  0
 21 22  2  0
 21 23  1  0
 11 24  1  0
 24 25  2  0
 25  2  1  0
 24  5  1  0
  1 26  1  0
  1 27  1  0
  1 28  1  0
  3 29  1  0
  4 30  1  0
  6 31  1  0
  9 32  1  0
  9 33  1  0
 18 34  1  1
 19 35  1  0
 19 36  1  0
 20 37  1  0
 25 38  1  0
M  CHG  2  17  -1  23  -1
M  END
>  <UniqueID>  (81) 
81

>  <SMILES>  (81) 
Cc1ccc2cc(C(N)=O)n(C(=O)OC(=O)[N-][C@H](CO)C(=O)[O-])c2c1

>  <Energy>  (81) 
75.12547473017445

>  <Genealogy>  (81) 
Cc1ccc2cc(C(N)=O)n(C(=O)OC(=O)[N-]C(CO)C(=O)[O-])c2c1 (protonated)
Cc1ccc2cc(C(N)=O)n(C(=O)OC(=O)[N-][C@H](CO)C(=O)[O-])c2c1 (chirality)
Cc1ccc2cc(C(N)=O)n(C(=O)OC(=O)[N-][C@H](CO)C(=O)[O-])c2c1 (3D coordinates assigned)
Cc1ccc2cc(C(N)=O)n(C(=O)OC(=O)[N-][C@H](CO)C(=O)[O-])c2c1 (optimized conformer: 75.12547473017445 kcal/mol)

>  <smiles>  (81) 
Cc1ccc2cc(C(N)=O)n(C(=O)OC(=O)NC(CO)C(=O)O)c2c1

>  <score_type>  (81) 
oracle

>  <origin>  (81) 
adg

>  <m_score__min__energy>  (81) 
-6.5999999999999996

>  <m_primary>  (81) 
energy

$$$$
81:0
     RDKit          3D

 48 49  0  0  0  0  0  0  0  0999 V2000
  141.7320  156.6430  138.1660 C   0  0  0  0  0  0  0  0  0  0  0  0
  141.4780  157.1180  136.8110 N   0  0  0  0  0  0  0  0  0  0  0  0
  141.1830  158.4970  136.5350 C   0  0  0  0  0  0  0  0  0  0  0  0
  141.2170  159.3520  137.4650 O   0  0  0  0  0  0  0  0  0  0  0  0
  140.8160  158.9280  135.1360 C   0  0  1  0  0  0  0  0  0  0  0  0
  142.0210  159.0090  134.3070 N   0  0  0  0  0  0  0  0  0  0  0  0
  142.4730  158.0090  133.3820 C   0  0  0  0  0  0  0  0  0  0  0  0
  141.8940  157.8520  132.2720 O   0  0  0  0  0  0  0  0  0  0  0  0
  143.5660  157.1520  133.7430 N   0  0  0  0  0  0  0  0  0  0  0  0
  143.5100  155.9080  134.2940 C   0  0  0  0  0  0  0  0  0  0  0  0
  142.2860  155.1060  134.4900 C   0  0  0  0  0  0  0  0  0  0  0  0
  141.2530  155.1000  133.5100 N   0  0  0  0  0  0  0  0  0  0  0  0
  142.1700  154.3830  135.5170 O   0  0  0  0  0  0  0  0  0  0  0  0
  144.7890  155.4520  134.6080 C   0  0  0  0  0  0  0  0  0  0  0  0
  145.6390  156.4650  134.2240 C   0  0  0  0  0  0  0  0  0  0  0  0
  147.0230  156.5590  134.3280 C   0  0  0  0  0  0  0  0  0  0  0  0
  147.6370  157.7460  133.8910 C   0  0  0  0  0  0  0  0  0  0  0  0
  146.8640  158.8110  133.3560 C   0  0  0  0  0  0  0  0  0  0  0  0
  147.5150  160.1120  132.9600 C   0  0  0  0  0  0  0  0  0  0  0  0
  148.8610  160.0600  133.2750 F   0  0  0  0  0  0  0  0  0  0  0  0
  147.3760  160.3420  131.6000 F   0  0  0  0  0  0  0  0  0  0  0  0
  146.9330  161.1680  133.6400 F   0  0  0  0  0  0  0  0  0  0  0  0
  145.4580  158.6810  133.2870 C   0  0  0  0  0  0  0  0  0  0  0  0
  144.8770  157.4800  133.7070 C   0  0  0  0  0  0  0  0  0  0  0  0
  139.7670  158.0340  134.5300 C   0  0  0  0  0  0  0  0  0  0  0  0
  139.8210  156.7890  134.7260 O   0  0  0  0  0  0  0  0  0  0  0  0
  138.6920  158.5930  133.8250 O   0  0  0  0  0  0  0  0  0  0  0  0
  138.8140  159.1140  132.5010 C   0  0  1  0  0  0  0  0  0  0  0  0
  139.9430  160.1510  132.4580 C   0  0  0  0  0  0  0  0  0  0  0  0
  139.0800  157.9530  131.5340 C   0  0  0  0  0  0  0  0  0  0  0  0
  139.1940  156.7410  132.2340 O   0  0  0  0  0  0  0  0  0  0  0  0
  141.3414  157.3734  138.8898 H   0  0  0  0  0  0  0  0  0  0  0  0
  141.2311  155.6751  138.3152 H   0  0  0  0  0  0  0  0  0  0  0  0
  142.8151  156.5222  138.3152 H   0  0  0  0  0  0  0  0  0  0  0  0
  141.4990  156.4210  136.0270 H   0  0  0  0  0  0  0  0  0  0  0  0
  140.3669  159.9309  135.1864 H   0  0  0  0  0  0  0  0  0  0  0  0
  140.9710  155.9820  133.0290 H   0  0  0  0  0  0  0  0  0  0  0  0
  145.0612  154.4890  135.0648 H   0  0  0  0  0  0  0  0  0  0  0  0
  147.6184  155.7306  134.7393 H   0  0  0  0  0  0  0  0  0  0  0  0
  148.7295  157.8513  133.9643 H   0  0  0  0  0  0  0  0  0  0  0  0
  144.8348  159.5060  132.9114 H   0  0  0  0  0  0  0  0  0  0  0  0
  137.8838  159.6167  132.1976 H   0  0  0  0  0  0  0  0  0  0  0  0
  140.2343  160.4186  133.4844 H   0  0  0  0  0  0  0  0  0  0  0  0
  140.8098  159.7276  131.9294 H   0  0  0  0  0  0  0  0  0  0  0  0
  139.5947  161.0506  131.9294 H   0  0  0  0  0  0  0  0  0  0  0  0
  138.2471  157.8803  130.8191 H   0  0  0  0  0  0  0  0  0  0  0  0
  140.0235  158.1446  131.0020 H   0  0  0  0  0  0  0  0  0  0  0  0
  140.0360  156.7880  132.7560 H   0  0  0  0  0  0  0  0  0  0  0  0
  1  2  1  0
  2  3  1  0
  3  4  2  0
  3  5  1  0
  5  6  1  0
  6  7  1  0
  7  8  2  0
  7  9  1  0
  9 10  1  0
 10 11  1  0
 11 12  1  0
 11 13  2  0
 10 14  2  0
 14 15  1  0
 15 16  2  0
 16 17  1  0
 17 18  2  0
 18 19  1  0
 19 20  1  0
 19 21  1  0
 19 22  1  0
 18 23  1  0
 23 24  2  0
  5 25  1  0
 25 26  2  0
 25 27  1  0
 27 28  1  0
 28 29  1  0
 28 30  1  0
 30 31  1  0
 24  9  1  0
 24 15  1  0
  1 32  1  0
  1 33  1  0
  1 34  1  0
  2 35  1  0
  5 36  1  1
 12 37  1  0
 14 38  1  0
 16 39  1  0
 17 40  1  0
 23 41  1  0
 28 42  1  6
 29 43  1  0
 29 44  1  0
 29 45  1  0
 30 46  1  0
 30 47  1  0
 31 48  1  0
M  CHG  2   6  -1  12  -1
M  END
>  <UniqueID>  (82) 
82

>  <SMILES>  (82) 
CNC(=O)[C@@H]([N-]C(=O)n1c(C([NH-])=O)cc2ccc(C(F)(F)F)cc21)C(=O)O[C@@H](C)CO

>  <Energy>  (82) 
78.94226693932423

>  <Genealogy>  (82) 
CNC(=O)[C@@H]([N-]C(=O)n1c(C([NH-])=O)cc2ccc(C(F)(F)F)cc21)C(=O)OC(C)CO (protonated)
CNC(=O)[C@@H]([N-]C(=O)n1c(C([NH-])=O)cc2ccc(C(F)(F)F)cc21)C(=O)O[C@@H](C)CO (chirality)
CNC(=O)[C@@H]([N-]C(=O)n1c(C([NH-])=O)cc2ccc(C(F)(F)F)cc21)C(=O)O[C@@H](C)CO (3D coordinates assigned)
CNC(=O)[C@@H]([N-]C(=O)n1c(C([NH-])=O)cc2ccc(C(F)(F)F)cc21)C(=O)O[C@@H](C)CO (optimized conformer: 78.94226693932423 kcal/mol)

>  <smiles>  (82) 
CNC(=O)[C@@H](NC(=O)n1c(C(N)=O)cc2ccc(C(F)(F)F)cc21)C(=O)OC(C)CO

>  <score_type>  (82) 
oracle

>  <origin>  (82) 
adg

>  <m_score__min__energy>  (82) 
-6.3899999999999997

>  <m_primary>  (82) 
energy

$$$$
82:0
     RDKit          3D

 38 39  0  0  0  0  0  0  0  0999 V2000
  139.8920  158.1700  133.5870 C   0  0  0  0  0  0  0  0  0  0  0  0
  140.9210  158.3200  134.6210 N   0  0  0  0  0  0  0  0  0  0  0  0
  140.6230  157.8840  135.9970 C   0  0  0  0  0  0  0  0  0  0  0  0
  140.9740  158.9580  136.9780 C   0  0  0  0  0  0  0  0  0  0  0  0
  140.6350  160.1510  136.7630 O   0  0  0  0  0  0  0  0  0  0  0  0
  141.6900  158.6420  138.1250 O   0  0  0  0  0  0  0  0  0  0  0  0
  142.2100  158.8910  134.2780 C   0  0  0  0  0  0  0  0  0  0  0  0
  142.3590  160.2990  134.1330 C   0  0  0  0  0  0  0  0  0  0  0  0
  143.5980  160.8650  133.7870 C   0  0  0  0  0  0  0  0  0  0  0  0
  144.6750  160.0080  133.5910 C   0  0  0  0  0  0  0  0  0  0  0  0
  145.9750  160.2830  133.2310 C   0  0  0  0  0  0  0  0  0  0  0  0
  146.6110  159.0430  133.1730 C   0  0  0  0  0  0  0  0  0  0  0  0
  148.0520  158.8730  132.8880 C   0  0  0  0  0  0  0  0  0  0  0  0
  148.5010  158.4630  131.5980 N   0  0  0  0  0  0  0  0  0  0  0  0
  148.8970  159.0630  133.8030 O   0  0  0  0  0  0  0  0  0  0  0  0
  145.7340  158.0460  133.4780 N   0  0  0  0  0  0  0  0  0  0  0  0
  145.9630  156.6290  133.4680 C   0  0  0  0  0  0  0  0  0  0  0  0
  145.1650  155.8680  134.0780 O   0  0  0  0  0  0  0  0  0  0  0  0
  147.0900  156.0570  132.7060 C   0  0  0  0  0  0  0  0  0  0  0  0
  146.9480  155.7970  131.4820 O   0  0  0  0  0  0  0  0  0  0  0  0
  148.3910  155.7300  133.3790 C   0  0  0  0  0  0  0  0  0  0  0  0
  149.5010  156.2730  132.6040 N   0  0  0  0  0  0  0  0  0  0  0  0
  144.5580  158.6520  133.7360 C   0  0  0  0  0  0  0  0  0  0  0  0
  143.3380  158.0580  134.0720 C   0  0  0  0  0  0  0  0  0  0  0  0
  138.9111  158.0270  134.0639 H   0  0  0  0  0  0  0  0  0  0  0  0
  139.8669  159.0740  132.9608 H   0  0  0  0  0  0  0  0  0  0  0  0
  140.1261  157.2965  132.9608 H   0  0  0  0  0  0  0  0  0  0  0  0
  139.5501  157.6558  136.0794 H   0  0  0  0  0  0  0  0  0  0  0  0
  141.2211  156.9888  136.2225 H   0  0  0  0  0  0  0  0  0  0  0  0
  141.4906  160.9546  134.2943 H   0  0  0  0  0  0  0  0  0  0  0  0
  143.7122  161.9533  133.6747 H   0  0  0  0  0  0  0  0  0  0  0  0
  146.4177  161.2701  133.0316 H   0  0  0  0  0  0  0  0  0  0  0  0
  148.3250  157.4950  131.2500 H   0  0  0  0  0  0  0  0  0  0  0  0
  148.4007  156.1696  134.3873 H   0  0  0  0  0  0  0  0  0  0  0  0
  148.4982  154.6374  133.4486 H   0  0  0  0  0  0  0  0  0  0  0  0
  149.1790  156.4030  131.6180 H   0  0  0  0  0  0  0  0  0  0  0  0
  149.7110  157.2270  132.9770 H   0  0  0  0  0  0  0  0  0  0  0  0
  143.2551  156.9659  134.1745 H   0  0  0  0  0  0  0  0  0  0  0  0
  1  2  1  0
  2  3  1  0
  3  4  1  0
  4  5  2  0
  4  6  1  0
  2  7  1  0
  7  8  2  0
  8  9  1  0
  9 10  2  0
 10 11  1  0
 11 12  2  0
 12 13  1  0
 13 14  1  0
 13 15  2  0
 12 16  1  0
 16 17  1  0
 17 18  2  0
 17 19  1  0
 19 20  2  0
 19 21  1  0
 21 22  1  0
 16 23  1  0
 23 24  2  0
 24  7  1  0
 23 10  1  0
  1 25  1  0
  1 26  1  0
  1 27  1  0
  3 28  1  0
  3 29  1  0
  8 30  1  0
  9 31  1  0
 11 32  1  0
 14 33  1  0
 21 34  1  0
 21 35  1  0
 22 36  1  0
 22 37  1  0
 24 38  1  0
M  CHG  2   6  -1  14  -1
M  END
>  <UniqueID>  (83) 
83

>  <SMILES>  (83) 
CN(CC(=O)[O-])c1ccc2cc(C([NH-])=O)n(C(=O)C(=O)CN)c2c1

>  <Energy>  (83) 
76.90503207380317

>  <Genealogy>  (83) 
CN(CC(=O)[O-])c1ccc2cc(C([NH-])=O)n(C(=O)C(=O)CN)c2c1 (protonated)
CN(CC(=O)[O-])c1ccc2cc(C([NH-])=O)n(C(=O)C(=O)CN)c2c1 (3D coordinates assigned)
CN(CC(=O)[O-])c1ccc2cc(C([NH-])=O)n(C(=O)C(=O)CN)c2c1 (optimized conformer: 76.90503207380317 kcal/mol)

>  <smiles>  (83) 
CN(CC(=O)O)c1ccc2cc(C(N)=O)n(C(=O)C(=O)CN)c2c1

>  <score_type>  (83) 
oracle

>  <origin>  (83) 
adg

>  <m_score__min__energy>  (83) 
-6.3200000000000003

>  <m_primary>  (83) 
energy

$$$$
83:0
     RDKit          3D

 55 56  0  0  0  0  0  0  0  0999 V2000
  141.1720  157.5870  133.7160 C   0  0  0  0  0  0  0  0  0  0  0  0
  142.5070  158.2610  133.6060 C   0  0  0  0  0  0  0  0  0  0  0  0
  142.6140  159.6580  133.8200 C   0  0  0  0  0  0  0  0  0  0  0  0
  143.8660  160.2980  133.7620 C   0  0  0  0  0  0  0  0  0  0  0  0
  144.9870  159.5130  133.5090 C   0  0  0  0  0  0  0  0  0  0  0  0
  146.3160  159.8630  133.4210 C   0  0  0  0  0  0  0  0  0  0  0  0
  146.9990  158.6710  133.1760 C   0  0  0  0  0  0  0  0  0  0  0  0
  148.4700  158.5810  133.0520 C   0  0  0  0  0  0  0  0  0  0  0  0
  149.0480  157.9880  131.8900 N   0  0  0  0  0  0  0  0  0  0  0  0
  149.2250  159.0250  133.9560 O   0  0  0  0  0  0  0  0  0  0  0  0
  146.1260  157.6270  133.1270 N   0  0  0  0  0  0  0  0  0  0  0  0
  146.4210  156.2300  132.9600 C   0  0  0  0  0  0  0  0  0  0  0  0
  146.9620  155.8380  131.8930 O   0  0  0  0  0  0  0  0  0  0  0  0
  146.0570  155.2720  133.9770 N   0  0  0  0  0  0  0  0  0  0  0  0
  146.6910  155.3520  135.3010 C   0  0  0  0  0  0  0  0  0  0  0  0
  147.3440  154.0550  135.6550 C   0  0  0  0  0  0  0  0  0  0  0  0
  148.2470  153.5800  134.9190 O   0  0  0  0  0  0  0  0  0  0  0  0
  146.9460  153.3580  136.7870 O   0  0  0  0  0  0  0  0  0  0  0  0
  145.2160  154.1140  133.6410 C   0  0  0  0  0  0  0  0  0  0  0  0
  143.8430  154.2210  134.2520 C   0  0  0  0  0  0  0  0  0  0  0  0
  143.7030  154.9120  135.2980 O   0  0  0  0  0  0  0  0  0  0  0  0
  142.7080  153.5180  133.7020 N   0  0  0  0  0  0  0  0  0  0  0  0
  141.4780  154.2400  133.3610 C   0  0  0  0  0  0  0  0  0  0  0  0
  142.8000  152.0820  133.4040 C   0  0  0  0  0  0  0  0  0  0  0  0
  141.4160  151.4170  133.4080 C   0  0  0  0  0  0  0  0  0  0  0  0
  141.5000  149.9730  133.1000 N   0  0  0  0  0  0  0  0  0  0  0  0
  142.6510  149.6830  132.2240 C   0  0  0  0  0  0  0  0  0  0  0  0
  140.2650  149.5300  132.4280 C   0  0  0  0  0  0  0  0  0  0  0  0
  144.8990  158.1580  133.3240 C   0  0  0  0  0  0  0  0  0  0  0  0
  143.6680  157.4980  133.3580 C   0  0  0  0  0  0  0  0  0  0  0  0
  140.9135  157.4565  134.7772 H   0  0  0  0  0  0  0  0  0  0  0  0
  140.4068  158.2068  133.2258 H   0  0  0  0  0  0  0  0  0  0  0  0
  141.2164  156.6033  133.2258 H   0  0  0  0  0  0  0  0  0  0  0  0
  141.7101  160.2474  134.0334 H   0  0  0  0  0  0  0  0  0  0  0  0
  143.9557  161.3841  133.9118 H   0  0  0  0  0  0  0  0  0  0  0  0
  146.7479  160.8696  133.5224 H   0  0  0  0  0  0  0  0  0  0  0  0
  148.6350  157.1300  131.4630 H   0  0  0  0  0  0  0  0  0  0  0  0
  147.4509  156.1473  135.2897 H   0  0  0  0  0  0  0  0  0  0  0  0
  145.9167  155.5735  136.0503 H   0  0  0  0  0  0  0  0  0  0  0  0
  145.1149  154.0532  132.5474 H   0  0  0  0  0  0  0  0  0  0  0  0
  145.6998  153.2125  134.0451 H   0  0  0  0  0  0  0  0  0  0  0  0
  140.9625  154.5426  134.2844 H   0  0  0  0  0  0  0  0  0  0  0  0
  141.7291  155.1341  132.7714 H   0  0  0  0  0  0  0  0  0  0  0  0
  140.8198  153.5849  132.7714 H   0  0  0  0  0  0  0  0  0  0  0  0
  143.2566  151.9513  132.4118 H   0  0  0  0  0  0  0  0  0  0  0  0
  143.4139  151.6063  134.1831 H   0  0  0  0  0  0  0  0  0  0  0  0
  140.9631  151.5433  134.4025 H   0  0  0  0  0  0  0  0  0  0  0  0
  140.8034  151.8975  132.6309 H   0  0  0  0  0  0  0  0  0  0  0  0
  143.5343  149.4605  132.8407 H   0  0  0  0  0  0  0  0  0  0  0  0
  142.4191  148.8152  131.5890 H   0  0  0  0  0  0  0  0  0  0  0  0
  142.8579  150.5571  131.5890 H   0  0  0  0  0  0  0  0  0  0  0  0
  139.5128  149.2602  133.1839 H   0  0  0  0  0  0  0  0  0  0  0  0
  139.8771  150.3450  131.7993 H   0  0  0  0  0  0  0  0  0  0  0  0
  140.4836  148.6542  131.7993 H   0  0  0  0  0  0  0  0  0  0  0  0
  143.6054  156.4118  133.1957 H   0  0  0  0  0  0  0  0  0  0  0  0
  1  2  1  0
  2  3  2  0
  3  4  1  0
  4  5  2  0
  5  6  1  0
  6  7  2  0
  7  8  1  0
  8  9  1  0
  8 10  2  0
  7 11  1  0
 11 12  1  0
 12 13  2  0
 12 14  1  0
 14 15  1  0
 15 16  1  0
 16 17  2  0
 16 18  1  0
 14 19  1  0
 19 20  1  0
 20 21  2  0
 20 22  1  0
 22 23  1  0
 22 24  1  0
 24 25  1  0
 25 26  1  0
 26 27  1  0
 26 28  1  0
 11 29  1  0
 29 30  2  0
 30  2  1  0
 29  5  1  0
  1 31  1  0
  1 32  1  0
  1 33  1  0
  3 34  1  0
  4 35  1  0
  6 36  1  0
  9 37  1  0
 15 38  1  0
 15 39  1  0
 19 40  1  0
 19 41  1  0
 23 42  1  0
 23 43  1  0
 23 44  1  0
 24 45  1  0
 24 46  1  0
 25 47  1  0
 25 48  1  0
 27 49  1  0
 27 50  1  0
 27 51  1  0
 28 52  1  0
 28 53  1  0
 28 54  1  0
 30 55  1  0
M  CHG  2   9  -1  18  -1
M  END
>  <UniqueID>  (84) 
84

>  <SMILES>  (84) 
Cc1ccc2cc(C([NH-])=O)n(C(=O)N(CC(=O)[O-])CC(=O)N(C)CCN(C)C)c2c1

>  <Energy>  (84) 
87.24205491600483

>  <Genealogy>  (84) 
Cc1ccc2cc(C([NH-])=O)n(C(=O)N(CC(=O)[O-])CC(=O)N(C)CCN(C)C)c2c1 (protonated)
Cc1ccc2cc(C([NH-])=O)n(C(=O)N(CC(=O)[O-])CC(=O)N(C)CCN(C)C)c2c1 (3D coordinates assigned)
Cc1ccc2cc(C([NH-])=O)n(C(=O)N(CC(=O)[O-])CC(=O)N(C)CCN(C)C)c2c1 (optimized conformer: 87.24205491600483 kcal/mol)

>  <smiles>  (84) 
Cc1ccc2cc(C(N)=O)n(C(=O)N(CC(=O)O)CC(=O)N(C)CCN(C)C)c2c1

>  <score_type>  (84) 
oracle

>  <origin>  (84) 
adg

>  <m_score__min__energy>  (84) 
-7.4699999999999998

>  <m_primary>  (84) 
energy

$$$$
84:0
     RDKit          3D

 38 39  0  0  0  0  0  0  0  0999 V2000
  142.7470  160.7060  133.3640 N   0  0  0  0  0  0  0  0  0  0  0  0
  144.1080  161.0070  133.6570 C   0  0  0  0  0  0  0  0  0  0  0  0
  144.4090  162.1540  134.0830 O   0  0  0  0  0  0  0  0  0  0  0  0
  145.1520  159.9820  133.4420 C   0  0  0  0  0  0  0  0  0  0  0  0
  146.5180  160.2630  133.3880 C   0  0  0  0  0  0  0  0  0  0  0  0
  147.1350  159.0430  133.2270 C   0  0  0  0  0  0  0  0  0  0  0  0
  148.4850  158.7320  133.0980 C   0  0  0  0  0  0  0  0  0  0  0  0
  148.8350  157.3840  132.9130 C   0  0  0  0  0  0  0  0  0  0  0  0
  147.8360  156.3790  132.8560 C   0  0  0  0  0  0  0  0  0  0  0  0
  148.2310  154.9450  132.6420 C   0  0  0  0  0  0  0  0  0  0  0  0
  149.5640  154.8790  132.2810 F   0  0  0  0  0  0  0  0  0  0  0  0
  148.0380  154.2280  133.8080 F   0  0  0  0  0  0  0  0  0  0  0  0
  146.4750  156.7340  132.9880 C   0  0  0  0  0  0  0  0  0  0  0  0
  146.1590  158.0820  133.1890 C   0  0  0  0  0  0  0  0  0  0  0  0
  144.9390  158.6420  133.3220 N   0  0  0  0  0  0  0  0  0  0  0  0
  143.6790  157.9550  133.3050 C   0  0  0  0  0  0  0  0  0  0  0  0
  143.2330  157.4910  132.2230 O   0  0  0  0  0  0  0  0  0  0  0  0
  142.8570  157.8390  134.5550 C   0  0  0  0  0  0  0  0  0  0  0  0
  141.6180  158.4970  134.3810 O   0  0  0  0  0  0  0  0  0  0  0  0
  140.6110  157.5670  134.0330 C   0  0  0  0  0  0  0  0  0  0  0  0
  139.4170  158.3000  133.4140 C   0  0  0  0  0  0  0  0  0  0  0  0
  139.8420  159.3660  132.4000 C   0  0  0  0  0  0  0  0  0  0  0  0
  140.9650  158.9350  131.6820 O   0  0  0  0  0  0  0  0  0  0  0  0
  142.4850  159.8180  132.8820 H   0  0  0  0  0  0  0  0  0  0  0  0
  146.9993  161.2496  133.4590 H   0  0  0  0  0  0  0  0  0  0  0  0
  149.2543  159.5171  133.1396 H   0  0  0  0  0  0  0  0  0  0  0  0
  149.8943  157.1054  132.8113 H   0  0  0  0  0  0  0  0  0  0  0  0
  147.6105  154.5165  131.8412 H   0  0  0  0  0  0  0  0  0  0  0  0
  145.6847  155.9708  132.9342 H   0  0  0  0  0  0  0  0  0  0  0  0
  142.6774  156.7764  134.7757 H   0  0  0  0  0  0  0  0  0  0  0  0
  143.4003  158.3065  135.3894 H   0  0  0  0  0  0  0  0  0  0  0  0
  141.0145  156.8474  133.3054 H   0  0  0  0  0  0  0  0  0  0  0  0
  140.2806  157.0351  134.9374 H   0  0  0  0  0  0  0  0  0  0  0  0
  138.7774  157.5642  132.9046 H   0  0  0  0  0  0  0  0  0  0  0  0
  138.8803  158.8094  134.2279 H   0  0  0  0  0  0  0  0  0  0  0  0
  139.0137  159.5519  131.7005 H   0  0  0  0  0  0  0  0  0  0  0  0
  140.0956  160.2909  132.9388 H   0  0  0  0  0  0  0  0  0  0  0  0
  141.7460  159.0930  132.2730 H   0  0  0  0  0  0  0  0  0  0  0  0
  1  2  1  0
  2  3  2  0
  2  4  1  0
  4  5  2  0
  5  6  1  0
  6  7  2  0
  7  8  1  0
  8  9  2  0
  9 10  1  0
 10 11  1  0
 10 12  1  0
  9 13  1  0
 13 14  2  0
 14 15  1  0
 15 16  1  0
 16 17  2  0
 16 18  1  0
 18 19  1  0
 19 20  1  0
 20 21  1  0
 21 22  1  0
 22 23  1  0
 15  4  1  0
 14  6  1  0
  1 24  1  0
  5 25  1  0
  7 26  1  0
  8 27  1  0
 10 28  1  0
 13 29  1  0
 18 30  1  0
 18 31  1  0
 20 32  1  0
 20 33  1  0
 21 34  1  0
 21 35  1  0
 22 36  1  0
 22 37  1  0
 23 38  1  0
M  CHG  1   1  -1
M  END
>  <UniqueID>  (85) 
85

>  <SMILES>  (85) 
[NH-]C(=O)c1cc2ccc(C(F)F)cc2n1C(=O)COCCCO

>  <Energy>  (85) 
73.31749128549794

>  <Genealogy>  (85) 
[NH-]C(=O)c1cc2ccc(C(F)F)cc2n1C(=O)COCCCO (protonated)
[NH-]C(=O)c1cc2ccc(C(F)F)cc2n1C(=O)COCCCO (3D coordinates assigned)
[NH-]C(=O)c1cc2ccc(C(F)F)cc2n1C(=O)COCCCO (optimized conformer: 73.31749128549794 kcal/mol)

>  <smiles>  (85) 
NC(=O)c1cc2ccc(C(F)F)cc2n1C(=O)COCCCO

>  <score_type>  (85) 
oracle

>  <origin>  (85) 
adg

>  <m_score__min__energy>  (85) 
-5.3300000000000001

>  <m_primary>  (85) 
energy

$$$$
85:0
     RDKit          3D

 35 36  0  0  0  0  0  0  0  0999 V2000
  146.0510  155.6687  135.3753 H   0  0  0  0  0  0  0  0  0  0  0  0
  146.6860  155.5660  134.4830 C   0  0  0  0  0  0  0  0  0  0  0  0
  146.3560  156.3850  133.2970 C   0  0  0  0  0  0  0  0  0  0  0  0
  146.0760  155.8000  132.2180 O   0  0  0  0  0  0  0  0  0  0  0  0
  146.3030  157.8200  133.3510 N   0  0  0  0  0  0  0  0  0  0  0  0
  147.2950  158.6960  133.0280 C   0  0  0  0  0  0  0  0  0  0  0  0
  148.6870  158.3180  132.6860 C   0  0  0  0  0  0  0  0  0  0  0  0
  149.6150  159.1610  132.7990 O   0  0  0  0  0  0  0  0  0  0  0  0
  148.9960  157.0070  132.2080 N   0  0  0  0  0  0  0  0  0  0  0  0
  149.9760  156.7680  131.9380 H   0  0  0  0  0  0  0  0  0  0  0  0
  148.2720  156.2570  132.1620 H   0  0  0  0  0  0  0  0  0  0  0  0
  146.8340  160.0090  133.1250 C   0  0  0  0  0  0  0  0  0  0  0  0
  147.4031  160.9313  132.9366 H   0  0  0  0  0  0  0  0  0  0  0  0
  145.5140  159.9050  133.5070 C   0  0  0  0  0  0  0  0  0  0  0  0
  144.5680  160.8980  133.7450 C   0  0  0  0  0  0  0  0  0  0  0  0
  144.8273  161.9628  133.6502 H   0  0  0  0  0  0  0  0  0  0  0  0
  143.2720  160.4980  134.1100 C   0  0  0  0  0  0  0  0  0  0  0  0
  142.5059  161.2589  134.3202 H   0  0  0  0  0  0  0  0  0  0  0  0
  142.9420  159.1230  134.2100 C   0  0  0  0  0  0  0  0  0  0  0  0
  141.5630  158.7090  134.6300 C   0  0  0  0  0  0  0  0  0  0  0  0
  140.9251  158.6037  133.7401 H   0  0  0  0  0  0  0  0  0  0  0  0
  141.6154  157.7468  135.1605 H   0  0  0  0  0  0  0  0  0  0  0  0
  141.0280  159.6680  135.4690 F   0  0  0  0  0  0  0  0  0  0  0  0
  143.9320  158.1450  133.9740 C   0  0  0  0  0  0  0  0  0  0  0  0
  143.6981  157.0736  134.0592 H   0  0  0  0  0  0  0  0  0  0  0  0
  145.2180  158.5730  133.6290 C   0  0  0  0  0  0  0  0  0  0  0  0
  147.7160  154.7030  134.5360 C   0  0  0  0  0  0  0  0  0  0  0  0
  148.5260  154.5110  133.4220 O   0  0  0  0  0  0  0  0  0  0  0  0
  148.0150  153.9520  135.6880 O   0  0  0  0  0  0  0  0  0  0  0  0
  148.1080  154.4600  137.0200 C   0  0  0  0  0  0  0  0  0  0  0  0
  149.1539  154.4029  137.3560 H   0  0  0  0  0  0  0  0  0  0  0  0
  147.7618  155.5041  137.0252 H   0  0  0  0  0  0  0  0  0  0  0  0
  147.2490  153.6640  137.9510 C   0  0  0  0  0  0  0  0  0  0  0  0
  146.6400  152.6450  137.5350 O   0  0  0  0  0  0  0  0  0  0  0  0
  147.1450  154.0300  139.2870 O   0  0  0  0  0  0  0  0  0  0  0  0
  1  2  1  0
  2  3  1  0
  3  4  2  0
  3  5  1  0
  5  6  1  0
  6  7  1  0
  7  8  2  0
  7  9  1  0
  9 10  1  0
  9 11  1  0
  6 12  2  0
 12 13  1  0
 12 14  1  0
 14 15  2  0
 15 16  1  0
 15 17  1  0
 17 18  1  0
 17 19  2  0
 19 20  1  0
 20 21  1  0
 20 22  1  0
 20 23  1  0
 19 24  1  0
 24 25  1  0
 24 26  2  0
  2 27  2  0
 27 28  1  0
 27 29  1  0
 29 30  1  0
 30 31  1  0
 30 32  1  0
 30 33  1  0
 33 34  2  0
 33 35  1  0
 26  5  1  0
 26 14  1  0
M  CHG  2  28  -1  35  -1
M  END
>  <UniqueID>  (86) 
86

>  <SMILES>  (86) 
NC(=O)c1cc2ccc(CF)cc2n1C(=O)/C=C(\[O-])OCC(=O)[O-]

>  <Energy>  (86) 
75.23434199747909

>  <Genealogy>  (86) 
NC(=O)c1cc2ccc(CF)cc2n1C(=O)C=C([O-])OCC(=O)[O-] (protonated)
NC(=O)c1cc2ccc(CF)cc2n1C(=O)/C=C(\[O-])OCC(=O)[O-] (cis-trans isomerization)
NC(=O)c1cc2ccc(CF)cc2n1C(=O)/C=C(\[O-])OCC(=O)[O-] (3D coordinates assigned)
NC(=O)c1cc2ccc(CF)cc2n1C(=O)/C=C(\[O-])OCC(=O)[O-] (optimized conformer: 75.23434199747909 kcal/mol)

>  <smiles>  (86) 
NC(=O)c1cc2ccc(CF)cc2n1C(=O)C=C(O)OCC(=O)O

>  <score_type>  (86) 
oracle

>  <origin>  (86) 
adg

>  <m_score__min__energy>  (86) 
-6.5599999999999996

>  <m_primary>  (86) 
energy

$$$$
86:0
     RDKit          3D

 46 47  0  0  0  0  0  0  0  0999 V2000
  142.5280  151.0920  132.7680 C   0  0  0  0  0  0  0  0  0  0  0  0
  141.6050  151.8720  133.6000 N   0  0  0  0  0  0  0  0  0  0  0  0
  140.7770  152.9210  132.9830 C   0  0  0  0  0  0  0  0  0  0  0  0
  141.4910  154.2770  133.0380 C   0  0  0  0  0  0  0  0  0  0  0  0
  140.5250  155.3710  133.3870 C   0  0  0  0  0  0  0  0  0  0  0  0
  139.2860  155.1740  133.2650 O   0  0  0  0  0  0  0  0  0  0  0  0
  141.0070  156.6610  133.7900 N   0  0  0  0  0  0  0  0  0  0  0  0
  141.9270  156.9350  134.7570 C   0  0  0  0  0  0  0  0  0  0  0  0
  142.6250  155.9370  135.5940 C   0  0  0  0  0  0  0  0  0  0  0  0
  142.3530  155.8670  136.9910 N   0  0  0  0  0  0  0  0  0  0  0  0
  143.4530  155.1360  135.0860 O   0  0  0  0  0  0  0  0  0  0  0  0
  142.0990  158.3130  134.8870 C   0  0  0  0  0  0  0  0  0  0  0  0
  141.2490  158.8760  133.9610 C   0  0  0  0  0  0  0  0  0  0  0  0
  141.0280  160.2120  133.6440 C   0  0  0  0  0  0  0  0  0  0  0  0
  140.1160  160.5030  132.6160 C   0  0  0  0  0  0  0  0  0  0  0  0
  139.4370  159.4620  131.9310 C   0  0  0  0  0  0  0  0  0  0  0  0
  138.5050  159.7700  130.7880 C   0  0  0  0  0  0  0  0  0  0  0  0
  138.7600  158.9500  129.7020 F   0  0  0  0  0  0  0  0  0  0  0  0
  137.2000  159.5770  131.1990 F   0  0  0  0  0  0  0  0  0  0  0  0
  138.6630  161.0850  130.3860 F   0  0  0  0  0  0  0  0  0  0  0  0
  139.7080  158.1170  132.2690 C   0  0  0  0  0  0  0  0  0  0  0  0
  140.6060  157.8580  133.3100 C   0  0  0  0  0  0  0  0  0  0  0  0
  141.5240  151.5780  135.0160 C   0  0  0  0  0  0  0  0  0  0  0  0
  140.9890  150.5000  135.3950 O   0  0  0  0  0  0  0  0  0  0  0  0
  142.0500  152.4900  135.9990 N   0  0  0  0  0  0  0  0  0  0  0  0
  141.6440  152.4930  137.3730 C   0  0  0  0  0  0  0  0  0  0  0  0
  140.7110  151.7390  137.7690 O   0  0  0  0  0  0  0  0  0  0  0  0
  142.2740  153.3650  138.2650 O   0  0  0  0  0  0  0  0  0  0  0  0
  143.6880  153.4290  138.4190 C   0  0  0  0  0  0  0  0  0  0  0  0
  144.2830  153.7620  137.1960 O   0  0  0  0  0  0  0  0  0  0  0  0
  143.2079  150.5175  133.4143 H   0  0  0  0  0  0  0  0  0  0  0  0
  141.9544  150.4009  132.1330 H   0  0  0  0  0  0  0  0  0  0  0  0
  143.1138  151.7729  132.1330 H   0  0  0  0  0  0  0  0  0  0  0  0
  140.5833  152.6572  131.9328 H   0  0  0  0  0  0  0  0  0  0  0  0
  139.8304  152.9968  133.5382 H   0  0  0  0  0  0  0  0  0  0  0  0
  142.2828  154.2375  133.8005 H   0  0  0  0  0  0  0  0  0  0  0  0
  141.9238  154.4893  132.0492 H   0  0  0  0  0  0  0  0  0  0  0  0
  142.9970  155.3590  137.6380 H   0  0  0  0  0  0  0  0  0  0  0  0
  142.7708  158.8385  135.5816 H   0  0  0  0  0  0  0  0  0  0  0  0
  141.5514  161.0162  134.1818 H   0  0  0  0  0  0  0  0  0  0  0  0
  139.9259  161.5503  132.3386 H   0  0  0  0  0  0  0  0  0  0  0  0
  139.2237  157.2921  131.7258 H   0  0  0  0  0  0  0  0  0  0  0  0
  142.7450  153.2130  135.7190 H   0  0  0  0  0  0  0  0  0  0  0  0
  143.9396  154.1943  139.1680 H   0  0  0  0  0  0  0  0  0  0  0  0
  144.0623  152.4492  138.7505 H   0  0  0  0  0  0  0  0  0  0  0  0
  144.1980  154.7470  137.1090 H   0  0  0  0  0  0  0  0  0  0  0  0
  1  2  1  0
  2  3  1  0
  3  4  1  0
  4  5  1  0
  5  6  2  0
  5  7  1  0
  7  8  1  0
  8  9  1  0
  9 10  1  0
  9 11  2  0
  8 12  2  0
 12 13  1  0
 13 14  2  0
 14 15  1  0
 15 16  2  0
 16 17  1  0
 17 18  1  0
 17 19  1  0
 17 20  1  0
 16 21  1  0
 21 22  2  0
  2 23  1  0
 23 24  2  0
 23 25  1  0
 25 26  1  0
 26 27  2  0
 26 28  1  0
 28 29  1  0
 29 30  1  0
 22  7  1  0
 22 13  1  0
  1 31  1  0
  1 32  1  0
  1 33  1  0
  3 34  1  0
  3 35  1  0
  4 36  1  0
  4 37  1  0
 10 38  1  0
 12 39  1  0
 14 40  1  0
 15 41  1  0
 21 42  1  0
 25 43  1  0
 29 44  1  0
 29 45  1  0
 30 46  1  0
M  CHG  1  10  -1
M  END
>  <UniqueID>  (87) 
87

>  <SMILES>  (87) 
CN(CCC(=O)n1c(C([NH-])=O)cc2ccc(C(F)(F)F)cc21)C(=O)NC(=O)OCO

>  <Energy>  (87) 
76.52122209801153

>  <Genealogy>  (87) 
CN(CCC(=O)n1c(C([NH-])=O)cc2ccc(C(F)(F)F)cc21)C(=O)NC(=O)OCO (protonated)
CN(CCC(=O)n1c(C([NH-])=O)cc2ccc(C(F)(F)F)cc21)C(=O)NC(=O)OCO (3D coordinates assigned)
CN(CCC(=O)n1c(C([NH-])=O)cc2ccc(C(F)(F)F)cc21)C(=O)NC(=O)OCO (optimized conformer: 76.52122209801153 kcal/mol)

>  <smiles>  (87) 
CN(CCC(=O)n1c(C(N)=O)cc2ccc(C(F)(F)F)cc21)C(=O)NC(=O)OCO

>  <score_type>  (87) 
oracle

>  <origin>  (87) 
adg

>  <m_score__min__energy>  (87) 
-6.2000000000000002

>  <m_primary>  (87) 
energy

$$$$
87:0
     RDKit          3D

 49 50  0  0  0  0  0  0  0  0999 V2000
  144.6080  161.6860  133.9830 C   0  0  0  0  0  0  0  0  0  0  0  0
  145.3970  160.8080  133.7320 C   0  0  0  0  0  0  0  0  0  0  0  0
  146.3370  159.7620  133.4330 C   0  0  0  0  0  0  0  0  0  0  0  0
  147.5770  160.0780  132.8290 C   0  0  0  0  0  0  0  0  0  0  0  0
  148.5010  159.0620  132.5270 C   0  0  0  0  0  0  0  0  0  0  0  0
  148.1570  157.7510  132.8450 C   0  0  0  0  0  0  0  0  0  0  0  0
  148.8490  156.5770  132.6500 C   0  0  0  0  0  0  0  0  0  0  0  0
  148.0220  155.5720  133.1500 C   0  0  0  0  0  0  0  0  0  0  0  0
  148.4040  154.1430  133.1870 C   0  0  0  0  0  0  0  0  0  0  0  0
  148.0990  153.3270  134.3140 N   0  0  0  0  0  0  0  0  0  0  0  0
  149.0360  153.6430  132.2180 O   0  0  0  0  0  0  0  0  0  0  0  0
  146.8700  156.1050  133.6430 N   0  0  0  0  0  0  0  0  0  0  0  0
  145.7330  155.4100  134.1780 C   0  0  0  0  0  0  0  0  0  0  0  0
  145.8930  154.6530  135.1740 O   0  0  0  0  0  0  0  0  0  0  0  0
  144.4220  155.5710  133.5920 N   0  0  0  0  0  0  0  0  0  0  0  0
  143.4970  156.5830  134.1290 C   0  0  0  0  0  0  0  0  0  0  0  0
  142.7520  157.2860  132.9890 C   0  0  0  0  0  0  0  0  0  0  0  0
  141.6250  158.0820  133.5180 N   0  0  0  0  0  0  0  0  0  0  0  0
  141.9730  159.3620  134.1110 C   0  0  0  0  0  0  0  0  0  0  0  0
  142.6460  159.4310  135.1720 O   0  0  0  0  0  0  0  0  0  0  0  0
  141.5660  160.5510  133.5130 O   0  0  0  0  0  0  0  0  0  0  0  0
  140.2110  157.5780  133.5270 C   0  0  0  0  0  0  0  0  0  0  0  0
  139.4770  157.8530  134.8660 C   0  0  0  0  0  0  0  0  0  0  0  0
  139.3980  158.2790  132.4160 C   0  0  0  0  0  0  0  0  0  0  0  0
  140.1910  156.0480  133.3110 C   0  0  0  0  0  0  0  0  0  0  0  0
  143.9580  154.6470  132.5860 C   0  0  0  0  0  0  0  0  0  0  0  0
  144.5830  154.5150  131.5000 O   0  0  0  0  0  0  0  0  0  0  0  0
  142.8230  153.8720  132.8050 O   0  0  0  0  0  0  0  0  0  0  0  0
  146.9620  157.4370  133.4410 C   0  0  0  0  0  0  0  0  0  0  0  0
  146.0170  158.4240  133.7400 C   0  0  0  0  0  0  0  0  0  0  0  0
  143.8888  162.4863  134.2118 H   0  0  0  0  0  0  0  0  0  0  0  0
  147.8196  161.1249  132.5943 H   0  0  0  0  0  0  0  0  0  0  0  0
  149.4662  159.2959  132.0539 H   0  0  0  0  0  0  0  0  0  0  0  0
  149.8437  156.4572  132.1959 H   0  0  0  0  0  0  0  0  0  0  0  0
  147.1230  152.9990  134.4920 H   0  0  0  0  0  0  0  0  0  0  0  0
  142.7675  156.0924  134.7902 H   0  0  0  0  0  0  0  0  0  0  0  0
  144.0748  157.3310  134.6917 H   0  0  0  0  0  0  0  0  0  0  0  0
  143.4482  157.9526  132.4590 H   0  0  0  0  0  0  0  0  0  0  0  0
  142.3564  156.5245  132.3008 H   0  0  0  0  0  0  0  0  0  0  0  0
  140.1417  157.6040  135.7064 H   0  0  0  0  0  0  0  0  0  0  0  0
  139.1996  158.9160  134.9205 H   0  0  0  0  0  0  0  0  0  0  0  0
  138.5694  157.2339  134.9205 H   0  0  0  0  0  0  0  0  0  0  0  0
  138.6402  158.9324  132.8730 H   0  0  0  0  0  0  0  0  0  0  0  0
  140.0740  158.8821  131.7920 H   0  0  0  0  0  0  0  0  0  0  0  0
  138.9010  157.5217  131.7920 H   0  0  0  0  0  0  0  0  0  0  0  0
  140.1844  155.5400  134.2867 H   0  0  0  0  0  0  0  0  0  0  0  0
  139.2891  155.7692  132.7463 H   0  0  0  0  0  0  0  0  0  0  0  0
  141.0853  155.7457  132.7463 H   0  0  0  0  0  0  0  0  0  0  0  0
  145.0528  158.1638  134.2010 H   0  0  0  0  0  0  0  0  0  0  0  0
  1  2  3  0
  2  3  1  0
  3  4  2  0
  4  5  1  0
  5  6  2  0
  6  7  1  0
  7  8  2  0
  8  9  1  0
  9 10  1  0
  9 11  2  0
  8 12  1  0
 12 13  1  0
 13 14  2  0
 13 15  1  0
 15 16  1  0
 16 17  1  0
 17 18  1  0
 18 19  1  0
 19 20  2  0
 19 21  1  0
 18 22  1  0
 22 23  1  0
 22 24  1  0
 22 25  1  0
 15 26  1  0
 26 27  2  0
 26 28  1  0
 12 29  1  0
 29 30  2  0
 30  3  1  0
 29  6  1  0
  1 31  1  0
  4 32  1  0
  5 33  1  0
  7 34  1  0
 10 35  1  0
 16 36  1  0
 16 37  1  0
 17 38  1  0
 17 39  1  0
 23 40  1  0
 23 41  1  0
 23 42  1  0
 24 43  1  0
 24 44  1  0
 24 45  1  0
 25 46  1  0
 25 47  1  0
 25 48  1  0
 30 49  1  0
M  CHG  3  10  -1  21  -1  28  -1
M  END
>  <UniqueID>  (88) 
88

>  <SMILES>  (88) 
C#Cc1ccc2cc(C([NH-])=O)n(C(=O)N(CCN(C(=O)[O-])C(C)(C)C)C(=O)[O-])c2c1

>  <Energy>  (88) 
86.4953727920883

>  <Genealogy>  (88) 
C#Cc1ccc2cc(C([NH-])=O)n(C(=O)N(CCN(C(=O)[O-])C(C)(C)C)C(=O)[O-])c2c1 (protonated)
C#Cc1ccc2cc(C([NH-])=O)n(C(=O)N(CCN(C(=O)[O-])C(C)(C)C)C(=O)[O-])c2c1 (3D coordinates assigned)
C#Cc1ccc2cc(C([NH-])=O)n(C(=O)N(CCN(C(=O)[O-])C(C)(C)C)C(=O)[O-])c2c1 (optimized conformer: 86.4953727920883 kcal/mol)

>  <smiles>  (88) 
C#Cc1ccc2cc(C(N)=O)n(C(=O)N(CCN(C(=O)O)C(C)(C)C)C(=O)O)c2c1

>  <score_type>  (88) 
oracle

>  <origin>  (88) 
adg

>  <m_score__min__energy>  (88) 
-8.4700000000000006

>  <m_primary>  (88) 
energy

$$$$
88:0
     RDKit          3D

 51 53  0  0  0  0  0  0  0  0999 V2000
  142.1120  152.9720  134.9690 C   0  0  0  0  0  0  0  0  0  0  0  0
  141.8480  152.6400  133.4780 C   0  0  0  0  0  0  0  0  0  0  0  0
  143.0830  153.0700  132.6420 C   0  0  0  0  0  0  0  0  0  0  0  0
  140.6470  153.5060  132.9950 C   0  0  0  0  0  0  0  0  0  0  0  0
  140.7460  154.8700  133.5110 N   0  0  0  0  0  0  0  0  0  0  0  0
  139.8850  155.9490  133.1330 C   0  0  0  0  0  0  0  0  0  0  0  0
  138.9650  155.7570  132.2920 O   0  0  0  0  0  0  0  0  0  0  0  0
  140.0700  157.2540  133.7100 N   0  0  0  0  0  0  0  0  0  0  0  0
  139.9960  158.4560  133.0720 C   0  0  0  0  0  0  0  0  0  0  0  0
  139.5500  158.6730  131.6810 C   0  0  0  0  0  0  0  0  0  0  0  0
  138.3760  158.0390  131.1720 N   0  0  0  0  0  0  0  0  0  0  0  0
  140.1850  159.4770  130.9460 O   0  0  0  0  0  0  0  0  0  0  0  0
  140.3600  159.4930  133.9260 C   0  0  0  0  0  0  0  0  0  0  0  0
  140.6460  158.8870  135.1280 C   0  0  0  0  0  0  0  0  0  0  0  0
  141.0830  159.4470  136.3240 C   0  0  0  0  0  0  0  0  0  0  0  0
  141.3460  158.5820  137.3980 C   0  0  0  0  0  0  0  0  0  0  0  0
  141.1630  157.1810  137.2640 C   0  0  0  0  0  0  0  0  0  0  0  0
  141.5060  156.2520  138.4010 C   0  0  0  0  0  0  0  0  0  0  0  0
  140.3710  155.6050  138.8580 F   0  0  0  0  0  0  0  0  0  0  0  0
  142.4160  155.3110  137.9610 F   0  0  0  0  0  0  0  0  0  0  0  0
  142.0590  156.9530  139.4590 F   0  0  0  0  0  0  0  0  0  0  0  0
  140.7470  156.6490  136.0220 C   0  0  0  0  0  0  0  0  0  0  0  0
  140.4650  157.5360  134.9730 C   0  0  0  0  0  0  0  0  0  0  0  0
  141.5770  151.1760  133.2670 N   0  0  0  0  0  0  0  0  0  0  0  0
  140.2340  150.8340  132.7240 C   0  0  0  0  0  0  0  0  0  0  0  0
  140.3180  150.2280  131.3120 C   0  0  0  0  0  0  0  0  0  0  0  0
  141.0960  149.0420  131.2510 O   0  0  0  0  0  0  0  0  0  0  0  0
  142.1790  149.0220  132.1720 C   0  0  0  0  0  0  0  0  0  0  0  0
  142.6650  150.4170  132.6010 C   0  0  0  0  0  0  0  0  0  0  0  0
  141.5536  152.2698  135.6054 H   0  0  0  0  0  0  0  0  0  0  0  0
  143.1879  152.8819  135.1798 H   0  0  0  0  0  0  0  0  0  0  0  0
  141.7819  153.9999  135.1798 H   0  0  0  0  0  0  0  0  0  0  0  0
  143.9023  153.3553  133.3183 H   0  0  0  0  0  0  0  0  0  0  0  0
  143.4063  152.2316  132.0076 H   0  0  0  0  0  0  0  0  0  0  0  0
  142.8156  153.9280  132.0076 H   0  0  0  0  0  0  0  0  0  0  0  0
  140.6442  153.5363  131.8954 H   0  0  0  0  0  0  0  0  0  0  0  0
  139.7160  153.0555  133.3696 H   0  0  0  0  0  0  0  0  0  0  0  0
  138.0990  158.1710  130.1750 H   0  0  0  0  0  0  0  0  0  0  0  0
  137.7370  157.5070  131.8020 H   0  0  0  0  0  0  0  0  0  0  0  0
  140.4086  160.5664  133.6907 H   0  0  0  0  0  0  0  0  0  0  0  0
  141.2183  160.5340  136.4251 H   0  0  0  0  0  0  0  0  0  0  0  0
  141.6981  158.9950  138.3548 H   0  0  0  0  0  0  0  0  0  0  0  0
  140.6467  155.5626  135.8815 H   0  0  0  0  0  0  0  0  0  0  0  0
  139.7551  150.1055  133.3948 H   0  0  0  0  0  0  0  0  0  0  0  0
  139.6479  151.7626  132.6599 H   0  0  0  0  0  0  0  0  0  0  0  0
  139.2984  149.9936  130.9723 H   0  0  0  0  0  0  0  0  0  0  0  0
  140.8107  150.9721  130.6689 H   0  0  0  0  0  0  0  0  0  0  0  0
  141.8574  148.4766  133.0715 H   0  0  0  0  0  0  0  0  0  0  0  0
  143.0223  148.5363  131.6592 H   0  0  0  0  0  0  0  0  0  0  0  0
  143.5067  150.3057  133.3004 H   0  0  0  0  0  0  0  0  0  0  0  0
  142.9809  150.9700  131.7041 H   0  0  0  0  0  0  0  0  0  0  0  0
  1  2  1  0
  2  3  1  0
  2  4  1  0
  4  5  1  0
  5  6  1  0
  6  7  2  0
  6  8  1  0
  8  9  1  0
  9 10  1  0
 10 11  1  0
 10 12  2  0
  9 13  2  0
 13 14  1  0
 14 15  2  0
 15 16  1  0
 16 17  2  0
 17 18  1  0
 18 19  1  0
 18 20  1  0
 18 21  1  0
 17 22  1  0
 22 23  2  0
  2 24  1  0
 24 25  1  0
 25 26  1  0
 26 27  1  0
 27 28  1  0
 28 29  1  0
 23  8  1  0
 29 24  1  0
 23 14  1  0
  1 30  1  0
  1 31  1  0
  1 32  1  0
  3 33  1  0
  3 34  1  0
  3 35  1  0
  4 36  1  0
  4 37  1  0
 11 38  1  0
 11 39  1  0
 13 40  1  0
 15 41  1  0
 16 42  1  0
 22 43  1  0
 25 44  1  0
 25 45  1  0
 26 46  1  0
 26 47  1  0
 28 48  1  0
 28 49  1  0
 29 50  1  0
 29 51  1  0
M  CHG  1   5  -1
M  END
>  <UniqueID>  (89) 
89

>  <SMILES>  (89) 
CC(C)(C[N-]C(=O)n1c(C(N)=O)cc2ccc(C(F)(F)F)cc21)N1CCOCC1

>  <Energy>  (89) 
111.69724341448283

>  <Genealogy>  (89) 
CC(C)(C[N-]C(=O)n1c(C(N)=O)cc2ccc(C(F)(F)F)cc21)N1CCOCC1 (protonated)
CC(C)(C[N-]C(=O)n1c(C(N)=O)cc2ccc(C(F)(F)F)cc21)N1CCOCC1 (3D coordinates assigned)
CC(C)(C[N-]C(=O)n1c(C(N)=O)cc2ccc(C(F)(F)F)cc21)N1CCOCC1 (nonaromatic ring conformer: 111.69724341448283 kcal/mol)

>  <smiles>  (89) 
CC(C)(CNC(=O)n1c(C(N)=O)cc2ccc(C(F)(F)F)cc21)N1CCOCC1

>  <score_type>  (89) 
oracle

>  <origin>  (89) 
adg

>  <m_score__min__energy>  (89) 
-8.3800000000000008

>  <m_primary>  (89) 
energy

$$$$
89:0
     RDKit          3D

 38 39  0  0  0  0  0  0  0  0999 V2000
  150.5640  150.3590  130.6630 C   0  0  0  0  0  0  0  0  0  0  0  0
  149.5490  150.8840  131.3480 C   0  0  0  0  0  0  0  0  0  0  0  0
  149.7440  151.7410  132.5410 C   0  0  0  0  0  0  0  0  0  0  0  0
  149.7900  151.1770  133.7480 C   0  0  0  0  0  0  0  0  0  0  0  0
  149.8440  153.1730  132.4340 N   0  0  0  0  0  0  0  0  0  0  0  0
  148.7490  154.0760  132.6710 C   0  0  0  0  0  0  0  0  0  0  0  0
  147.4660  153.5480  132.9560 C   0  0  0  0  0  0  0  0  0  0  0  0
  146.3760  154.3970  133.2110 C   0  0  0  0  0  0  0  0  0  0  0  0
  146.6010  155.7710  133.1830 C   0  0  0  0  0  0  0  0  0  0  0  0
  145.7380  156.8190  133.4150 C   0  0  0  0  0  0  0  0  0  0  0  0
  146.5090  157.9730  133.2720 C   0  0  0  0  0  0  0  0  0  0  0  0
  145.9810  159.3530  133.3590 C   0  0  0  0  0  0  0  0  0  0  0  0
  146.7820  160.4730  132.9720 N   0  0  0  0  0  0  0  0  0  0  0  0
  144.8180  159.5560  133.7950 O   0  0  0  0  0  0  0  0  0  0  0  0
  147.7950  157.6450  132.9650 N   0  0  0  0  0  0  0  0  0  0  0  0
  148.9140  158.5260  132.7920 C   0  0  0  0  0  0  0  0  0  0  0  0
  149.2390  159.3110  133.7220 O   0  0  0  0  0  0  0  0  0  0  0  0
  149.6170  158.6080  131.4730 C   0  0  0  0  0  0  0  0  0  0  0  0
  149.1010  160.1110  130.5910 P   0  0  0  0  0  0  0  0  0  0  0  0
  149.7450  160.1460  129.2240 O   0  0  0  0  0  0  0  0  0  0  0  0
  149.5830  161.4700  131.4730 O   0  0  0  0  0  0  0  0  0  0  0  0
  147.4180  160.1210  130.4200 O   0  0  0  0  0  0  0  0  0  0  0  0
  147.8340  156.2970  132.9100 C   0  0  0  0  0  0  0  0  0  0  0  0
  148.9390  155.4790  132.6640 C   0  0  0  0  0  0  0  0  0  0  0  0
  150.3663  149.7287  129.7834 H   0  0  0  0  0  0  0  0  0  0  0  0
  151.5997  150.5558  130.9770 H   0  0  0  0  0  0  0  0  0  0  0  0
  148.5226  150.6723  131.0138 H   0  0  0  0  0  0  0  0  0  0  0  0
  149.9343  151.8017  134.6418 H   0  0  0  0  0  0  0  0  0  0  0  0
  149.6837  150.0869  133.8501 H   0  0  0  0  0  0  0  0  0  0  0  0
  150.7430  153.5750  132.0820 H   0  0  0  0  0  0  0  0  0  0  0  0
  147.3209  152.4578  132.9780 H   0  0  0  0  0  0  0  0  0  0  0  0
  145.3771  153.9895  133.4258 H   0  0  0  0  0  0  0  0  0  0  0  0
  144.6675  156.7589  133.6609 H   0  0  0  0  0  0  0  0  0  0  0  0
  147.7290  160.3470  132.5520 H   0  0  0  0  0  0  0  0  0  0  0  0
  146.4060  161.4410  133.0680 H   0  0  0  0  0  0  0  0  0  0  0  0
  150.7039  158.6378  131.6400 H   0  0  0  0  0  0  0  0  0  0  0  0
  149.3583  157.7260  130.8687 H   0  0  0  0  0  0  0  0  0  0  0  0
  149.9308  155.9134  132.4699 H   0  0  0  0  0  0  0  0  0  0  0  0
  1  2  2  0
  2  3  1  0
  3  4  2  0
  3  5  1  0
  5  6  1  0
  6  7  2  0
  7  8  1  0
  8  9  2  0
  9 10  1  0
 10 11  2  0
 11 12  1  0
 12 13  1  0
 12 14  2  0
 11 15  1  0
 15 16  1  0
 16 17  2  0
 16 18  1  0
 18 19  1  0
 19 20  2  0
 19 21  1  0
 19 22  1  0
 15 23  1  0
 23 24  2  0
 24  6  1  0
 23  9  1  0
  1 25  1  0
  1 26  1  0
  2 27  1  0
  4 28  1  0
  4 29  1  0
  5 30  1  0
  7 31  1  0
  8 32  1  0
 10 33  1  0
 13 34  1  0
 13 35  1  0
 18 36  1  0
 18 37  1  0
 24 38  1  0
M  CHG  2  21  -1  22  -1
M  END
>  <UniqueID>  (90) 
90

>  <SMILES>  (90) 
C=CC(=C)Nc1ccc2cc(C(N)=O)n(C(=O)CP(=O)([O-])[O-])c2c1

>  <Energy>  (90) 
75.350193163743

>  <Genealogy>  (90) 
C=CC(=C)Nc1ccc2cc(C(N)=O)n(C(=O)CP(=O)([O-])[O-])c2c1 (protonated)
C=CC(=C)Nc1ccc2cc(C(N)=O)n(C(=O)CP(=O)([O-])[O-])c2c1 (3D coordinates assigned)
C=CC(=C)Nc1ccc2cc(C(N)=O)n(C(=O)CP(=O)([O-])[O-])c2c1 (optimized conformer: 75.350193163743 kcal/mol)

>  <smiles>  (90) 
C=CC(=C)Nc1ccc2cc(C(N)=O)n(C(=O)CP(=O)(O)O)c2c1

>  <score_type>  (90) 
oracle

>  <origin>  (90) 
adg

>  <m_score__min__energy>  (90) 
-7.79

>  <m_primary>  (90) 
energy

$$$$
90:0
     RDKit          3D

 31 32  0  0  0  0  0  0  0  0999 V2000
  146.5530  161.2140  133.7590 N   0  0  0  0  0  0  0  0  0  0  0  0
  145.6280  160.1670  133.4800 C   0  0  0  0  0  0  0  0  0  0  0  0
  144.4180  160.4520  133.2770 O   0  0  0  0  0  0  0  0  0  0  0  0
  146.0750  158.7620  133.3910 C   0  0  0  0  0  0  0  0  0  0  0  0
  145.2500  157.6680  133.6470 C   0  0  0  0  0  0  0  0  0  0  0  0
  146.0250  156.5580  133.3930 C   0  0  0  0  0  0  0  0  0  0  0  0
  145.7200  155.2040  133.4960 C   0  0  0  0  0  0  0  0  0  0  0  0
  146.7300  154.2760  133.1900 C   0  0  0  0  0  0  0  0  0  0  0  0
  148.0200  154.7150  132.7950 C   0  0  0  0  0  0  0  0  0  0  0  0
  149.0990  153.7190  132.4790 C   0  0  0  0  0  0  0  0  0  0  0  0
  149.2530  152.8450  133.5390 F   0  0  0  0  0  0  0  0  0  0  0  0
  150.2930  154.3820  132.2570 F   0  0  0  0  0  0  0  0  0  0  0  0
  148.2930  156.0970  132.7030 C   0  0  0  0  0  0  0  0  0  0  0  0
  147.2640  156.9950  133.0020 C   0  0  0  0  0  0  0  0  0  0  0  0
  147.3100  158.3420  132.9990 N   0  0  0  0  0  0  0  0  0  0  0  0
  148.4670  159.1410  132.7180 C   0  0  0  0  0  0  0  0  0  0  0  0
  148.7810  160.0800  133.4980 O   0  0  0  0  0  0  0  0  0  0  0  0
  149.2260  158.9510  131.4410 C   0  0  0  0  0  0  0  0  0  0  0  0
  148.9480  160.0960  130.5170 C   0  0  0  0  0  0  0  0  0  0  0  0
  148.1460  161.1950  130.9500 N   0  0  0  0  0  0  0  0  0  0  0  0
  149.3850  160.0680  129.3360 O   0  0  0  0  0  0  0  0  0  0  0  0
  147.2340  161.5370  133.0360 H   0  0  0  0  0  0  0  0  0  0  0  0
  144.2021  157.6871  133.9811 H   0  0  0  0  0  0  0  0  0  0  0  0
  144.7191  154.8704  133.8074 H   0  0  0  0  0  0  0  0  0  0  0  0
  146.5183  153.1987  133.2574 H   0  0  0  0  0  0  0  0  0  0  0  0
  148.8164  153.1558  131.5773 H   0  0  0  0  0  0  0  0  0  0  0  0
  149.2883  156.4575  132.4042 H   0  0  0  0  0  0  0  0  0  0  0  0
  150.3035  158.9090  131.6582 H   0  0  0  0  0  0  0  0  0  0  0  0
  148.9099  158.0115  130.9642 H   0  0  0  0  0  0  0  0  0  0  0  0
  147.9400  161.9840  130.2990 H   0  0  0  0  0  0  0  0  0  0  0  0
  147.7580  161.2240  131.9180 H   0  0  0  0  0  0  0  0  0  0  0  0
  1  2  1  0
  2  3  2  0
  2  4  1  0
  4  5  2  0
  5  6  1  0
  6  7  2  0
  7  8  1  0
  8  9  2  0
  9 10  1  0
 10 11  1  0
 10 12  1  0
  9 13  1  0
 13 14  2  0
 14 15  1  0
 15 16  1  0
 16 17  2  0
 16 18  1  0
 18 19  1  0
 19 20  1  0
 19 21  2  0
 15  4  1  0
 14  6  1  0
  1 22  1  0
  5 23  1  0
  7 24  1  0
  8 25  1  0
 10 26  1  0
 13 27  1  0
 18 28  1  0
 18 29  1  0
 20 30  1  0
 20 31  1  0
M  CHG  1   1  -1
M  END
>  <UniqueID>  (91) 
91

>  <SMILES>  (91) 
[NH-]C(=O)c1cc2ccc(C(F)F)cc2n1C(=O)CC(N)=O

>  <Energy>  (91) 
67.10102912787558

>  <Genealogy>  (91) 
[NH-]C(=O)c1cc2ccc(C(F)F)cc2n1C(=O)CC(N)=O (protonated)
[NH-]C(=O)c1cc2ccc(C(F)F)cc2n1C(=O)CC(N)=O (3D coordinates assigned)
[NH-]C(=O)c1cc2ccc(C(F)F)cc2n1C(=O)CC(N)=O (optimized conformer: 67.10102912787558 kcal/mol)

>  <smiles>  (91) 
NC(=O)CC(=O)n1c(C(N)=O)cc2ccc(C(F)F)cc21

>  <score_type>  (91) 
oracle

>  <origin>  (91) 
adg

>  <m_score__min__energy>  (91) 
-6.1799999999999997

>  <m_primary>  (91) 
energy

$$$$
91:0
     RDKit          3D

 40 42  0  0  0  0  0  0  0  0999 V2000
  139.4780  157.1080  134.2090 C   0  0  0  0  0  0  0  0  0  0  0  0
  140.6200  157.7370  134.5090 C   0  0  0  0  0  0  0  0  0  0  0  0
  141.5730  158.1580  133.4520 C   0  0  0  0  0  0  0  0  0  0  0  0
  141.2120  158.9990  132.5860 O   0  0  0  0  0  0  0  0  0  0  0  0
  142.9110  157.6370  133.4000 N   0  0  0  0  0  0  0  0  0  0  0  0
  144.0710  158.3340  133.5410 C   0  0  0  0  0  0  0  0  0  0  0  0
  144.1890  159.8050  133.6110 C   0  0  0  0  0  0  0  0  0  0  0  0
  143.0960  160.6180  134.0430 N   0  0  0  0  0  0  0  0  0  0  0  0
  145.2600  160.3580  133.2460 O   0  0  0  0  0  0  0  0  0  0  0  0
  145.1560  157.4650  133.6240 C   0  0  0  0  0  0  0  0  0  0  0  0
  144.6180  156.2010  133.5300 C   0  0  0  0  0  0  0  0  0  0  0  0
  145.2350  154.9560  133.5970 C   0  0  0  0  0  0  0  0  0  0  0  0
  144.4200  153.8120  133.5320 C   0  0  0  0  0  0  0  0  0  0  0  0
  143.0120  153.9290  133.3970 C   0  0  0  0  0  0  0  0  0  0  0  0
  142.1440  152.6980  133.3910 C   0  0  0  0  0  0  0  0  0  0  0  0
  141.0250  152.9320  132.6140 F   0  0  0  0  0  0  0  0  0  0  0  0
  142.8350  151.6150  132.8720 F   0  0  0  0  0  0  0  0  0  0  0  0
  141.7420  152.3790  134.6770 F   0  0  0  0  0  0  0  0  0  0  0  0
  142.4210  155.2140  133.3630 C   0  0  0  0  0  0  0  0  0  0  0  0
  143.2600  156.3330  133.4050 C   0  0  0  0  0  0  0  0  0  0  0  0
  140.9310  158.0070  135.9250 C   0  0  0  0  0  0  0  0  0  0  0  0
  141.2060  157.1090  136.8700 C   0  0  0  0  0  0  0  0  0  0  0  0
  141.2690  155.6270  136.6610 C   0  0  0  0  0  0  0  0  0  0  0  0
  141.5450  157.7840  138.1740 C   0  0  0  0  0  0  0  0  0  0  0  0
  141.4470  159.2130  137.8860 N   0  0  0  0  0  0  0  0  0  0  0  0
  141.0820  159.3140  136.5210 C   0  0  0  0  0  0  0  0  0  0  0  0
  140.9140  160.4100  135.9260 O   0  0  0  0  0  0  0  0  0  0  0  0
  138.7888  156.8066  135.0116 H   0  0  0  0  0  0  0  0  0  0  0  0
  139.2282  156.8922  133.1597 H   0  0  0  0  0  0  0  0  0  0  0  0
  142.1370  160.2210  134.1520 H   0  0  0  0  0  0  0  0  0  0  0  0
  143.2220  161.6480  134.1500 H   0  0  0  0  0  0  0  0  0  0  0  0
  146.2169  157.7316  133.7399 H   0  0  0  0  0  0  0  0  0  0  0  0
  146.3269  154.8691  133.6977 H   0  0  0  0  0  0  0  0  0  0  0  0
  144.8794  152.8140  133.5864 H   0  0  0  0  0  0  0  0  0  0  0  0
  141.3287  155.3305  133.3050 H   0  0  0  0  0  0  0  0  0  0  0  0
  141.2906  155.1197  137.6368 H   0  0  0  0  0  0  0  0  0  0  0  0
  140.3840  155.2984  136.0964 H   0  0  0  0  0  0  0  0  0  0  0  0
  142.1787  155.3747  136.0964 H   0  0  0  0  0  0  0  0  0  0  0  0
  140.8291  157.4959  138.9579 H   0  0  0  0  0  0  0  0  0  0  0  0
  142.5415  157.5005  138.5437 H   0  0  0  0  0  0  0  0  0  0  0  0
  1  2  2  0
  2  3  1  0
  3  4  2  0
  3  5  1  0
  5  6  1  0
  6  7  1  0
  7  8  1  0
  7  9  2  0
  6 10  2  0
 10 11  1  0
 11 12  2  0
 12 13  1  0
 13 14  2  0
 14 15  1  0
 15 16  1  0
 15 17  1  0
 15 18  1  0
 14 19  1  0
 19 20  2  0
  2 21  1  0
 21 22  2  0
 22 23  1  0
 22 24  1  0
 24 25  1  0
 25 26  1  0
 26 27  2  0
 20  5  1  0
 26 21  1  0
 20 11  1  0
  1 28  1  0
  1 29  1  0
  8 30  1  0
  8 31  1  0
 10 32  1  0
 12 33  1  0
 13 34  1  0
 19 35  1  0
 23 36  1  0
 23 37  1  0
 23 38  1  0
 24 39  1  0
 24 40  1  0
M  CHG  1  25  -1
M  END
>  <UniqueID>  (92) 
92

>  <SMILES>  (92) 
C=C(C(=O)n1c(C(N)=O)cc2ccc(C(F)(F)F)cc21)C1=C(C)C[N-]C1=O

>  <Energy>  (92) 
103.96881686820437

>  <Genealogy>  (92) 
C=C(C(=O)n1c(C(N)=O)cc2ccc(C(F)(F)F)cc21)C1=C(C)C[N-]C1=O (protonated)
C=C(C(=O)n1c(C(N)=O)cc2ccc(C(F)(F)F)cc21)C1=C(C)C[N-]C1=O (3D coordinates assigned)
C=C(C(=O)n1c(C(N)=O)cc2ccc(C(F)(F)F)cc21)C1=C(C)C[N-]C1=O (nonaromatic ring conformer: 103.96881686820437 kcal/mol)

>  <smiles>  (92) 
C=C(C(=O)n1c(C(N)=O)cc2ccc(C(F)(F)F)cc21)C1=C(C)CNC1=O

>  <score_type>  (92) 
oracle

>  <origin>  (92) 
adg

>  <m_score__min__energy>  (92) 
-7.2999999999999998

>  <m_primary>  (92) 
energy

$$$$
92:0
     RDKit          3D

 36 37  0  0  0  0  0  0  0  0999 V2000
  142.7030  160.0950  133.3690 N   0  0  0  0  0  0  0  0  0  0  0  0
  144.0530  160.3880  133.7230 C   0  0  0  0  0  0  0  0  0  0  0  0
  144.3240  161.4920  134.2650 O   0  0  0  0  0  0  0  0  0  0  0  0
  145.1200  159.4080  133.4340 C   0  0  0  0  0  0  0  0  0  0  0  0
  146.4690  159.7370  133.3170 C   0  0  0  0  0  0  0  0  0  0  0  0
  147.1220  158.5400  133.1240 C   0  0  0  0  0  0  0  0  0  0  0  0
  148.4750  158.2720  132.9450 C   0  0  0  0  0  0  0  0  0  0  0  0
  148.8630  156.9340  132.7570 C   0  0  0  0  0  0  0  0  0  0  0  0
  147.8950  155.8960  132.7420 C   0  0  0  0  0  0  0  0  0  0  0  0
  148.3220  154.4620  132.5700 C   0  0  0  0  0  0  0  0  0  0  0  0
  147.6020  153.5430  133.5610 C   0  0  0  0  0  0  0  0  0  0  0  0
  146.3360  153.0690  133.0040 N   0  0  0  0  0  0  0  0  0  0  0  0
  146.5310  156.2070  132.9370 C   0  0  0  0  0  0  0  0  0  0  0  0
  146.1790  157.5460  133.1290 C   0  0  0  0  0  0  0  0  0  0  0  0
  144.9480  158.0630  133.3140 N   0  0  0  0  0  0  0  0  0  0  0  0
  143.7180  157.3270  133.3110 C   0  0  0  0  0  0  0  0  0  0  0  0
  142.8770  157.5190  132.3930 O   0  0  0  0  0  0  0  0  0  0  0  0
  143.3740  156.4210  134.4520 C   0  0  0  0  0  0  0  0  0  0  0  0
  143.3940  154.6930  133.8880 P   0  0  2  0  0  0  0  0  0  0  0  0
  142.0420  154.0680  134.1420 O   0  0  0  0  0  0  0  0  0  0  0  0
  144.5770  153.8350  134.7400 O   0  0  0  0  0  0  0  0  0  0  0  0
  143.7330  154.6430  132.2300 O   0  0  0  0  0  0  0  0  0  0  0  0
  142.4730  159.6360  132.4600 H   0  0  0  0  0  0  0  0  0  0  0  0
  146.9173  160.7402  133.3680 H   0  0  0  0  0  0  0  0  0  0  0  0
  149.2188  159.0824  132.9504 H   0  0  0  0  0  0  0  0  0  0  0  0
  149.9267  156.6892  132.6202 H   0  0  0  0  0  0  0  0  0  0  0  0
  148.0862  154.1386  131.5454 H   0  0  0  0  0  0  0  0  0  0  0  0
  149.4035  154.3972  132.7600 H   0  0  0  0  0  0  0  0  0  0  0  0
  148.2445  152.6782  133.7831 H   0  0  0  0  0  0  0  0  0  0  0  0
  147.3925  154.1104  134.4798 H   0  0  0  0  0  0  0  0  0  0  0  0
  145.8990  152.4280  133.7060 H   0  0  0  0  0  0  0  0  0  0  0  0
  145.6930  153.8900  132.9090 H   0  0  0  0  0  0  0  0  0  0  0  0
  145.7661  155.4164  132.9377 H   0  0  0  0  0  0  0  0  0  0  0  0
  144.1113  156.5514  135.2578 H   0  0  0  0  0  0  0  0  0  0  0  0
  142.3703  156.6709  134.8264 H   0  0  0  0  0  0  0  0  0  0  0  0
  143.2350  155.4110  131.8480 H   0  0  0  0  0  0  0  0  0  0  0  0
  1  2  1  0
  2  3  2  0
  2  4  1  0
  4  5  2  0
  5  6  1  0
  6  7  2  0
  7  8  1  0
  8  9  2  0
  9 10  1  0
 10 11  1  0
 11 12  1  0
  9 13  1  0
 13 14  2  0
 14 15  1  0
 15 16  1  0
 16 17  2  0
 16 18  1  0
 18 19  1  0
 19 20  2  0
 19 21  1  1
 19 22  1  0
 15  4  1  0
 14  6  1  0
  1 23  1  0
  5 24  1  0
  7 25  1  0
  8 26  1  0
 10 27  1  0
 10 28  1  0
 11 29  1  0
 11 30  1  0
 12 31  1  0
 12 32  1  0
 13 33  1  0
 18 34  1  0
 18 35  1  0
 22 36  1  0
M  CHG  2   1  -1  21  -1
M  END
>  <UniqueID>  (93) 
93

>  <SMILES>  (93) 
[NH-]C(=O)c1cc2ccc(CCN)cc2n1C(=O)C[P@](=O)([O-])O

>  <Energy>  (93) 
64.7931942441113

>  <Genealogy>  (93) 
[NH-]C(=O)c1cc2ccc(CCN)cc2n1C(=O)CP(=O)([O-])O (protonated)
[NH-]C(=O)c1cc2ccc(CCN)cc2n1C(=O)C[P@](=O)([O-])O (chirality)
[NH-]C(=O)c1cc2ccc(CCN)cc2n1C(=O)C[P@](=O)([O-])O (3D coordinates assigned)
[NH-]C(=O)c1cc2ccc(CCN)cc2n1C(=O)C[P@](=O)([O-])O (optimized conformer: 64.7931942441113 kcal/mol)

>  <smiles>  (93) 
NCCc1ccc2cc(C(N)=O)n(C(=O)CP(=O)(O)O)c2c1

>  <score_type>  (93) 
oracle

>  <origin>  (93) 
adg

>  <m_score__min__energy>  (93) 
-6.1900000000000004

>  <m_primary>  (93) 
energy

$$$$
93:0
     RDKit          3D

 58 59  0  0  0  0  0  0  0  0999 V2000
  143.4430  152.5040  132.9290 C   0  0  0  0  0  0  0  0  0  0  0  0
  144.2720  153.3090  133.7450 O   0  0  0  0  0  0  0  0  0  0  0  0
  143.6640  154.5170  134.0460 N   0  0  1  0  0  0  0  0  0  0  0  0
  143.8690  154.7940  135.4650 C   0  0  0  0  0  0  0  0  0  0  0  0
  144.9890  155.2390  135.8250 O   0  0  0  0  0  0  0  0  0  0  0  0
  142.9260  154.4290  136.4970 N   0  0  0  0  0  0  0  0  0  0  0  0
  141.8850  155.3910  136.7920 C   0  0  0  0  0  0  0  0  0  0  0  0
  140.9180  155.0700  137.5440 O   0  0  0  0  0  0  0  0  0  0  0  0
  141.9370  156.6880  136.2360 O   0  0  0  0  0  0  0  0  0  0  0  0
  141.2190  157.8310  136.7610 C   0  0  0  0  0  0  0  0  0  0  0  0
  141.7930  159.1730  136.2160 C   0  0  0  0  0  0  0  0  0  0  0  0
  141.3800  157.8070  138.2990 C   0  0  0  0  0  0  0  0  0  0  0  0
  139.7160  157.7090  136.3970 C   0  0  0  0  0  0  0  0  0  0  0  0
  142.6730  152.9840  136.7960 C   0  0  1  0  0  0  0  0  0  0  0  0
  142.2740  152.7560  138.2690 C   0  0  0  0  0  0  0  0  0  0  0  0
  141.6980  152.3600  135.8360 C   0  0  0  0  0  0  0  0  0  0  0  0
  141.3910  152.9840  134.7830 O   0  0  0  0  0  0  0  0  0  0  0  0
  141.0080  151.1860  136.1540 O   0  0  0  0  0  0  0  0  0  0  0  0
  144.2220  155.4910  133.1410 C   0  0  0  0  0  0  0  0  0  0  0  0
  144.6770  155.1460  132.0200 O   0  0  0  0  0  0  0  0  0  0  0  0
  143.9940  156.9020  133.3590 N   0  0  0  0  0  0  0  0  0  0  0  0
  142.7850  157.5290  133.3330 C   0  0  0  0  0  0  0  0  0  0  0  0
  141.4560  156.8800  133.2590 C   0  0  0  0  0  0  0  0  0  0  0  0
  141.2650  155.5240  133.6590 N   0  0  0  0  0  0  0  0  0  0  0  0
  140.4660  157.5570  132.8660 O   0  0  0  0  0  0  0  0  0  0  0  0
  142.9430  158.9120  133.3820 C   0  0  0  0  0  0  0  0  0  0  0  0
  144.2950  159.1190  133.4270 C   0  0  0  0  0  0  0  0  0  0  0  0
  145.0080  160.3130  133.4010 C   0  0  0  0  0  0  0  0  0  0  0  0
  146.4060  160.2380  133.3540 C   0  0  0  0  0  0  0  0  0  0  0  0
  147.0720  158.9790  133.3490 C   0  0  0  0  0  0  0  0  0  0  0  0
  148.5660  158.9330  133.2060 C   0  0  0  0  0  0  0  0  0  0  0  0
  148.9700  157.7560  132.6040 F   0  0  0  0  0  0  0  0  0  0  0  0
  149.1710  159.0300  134.4520 F   0  0  0  0  0  0  0  0  0  0  0  0
  148.9870  160.0060  132.4440 F   0  0  0  0  0  0  0  0  0  0  0  0
  146.3090  157.7790  133.3510 C   0  0  0  0  0  0  0  0  0  0  0  0
  144.9160  157.8850  133.4140 C   0  0  0  0  0  0  0  0  0  0  0  0
  142.7989  151.8786  133.5647 H   0  0  0  0  0  0  0  0  0  0  0  0
  142.8170  153.1481  132.2939 H   0  0  0  0  0  0  0  0  0  0  0  0
  144.0684  151.8594  132.2939 H   0  0  0  0  0  0  0  0  0  0  0  0
  142.6390  154.4890  133.8780 H   0  0  0  0  0  0  0  0  0  0  0  0
  142.0707  159.8224  137.0593 H   0  0  0  0  0  0  0  0  0  0  0  0
  142.6825  158.9689  135.6020 H   0  0  0  0  0  0  0  0  0  0  0  0
  141.0310  159.6753  135.6020 H   0  0  0  0  0  0  0  0  0  0  0  0
  140.3981  157.9533  138.7728 H   0  0  0  0  0  0  0  0  0  0  0  0
  141.7959  156.8370  138.6090 H   0  0  0  0  0  0  0  0  0  0  0  0
  142.0606  158.6137  138.6090 H   0  0  0  0  0  0  0  0  0  0  0  0
  139.1182  157.6605  137.3191 H   0  0  0  0  0  0  0  0  0  0  0  0
  139.4094  158.5852  135.8069 H   0  0  0  0  0  0  0  0  0  0  0  0
  139.5547  156.7948  135.8069 H   0  0  0  0  0  0  0  0  0  0  0  0
  143.6296  152.4623  136.6449 H   0  0  0  0  0  0  0  0  0  0  0  0
  143.0388  153.1930  138.9279 H   0  0  0  0  0  0  0  0  0  0  0  0
  141.3038  153.2360  138.4646 H   0  0  0  0  0  0  0  0  0  0  0  0
  142.1950  151.6764  138.4646 H   0  0  0  0  0  0  0  0  0  0  0  0
  141.6080  155.1860  134.5860 H   0  0  0  0  0  0  0  0  0  0  0  0
  142.1504  159.6748  133.3841 H   0  0  0  0  0  0  0  0  0  0  0  0
  144.4912  161.2839  133.4168 H   0  0  0  0  0  0  0  0  0  0  0  0
  146.9979  161.1646  133.3205 H   0  0  0  0  0  0  0  0  0  0  0  0
  146.8003  156.7959  133.3043 H   0  0  0  0  0  0  0  0  0  0  0  0
  1  2  1  0
  2  3  1  0
  3  4  1  0
  4  5  2  0
  4  6  1  0
  6  7  1  0
  7  8  2  0
  7  9  1  0
  9 10  1  0
 10 11  1  0
 10 12  1  0
 10 13  1  0
  6 14  1  0
 14 15  1  0
 14 16  1  0
 16 17  2  0
 16 18  1  0
  3 19  1  0
 19 20  2  0
 19 21  1  0
 21 22  1  0
 22 23  1  0
 23 24  1  0
 23 25  2  0
 22 26  2  0
 26 27  1  0
 27 28  2  0
 28 29  1  0
 29 30  2  0
 30 31  1  0
 31 32  1  0
 31 33  1  0
 31 34  1  0
 30 35  1  0
 35 36  2  0
 36 21  1  0
 36 27  1  0
  1 37  1  0
  1 38  1  0
  1 39  1  0
  3 40  1  1
 11 41  1  0
 11 42  1  0
 11 43  1  0
 12 44  1  0
 12 45  1  0
 12 46  1  0
 13 47  1  0
 13 48  1  0
 13 49  1  0
 14 50  1  1
 15 51  1  0
 15 52  1  0
 15 53  1  0
 24 54  1  0
 26 55  1  0
 28 56  1  0
 29 57  1  0
 35 58  1  0
M  CHG  3   3   1  18  -1  24  -1
M  END
>  <UniqueID>  (94) 
94

>  <SMILES>  (94) 
CO[NH+](C(=O)N(C(=O)OC(C)(C)C)C(C)C(=O)[O-])C(=O)n1c(C([NH-])=O)cc2ccc(C(F)(F)F)cc21

>  <Energy>  (94) 
122.75860638368044

>  <Genealogy>  (94) 
CO[NH+](C(=O)N(C(=O)OC(C)(C)C)C(C)C(=O)[O-])C(=O)n1c(C([NH-])=O)cc2ccc(C(F)(F)F)cc21 (protonated)
CO[NH+](C(=O)N(C(=O)OC(C)(C)C)C(C)C(=O)[O-])C(=O)n1c(C([NH-])=O)cc2ccc(C(F)(F)F)cc21 (3D coordinates assigned)
CO[NH+](C(=O)N(C(=O)OC(C)(C)C)C(C)C(=O)[O-])C(=O)n1c(C([NH-])=O)cc2ccc(C(F)(F)F)cc21 (optimized conformer: 122.75860638368044 kcal/mol)

>  <smiles>  (94) 
CON(C(=O)N(C(=O)OC(C)(C)C)C(C)C(=O)O)C(=O)n1c(C(N)=O)cc2ccc(C(F)(F)F)cc21

>  <score_type>  (94) 
oracle

>  <origin>  (94) 
adg

>  <m_score__min__energy>  (94) 
-7.1600000000000001

>  <m_primary>  (94) 
energy

$$$$
94:0
     RDKit          3D

 42 44  0  0  0  0  0  0  0  0999 V2000
  141.9300  155.4140  138.9550 C   0  0  0  0  0  0  0  0  0  0  0  0
  141.4500  156.4290  137.9600 C   0  0  0  0  0  0  0  0  0  0  0  0
  141.3850  157.7980  138.3190 C   0  0  0  0  0  0  0  0  0  0  0  0
  140.9870  158.7660  137.3820 C   0  0  0  0  0  0  0  0  0  0  0  0
  140.6600  158.3350  136.0990 C   0  0  0  0  0  0  0  0  0  0  0  0
  140.2870  159.0580  134.9890 C   0  0  0  0  0  0  0  0  0  0  0  0
  140.1340  158.1180  133.9710 C   0  0  0  0  0  0  0  0  0  0  0  0
  139.8440  158.4740  132.5650 C   0  0  0  0  0  0  0  0  0  0  0  0
  138.7570  157.8490  131.8860 N   0  0  0  0  0  0  0  0  0  0  0  0
  140.5440  159.3260  131.9570 O   0  0  0  0  0  0  0  0  0  0  0  0
  140.3580  156.8590  134.4460 N   0  0  0  0  0  0  0  0  0  0  0  0
  140.4080  155.6340  133.6990 C   0  0  0  0  0  0  0  0  0  0  0  0
  139.3620  155.2370  133.1190 O   0  0  0  0  0  0  0  0  0  0  0  0
  141.6150  154.8390  133.6180 N   0  0  0  0  0  0  0  0  0  0  0  0
  141.4740  153.3770  133.5440 C   0  0  0  0  0  0  0  0  0  0  0  0
  141.7310  152.7540  134.8810 C   0  0  0  0  0  0  0  0  0  0  0  0
  142.3840  153.3790  135.7570 O   0  0  0  0  0  0  0  0  0  0  0  0
  141.2360  151.4850  135.1650 O   0  0  0  0  0  0  0  0  0  0  0  0
  142.9560  155.4170  133.3570 C   0  0  1  0  0  0  0  0  0  0  0  0
  142.9150  156.7360  132.6170 C   0  0  0  0  0  0  0  0  0  0  0  0
  143.6260  157.6970  133.5500 C   0  0  0  0  0  0  0  0  0  0  0  0
  144.3840  156.9590  134.4770 O   0  0  0  0  0  0  0  0  0  0  0  0
  143.7450  155.7150  134.6230 C   0  0  0  0  0  0  0  0  0  0  0  0
  140.7190  157.0150  135.7380 C   0  0  0  0  0  0  0  0  0  0  0  0
  141.1330  156.0320  136.6430 C   0  0  0  0  0  0  0  0  0  0  0  0
  141.7533  155.7877  139.9744 H   0  0  0  0  0  0  0  0  0  0  0  0
  141.3824  154.4711  138.8101 H   0  0  0  0  0  0  0  0  0  0  0  0
  143.0063  155.2390  138.8101 H   0  0  0  0  0  0  0  0  0  0  0  0
  141.6488  158.1060  139.3415 H   0  0  0  0  0  0  0  0  0  0  0  0
  140.9353  159.8308  137.6533 H   0  0  0  0  0  0  0  0  0  0  0  0
  140.1407  160.1460  134.9198 H   0  0  0  0  0  0  0  0  0  0  0  0
  138.3620  156.9430  132.2240 H   0  0  0  0  0  0  0  0  0  0  0  0
  140.4527  153.1284  133.2197 H   0  0  0  0  0  0  0  0  0  0  0  0
  142.2079  152.9861  132.8239 H   0  0  0  0  0  0  0  0  0  0  0  0
  143.4344  154.6305  132.7549 H   0  0  0  0  0  0  0  0  0  0  0  0
  143.4425  156.6618  131.6546 H   0  0  0  0  0  0  0  0  0  0  0  0
  141.8907  157.0567  132.3761 H   0  0  0  0  0  0  0  0  0  0  0  0
  144.2911  158.3519  132.9680 H   0  0  0  0  0  0  0  0  0  0  0  0
  142.8867  158.3140  134.0818 H   0  0  0  0  0  0  0  0  0  0  0  0
  144.4980  154.9292  134.7828 H   0  0  0  0  0  0  0  0  0  0  0  0
  143.0663  155.7430  135.4882 H   0  0  0  0  0  0  0  0  0  0  0  0
  141.2094  154.9783  136.3367 H   0  0  0  0  0  0  0  0  0  0  0  0
  1  2  1  0
  2  3  2  0
  3  4  1  0
  4  5  2  0
  5  6  1  0
  6  7  2  0
  7  8  1  0
  8  9  1  0
  8 10  2  0
  7 11  1  0
 11 12  1  0
 12 13  2  0
 12 14  1  0
 14 15  1  0
 15 16  1  0
 16 17  2  0
 16 18  1  0
 14 19  1  0
 19 20  1  0
 20 21  1  0
 21 22  1  0
 22 23  1  0
 11 24  1  0
 24 25  2  0
 25  2  1  0
 24  5  1  0
 23 19  1  0
  1 26  1  0
  1 27  1  0
  1 28  1  0
  3 29  1  0
  4 30  1  0
  6 31  1  0
  9 32  1  0
 15 33  1  0
 15 34  1  0
 19 35  1  6
 20 36  1  0
 20 37  1  0
 21 38  1  0
 21 39  1  0
 23 40  1  0
 23 41  1  0
 25 42  1  0
M  CHG  2   9  -1  18  -1
M  END
>  <UniqueID>  (95) 
95

>  <SMILES>  (95) 
Cc1ccc2cc(C([NH-])=O)n(C(=O)N(CC(=O)[O-])[C@H]3CCOC3)c2c1

>  <Energy>  (95) 
85.5115394148078

>  <Genealogy>  (95) 
Cc1ccc2cc(C([NH-])=O)n(C(=O)N(CC(=O)[O-])C3CCOC3)c2c1 (protonated)
Cc1ccc2cc(C([NH-])=O)n(C(=O)N(CC(=O)[O-])[C@H]3CCOC3)c2c1 (chirality)
Cc1ccc2cc(C([NH-])=O)n(C(=O)N(CC(=O)[O-])[C@H]3CCOC3)c2c1 (3D coordinates assigned)
Cc1ccc2cc(C([NH-])=O)n(C(=O)N(CC(=O)[O-])[C@H]3CCOC3)c2c1 (nonaromatic ring conformer: 85.5115394148078 kcal/mol)

>  <smiles>  (95) 
Cc1ccc2cc(C(N)=O)n(C(=O)N(CC(=O)O)C3CCOC3)c2c1

>  <score_type>  (95) 
oracle

>  <origin>  (95) 
adg

>  <m_score__min__energy>  (95) 
-7.0099999999999998

>  <m_primary>  (95) 
energy

$$$$
95:0
     RDKit          3D

 42 43  0  0  0  0  0  0  0  0999 V2000
  149.6240  161.6220  130.6970 C   0  0  0  0  0  0  0  0  0  0  0  0
  149.0350  160.6950  131.1970 C   0  0  0  0  0  0  0  0  0  0  0  0
  148.3300  159.5900  131.7930 C   0  0  0  0  0  0  0  0  0  0  0  0
  148.9580  158.3260  131.8950 C   0  0  0  0  0  0  0  0  0  0  0  0
  148.2830  157.2400  132.4820 C   0  0  0  0  0  0  0  0  0  0  0  0
  146.9900  157.4530  132.9540 C   0  0  0  0  0  0  0  0  0  0  0  0
  146.1210  156.5950  133.5910 C   0  0  0  0  0  0  0  0  0  0  0  0
  144.9830  157.3530  133.8610 C   0  0  0  0  0  0  0  0  0  0  0  0
  143.7610  156.8190  134.4980 C   0  0  0  0  0  0  0  0  0  0  0  0
  142.4800  157.2090  134.0110 N   0  0  0  0  0  0  0  0  0  0  0  0
  143.8340  156.0350  135.4840 O   0  0  0  0  0  0  0  0  0  0  0  0
  145.1430  158.6260  133.4020 N   0  0  0  0  0  0  0  0  0  0  0  0
  144.2400  159.7300  133.5250 C   0  0  0  0  0  0  0  0  0  0  0  0
  144.6090  160.7670  134.1400 O   0  0  0  0  0  0  0  0  0  0  0  0
  142.9000  159.6230  133.0220 N   0  0  0  0  0  0  0  0  0  0  0  0
  141.8360  160.5090  133.4870 C   0  0  0  0  0  0  0  0  0  0  0  0
  140.5860  159.7080  133.7130 C   0  0  0  0  0  0  0  0  0  0  0  0
  140.3180  159.3030  134.8760 O   0  0  0  0  0  0  0  0  0  0  0  0
  139.7720  159.2860  132.6080 N   0  0  0  0  0  0  0  0  0  0  0  0
  139.0120  160.2740  131.8330 C   0  0  0  0  0  0  0  0  0  0  0  0
  139.6790  157.8580  132.2780 C   0  0  0  0  0  0  0  0  0  0  0  0
  138.9690  157.1080  133.4060 C   0  0  0  0  0  0  0  0  0  0  0  0
  139.8760  156.7470  134.4140 O   0  0  0  0  0  0  0  0  0  0  0  0
  146.3730  158.6720  132.8520 C   0  0  0  0  0  0  0  0  0  0  0  0
  147.0190  159.7720  132.2780 C   0  0  0  0  0  0  0  0  0  0  0  0
  150.1609  162.4670  130.2412 H   0  0  0  0  0  0  0  0  0  0  0  0
  149.9807  158.1916  131.5128 H   0  0  0  0  0  0  0  0  0  0  0  0
  148.7617  156.2532  132.5656 H   0  0  0  0  0  0  0  0  0  0  0  0
  146.2895  155.5357  133.8350 H   0  0  0  0  0  0  0  0  0  0  0  0
  141.8080  157.7330  134.6210 H   0  0  0  0  0  0  0  0  0  0  0  0
  142.6310  158.7600  132.4990 H   0  0  0  0  0  0  0  0  0  0  0  0
  142.1415  160.9869  134.4295 H   0  0  0  0  0  0  0  0  0  0  0  0
  141.6450  161.2841  132.7302 H   0  0  0  0  0  0  0  0  0  0  0  0
  138.4883  160.9548  132.5201 H   0  0  0  0  0  0  0  0  0  0  0  0
  139.7010  160.8514  131.1990 H   0  0  0  0  0  0  0  0  0  0  0  0
  138.2772  159.7562  131.1990 H   0  0  0  0  0  0  0  0  0  0  0  0
  139.1104  157.7357  131.3443 H   0  0  0  0  0  0  0  0  0  0  0  0
  140.6923  157.4486  132.1527 H   0  0  0  0  0  0  0  0  0  0  0  0
  138.1913  157.7562  133.8362 H   0  0  0  0  0  0  0  0  0  0  0  0
  138.5199  156.1930  132.9923 H   0  0  0  0  0  0  0  0  0  0  0  0
  140.7050  157.2710  134.2490 H   0  0  0  0  0  0  0  0  0  0  0  0
  146.5191  160.7493  132.2072 H   0  0  0  0  0  0  0  0  0  0  0  0
  1  2  3  0
  2  3  1  0
  3  4  2  0
  4  5  1  0
  5  6  2  0
  6  7  1  0
  7  8  2  0
  8  9  1  0
  9 10  1  0
  9 11  2  0
  8 12  1  0
 12 13  1  0
 13 14  2  0
 13 15  1  0
 15 16  1  0
 16 17  1  0
 17 18  2  0
 17 19  1  0
 19 20  1  0
 19 21  1  0
 21 22  1  0
 22 23  1  0
 12 24  1  0
 24 25  2  0
 25  3  1  0
 24  6  1  0
  1 26  1  0
  4 27  1  0
  5 28  1  0
  7 29  1  0
 10 30  1  0
 15 31  1  0
 16 32  1  0
 16 33  1  0
 20 34  1  0
 20 35  1  0
 20 36  1  0
 21 37  1  0
 21 38  1  0
 22 39  1  0
 22 40  1  0
 23 41  1  0
 25 42  1  0
M  CHG  1  10  -1
M  END
>  <UniqueID>  (96) 
96

>  <SMILES>  (96) 
C#Cc1ccc2cc(C([NH-])=O)n(C(=O)NCC(=O)N(C)CCO)c2c1

>  <Energy>  (96) 
74.50117015066945

>  <Genealogy>  (96) 
C#Cc1ccc2cc(C([NH-])=O)n(C(=O)NCC(=O)N(C)CCO)c2c1 (protonated)
C#Cc1ccc2cc(C([NH-])=O)n(C(=O)NCC(=O)N(C)CCO)c2c1 (3D coordinates assigned)
C#Cc1ccc2cc(C([NH-])=O)n(C(=O)NCC(=O)N(C)CCO)c2c1 (optimized conformer: 74.50117015066945 kcal/mol)

>  <smiles>  (96) 
C#Cc1ccc2cc(C(N)=O)n(C(=O)NCC(=O)N(C)CCO)c2c1

>  <score_type>  (96) 
oracle

>  <origin>  (96) 
adg

>  <m_score__min__energy>  (96) 
-6.6900000000000004

>  <m_primary>  (96) 
energy

$$$$
