0:0
     RDKit          3D

 40 41  0  0  0  0  0  0  0  0999 V2000
  143.8250  153.3570  137.3270 C   0  0  0  0  0  0  0  0  0  0  0  0
  142.5790  153.4960  136.5570 N   0  0  2  0  0  0  0  0  0  0  0  0
  142.7940  154.4030  135.4430 C   0  0  0  0  0  0  0  0  0  0  0  0
  143.9510  154.7980  135.1410 O   0  0  0  0  0  0  0  0  0  0  0  0
  141.6960  154.7690  134.5910 N   0  0  0  0  0  0  0  0  0  0  0  0
  140.9990  153.9630  133.7390 C   0  0  0  0  0  0  0  0  0  0  0  0
  141.1780  152.5030  133.5760 C   0  0  0  0  0  0  0  0  0  0  0  0
  142.3120  151.8310  134.1160 N   0  0  0  0  0  0  0  0  0  0  0  0
  140.3000  151.8330  132.9690 O   0  0  0  0  0  0  0  0  0  0  0  0
  140.0430  154.7000  133.0440 C   0  0  0  0  0  0  0  0  0  0  0  0
  140.1780  155.9930  133.4950 C   0  0  0  0  0  0  0  0  0  0  0  0
  139.5010  157.1480  133.1170 C   0  0  0  0  0  0  0  0  0  0  0  0
  139.8790  158.3600  133.7200 C   0  0  0  0  0  0  0  0  0  0  0  0
  140.9140  158.3970  134.6890 C   0  0  0  0  0  0  0  0  0  0  0  0
  141.3550  159.7110  135.2810 C   0  0  0  0  0  0  0  0  0  0  0  0
  142.6730  159.6400  135.6980 F   0  0  0  0  0  0  0  0  0  0  0  0
  140.5540  160.0140  136.3660 F   0  0  0  0  0  0  0  0  0  0  0  0
  141.2510  160.7260  134.3460 F   0  0  0  0  0  0  0  0  0  0  0  0
  141.5940  157.2040  135.0250 C   0  0  0  0  0  0  0  0  0  0  0  0
  141.1840  156.0090  134.4260 C   0  0  0  0  0  0  0  0  0  0  0  0
  141.3800  153.7670  137.4170 C   0  0  1  0  0  0  0  0  0  0  0  0
  140.9610  152.6520  138.4260 C   0  0  0  0  0  0  0  0  0  0  0  0
  140.6470  151.3090  137.8410 C   0  0  0  0  0  0  0  0  0  0  0  0
  140.1220  150.4120  138.5520 O   0  0  0  0  0  0  0  0  0  0  0  0
  140.9020  151.0560  136.4990 O   0  0  0  0  0  0  0  0  0  0  0  0
  141.4050  155.1440  138.0450 C   0  0  0  0  0  0  0  0  0  0  0  0
  140.6320  156.0550  137.6500 O   0  0  0  0  0  0  0  0  0  0  0  0
  142.2840  155.4090  139.0890 O   0  0  0  0  0  0  0  0  0  0  0  0
  143.5961  153.3825  138.4026 H   0  0  0  0  0  0  0  0  0  0  0  0
  144.3056  152.3997  137.0770 H   0  0  0  0  0  0  0  0  0  0  0  0
  144.5048  154.1849  137.0770 H   0  0  0  0  0  0  0  0  0  0  0  0
  142.4140  152.5510  136.1370 H   0  0  0  0  0  0  0  0  0  0  0  0
  142.4350  151.7270  135.1480 H   0  0  0  0  0  0  0  0  0  0  0  0
  139.3307  154.3272  132.2933 H   0  0  0  0  0  0  0  0  0  0  0  0
  138.6949  157.1138  132.3694 H   0  0  0  0  0  0  0  0  0  0  0  0
  139.3660  159.2910  133.4370 H   0  0  0  0  0  0  0  0  0  0  0  0
  142.4278  157.2156  135.7424 H   0  0  0  0  0  0  0  0  0  0  0  0
  140.5591  153.7448  136.6851 H   0  0  0  0  0  0  0  0  0  0  0  0
  141.7860  152.5209  139.1417 H   0  0  0  0  0  0  0  0  0  0  0  0
  140.0201  153.0026  138.8753 H   0  0  0  0  0  0  0  0  0  0  0  0
  1  2  1  0
  2  3  1  0
  3  4  2  0
  3  5  1  0
  5  6  1  0
  6  7  1  0
  7  8  1  0
  7  9  2  0
  6 10  2  0
 10 11  1  0
 11 12  2  0
 12 13  1  0
 13 14  2  0
 14 15  1  0
 15 16  1  0
 15 17  1  0
 15 18  1  0
 14 19  1  0
 19 20  2  0
  2 21  1  0
 21 22  1  0
 22 23  1  0
 23 24  2  0
 23 25  1  0
 21 26  1  0
 26 27  2  0
 26 28  1  0
 20  5  1  0
 20 11  1  0
  1 29  1  0
  1 30  1  0
  1 31  1  0
  2 32  1  6
  8 33  1  0
 10 34  1  0
 12 35  1  0
 13 36  1  0
 19 37  1  0
 21 38  1  6
 22 39  1  0
 22 40  1  0
M  CHG  4   2   1   8  -1  25  -1  28  -1
M  END
>  <UniqueID>  (1) 
1

>  <SMILES>  (1) 
C[N@H+](C(=O)n1c(C([NH-])=O)cc2ccc(C(F)(F)F)cc21)[C@@H](CC(=O)[O-])C(=O)[O-]

>  <Energy>  (1) 
94.06476395929555

>  <Genealogy>  (1) 
C[NH+](C(=O)n1c(C([NH-])=O)cc2ccc(C(F)(F)F)cc21)[C@@H](CC(=O)[O-])C(=O)[O-] (protonated)
C[N@H+](C(=O)n1c(C([NH-])=O)cc2ccc(C(F)(F)F)cc21)[C@@H](CC(=O)[O-])C(=O)[O-] (chirality)
C[N@H+](C(=O)n1c(C([NH-])=O)cc2ccc(C(F)(F)F)cc21)[C@@H](CC(=O)[O-])C(=O)[O-] (3D coordinates assigned)
C[N@H+](C(=O)n1c(C([NH-])=O)cc2ccc(C(F)(F)F)cc21)[C@@H](CC(=O)[O-])C(=O)[O-] (optimized conformer: 94.06476395929555 kcal/mol)

>  <smiles>  (1) 
CN(C(=O)n1c(C(N)=O)cc2ccc(C(F)(F)F)cc21)[C@@H](CC(=O)O)C(=O)O

>  <score_type>  (1) 
oracle

>  <origin>  (1) 
adg

>  <m_score__min__energy>  (1) 
-5.8200000000000003

>  <m_primary>  (1) 
energy

$$$$
1:0
     RDKit          3D

 40 41  0  0  0  0  0  0  0  0999 V2000
  142.3280  160.4710  133.2630 N   0  0  0  0  0  0  0  0  0  0  0  0
  143.6830  160.7830  133.5700 C   0  0  0  0  0  0  0  0  0  0  0  0
  143.9710  161.9320  133.9990 O   0  0  0  0  0  0  0  0  0  0  0  0
  144.7460  159.7640  133.4340 C   0  0  0  0  0  0  0  0  0  0  0  0
  146.1030  160.0720  133.3670 C   0  0  0  0  0  0  0  0  0  0  0  0
  146.7500  158.8570  133.3300 C   0  0  0  0  0  0  0  0  0  0  0  0
  148.1100  158.5670  133.2650 C   0  0  0  0  0  0  0  0  0  0  0  0
  148.4930  157.2160  133.2260 C   0  0  0  0  0  0  0  0  0  0  0  0
  147.5180  156.1830  133.2290 C   0  0  0  0  0  0  0  0  0  0  0  0
  147.9450  154.7380  133.2290 C   0  0  0  0  0  0  0  0  0  0  0  0
  149.1430  154.5810  132.5520 F   0  0  0  0  0  0  0  0  0  0  0  0
  148.1170  154.2800  134.5240 F   0  0  0  0  0  0  0  0  0  0  0  0
  146.9740  153.9760  132.6070 F   0  0  0  0  0  0  0  0  0  0  0  0
  146.1480  156.5210  133.3200 C   0  0  0  0  0  0  0  0  0  0  0  0
  145.7980  157.8740  133.3690 C   0  0  0  0  0  0  0  0  0  0  0  0
  144.5620  158.4130  133.4300 N   0  0  0  0  0  0  0  0  0  0  0  0
  143.3270  157.6840  133.4000 C   0  0  0  0  0  0  0  0  0  0  0  0
  142.6820  157.5990  132.3190 O   0  0  0  0  0  0  0  0  0  0  0  0
  142.7240  157.1650  134.6780 C   0  0  0  0  0  0  0  0  0  0  0  0
  141.9160  158.2410  135.4130 C   0  0  0  0  0  0  0  0  0  0  0  0
  140.5280  158.3180  134.8600 C   0  0  0  0  0  0  0  0  0  0  0  0
  139.5370  158.2490  135.6370 O   0  0  0  0  0  0  0  0  0  0  0  0
  140.3350  158.4230  133.4480 N   0  0  0  0  0  0  0  0  0  0  0  0
  139.1010  158.9220  132.8550 C   0  0  0  0  0  0  0  0  0  0  0  0
  139.4190  159.6970  131.5830 C   0  0  0  0  0  0  0  0  0  0  0  0
  140.6450  159.2630  131.0640 O   0  0  0  0  0  0  0  0  0  0  0  0
  142.0850  159.6350  132.6880 H   0  0  0  0  0  0  0  0  0  0  0  0
  146.5601  161.0723  133.3478 H   0  0  0  0  0  0  0  0  0  0  0  0
  148.8611  159.3704  133.2448 H   0  0  0  0  0  0  0  0  0  0  0  0
  149.5610  156.9549  133.1927 H   0  0  0  0  0  0  0  0  0  0  0  0
  145.3758  155.7382  133.3515 H   0  0  0  0  0  0  0  0  0  0  0  0
  142.0582  156.3225  134.4395 H   0  0  0  0  0  0  0  0  0  0  0  0
  143.5463  156.8496  135.3370 H   0  0  0  0  0  0  0  0  0  0  0  0
  141.8667  157.9900  136.4828 H   0  0  0  0  0  0  0  0  0  0  0  0
  142.4097  159.2144  135.2761 H   0  0  0  0  0  0  0  0  0  0  0  0
  138.4434  158.0744  132.6119 H   0  0  0  0  0  0  0  0  0  0  0  0
  138.5964  159.5879  133.5705 H   0  0  0  0  0  0  0  0  0  0  0  0
  138.6255  159.5246  130.8410 H   0  0  0  0  0  0  0  0  0  0  0  0
  139.4792  160.7707  131.8142 H   0  0  0  0  0  0  0  0  0  0  0  0
  141.2570  159.1800  131.8400 H   0  0  0  0  0  0  0  0  0  0  0  0
  1  2  1  0
  2  3  2  0
  2  4  1  0
  4  5  2  0
  5  6  1  0
  6  7  2  0
  7  8  1  0
  8  9  2  0
  9 10  1  0
 10 11  1  0
 10 12  1  0
 10 13  1  0
  9 14  1  0
 14 15  2  0
 15 16  1  0
 16 17  1  0
 17 18  2  0
 17 19  1  0
 19 20  1  0
 20 21  1  0
 21 22  2  0
 21 23  1  0
 23 24  1  0
 24 25  1  0
 25 26  1  0
 16  4  1  0
 15  6  1  0
  1 27  1  0
  5 28  1  0
  7 29  1  0
  8 30  1  0
 14 31  1  0
 19 32  1  0
 19 33  1  0
 20 34  1  0
 20 35  1  0
 24 36  1  0
 24 37  1  0
 25 38  1  0
 25 39  1  0
 26 40  1  0
M  CHG  2   1  -1  23  -1
M  END
>  <UniqueID>  (2) 
2

>  <SMILES>  (2) 
[NH-]C(=O)c1cc2ccc(C(F)(F)F)cc2n1C(=O)CCC(=O)[N-]CCO

>  <Energy>  (2) 
71.82955986882574

>  <Genealogy>  (2) 
[NH-]C(=O)c1cc2ccc(C(F)(F)F)cc2n1C(=O)CCC(=O)[N-]CCO (protonated)
[NH-]C(=O)c1cc2ccc(C(F)(F)F)cc2n1C(=O)CCC(=O)[N-]CCO (3D coordinates assigned)
[NH-]C(=O)c1cc2ccc(C(F)(F)F)cc2n1C(=O)CCC(=O)[N-]CCO (optimized conformer: 71.82955986882574 kcal/mol)

>  <smiles>  (2) 
NC(=O)c1cc2ccc(C(F)(F)F)cc2n1C(=O)CCC(=O)NCCO

>  <score_type>  (2) 
oracle

>  <origin>  (2) 
adg

>  <m_score__min__energy>  (2) 
-5.9400000000000004

>  <m_primary>  (2) 
energy

$$$$
2:0
     RDKit          3D

 44 45  0  0  0  0  0  0  0  0999 V2000
  148.6230  155.1640  132.5150 C   0  0  0  0  0  0  0  0  0  0  0  0
  148.2110  156.5890  132.7260 C   0  0  0  0  0  0  0  0  0  0  0  0
  149.1910  157.6120  132.7080 C   0  0  0  0  0  0  0  0  0  0  0  0
  148.8280  158.9560  132.9050 C   0  0  0  0  0  0  0  0  0  0  0  0
  147.4810  159.2440  133.1060 C   0  0  0  0  0  0  0  0  0  0  0  0
  146.8560  160.4460  133.3530 C   0  0  0  0  0  0  0  0  0  0  0  0
  145.5030  160.1360  133.5010 C   0  0  0  0  0  0  0  0  0  0  0  0
  144.4320  161.1320  133.7270 C   0  0  0  0  0  0  0  0  0  0  0  0
  143.0700  160.7270  133.8740 N   0  0  0  0  0  0  0  0  0  0  0  0
  144.7200  162.3560  133.8110 O   0  0  0  0  0  0  0  0  0  0  0  0
  145.3060  158.7980  133.3450 N   0  0  0  0  0  0  0  0  0  0  0  0
  144.0890  158.0600  133.5240 C   0  0  0  0  0  0  0  0  0  0  0  0
  143.1600  158.1770  132.6820 O   0  0  0  0  0  0  0  0  0  0  0  0
  143.9700  157.0490  134.6260 C   0  0  0  0  0  0  0  0  0  0  0  0
  142.6220  156.9950  135.0850 O   0  0  0  0  0  0  0  0  0  0  0  0
  141.8330  158.1350  135.2880 C   0  0  0  0  0  0  0  0  0  0  0  0
  142.3410  159.1700  135.8020 O   0  0  0  0  0  0  0  0  0  0  0  0
  140.4410  158.1200  134.9070 N   0  0  0  0  0  0  0  0  0  0  0  0
  139.4340  158.2340  135.9670 C   0  0  0  0  0  0  0  0  0  0  0  0
  140.0190  158.0370  133.4940 C   0  0  1  0  0  0  0  0  0  0  0  0
  138.7480  157.1880  133.3570 C   0  0  0  0  0  0  0  0  0  0  0  0
  139.8760  159.4140  132.8980 C   0  0  0  0  0  0  0  0  0  0  0  0
  140.7370  160.3110  133.1090 O   0  0  0  0  0  0  0  0  0  0  0  0
  138.7910  159.6920  132.0770 O   0  0  0  0  0  0  0  0  0  0  0  0
  146.5210  158.2660  133.1050 C   0  0  0  0  0  0  0  0  0  0  0  0
  146.8520  156.9200  132.9260 C   0  0  0  0  0  0  0  0  0  0  0  0
  148.7644  154.6750  133.4901 H   0  0  0  0  0  0  0  0  0  0  0  0
  147.8407  154.6360  131.9500 H   0  0  0  0  0  0  0  0  0  0  0  0
  149.5664  155.1349  131.9500 H   0  0  0  0  0  0  0  0  0  0  0  0
  150.2463  157.3522  132.5382 H   0  0  0  0  0  0  0  0  0  0  0  0
  149.5845  159.7546  132.9004 H   0  0  0  0  0  0  0  0  0  0  0  0
  147.3236  161.4394  133.4195 H   0  0  0  0  0  0  0  0  0  0  0  0
  142.7800  159.7340  133.7430 H   0  0  0  0  0  0  0  0  0  0  0  0
  142.3320  161.4380  134.0710 H   0  0  0  0  0  0  0  0  0  0  0  0
  144.2675  156.0597  134.2482 H   0  0  0  0  0  0  0  0  0  0  0  0
  144.6270  157.3393  135.4591 H   0  0  0  0  0  0  0  0  0  0  0  0
  139.9271  158.1782  136.9487 H   0  0  0  0  0  0  0  0  0  0  0  0
  138.9108  159.1971  135.8737 H   0  0  0  0  0  0  0  0  0  0  0  0
  138.7088  157.4122  135.8737 H   0  0  0  0  0  0  0  0  0  0  0  0
  140.8016  157.5255  132.9145 H   0  0  0  0  0  0  0  0  0  0  0  0
  138.3673  156.9337  134.3572 H   0  0  0  0  0  0  0  0  0  0  0  0
  137.9839  157.7577  132.8078 H   0  0  0  0  0  0  0  0  0  0  0  0
  138.9817  156.2640  132.8078 H   0  0  0  0  0  0  0  0  0  0  0  0
  146.0763  156.1402  132.9404 H   0  0  0  0  0  0  0  0  0  0  0  0
  1  2  1  0
  2  3  2  0
  3  4  1  0
  4  5  2  0
  5  6  1  0
  6  7  2  0
  7  8  1  0
  8  9  1  0
  8 10  2  0
  7 11  1  0
 11 12  1  0
 12 13  2  0
 12 14  1  0
 14 15  1  0
 15 16  1  0
 16 17  2  0
 16 18  1  0
 18 19  1  0
 18 20  1  0
 20 21  1  0
 20 22  1  0
 22 23  2  0
 22 24  1  0
 11 25  1  0
 25 26  2  0
 26  2  1  0
 25  5  1  0
  1 27  1  0
  1 28  1  0
  1 29  1  0
  3 30  1  0
  4 31  1  0
  6 32  1  0
  9 33  1  0
  9 34  1  0
 14 35  1  0
 14 36  1  0
 19 37  1  0
 19 38  1  0
 19 39  1  0
 20 40  1  6
 21 41  1  0
 21 42  1  0
 21 43  1  0
 26 44  1  0
M  CHG  1  24  -1
M  END
>  <UniqueID>  (3) 
3

>  <SMILES>  (3) 
Cc1ccc2cc(C(N)=O)n(C(=O)COC(=O)N(C)[C@@H](C)C(=O)[O-])c2c1

>  <Energy>  (3) 
74.831208472732

>  <Genealogy>  (3) 
Cc1ccc2cc(C(N)=O)n(C(=O)COC(=O)N(C)C(C)C(=O)[O-])c2c1 (protonated)
Cc1ccc2cc(C(N)=O)n(C(=O)COC(=O)N(C)[C@@H](C)C(=O)[O-])c2c1 (chirality)
Cc1ccc2cc(C(N)=O)n(C(=O)COC(=O)N(C)[C@@H](C)C(=O)[O-])c2c1 (3D coordinates assigned)
Cc1ccc2cc(C(N)=O)n(C(=O)COC(=O)N(C)[C@@H](C)C(=O)[O-])c2c1 (optimized conformer: 74.831208472732 kcal/mol)

>  <smiles>  (3) 
Cc1ccc2cc(C(N)=O)n(C(=O)COC(=O)N(C)C(C)C(=O)O)c2c1

>  <score_type>  (3) 
oracle

>  <origin>  (3) 
adg

>  <m_score__min__energy>  (3) 
-7.3799999999999999

>  <m_primary>  (3) 
energy

$$$$
3:0
     RDKit          3D

 44 45  0  0  0  0  0  0  0  0999 V2000
  137.6340  160.1120  130.7980 C   0  0  0  0  0  0  0  0  0  0  0  0
  139.1050  159.7450  130.6420 C   0  0  0  0  0  0  0  0  0  0  0  0
  139.7700  159.7910  131.9020 O   0  0  0  0  0  0  0  0  0  0  0  0
  139.5950  158.8270  132.9040 C   0  0  0  0  0  0  0  0  0  0  0  0
  138.4410  158.5720  133.3480 O   0  0  0  0  0  0  0  0  0  0  0  0
  140.8030  158.1420  133.5020 C   0  0  1  0  0  0  0  0  0  0  0  0
  140.4680  156.6580  133.7060 C   0  0  0  0  0  0  0  0  0  0  0  0
  141.8970  158.2280  132.6180 O   0  0  0  0  0  0  0  0  0  0  0  0
  141.1680  158.7980  134.8540 C   0  0  0  0  0  0  0  0  0  0  0  0
  142.5920  159.1040  134.9070 N   0  0  0  0  0  0  0  0  0  0  0  0
  143.2130  160.0670  134.0520 C   0  0  0  0  0  0  0  0  0  0  0  0
  142.5070  160.8950  133.4140 O   0  0  0  0  0  0  0  0  0  0  0  0
  144.6440  160.1110  133.9430 N   0  0  0  0  0  0  0  0  0  0  0  0
  145.4520  161.2080  133.9900 C   0  0  0  0  0  0  0  0  0  0  0  0
  145.0330  162.5780  134.3500 C   0  0  0  0  0  0  0  0  0  0  0  0
  144.1040  163.2970  133.5430 N   0  0  0  0  0  0  0  0  0  0  0  0
  145.4640  163.1040  135.4110 O   0  0  0  0  0  0  0  0  0  0  0  0
  146.7740  160.8540  133.7310 C   0  0  0  0  0  0  0  0  0  0  0  0
  146.7540  159.4930  133.5290 C   0  0  0  0  0  0  0  0  0  0  0  0
  147.7890  158.6200  133.2120 C   0  0  0  0  0  0  0  0  0  0  0  0
  147.4750  157.2650  133.0210 C   0  0  0  0  0  0  0  0  0  0  0  0
  146.1400  156.8030  133.1620 C   0  0  0  0  0  0  0  0  0  0  0  0
  145.8040  155.3570  132.8950 C   0  0  0  0  0  0  0  0  0  0  0  0
  145.2470  154.7700  134.0170 F   0  0  0  0  0  0  0  0  0  0  0  0
  144.8980  155.2500  131.8550 F   0  0  0  0  0  0  0  0  0  0  0  0
  146.9610  154.6770  132.5580 F   0  0  0  0  0  0  0  0  0  0  0  0
  145.1110  157.7270  133.4610 C   0  0  0  0  0  0  0  0  0  0  0  0
  145.4570  159.0680  133.6630 C   0  0  0  0  0  0  0  0  0  0  0  0
  137.3831  160.1746  131.8672 H   0  0  0  0  0  0  0  0  0  0  0  0
  137.4460  161.0846  130.3197 H   0  0  0  0  0  0  0  0  0  0  0  0
  137.0112  159.3417  130.3197 H   0  0  0  0  0  0  0  0  0  0  0  0
  139.1821  158.7282  130.2295 H   0  0  0  0  0  0  0  0  0  0  0  0
  139.5808  160.4681  129.9633 H   0  0  0  0  0  0  0  0  0  0  0  0
  140.4183  156.4380  134.7826 H   0  0  0  0  0  0  0  0  0  0  0  0
  139.4967  156.4341  133.2408 H   0  0  0  0  0  0  0  0  0  0  0  0
  141.2489  156.0385  133.2408 H   0  0  0  0  0  0  0  0  0  0  0  0
  141.9090  159.1470  132.2360 H   0  0  0  0  0  0  0  0  0  0  0  0
  140.5935  159.7287  134.9712 H   0  0  0  0  0  0  0  0  0  0  0  0
  140.9252  158.0966  135.6659 H   0  0  0  0  0  0  0  0  0  0  0  0
  143.3540  162.8000  133.0120 H   0  0  0  0  0  0  0  0  0  0  0  0
  147.6482  161.5207  133.6955 H   0  0  0  0  0  0  0  0  0  0  0  0
  148.8236  158.9806  133.1138 H   0  0  0  0  0  0  0  0  0  0  0  0
  148.2721  156.5535  132.7592 H   0  0  0  0  0  0  0  0  0  0  0  0
  144.0635  157.3990  133.5330 H   0  0  0  0  0  0  0  0  0  0  0  0
  1  2  1  0
  2  3  1  0
  3  4  1  0
  4  5  2  0
  4  6  1  0
  6  7  1  0
  6  8  1  6
  6  9  1  0
  9 10  1  0
 10 11  1  0
 11 12  2  0
 11 13  1  0
 13 14  1  0
 14 15  1  0
 15 16  1  0
 15 17  2  0
 14 18  2  0
 18 19  1  0
 19 20  2  0
 20 21  1  0
 21 22  2  0
 22 23  1  0
 23 24  1  0
 23 25  1  0
 23 26  1  0
 22 27  1  0
 27 28  2  0
 28 13  1  0
 28 19  1  0
  1 29  1  0
  1 30  1  0
  1 31  1  0
  2 32  1  0
  2 33  1  0
  7 34  1  0
  7 35  1  0
  7 36  1  0
  8 37  1  0
  9 38  1  0
  9 39  1  0
 16 40  1  0
 18 41  1  0
 20 42  1  0
 21 43  1  0
 27 44  1  0
M  CHG  2  10  -1  16  -1
M  END
>  <UniqueID>  (4) 
4

>  <SMILES>  (4) 
CCOC(=O)[C@@](C)(O)C[N-]C(=O)n1c(C([NH-])=O)cc2ccc(C(F)(F)F)cc21

>  <Energy>  (4) 
75.49896088565762

>  <Genealogy>  (4) 
CCOC(=O)C(C)(O)C[N-]C(=O)n1c(C([NH-])=O)cc2ccc(C(F)(F)F)cc21 (protonated)
CCOC(=O)[C@@](C)(O)C[N-]C(=O)n1c(C([NH-])=O)cc2ccc(C(F)(F)F)cc21 (chirality)
CCOC(=O)[C@@](C)(O)C[N-]C(=O)n1c(C([NH-])=O)cc2ccc(C(F)(F)F)cc21 (3D coordinates assigned)
CCOC(=O)[C@@](C)(O)C[N-]C(=O)n1c(C([NH-])=O)cc2ccc(C(F)(F)F)cc21 (optimized conformer: 75.49896088565762 kcal/mol)

>  <smiles>  (4) 
CCOC(=O)C(C)(O)CNC(=O)n1c(C(N)=O)cc2ccc(C(F)(F)F)cc21

>  <score_type>  (4) 
oracle

>  <origin>  (4) 
adg

>  <m_score__min__energy>  (4) 
-6.6200000000000001

>  <m_primary>  (4) 
energy

$$$$
4:0
     RDKit          3D

 42 44  0  0  0  0  0  0  0  0999 V2000
  144.0735  155.8079  131.3854 H   0  0  0  0  0  0  0  0  0  0  0  0
  144.2930  155.0090  132.1090 C   0  0  0  0  0  0  0  0  0  0  0  0
  145.1970  155.3740  133.2220 C   0  0  0  0  0  0  0  0  0  0  0  0
  144.7400  155.3020  134.3940 O   0  0  0  0  0  0  0  0  0  0  0  0
  146.5100  155.9240  133.0200 N   0  0  0  0  0  0  0  0  0  0  0  0
  147.6910  155.2440  132.9350 C   0  0  0  0  0  0  0  0  0  0  0  0
  147.8730  153.7700  132.9180 C   0  0  0  0  0  0  0  0  0  0  0  0
  148.9580  153.2960  132.4830 O   0  0  0  0  0  0  0  0  0  0  0  0
  146.8540  152.8650  133.3450 N   0  0  0  0  0  0  0  0  0  0  0  0
  145.8870  153.1820  133.5570 H   0  0  0  0  0  0  0  0  0  0  0  0
  147.0440  151.8380  133.3570 H   0  0  0  0  0  0  0  0  0  0  0  0
  148.7670  156.1310  132.9520 C   0  0  0  0  0  0  0  0  0  0  0  0
  149.8356  155.8828  132.8717 H   0  0  0  0  0  0  0  0  0  0  0  0
  148.2120  157.3790  133.0900 C   0  0  0  0  0  0  0  0  0  0  0  0
  148.8290  158.6210  133.2130 C   0  0  0  0  0  0  0  0  0  0  0  0
  149.9227  158.7198  133.1500 H   0  0  0  0  0  0  0  0  0  0  0  0
  148.0110  159.7440  133.4200 C   0  0  0  0  0  0  0  0  0  0  0  0
  148.4652  160.7431  133.4949 H   0  0  0  0  0  0  0  0  0  0  0  0
  146.6070  159.6010  133.5330 C   0  0  0  0  0  0  0  0  0  0  0  0
  145.7420  160.8100  133.7330 C   0  0  0  0  0  0  0  0  0  0  0  0
  145.6110  160.9931  134.8097 H   0  0  0  0  0  0  0  0  0  0  0  0
  146.2208  161.6844  133.2680 H   0  0  0  0  0  0  0  0  0  0  0  0
  144.7599  160.6392  133.2680 H   0  0  0  0  0  0  0  0  0  0  0  0
  146.0160  158.3270  133.3980 C   0  0  0  0  0  0  0  0  0  0  0  0
  144.9265  158.1996  133.4807 H   0  0  0  0  0  0  0  0  0  0  0  0
  146.8510  157.2280  133.1560 C   0  0  0  0  0  0  0  0  0  0  0  0
  143.7070  153.8240  131.8720 C   0  0  0  0  0  0  0  0  0  0  0  0
  143.1549  153.7354  130.9247 H   0  0  0  0  0  0  0  0  0  0  0  0
  143.7200  152.3900  132.9060 S   0  0  0  0  0  0  0  0  0  0  0  0
  143.9120  152.7930  134.3390 O   0  0  0  0  0  0  0  0  0  0  0  0
  144.9000  151.5510  132.5040 O   0  0  0  0  0  0  0  0  0  0  0  0
  142.2790  151.3910  132.6930 C   0  0  0  0  0  0  0  0  0  0  0  0
  142.3790  149.9960  132.5250 C   0  0  0  0  0  0  0  0  0  0  0  0
  143.5840  149.3730  132.5610 F   0  0  0  0  0  0  0  0  0  0  0  0
  141.2290  149.2310  132.3090 C   0  0  0  0  0  0  0  0  0  0  0  0
  141.3300  147.8860  132.1620 F   0  0  0  0  0  0  0  0  0  0  0  0
  139.9770  149.8470  132.2400 C   0  0  0  0  0  0  0  0  0  0  0  0
  138.8630  149.1010  132.0310 F   0  0  0  0  0  0  0  0  0  0  0  0
  139.8710  151.2330  132.3830 C   0  0  0  0  0  0  0  0  0  0  0  0
  138.6560  151.8300  132.3070 F   0  0  0  0  0  0  0  0  0  0  0  0
  141.0170  152.0050  132.6040 C   0  0  0  0  0  0  0  0  0  0  0  0
  140.8950  153.3520  132.7240 F   0  0  0  0  0  0  0  0  0  0  0  0
  1  2  1  0
  2  3  1  0
  3  4  2  0
  3  5  1  0
  5  6  1  0
  6  7  1  0
  7  8  2  0
  7  9  1  0
  9 10  1  0
  9 11  1  0
  6 12  2  0
 12 13  1  0
 12 14  1  0
 14 15  2  0
 15 16  1  0
 15 17  1  0
 17 18  1  0
 17 19  2  0
 19 20  1  0
 20 21  1  0
 20 22  1  0
 20 23  1  0
 19 24  1  0
 24 25  1  0
 24 26  2  0
  2 27  2  0
 27 28  1  0
 27 29  1  0
 29 30  2  0
 29 31  2  0
 29 32  1  0
 32 33  2  0
 33 34  1  0
 33 35  1  0
 35 36  1  0
 35 37  2  0
 37 38  1  0
 37 39  1  0
 39 40  1  0
 39 41  2  0
 41 42  1  0
 26  5  1  0
 41 32  1  0
 26 14  1  0
M  END
>  <UniqueID>  (5) 
5

>  <SMILES>  (5) 
Cc1ccc2cc(C(N)=O)n(C(=O)/C=C\S(=O)(=O)c3c(F)c(F)c(F)c(F)c3F)c2c1

>  <Energy>  (5) 
91.86879027287983

>  <Genealogy>  (5) 
Cc1ccc2cc(C(N)=O)n(C(=O)/C=C\S(=O)(=O)c3c(F)c(F)c(F)c(F)c3F)c2c1 (cis-trans isomerization)
Cc1ccc2cc(C(N)=O)n(C(=O)/C=C\S(=O)(=O)c3c(F)c(F)c(F)c(F)c3F)c2c1 (3D coordinates assigned)
Cc1ccc2cc(C(N)=O)n(C(=O)/C=C\S(=O)(=O)c3c(F)c(F)c(F)c(F)c3F)c2c1 (optimized conformer: 91.86879027287983 kcal/mol)

>  <smiles>  (5) 
Cc1ccc2cc(C(N)=O)n(C(=O)/C=C\S(=O)(=O)c3c(F)c(F)c(F)c(F)c3F)c2c1

>  <score_type>  (5) 
oracle

>  <origin>  (5) 
adg

>  <m_score__min__energy>  (5) 
-8.3800000000000008

>  <m_primary>  (5) 
energy

$$$$
5:0
     RDKit          3D

 43 45  0  0  0  0  0  0  0  0999 V2000
  142.4040  149.2420  132.2260 C   0  0  0  0  0  0  0  0  0  0  0  0
  142.1130  150.6550  132.4720 N   0  0  0  0  0  0  0  0  0  0  0  0
  140.7240  151.1250  132.4360 C   0  0  0  0  0  0  0  0  0  0  0  0
  140.6140  152.5470  132.9910 C   0  0  0  0  0  0  0  0  0  0  0  0
  141.5730  153.3800  132.3730 O   0  0  0  0  0  0  0  0  0  0  0  0
  142.8740  153.0640  132.8390 C   0  0  2  0  0  0  0  0  0  0  0  0
  143.8930  153.9620  132.1190 C   0  0  0  0  0  0  0  0  0  0  0  0
  144.4870  154.8800  133.0350 O   0  0  0  0  0  0  0  0  0  0  0  0
  143.7710  155.5560  134.0310 C   0  0  0  0  0  0  0  0  0  0  0  0
  143.3100  154.9290  135.0240 O   0  0  0  0  0  0  0  0  0  0  0  0
  143.5840  156.9750  133.9330 N   0  0  0  0  0  0  0  0  0  0  0  0
  142.4080  157.6640  133.9230 C   0  0  0  0  0  0  0  0  0  0  0  0
  141.0670  157.0920  134.1640 C   0  0  0  0  0  0  0  0  0  0  0  0
  140.8040  155.7330  133.8230 N   0  0  0  0  0  0  0  0  0  0  0  0
  140.1400  157.7990  134.6410 O   0  0  0  0  0  0  0  0  0  0  0  0
  142.6420  159.0250  133.7260 C   0  0  0  0  0  0  0  0  0  0  0  0
  144.0090  159.1470  133.6160 C   0  0  0  0  0  0  0  0  0  0  0  0
  144.7910  160.2770  133.4040 C   0  0  0  0  0  0  0  0  0  0  0  0
  146.1820  160.1060  133.3030 C   0  0  0  0  0  0  0  0  0  0  0  0
  146.7620  158.8130  133.3870 C   0  0  0  0  0  0  0  0  0  0  0  0
  148.2590  158.6460  133.3110 C   0  0  0  0  0  0  0  0  0  0  0  0
  148.7860  159.4340  132.3010 F   0  0  0  0  0  0  0  0  0  0  0  0
  148.8550  159.0140  134.5030 F   0  0  0  0  0  0  0  0  0  0  0  0
  148.5550  157.3210  133.0490 F   0  0  0  0  0  0  0  0  0  0  0  0
  145.9330  157.6930  133.6270 C   0  0  0  0  0  0  0  0  0  0  0  0
  144.5530  157.8970  133.7420 C   0  0  0  0  0  0  0  0  0  0  0  0
  143.1890  151.6000  132.6120 C   0  0  0  0  0  0  0  0  0  0  0  0
  144.3860  151.1980  132.6290 O   0  0  0  0  0  0  0  0  0  0  0  0
  142.5121  148.7172  133.1867 H   0  0  0  0  0  0  0  0  0  0  0  0
  141.5797  148.7922  131.6532 H   0  0  0  0  0  0  0  0  0  0  0  0
  143.3390  149.1545  131.6532 H   0  0  0  0  0  0  0  0  0  0  0  0
  140.3676  151.1160  131.3954 H   0  0  0  0  0  0  0  0  0  0  0  0
  140.1106  150.4566  133.0580 H   0  0  0  0  0  0  0  0  0  0  0  0
  139.6063  152.9398  132.7904 H   0  0  0  0  0  0  0  0  0  0  0  0
  140.7965  152.5275  134.0756 H   0  0  0  0  0  0  0  0  0  0  0  0
  142.9276  153.2465  133.9224 H   0  0  0  0  0  0  0  0  0  0  0  0
  144.6794  153.3334  131.6757 H   0  0  0  0  0  0  0  0  0  0  0  0
  143.3731  154.5303  131.3337 H   0  0  0  0  0  0  0  0  0  0  0  0
  141.5790  155.0390  133.7420 H   0  0  0  0  0  0  0  0  0  0  0  0
  141.8938  159.8294  133.6704 H   0  0  0  0  0  0  0  0  0  0  0  0
  144.3347  161.2742  133.3180 H   0  0  0  0  0  0  0  0  0  0  0  0
  146.8287  160.9838  133.1572 H   0  0  0  0  0  0  0  0  0  0  0  0
  146.3626  156.6847  133.7212 H   0  0  0  0  0  0  0  0  0  0  0  0
  1  2  1  0
  2  3  1  0
  3  4  1  0
  4  5  1  0
  5  6  1  0
  6  7  1  0
  7  8  1  0
  8  9  1  0
  9 10  2  0
  9 11  1  0
 11 12  1  0
 12 13  1  0
 13 14  1  0
 13 15  2  0
 12 16  2  0
 16 17  1  0
 17 18  2  0
 18 19  1  0
 19 20  2  0
 20 21  1  0
 21 22  1  0
 21 23  1  0
 21 24  1  0
 20 25  1  0
 25 26  2  0
  6 27  1  0
 27 28  2  0
 27  2  1  0
 26 11  1  0
 26 17  1  0
  1 29  1  0
  1 30  1  0
  1 31  1  0
  3 32  1  0
  3 33  1  0
  4 34  1  0
  4 35  1  0
  6 36  1  1
  7 37  1  0
  7 38  1  0
 14 39  1  0
 16 40  1  0
 18 41  1  0
 19 42  1  0
 25 43  1  0
M  CHG  1  14  -1
M  END
>  <UniqueID>  (6) 
6

>  <SMILES>  (6) 
CN1CCO[C@H](COC(=O)n2c(C([NH-])=O)cc3ccc(C(F)(F)F)cc32)C1=O

>  <Energy>  (6) 
83.12034957351659

>  <Genealogy>  (6) 
CN1CCO[C@H](COC(=O)n2c(C([NH-])=O)cc3ccc(C(F)(F)F)cc32)C1=O (protonated)
CN1CCO[C@H](COC(=O)n2c(C([NH-])=O)cc3ccc(C(F)(F)F)cc32)C1=O (3D coordinates assigned)
CN1CCO[C@H](COC(=O)n2c(C([NH-])=O)cc3ccc(C(F)(F)F)cc32)C1=O (nonaromatic ring conformer: 83.12034957351659 kcal/mol)

>  <smiles>  (6) 
CN1CCO[C@H](COC(=O)n2c(C(N)=O)cc3ccc(C(F)(F)F)cc32)C1=O

>  <score_type>  (6) 
oracle

>  <origin>  (6) 
adg

>  <m_score__min__energy>  (6) 
-6.8899999999999997

>  <m_primary>  (6) 
energy

$$$$
6:0
     RDKit          3D

 34 36  0  0  0  0  0  0  0  0999 V2000
  146.2024  155.0044  133.8245 H   0  0  0  0  0  0  0  0  0  0  0  0
  146.9160  155.8230  134.0000 C   0  0  0  0  0  0  0  0  0  0  0  0
  147.0060  156.9100  133.0070 C   0  0  0  0  0  0  0  0  0  0  0  0
  147.6540  156.7130  131.9450 O   0  0  0  0  0  0  0  0  0  0  0  0
  146.3910  158.1900  133.2280 N   0  0  0  0  0  0  0  0  0  0  0  0
  146.9430  159.4260  133.0620 C   0  0  0  0  0  0  0  0  0  0  0  0
  148.3520  159.6870  132.6920 C   0  0  0  0  0  0  0  0  0  0  0  0
  148.6460  160.6910  131.9910 O   0  0  0  0  0  0  0  0  0  0  0  0
  149.3960  158.8030  133.1070 N   0  0  0  0  0  0  0  0  0  0  0  0
  149.2080  157.9990  133.7450 H   0  0  0  0  0  0  0  0  0  0  0  0
  150.3800  158.9810  132.8100 H   0  0  0  0  0  0  0  0  0  0  0  0
  146.0060  160.4170  133.3560 C   0  0  0  0  0  0  0  0  0  0  0  0
  146.1510  161.5064  133.3094 H   0  0  0  0  0  0  0  0  0  0  0  0
  144.8610  159.7420  133.7170 C   0  0  0  0  0  0  0  0  0  0  0  0
  143.6150  160.2290  134.1000 C   0  0  0  0  0  0  0  0  0  0  0  0
  143.4238  161.3104  134.1630 H   0  0  0  0  0  0  0  0  0  0  0  0
  142.6080  159.2960  134.4040 C   0  0  0  0  0  0  0  0  0  0  0  0
  141.6099  159.6489  134.7026 H   0  0  0  0  0  0  0  0  0  0  0  0
  142.8680  157.9040  134.3290 C   0  0  0  0  0  0  0  0  0  0  0  0
  141.7730  156.9190  134.6100 C   0  0  0  0  0  0  0  0  0  0  0  0
  141.6497  156.8081  135.6974 H   0  0  0  0  0  0  0  0  0  0  0  0
  140.8323  157.2809  134.1694 H   0  0  0  0  0  0  0  0  0  0  0  0
  142.0336  155.9454  134.1694 H   0  0  0  0  0  0  0  0  0  0  0  0
  144.1410  157.4480  133.9220 C   0  0  0  0  0  0  0  0  0  0  0  0
  144.3541  156.3724  133.8340 H   0  0  0  0  0  0  0  0  0  0  0  0
  145.1230  158.4000  133.6340 C   0  0  0  0  0  0  0  0  0  0  0  0
  147.6680  155.7940  135.1050 C   0  0  0  0  0  0  0  0  0  0  0  0
  148.3802  156.6127  135.2856 H   0  0  0  0  0  0  0  0  0  0  0  0
  147.5740  154.7030  136.0870 C   0  0  0  0  0  0  0  0  0  0  0  0
  146.6080  153.7630  136.0470 N   0  0  0  0  0  0  0  0  0  0  0  0
  146.8550  152.9850  137.0570 O   0  0  0  0  0  0  0  0  0  0  0  0
  147.9170  153.4220  137.6850 C   0  0  0  0  0  0  0  0  0  0  0  0
  148.4010  152.8730  138.7070 O   0  0  0  0  0  0  0  0  0  0  0  0
  148.4340  154.5260  137.1150 N   0  0  0  0  0  0  0  0  0  0  0  0
  1  2  1  0
  2  3  1  0
  3  4  2  0
  3  5  1  0
  5  6  1  0
  6  7  1  0
  7  8  2  0
  7  9  1  0
  9 10  1  0
  9 11  1  0
  6 12  2  0
 12 13  1  0
 12 14  1  0
 14 15  2  0
 15 16  1  0
 15 17  1  0
 17 18  1  0
 17 19  2  0
 19 20  1  0
 20 21  1  0
 20 22  1  0
 20 23  1  0
 19 24  1  0
 24 25  1  0
 24 26  2  0
  2 27  2  0
 27 28  1  0
 27 29  1  0
 29 30  2  0
 30 31  1  0
 31 32  1  0
 32 33  2  0
 32 34  1  0
 26  5  1  0
 34 29  1  0
 26 14  1  0
M  CHG  1  34  -1
M  END
>  <UniqueID>  (7) 
7

>  <SMILES>  (7) 
Cc1ccc2cc(C(N)=O)n(C(=O)/C=C/c3noc(=O)[n-]3)c2c1

>  <Energy>  (7) 
107.61788271311691

>  <Genealogy>  (7) 
Cc1ccc2cc(C(N)=O)n(C(=O)/C=C/c3noc(=O)[n-]3)c2c1 (protonated)
Cc1ccc2cc(C(N)=O)n(C(=O)/C=C/c3noc(=O)[n-]3)c2c1 (cis-trans isomerization)
Cc1ccc2cc(C(N)=O)n(C(=O)/C=C/c3noc(=O)[n-]3)c2c1 (3D coordinates assigned)
Cc1ccc2cc(C(N)=O)n(C(=O)/C=C/c3noc(=O)[n-]3)c2c1 (optimized conformer: 107.61788271311691 kcal/mol)

>  <smiles>  (7) 
Cc1ccc2cc(C(N)=O)n(C(=O)/C=C/c3noc(=O)[nH]3)c2c1

>  <score_type>  (7) 
oracle

>  <origin>  (7) 
adg

>  <m_score__min__energy>  (7) 
-8.1099999999999994

>  <m_primary>  (7) 
energy

$$$$
7:0
     RDKit          3D

 44 45  0  0  0  0  0  0  0  0999 V2000
  140.9110  157.4370  135.8480 C   0  0  0  0  0  0  0  0  0  0  0  0
  141.9410  156.7040  134.9950 C   0  0  0  0  0  0  0  0  0  0  0  0
  142.9560  157.6680  134.4410 C   0  0  0  0  0  0  0  0  0  0  0  0
  142.5530  158.9640  134.0290 C   0  0  0  0  0  0  0  0  0  0  0  0
  143.4860  159.8660  133.4890 C   0  0  0  0  0  0  0  0  0  0  0  0
  144.8040  159.4410  133.3580 C   0  0  0  0  0  0  0  0  0  0  0  0
  145.9170  160.1190  132.9120 C   0  0  0  0  0  0  0  0  0  0  0  0
  146.9690  159.2130  133.0280 C   0  0  0  0  0  0  0  0  0  0  0  0
  148.3580  159.5150  132.6280 C   0  0  0  0  0  0  0  0  0  0  0  0
  149.4400  158.6710  133.0190 N   0  0  0  0  0  0  0  0  0  0  0  0
  148.5870  160.5100  131.8900 O   0  0  0  0  0  0  0  0  0  0  0  0
  146.5280  158.0270  133.5290 N   0  0  0  0  0  0  0  0  0  0  0  0
  147.3110  156.9110  133.9750 C   0  0  0  0  0  0  0  0  0  0  0  0
  148.1830  157.0840  134.8690 O   0  0  0  0  0  0  0  0  0  0  0  0
  147.1740  155.5710  133.2950 C   0  0  2  0  0  0  0  0  0  0  0  0
  146.4470  154.6490  134.1080 O   0  0  0  0  0  0  0  0  0  0  0  0
  146.6950  154.4600  135.4720 C   0  0  0  0  0  0  0  0  0  0  0  0
  147.1660  153.3750  135.9050 O   0  0  0  0  0  0  0  0  0  0  0  0
  148.5410  155.0170  133.0470 C   0  0  0  0  0  0  0  0  0  0  0  0
  149.4470  155.7610  132.5800 O   0  0  0  0  0  0  0  0  0  0  0  0
  148.8110  153.6840  133.3710 O   0  0  0  0  0  0  0  0  0  0  0  0
  149.0420  152.6850  132.3850 C   0  0  0  0  0  0  0  0  0  0  0  0
  147.8300  151.7650  132.3010 C   0  0  0  0  0  0  0  0  0  0  0  0
  146.7350  152.3400  132.9600 O   0  0  0  0  0  0  0  0  0  0  0  0
  145.2020  158.1820  133.7270 C   0  0  0  0  0  0  0  0  0  0  0  0
  144.3010  157.2670  134.2820 C   0  0  0  0  0  0  0  0  0  0  0  0
  141.1360  157.2769  136.9128 H   0  0  0  0  0  0  0  0  0  0  0  0
  140.9478  158.5132  135.6232 H   0  0  0  0  0  0  0  0  0  0  0  0
  139.9063  157.0496  135.6232 H   0  0  0  0  0  0  0  0  0  0  0  0
  142.4553  155.9545  135.6145 H   0  0  0  0  0  0  0  0  0  0  0  0
  141.4228  156.2155  134.1567 H   0  0  0  0  0  0  0  0  0  0  0  0
  141.5004  159.2661  134.1331 H   0  0  0  0  0  0  0  0  0  0  0  0
  143.1831  160.8771  133.1794 H   0  0  0  0  0  0  0  0  0  0  0  0
  145.9650  161.1542  132.5432 H   0  0  0  0  0  0  0  0  0  0  0  0
  150.4220  158.9310  132.7750 H   0  0  0  0  0  0  0  0  0  0  0  0
  149.2670  157.7500  133.4780 H   0  0  0  0  0  0  0  0  0  0  0  0
  146.6264  155.7123  132.3515 H   0  0  0  0  0  0  0  0  0  0  0  0
  146.4747  155.2735  136.1789 H   0  0  0  0  0  0  0  0  0  0  0  0
  149.2069  153.1644  131.4088 H   0  0  0  0  0  0  0  0  0  0  0  0
  149.9304  152.0973  132.6593 H   0  0  0  0  0  0  0  0  0  0  0  0
  147.5720  151.6007  131.2444 H   0  0  0  0  0  0  0  0  0  0  0  0
  148.0745  150.8070  132.7832 H   0  0  0  0  0  0  0  0  0  0  0  0
  147.0470  152.5860  133.8700 H   0  0  0  0  0  0  0  0  0  0  0  0
  144.6309  156.2627  134.5862 H   0  0  0  0  0  0  0  0  0  0  0  0
  1  2  1  0
  2  3  1  0
  3  4  2  0
  4  5  1  0
  5  6  2  0
  6  7  1  0
  7  8  2  0
  8  9  1  0
  9 10  1  0
  9 11  2  0
  8 12  1  0
 12 13  1  0
 13 14  2  0
 13 15  1  0
 15 16  1  0
 16 17  1  0
 17 18  2  0
 15 19  1  0
 19 20  2  0
 19 21  1  0
 21 22  1  0
 22 23  1  0
 23 24  1  0
 12 25  1  0
 25 26  2  0
 26  3  1  0
 25  6  1  0
  1 27  1  0
  1 28  1  0
  1 29  1  0
  2 30  1  0
  2 31  1  0
  4 32  1  0
  5 33  1  0
  7 34  1  0
 10 35  1  0
 10 36  1  0
 15 37  1  6
 17 38  1  0
 22 39  1  0
 22 40  1  0
 23 41  1  0
 23 42  1  0
 24 43  1  0
 26 44  1  0
M  END
>  <UniqueID>  (8) 
8

>  <SMILES>  (8) 
CCc1ccc2cc(C(N)=O)n(C(=O)[C@H](OC=O)C(=O)OCCO)c2c1

>  <Energy>  (8) 
72.537472647143

>  <Genealogy>  (8) 
CCc1ccc2cc(C(N)=O)n(C(=O)[C@H](OC=O)C(=O)OCCO)c2c1 (3D coordinates assigned)
CCc1ccc2cc(C(N)=O)n(C(=O)[C@H](OC=O)C(=O)OCCO)c2c1 (optimized conformer: 72.537472647143 kcal/mol)

>  <smiles>  (8) 
CCc1ccc2cc(C(N)=O)n(C(=O)[C@H](OC=O)C(=O)OCCO)c2c1

>  <score_type>  (8) 
oracle

>  <origin>  (8) 
adg

>  <m_score__min__energy>  (8) 
-5.9500000000000002

>  <m_primary>  (8) 
energy

$$$$
8:0
     RDKit          3D

 44 46  0  0  0  0  0  0  0  0999 V2000
  141.4410  159.7560  134.0270 C   0  0  0  0  0  0  0  0  0  0  0  0
  140.1740  159.6050  133.2970 N   0  0  0  0  0  0  0  0  0  0  0  0
  140.3620  159.3770  131.8610 C   0  0  0  0  0  0  0  0  0  0  0  0
  139.1260  158.6310  131.3650 C   0  0  0  0  0  0  0  0  0  0  0  0
  138.3180  158.2980  132.6100 C   0  0  0  0  0  0  0  0  0  0  0  0
  139.2720  158.5430  133.7770 C   0  0  1  0  0  0  0  0  0  0  0  0
  140.0020  157.2330  134.1840 C   0  0  0  0  0  0  0  0  0  0  0  0
  140.3600  156.4680  133.0340 O   0  0  0  0  0  0  0  0  0  0  0  0
  140.3900  155.0690  133.0160 C   0  0  0  0  0  0  0  0  0  0  0  0
  139.3150  154.4090  132.9830 O   0  0  0  0  0  0  0  0  0  0  0  0
  141.6510  154.3820  133.0500 N   0  0  0  0  0  0  0  0  0  0  0  0
  142.8970  154.9300  133.1090 C   0  0  0  0  0  0  0  0  0  0  0  0
  143.1950  156.3690  133.2920 C   0  0  0  0  0  0  0  0  0  0  0  0
  142.6400  157.3470  132.4110 N   0  0  0  0  0  0  0  0  0  0  0  0
  143.9700  156.7420  134.2120 O   0  0  0  0  0  0  0  0  0  0  0  0
  143.8710  153.9330  133.0680 C   0  0  0  0  0  0  0  0  0  0  0  0
  143.1760  152.7490  132.9880 C   0  0  0  0  0  0  0  0  0  0  0  0
  143.6450  151.4420  132.9040 C   0  0  0  0  0  0  0  0  0  0  0  0
  142.7000  150.4070  132.8000 C   0  0  0  0  0  0  0  0  0  0  0  0
  141.3100  150.6930  132.7940 C   0  0  0  0  0  0  0  0  0  0  0  0
  140.3090  149.5790  132.6190 C   0  0  0  0  0  0  0  0  0  0  0  0
  139.0660  150.0870  132.2840 F   0  0  0  0  0  0  0  0  0  0  0  0
  140.7090  148.7170  131.6120 F   0  0  0  0  0  0  0  0  0  0  0  0
  140.2030  148.8720  133.8010 F   0  0  0  0  0  0  0  0  0  0  0  0
  140.8750  152.0360  132.8580 C   0  0  0  0  0  0  0  0  0  0  0  0
  141.8380  153.0450  132.9790 C   0  0  0  0  0  0  0  0  0  0  0  0
  141.2456  159.7327  135.1093 H   0  0  0  0  0  0  0  0  0  0  0  0
  142.1190  158.9323  133.7590 H   0  0  0  0  0  0  0  0  0  0  0  0
  141.9064  160.7160  133.7590 H   0  0  0  0  0  0  0  0  0  0  0  0
  140.4602  160.3381  131.3350 H   0  0  0  0  0  0  0  0  0  0  0  0
  141.2759  158.7949  131.6710 H   0  0  0  0  0  0  0  0  0  0  0  0
  138.5399  159.2685  130.6867 H   0  0  0  0  0  0  0  0  0  0  0  0
  139.3973  157.7251  130.8031 H   0  0  0  0  0  0  0  0  0  0  0  0
  137.4375  158.9530  132.6862 H   0  0  0  0  0  0  0  0  0  0  0  0
  137.9411  157.2647  132.5941 H   0  0  0  0  0  0  0  0  0  0  0  0
  138.7626  158.8582  134.6996 H   0  0  0  0  0  0  0  0  0  0  0  0
  140.9136  157.4885  134.7441 H   0  0  0  0  0  0  0  0  0  0  0  0
  139.3225  156.6324  134.8065 H   0  0  0  0  0  0  0  0  0  0  0  0
  141.9520  157.0840  131.6730 H   0  0  0  0  0  0  0  0  0  0  0  0
  142.8880  158.3550  132.5250 H   0  0  0  0  0  0  0  0  0  0  0  0
  144.9627  154.0653  133.0941 H   0  0  0  0  0  0  0  0  0  0  0  0
  144.7233  151.2251  132.9186 H   0  0  0  0  0  0  0  0  0  0  0  0
  143.0414  149.3642  132.7224 H   0  0  0  0  0  0  0  0  0  0  0  0
  139.8040  152.2830  132.8137 H   0  0  0  0  0  0  0  0  0  0  0  0
  1  2  1  0
  2  3  1  0
  3  4  1  0
  4  5  1  0
  5  6  1  0
  6  7  1  0
  7  8  1  0
  8  9  1  0
  9 10  2  0
  9 11  1  0
 11 12  1  0
 12 13  1  0
 13 14  1  0
 13 15  2  0
 12 16  2  0
 16 17  1  0
 17 18  2  0
 18 19  1  0
 19 20  2  0
 20 21  1  0
 21 22  1  0
 21 23  1  0
 21 24  1  0
 20 25  1  0
 25 26  2  0
  6  2  1  0
 26 11  1  0
 26 17  1  0
  1 27  1  0
  1 28  1  0
  1 29  1  0
  3 30  1  0
  3 31  1  0
  4 32  1  0
  4 33  1  0
  5 34  1  0
  5 35  1  0
  6 36  1  1
  7 37  1  0
  7 38  1  0
 14 39  1  0
 14 40  1  0
 16 41  1  0
 18 42  1  0
 19 43  1  0
 25 44  1  0
M  END
>  <UniqueID>  (9) 
9

>  <SMILES>  (9) 
CN1CCC[C@H]1COC(=O)n1c(C(N)=O)cc2ccc(C(F)(F)F)cc21

>  <Energy>  (9) 
88.63017790554562

>  <Genealogy>  (9) 
CN1CCC[C@H]1COC(=O)n1c(C(N)=O)cc2ccc(C(F)(F)F)cc21 (chirality)
CN1CCC[C@H]1COC(=O)n1c(C(N)=O)cc2ccc(C(F)(F)F)cc21 (3D coordinates assigned)
CN1CCC[C@H]1COC(=O)n1c(C(N)=O)cc2ccc(C(F)(F)F)cc21 (nonaromatic ring conformer: 88.63017790554562 kcal/mol)

>  <smiles>  (9) 
CN1CCCC1COC(=O)n1c(C(N)=O)cc2ccc(C(F)(F)F)cc21

>  <score_type>  (9) 
oracle

>  <origin>  (9) 
adg

>  <m_score__min__energy>  (9) 
-7.5499999999999998

>  <m_primary>  (9) 
energy

$$$$
9:0
     RDKit          3D

 33 34  0  0  0  0  0  0  0  0999 V2000
  144.5760  154.1150  136.7010 N   0  0  0  0  0  0  0  0  0  0  0  0
  143.9670  154.7390  135.5700 C   0  0  0  0  0  0  0  0  0  0  0  0
  142.7990  154.4050  135.2360 O   0  0  0  0  0  0  0  0  0  0  0  0
  144.6540  155.8130  134.8240 C   0  0  0  0  0  0  0  0  0  0  0  0
  143.9900  156.8830  134.2330 C   0  0  0  0  0  0  0  0  0  0  0  0
  144.9810  157.6820  133.7110 C   0  0  0  0  0  0  0  0  0  0  0  0
  144.8860  158.8820  133.0140 C   0  0  0  0  0  0  0  0  0  0  0  0
  146.0770  159.4800  132.5680 C   0  0  0  0  0  0  0  0  0  0  0  0
  147.3320  158.8590  132.7990 C   0  0  0  0  0  0  0  0  0  0  0  0
  148.6050  159.5290  132.3460 C   0  0  0  0  0  0  0  0  0  0  0  0
  149.0450  158.9870  131.1510 F   0  0  0  0  0  0  0  0  0  0  0  0
  149.6050  159.3660  133.2890 F   0  0  0  0  0  0  0  0  0  0  0  0
  148.3700  160.8790  132.1690 F   0  0  0  0  0  0  0  0  0  0  0  0
  147.3870  157.6500  133.5300 C   0  0  0  0  0  0  0  0  0  0  0  0
  146.1870  157.0880  133.9820 C   0  0  0  0  0  0  0  0  0  0  0  0
  146.0020  155.9350  134.6620 N   0  0  0  0  0  0  0  0  0  0  0  0
  147.0150  154.9880  135.0380 C   0  0  0  0  0  0  0  0  0  0  0  0
  147.4930  154.2030  134.1750 O   0  0  0  0  0  0  0  0  0  0  0  0
  147.4620  154.9360  136.3630 O   0  0  0  0  0  0  0  0  0  0  0  0
  147.9130  153.7350  136.9840 C   0  0  0  0  0  0  0  0  0  0  0  0
  146.8550  152.8130  137.1220 O   0  0  0  0  0  0  0  0  0  0  0  0
  146.4030  152.7270  138.7660 P   0  0  0  0  0  0  0  0  0  0  0  0
  144.8950  152.7400  138.8600 O   0  0  0  0  0  0  0  0  0  0  0  0
  146.9840  151.2940  139.4530 O   0  0  0  0  0  0  0  0  0  0  0  0
  147.0170  154.0530  139.6200 O   0  0  0  0  0  0  0  0  0  0  0  0
  145.4630  154.4860  137.1080 H   0  0  0  0  0  0  0  0  0  0  0  0
  144.0930  153.3310  137.1900 H   0  0  0  0  0  0  0  0  0  0  0  0
  142.9041  157.0539  134.1918 H   0  0  0  0  0  0  0  0  0  0  0  0
  143.9092  159.3483  132.8181 H   0  0  0  0  0  0  0  0  0  0  0  0
  146.0360  160.4406  132.0336 H   0  0  0  0  0  0  0  0  0  0  0  0
  148.3505  157.1621  133.7388 H   0  0  0  0  0  0  0  0  0  0  0  0
  148.7046  153.2854  136.3665 H   0  0  0  0  0  0  0  0  0  0  0  0
  148.2992  153.9797  137.9845 H   0  0  0  0  0  0  0  0  0  0  0  0
  1  2  1  0
  2  3  2  0
  2  4  1  0
  4  5  2  0
  5  6  1  0
  6  7  2  0
  7  8  1  0
  8  9  2  0
  9 10  1  0
 10 11  1  0
 10 12  1  0
 10 13  1  0
  9 14  1  0
 14 15  2  0
 15 16  1  0
 16 17  1  0
 17 18  2  0
 17 19  1  0
 19 20  1  0
 20 21  1  0
 21 22  1  0
 22 23  2  0
 22 24  1  0
 22 25  1  0
 16  4  1  0
 15  6  1  0
  1 26  1  0
  1 27  1  0
  5 28  1  0
  7 29  1  0
  8 30  1  0
 14 31  1  0
 20 32  1  0
 20 33  1  0
M  CHG  2  24  -1  25  -1
M  END
>  <UniqueID>  (10) 
10

>  <SMILES>  (10) 
NC(=O)c1cc2ccc(C(F)(F)F)cc2n1C(=O)OCOP(=O)([O-])[O-]

>  <Energy>  (10) 
71.00500866663857

>  <Genealogy>  (10) 
NC(=O)c1cc2ccc(C(F)(F)F)cc2n1C(=O)OCOP(=O)([O-])[O-] (protonated)
NC(=O)c1cc2ccc(C(F)(F)F)cc2n1C(=O)OCOP(=O)([O-])[O-] (3D coordinates assigned)
NC(=O)c1cc2ccc(C(F)(F)F)cc2n1C(=O)OCOP(=O)([O-])[O-] (optimized conformer: 71.00500866663857 kcal/mol)

>  <smiles>  (10) 
NC(=O)c1cc2ccc(C(F)(F)F)cc2n1C(=O)OCOP(=O)(O)O

>  <score_type>  (10) 
oracle

>  <origin>  (10) 
adg

>  <m_score__min__energy>  (10) 
-5.8300000000000001

>  <m_primary>  (10) 
energy

$$$$
10:0
     RDKit          3D

 41 42  0  0  0  0  0  0  0  0999 V2000
  144.8270  161.4050  133.9090 C   0  0  0  0  0  0  0  0  0  0  0  0
  144.4830  159.9560  133.7420 C   0  0  0  0  0  0  0  0  0  0  0  0
  143.1460  159.5790  133.4750 C   0  0  0  0  0  0  0  0  0  0  0  0
  142.8060  158.2260  133.2890 C   0  0  0  0  0  0  0  0  0  0  0  0
  143.8250  157.2800  133.3720 C   0  0  0  0  0  0  0  0  0  0  0  0
  143.7860  155.9130  133.2060 C   0  0  0  0  0  0  0  0  0  0  0  0
  145.1000  155.4830  133.3770 C   0  0  0  0  0  0  0  0  0  0  0  0
  145.5110  154.0650  133.3480 C   0  0  0  0  0  0  0  0  0  0  0  0
  145.9640  153.4120  134.5320 N   0  0  0  0  0  0  0  0  0  0  0  0
  145.4240  153.4110  132.2750 O   0  0  0  0  0  0  0  0  0  0  0  0
  145.9180  156.5420  133.6320 N   0  0  0  0  0  0  0  0  0  0  0  0
  147.3500  156.5530  133.7040 C   0  0  0  0  0  0  0  0  0  0  0  0
  147.9210  157.1340  134.6640 O   0  0  0  0  0  0  0  0  0  0  0  0
  148.1750  155.9570  132.5920 C   0  0  0  0  0  0  0  0  0  0  0  0
  147.9890  154.4980  132.5020 N   0  0  0  0  0  0  0  0  0  0  0  0
  149.2760  153.7840  132.3810 C   0  0  0  0  0  0  0  0  0  0  0  0
  149.2830  152.4660  133.1860 C   0  0  1  0  0  0  0  0  0  0  0  0
  148.7660  152.6890  134.4750 O   0  0  0  0  0  0  0  0  0  0  0  0
  148.5070  151.3430  132.4820 C   0  0  0  0  0  0  0  0  0  0  0  0
  147.1320  151.6070  132.5480 O   0  0  0  0  0  0  0  0  0  0  0  0
  145.1240  157.6320  133.6300 C   0  0  0  0  0  0  0  0  0  0  0  0
  145.4920  158.9690  133.8130 C   0  0  0  0  0  0  0  0  0  0  0  0
  144.8845  161.6471  134.9805 H   0  0  0  0  0  0  0  0  0  0  0  0
  145.7984  161.6083  133.4345 H   0  0  0  0  0  0  0  0  0  0  0  0
  144.0507  162.0232  133.4345 H   0  0  0  0  0  0  0  0  0  0  0  0
  142.3646  160.3507  133.4122 H   0  0  0  0  0  0  0  0  0  0  0  0
  141.7679  157.9250  133.0845 H   0  0  0  0  0  0  0  0  0  0  0  0
  142.9047  155.2928  132.9853 H   0  0  0  0  0  0  0  0  0  0  0  0
  146.6300  152.6090  134.4810 H   0  0  0  0  0  0  0  0  0  0  0  0
  147.8733  156.4150  131.6385 H   0  0  0  0  0  0  0  0  0  0  0  0
  149.2356  156.1566  132.8049 H   0  0  0  0  0  0  0  0  0  0  0  0
  147.3570  154.2710  131.6980 H   0  0  0  0  0  0  0  0  0  0  0  0
  147.5160  154.1840  133.3800 H   0  0  0  0  0  0  0  0  0  0  0  0
  149.4563  153.5537  131.3206 H   0  0  0  0  0  0  0  0  0  0  0  0
  150.0653  154.4343  132.7861 H   0  0  0  0  0  0  0  0  0  0  0  0
  150.3282  152.1315  133.2613 H   0  0  0  0  0  0  0  0  0  0  0  0
  147.8420  152.3280  134.4930 H   0  0  0  0  0  0  0  0  0  0  0  0
  148.8187  151.2877  131.4285 H   0  0  0  0  0  0  0  0  0  0  0  0
  148.7189  150.3854  132.9802 H   0  0  0  0  0  0  0  0  0  0  0  0
  147.0050  152.1960  133.3370 H   0  0  0  0  0  0  0  0  0  0  0  0
  146.5390  159.2449  134.0070 H   0  0  0  0  0  0  0  0  0  0  0  0
  1  2  1  0
  2  3  2  0
  3  4  1  0
  4  5  2  0
  5  6  1  0
  6  7  2  0
  7  8  1  0
  8  9  1  0
  8 10  2  0
  7 11  1  0
 11 12  1  0
 12 13  2  0
 12 14  1  0
 14 15  1  0
 15 16  1  0
 16 17  1  0
 17 18  1  0
 17 19  1  0
 19 20  1  0
 11 21  1  0
 21 22  2  0
 22  2  1  0
 21  5  1  0
  1 23  1  0
  1 24  1  0
  1 25  1  0
  3 26  1  0
  4 27  1  0
  6 28  1  0
  9 29  1  0
 14 30  1  0
 14 31  1  0
 15 32  1  0
 15 33  1  0
 16 34  1  0
 16 35  1  0
 17 36  1  1
 18 37  1  0
 19 38  1  0
 19 39  1  0
 20 40  1  0
 22 41  1  0
M  CHG  2   9  -1  15   1
M  END
>  <UniqueID>  (11) 
11

>  <SMILES>  (11) 
Cc1ccc2cc(C([NH-])=O)n(C(=O)C[NH2+]C[C@@H](O)CO)c2c1

>  <Energy>  (11) 
76.86419725082648

>  <Genealogy>  (11) 
Cc1ccc2cc(C([NH-])=O)n(C(=O)C[NH2+]CC(O)CO)c2c1 (protonated)
Cc1ccc2cc(C([NH-])=O)n(C(=O)C[NH2+]C[C@@H](O)CO)c2c1 (chirality)
Cc1ccc2cc(C([NH-])=O)n(C(=O)C[NH2+]C[C@@H](O)CO)c2c1 (3D coordinates assigned)
Cc1ccc2cc(C([NH-])=O)n(C(=O)C[NH2+]C[C@@H](O)CO)c2c1 (optimized conformer: 76.86419725082648 kcal/mol)

>  <smiles>  (11) 
Cc1ccc2cc(C(N)=O)n(C(=O)CNCC(O)CO)c2c1

>  <score_type>  (11) 
oracle

>  <origin>  (11) 
adg

>  <m_score__min__energy>  (11) 
-4.5499999999999998

>  <m_primary>  (11) 
energy

$$$$
11:0
     RDKit          3D

 35 36  0  0  0  0  0  0  0  0999 V2000
  139.4950  149.5260  131.6350 C   0  0  0  0  0  0  0  0  0  0  0  0
  139.4000  150.8080  132.2180 O   0  0  0  0  0  0  0  0  0  0  0  0
  140.6070  151.1370  132.8770 C   0  0  0  0  0  0  0  0  0  0  0  0
  140.7480  152.5940  132.9810 C   0  0  0  0  0  0  0  0  0  0  0  0
  140.8610  153.7910  133.0610 C   0  0  0  0  0  0  0  0  0  0  0  0
  140.9890  155.1520  133.1520 O   0  0  0  0  0  0  0  0  0  0  0  0
  139.8800  155.9920  133.2890 C   0  0  0  0  0  0  0  0  0  0  0  0
  138.7320  155.5890  132.9500 O   0  0  0  0  0  0  0  0  0  0  0  0
  140.0500  157.3160  133.8200 N   0  0  0  0  0  0  0  0  0  0  0  0
  140.0090  158.4910  133.1300 C   0  0  0  0  0  0  0  0  0  0  0  0
  139.6080  158.6530  131.7180 C   0  0  0  0  0  0  0  0  0  0  0  0
  138.5690  157.8550  131.1480 N   0  0  0  0  0  0  0  0  0  0  0  0
  140.1520  159.5470  131.0180 O   0  0  0  0  0  0  0  0  0  0  0  0
  140.3530  159.5590  133.9540 C   0  0  0  0  0  0  0  0  0  0  0  0
  140.5960  159.0000  135.1880 C   0  0  0  0  0  0  0  0  0  0  0  0
  141.0020  159.6020  136.3750 C   0  0  0  0  0  0  0  0  0  0  0  0
  141.2240  158.7770  137.4890 C   0  0  0  0  0  0  0  0  0  0  0  0
  141.0330  157.3730  137.4030 C   0  0  0  0  0  0  0  0  0  0  0  0
  141.3390  156.4920  138.5880 C   0  0  0  0  0  0  0  0  0  0  0  0
  141.6750  157.2840  139.6690 F   0  0  0  0  0  0  0  0  0  0  0  0
  140.2390  155.7190  138.9180 F   0  0  0  0  0  0  0  0  0  0  0  0
  142.3950  155.6430  138.3050 F   0  0  0  0  0  0  0  0  0  0  0  0
  140.6450  156.7980  136.1700 C   0  0  0  0  0  0  0  0  0  0  0  0
  140.4090  157.6460  135.0810 C   0  0  0  0  0  0  0  0  0  0  0  0
  139.5513  148.7658  132.4280 H   0  0  0  0  0  0  0  0  0  0  0  0
  138.6082  149.3402  131.0113 H   0  0  0  0  0  0  0  0  0  0  0  0
  140.3995  149.4729  131.0113 H   0  0  0  0  0  0  0  0  0  0  0  0
  140.6005  150.6998  133.8864 H   0  0  0  0  0  0  0  0  0  0  0  0
  141.4521  150.7354  132.2987 H   0  0  0  0  0  0  0  0  0  0  0  0
  137.9860  157.2250  131.7420 H   0  0  0  0  0  0  0  0  0  0  0  0
  138.3260  157.9560  130.1380 H   0  0  0  0  0  0  0  0  0  0  0  0
  140.4169  160.6219  133.6780 H   0  0  0  0  0  0  0  0  0  0  0  0
  141.1446  160.6909  136.4385 H   0  0  0  0  0  0  0  0  0  0  0  0
  141.5498  159.2239  138.4399 H   0  0  0  0  0  0  0  0  0  0  0  0
  140.5312  155.7086  136.0690 H   0  0  0  0  0  0  0  0  0  0  0  0
  1  2  1  0
  2  3  1  0
  3  4  1  0
  4  5  3  0
  5  6  1  0
  6  7  1  0
  7  8  2  0
  7  9  1  0
  9 10  1  0
 10 11  1  0
 11 12  1  0
 11 13  2  0
 10 14  2  0
 14 15  1  0
 15 16  2  0
 16 17  1  0
 17 18  2  0
 18 19  1  0
 19 20  1  0
 19 21  1  0
 19 22  1  0
 18 23  1  0
 23 24  2  0
 24  9  1  0
 24 15  1  0
  1 25  1  0
  1 26  1  0
  1 27  1  0
  3 28  1  0
  3 29  1  0
 12 30  1  0
 12 31  1  0
 14 32  1  0
 16 33  1  0
 17 34  1  0
 23 35  1  0
M  END
>  <UniqueID>  (12) 
12

>  <SMILES>  (12) 
COCC#COC(=O)n1c(C(N)=O)cc2ccc(C(F)(F)F)cc21

>  <Energy>  (12) 
73.04094147991816

>  <Genealogy>  (12) 
COCC#COC(=O)n1c(C(N)=O)cc2ccc(C(F)(F)F)cc21 (3D coordinates assigned)
COCC#COC(=O)n1c(C(N)=O)cc2ccc(C(F)(F)F)cc21 (optimized conformer: 73.04094147991816 kcal/mol)

>  <smiles>  (12) 
COCC#COC(=O)n1c(C(N)=O)cc2ccc(C(F)(F)F)cc21

>  <score_type>  (12) 
oracle

>  <origin>  (12) 
adg

>  <m_score__min__energy>  (12) 
-6.5999999999999996

>  <m_primary>  (12) 
energy

$$$$
12:0
     RDKit          3D

 36 38  0  0  0  0  0  0  0  0999 V2000
  143.1800  161.2640  133.3780 N   0  0  0  0  0  0  0  0  0  0  0  0
  144.5300  161.3330  133.8330 C   0  0  0  0  0  0  0  0  0  0  0  0
  144.9260  162.3640  134.4400 O   0  0  0  0  0  0  0  0  0  0  0  0
  145.4570  160.2150  133.5630 C   0  0  0  0  0  0  0  0  0  0  0  0
  146.8300  160.3710  133.3820 C   0  0  0  0  0  0  0  0  0  0  0  0
  147.3270  159.0940  133.2440 C   0  0  0  0  0  0  0  0  0  0  0  0
  148.6290  158.6550  133.0350 C   0  0  0  0  0  0  0  0  0  0  0  0
  148.8470  157.2700  132.9130 C   0  0  0  0  0  0  0  0  0  0  0  0
  147.7650  156.3530  132.9990 C   0  0  0  0  0  0  0  0  0  0  0  0
  148.0040  154.8940  132.8620 C   0  0  0  0  0  0  0  0  0  0  0  0
  146.9570  153.9680  132.9880 C   0  0  0  0  0  0  0  0  0  0  0  0
  147.1990  152.6390  132.8510 N   0  0  0  0  0  0  0  0  0  0  0  0
  148.4500  152.1790  132.5940 C   0  0  0  0  0  0  0  0  0  0  0  0
  149.4820  153.0510  132.4690 N   0  0  0  0  0  0  0  0  0  0  0  0
  149.2860  154.3890  132.5940 C   0  0  0  0  0  0  0  0  0  0  0  0
  146.4560  156.8450  133.2160 C   0  0  0  0  0  0  0  0  0  0  0  0
  146.2740  158.2240  133.3400 C   0  0  0  0  0  0  0  0  0  0  0  0
  145.1200  158.8960  133.5290 N   0  0  0  0  0  0  0  0  0  0  0  0
  143.8090  158.3160  133.5950 C   0  0  0  0  0  0  0  0  0  0  0  0
  143.2910  157.8250  132.5570 O   0  0  0  0  0  0  0  0  0  0  0  0
  143.0080  158.3900  134.8580 C   0  0  0  0  0  0  0  0  0  0  0  0
  141.3130  158.9430  134.4980 P   0  0  2  0  0  0  0  0  0  0  0  0
  140.9620  160.1200  135.3790 O   0  0  0  0  0  0  0  0  0  0  0  0
  140.2420  157.6740  134.8140 O   0  0  0  0  0  0  0  0  0  0  0  0
  141.1800  159.3870  132.8700 O   0  0  0  0  0  0  0  0  0  0  0  0
  142.4450  160.7940  133.9500 H   0  0  0  0  0  0  0  0  0  0  0  0
  147.3963  161.3136  133.3551 H   0  0  0  0  0  0  0  0  0  0  0  0
  149.4636  159.3683  132.9670 H   0  0  0  0  0  0  0  0  0  0  0  0
  149.8672  156.8929  132.7491 H   0  0  0  0  0  0  0  0  0  0  0  0
  145.9364  154.3202  133.1986 H   0  0  0  0  0  0  0  0  0  0  0  0
  148.6272  151.0987  132.4870 H   0  0  0  0  0  0  0  0  0  0  0  0
  150.1351  155.0797  132.4848 H   0  0  0  0  0  0  0  0  0  0  0  0
  145.6009  156.1565  133.2855 H   0  0  0  0  0  0  0  0  0  0  0  0
  142.9736  157.3946  135.3249 H   0  0  0  0  0  0  0  0  0  0  0  0
  143.4821  159.1101  135.5411 H   0  0  0  0  0  0  0  0  0  0  0  0
  142.1060  159.5800  132.5770 H   0  0  0  0  0  0  0  0  0  0  0  0
  1  2  1  0
  2  3  2  0
  2  4  1  0
  4  5  2  0
  5  6  1  0
  6  7  2  0
  7  8  1  0
  8  9  2  0
  9 10  1  0
 10 11  2  0
 11 12  1  0
 12 13  2  0
 13 14  1  0
 14 15  2  0
  9 16  1  0
 16 17  2  0
 17 18  1  0
 18 19  1  0
 19 20  2  0
 19 21  1  0
 21 22  1  0
 22 23  2  0
 22 24  1  1
 22 25  1  0
 18  4  1  0
 17  6  1  0
 15 10  1  0
  1 26  1  0
  5 27  1  0
  7 28  1  0
  8 29  1  0
 11 30  1  0
 13 31  1  0
 15 32  1  0
 16 33  1  0
 21 34  1  0
 21 35  1  0
 25 36  1  0
M  CHG  2   1  -1  24  -1
M  END
>  <UniqueID>  (13) 
13

>  <SMILES>  (13) 
[NH-]C(=O)c1cc2ccc(-c3cncnc3)cc2n1C(=O)C[P@](=O)([O-])O

>  <Energy>  (13) 
77.8045707308816

>  <Genealogy>  (13) 
[NH-]C(=O)c1cc2ccc(-c3cncnc3)cc2n1C(=O)CP(=O)([O-])O (protonated)
[NH-]C(=O)c1cc2ccc(-c3cncnc3)cc2n1C(=O)C[P@](=O)([O-])O (chirality)
[NH-]C(=O)c1cc2ccc(-c3cncnc3)cc2n1C(=O)C[P@](=O)([O-])O (3D coordinates assigned)
[NH-]C(=O)c1cc2ccc(-c3cncnc3)cc2n1C(=O)C[P@](=O)([O-])O (optimized conformer: 77.8045707308816 kcal/mol)

>  <smiles>  (13) 
NC(=O)c1cc2ccc(-c3cncnc3)cc2n1C(=O)CP(=O)(O)O

>  <score_type>  (13) 
oracle

>  <origin>  (13) 
adg

>  <m_score__min__energy>  (13) 
-7.04

>  <m_primary>  (13) 
energy

$$$$
13:0
     RDKit          3D

 52 56  0  0  0  0  0  0  0  0999 V2000
  148.7600  152.7900  132.9510 N   0  0  0  0  0  0  0  0  0  0  0  0
  147.5150  152.1810  132.6060 C   0  0  0  0  0  0  0  0  0  0  0  0
  147.5140  151.0250  132.1040 O   0  0  0  0  0  0  0  0  0  0  0  0
  146.2290  152.8570  132.8720 C   0  0  0  0  0  0  0  0  0  0  0  0
  144.9910  152.3030  132.5630 C   0  0  0  0  0  0  0  0  0  0  0  0
  144.0640  153.2290  132.9800 C   0  0  0  0  0  0  0  0  0  0  0  0
  142.6790  153.2050  132.8940 C   0  0  0  0  0  0  0  0  0  0  0  0
  141.9690  154.3220  133.3600 C   0  0  0  0  0  0  0  0  0  0  0  0
  142.6410  155.4620  133.8930 C   0  0  0  0  0  0  0  0  0  0  0  0
  141.8180  156.6710  134.3800 C   0  0  1  0  0  0  0  0  0  0  0  0
  140.3670  156.5760  133.8180 C   0  0  0  0  0  0  0  0  0  0  0  0
  139.5380  157.8060  134.2490 C   0  0  2  0  0  0  0  0  0  0  0  0
  140.2090  159.0920  133.7180 C   0  0  0  0  0  0  0  0  0  0  0  0
  141.6320  159.2140  134.3030 C   0  0  1  0  0  0  0  0  0  0  0  0
  141.5530  159.2690  135.8420 C   0  0  0  0  0  0  0  0  0  0  0  0
  140.8860  157.9830  136.3690 C   0  0  1  0  0  0  0  0  0  0  0  0
  139.4610  157.8630  135.7880 C   0  0  0  0  0  0  0  0  0  0  0  0
  141.7200  156.7580  135.9370 C   0  0  0  0  0  0  0  0  0  0  0  0
  142.4720  157.9910  133.8720 C   0  0  0  0  0  0  0  0  0  0  0  0
  144.0630  155.4340  133.9500 C   0  0  0  0  0  0  0  0  0  0  0  0
  144.7410  154.2950  133.5070 C   0  0  0  0  0  0  0  0  0  0  0  0
  146.0760  154.0800  133.4530 N   0  0  0  0  0  0  0  0  0  0  0  0
  147.1180  155.0100  133.7940 C   0  0  0  0  0  0  0  0  0  0  0  0
  147.9250  155.3900  132.9020 O   0  0  0  0  0  0  0  0  0  0  0  0
  147.3360  155.4330  135.2180 C   0  0  0  0  0  0  0  0  0  0  0  0
  147.6530  153.9990  136.2980 P   0  0  0  0  0  0  0  0  0  0  0  0
  148.4790  152.9760  135.5540 O   0  0  0  0  0  0  0  0  0  0  0  0
  146.1760  153.3040  136.7430 O   0  0  0  0  0  0  0  0  0  0  0  0
  148.4840  154.4810  137.6910 O   0  0  0  0  0  0  0  0  0  0  0  0
  148.7970  153.6510  133.5380 H   0  0  0  0  0  0  0  0  0  0  0  0
  149.6590  152.3190  132.7040 H   0  0  0  0  0  0  0  0  0  0  0  0
  144.7953  151.3311  132.0865 H   0  0  0  0  0  0  0  0  0  0  0  0
  142.1531  152.3355  132.4727 H   0  0  0  0  0  0  0  0  0  0  0  0
  140.8700  154.3186  133.3133 H   0  0  0  0  0  0  0  0  0  0  0  0
  139.8885  155.6638  134.2038 H   0  0  0  0  0  0  0  0  0  0  0  0
  140.4125  156.5450  132.7194 H   0  0  0  0  0  0  0  0  0  0  0  0
  138.5220  157.7253  133.8351 H   0  0  0  0  0  0  0  0  0  0  0  0
  139.6134  159.9665  134.0189 H   0  0  0  0  0  0  0  0  0  0  0  0
  140.2683  159.0463  132.6206 H   0  0  0  0  0  0  0  0  0  0  0  0
  142.1052  160.1337  133.9284 H   0  0  0  0  0  0  0  0  0  0  0  0
  140.9580  160.1423  136.1475 H   0  0  0  0  0  0  0  0  0  0  0  0
  142.5677  159.3526  136.2583 H   0  0  0  0  0  0  0  0  0  0  0  0
  140.8313  158.0238  137.4669 H   0  0  0  0  0  0  0  0  0  0  0  0
  138.8655  158.7360  136.0935 H   0  0  0  0  0  0  0  0  0  0  0  0
  138.9863  156.9456  136.1662 H   0  0  0  0  0  0  0  0  0  0  0  0
  141.2421  155.8440  136.3194 H   0  0  0  0  0  0  0  0  0  0  0  0
  142.7352  156.8615  136.3477 H   0  0  0  0  0  0  0  0  0  0  0  0
  142.5349  157.9642  132.7741 H   0  0  0  0  0  0  0  0  0  0  0  0
  143.4779  158.0796  134.3083 H   0  0  0  0  0  0  0  0  0  0  0  0
  144.6216  156.2985  134.3381 H   0  0  0  0  0  0  0  0  0  0  0  0
  148.2008  156.1115  135.2612 H   0  0  0  0  0  0  0  0  0  0  0  0
  146.4251  155.9378  135.5721 H   0  0  0  0  0  0  0  0  0  0  0  0
  1  2  1  0
  2  3  2  0
  2  4  1  0
  4  5  2  0
  5  6  1  0
  6  7  2  0
  7  8  1  0
  8  9  2  0
 10  9  1  1
 10 11  1  0
 11 12  1  0
 12 13  1  0
 13 14  1  0
 14 15  1  0
 15 16  1  0
 16 17  1  0
 16 18  1  0
 14 19  1  0
  9 20  1  0
 20 21  2  0
 21 22  1  0
 22 23  1  0
 23 24  2  0
 23 25  1  0
 25 26  1  0
 26 27  2  0
 26 28  1  0
 26 29  1  0
 22  4  1  0
 21  6  1  0
 18 10  1  0
 19 10  1  0
 17 12  1  0
  1 30  1  0
  1 31  1  0
  5 32  1  0
  7 33  1  0
  8 34  1  0
 11 35  1  0
 11 36  1  0
 12 37  1  6
 13 38  1  0
 13 39  1  0
 14 40  1  6
 15 41  1  0
 15 42  1  0
 16 43  1  1
 17 44  1  0
 17 45  1  0
 18 46  1  0
 18 47  1  0
 19 48  1  0
 19 49  1  0
 20 50  1  0
 25 51  1  0
 25 52  1  0
M  CHG  2  28  -1  29  -1
M  END
>  <UniqueID>  (14) 
14

>  <SMILES>  (14) 
NC(=O)c1cc2ccc(C34CC5CC(CC(C5)C3)C4)cc2n1C(=O)CP(=O)([O-])[O-]

>  <Energy>  (14) 
95.03777170672763

>  <Genealogy>  (14) 
NC(=O)c1cc2ccc(C34CC5CC(CC(C5)C3)C4)cc2n1C(=O)CP(=O)([O-])[O-] (protonated)
NC(=O)c1cc2ccc(C34CC5CC(CC(C5)C3)C4)cc2n1C(=O)CP(=O)([O-])[O-] (3D coordinates assigned)
NC(=O)c1cc2ccc(C34CC5CC(CC(C5)C3)C4)cc2n1C(=O)CP(=O)([O-])[O-] (nonaromatic ring conformer: 95.03777170672763 kcal/mol)

>  <smiles>  (14) 
NC(=O)c1cc2ccc(C34CC5CC(CC(C5)C3)C4)cc2n1C(=O)CP(=O)(O)O

>  <score_type>  (14) 
oracle

>  <origin>  (14) 
adg

>  <m_score__min__energy>  (14) 
-9.6500000000000004

>  <m_primary>  (14) 
energy

$$$$
14:0
     RDKit          3D

 35 36  0  0  0  0  0  0  0  0999 V2000
  142.2250  157.4530  132.4440 N   0  0  0  0  0  0  0  0  0  0  0  0
  143.1190  156.5450  133.0890 C   0  0  0  0  0  0  0  0  0  0  0  0
  144.1700  156.9880  133.6240 O   0  0  0  0  0  0  0  0  0  0  0  0
  142.8650  155.0900  133.0860 C   0  0  0  0  0  0  0  0  0  0  0  0
  143.8790  154.1370  133.0580 C   0  0  0  0  0  0  0  0  0  0  0  0
  143.2350  152.9230  133.0070 C   0  0  0  0  0  0  0  0  0  0  0  0
  143.7610  151.6360  132.9680 C   0  0  0  0  0  0  0  0  0  0  0  0
  142.8630  150.5580  132.9530 C   0  0  0  0  0  0  0  0  0  0  0  0
  141.4630  150.7790  133.0060 C   0  0  0  0  0  0  0  0  0  0  0  0
  140.5060  149.6140  132.9530 C   0  0  0  0  0  0  0  0  0  0  0  0
  139.3450  150.0060  132.3150 F   0  0  0  0  0  0  0  0  0  0  0  0
  140.1950  149.1790  134.2290 F   0  0  0  0  0  0  0  0  0  0  0  0
  141.0650  148.5530  132.2610 F   0  0  0  0  0  0  0  0  0  0  0  0
  140.9670  152.1030  133.0240 C   0  0  0  0  0  0  0  0  0  0  0  0
  141.8850  153.1620  133.0160 C   0  0  0  0  0  0  0  0  0  0  0  0
  141.6400  154.4920  133.0660 N   0  0  0  0  0  0  0  0  0  0  0  0
  140.3610  155.1330  133.2100 C   0  0  0  0  0  0  0  0  0  0  0  0
  139.3000  154.4960  132.9700 O   0  0  0  0  0  0  0  0  0  0  0  0
  140.3000  156.4690  133.6180 O   0  0  0  0  0  0  0  0  0  0  0  0
  139.1830  157.3090  133.3510 C   0  0  0  0  0  0  0  0  0  0  0  0
  139.4510  158.7160  133.8830 C   0  0  0  0  0  0  0  0  0  0  0  0
  140.2310  159.7700  132.6180 P   0  0  0  0  0  0  0  0  0  0  0  0
  140.5150  158.9580  131.3760 O   0  0  0  0  0  0  0  0  0  0  0  0
  141.6840  160.3860  133.2270 O   0  0  0  0  0  0  0  0  0  0  0  0
  139.2040  161.0560  132.2260 O   0  0  0  0  0  0  0  0  0  0  0  0
  142.3960  158.4810  132.4940 H   0  0  0  0  0  0  0  0  0  0  0  0
  141.4340  157.1050  131.8580 H   0  0  0  0  0  0  0  0  0  0  0  0
  144.9641  154.3166  133.0734 H   0  0  0  0  0  0  0  0  0  0  0  0
  144.8480  151.4684  132.9495 H   0  0  0  0  0  0  0  0  0  0  0  0
  143.2493  149.5294  132.8995 H   0  0  0  0  0  0  0  0  0  0  0  0
  139.8845  152.2975  133.0438 H   0  0  0  0  0  0  0  0  0  0  0  0
  139.0133  157.3559  132.2652 H   0  0  0  0  0  0  0  0  0  0  0  0
  138.2930  156.8971  133.8492 H   0  0  0  0  0  0  0  0  0  0  0  0
  138.4970  159.1705  134.1884 H   0  0  0  0  0  0  0  0  0  0  0  0
  140.1382  158.6368  134.7382 H   0  0  0  0  0  0  0  0  0  0  0  0
  1  2  1  0
  2  3  2  0
  2  4  1  0
  4  5  2  0
  5  6  1  0
  6  7  2  0
  7  8  1  0
  8  9  2  0
  9 10  1  0
 10 11  1  0
 10 12  1  0
 10 13  1  0
  9 14  1  0
 14 15  2  0
 15 16  1  0
 16 17  1  0
 17 18  2  0
 17 19  1  0
 19 20  1  0
 20 21  1  0
 21 22  1  0
 22 23  2  0
 22 24  1  0
 22 25  1  0
 16  4  1  0
 15  6  1  0
  1 26  1  0
  1 27  1  0
  5 28  1  0
  7 29  1  0
  8 30  1  0
 14 31  1  0
 20 32  1  0
 20 33  1  0
 21 34  1  0
 21 35  1  0
M  CHG  2  24  -1  25  -1
M  END
>  <UniqueID>  (15) 
15

>  <SMILES>  (15) 
NC(=O)c1cc2ccc(C(F)(F)F)cc2n1C(=O)OCCP(=O)([O-])[O-]

>  <Energy>  (15) 
66.55326677290708

>  <Genealogy>  (15) 
NC(=O)c1cc2ccc(C(F)(F)F)cc2n1C(=O)OCCP(=O)([O-])[O-] (protonated)
NC(=O)c1cc2ccc(C(F)(F)F)cc2n1C(=O)OCCP(=O)([O-])[O-] (3D coordinates assigned)
NC(=O)c1cc2ccc(C(F)(F)F)cc2n1C(=O)OCCP(=O)([O-])[O-] (optimized conformer: 66.55326677290708 kcal/mol)

>  <smiles>  (15) 
NC(=O)c1cc2ccc(C(F)(F)F)cc2n1C(=O)OCCP(=O)(O)O

>  <score_type>  (15) 
oracle

>  <origin>  (15) 
adg

>  <m_score__min__energy>  (15) 
-6.0999999999999996

>  <m_primary>  (15) 
energy

$$$$
15:0
     RDKit          3D

 35 36  0  0  0  0  0  0  0  0999 V2000
  145.2840  159.8130  133.5450 C   0  0  0  0  0  0  0  0  0  0  0  0
  146.3710  158.8080  133.3090 C   0  0  0  0  0  0  0  0  0  0  0  0
  147.6780  159.2400  132.9710 C   0  0  0  0  0  0  0  0  0  0  0  0
  148.6980  158.3070  132.7170 C   0  0  0  0  0  0  0  0  0  0  0  0
  148.3790  156.9540  132.7970 C   0  0  0  0  0  0  0  0  0  0  0  0
  149.1680  155.8400  132.6070 C   0  0  0  0  0  0  0  0  0  0  0  0
  148.3210  154.7480  132.8130 C   0  0  0  0  0  0  0  0  0  0  0  0
  148.7200  153.3280  132.6690 C   0  0  0  0  0  0  0  0  0  0  0  0
  147.9500  152.2810  133.2640 N   0  0  0  0  0  0  0  0  0  0  0  0
  149.7560  153.0280  132.0180 O   0  0  0  0  0  0  0  0  0  0  0  0
  147.0670  155.1790  133.1210 N   0  0  0  0  0  0  0  0  0  0  0  0
  145.9090  154.3830  133.4090 C   0  0  0  0  0  0  0  0  0  0  0  0
  145.5390  153.5150  132.5720 O   0  0  0  0  0  0  0  0  0  0  0  0
  145.1560  154.5830  134.6240 N   0  0  0  0  0  0  0  0  0  0  0  0
  143.6910  154.5640  134.5660 C   0  0  0  0  0  0  0  0  0  0  0  0
  145.8430  154.8600  135.8950 C   0  0  0  0  0  0  0  0  0  0  0  0
  146.7860  153.7480  136.2290 C   0  0  0  0  0  0  0  0  0  0  0  0
  147.8120  153.5520  135.5250 O   0  0  0  0  0  0  0  0  0  0  0  0
  146.5270  152.9190  137.3140 O   0  0  0  0  0  0  0  0  0  0  0  0
  147.1140  156.5250  133.1000 C   0  0  0  0  0  0  0  0  0  0  0  0
  146.0800  157.4270  133.3620 C   0  0  0  0  0  0  0  0  0  0  0  0
  145.1380  159.9480  134.6269 H   0  0  0  0  0  0  0  0  0  0  0  0
  145.5679  160.7737  133.0906 H   0  0  0  0  0  0  0  0  0  0  0  0
  144.3485  159.4548  133.0906 H   0  0  0  0  0  0  0  0  0  0  0  0
  147.8962  160.3162  132.9068 H   0  0  0  0  0  0  0  0  0  0  0  0
  149.7166  158.6355  132.4629 H   0  0  0  0  0  0  0  0  0  0  0  0
  150.2369  155.8158  132.3483 H   0  0  0  0  0  0  0  0  0  0  0  0
  147.0500  152.4700  133.7560 H   0  0  0  0  0  0  0  0  0  0  0  0
  148.2660  151.2890  133.1760 H   0  0  0  0  0  0  0  0  0  0  0  0
  143.2836  154.5587  135.5878 H   0  0  0  0  0  0  0  0  0  0  0  0
  143.3335  155.4576  134.0334 H   0  0  0  0  0  0  0  0  0  0  0  0
  143.3568  153.6614  134.0334 H   0  0  0  0  0  0  0  0  0  0  0  0
  146.4076  155.7997  135.8049 H   0  0  0  0  0  0  0  0  0  0  0  0
  145.0934  154.9458  136.6954 H   0  0  0  0  0  0  0  0  0  0  0  0
  145.0673  157.0715  133.6029 H   0  0  0  0  0  0  0  0  0  0  0  0
  1  2  1  0
  2  3  2  0
  3  4  1  0
  4  5  2  0
  5  6  1  0
  6  7  2  0
  7  8  1  0
  8  9  1  0
  8 10  2  0
  7 11  1  0
 11 12  1  0
 12 13  2  0
 12 14  1  0
 14 15  1  0
 14 16  1  0
 16 17  1  0
 17 18  2  0
 17 19  1  0
 11 20  1  0
 20 21  2  0
 21  2  1  0
 20  5  1  0
  1 22  1  0
  1 23  1  0
  1 24  1  0
  3 25  1  0
  4 26  1  0
  6 27  1  0
  9 28  1  0
  9 29  1  0
 15 30  1  0
 15 31  1  0
 15 32  1  0
 16 33  1  0
 16 34  1  0
 21 35  1  0
M  CHG  1  19  -1
M  END
>  <UniqueID>  (16) 
16

>  <SMILES>  (16) 
Cc1ccc2cc(C(N)=O)n(C(=O)N(C)CC(=O)[O-])c2c1

>  <Energy>  (16) 
70.29210282907337

>  <Genealogy>  (16) 
Cc1ccc2cc(C(N)=O)n(C(=O)N(C)CC(=O)[O-])c2c1 (protonated)
Cc1ccc2cc(C(N)=O)n(C(=O)N(C)CC(=O)[O-])c2c1 (3D coordinates assigned)
Cc1ccc2cc(C(N)=O)n(C(=O)N(C)CC(=O)[O-])c2c1 (optimized conformer: 70.29210282907337 kcal/mol)

>  <smiles>  (16) 
Cc1ccc2cc(C(N)=O)n(C(=O)N(C)CC(=O)O)c2c1

>  <score_type>  (16) 
oracle

>  <origin>  (16) 
adg

>  <m_score__min__energy>  (16) 
-6.79

>  <m_primary>  (16) 
energy

$$$$
16:0
     RDKit          3D

 37 38  0  0  0  0  0  0  0  0999 V2000
  148.3800  151.8470  132.3290 C   0  0  0  0  0  0  0  0  0  0  0  0
  149.4100  152.9700  132.3990 C   0  0  0  0  0  0  0  0  0  0  0  0
  148.8160  154.2270  133.0570 C   0  0  0  0  0  0  0  0  0  0  0  0
  147.7910  154.8650  132.2140 N   0  0  0  0  0  0  0  0  0  0  0  0
  147.6500  156.2690  132.5180 C   0  0  0  0  0  0  0  0  0  0  0  0
  148.7940  157.1050  132.5730 C   0  0  0  0  0  0  0  0  0  0  0  0
  148.6740  158.4660  132.9010 C   0  0  0  0  0  0  0  0  0  0  0  0
  147.4020  158.9640  133.1620 C   0  0  0  0  0  0  0  0  0  0  0  0
  147.0070  160.2280  133.5360 C   0  0  0  0  0  0  0  0  0  0  0  0
  145.6230  160.1540  133.6840 C   0  0  0  0  0  0  0  0  0  0  0  0
  144.7750  161.3210  134.0030 C   0  0  0  0  0  0  0  0  0  0  0  0
  143.3720  161.2970  133.7560 N   0  0  0  0  0  0  0  0  0  0  0  0
  145.3050  162.3710  134.4560 O   0  0  0  0  0  0  0  0  0  0  0  0
  145.1810  158.8920  133.4190 N   0  0  0  0  0  0  0  0  0  0  0  0
  143.8460  158.3820  133.5600 C   0  0  0  0  0  0  0  0  0  0  0  0
  143.3080  157.7560  132.6060 O   0  0  0  0  0  0  0  0  0  0  0  0
  143.1570  158.5640  134.7650 O   0  0  0  0  0  0  0  0  0  0  0  0
  141.7540  158.7920  134.8320 C   0  0  0  0  0  0  0  0  0  0  0  0
  141.2470  159.0270  136.5250 Cl  0  0  0  0  0  0  0  0  0  0  0  0
  146.2820  158.1770  133.0980 C   0  0  0  0  0  0  0  0  0  0  0  0
  146.3730  156.8140  132.7910 C   0  0  0  0  0  0  0  0  0  0  0  0
  148.1003  151.5420  133.3482 H   0  0  0  0  0  0  0  0  0  0  0  0
  147.4866  152.2017  131.7942 H   0  0  0  0  0  0  0  0  0  0  0  0
  148.8104  150.9875  131.7942 H   0  0  0  0  0  0  0  0  0  0  0  0
  150.2732  152.6293  132.9896 H   0  0  0  0  0  0  0  0  0  0  0  0
  149.7185  153.2250  131.3744 H   0  0  0  0  0  0  0  0  0  0  0  0
  148.3588  153.9423  134.0161 H   0  0  0  0  0  0  0  0  0  0  0  0
  149.6322  154.9501  133.2014 H   0  0  0  0  0  0  0  0  0  0  0  0
  146.8750  154.3670  132.3250 H   0  0  0  0  0  0  0  0  0  0  0  0
  148.0740  154.7650  131.2110 H   0  0  0  0  0  0  0  0  0  0  0  0
  149.7866  156.6833  132.3564 H   0  0  0  0  0  0  0  0  0  0  0  0
  149.5589  159.1175  132.9498 H   0  0  0  0  0  0  0  0  0  0  0  0
  147.6475  161.1096  133.6862 H   0  0  0  0  0  0  0  0  0  0  0  0
  142.8670  160.3960  133.6060 H   0  0  0  0  0  0  0  0  0  0  0  0
  141.5041  159.6913  134.2500 H   0  0  0  0  0  0  0  0  0  0  0  0
  141.2288  157.9183  134.4186 H   0  0  0  0  0  0  0  0  0  0  0  0
  145.4732  156.1819  132.7627 H   0  0  0  0  0  0  0  0  0  0  0  0
  1  2  1  0
  2  3  1  0
  3  4  1  0
  4  5  1  0
  5  6  2  0
  6  7  1  0
  7  8  2  0
  8  9  1  0
  9 10  2  0
 10 11  1  0
 11 12  1  0
 11 13  2  0
 10 14  1  0
 14 15  1  0
 15 16  2  0
 15 17  1  0
 17 18  1  0
 18 19  1  0
 14 20  1  0
 20 21  2  0
 21  5  1  0
 20  8  1  0
  1 22  1  0
  1 23  1  0
  1 24  1  0
  2 25  1  0
  2 26  1  0
  3 27  1  0
  3 28  1  0
  4 29  1  0
  4 30  1  0
  6 31  1  0
  7 32  1  0
  9 33  1  0
 12 34  1  0
 18 35  1  0
 18 36  1  0
 21 37  1  0
M  CHG  2   4   1  12  -1
M  END
>  <UniqueID>  (17) 
17

>  <SMILES>  (17) 
CCC[NH2+]c1ccc2cc(C([NH-])=O)n(C(=O)OCCl)c2c1

>  <Energy>  (17) 
71.04704408083312

>  <Genealogy>  (17) 
CCC[NH2+]c1ccc2cc(C([NH-])=O)n(C(=O)OCCl)c2c1 (protonated)
CCC[NH2+]c1ccc2cc(C([NH-])=O)n(C(=O)OCCl)c2c1 (3D coordinates assigned)
CCC[NH2+]c1ccc2cc(C([NH-])=O)n(C(=O)OCCl)c2c1 (optimized conformer: 71.04704408083312 kcal/mol)

>  <smiles>  (17) 
CCCNc1ccc2cc(C(N)=O)n(C(=O)OCCl)c2c1

>  <score_type>  (17) 
oracle

>  <origin>  (17) 
adg

>  <m_score__min__energy>  (17) 
-6.3700000000000001

>  <m_primary>  (17) 
energy

$$$$
17:0
     RDKit          3D

 31 32  0  0  0  0  0  0  0  0999 V2000
  144.7620  161.1840  133.9240 C   0  0  0  0  0  0  0  0  0  0  0  0
  144.2360  159.7900  133.7500 C   0  0  0  0  0  0  0  0  0  0  0  0
  145.1280  158.6890  133.7450 C   0  0  0  0  0  0  0  0  0  0  0  0
  144.6450  157.3770  133.6120 C   0  0  0  0  0  0  0  0  0  0  0  0
  143.2690  157.1970  133.5030 C   0  0  0  0  0  0  0  0  0  0  0  0
  142.5330  156.0430  133.3540 C   0  0  0  0  0  0  0  0  0  0  0  0
  141.2020  156.4570  133.3010 C   0  0  0  0  0  0  0  0  0  0  0  0
  140.0580  155.5280  133.2250 C   0  0  0  0  0  0  0  0  0  0  0  0
  138.7280  156.0280  133.3390 N   0  0  0  0  0  0  0  0  0  0  0  0
  140.2400  154.2980  133.0330 O   0  0  0  0  0  0  0  0  0  0  0  0
  141.1220  157.8150  133.4040 N   0  0  0  0  0  0  0  0  0  0  0  0
  139.9530  158.6440  133.3340 C   0  0  0  0  0  0  0  0  0  0  0  0
  139.1180  158.6140  134.2790 O   0  0  0  0  0  0  0  0  0  0  0  0
  139.8210  159.6700  132.2440 C   0  0  0  0  0  0  0  0  0  0  0  0
  138.3850  159.3580  131.1620 P   0  0  2  0  0  0  0  0  0  0  0  0
  138.8120  158.5790  129.9380 O   0  0  0  0  0  0  0  0  0  0  0  0
  137.7370  160.8420  130.6770 O   0  0  0  0  0  0  0  0  0  0  0  0
  137.2000  158.4930  132.0080 O   0  0  0  0  0  0  0  0  0  0  0  0
  142.3930  158.2500  133.5320 C   0  0  0  0  0  0  0  0  0  0  0  0
  142.8450  159.5680  133.6520 C   0  0  0  0  0  0  0  0  0  0  0  0
  144.8481  161.4122  134.9966 H   0  0  0  0  0  0  0  0  0  0  0  0
  145.7521  161.2639  133.4515 H   0  0  0  0  0  0  0  0  0  0  0  0
  144.0715  161.8981  133.4515 H   0  0  0  0  0  0  0  0  0  0  0  0
  146.2093  158.8636  133.8463 H   0  0  0  0  0  0  0  0  0  0  0  0
  145.3325  156.5185  133.5945 H   0  0  0  0  0  0  0  0  0  0  0  0
  142.9138  155.0130  133.2903 H   0  0  0  0  0  0  0  0  0  0  0  0
  138.4710  156.9640  132.9530 H   0  0  0  0  0  0  0  0  0  0  0  0
  139.7064  160.6621  132.7052 H   0  0  0  0  0  0  0  0  0  0  0  0
  140.7266  159.6157  131.6220 H   0  0  0  0  0  0  0  0  0  0  0  0
  137.7000  157.8920  132.6160 H   0  0  0  0  0  0  0  0  0  0  0  0
  142.1361  160.4089  133.6695 H   0  0  0  0  0  0  0  0  0  0  0  0
  1  2  1  0
  2  3  2  0
  3  4  1  0
  4  5  2  0
  5  6  1  0
  6  7  2  0
  7  8  1  0
  8  9  1  0
  8 10  2  0
  7 11  1  0
 11 12  1  0
 12 13  2  0
 12 14  1  0
 14 15  1  0
 15 16  2  0
 15 17  1  6
 15 18  1  0
 11 19  1  0
 19 20  2  0
 20  2  1  0
 19  5  1  0
  1 21  1  0
  1 22  1  0
  1 23  1  0
  3 24  1  0
  4 25  1  0
  6 26  1  0
  9 27  1  0
 14 28  1  0
 14 29  1  0
 18 30  1  0
 20 31  1  0
M  CHG  2   9  -1  17  -1
M  END
>  <UniqueID>  (18) 
18

>  <SMILES>  (18) 
Cc1ccc2cc(C([NH-])=O)n(C(=O)C[P@](=O)([O-])O)c2c1

>  <Energy>  (18) 
66.23157996522882

>  <Genealogy>  (18) 
Cc1ccc2cc(C([NH-])=O)n(C(=O)CP(=O)([O-])O)c2c1 (protonated)
Cc1ccc2cc(C([NH-])=O)n(C(=O)C[P@](=O)([O-])O)c2c1 (chirality)
Cc1ccc2cc(C([NH-])=O)n(C(=O)C[P@](=O)([O-])O)c2c1 (3D coordinates assigned)
Cc1ccc2cc(C([NH-])=O)n(C(=O)C[P@](=O)([O-])O)c2c1 (optimized conformer: 66.23157996522882 kcal/mol)

>  <smiles>  (18) 
Cc1ccc2cc(C(N)=O)n(C(=O)CP(=O)(O)O)c2c1

>  <score_type>  (18) 
oracle

>  <origin>  (18) 
adg

>  <m_score__min__energy>  (18) 
-5.7199999999999998

>  <m_primary>  (18) 
energy

$$$$
18:0
     RDKit          3D

 42 43  0  0  0  0  0  0  0  0999 V2000
  140.8400  159.7230  137.0440 C   0  0  0  0  0  0  0  0  0  0  0  0
  140.8570  158.4340  136.3350 N   0  0  0  0  0  0  0  0  0  0  0  0
  139.4800  157.9330  136.1760 C   0  0  0  0  0  0  0  0  0  0  0  0
  141.7060  157.4480  137.0400 C   0  0  0  0  0  0  0  0  0  0  0  0
  141.4140  156.0290  136.5280 C   0  0  0  0  0  0  0  0  0  0  0  0
  141.8640  155.8250  135.0780 C   0  0  0  0  0  0  0  0  0  0  0  0
  142.8700  156.7730  134.7350 O   0  0  0  0  0  0  0  0  0  0  0  0
  142.7340  157.6830  133.6840 C   0  0  0  0  0  0  0  0  0  0  0  0
  141.8610  157.4950  132.7940 O   0  0  0  0  0  0  0  0  0  0  0  0
  143.5830  158.8410  133.6280 N   0  0  0  0  0  0  0  0  0  0  0  0
  143.2140  160.1490  133.7530 C   0  0  0  0  0  0  0  0  0  0  0  0
  141.8290  160.6610  133.7920 C   0  0  0  0  0  0  0  0  0  0  0  0
  140.7210  159.7680  133.8390 N   0  0  0  0  0  0  0  0  0  0  0  0
  141.6200  161.9020  133.7190 O   0  0  0  0  0  0  0  0  0  0  0  0
  144.3310  160.9770  133.7280 C   0  0  0  0  0  0  0  0  0  0  0  0
  145.4070  160.1360  133.5620 C   0  0  0  0  0  0  0  0  0  0  0  0
  146.7600  160.4320  133.4480 C   0  0  0  0  0  0  0  0  0  0  0  0
  147.6570  159.3630  133.2880 C   0  0  0  0  0  0  0  0  0  0  0  0
  147.1930  158.0240  133.2650 C   0  0  0  0  0  0  0  0  0  0  0  0
  148.1800  156.9020  133.0620 C   0  0  0  0  0  0  0  0  0  0  0  0
  149.3410  157.4120  132.5140 F   0  0  0  0  0  0  0  0  0  0  0  0
  147.6700  155.9300  132.2150 F   0  0  0  0  0  0  0  0  0  0  0  0
  148.4770  156.3060  134.2760 F   0  0  0  0  0  0  0  0  0  0  0  0
  145.8060  157.7650  133.3650 C   0  0  0  0  0  0  0  0  0  0  0  0
  144.9310  158.8510  133.5050 C   0  0  0  0  0  0  0  0  0  0  0  0
  140.8424  159.5445  138.1294 H   0  0  0  0  0  0  0  0  0  0  0  0
  141.7305  160.3060  136.7663 H   0  0  0  0  0  0  0  0  0  0  0  0
  139.9344  160.2823  136.7663 H   0  0  0  0  0  0  0  0  0  0  0  0
  139.0323  157.7701  137.1675 H   0  0  0  0  0  0  0  0  0  0  0  0
  138.8829  158.6715  135.6209 H   0  0  0  0  0  0  0  0  0  0  0  0
  139.4971  156.9835  135.6209 H   0  0  0  0  0  0  0  0  0  0  0  0
  142.7647  157.6874  136.8613 H   0  0  0  0  0  0  0  0  0  0  0  0
  141.4859  157.4919  138.1169 H   0  0  0  0  0  0  0  0  0  0  0  0
  141.9441  155.3073  137.1669 H   0  0  0  0  0  0  0  0  0  0  0  0
  140.3251  155.8776  136.5647 H   0  0  0  0  0  0  0  0  0  0  0  0
  142.2688  154.8086  134.9632 H   0  0  0  0  0  0  0  0  0  0  0  0
  140.9995  155.9636  134.4120 H   0  0  0  0  0  0  0  0  0  0  0  0
  140.8270  158.7940  134.2000 H   0  0  0  0  0  0  0  0  0  0  0  0
  144.3501  162.0729  133.8212 H   0  0  0  0  0  0  0  0  0  0  0  0
  147.1176  161.4717  133.4820 H   0  0  0  0  0  0  0  0  0  0  0  0
  148.7323  159.5675  133.1792 H   0  0  0  0  0  0  0  0  0  0  0  0
  145.4227  156.7344  133.3336 H   0  0  0  0  0  0  0  0  0  0  0  0
  1  2  1  0
  2  3  1  0
  2  4  1  0
  4  5  1  0
  5  6  1  0
  6  7  1  0
  7  8  1  0
  8  9  2  0
  8 10  1  0
 10 11  1  0
 11 12  1  0
 12 13  1  0
 12 14  2  0
 11 15  2  0
 15 16  1  0
 16 17  2  0
 17 18  1  0
 18 19  2  0
 19 20  1  0
 20 21  1  0
 20 22  1  0
 20 23  1  0
 19 24  1  0
 24 25  2  0
 25 10  1  0
 25 16  1  0
  1 26  1  0
  1 27  1  0
  1 28  1  0
  3 29  1  0
  3 30  1  0
  3 31  1  0
  4 32  1  0
  4 33  1  0
  5 34  1  0
  5 35  1  0
  6 36  1  0
  6 37  1  0
 13 38  1  0
 15 39  1  0
 17 40  1  0
 18 41  1  0
 24 42  1  0
M  CHG  1  13  -1
M  END
>  <UniqueID>  (19) 
19

>  <SMILES>  (19) 
CN(C)CCCOC(=O)n1c(C([NH-])=O)cc2ccc(C(F)(F)F)cc21

>  <Energy>  (19) 
75.30211341672108

>  <Genealogy>  (19) 
CN(C)CCCOC(=O)n1c(C([NH-])=O)cc2ccc(C(F)(F)F)cc21 (protonated)
CN(C)CCCOC(=O)n1c(C([NH-])=O)cc2ccc(C(F)(F)F)cc21 (3D coordinates assigned)
CN(C)CCCOC(=O)n1c(C([NH-])=O)cc2ccc(C(F)(F)F)cc21 (optimized conformer: 75.30211341672108 kcal/mol)

>  <smiles>  (19) 
CN(C)CCCOC(=O)n1c(C(N)=O)cc2ccc(C(F)(F)F)cc21

>  <score_type>  (19) 
oracle

>  <origin>  (19) 
adg

>  <m_score__min__energy>  (19) 
-6.1600000000000001

>  <m_primary>  (19) 
energy

$$$$
19:0
     RDKit          3D

 49 50  0  0  0  0  0  0  0  0999 V2000
  137.3760  159.7900  131.0800 C   0  0  0  0  0  0  0  0  0  0  0  0
  138.6330  159.5570  131.8080 N   0  0  0  0  0  0  0  0  0  0  0  0
  139.7290  159.3690  130.8400 C   0  0  0  0  0  0  0  0  0  0  0  0
  138.4970  158.3810  132.6970 C   0  0  0  0  0  0  0  0  0  0  0  0
  139.7200  157.4530  132.6040 C   0  0  0  0  0  0  0  0  0  0  0  0
  139.7550  156.3860  133.7070 C   0  0  0  0  0  0  0  0  0  0  0  0
  140.8830  155.4600  133.5100 N   0  0  0  0  0  0  0  0  0  0  0  0
  140.5980  154.0810  133.0970 C   0  0  0  0  0  0  0  0  0  0  0  0
  142.2440  155.9220  133.6830 C   0  0  0  0  0  0  0  0  0  0  0  0
  143.1650  155.4120  132.9880 O   0  0  0  0  0  0  0  0  0  0  0  0
  142.6070  156.9900  134.6430 C   0  0  0  0  0  0  0  0  0  0  0  0
  142.3180  156.8780  135.8630 O   0  0  0  0  0  0  0  0  0  0  0  0
  143.2350  158.1980  134.1810 N   0  0  0  0  0  0  0  0  0  0  0  0
  142.7120  159.4560  134.1890 C   0  0  0  0  0  0  0  0  0  0  0  0
  141.3280  159.8190  134.5620 C   0  0  0  0  0  0  0  0  0  0  0  0
  140.7440  159.3770  135.7880 N   0  0  0  0  0  0  0  0  0  0  0  0
  140.6310  160.4960  133.7600 O   0  0  0  0  0  0  0  0  0  0  0  0
  143.6700  160.3870  133.7910 C   0  0  0  0  0  0  0  0  0  0  0  0
  144.8060  159.6540  133.5380 C   0  0  0  0  0  0  0  0  0  0  0  0
  146.0680  160.0720  133.1310 C   0  0  0  0  0  0  0  0  0  0  0  0
  147.0730  159.1000  132.9930 C   0  0  0  0  0  0  0  0  0  0  0  0
  146.8100  157.7390  133.2950 C   0  0  0  0  0  0  0  0  0  0  0  0
  147.8880  156.6990  133.1140 C   0  0  0  0  0  0  0  0  0  0  0  0
  148.1730  156.1230  134.3380 F   0  0  0  0  0  0  0  0  0  0  0  0
  147.4740  155.7120  132.2360 F   0  0  0  0  0  0  0  0  0  0  0  0
  149.0410  157.2730  132.6070 F   0  0  0  0  0  0  0  0  0  0  0  0
  145.5090  157.3510  133.6890 C   0  0  0  0  0  0  0  0  0  0  0  0
  144.5210  158.3370  133.7890 C   0  0  0  0  0  0  0  0  0  0  0  0
  136.5581  159.9416  131.7998 H   0  0  0  0  0  0  0  0  0  0  0  0
  137.4787  160.6844  130.4480 H   0  0  0  0  0  0  0  0  0  0  0  0
  137.1513  158.9182  130.4480 H   0  0  0  0  0  0  0  0  0  0  0  0
  140.6727  159.2071  131.3815 H   0  0  0  0  0  0  0  0  0  0  0  0
  139.5142  158.4946  130.2081 H   0  0  0  0  0  0  0  0  0  0  0  0
  139.8179  160.2650  130.2081 H   0  0  0  0  0  0  0  0  0  0  0  0
  138.3918  158.7292  133.7351 H   0  0  0  0  0  0  0  0  0  0  0  0
  137.6103  157.8124  132.3802 H   0  0  0  0  0  0  0  0  0  0  0  0
  139.7008  156.9462  131.6279 H   0  0  0  0  0  0  0  0  0  0  0  0
  140.6157  158.0796  132.7269 H   0  0  0  0  0  0  0  0  0  0  0  0
  139.8625  156.8813  134.6833 H   0  0  0  0  0  0  0  0  0  0  0  0
  138.8183  155.8106  133.6678 H   0  0  0  0  0  0  0  0  0  0  0  0
  140.4677  153.4506  133.9890 H   0  0  0  0  0  0  0  0  0  0  0  0
  139.6768  154.0611  132.4962 H   0  0  0  0  0  0  0  0  0  0  0  0
  141.4359  153.6976  132.4962 H   0  0  0  0  0  0  0  0  0  0  0  0
  141.2160  158.6680  136.3900 H   0  0  0  0  0  0  0  0  0  0  0  0
  139.7850  159.6920  136.0530 H   0  0  0  0  0  0  0  0  0  0  0  0
  143.5443  161.4759  133.6989 H   0  0  0  0  0  0  0  0  0  0  0  0
  146.2735  161.1325  132.9232 H   0  0  0  0  0  0  0  0  0  0  0  0
  148.0740  159.3973  132.6472 H   0  0  0  0  0  0  0  0  0  0  0  0
  145.2787  156.2987  133.9117 H   0  0  0  0  0  0  0  0  0  0  0  0
  1  2  1  0
  2  3  1  0
  2  4  1  0
  4  5  1  0
  5  6  1  0
  6  7  1  0
  7  8  1  0
  7  9  1  0
  9 10  2  0
  9 11  1  0
 11 12  2  0
 11 13  1  0
 13 14  1  0
 14 15  1  0
 15 16  1  0
 15 17  2  0
 14 18  2  0
 18 19  1  0
 19 20  2  0
 20 21  1  0
 21 22  2  0
 22 23  1  0
 23 24  1  0
 23 25  1  0
 23 26  1  0
 22 27  1  0
 27 28  2  0
 28 13  1  0
 28 19  1  0
  1 29  1  0
  1 30  1  0
  1 31  1  0
  3 32  1  0
  3 33  1  0
  3 34  1  0
  4 35  1  0
  4 36  1  0
  5 37  1  0
  5 38  1  0
  6 39  1  0
  6 40  1  0
  8 41  1  0
  8 42  1  0
  8 43  1  0
 16 44  1  0
 16 45  1  0
 18 46  1  0
 20 47  1  0
 21 48  1  0
 27 49  1  0
M  END
>  <UniqueID>  (20) 
20

>  <SMILES>  (20) 
CN(C)CCCN(C)C(=O)C(=O)n1c(C(N)=O)cc2ccc(C(F)(F)F)cc21

>  <Energy>  (20) 
86.647184608625

>  <Genealogy>  (20) 
CN(C)CCCN(C)C(=O)C(=O)n1c(C(N)=O)cc2ccc(C(F)(F)F)cc21 (3D coordinates assigned)
CN(C)CCCN(C)C(=O)C(=O)n1c(C(N)=O)cc2ccc(C(F)(F)F)cc21 (optimized conformer: 86.647184608625 kcal/mol)

>  <smiles>  (20) 
CN(C)CCCN(C)C(=O)C(=O)n1c(C(N)=O)cc2ccc(C(F)(F)F)cc21

>  <score_type>  (20) 
oracle

>  <origin>  (20) 
adg

>  <m_score__min__energy>  (20) 
-7.0599999999999996

>  <m_primary>  (20) 
energy

$$$$
20:0
     RDKit          3D

 32 33  0  0  0  0  0  0  0  0999 V2000
  138.1813  156.7865  134.1694 H   0  0  0  0  0  0  0  0  0  0  0  0
  139.0730  157.2410  133.7130 C   0  0  0  0  0  0  0  0  0  0  0  0
  140.2670  156.5160  133.6780 O   0  0  0  0  0  0  0  0  0  0  0  0
  140.3530  155.1970  133.2250 C   0  0  0  0  0  0  0  0  0  0  0  0
  139.3080  154.5500  132.9400 O   0  0  0  0  0  0  0  0  0  0  0  0
  141.6410  154.5730  133.0940 N   0  0  0  0  0  0  0  0  0  0  0  0
  142.8590  155.1850  133.0920 C   0  0  0  0  0  0  0  0  0  0  0  0
  143.0850  156.6470  133.0590 C   0  0  0  0  0  0  0  0  0  0  0  0
  144.0800  157.1460  133.6490 O   0  0  0  0  0  0  0  0  0  0  0  0
  142.1640  157.5110  132.3930 N   0  0  0  0  0  0  0  0  0  0  0  0
  142.3140  158.5450  132.4050 H   0  0  0  0  0  0  0  0  0  0  0  0
  141.3570  157.1310  131.8510 H   0  0  0  0  0  0  0  0  0  0  0  0
  143.8810  154.2400  133.0330 C   0  0  0  0  0  0  0  0  0  0  0  0
  144.9645  154.4293  133.0190 H   0  0  0  0  0  0  0  0  0  0  0  0
  143.2470  153.0200  132.9960 C   0  0  0  0  0  0  0  0  0  0  0  0
  143.7830  151.7360  132.9560 C   0  0  0  0  0  0  0  0  0  0  0  0
  144.8708  151.5763  132.9208 H   0  0  0  0  0  0  0  0  0  0  0  0
  142.8910  150.6500  132.9620 C   0  0  0  0  0  0  0  0  0  0  0  0
  143.2852  149.6233  132.9385 H   0  0  0  0  0  0  0  0  0  0  0  0
  141.4890  150.8610  132.9980 C   0  0  0  0  0  0  0  0  0  0  0  0
  140.5460  149.6870  133.0690 C   0  0  0  0  0  0  0  0  0  0  0  0
  139.3780  149.9560  132.3780 F   0  0  0  0  0  0  0  0  0  0  0  0
  141.1270  148.5610  132.5130 F   0  0  0  0  0  0  0  0  0  0  0  0
  140.2390  149.4300  134.3920 F   0  0  0  0  0  0  0  0  0  0  0  0
  140.9860  152.1820  133.0610 C   0  0  0  0  0  0  0  0  0  0  0  0
  139.9042  152.3690  133.1297 H   0  0  0  0  0  0  0  0  0  0  0  0
  141.8960  153.2460  133.0340 C   0  0  0  0  0  0  0  0  0  0  0  0
  138.9900  158.4730  133.2050 C   0  0  0  0  0  0  0  0  0  0  0  0
  138.0211  158.9906  133.2631 H   0  0  0  0  0  0  0  0  0  0  0  0
  140.1160  159.1830  132.5710 C   0  0  0  0  0  0  0  0  0  0  0  0
  140.8210  159.9610  133.2640 O   0  0  0  0  0  0  0  0  0  0  0  0
  140.4190  159.0110  131.2260 O   0  0  0  0  0  0  0  0  0  0  0  0
  1  2  1  0
  2  3  1  0
  3  4  1  0
  4  5  2  0
  4  6  1  0
  6  7  1  0
  7  8  1  0
  8  9  2  0
  8 10  1  0
 10 11  1  0
 10 12  1  0
  7 13  2  0
 13 14  1  0
 13 15  1  0
 15 16  2  0
 16 17  1  0
 16 18  1  0
 18 19  1  0
 18 20  2  0
 20 21  1  0
 21 22  1  0
 21 23  1  0
 21 24  1  0
 20 25  1  0
 25 26  1  0
 25 27  2  0
  2 28  2  0
 28 29  1  0
 28 30  1  0
 30 31  2  0
 30 32  1  0
 27  6  1  0
 27 15  1  0
M  CHG  1  32  -1
M  END
>  <UniqueID>  (21) 
21

>  <SMILES>  (21) 
NC(=O)c1cc2ccc(C(F)(F)F)cc2n1C(=O)O/C=C\C(=O)[O-]

>  <Energy>  (21) 
69.55572370351025

>  <Genealogy>  (21) 
NC(=O)c1cc2ccc(C(F)(F)F)cc2n1C(=O)O/C=C\C(=O)[O-] (protonated)
NC(=O)c1cc2ccc(C(F)(F)F)cc2n1C(=O)O/C=C\C(=O)[O-] (cis-trans isomerization)
NC(=O)c1cc2ccc(C(F)(F)F)cc2n1C(=O)O/C=C\C(=O)[O-] (3D coordinates assigned)
NC(=O)c1cc2ccc(C(F)(F)F)cc2n1C(=O)O/C=C\C(=O)[O-] (optimized conformer: 69.55572370351025 kcal/mol)

>  <smiles>  (21) 
NC(=O)c1cc2ccc(C(F)(F)F)cc2n1C(=O)O/C=C\C(=O)O

>  <score_type>  (21) 
oracle

>  <origin>  (21) 
adg

>  <m_score__min__energy>  (21) 
-6.2300000000000004

>  <m_primary>  (21) 
energy

$$$$
21:0
     RDKit          3D

 36 37  0  0  0  0  0  0  0  0999 V2000
  149.0000  157.4330  131.8580 N   0  0  0  0  0  0  0  0  0  0  0  0
  148.7260  158.6900  132.4770 C   0  0  0  0  0  0  0  0  0  0  0  0
  149.6510  159.5360  132.5930 O   0  0  0  0  0  0  0  0  0  0  0  0
  147.3620  159.0400  132.9260 C   0  0  0  0  0  0  0  0  0  0  0  0
  146.9090  160.3510  133.0440 C   0  0  0  0  0  0  0  0  0  0  0  0
  145.5910  160.2460  133.4220 C   0  0  0  0  0  0  0  0  0  0  0  0
  144.6590  161.2420  133.6950 C   0  0  0  0  0  0  0  0  0  0  0  0
  143.3750  160.8500  134.1050 C   0  0  0  0  0  0  0  0  0  0  0  0
  143.0460  159.4730  134.2460 C   0  0  0  0  0  0  0  0  0  0  0  0
  141.7400  159.0510  134.6810 N   0  0  0  0  0  0  0  0  0  0  0  0
  140.7730  158.3970  133.7960 C   0  0  0  0  0  0  0  0  0  0  0  0
  139.5650  157.9650  134.5660 C   0  0  0  0  0  0  0  0  0  0  0  0
  138.6410  157.3370  133.9810 O   0  0  0  0  0  0  0  0  0  0  0  0
  139.4880  158.2310  135.9700 N   0  0  0  0  0  0  0  0  0  0  0  0
  139.8520  157.2660  137.0030 C   0  0  0  0  0  0  0  0  0  0  0  0
  141.2630  157.5290  137.5210 C   0  0  0  0  0  0  0  0  0  0  0  0
  141.4860  158.8900  137.6270 F   0  0  0  0  0  0  0  0  0  0  0  0
  142.2040  156.9750  136.6730 F   0  0  0  0  0  0  0  0  0  0  0  0
  144.0240  158.4940  133.9610 C   0  0  0  0  0  0  0  0  0  0  0  0
  145.2900  158.9130  133.5310 C   0  0  0  0  0  0  0  0  0  0  0  0
  146.3700  158.1570  133.2330 N   0  0  0  0  0  0  0  0  0  0  0  0
  146.4750  156.7260  133.3390 C   0  0  0  0  0  0  0  0  0  0  0  0
  146.3150  156.1580  134.4520 O   0  0  0  0  0  0  0  0  0  0  0  0
  146.7500  155.9550  132.2180 O   0  0  0  0  0  0  0  0  0  0  0  0
  148.2280  156.7820  131.5950 H   0  0  0  0  0  0  0  0  0  0  0  0
  149.9760  157.1870  131.5820 H   0  0  0  0  0  0  0  0  0  0  0  0
  147.4827  161.2736  132.8717 H   0  0  0  0  0  0  0  0  0  0  0  0
  144.9205  162.3055  133.5926 H   0  0  0  0  0  0  0  0  0  0  0  0
  142.6150  161.6157  134.3196 H   0  0  0  0  0  0  0  0  0  0  0  0
  141.4740  159.2210  135.6780 H   0  0  0  0  0  0  0  0  0  0  0  0
  140.4674  159.1027  133.0095 H   0  0  0  0  0  0  0  0  0  0  0  0
  141.2447  157.5100  133.3480 H   0  0  0  0  0  0  0  0  0  0  0  0
  139.1408  157.3471  137.8382 H   0  0  0  0  0  0  0  0  0  0  0  0
  139.8200  156.2563  136.5677 H   0  0  0  0  0  0  0  0  0  0  0  0
  141.3568  157.0637  138.5133 H   0  0  0  0  0  0  0  0  0  0  0  0
  143.7960  157.4239  134.0745 H   0  0  0  0  0  0  0  0  0  0  0  0
  1  2  1  0
  2  3  2  0
  2  4  1  0
  4  5  2  0
  5  6  1  0
  6  7  2  0
  7  8  1  0
  8  9  2  0
  9 10  1  0
 10 11  1  0
 11 12  1  0
 12 13  2  0
 12 14  1  0
 14 15  1  0
 15 16  1  0
 16 17  1  0
 16 18  1  0
  9 19  1  0
 19 20  2  0
 20 21  1  0
 21 22  1  0
 22 23  2  0
 22 24  1  0
 21  4  1  0
 20  6  1  0
  1 25  1  0
  1 26  1  0
  5 27  1  0
  7 28  1  0
  8 29  1  0
 10 30  1  0
 11 31  1  0
 11 32  1  0
 15 33  1  0
 15 34  1  0
 16 35  1  0
 19 36  1  0
M  CHG  2  14  -1  24  -1
M  END
>  <UniqueID>  (22) 
22

>  <SMILES>  (22) 
NC(=O)c1cc2ccc(NCC(=O)[N-]CC(F)F)cc2n1C(=O)[O-]

>  <Energy>  (22) 
71.16089722128532

>  <Genealogy>  (22) 
NC(=O)c1cc2ccc(NCC(=O)[N-]CC(F)F)cc2n1C(=O)[O-] (protonated)
NC(=O)c1cc2ccc(NCC(=O)[N-]CC(F)F)cc2n1C(=O)[O-] (3D coordinates assigned)
NC(=O)c1cc2ccc(NCC(=O)[N-]CC(F)F)cc2n1C(=O)[O-] (optimized conformer: 71.16089722128532 kcal/mol)

>  <smiles>  (22) 
NC(=O)c1cc2ccc(NCC(=O)NCC(F)F)cc2n1C(=O)O

>  <score_type>  (22) 
oracle

>  <origin>  (22) 
adg

>  <m_score__min__energy>  (22) 
-6.2599999999999998

>  <m_primary>  (22) 
energy

$$$$
22:0
     RDKit          3D

 40 41  0  0  0  0  0  0  0  0999 V2000
  147.0491  159.7605  131.0096 H   0  0  0  0  0  0  0  0  0  0  0  0
  147.8960  160.1370  131.6020 C   0  0  0  0  0  0  0  0  0  0  0  0
  149.1910  160.3470  130.9350 C   0  0  0  0  0  0  0  0  0  0  0  0
  149.4640  161.4400  130.3710 O   0  0  0  0  0  0  0  0  0  0  0  0
  150.1290  159.3230  130.9280 O   0  0  0  0  0  0  0  0  0  0  0  0
  147.7120  160.3880  132.9050 C   0  0  0  0  0  0  0  0  0  0  0  0
  148.5569  160.7695  133.4971 H   0  0  0  0  0  0  0  0  0  0  0  0
  146.4140  160.1700  133.5730 C   0  0  0  0  0  0  0  0  0  0  0  0
  145.7740  161.1440  134.0550 O   0  0  0  0  0  0  0  0  0  0  0  0
  145.8530  158.8490  133.6500 N   0  0  0  0  0  0  0  0  0  0  0  0
  146.5300  157.6700  133.7160 C   0  0  0  0  0  0  0  0  0  0  0  0
  147.9920  157.5190  133.8660 C   0  0  0  0  0  0  0  0  0  0  0  0
  148.4790  157.3240  135.0120 O   0  0  0  0  0  0  0  0  0  0  0  0
  148.8710  157.6430  132.7470 N   0  0  0  0  0  0  0  0  0  0  0  0
  149.8950  157.4790  132.8660 H   0  0  0  0  0  0  0  0  0  0  0  0
  148.5280  157.9910  131.8250 H   0  0  0  0  0  0  0  0  0  0  0  0
  145.6490  156.5930  133.6400 C   0  0  0  0  0  0  0  0  0  0  0  0
  145.9003  155.5223  133.6630 H   0  0  0  0  0  0  0  0  0  0  0  0
  144.3970  157.1550  133.5300 C   0  0  0  0  0  0  0  0  0  0  0  0
  143.1520  156.5470  133.4050 C   0  0  0  0  0  0  0  0  0  0  0  0
  143.0523  155.4516  133.4154 H   0  0  0  0  0  0  0  0  0  0  0  0
  142.0250  157.3760  133.2650 C   0  0  0  0  0  0  0  0  0  0  0  0
  141.0241  156.9269  133.1843 H   0  0  0  0  0  0  0  0  0  0  0  0
  142.1680  158.7850  133.2270 C   0  0  0  0  0  0  0  0  0  0  0  0
  140.9550  159.6640  133.1080 C   0  0  0  0  0  0  0  0  0  0  0  0
  141.1043  160.3830  132.2890 H   0  0  0  0  0  0  0  0  0  0  0  0
  140.8048  160.2047  134.0541 H   0  0  0  0  0  0  0  0  0  0  0  0
  139.7490  158.8290  132.8210 C   0  0  0  0  0  0  0  0  0  0  0  0
  139.0960  158.3180  133.7710 O   0  0  0  0  0  0  0  0  0  0  0  0
  139.3380  158.6520  131.4950 O   0  0  0  0  0  0  0  0  0  0  0  0
  139.0300  159.7420  130.6350 C   0  0  0  0  0  0  0  0  0  0  0  0
  139.2325  159.4551  129.5926 H   0  0  0  0  0  0  0  0  0  0  0  0
  139.6518  160.6085  130.9044 H   0  0  0  0  0  0  0  0  0  0  0  0
  137.5630  160.1060  130.7840 C   0  0  0  0  0  0  0  0  0  0  0  0
  137.3076  160.1694  131.8521 H   0  0  0  0  0  0  0  0  0  0  0  0
  137.3758  161.0778  130.3039 H   0  0  0  0  0  0  0  0  0  0  0  0
  136.9432  159.3344  130.3039 H   0  0  0  0  0  0  0  0  0  0  0  0
  143.4480  159.3660  133.3610 C   0  0  0  0  0  0  0  0  0  0  0  0
  143.5772  160.4580  133.3324 H   0  0  0  0  0  0  0  0  0  0  0  0
  144.5480  158.5180  133.5310 C   0  0  0  0  0  0  0  0  0  0  0  0
  1  2  1  0
  2  3  1  0
  3  4  2  0
  3  5  1  0
  2  6  2  0
  6  7  1  0
  6  8  1  0
  8  9  2  0
  8 10  1  0
 10 11  1  0
 11 12  1  0
 12 13  2  0
 12 14  1  0
 14 15  1  0
 14 16  1  0
 11 17  2  0
 17 18  1  0
 17 19  1  0
 19 20  2  0
 20 21  1  0
 20 22  1  0
 22 23  1  0
 22 24  2  0
 24 25  1  0
 25 26  1  0
 25 27  1  0
 25 28  1  0
 28 29  2  0
 28 30  1  0
 30 31  1  0
 31 32  1  0
 31 33  1  0
 31 34  1  0
 34 35  1  0
 34 36  1  0
 34 37  1  0
 24 38  1  0
 38 39  1  0
 38 40  2  0
 40 10  1  0
 40 19  1  0
M  CHG  1   5  -1
M  END
>  <UniqueID>  (23) 
23

>  <SMILES>  (23) 
CCOC(=O)Cc1ccc2cc(C(N)=O)n(C(=O)/C=C/C(=O)[O-])c2c1

>  <Energy>  (23) 
70.72380161727453

>  <Genealogy>  (23) 
CCOC(=O)Cc1ccc2cc(C(N)=O)n(C(=O)/C=C/C(=O)[O-])c2c1 (protonated)
CCOC(=O)Cc1ccc2cc(C(N)=O)n(C(=O)/C=C/C(=O)[O-])c2c1 (cis-trans isomerization)
CCOC(=O)Cc1ccc2cc(C(N)=O)n(C(=O)/C=C/C(=O)[O-])c2c1 (3D coordinates assigned)
CCOC(=O)Cc1ccc2cc(C(N)=O)n(C(=O)/C=C/C(=O)[O-])c2c1 (optimized conformer: 70.72380161727453 kcal/mol)

>  <smiles>  (23) 
CCOC(=O)Cc1ccc2cc(C(N)=O)n(C(=O)/C=C/C(=O)O)c2c1

>  <score_type>  (23) 
oracle

>  <origin>  (23) 
adg

>  <m_score__min__energy>  (23) 
-7.6200000000000001

>  <m_primary>  (23) 
energy

$$$$
23:0
     RDKit          3D

 32 33  0  0  0  0  0  0  0  0999 V2000
  149.5980  161.8010  130.3280 C   0  0  0  0  0  0  0  0  0  0  0  0
  149.1910  160.5610  131.0670 C   0  0  0  0  0  0  0  0  0  0  0  0
  149.9920  159.3950  130.9950 C   0  0  0  0  0  0  0  0  0  0  0  0
  149.6060  158.2220  131.6650 C   0  0  0  0  0  0  0  0  0  0  0  0
  148.4100  158.2400  132.3800 C   0  0  0  0  0  0  0  0  0  0  0  0
  147.8140  157.2560  133.1320 C   0  0  0  0  0  0  0  0  0  0  0  0
  146.6370  157.8230  133.6190 C   0  0  0  0  0  0  0  0  0  0  0  0
  145.6410  157.0720  134.4100 C   0  0  0  0  0  0  0  0  0  0  0  0
  144.2440  157.2830  134.2220 N   0  0  0  0  0  0  0  0  0  0  0  0
  146.0280  156.1960  135.2290 O   0  0  0  0  0  0  0  0  0  0  0  0
  146.5160  159.1130  133.1910 N   0  0  0  0  0  0  0  0  0  0  0  0
  145.4970  160.0640  133.5350 C   0  0  0  0  0  0  0  0  0  0  0  0
  145.8110  161.1480  134.0990 O   0  0  0  0  0  0  0  0  0  0  0  0
  144.1610  159.7950  133.2240 O   0  0  0  0  0  0  0  0  0  0  0  0
  143.0830  160.5800  133.7210 C   0  0  0  0  0  0  0  0  0  0  0  0
  141.8680  159.7180  133.8700 C   0  0  0  0  0  0  0  0  0  0  0  0
  140.9230  159.8340  133.0460 O   0  0  0  0  0  0  0  0  0  0  0  0
  141.7400  158.7960  134.9540 N   0  0  0  0  0  0  0  0  0  0  0  0
  142.4460  158.9380  136.1020 O   0  0  0  0  0  0  0  0  0  0  0  0
  141.5710  159.4040  136.9770 F   0  0  0  0  0  0  0  0  0  0  0  0
  147.6080  159.3520  132.4310 C   0  0  0  0  0  0  0  0  0  0  0  0
  147.9770  160.5390  131.7880 C   0  0  0  0  0  0  0  0  0  0  0  0
  149.8569  162.5897  131.0498 H   0  0  0  0  0  0  0  0  0  0  0  0
  150.4712  161.5813  129.6961 H   0  0  0  0  0  0  0  0  0  0  0  0
  148.7645  162.1415  129.6961 H   0  0  0  0  0  0  0  0  0  0  0  0
  150.9235  159.4080  130.4100 H   0  0  0  0  0  0  0  0  0  0  0  0
  150.2292  157.3164  131.6263 H   0  0  0  0  0  0  0  0  0  0  0  0
  148.1867  156.2368  133.3116 H   0  0  0  0  0  0  0  0  0  0  0  0
  143.7780  158.1440  134.5800 H   0  0  0  0  0  0  0  0  0  0  0  0
  143.3564  161.0013  134.6996 H   0  0  0  0  0  0  0  0  0  0  0  0
  142.8692  161.3982  133.0175 H   0  0  0  0  0  0  0  0  0  0  0  0
  147.3375  161.4323  131.8428 H   0  0  0  0  0  0  0  0  0  0  0  0
  1  2  1  0
  2  3  2  0
  3  4  1  0
  4  5  2  0
  5  6  1  0
  6  7  2  0
  7  8  1  0
  8  9  1  0
  8 10  2  0
  7 11  1  0
 11 12  1  0
 12 13  2  0
 12 14  1  0
 14 15  1  0
 15 16  1  0
 16 17  2  0
 16 18  1  0
 18 19  1  0
 19 20  1  0
 11 21  1  0
 21 22  2  0
 22  2  1  0
 21  5  1  0
  1 23  1  0
  1 24  1  0
  1 25  1  0
  3 26  1  0
  4 27  1  0
  6 28  1  0
  9 29  1  0
 15 30  1  0
 15 31  1  0
 22 32  1  0
M  CHG  2   9  -1  18  -1
M  END
>  <UniqueID>  (24) 
24

>  <SMILES>  (24) 
Cc1ccc2cc(C([NH-])=O)n(C(=O)OCC(=O)[N-]OF)c2c1

>  <Energy>  (24) 
66.34314732448817

>  <Genealogy>  (24) 
Cc1ccc2cc(C([NH-])=O)n(C(=O)OCC(=O)[N-]OF)c2c1 (protonated)
Cc1ccc2cc(C([NH-])=O)n(C(=O)OCC(=O)[N-]OF)c2c1 (3D coordinates assigned)
Cc1ccc2cc(C([NH-])=O)n(C(=O)OCC(=O)[N-]OF)c2c1 (optimized conformer: 66.34314732448817 kcal/mol)

>  <smiles>  (24) 
Cc1ccc2cc(C(N)=O)n(C(=O)OCC(=O)NOF)c2c1

>  <score_type>  (24) 
oracle

>  <origin>  (24) 
adg

>  <m_score__min__energy>  (24) 
-6.1799999999999997

>  <m_primary>  (24) 
energy

$$$$
24:0
     RDKit          3D

 39 40  0  0  0  0  0  0  0  0999 V2000
  148.8950  155.0030  132.6190 C   0  0  0  0  0  0  0  0  0  0  0  0
  148.3380  156.3890  132.7600 C   0  0  0  0  0  0  0  0  0  0  0  0
  149.1590  157.5130  132.4950 C   0  0  0  0  0  0  0  0  0  0  0  0
  148.6350  158.8140  132.5730 C   0  0  0  0  0  0  0  0  0  0  0  0
  147.2930  158.9580  132.9150 C   0  0  0  0  0  0  0  0  0  0  0  0
  146.5280  160.0960  133.0210 C   0  0  0  0  0  0  0  0  0  0  0  0
  145.2550  159.6510  133.3630 C   0  0  0  0  0  0  0  0  0  0  0  0
  144.1230  160.5610  133.6320 C   0  0  0  0  0  0  0  0  0  0  0  0
  142.7740  160.1490  133.4060 N   0  0  0  0  0  0  0  0  0  0  0  0
  144.3480  161.6990  134.1230 O   0  0  0  0  0  0  0  0  0  0  0  0
  145.2260  158.2910  133.4530 N   0  0  0  0  0  0  0  0  0  0  0  0
  144.0710  157.4600  133.6590 C   0  0  0  0  0  0  0  0  0  0  0  0
  144.0080  156.7030  134.6660 O   0  0  0  0  0  0  0  0  0  0  0  0
  143.0190  157.4930  132.7390 O   0  0  0  0  0  0  0  0  0  0  0  0
  141.7510  156.9030  132.9950 C   0  0  0  0  0  0  0  0  0  0  0  0
  140.9420  157.8100  133.7360 O   0  0  0  0  0  0  0  0  0  0  0  0
  139.6980  158.2620  133.2840 C   0  0  0  0  0  0  0  0  0  0  0  0
  138.6320  157.7310  133.7050 O   0  0  0  0  0  0  0  0  0  0  0  0
  139.6370  159.3980  132.3040 C   0  0  2  0  0  0  0  0  0  0  0  0
  138.7110  159.0640  131.1300 C   0  0  0  0  0  0  0  0  0  0  0  0
  140.9250  159.7330  131.8500 O   0  0  0  0  0  0  0  0  0  0  0  0
  146.4850  157.8810  133.1780 C   0  0  0  0  0  0  0  0  0  0  0  0
  146.9770  156.5720  133.0860 C   0  0  0  0  0  0  0  0  0  0  0  0
  149.0675  154.5739  133.6171 H   0  0  0  0  0  0  0  0  0  0  0  0
  148.1796  154.3746  132.0683 H   0  0  0  0  0  0  0  0  0  0  0  0
  149.8463  155.0444  132.0683 H   0  0  0  0  0  0  0  0  0  0  0  0
  150.2154  157.3656  132.2260 H   0  0  0  0  0  0  0  0  0  0  0  0
  149.2656  159.6922  132.3701 H   0  0  0  0  0  0  0  0  0  0  0  0
  146.8531  161.1357  132.8681 H   0  0  0  0  0  0  0  0  0  0  0  0
  141.9890  160.8200  133.5630 H   0  0  0  0  0  0  0  0  0  0  0  0
  142.5460  159.1620  133.1560 H   0  0  0  0  0  0  0  0  0  0  0  0
  141.2573  156.6682  132.0405 H   0  0  0  0  0  0  0  0  0  0  0  0
  141.8891  155.9791  133.5758 H   0  0  0  0  0  0  0  0  0  0  0  0
  139.2184  160.2731  132.8227 H   0  0  0  0  0  0  0  0  0  0  0  0
  137.7418  158.7144  131.5154 H   0  0  0  0  0  0  0  0  0  0  0  0
  138.5584  159.9637  130.5159 H   0  0  0  0  0  0  0  0  0  0  0  0
  139.1679  158.2740  130.5159 H   0  0  0  0  0  0  0  0  0  0  0  0
  141.5080  158.9380  131.9730 H   0  0  0  0  0  0  0  0  0  0  0  0
  146.3189  155.7087  133.2634 H   0  0  0  0  0  0  0  0  0  0  0  0
  1  2  1  0
  2  3  2  0
  3  4  1  0
  4  5  2  0
  5  6  1  0
  6  7  2  0
  7  8  1  0
  8  9  1  0
  8 10  2  0
  7 11  1  0
 11 12  1  0
 12 13  2  0
 12 14  1  0
 14 15  1  0
 15 16  1  0
 16 17  1  0
 17 18  2  0
 17 19  1  0
 19 20  1  0
 19 21  1  0
 11 22  1  0
 22 23  2  0
 23  2  1  0
 22  5  1  0
  1 24  1  0
  1 25  1  0
  1 26  1  0
  3 27  1  0
  4 28  1  0
  6 29  1  0
  9 30  1  0
  9 31  1  0
 15 32  1  0
 15 33  1  0
 19 34  1  1
 20 35  1  0
 20 36  1  0
 20 37  1  0
 21 38  1  0
 23 39  1  0
M  END
>  <UniqueID>  (25) 
25

>  <SMILES>  (25) 
Cc1ccc2cc(C(N)=O)n(C(=O)OCOC(=O)[C@H](C)O)c2c1

>  <Energy>  (25) 
71.67776723907984

>  <Genealogy>  (25) 
Cc1ccc2cc(C(N)=O)n(C(=O)OCOC(=O)[C@H](C)O)c2c1 (3D coordinates assigned)
Cc1ccc2cc(C(N)=O)n(C(=O)OCOC(=O)[C@H](C)O)c2c1 (optimized conformer: 71.67776723907984 kcal/mol)

>  <smiles>  (25) 
Cc1ccc2cc(C(N)=O)n(C(=O)OCOC(=O)[C@H](C)O)c2c1

>  <score_type>  (25) 
oracle

>  <origin>  (25) 
adg

>  <m_score__min__energy>  (25) 
-6.2199999999999998

>  <m_primary>  (25) 
energy

$$$$
25:0
     RDKit          3D

 45 47  0  0  0  0  0  0  0  0999 V2000
  141.8090  151.6350  133.0990 C   0  0  0  0  0  0  0  0  0  0  0  0
  141.8980  153.0910  133.0020 N   0  0  0  0  0  0  0  0  0  0  0  0
  140.6750  153.8940  133.0290 C   0  0  0  0  0  0  0  0  0  0  0  0
  143.1920  153.7160  133.0160 C   0  0  0  0  0  0  0  0  0  0  0  0
  143.7200  154.1730  131.8520 N   0  0  0  0  0  0  0  0  0  0  0  0
  144.9370  154.7690  131.8090 C   0  0  0  0  0  0  0  0  0  0  0  0
  145.6740  154.9280  132.9480 N   0  0  0  0  0  0  0  0  0  0  0  0
  146.9840  155.5980  132.8680 C   0  0  0  0  0  0  0  0  0  0  0  0
  147.0530  156.7730  133.8030 C   0  0  0  0  0  0  0  0  0  0  0  0
  147.8040  156.7360  134.8150 O   0  0  0  0  0  0  0  0  0  0  0  0
  146.3610  157.9880  133.4830 N   0  0  0  0  0  0  0  0  0  0  0  0
  146.8850  159.1150  132.9240 C   0  0  0  0  0  0  0  0  0  0  0  0
  148.2820  159.2600  132.4520 C   0  0  0  0  0  0  0  0  0  0  0  0
  149.3750  158.7610  133.2250 N   0  0  0  0  0  0  0  0  0  0  0  0
  148.5220  159.8420  131.3610 O   0  0  0  0  0  0  0  0  0  0  0  0
  145.9020  160.0980  132.8090 C   0  0  0  0  0  0  0  0  0  0  0  0
  144.7570  159.5340  133.3270 C   0  0  0  0  0  0  0  0  0  0  0  0
  143.4860  160.0750  133.4890 C   0  0  0  0  0  0  0  0  0  0  0  0
  142.5020  159.2730  134.0930 C   0  0  0  0  0  0  0  0  0  0  0  0
  142.7990  157.9510  134.5140 C   0  0  0  0  0  0  0  0  0  0  0  0
  141.7540  157.1240  135.2170 C   0  0  0  0  0  0  0  0  0  0  0  0
  140.8610  157.9370  135.8930 F   0  0  0  0  0  0  0  0  0  0  0  0
  142.3430  156.2710  136.1350 F   0  0  0  0  0  0  0  0  0  0  0  0
  141.0620  156.3740  134.2840 F   0  0  0  0  0  0  0  0  0  0  0  0
  144.1120  157.4490  134.3540 C   0  0  0  0  0  0  0  0  0  0  0  0
  145.0630  158.2630  133.7310 C   0  0  0  0  0  0  0  0  0  0  0  0
  145.1670  154.5060  134.1500 C   0  0  0  0  0  0  0  0  0  0  0  0
  145.8220  154.6780  135.2150 O   0  0  0  0  0  0  0  0  0  0  0  0
  143.9100  153.8900  134.2090 C   0  0  0  0  0  0  0  0  0  0  0  0
  143.2280  153.4230  135.7680 Cl  0  0  0  0  0  0  0  0  0  0  0  0
  141.7909  151.3385  134.1581 H   0  0  0  0  0  0  0  0  0  0  0  0
  140.8881  151.2903  132.6059 H   0  0  0  0  0  0  0  0  0  0  0  0
  142.6811  151.1807  132.6059 H   0  0  0  0  0  0  0  0  0  0  0  0
  140.3846  154.0847  134.0727 H   0  0  0  0  0  0  0  0  0  0  0  0
  140.8535  154.8512  132.5173 H   0  0  0  0  0  0  0  0  0  0  0  0
  139.8676  153.3497  132.5173 H   0  0  0  0  0  0  0  0  0  0  0  0
  145.3345  155.1278  130.8481 H   0  0  0  0  0  0  0  0  0  0  0  0
  147.7716  154.8788  133.1372 H   0  0  0  0  0  0  0  0  0  0  0  0
  147.1258  155.9628  131.8400 H   0  0  0  0  0  0  0  0  0  0  0  0
  149.2240  158.2140  134.1010 H   0  0  0  0  0  0  0  0  0  0  0  0
  150.3550  158.9020  132.8940 H   0  0  0  0  0  0  0  0  0  0  0  0
  146.0169  161.1097  132.3927 H   0  0  0  0  0  0  0  0  0  0  0  0
  143.2579  161.0980  133.1551 H   0  0  0  0  0  0  0  0  0  0  0  0
  141.4890  159.6754  134.2411 H   0  0  0  0  0  0  0  0  0  0  0  0
  144.3782  156.4431  134.7109 H   0  0  0  0  0  0  0  0  0  0  0  0
  1  2  1  0
  2  3  1  0
  2  4  1  0
  4  5  1  0
  5  6  2  0
  6  7  1  0
  7  8  1  0
  8  9  1  0
  9 10  2  0
  9 11  1  0
 11 12  1  0
 12 13  1  0
 13 14  1  0
 13 15  2  0
 12 16  2  0
 16 17  1  0
 17 18  2  0
 18 19  1  0
 19 20  2  0
 20 21  1  0
 21 22  1  0
 21 23  1  0
 21 24  1  0
 20 25  1  0
 25 26  2  0
  7 27  1  0
 27 28  2  0
 27 29  1  0
 29 30  1  0
 29  4  2  0
 26 11  1  0
 26 17  1  0
  1 31  1  0
  1 32  1  0
  1 33  1  0
  3 34  1  0
  3 35  1  0
  3 36  1  0
  6 37  1  0
  8 38  1  0
  8 39  1  0
 14 40  1  0
 14 41  1  0
 16 42  1  0
 18 43  1  0
 19 44  1  0
 25 45  1  0
M  END
>  <UniqueID>  (26) 
26

>  <SMILES>  (26) 
CN(C)c1ncn(CC(=O)n2c(C(N)=O)cc3ccc(C(F)(F)F)cc32)c(=O)c1Cl

>  <Energy>  (26) 
94.1959030490524

>  <Genealogy>  (26) 
CN(C)c1ncn(CC(=O)n2c(C(N)=O)cc3ccc(C(F)(F)F)cc32)c(=O)c1Cl (3D coordinates assigned)
CN(C)c1ncn(CC(=O)n2c(C(N)=O)cc3ccc(C(F)(F)F)cc32)c(=O)c1Cl (optimized conformer: 94.1959030490524 kcal/mol)

>  <smiles>  (26) 
CN(C)c1ncn(CC(=O)n2c(C(N)=O)cc3ccc(C(F)(F)F)cc32)c(=O)c1Cl

>  <score_type>  (26) 
oracle

>  <origin>  (26) 
adg

>  <m_score__min__energy>  (26) 
-7.2999999999999998

>  <m_primary>  (26) 
energy

$$$$
26:0
     RDKit          3D

 32 33  0  0  0  0  0  0  0  0999 V2000
  149.4350  150.8880  133.1230 N   0  0  0  0  0  0  0  0  0  0  0  0
  149.6240  151.9660  132.7490 C   0  0  0  0  0  0  0  0  0  0  0  0
  149.8640  153.3330  132.2760 C   0  0  0  0  0  0  0  0  0  0  0  0
  148.6990  154.2120  132.6340 C   0  0  0  0  0  0  0  0  0  0  0  0
  147.4470  153.6350  132.9600 C   0  0  0  0  0  0  0  0  0  0  0  0
  146.3470  154.4460  133.2810 C   0  0  0  0  0  0  0  0  0  0  0  0
  146.5220  155.8260  133.2490 C   0  0  0  0  0  0  0  0  0  0  0  0
  145.6360  156.8360  133.5450 C   0  0  0  0  0  0  0  0  0  0  0  0
  146.3480  158.0170  133.3530 C   0  0  0  0  0  0  0  0  0  0  0  0
  145.7500  159.3580  133.5050 C   0  0  0  0  0  0  0  0  0  0  0  0
  146.4020  160.5220  132.9940 N   0  0  0  0  0  0  0  0  0  0  0  0
  144.6190  159.4740  134.0470 O   0  0  0  0  0  0  0  0  0  0  0  0
  147.6270  157.7520  132.9670 N   0  0  0  0  0  0  0  0  0  0  0  0
  148.6950  158.6970  132.7930 C   0  0  0  0  0  0  0  0  0  0  0  0
  148.8420  159.6450  133.6110 O   0  0  0  0  0  0  0  0  0  0  0  0
  149.5730  158.5600  131.7100 O   0  0  0  0  0  0  0  0  0  0  0  0
  149.5990  159.4570  130.6030 C   0  0  0  0  0  0  0  0  0  0  0  0
  148.6110  160.5620  130.8030 C   0  0  0  0  0  0  0  0  0  0  0  0
  148.9240  161.5730  131.4840 O   0  0  0  0  0  0  0  0  0  0  0  0
  147.3540  160.4890  130.2140 O   0  0  0  0  0  0  0  0  0  0  0  0
  147.7190  156.4030  132.9060 C   0  0  0  0  0  0  0  0  0  0  0  0
  148.8370  155.6180  132.6020 C   0  0  0  0  0  0  0  0  0  0  0  0
  150.7762  153.7269  132.7478 H   0  0  0  0  0  0  0  0  0  0  0  0
  149.9851  153.3210  131.1828 H   0  0  0  0  0  0  0  0  0  0  0  0
  147.3356  152.5406  132.9616 H   0  0  0  0  0  0  0  0  0  0  0  0
  145.3762  154.0039  133.5497 H   0  0  0  0  0  0  0  0  0  0  0  0
  144.5887  156.7326  133.8650 H   0  0  0  0  0  0  0  0  0  0  0  0
  147.2540  160.4440  132.3960 H   0  0  0  0  0  0  0  0  0  0  0  0
  145.9850  161.4660  133.1460 H   0  0  0  0  0  0  0  0  0  0  0  0
  150.6076  159.8856  130.5076 H   0  0  0  0  0  0  0  0  0  0  0  0
  149.3351  158.9038  129.6896 H   0  0  0  0  0  0  0  0  0  0  0  0
  149.7996  156.0840  132.3445 H   0  0  0  0  0  0  0  0  0  0  0  0
  1  2  3  0
  2  3  1  0
  3  4  1  0
  4  5  2  0
  5  6  1  0
  6  7  2  0
  7  8  1  0
  8  9  2  0
  9 10  1  0
 10 11  1  0
 10 12  2  0
  9 13  1  0
 13 14  1  0
 14 15  2  0
 14 16  1  0
 16 17  1  0
 17 18  1  0
 18 19  2  0
 18 20  1  0
 13 21  1  0
 21 22  2  0
 22  4  1  0
 21  7  1  0
  3 23  1  0
  3 24  1  0
  5 25  1  0
  6 26  1  0
  8 27  1  0
 11 28  1  0
 11 29  1  0
 17 30  1  0
 17 31  1  0
 22 32  1  0
M  CHG  1  20  -1
M  END
>  <UniqueID>  (27) 
27

>  <SMILES>  (27) 
N#CCc1ccc2cc(C(N)=O)n(C(=O)OCC(=O)[O-])c2c1

>  <Energy>  (27) 
67.46109645195352

>  <Genealogy>  (27) 
N#CCc1ccc2cc(C(N)=O)n(C(=O)OCC(=O)[O-])c2c1 (protonated)
N#CCc1ccc2cc(C(N)=O)n(C(=O)OCC(=O)[O-])c2c1 (3D coordinates assigned)
N#CCc1ccc2cc(C(N)=O)n(C(=O)OCC(=O)[O-])c2c1 (optimized conformer: 67.46109645195352 kcal/mol)

>  <smiles>  (27) 
N#CCc1ccc2cc(C(N)=O)n(C(=O)OCC(=O)O)c2c1

>  <score_type>  (27) 
oracle

>  <origin>  (27) 
adg

>  <m_score__min__energy>  (27) 
-6.6299999999999999

>  <m_primary>  (27) 
energy

$$$$
27:0
     RDKit          3D

 33 34  0  0  0  0  0  0  0  0999 V2000
  149.1740  160.8560  131.4740 C   0  0  0  0  0  0  0  0  0  0  0  0
  148.4750  159.6350  131.9920 C   0  0  0  0  0  0  0  0  0  0  0  0
  149.1600  158.3970  132.0470 C   0  0  0  0  0  0  0  0  0  0  0  0
  148.5320  157.2550  132.5750 C   0  0  0  0  0  0  0  0  0  0  0  0
  147.2270  157.3860  133.0420 C   0  0  0  0  0  0  0  0  0  0  0  0
  146.3990  156.4520  133.6190 C   0  0  0  0  0  0  0  0  0  0  0  0
  145.2160  157.1330  133.9030 C   0  0  0  0  0  0  0  0  0  0  0  0
  144.0120  156.4740  134.4520 C   0  0  0  0  0  0  0  0  0  0  0  0
  142.7940  156.4950  133.7120 N   0  0  0  0  0  0  0  0  0  0  0  0
  144.0360  155.9250  135.5850 O   0  0  0  0  0  0  0  0  0  0  0  0
  145.3140  158.4400  133.5240 N   0  0  0  0  0  0  0  0  0  0  0  0
  144.3400  159.4830  133.6900 C   0  0  0  0  0  0  0  0  0  0  0  0
  144.6540  160.6830  133.4630 O   0  0  0  0  0  0  0  0  0  0  0  0
  143.0380  159.1580  134.0810 O   0  0  0  0  0  0  0  0  0  0  0  0
  141.8820  159.6460  133.4050 C   0  0  0  0  0  0  0  0  0  0  0  0
  140.7600  158.8650  133.7420 O   0  0  0  0  0  0  0  0  0  0  0  0
  140.6590  158.7390  135.4420 P   0  0  1  0  0  0  0  0  0  0  0  0
  140.9220  160.0860  136.0790 O   0  0  0  0  0  0  0  0  0  0  0  0
  139.1000  158.2320  135.8600 O   0  0  0  0  0  0  0  0  0  0  0  0
  141.7780  157.6110  136.0270 O   0  0  0  0  0  0  0  0  0  0  0  0
  146.5500  158.5770  132.9940 C   0  0  0  0  0  0  0  0  0  0  0  0
  147.1570  159.7330  132.4910 C   0  0  0  0  0  0  0  0  0  0  0  0
  149.5230  161.4656  132.3205 H   0  0  0  0  0  0  0  0  0  0  0  0
  150.0354  160.5529  130.8607 H   0  0  0  0  0  0  0  0  0  0  0  0
  148.4765  161.4454  130.8607 H   0  0  0  0  0  0  0  0  0  0  0  0
  150.1923  158.3280  131.6735 H   0  0  0  0  0  0  0  0  0  0  0  0
  149.0554  156.2885  132.6177 H   0  0  0  0  0  0  0  0  0  0  0  0
  146.6224  155.3929  133.8148 H   0  0  0  0  0  0  0  0  0  0  0  0
  142.0640  157.2180  133.9000 H   0  0  0  0  0  0  0  0  0  0  0  0
  141.7010  160.6899  133.7007 H   0  0  0  0  0  0  0  0  0  0  0  0
  142.0482  159.5886  132.3192 H   0  0  0  0  0  0  0  0  0  0  0  0
  142.4050  157.4650  135.2740 H   0  0  0  0  0  0  0  0  0  0  0  0
  146.6215  160.6938  132.4843 H   0  0  0  0  0  0  0  0  0  0  0  0
  1  2  1  0
  2  3  2  0
  3  4  1  0
  4  5  2  0
  5  6  1  0
  6  7  2  0
  7  8  1  0
  8  9  1  0
  8 10  2  0
  7 11  1  0
 11 12  1  0
 12 13  2  0
 12 14  1  0
 14 15  1  0
 15 16  1  0
 16 17  1  0
 17 18  2  0
 17 19  1  6
 17 20  1  0
 11 21  1  0
 21 22  2  0
 22  2  1  0
 21  5  1  0
  1 23  1  0
  1 24  1  0
  1 25  1  0
  3 26  1  0
  4 27  1  0
  6 28  1  0
  9 29  1  0
 15 30  1  0
 15 31  1  0
 20 32  1  0
 22 33  1  0
M  CHG  2   9  -1  19  -1
M  END
>  <UniqueID>  (28) 
28

>  <SMILES>  (28) 
Cc1ccc2cc(C([NH-])=O)n(C(=O)OCO[P@@](=O)([O-])O)c2c1

>  <Energy>  (28) 
67.79771900678625

>  <Genealogy>  (28) 
Cc1ccc2cc(C([NH-])=O)n(C(=O)OCOP(=O)([O-])O)c2c1 (protonated)
Cc1ccc2cc(C([NH-])=O)n(C(=O)OCO[P@@](=O)([O-])O)c2c1 (chirality)
Cc1ccc2cc(C([NH-])=O)n(C(=O)OCO[P@@](=O)([O-])O)c2c1 (3D coordinates assigned)
Cc1ccc2cc(C([NH-])=O)n(C(=O)OCO[P@@](=O)([O-])O)c2c1 (optimized conformer: 67.79771900678625 kcal/mol)

>  <smiles>  (28) 
Cc1ccc2cc(C(N)=O)n(C(=O)OCOP(=O)(O)O)c2c1

>  <score_type>  (28) 
oracle

>  <origin>  (28) 
adg

>  <m_score__min__energy>  (28) 
-5.8700000000000001

>  <m_primary>  (28) 
energy

$$$$
28:0
     RDKit          3D

 36 37  0  0  0  0  0  0  0  0999 V2000
  149.2080  159.5380  132.8040 C   0  0  0  0  0  0  0  0  0  0  0  0
  148.5250  159.0390  134.0730 C   0  0  0  0  0  0  0  0  0  0  0  0
  147.4390  158.0530  133.7420 C   0  0  0  0  0  0  0  0  0  0  0  0
  146.1080  158.4980  133.5500 C   0  0  0  0  0  0  0  0  0  0  0  0
  145.0840  157.5850  133.2490 C   0  0  0  0  0  0  0  0  0  0  0  0
  145.4160  156.2360  133.1660 C   0  0  0  0  0  0  0  0  0  0  0  0
  144.6300  155.1510  132.8580 C   0  0  0  0  0  0  0  0  0  0  0  0
  145.4830  154.0520  132.9110 C   0  0  0  0  0  0  0  0  0  0  0  0
  145.0310  152.6630  132.7050 C   0  0  0  0  0  0  0  0  0  0  0  0
  145.7660  151.7650  131.8750 N   0  0  0  0  0  0  0  0  0  0  0  0
  144.0120  152.2460  133.3190 O   0  0  0  0  0  0  0  0  0  0  0  0
  146.7510  154.4400  133.2260 N   0  0  0  0  0  0  0  0  0  0  0  0
  147.9290  153.6170  133.2530 C   0  0  0  0  0  0  0  0  0  0  0  0
  148.4810  153.3410  134.3520 O   0  0  0  0  0  0  0  0  0  0  0  0
  148.4730  153.1450  132.0520 O   0  0  0  0  0  0  0  0  0  0  0  0
  149.6240  152.3030  131.9800 C   0  0  0  0  0  0  0  0  0  0  0  0
  149.2380  150.8340  132.1410 C   0  0  0  0  0  0  0  0  0  0  0  0
  147.9600  150.7280  132.7040 O   0  0  0  0  0  0  0  0  0  0  0  0
  146.6940  155.7830  133.3820 C   0  0  0  0  0  0  0  0  0  0  0  0
  147.7360  156.6740  133.6630 C   0  0  0  0  0  0  0  0  0  0  0  0
  150.0690  160.1670  133.0741 H   0  0  0  0  0  0  0  0  0  0  0  0
  149.5536  158.6782  132.2113 H   0  0  0  0  0  0  0  0  0  0  0  0
  148.4940  160.1286  132.2113 H   0  0  0  0  0  0  0  0  0  0  0  0
  149.2717  158.5507  134.7164 H   0  0  0  0  0  0  0  0  0  0  0  0
  148.0752  159.8979  134.5926 H   0  0  0  0  0  0  0  0  0  0  0  0
  145.8740  159.5693  133.6375 H   0  0  0  0  0  0  0  0  0  0  0  0
  144.0512  157.9258  133.0839 H   0  0  0  0  0  0  0  0  0  0  0  0
  143.5560  155.1511  132.6203 H   0  0  0  0  0  0  0  0  0  0  0  0
  145.4150  150.7950  131.7100 H   0  0  0  0  0  0  0  0  0  0  0  0
  146.6970  152.0320  131.4850 H   0  0  0  0  0  0  0  0  0  0  0  0
  150.1110  152.4421  131.0035 H   0  0  0  0  0  0  0  0  0  0  0  0
  150.3101  152.5766  132.7951 H   0  0  0  0  0  0  0  0  0  0  0  0
  149.2419  150.3472  131.1546 H   0  0  0  0  0  0  0  0  0  0  0  0
  149.9644  150.3431  132.8053 H   0  0  0  0  0  0  0  0  0  0  0  0
  147.8860  151.4670  133.3610 H   0  0  0  0  0  0  0  0  0  0  0  0
  148.7620  156.3093  133.8187 H   0  0  0  0  0  0  0  0  0  0  0  0
  1  2  1  0
  2  3  1  0
  3  4  2  0
  4  5  1  0
  5  6  2  0
  6  7  1  0
  7  8  2  0
  8  9  1  0
  9 10  1  0
  9 11  2  0
  8 12  1  0
 12 13  1  0
 13 14  2  0
 13 15  1  0
 15 16  1  0
 16 17  1  0
 17 18  1  0
 12 19  1  0
 19 20  2  0
 20  3  1  0
 19  6  1  0
  1 21  1  0
  1 22  1  0
  1 23  1  0
  2 24  1  0
  2 25  1  0
  4 26  1  0
  5 27  1  0
  7 28  1  0
 10 29  1  0
 10 30  1  0
 16 31  1  0
 16 32  1  0
 17 33  1  0
 17 34  1  0
 18 35  1  0
 20 36  1  0
M  END
>  <UniqueID>  (29) 
29

>  <SMILES>  (29) 
CCc1ccc2cc(C(N)=O)n(C(=O)OCCO)c2c1

>  <Energy>  (29) 
68.14244341218236

>  <Genealogy>  (29) 
CCc1ccc2cc(C(N)=O)n(C(=O)OCCO)c2c1 (3D coordinates assigned)
CCc1ccc2cc(C(N)=O)n(C(=O)OCCO)c2c1 (optimized conformer: 68.14244341218236 kcal/mol)

>  <smiles>  (29) 
CCc1ccc2cc(C(N)=O)n(C(=O)OCCO)c2c1

>  <score_type>  (29) 
oracle

>  <origin>  (29) 
adg

>  <m_score__min__energy>  (29) 
-6.4900000000000002

>  <m_primary>  (29) 
energy

$$$$
29:0
     RDKit          3D

 37 38  0  0  0  0  0  0  0  0999 V2000
  143.4380  153.2100  134.2060 C   0  0  0  0  0  0  0  0  0  0  0  0
  144.1070  154.0010  135.2850 C   0  0  0  0  0  0  0  0  0  0  0  0
  143.8430  153.7450  136.4900 O   0  0  0  0  0  0  0  0  0  0  0  0
  145.0490  155.0350  134.9630 N   0  0  0  0  0  0  0  0  0  0  0  0
  146.3970  155.0220  135.1600 C   0  0  0  0  0  0  0  0  0  0  0  0
  147.1600  153.9770  135.8760 C   0  0  0  0  0  0  0  0  0  0  0  0
  146.6400  153.3630  137.0520 N   0  0  0  0  0  0  0  0  0  0  0  0
  148.3030  153.6450  135.4630 O   0  0  0  0  0  0  0  0  0  0  0  0
  146.9790  156.1770  134.6400 C   0  0  0  0  0  0  0  0  0  0  0  0
  145.9360  156.9050  134.1130 C   0  0  0  0  0  0  0  0  0  0  0  0
  145.9410  158.1320  133.4560 C   0  0  0  0  0  0  0  0  0  0  0  0
  144.7160  158.6320  132.9850 C   0  0  0  0  0  0  0  0  0  0  0  0
  143.5140  157.9000  133.1650 C   0  0  0  0  0  0  0  0  0  0  0  0
  142.2610  158.4090  132.6570 N   0  0  0  0  0  0  0  0  0  0  0  0
  141.2140  158.4360  133.7050 C   0  0  2  0  0  0  0  0  0  0  0  0
  139.7860  158.2510  133.1360 C   0  0  0  0  0  0  0  0  0  0  0  0
  139.6590  158.6440  131.6920 C   0  0  0  0  0  0  0  0  0  0  0  0
  140.5530  159.3430  131.1450 O   0  0  0  0  0  0  0  0  0  0  0  0
  138.5620  158.2310  130.9480 O   0  0  0  0  0  0  0  0  0  0  0  0
  141.3020  159.7020  134.5240 C   0  0  0  0  0  0  0  0  0  0  0  0
  141.9040  160.7150  134.0800 O   0  0  0  0  0  0  0  0  0  0  0  0
  140.6690  159.7710  135.7590 O   0  0  0  0  0  0  0  0  0  0  0  0
  143.5520  156.6580  133.8440 C   0  0  0  0  0  0  0  0  0  0  0  0
  144.7820  156.1930  134.3190 C   0  0  0  0  0  0  0  0  0  0  0  0
  142.7909  152.4449  134.6598 H   0  0  0  0  0  0  0  0  0  0  0  0
  142.8298  153.8817  133.5824 H   0  0  0  0  0  0  0  0  0  0  0  0
  144.2013  152.7217  133.5824 H   0  0  0  0  0  0  0  0  0  0  0  0
  145.7670  153.7170  137.5020 H   0  0  0  0  0  0  0  0  0  0  0  0
  148.0448  156.4489  134.6488 H   0  0  0  0  0  0  0  0  0  0  0  0
  146.8759  158.6930  133.3101 H   0  0  0  0  0  0  0  0  0  0  0  0
  144.6881  159.6036  132.4700 H   0  0  0  0  0  0  0  0  0  0  0  0
  142.4320  159.3830  132.3110 H   0  0  0  0  0  0  0  0  0  0  0  0
  141.9430  157.8470  131.8340 H   0  0  0  0  0  0  0  0  0  0  0  0
  141.4077  157.5740  134.3604 H   0  0  0  0  0  0  0  0  0  0  0  0
  139.5071  157.1915  133.2340 H   0  0  0  0  0  0  0  0  0  0  0  0
  139.1214  158.9132  133.7104 H   0  0  0  0  0  0  0  0  0  0  0  0
  142.6336  156.0716  133.9945 H   0  0  0  0  0  0  0  0  0  0  0  0
  1  2  1  0
  2  3  2  0
  2  4  1  0
  4  5  1  0
  5  6  1  0
  6  7  1  0
  6  8  2  0
  5  9  2  0
  9 10  1  0
 10 11  2  0
 11 12  1  0
 12 13  2  0
 13 14  1  0
 14 15  1  0
 15 16  1  0
 16 17  1  0
 17 18  2  0
 17 19  1  0
 15 20  1  0
 20 21  2  0
 20 22  1  0
 13 23  1  0
 23 24  2  0
 24  4  1  0
 24 10  1  0
  1 25  1  0
  1 26  1  0
  1 27  1  0
  7 28  1  0
  9 29  1  0
 11 30  1  0
 12 31  1  0
 14 32  1  0
 14 33  1  0
 15 34  1  1
 16 35  1  0
 16 36  1  0
 23 37  1  0
M  CHG  4   7  -1  14   1  19  -1  22  -1
M  END
>  <UniqueID>  (30) 
30

>  <SMILES>  (30) 
CC(=O)n1c(C([NH-])=O)cc2ccc([NH2+][C@H](CC(=O)[O-])C(=O)[O-])cc21

>  <Energy>  (30) 
77.45191518664765

>  <Genealogy>  (30) 
CC(=O)n1c(C([NH-])=O)cc2ccc([NH2+][C@H](CC(=O)[O-])C(=O)[O-])cc21 (protonated)
CC(=O)n1c(C([NH-])=O)cc2ccc([NH2+][C@H](CC(=O)[O-])C(=O)[O-])cc21 (3D coordinates assigned)
CC(=O)n1c(C([NH-])=O)cc2ccc([NH2+][C@H](CC(=O)[O-])C(=O)[O-])cc21 (optimized conformer: 77.45191518664765 kcal/mol)

>  <smiles>  (30) 
CC(=O)n1c(C(N)=O)cc2ccc(N[C@H](CC(=O)O)C(=O)O)cc21

>  <score_type>  (30) 
oracle

>  <origin>  (30) 
adg

>  <m_score__min__energy>  (30) 
-6.6200000000000001

>  <m_primary>  (30) 
energy

$$$$
30:0
     RDKit          3D

 43 45  0  0  0  0  0  0  0  0999 V2000
  150.4590  150.3550  130.6970 C   0  0  0  0  0  0  0  0  0  0  0  0
  149.9970  150.3320  132.0410 O   0  0  0  0  0  0  0  0  0  0  0  0
  148.7240  150.7830  132.4110 C   0  0  0  0  0  0  0  0  0  0  0  0
  147.7960  149.9510  132.6140 O   0  0  0  0  0  0  0  0  0  0  0  0
  148.4690  152.2320  132.5620 C   0  0  0  0  0  0  0  0  0  0  0  0
  149.5260  153.1520  132.4620 C   0  0  0  0  0  0  0  0  0  0  0  0
  149.2910  154.5220  132.6040 C   0  0  0  0  0  0  0  0  0  0  0  0
  147.9930  155.0030  132.8480 C   0  0  0  0  0  0  0  0  0  0  0  0
  147.7420  156.4590  132.9970 C   0  0  0  0  0  0  0  0  0  0  0  0
  148.8170  157.3840  132.9120 C   0  0  0  0  0  0  0  0  0  0  0  0
  148.5890  158.7650  133.0410 C   0  0  0  0  0  0  0  0  0  0  0  0
  147.2850  159.1930  133.2590 C   0  0  0  0  0  0  0  0  0  0  0  0
  146.7840  160.4680  133.3960 C   0  0  0  0  0  0  0  0  0  0  0  0
  145.4120  160.3070  133.5870 C   0  0  0  0  0  0  0  0  0  0  0  0
  144.4940  161.4310  133.8670 C   0  0  0  0  0  0  0  0  0  0  0  0
  143.0840  161.2760  133.7350 N   0  0  0  0  0  0  0  0  0  0  0  0
  144.9580  162.5290  134.2730 O   0  0  0  0  0  0  0  0  0  0  0  0
  145.0790  158.9850  133.5600 N   0  0  0  0  0  0  0  0  0  0  0  0
  143.7670  158.4060  133.6370 C   0  0  0  0  0  0  0  0  0  0  0  0
  143.2650  157.8490  132.6240 O   0  0  0  0  0  0  0  0  0  0  0  0
  143.0640  158.4420  134.8460 O   0  0  0  0  0  0  0  0  0  0  0  0
  141.7540  157.9010  135.0070 C   0  0  0  0  0  0  0  0  0  0  0  0
  140.8940  158.8450  135.7830 C   0  0  0  0  0  0  0  0  0  0  0  0
  141.0140  160.0890  135.6260 O   0  0  0  0  0  0  0  0  0  0  0  0
  139.9800  158.3530  136.7060 O   0  0  0  0  0  0  0  0  0  0  0  0
  146.2360  158.3180  133.3620 C   0  0  0  0  0  0  0  0  0  0  0  0
  146.4300  156.9380  133.2190 C   0  0  0  0  0  0  0  0  0  0  0  0
  146.9360  154.0820  132.9480 C   0  0  0  0  0  0  0  0  0  0  0  0
  147.1710  152.7120  132.8060 C   0  0  0  0  0  0  0  0  0  0  0  0
  151.5576  150.4097  130.6878 H   0  0  0  0  0  0  0  0  0  0  0  0
  150.1331  149.4395  130.1815 H   0  0  0  0  0  0  0  0  0  0  0  0
  150.0438  151.2336  130.1815 H   0  0  0  0  0  0  0  0  0  0  0  0
  150.5472  152.7908  132.2703 H   0  0  0  0  0  0  0  0  0  0  0  0
  150.1289  155.2302  132.5242 H   0  0  0  0  0  0  0  0  0  0  0  0
  149.8395  157.0152  132.7433 H   0  0  0  0  0  0  0  0  0  0  0  0
  149.4176  159.4851  132.9715 H   0  0  0  0  0  0  0  0  0  0  0  0
  147.3463  161.4128  133.3620 H   0  0  0  0  0  0  0  0  0  0  0  0
  142.5920  160.4510  134.1480 H   0  0  0  0  0  0  0  0  0  0  0  0
  141.3064  157.7335  134.0162 H   0  0  0  0  0  0  0  0  0  0  0  0
  141.8249  156.9496  135.5546 H   0  0  0  0  0  0  0  0  0  0  0  0
  145.5802  156.2420  133.2781 H   0  0  0  0  0  0  0  0  0  0  0  0
  145.9147  154.4429  133.1397 H   0  0  0  0  0  0  0  0  0  0  0  0
  146.3333  152.0036  132.8858 H   0  0  0  0  0  0  0  0  0  0  0  0
  1  2  1  0
  2  3  1  0
  3  4  2  0
  3  5  1  0
  5  6  2  0
  6  7  1  0
  7  8  2  0
  8  9  1  0
  9 10  2  0
 10 11  1  0
 11 12  2  0
 12 13  1  0
 13 14  2  0
 14 15  1  0
 15 16  1  0
 15 17  2  0
 14 18  1  0
 18 19  1  0
 19 20  2  0
 19 21  1  0
 21 22  1  0
 22 23  1  0
 23 24  2  0
 23 25  1  0
 18 26  1  0
 26 27  2  0
  8 28  1  0
 28 29  2  0
 29  5  1  0
 27  9  1  0
 26 12  1  0
  1 30  1  0
  1 31  1  0
  1 32  1  0
  6 33  1  0
  7 34  1  0
 10 35  1  0
 11 36  1  0
 13 37  1  0
 16 38  1  0
 22 39  1  0
 22 40  1  0
 27 41  1  0
 28 42  1  0
 29 43  1  0
M  CHG  2  16  -1  25  -1
M  END
>  <UniqueID>  (31) 
31

>  <SMILES>  (31) 
COC(=O)c1ccc(-c2ccc3cc(C([NH-])=O)n(C(=O)OCC(=O)[O-])c3c2)cc1

>  <Energy>  (31) 
86.16104811287826

>  <Genealogy>  (31) 
COC(=O)c1ccc(-c2ccc3cc(C([NH-])=O)n(C(=O)OCC(=O)[O-])c3c2)cc1 (protonated)
COC(=O)c1ccc(-c2ccc3cc(C([NH-])=O)n(C(=O)OCC(=O)[O-])c3c2)cc1 (3D coordinates assigned)
COC(=O)c1ccc(-c2ccc3cc(C([NH-])=O)n(C(=O)OCC(=O)[O-])c3c2)cc1 (optimized conformer: 86.16104811287826 kcal/mol)

>  <smiles>  (31) 
COC(=O)c1ccc(-c2ccc3cc(C(N)=O)n(C(=O)OCC(=O)O)c3c2)cc1

>  <score_type>  (31) 
oracle

>  <origin>  (31) 
adg

>  <m_score__min__energy>  (31) 
-8.0099999999999998

>  <m_primary>  (31) 
energy

$$$$
31:0
     RDKit          3D

 40 41  0  0  0  0  0  0  0  0999 V2000
  145.2970  159.3750  133.3250 C   0  0  0  0  0  0  0  0  0  0  0  0
  146.3860  158.3700  133.0950 C   0  0  0  0  0  0  0  0  0  0  0  0
  147.6770  158.7980  132.6930 C   0  0  0  0  0  0  0  0  0  0  0  0
  148.7130  157.8660  132.5040 C   0  0  0  0  0  0  0  0  0  0  0  0
  148.4310  156.5210  132.7290 C   0  0  0  0  0  0  0  0  0  0  0  0
  149.2360  155.4100  132.6110 C   0  0  0  0  0  0  0  0  0  0  0  0
  148.4240  154.3270  132.9490 C   0  0  0  0  0  0  0  0  0  0  0  0
  148.8740  152.9190  132.9210 C   0  0  0  0  0  0  0  0  0  0  0  0
  149.1120  152.2240  134.1420 N   0  0  0  0  0  0  0  0  0  0  0  0
  149.0510  152.3210  131.8270 O   0  0  0  0  0  0  0  0  0  0  0  0
  147.1700  154.7530  133.2610 N   0  0  0  0  0  0  0  0  0  0  0  0
  146.0340  153.9510  133.6250 C   0  0  0  0  0  0  0  0  0  0  0  0
  145.3090  153.4580  132.7190 O   0  0  0  0  0  0  0  0  0  0  0  0
  145.6840  153.7010  135.0710 C   0  0  2  0  0  0  0  0  0  0  0  0
  144.9310  154.9030  135.6460 C   0  0  0  0  0  0  0  0  0  0  0  0
  146.8990  153.4620  135.8450 N   0  0  0  0  0  0  0  0  0  0  0  0
  147.7050  154.4870  136.4300 C   0  0  0  0  0  0  0  0  0  0  0  0
  147.8150  155.6130  135.8720 O   0  0  0  0  0  0  0  0  0  0  0  0
  148.4020  154.2220  137.7260 C   0  0  0  0  0  0  0  0  0  0  0  0
  148.2310  152.4690  138.1900 P   0  0  2  0  0  0  0  0  0  0  0  0
  146.7790  152.1680  138.4850 O   0  0  0  0  0  0  0  0  0  0  0  0
  149.1570  152.1690  139.5760 O   0  0  0  0  0  0  0  0  0  0  0  0
  148.7650  151.4720  136.9280 O   0  0  0  0  0  0  0  0  0  0  0  0
  147.1900  156.0960  133.1250 C   0  0  0  0  0  0  0  0  0  0  0  0
  146.1440  157.0010  133.3350 C   0  0  0  0  0  0  0  0  0  0  0  0
  145.1476  159.5129  134.4061 H   0  0  0  0  0  0  0  0  0  0  0  0
  145.5814  160.3347  132.8688 H   0  0  0  0  0  0  0  0  0  0  0  0
  144.3632  159.0146  132.8688 H   0  0  0  0  0  0  0  0  0  0  0  0
  147.8696  159.8683  132.5276 H   0  0  0  0  0  0  0  0  0  0  0  0
  149.7157  158.1896  132.1880 H   0  0  0  0  0  0  0  0  0  0  0  0
  150.2946  155.3823  132.3134 H   0  0  0  0  0  0  0  0  0  0  0  0
  148.3930  152.2050  134.8980 H   0  0  0  0  0  0  0  0  0  0  0  0
  145.0384  152.8124  135.1306 H   0  0  0  0  0  0  0  0  0  0  0  0
  144.9575  154.8608  136.7449 H   0  0  0  0  0  0  0  0  0  0  0  0
  145.4083  155.8329  135.3032 H   0  0  0  0  0  0  0  0  0  0  0  0
  143.8860  154.8792  135.3032 H   0  0  0  0  0  0  0  0  0  0  0  0
  149.4692  154.4669  137.6206 H   0  0  0  0  0  0  0  0  0  0  0  0
  147.9476  154.8453  138.5102 H   0  0  0  0  0  0  0  0  0  0  0  0
  148.3420  151.8450  136.1120 H   0  0  0  0  0  0  0  0  0  0  0  0
  145.1582  156.6541  133.6784 H   0  0  0  0  0  0  0  0  0  0  0  0
  1  2  1  0
  2  3  2  0
  3  4  1  0
  4  5  2  0
  5  6  1  0
  6  7  2  0
  7  8  1  0
  8  9  1  0
  8 10  2  0
  7 11  1  0
 11 12  1  0
 12 13  2  0
 12 14  1  0
 14 15  1  0
 14 16  1  0
 16 17  1  0
 17 18  2  0
 17 19  1  0
 19 20  1  0
 20 21  2  0
 20 22  1  1
 20 23  1  0
 11 24  1  0
 24 25  2  0
 25  2  1  0
 24  5  1  0
  1 26  1  0
  1 27  1  0
  1 28  1  0
  3 29  1  0
  4 30  1  0
  6 31  1  0
  9 32  1  0
 14 33  1  6
 15 34  1  0
 15 35  1  0
 15 36  1  0
 19 37  1  0
 19 38  1  0
 23 39  1  0
 25 40  1  0
M  CHG  3   9  -1  16  -1  22  -1
M  END
>  <UniqueID>  (32) 
32

>  <SMILES>  (32) 
Cc1ccc2cc(C([NH-])=O)n(C(=O)[C@H](C)[N-]C(=O)C[P@](=O)([O-])O)c2c1

>  <Energy>  (32) 
66.9400707650541

>  <Genealogy>  (32) 
Cc1ccc2cc(C([NH-])=O)n(C(=O)[C@H](C)[N-]C(=O)CP(=O)([O-])O)c2c1 (protonated)
Cc1ccc2cc(C([NH-])=O)n(C(=O)[C@H](C)[N-]C(=O)C[P@](=O)([O-])O)c2c1 (chirality)
Cc1ccc2cc(C([NH-])=O)n(C(=O)[C@H](C)[N-]C(=O)C[P@](=O)([O-])O)c2c1 (3D coordinates assigned)
Cc1ccc2cc(C([NH-])=O)n(C(=O)[C@H](C)[N-]C(=O)C[P@](=O)([O-])O)c2c1 (optimized conformer: 66.9400707650541 kcal/mol)

>  <smiles>  (32) 
Cc1ccc2cc(C(N)=O)n(C(=O)[C@H](C)NC(=O)CP(=O)(O)O)c2c1

>  <score_type>  (32) 
oracle

>  <origin>  (32) 
adg

>  <m_score__min__energy>  (32) 
-7.3099999999999996

>  <m_primary>  (32) 
energy

$$$$
32:0
     RDKit          3D

 38 39  0  0  0  0  0  0  0  0999 V2000
  140.6210  157.1570  135.3500 C   0  0  0  0  0  0  0  0  0  0  0  0
  141.9100  156.7290  134.7930 N   0  0  0  0  0  0  0  0  0  0  0  0
  142.1680  155.2870  134.6440 C   0  0  0  0  0  0  0  0  0  0  0  0
  142.5240  154.6530  135.9930 C   0  0  0  0  0  0  0  0  0  0  0  0
  143.1390  155.5980  136.8240 O   0  0  0  0  0  0  0  0  0  0  0  0
  142.9070  157.7140  134.4210 C   0  0  0  0  0  0  0  0  0  0  0  0
  142.5730  159.0950  134.3680 C   0  0  0  0  0  0  0  0  0  0  0  0
  143.5320  160.0580  134.0120 C   0  0  0  0  0  0  0  0  0  0  0  0
  144.8140  159.6200  133.7010 C   0  0  0  0  0  0  0  0  0  0  0  0
  145.9350  160.3410  133.3590 C   0  0  0  0  0  0  0  0  0  0  0  0
  146.9380  159.3950  133.1770 C   0  0  0  0  0  0  0  0  0  0  0  0
  148.3100  159.7380  132.7510 C   0  0  0  0  0  0  0  0  0  0  0  0
  149.4380  158.9930  133.2130 N   0  0  0  0  0  0  0  0  0  0  0  0
  148.4860  160.6710  131.9230 O   0  0  0  0  0  0  0  0  0  0  0  0
  146.4640  158.1380  133.4060 N   0  0  0  0  0  0  0  0  0  0  0  0
  147.2230  156.9150  133.4260 C   0  0  0  0  0  0  0  0  0  0  0  0
  148.1330  156.7230  132.5770 O   0  0  0  0  0  0  0  0  0  0  0  0
  146.9450  155.8890  134.3940 C   0  0  0  0  0  0  0  0  0  0  0  0
  146.7110  155.0380  135.2160 C   0  0  0  0  0  0  0  0  0  0  0  0
  146.4360  154.0360  136.2050 C   0  0  0  0  0  0  0  0  0  0  0  0
  145.2620  153.8710  136.6240 O   0  0  0  0  0  0  0  0  0  0  0  0
  147.4680  153.2520  136.7040 O   0  0  0  0  0  0  0  0  0  0  0  0
  145.1590  158.2950  133.7290 C   0  0  0  0  0  0  0  0  0  0  0  0
  144.2320  157.3180  134.1110 C   0  0  0  0  0  0  0  0  0  0  0  0
  140.6725  157.1399  136.4487 H   0  0  0  0  0  0  0  0  0  0  0  0
  140.3953  158.1783  135.0094 H   0  0  0  0  0  0  0  0  0  0  0  0
  139.8293  156.4735  135.0094 H   0  0  0  0  0  0  0  0  0  0  0  0
  141.2670  154.7994  134.2435 H   0  0  0  0  0  0  0  0  0  0  0  0
  143.0161  155.1508  133.9569 H   0  0  0  0  0  0  0  0  0  0  0  0
  141.6060  154.2870  136.4761 H   0  0  0  0  0  0  0  0  0  0  0  0
  143.2186  153.8168  135.8246 H   0  0  0  0  0  0  0  0  0  0  0  0
  143.9920  155.1930  137.1320 H   0  0  0  0  0  0  0  0  0  0  0  0
  141.5484  159.4142  134.6093 H   0  0  0  0  0  0  0  0  0  0  0  0
  143.2758  161.1273  133.9803 H   0  0  0  0  0  0  0  0  0  0  0  0
  146.0197  161.4325  133.2523 H   0  0  0  0  0  0  0  0  0  0  0  0
  149.3160  158.1070  133.7520 H   0  0  0  0  0  0  0  0  0  0  0  0
  150.4030  159.2810  132.9400 H   0  0  0  0  0  0  0  0  0  0  0  0
  144.5272  156.2600  134.1696 H   0  0  0  0  0  0  0  0  0  0  0  0
  1  2  1  0
  2  3  1  0
  3  4  1  0
  4  5  1  0
  2  6  1  0
  6  7  2  0
  7  8  1  0
  8  9  2  0
  9 10  1  0
 10 11  2  0
 11 12  1  0
 12 13  1  0
 12 14  2  0
 11 15  1  0
 15 16  1  0
 16 17  2  0
 16 18  1  0
 18 19  3  0
 19 20  1  0
 20 21  2  0
 20 22  1  0
 15 23  1  0
 23 24  2  0
 24  6  1  0
 23  9  1  0
  1 25  1  0
  1 26  1  0
  1 27  1  0
  3 28  1  0
  3 29  1  0
  4 30  1  0
  4 31  1  0
  5 32  1  0
  7 33  1  0
  8 34  1  0
 10 35  1  0
 13 36  1  0
 13 37  1  0
 24 38  1  0
M  CHG  1  22  -1
M  END
>  <UniqueID>  (33) 
33

>  <SMILES>  (33) 
CN(CCO)c1ccc2cc(C(N)=O)n(C(=O)C#CC(=O)[O-])c2c1

>  <Energy>  (33) 
73.36686572820204

>  <Genealogy>  (33) 
CN(CCO)c1ccc2cc(C(N)=O)n(C(=O)C#CC(=O)[O-])c2c1 (protonated)
CN(CCO)c1ccc2cc(C(N)=O)n(C(=O)C#CC(=O)[O-])c2c1 (3D coordinates assigned)
CN(CCO)c1ccc2cc(C(N)=O)n(C(=O)C#CC(=O)[O-])c2c1 (optimized conformer: 73.36686572820204 kcal/mol)

>  <smiles>  (33) 
CN(CCO)c1ccc2cc(C(N)=O)n(C(=O)C#CC(=O)O)c2c1

>  <score_type>  (33) 
oracle

>  <origin>  (33) 
adg

>  <m_score__min__energy>  (33) 
-7.2800000000000002

>  <m_primary>  (33) 
energy

$$$$
33:0
     RDKit          3D

 41 42  0  0  0  0  0  0  0  0999 V2000
  139.1870  156.2150  133.2000 C   0  0  0  0  0  0  0  0  0  0  0  0
  139.5750  157.6960  133.2820 C   0  0  2  0  0  0  0  0  0  0  0  0
  140.6910  157.9870  132.3690 N   0  0  0  0  0  0  0  0  0  0  0  0
  140.2660  158.8750  131.4290 O   0  0  0  0  0  0  0  0  0  0  0  0
  139.9360  158.0480  134.7000 C   0  0  0  0  0  0  0  0  0  0  0  0
  139.1180  157.8150  135.6320 O   0  0  0  0  0  0  0  0  0  0  0  0
  141.1820  158.6190  134.9750 O   0  0  0  0  0  0  0  0  0  0  0  0
  142.3330  157.8430  135.2900 C   0  0  0  0  0  0  0  0  0  0  0  0
  142.6570  157.0060  134.1860 O   0  0  0  0  0  0  0  0  0  0  0  0
  143.3780  157.4570  133.0760 C   0  0  0  0  0  0  0  0  0  0  0  0
  142.9970  157.1670  131.9080 O   0  0  0  0  0  0  0  0  0  0  0  0
  144.5380  158.2790  133.2670 N   0  0  0  0  0  0  0  0  0  0  0  0
  144.5870  159.6220  133.5010 C   0  0  0  0  0  0  0  0  0  0  0  0
  143.4430  160.5560  133.4480 C   0  0  0  0  0  0  0  0  0  0  0  0
  142.1660  160.1280  132.9800 N   0  0  0  0  0  0  0  0  0  0  0  0
  143.6060  161.7610  133.7770 O   0  0  0  0  0  0  0  0  0  0  0  0
  145.9010  160.0290  133.7240 C   0  0  0  0  0  0  0  0  0  0  0  0
  146.6620  158.8870  133.6140 C   0  0  0  0  0  0  0  0  0  0  0  0
  148.0340  158.7110  133.7490 C   0  0  0  0  0  0  0  0  0  0  0  0
  148.5480  157.4100  133.6090 C   0  0  0  0  0  0  0  0  0  0  0  0
  147.6840  156.3110  133.3670 C   0  0  0  0  0  0  0  0  0  0  0  0
  148.2510  154.9260  133.1860 C   0  0  0  0  0  0  0  0  0  0  0  0
  148.3710  154.2810  134.4050 F   0  0  0  0  0  0  0  0  0  0  0  0
  147.4090  154.1930  132.3710 F   0  0  0  0  0  0  0  0  0  0  0  0
  149.5050  154.9850  132.6030 F   0  0  0  0  0  0  0  0  0  0  0  0
  146.2960  156.5370  133.2140 C   0  0  0  0  0  0  0  0  0  0  0  0
  145.8150  157.8460  133.3390 C   0  0  0  0  0  0  0  0  0  0  0  0
  139.0801  155.8072  134.2160 H   0  0  0  0  0  0  0  0  0  0  0  0
  138.2324  156.1153  132.6626 H   0  0  0  0  0  0  0  0  0  0  0  0
  139.9701  155.6600  132.6626 H   0  0  0  0  0  0  0  0  0  0  0  0
  138.7168  158.3110  132.9734 H   0  0  0  0  0  0  0  0  0  0  0  0
  140.9870  157.1060  131.8830 H   0  0  0  0  0  0  0  0  0  0  0  0
  141.5010  158.3970  132.8940 H   0  0  0  0  0  0  0  0  0  0  0  0
  141.0350  159.4770  131.2440 H   0  0  0  0  0  0  0  0  0  0  0  0
  143.1794  158.5124  135.5035 H   0  0  0  0  0  0  0  0  0  0  0  0
  142.1256  157.2211  136.1733 H   0  0  0  0  0  0  0  0  0  0  0  0
  142.0800  159.3480  132.2930 H   0  0  0  0  0  0  0  0  0  0  0  0
  146.2553  161.0474  133.9418 H   0  0  0  0  0  0  0  0  0  0  0  0
  148.6971  159.5632  133.9589 H   0  0  0  0  0  0  0  0  0  0  0  0
  149.6323  157.2422  133.6880 H   0  0  0  0  0  0  0  0  0  0  0  0
  145.6103  155.7035  133.0017 H   0  0  0  0  0  0  0  0  0  0  0  0
  1  2  1  0
  2  3  1  0
  3  4  1  0
  2  5  1  0
  5  6  2  0
  5  7  1  0
  7  8  1  0
  8  9  1  0
  9 10  1  0
 10 11  2  0
 10 12  1  0
 12 13  1  0
 13 14  1  0
 14 15  1  0
 14 16  2  0
 13 17  2  0
 17 18  1  0
 18 19  2  0
 19 20  1  0
 20 21  2  0
 21 22  1  0
 22 23  1  0
 22 24  1  0
 22 25  1  0
 21 26  1  0
 26 27  2  0
 27 12  1  0
 27 18  1  0
  1 28  1  0
  1 29  1  0
  1 30  1  0
  2 31  1  6
  3 32  1  0
  3 33  1  0
  4 34  1  0
  8 35  1  0
  8 36  1  0
 15 37  1  0
 17 38  1  0
 19 39  1  0
 20 40  1  0
 26 41  1  0
M  CHG  2   3   1  15  -1
M  END
>  <UniqueID>  (34) 
34

>  <SMILES>  (34) 
C[C@H]([NH2+]O)C(=O)OCOC(=O)n1c(C([NH-])=O)cc2ccc(C(F)(F)F)cc21

>  <Energy>  (34) 
75.0115314852233

>  <Genealogy>  (34) 
CC([NH2+]O)C(=O)OCOC(=O)n1c(C([NH-])=O)cc2ccc(C(F)(F)F)cc21 (protonated)
C[C@H]([NH2+]O)C(=O)OCOC(=O)n1c(C([NH-])=O)cc2ccc(C(F)(F)F)cc21 (chirality)
C[C@H]([NH2+]O)C(=O)OCOC(=O)n1c(C([NH-])=O)cc2ccc(C(F)(F)F)cc21 (3D coordinates assigned)
C[C@H]([NH2+]O)C(=O)OCOC(=O)n1c(C([NH-])=O)cc2ccc(C(F)(F)F)cc21 (optimized conformer: 75.0115314852233 kcal/mol)

>  <smiles>  (34) 
CC(NO)C(=O)OCOC(=O)n1c(C(N)=O)cc2ccc(C(F)(F)F)cc21

>  <score_type>  (34) 
oracle

>  <origin>  (34) 
adg

>  <m_score__min__energy>  (34) 
-5.3399999999999999

>  <m_primary>  (34) 
energy

$$$$
34:0
     RDKit          3D

 54 55  0  0  0  0  0  0  0  0999 V2000
  145.5230  153.0290  132.9940 C   0  0  0  0  0  0  0  0  0  0  0  0
  144.5440  154.1030  133.3050 N   0  0  0  0  0  0  0  0  0  0  0  0
  144.2580  154.0620  134.7640 C   0  0  0  0  0  0  0  0  0  0  0  0
  145.1950  155.4070  132.9460 C   0  0  0  0  0  0  0  0  0  0  0  0
  144.8500  156.6160  133.8620 C   0  0  0  0  0  0  0  0  0  0  0  0
  143.4370  157.1590  133.6140 C   0  0  0  0  0  0  0  0  0  0  0  0
  143.1250  157.0580  132.2470 O   0  0  0  0  0  0  0  0  0  0  0  0
  143.2980  153.9140  132.4930 C   0  0  0  0  0  0  0  0  0  0  0  0
  142.2600  152.9280  133.0830 C   0  0  0  0  0  0  0  0  0  0  0  0
  140.8750  153.5830  133.1420 C   0  0  0  0  0  0  0  0  0  0  0  0
  140.9760  154.9980  133.0060 O   0  0  0  0  0  0  0  0  0  0  0  0
  139.9090  155.8720  133.2410 C   0  0  0  0  0  0  0  0  0  0  0  0
  138.7270  155.5210  132.9820 O   0  0  0  0  0  0  0  0  0  0  0  0
  140.1670  157.1720  133.7850 N   0  0  0  0  0  0  0  0  0  0  0  0
  139.9600  158.3750  133.1810 C   0  0  0  0  0  0  0  0  0  0  0  0
  139.6000  158.5680  131.7560 C   0  0  0  0  0  0  0  0  0  0  0  0
  138.5150  157.8480  131.1710 N   0  0  0  0  0  0  0  0  0  0  0  0
  140.2250  159.4060  131.0550 O   0  0  0  0  0  0  0  0  0  0  0  0
  140.2370  159.4170  134.0660 C   0  0  0  0  0  0  0  0  0  0  0  0
  140.6200  158.8060  135.2400 C   0  0  0  0  0  0  0  0  0  0  0  0
  140.9930  159.3660  136.4570 C   0  0  0  0  0  0  0  0  0  0  0  0
  141.3110  158.4950  137.5130 C   0  0  0  0  0  0  0  0  0  0  0  0
  141.2250  157.0870  137.3430 C   0  0  0  0  0  0  0  0  0  0  0  0
  141.5720  156.1590  138.4760 C   0  0  0  0  0  0  0  0  0  0  0  0
  140.4330  155.5490  138.9670 F   0  0  0  0  0  0  0  0  0  0  0  0
  142.1740  156.8480  139.5150 F   0  0  0  0  0  0  0  0  0  0  0  0
  142.4390  155.1860  138.0220 F   0  0  0  0  0  0  0  0  0  0  0  0
  140.8670  156.5590  136.0800 C   0  0  0  0  0  0  0  0  0  0  0  0
  140.5720  157.4520  135.0440 C   0  0  0  0  0  0  0  0  0  0  0  0
  145.9107  152.6036  133.9314 H   0  0  0  0  0  0  0  0  0  0  0  0
  145.0277  152.2392  132.4102 H   0  0  0  0  0  0  0  0  0  0  0  0
  146.3552  153.4493  132.4102 H   0  0  0  0  0  0  0  0  0  0  0  0
  145.1945  154.1963  135.3252 H   0  0  0  0  0  0  0  0  0  0  0  0
  143.5565  154.8688  135.0230 H   0  0  0  0  0  0  0  0  0  0  0  0
  143.8114  153.0907  135.0230 H   0  0  0  0  0  0  0  0  0  0  0  0
  146.2846  155.2597  132.9792 H   0  0  0  0  0  0  0  0  0  0  0  0
  144.8065  155.6685  131.9507 H   0  0  0  0  0  0  0  0  0  0  0  0
  144.9252  156.2956  134.9116 H   0  0  0  0  0  0  0  0  0  0  0  0
  145.5621  157.4223  133.6322 H   0  0  0  0  0  0  0  0  0  0  0  0
  142.7122  156.5737  134.1989 H   0  0  0  0  0  0  0  0  0  0  0  0
  143.3925  158.2143  133.9213 H   0  0  0  0  0  0  0  0  0  0  0  0
  142.4250  156.3570  132.1820 H   0  0  0  0  0  0  0  0  0  0  0  0
  142.8112  154.8946  132.3863 H   0  0  0  0  0  0  0  0  0  0  0  0
  143.6236  153.4740  131.5389 H   0  0  0  0  0  0  0  0  0  0  0  0
  142.2102  152.0311  132.4480 H   0  0  0  0  0  0  0  0  0  0  0  0
  142.5684  152.6524  134.1023 H   0  0  0  0  0  0  0  0  0  0  0  0
  140.2537  153.1861  132.3256 H   0  0  0  0  0  0  0  0  0  0  0  0
  140.4194  153.3550  134.1169 H   0  0  0  0  0  0  0  0  0  0  0  0
  138.2300  158.0420  130.1870 H   0  0  0  0  0  0  0  0  0  0  0  0
  137.9970  157.1170  131.7030 H   0  0  0  0  0  0  0  0  0  0  0  0
  140.1650  160.4968  133.8686 H   0  0  0  0  0  0  0  0  0  0  0  0
  141.0377  160.4571  136.5890 H   0  0  0  0  0  0  0  0  0  0  0  0
  141.6299  158.9077  138.4815 H   0  0  0  0  0  0  0  0  0  0  0  0
  140.8217  155.4722  135.9165 H   0  0  0  0  0  0  0  0  0  0  0  0
  1  2  1  0
  2  3  1  0
  2  4  1  0
  4  5  1  0
  5  6  1  0
  6  7  1  0
  2  8  1  0
  8  9  1  0
  9 10  1  0
 10 11  1  0
 11 12  1  0
 12 13  2  0
 12 14  1  0
 14 15  1  0
 15 16  1  0
 16 17  1  0
 16 18  2  0
 15 19  2  0
 19 20  1  0
 20 21  2  0
 21 22  1  0
 22 23  2  0
 23 24  1  0
 24 25  1  0
 24 26  1  0
 24 27  1  0
 23 28  1  0
 28 29  2  0
 29 14  1  0
 29 20  1  0
  1 30  1  0
  1 31  1  0
  1 32  1  0
  3 33  1  0
  3 34  1  0
  3 35  1  0
  4 36  1  0
  4 37  1  0
  5 38  1  0
  5 39  1  0
  6 40  1  0
  6 41  1  0
  7 42  1  0
  8 43  1  0
  8 44  1  0
  9 45  1  0
  9 46  1  0
 10 47  1  0
 10 48  1  0
 17 49  1  0
 17 50  1  0
 19 51  1  0
 21 52  1  0
 22 53  1  0
 28 54  1  0
M  CHG  1   2   1
M  END
>  <UniqueID>  (35) 
35

>  <SMILES>  (35) 
C[N+](C)(CCCO)CCCOC(=O)n1c(C(N)=O)cc2ccc(C(F)(F)F)cc21

>  <Energy>  (35) 
99.80002442297375

>  <Genealogy>  (35) 
C[N+](C)(CCCO)CCCOC(=O)n1c(C(N)=O)cc2ccc(C(F)(F)F)cc21 (3D coordinates assigned)
C[N+](C)(CCCO)CCCOC(=O)n1c(C(N)=O)cc2ccc(C(F)(F)F)cc21 (optimized conformer: 99.80002442297375 kcal/mol)

>  <smiles>  (35) 
C[N+](C)(CCCO)CCCOC(=O)n1c(C(N)=O)cc2ccc(C(F)(F)F)cc21

>  <score_type>  (35) 
oracle

>  <origin>  (35) 
adg

>  <m_score__min__energy>  (35) 
-6.2800000000000002

>  <m_primary>  (35) 
energy

$$$$
35:0
     RDKit          3D

 41 43  0  0  0  0  0  0  0  0999 V2000
  144.9760  162.6430  134.1390 C   0  0  0  0  0  0  0  0  0  0  0  0
  144.5250  161.2260  133.9460 C   0  0  0  0  0  0  0  0  0  0  0  0
  143.1520  160.8970  134.0540 C   0  0  0  0  0  0  0  0  0  0  0  0
  142.7200  159.5690  133.8960 C   0  0  0  0  0  0  0  0  0  0  0  0
  143.6830  158.5940  133.6560 C   0  0  0  0  0  0  0  0  0  0  0  0
  143.5380  157.2430  133.4360 C   0  0  0  0  0  0  0  0  0  0  0  0
  144.8300  156.7610  133.2450 C   0  0  0  0  0  0  0  0  0  0  0  0
  145.1410  155.3330  133.0330 C   0  0  0  0  0  0  0  0  0  0  0  0
  145.8240  154.8900  131.8600 N   0  0  0  0  0  0  0  0  0  0  0  0
  144.8450  154.4960  133.9270 O   0  0  0  0  0  0  0  0  0  0  0  0
  145.7390  157.7720  133.3300 N   0  0  0  0  0  0  0  0  0  0  0  0
  147.1520  157.7030  133.0820 C   0  0  0  0  0  0  0  0  0  0  0  0
  147.6220  156.7760  132.3660 O   0  0  0  0  0  0  0  0  0  0  0  0
  148.0030  158.6680  133.6320 O   0  0  0  0  0  0  0  0  0  0  0  0
  148.8280  159.5250  132.8430 C   0  0  2  0  0  0  0  0  0  0  0  0
  148.0160  160.6780  132.2940 C   0  0  0  0  0  0  0  0  0  0  0  0
  148.6440  160.9530  130.9450 C   0  0  0  0  0  0  0  0  0  0  0  0
  149.1190  159.6620  130.4350 N   0  0  0  0  0  0  0  0  0  0  0  0
  150.3160  159.8190  129.5960 C   0  0  0  0  0  0  0  0  0  0  0  0
  149.3700  158.8050  131.6060 C   0  0  0  0  0  0  0  0  0  0  0  0
  145.0210  158.8900  133.5850 C   0  0  0  0  0  0  0  0  0  0  0  0
  145.4770  160.2080  133.7150 C   0  0  0  0  0  0  0  0  0  0  0  0
  145.0458  162.8623  135.2147 H   0  0  0  0  0  0  0  0  0  0  0  0
  145.9624  162.7807  133.6720 H   0  0  0  0  0  0  0  0  0  0  0  0
  144.2507  163.3255  133.6720 H   0  0  0  0  0  0  0  0  0  0  0  0
  142.4168  161.6880  134.2635 H   0  0  0  0  0  0  0  0  0  0  0  0
  141.6532  159.3085  133.9601 H   0  0  0  0  0  0  0  0  0  0  0  0
  142.6011  156.6670  133.4155 H   0  0  0  0  0  0  0  0  0  0  0  0
  146.2340  155.5730  131.1850 H   0  0  0  0  0  0  0  0  0  0  0  0
  145.9990  153.8720  131.7080 H   0  0  0  0  0  0  0  0  0  0  0  0
  149.6420  159.8557  133.5049 H   0  0  0  0  0  0  0  0  0  0  0  0
  146.9588  160.3950  132.1835 H   0  0  0  0  0  0  0  0  0  0  0  0
  148.0260  161.5574  132.9547 H   0  0  0  0  0  0  0  0  0  0  0  0
  147.8983  161.3814  130.2591 H   0  0  0  0  0  0  0  0  0  0  0  0
  149.4697  161.6747  131.0306 H   0  0  0  0  0  0  0  0  0  0  0  0
  151.2014  159.9351  130.2384 H   0  0  0  0  0  0  0  0  0  0  0  0
  150.4379  158.9292  128.9609 H   0  0  0  0  0  0  0  0  0  0  0  0
  150.2043  160.7102  128.9609 H   0  0  0  0  0  0  0  0  0  0  0  0
  148.8560  157.8407  131.4801 H   0  0  0  0  0  0  0  0  0  0  0  0
  150.4477  158.6140  131.7162 H   0  0  0  0  0  0  0  0  0  0  0  0
  146.5486  160.4443  133.6392 H   0  0  0  0  0  0  0  0  0  0  0  0
  1  2  1  0
  2  3  2  0
  3  4  1  0
  4  5  2  0
  5  6  1  0
  6  7  2  0
  7  8  1  0
  8  9  1  0
  8 10  2  0
  7 11  1  0
 11 12  1  0
 12 13  2  0
 12 14  1  0
 14 15  1  0
 15 16  1  0
 16 17  1  0
 17 18  1  0
 18 19  1  0
 18 20  1  0
 11 21  1  0
 21 22  2  0
 22  2  1  0
 21  5  1  0
 20 15  1  0
  1 23  1  0
  1 24  1  0
  1 25  1  0
  3 26  1  0
  4 27  1  0
  6 28  1  0
  9 29  1  0
  9 30  1  0
 15 31  1  1
 16 32  1  0
 16 33  1  0
 17 34  1  0
 17 35  1  0
 19 36  1  0
 19 37  1  0
 19 38  1  0
 20 39  1  0
 20 40  1  0
 22 41  1  0
M  END
>  <UniqueID>  (36) 
36

>  <SMILES>  (36) 
Cc1ccc2cc(C(N)=O)n(C(=O)O[C@@H]3CCN(C)C3)c2c1

>  <Energy>  (36) 
81.22480264995737

>  <Genealogy>  (36) 
Cc1ccc2cc(C(N)=O)n(C(=O)O[C@@H]3CCN(C)C3)c2c1 (3D coordinates assigned)
Cc1ccc2cc(C(N)=O)n(C(=O)O[C@@H]3CCN(C)C3)c2c1 (nonaromatic ring conformer: 81.22480264995737 kcal/mol)

>  <smiles>  (36) 
Cc1ccc2cc(C(N)=O)n(C(=O)O[C@@H]3CCN(C)C3)c2c1

>  <score_type>  (36) 
oracle

>  <origin>  (36) 
adg

>  <m_score__min__energy>  (36) 
-7.4000000000000004

>  <m_primary>  (36) 
energy

$$$$
36:0
     RDKit          3D

 56 60  0  0  0  0  0  0  0  0999 V2000
  148.8560  149.0030  135.3380 C   0  0  0  0  0  0  0  0  0  0  0  0
  148.7850  149.4390  133.9870 O   0  0  0  0  0  0  0  0  0  0  0  0
  149.2520  150.6910  133.5740 C   0  0  0  0  0  0  0  0  0  0  0  0
  150.2440  151.2230  134.1480 O   0  0  0  0  0  0  0  0  0  0  0  0
  148.5700  151.4150  132.4430 C   0  0  2  0  0  0  0  0  0  0  0  0
  149.6170  151.6650  131.3210 C   0  0  0  0  0  0  0  0  0  0  0  0
  150.7450  150.6590  131.1410 C   0  0  0  0  0  0  0  0  0  0  0  0
  149.6270  150.7490  130.1060 C   0  0  0  0  0  0  0  0  0  0  0  0
  147.7570  152.6280  132.9930 C   0  0  0  0  0  0  0  0  0  0  0  0
  146.3530  152.2500  132.6370 C   0  0  0  0  0  0  0  0  0  0  0  0
  145.1490  153.0660  132.9280 C   0  0  0  0  0  0  0  0  0  0  0  0
  145.2510  154.4590  133.0810 C   0  0  0  0  0  0  0  0  0  0  0  0
  144.1180  155.2300  133.3530 C   0  0  0  0  0  0  0  0  0  0  0  0
  142.8560  154.6260  133.4690 C   0  0  0  0  0  0  0  0  0  0  0  0
  141.6550  155.4490  133.7520 C   0  0  0  0  0  0  0  0  0  0  0  0
  140.6290  155.3260  133.0290 O   0  0  0  0  0  0  0  0  0  0  0  0
  141.6400  156.3980  134.8320 N   0  0  0  0  0  0  0  0  0  0  0  0
  141.6260  157.7580  134.7560 C   0  0  0  0  0  0  0  0  0  0  0  0
  141.7370  158.5590  133.5180 C   0  0  0  0  0  0  0  0  0  0  0  0
  141.6920  157.9450  132.2290 N   0  0  0  0  0  0  0  0  0  0  0  0
  141.9130  159.8030  133.6010 O   0  0  0  0  0  0  0  0  0  0  0  0
  141.5110  158.3190  136.0260 C   0  0  0  0  0  0  0  0  0  0  0  0
  141.4740  157.2490  136.8920 C   0  0  0  0  0  0  0  0  0  0  0  0
  141.3650  157.2210  138.2800 C   0  0  0  0  0  0  0  0  0  0  0  0
  141.3290  155.9670  138.9130 C   0  0  0  0  0  0  0  0  0  0  0  0
  141.3820  154.7730  138.1520 C   0  0  0  0  0  0  0  0  0  0  0  0
  141.3710  153.4410  138.8410 C   0  0  0  0  0  0  0  0  0  0  0  0
  141.5070  154.8400  136.7470 C   0  0  0  0  0  0  0  0  0  0  0  0
  141.5550  156.1020  136.1460 C   0  0  0  0  0  0  0  0  0  0  0  0
  142.7530  153.2330  133.3280 C   0  0  0  0  0  0  0  0  0  0  0  0
  143.8870  152.4610  133.0560 C   0  0  0  0  0  0  0  0  0  0  0  0
  146.2940  151.1110  132.0410 N   0  0  0  0  0  0  0  0  0  0  0  0
  147.5510  150.5840  131.9060 O   0  0  0  0  0  0  0  0  0  0  0  0
  148.7159  149.8635  136.0088 H   0  0  0  0  0  0  0  0  0  0  0  0
  148.0671  148.2597  135.5254 H   0  0  0  0  0  0  0  0  0  0  0  0
  149.8400  148.5484  135.5254 H   0  0  0  0  0  0  0  0  0  0  0  0
  149.5602  152.7534  131.4702 H   0  0  0  0  0  0  0  0  0  0  0  0
  151.7576  151.0069  130.8889 H   0  0  0  0  0  0  0  0  0  0  0  0
  151.1749  149.8535  131.7544 H   0  0  0  0  0  0  0  0  0  0  0  0
  149.8335  151.1617  129.1075 H   0  0  0  0  0  0  0  0  0  0  0  0
  148.9166  150.0351  129.6637 H   0  0  0  0  0  0  0  0  0  0  0  0
  147.8794  152.7305  134.0813 H   0  0  0  0  0  0  0  0  0  0  0  0
  148.0732  153.5973  132.5800 H   0  0  0  0  0  0  0  0  0  0  0  0
  146.2321  154.9471  132.9857 H   0  0  0  0  0  0  0  0  0  0  0  0
  144.2156  156.3186  133.4772 H   0  0  0  0  0  0  0  0  0  0  0  0
  141.7400  156.9080  132.1190 H   0  0  0  0  0  0  0  0  0  0  0  0
  141.7060  158.5360  131.3690 H   0  0  0  0  0  0  0  0  0  0  0  0
  141.4606  159.3876  136.2821 H   0  0  0  0  0  0  0  0  0  0  0  0
  141.3088  158.1521  138.8630 H   0  0  0  0  0  0  0  0  0  0  0  0
  141.2590  155.9118  140.0094 H   0  0  0  0  0  0  0  0  0  0  0  0
  141.3722  153.5918  139.9306 H   0  0  0  0  0  0  0  0  0  0  0  0
  140.4682  152.8845  138.5489 H   0  0  0  0  0  0  0  0  0  0  0  0
  142.2645  152.8697  138.5489 H   0  0  0  0  0  0  0  0  0  0  0  0
  141.5651  153.9237  136.1411 H   0  0  0  0  0  0  0  0  0  0  0  0
  141.7727  152.7449  133.4323 H   0  0  0  0  0  0  0  0  0  0  0  0
  143.7903  151.3713  132.9413 H   0  0  0  0  0  0  0  0  0  0  0  0
  1  2  1  0
  2  3  1  0
  3  4  2  0
  3  5  1  0
  5  6  1  6
  6  7  1  0
  7  8  1  0
  5  9  1  0
  9 10  1  0
 10 11  1  0
 11 12  2  0
 12 13  1  0
 13 14  2  0
 14 15  1  0
 15 16  2  0
 15 17  1  0
 17 18  1  0
 18 19  1  0
 19 20  1  0
 19 21  2  0
 18 22  2  0
 22 23  1  0
 23 24  2  0
 24 25  1  0
 25 26  2  0
 26 27  1  0
 26 28  1  0
 28 29  2  0
 14 30  1  0
 30 31  2  0
 10 32  2  0
 32 33  1  0
 33  5  1  0
  8  6  1  0
 31 11  1  0
 29 17  1  0
 29 23  1  0
  1 34  1  0
  1 35  1  0
  1 36  1  0
  6 37  1  0
  7 38  1  0
  7 39  1  0
  8 40  1  0
  8 41  1  0
  9 42  1  0
  9 43  1  0
 12 44  1  0
 13 45  1  0
 20 46  1  0
 20 47  1  0
 22 48  1  0
 24 49  1  0
 25 50  1  0
 27 51  1  0
 27 52  1  0
 27 53  1  0
 28 54  1  0
 30 55  1  0
 31 56  1  0
M  END
>  <UniqueID>  (37) 
37

>  <SMILES>  (37) 
COC(=O)[C@]1(C2CC2)CC(c2ccc(C(=O)n3c(C(N)=O)cc4ccc(C)cc43)cc2)=NO1

>  <Energy>  (37) 
383.1029649248229

>  <Genealogy>  (37) 
COC(=O)[C@]1(C2CC2)CC(c2ccc(C(=O)n3c(C(N)=O)cc4ccc(C)cc43)cc2)=NO1 (chirality)
COC(=O)[C@]1(C2CC2)CC(c2ccc(C(=O)n3c(C(N)=O)cc4ccc(C)cc43)cc2)=NO1 (3D coordinates assigned)
COC(=O)[C@]1(C2CC2)CC(c2ccc(C(=O)n3c(C(N)=O)cc4ccc(C)cc43)cc2)=NO1 (nonaromatic ring conformer: 383.1029649248229 kcal/mol)

>  <smiles>  (37) 
COC(=O)C1(C2CC2)CC(c2ccc(C(=O)n3c(C(N)=O)cc4ccc(C)cc43)cc2)=NO1

>  <score_type>  (37) 
oracle

>  <origin>  (37) 
adg

>  <m_score__min__energy>  (37) 
-9.3900000000000006

>  <m_primary>  (37) 
energy

$$$$
37:0
     RDKit          3D

 46 47  0  0  0  0  0  0  0  0999 V2000
  141.6170  156.4740  135.6180 C   0  0  0  0  0  0  0  0  0  0  0  0
  142.1830  157.9060  135.5020 C   0  0  2  0  0  0  0  0  0  0  0  0
  141.6050  158.7000  136.6540 C   0  0  0  0  0  0  0  0  0  0  0  0
  141.7560  158.3090  137.8430 O   0  0  0  0  0  0  0  0  0  0  0  0
  140.9720  159.9130  136.4100 O   0  0  0  0  0  0  0  0  0  0  0  0
  141.8830  158.5500  134.1820 N   0  0  2  0  0  0  0  0  0  0  0  0
  140.5270  158.2360  133.6210 C   0  0  0  0  0  0  0  0  0  0  0  0
  139.8000  159.3100  132.7680 C   0  0  0  0  0  0  0  0  0  0  0  0
  138.6870  158.8160  131.8300 C   0  0  0  0  0  0  0  0  0  0  0  0
  138.2080  159.8680  130.8760 C   0  0  0  0  0  0  0  0  0  0  0  0
  139.0250  160.4820  130.1390 O   0  0  0  0  0  0  0  0  0  0  0  0
  136.8490  160.1250  130.7510 O   0  0  0  0  0  0  0  0  0  0  0  0
  142.9700  158.3400  133.2320 C   0  0  0  0  0  0  0  0  0  0  0  0
  142.8500  157.4940  132.3060 O   0  0  0  0  0  0  0  0  0  0  0  0
  144.2560  158.9670  133.4320 N   0  0  0  0  0  0  0  0  0  0  0  0
  144.5090  160.2940  133.6480 C   0  0  0  0  0  0  0  0  0  0  0  0
  143.5110  161.3870  133.7110 C   0  0  0  0  0  0  0  0  0  0  0  0
  142.1200  161.0710  133.7640 N   0  0  0  0  0  0  0  0  0  0  0  0
  143.8630  162.5950  133.7260 O   0  0  0  0  0  0  0  0  0  0  0  0
  145.8770  160.5160  133.7760 C   0  0  0  0  0  0  0  0  0  0  0  0
  146.4640  159.2830  133.6450 C   0  0  0  0  0  0  0  0  0  0  0  0
  147.8060  158.9220  133.7300 C   0  0  0  0  0  0  0  0  0  0  0  0
  148.1300  157.5610  133.6120 C   0  0  0  0  0  0  0  0  0  0  0  0
  147.1160  156.5900  133.4110 C   0  0  0  0  0  0  0  0  0  0  0  0
  147.4680  155.1260  133.3590 C   0  0  0  0  0  0  0  0  0  0  0  0
  148.7000  154.9390  132.7600 F   0  0  0  0  0  0  0  0  0  0  0  0
  146.5220  154.4220  132.6320 F   0  0  0  0  0  0  0  0  0  0  0  0
  147.5120  154.6230  134.6460 F   0  0  0  0  0  0  0  0  0  0  0  0
  145.7630  156.9990  133.3590 C   0  0  0  0  0  0  0  0  0  0  0  0
  145.4670  158.3630  133.4470 C   0  0  0  0  0  0  0  0  0  0  0  0
  141.5112  156.2064  136.6797 H   0  0  0  0  0  0  0  0  0  0  0  0
  140.6330  156.4279  135.1285 H   0  0  0  0  0  0  0  0  0  0  0  0
  142.3036  155.7676  135.1285 H   0  0  0  0  0  0  0  0  0  0  0  0
  143.2814  157.8750  135.5535 H   0  0  0  0  0  0  0  0  0  0  0  0
  141.8560  159.5790  134.3770 H   0  0  0  0  0  0  0  0  0  0  0  0
  140.6384  157.3428  132.9886 H   0  0  0  0  0  0  0  0  0  0  0  0
  139.8903  158.1302  134.5117 H   0  0  0  0  0  0  0  0  0  0  0  0
  139.3522  160.0376  133.4609 H   0  0  0  0  0  0  0  0  0  0  0  0
  140.5742  159.7209  132.1033 H   0  0  0  0  0  0  0  0  0  0  0  0
  139.0722  157.9657  131.2481 H   0  0  0  0  0  0  0  0  0  0  0  0
  137.8310  158.5321  132.4599 H   0  0  0  0  0  0  0  0  0  0  0  0
  141.6560  160.8440  134.6710 H   0  0  0  0  0  0  0  0  0  0  0  0
  146.3817  161.4784  133.9465 H   0  0  0  0  0  0  0  0  0  0  0  0
  148.5883  159.6797  133.8848 H   0  0  0  0  0  0  0  0  0  0  0  0
  149.1815  157.2444  133.6761 H   0  0  0  0  0  0  0  0  0  0  0  0
  144.9578  156.2573  133.2512 H   0  0  0  0  0  0  0  0  0  0  0  0
  1  2  1  0
  2  3  1  0
  3  4  2  0
  3  5  1  0
  2  6  1  0
  6  7  1  0
  7  8  1  0
  8  9  1  0
  9 10  1  0
 10 11  2  0
 10 12  1  0
  6 13  1  0
 13 14  2  0
 13 15  1  0
 15 16  1  0
 16 17  1  0
 17 18  1  0
 17 19  2  0
 16 20  2  0
 20 21  1  0
 21 22  2  0
 22 23  1  0
 23 24  2  0
 24 25  1  0
 25 26  1  0
 25 27  1  0
 25 28  1  0
 24 29  1  0
 29 30  2  0
 30 15  1  0
 30 21  1  0
  1 31  1  0
  1 32  1  0
  1 33  1  0
  2 34  1  1
  6 35  1  1
  7 36  1  0
  7 37  1  0
  8 38  1  0
  8 39  1  0
  9 40  1  0
  9 41  1  0
 18 42  1  0
 20 43  1  0
 22 44  1  0
 23 45  1  0
 29 46  1  0
M  CHG  4   5  -1   6   1  12  -1  18  -1
M  END
>  <UniqueID>  (38) 
38

>  <SMILES>  (38) 
C[C@H](C(=O)[O-])[N@H+](CCCC(=O)[O-])C(=O)n1c(C([NH-])=O)cc2ccc(C(F)(F)F)cc21

>  <Energy>  (38) 
100.37270160401943

>  <Genealogy>  (38) 
CC(C(=O)[O-])[NH+](CCCC(=O)[O-])C(=O)n1c(C([NH-])=O)cc2ccc(C(F)(F)F)cc21 (protonated)
C[C@H](C(=O)[O-])[N@H+](CCCC(=O)[O-])C(=O)n1c(C([NH-])=O)cc2ccc(C(F)(F)F)cc21 (chirality)
C[C@H](C(=O)[O-])[N@H+](CCCC(=O)[O-])C(=O)n1c(C([NH-])=O)cc2ccc(C(F)(F)F)cc21 (3D coordinates assigned)
C[C@H](C(=O)[O-])[N@H+](CCCC(=O)[O-])C(=O)n1c(C([NH-])=O)cc2ccc(C(F)(F)F)cc21 (optimized conformer: 100.37270160401943 kcal/mol)

>  <smiles>  (38) 
CC(C(=O)O)N(CCCC(=O)O)C(=O)n1c(C(N)=O)cc2ccc(C(F)(F)F)cc21

>  <score_type>  (38) 
oracle

>  <origin>  (38) 
adg

>  <m_score__min__energy>  (38) 
-6.3300000000000001

>  <m_primary>  (38) 
energy

$$$$
38:0
     RDKit          3D

 39 40  0  0  0  0  0  0  0  0999 V2000
  138.7310  159.8040  131.1370 C   0  0  0  0  0  0  0  0  0  0  0  0
  138.6810  158.4070  131.3140 O   0  0  0  0  0  0  0  0  0  0  0  0
  139.5180  158.0430  132.3920 C   0  0  0  0  0  0  0  0  0  0  0  0
  138.7400  158.1710  133.6990 C   0  0  0  0  0  0  0  0  0  0  0  0
  139.4480  157.5250  134.7430 O   0  0  0  0  0  0  0  0  0  0  0  0
  140.5120  156.7450  134.2370 C   0  0  0  0  0  0  0  0  0  0  0  0
  141.7650  157.3140  134.6080 O   0  0  0  0  0  0  0  0  0  0  0  0
  142.8460  157.4270  133.7310 C   0  0  0  0  0  0  0  0  0  0  0  0
  143.1490  156.4670  132.9710 O   0  0  0  0  0  0  0  0  0  0  0  0
  143.5940  158.6520  133.6780 N   0  0  0  0  0  0  0  0  0  0  0  0
  143.1340  159.9250  133.8470 C   0  0  0  0  0  0  0  0  0  0  0  0
  141.7190  160.3290  133.9810 C   0  0  0  0  0  0  0  0  0  0  0  0
  140.9830  160.0460  135.1680 N   0  0  0  0  0  0  0  0  0  0  0  0
  141.1360  160.8840  133.0110 O   0  0  0  0  0  0  0  0  0  0  0  0
  144.1830  160.8390  133.7740 C   0  0  0  0  0  0  0  0  0  0  0  0
  145.3080  160.0850  133.5390 C   0  0  0  0  0  0  0  0  0  0  0  0
  146.6280  160.4830  133.3540 C   0  0  0  0  0  0  0  0  0  0  0  0
  147.5920  159.4870  133.1240 C   0  0  0  0  0  0  0  0  0  0  0  0
  147.2280  158.1150  133.1110 C   0  0  0  0  0  0  0  0  0  0  0  0
  148.2570  157.0530  132.8170 C   0  0  0  0  0  0  0  0  0  0  0  0
  149.3030  157.5730  132.0750 F   0  0  0  0  0  0  0  0  0  0  0  0
  148.7740  156.5390  133.9920 F   0  0  0  0  0  0  0  0  0  0  0  0
  147.6630  156.0310  132.1010 F   0  0  0  0  0  0  0  0  0  0  0  0
  145.8720  157.7530  133.2860 C   0  0  0  0  0  0  0  0  0  0  0  0
  144.9290  158.7690  133.4870 C   0  0  0  0  0  0  0  0  0  0  0  0
  138.7487  160.2977  132.1198 H   0  0  0  0  0  0  0  0  0  0  0  0
  139.6393  160.0703  130.5765 H   0  0  0  0  0  0  0  0  0  0  0  0
  137.8441  160.1346  130.5765 H   0  0  0  0  0  0  0  0  0  0  0  0
  139.8519  157.0028  132.2633 H   0  0  0  0  0  0  0  0  0  0  0  0
  140.3951  158.7063  132.4183 H   0  0  0  0  0  0  0  0  0  0  0  0
  138.6144  159.2354  133.9468 H   0  0  0  0  0  0  0  0  0  0  0  0
  137.7532  157.6992  133.5826 H   0  0  0  0  0  0  0  0  0  0  0  0
  140.4411  155.7263  134.6460 H   0  0  0  0  0  0  0  0  0  0  0  0
  140.4436  156.7171  133.1395 H   0  0  0  0  0  0  0  0  0  0  0  0
  140.7850  159.0610  135.4540 H   0  0  0  0  0  0  0  0  0  0  0  0
  144.1235  161.9321  133.8816 H   0  0  0  0  0  0  0  0  0  0  0  0
  146.9088  161.5460  133.3868 H   0  0  0  0  0  0  0  0  0  0  0  0
  148.6400  159.7735  132.9521 H   0  0  0  0  0  0  0  0  0  0  0  0
  145.5648  156.6970  133.2647 H   0  0  0  0  0  0  0  0  0  0  0  0
  1  2  1  0
  2  3  1  0
  3  4  1  0
  4  5  1  0
  5  6  1  0
  6  7  1  0
  7  8  1  0
  8  9  2  0
  8 10  1  0
 10 11  1  0
 11 12  1  0
 12 13  1  0
 12 14  2  0
 11 15  2  0
 15 16  1  0
 16 17  2  0
 17 18  1  0
 18 19  2  0
 19 20  1  0
 20 21  1  0
 20 22  1  0
 20 23  1  0
 19 24  1  0
 24 25  2  0
 25 10  1  0
 25 16  1  0
  1 26  1  0
  1 27  1  0
  1 28  1  0
  3 29  1  0
  3 30  1  0
  4 31  1  0
  4 32  1  0
  6 33  1  0
  6 34  1  0
 13 35  1  0
 15 36  1  0
 17 37  1  0
 18 38  1  0
 24 39  1  0
M  CHG  1  13  -1
M  END
>  <UniqueID>  (39) 
39

>  <SMILES>  (39) 
COCCOCOC(=O)n1c(C([NH-])=O)cc2ccc(C(F)(F)F)cc21

>  <Energy>  (39) 
77.62946813289074

>  <Genealogy>  (39) 
COCCOCOC(=O)n1c(C([NH-])=O)cc2ccc(C(F)(F)F)cc21 (protonated)
COCCOCOC(=O)n1c(C([NH-])=O)cc2ccc(C(F)(F)F)cc21 (3D coordinates assigned)
COCCOCOC(=O)n1c(C([NH-])=O)cc2ccc(C(F)(F)F)cc21 (optimized conformer: 77.62946813289074 kcal/mol)

>  <smiles>  (39) 
COCCOCOC(=O)n1c(C(N)=O)cc2ccc(C(F)(F)F)cc21

>  <score_type>  (39) 
oracle

>  <origin>  (39) 
adg

>  <m_score__min__energy>  (39) 
-5.5

>  <m_primary>  (39) 
energy

$$$$
39:0
     RDKit          3D

 39 40  0  0  0  0  0  0  0  0999 V2000
  142.8260  161.0540  133.6470 N   0  0  0  0  0  0  0  0  0  0  0  0
  144.2420  161.1790  133.7860 C   0  0  0  0  0  0  0  0  0  0  0  0
  144.7340  162.2950  134.0990 O   0  0  0  0  0  0  0  0  0  0  0  0
  145.1340  160.0130  133.6190 C   0  0  0  0  0  0  0  0  0  0  0  0
  146.4490  160.1100  133.1720 C   0  0  0  0  0  0  0  0  0  0  0  0
  146.9430  158.8260  133.2180 C   0  0  0  0  0  0  0  0  0  0  0  0
  148.1950  158.3350  132.8620 C   0  0  0  0  0  0  0  0  0  0  0  0
  148.4150  156.9510  132.9730 C   0  0  0  0  0  0  0  0  0  0  0  0
  147.3910  156.0870  133.4410 C   0  0  0  0  0  0  0  0  0  0  0  0
  147.6310  154.6000  133.4950 C   0  0  0  0  0  0  0  0  0  0  0  0
  148.8100  154.2790  132.8450 F   0  0  0  0  0  0  0  0  0  0  0  0
  146.5820  153.9470  132.8770 F   0  0  0  0  0  0  0  0  0  0  0  0
  147.7270  154.1610  134.8050 F   0  0  0  0  0  0  0  0  0  0  0  0
  146.1250  156.6240  133.7710 C   0  0  0  0  0  0  0  0  0  0  0  0
  145.9400  158.0070  133.6670 C   0  0  0  0  0  0  0  0  0  0  0  0
  144.8210  158.7200  133.9140 N   0  0  0  0  0  0  0  0  0  0  0  0
  143.5450  158.1830  134.2930 C   0  0  0  0  0  0  0  0  0  0  0  0
  142.8610  158.7620  135.1800 O   0  0  0  0  0  0  0  0  0  0  0  0
  143.0250  156.9210  133.6770 C   0  0  0  0  0  0  0  0  0  0  0  0
  141.8080  156.5740  134.3020 O   0  0  0  0  0  0  0  0  0  0  0  0
  140.8990  156.0340  133.3610 C   0  0  0  0  0  0  0  0  0  0  0  0
  139.8530  157.0850  132.9840 C   0  0  0  0  0  0  0  0  0  0  0  0
  140.3170  158.4260  133.3400 N   0  0  0  0  0  0  0  0  0  0  0  0
  139.9380  159.5960  132.6070 C   0  0  0  0  0  0  0  0  0  0  0  0
  139.1560  159.5150  131.6200 O   0  0  0  0  0  0  0  0  0  0  0  0
  140.4420  160.8360  132.9770 O   0  0  0  0  0  0  0  0  0  0  0  0
  142.2170  161.9000  133.7120 H   0  0  0  0  0  0  0  0  0  0  0  0
  142.3720  160.1170  133.5750 H   0  0  0  0  0  0  0  0  0  0  0  0
  146.9797  161.0184  132.8508 H   0  0  0  0  0  0  0  0  0  0  0  0
  148.9879  159.0086  132.5049 H   0  0  0  0  0  0  0  0  0  0  0  0
  149.3931  156.5325  132.6936 H   0  0  0  0  0  0  0  0  0  0  0  0
  145.3049  155.9697  134.1017 H   0  0  0  0  0  0  0  0  0  0  0  0
  142.8560  157.0777  132.6014 H   0  0  0  0  0  0  0  0  0  0  0  0
  143.7572  156.1114  133.8124 H   0  0  0  0  0  0  0  0  0  0  0  0
  141.4480  155.7261  132.4589 H   0  0  0  0  0  0  0  0  0  0  0  0
  140.3937  155.1634  133.8045 H   0  0  0  0  0  0  0  0  0  0  0  0
  139.6715  157.0415  131.8999 H   0  0  0  0  0  0  0  0  0  0  0  0
  138.9245  156.8738  133.5347 H   0  0  0  0  0  0  0  0  0  0  0  0
  141.0050  158.5280  134.1220 H   0  0  0  0  0  0  0  0  0  0  0  0
  1  2  1  0
  2  3  2  0
  2  4  1  0
  4  5  2  0
  5  6  1  0
  6  7  2  0
  7  8  1  0
  8  9  2  0
  9 10  1  0
 10 11  1  0
 10 12  1  0
 10 13  1  0
  9 14  1  0
 14 15  2  0
 15 16  1  0
 16 17  1  0
 17 18  2  0
 17 19  1  0
 19 20  1  0
 20 21  1  0
 21 22  1  0
 22 23  1  0
 23 24  1  0
 24 25  2  0
 24 26  1  0
 16  4  1  0
 15  6  1  0
  1 27  1  0
  1 28  1  0
  5 29  1  0
  7 30  1  0
  8 31  1  0
 14 32  1  0
 19 33  1  0
 19 34  1  0
 21 35  1  0
 21 36  1  0
 22 37  1  0
 22 38  1  0
 23 39  1  0
M  CHG  1  26  -1
M  END
>  <UniqueID>  (40) 
40

>  <SMILES>  (40) 
NC(=O)c1cc2ccc(C(F)(F)F)cc2n1C(=O)COCCNC(=O)[O-]

>  <Energy>  (40) 
77.09728198706127

>  <Genealogy>  (40) 
NC(=O)c1cc2ccc(C(F)(F)F)cc2n1C(=O)COCCNC(=O)[O-] (protonated)
NC(=O)c1cc2ccc(C(F)(F)F)cc2n1C(=O)COCCNC(=O)[O-] (3D coordinates assigned)
NC(=O)c1cc2ccc(C(F)(F)F)cc2n1C(=O)COCCNC(=O)[O-] (optimized conformer: 77.09728198706127 kcal/mol)

>  <smiles>  (40) 
NC(=O)c1cc2ccc(C(F)(F)F)cc2n1C(=O)COCCNC(=O)O

>  <score_type>  (40) 
oracle

>  <origin>  (40) 
adg

>  <m_score__min__energy>  (40) 
-6.2999999999999998

>  <m_primary>  (40) 
energy

$$$$
40:0
     RDKit          3D

 46 48  0  0  0  0  0  0  0  0999 V2000
  145.2820  152.7840  132.6210 C   0  0  0  0  0  0  0  0  0  0  0  0
  144.3260  153.9840  132.4780 C   0  0  0  0  0  0  0  0  0  0  0  0
  142.8820  153.5750  132.8300 C   0  0  0  0  0  0  0  0  0  0  0  0
  144.3610  154.4780  131.0240 C   0  0  0  0  0  0  0  0  0  0  0  0
  144.7580  155.0740  133.3050 O   0  0  0  0  0  0  0  0  0  0  0  0
  145.7010  156.0550  132.9610 C   0  0  0  0  0  0  0  0  0  0  0  0
  146.8210  155.7370  132.4800 O   0  0  0  0  0  0  0  0  0  0  0  0
  145.3730  157.4420  133.1410 N   0  0  0  0  0  0  0  0  0  0  0  0
  146.2330  158.4840  133.3220 C   0  0  0  0  0  0  0  0  0  0  0  0
  147.7060  158.4210  133.2170 C   0  0  0  0  0  0  0  0  0  0  0  0
  148.3130  158.0890  131.9710 N   0  0  0  0  0  0  0  0  0  0  0  0
  148.4340  158.6230  134.2240 O   0  0  0  0  0  0  0  0  0  0  0  0
  145.5280  159.6640  133.5450 C   0  0  0  0  0  0  0  0  0  0  0  0
  144.1990  159.3110  133.4900 C   0  0  0  0  0  0  0  0  0  0  0  0
  143.0610  160.0880  133.6580 C   0  0  0  0  0  0  0  0  0  0  0  0
  141.8100  159.4550  133.5820 C   0  0  0  0  0  0  0  0  0  0  0  0
  141.7030  158.0520  133.3460 C   0  0  0  0  0  0  0  0  0  0  0  0
  140.3320  157.3490  133.2770 C   0  0  0  0  0  0  0  0  0  0  0  0
  140.3680  155.8060  133.1030 C   0  0  0  0  0  0  0  0  0  0  0  0
  139.0820  155.2610  132.9350 O   0  0  0  0  0  0  0  0  0  0  0  0
  139.3420  158.0360  132.3430 C   0  0  0  0  0  0  0  0  0  0  0  0
  138.5030  158.4250  133.4070 O   0  0  0  0  0  0  0  0  0  0  0  0
  139.3530  157.8120  134.3490 C   0  0  0  0  0  0  0  0  0  0  0  0
  142.9020  157.3040  133.1840 C   0  0  0  0  0  0  0  0  0  0  0  0
  144.1320  157.9660  133.2470 C   0  0  0  0  0  0  0  0  0  0  0  0
  145.4495  152.5737  133.6876 H   0  0  0  0  0  0  0  0  0  0  0  0
  144.8370  151.9012  132.1387 H   0  0  0  0  0  0  0  0  0  0  0  0
  146.2419  153.0204  132.1387 H   0  0  0  0  0  0  0  0  0  0  0  0
  142.7664  153.5423  133.9234 H   0  0  0  0  0  0  0  0  0  0  0  0
  142.1798  154.3096  132.4089 H   0  0  0  0  0  0  0  0  0  0  0  0
  142.6694  152.5813  132.4089 H   0  0  0  0  0  0  0  0  0  0  0  0
  144.4387  155.5752  131.0113 H   0  0  0  0  0  0  0  0  0  0  0  0
  145.2306  154.0428  130.5097 H   0  0  0  0  0  0  0  0  0  0  0  0
  143.4388  154.1697  130.5097 H   0  0  0  0  0  0  0  0  0  0  0  0
  148.1340  157.1670  131.5140 H   0  0  0  0  0  0  0  0  0  0  0  0
  145.9449  160.6656  133.7266 H   0  0  0  0  0  0  0  0  0  0  0  0
  143.1372  161.1692  133.8454 H   0  0  0  0  0  0  0  0  0  0  0  0
  140.8948  160.0523  133.7068 H   0  0  0  0  0  0  0  0  0  0  0  0
  140.9743  155.5632  132.2179 H   0  0  0  0  0  0  0  0  0  0  0  0
  140.8022  155.3728  134.0161 H   0  0  0  0  0  0  0  0  0  0  0  0
  138.4390  156.0180  132.9190 H   0  0  0  0  0  0  0  0  0  0  0  0
  139.7749  158.8849  131.7935 H   0  0  0  0  0  0  0  0  0  0  0  0
  138.9117  157.4622  131.5090 H   0  0  0  0  0  0  0  0  0  0  0  0
  139.7928  158.5194  135.0675 H   0  0  0  0  0  0  0  0  0  0  0  0
  138.9309  157.0676  135.0401 H   0  0  0  0  0  0  0  0  0  0  0  0
  142.8621  156.2184  133.0113 H   0  0  0  0  0  0  0  0  0  0  0  0
  1  2  1  0
  2  3  1  0
  2  4  1  0
  2  5  1  0
  5  6  1  0
  6  7  2  0
  6  8  1  0
  8  9  1  0
  9 10  1  0
 10 11  1  0
 10 12  2  0
  9 13  2  0
 13 14  1  0
 14 15  2  0
 15 16  1  0
 16 17  2  0
 17 18  1  0
 18 19  1  0
 19 20  1  0
 18 21  1  0
 21 22  1  0
 22 23  1  0
 17 24  1  0
 24 25  2  0
 25  8  1  0
 25 14  1  0
 23 18  1  0
  1 26  1  0
  1 27  1  0
  1 28  1  0
  3 29  1  0
  3 30  1  0
  3 31  1  0
  4 32  1  0
  4 33  1  0
  4 34  1  0
 11 35  1  0
 13 36  1  0
 15 37  1  0
 16 38  1  0
 19 39  1  0
 19 40  1  0
 20 41  1  0
 21 42  1  0
 21 43  1  0
 23 44  1  0
 23 45  1  0
 24 46  1  0
M  CHG  1  11  -1
M  END
>  <UniqueID>  (41) 
41

>  <SMILES>  (41) 
CC(C)(C)OC(=O)n1c(C([NH-])=O)cc2ccc(C3(CO)COC3)cc21

>  <Energy>  (41) 
152.347644198936

>  <Genealogy>  (41) 
CC(C)(C)OC(=O)n1c(C([NH-])=O)cc2ccc(C3(CO)COC3)cc21 (protonated)
CC(C)(C)OC(=O)n1c(C([NH-])=O)cc2ccc(C3(CO)COC3)cc21 (3D coordinates assigned)
CC(C)(C)OC(=O)n1c(C([NH-])=O)cc2ccc(C3(CO)COC3)cc21 (nonaromatic ring conformer: 152.347644198936 kcal/mol)

>  <smiles>  (41) 
CC(C)(C)OC(=O)n1c(C(N)=O)cc2ccc(C3(CO)COC3)cc21

>  <score_type>  (41) 
oracle

>  <origin>  (41) 
adg

>  <m_score__min__energy>  (41) 
-7.0300000000000002

>  <m_primary>  (41) 
energy

$$$$
41:0
     RDKit          3D

 38 39  0  0  0  0  0  0  0  0999 V2000
  143.0810  156.3790  135.2380 C   0  0  0  0  0  0  0  0  0  0  0  0
  142.6690  157.4790  134.6000 C   0  0  0  0  0  0  0  0  0  0  0  0
  141.4460  158.1800  135.0510 C   0  0  0  0  0  0  0  0  0  0  0  0
  141.1080  158.0950  136.2620 O   0  0  0  0  0  0  0  0  0  0  0  0
  140.6050  158.9190  134.1560 N   0  0  0  0  0  0  0  0  0  0  0  0
  139.4870  158.3690  133.3960 C   0  0  0  0  0  0  0  0  0  0  0  0
  139.6900  158.6360  131.9100 C   0  0  0  0  0  0  0  0  0  0  0  0
  140.6140  159.6720  131.7330 O   0  0  0  0  0  0  0  0  0  0  0  0
  143.3700  157.9480  133.3770 C   0  0  0  0  0  0  0  0  0  0  0  0
  142.8330  157.8190  132.2430 O   0  0  0  0  0  0  0  0  0  0  0  0
  144.6670  158.5570  133.4670 N   0  0  0  0  0  0  0  0  0  0  0  0
  144.9620  159.8830  133.5710 C   0  0  0  0  0  0  0  0  0  0  0  0
  143.9800  160.9840  133.6790 C   0  0  0  0  0  0  0  0  0  0  0  0
  142.6070  160.7790  133.3580 N   0  0  0  0  0  0  0  0  0  0  0  0
  144.3560  162.1180  134.0790 O   0  0  0  0  0  0  0  0  0  0  0  0
  146.3440  160.0700  133.6120 C   0  0  0  0  0  0  0  0  0  0  0  0
  146.8860  158.8070  133.5280 C   0  0  0  0  0  0  0  0  0  0  0  0
  148.2170  158.4000  133.5080 C   0  0  0  0  0  0  0  0  0  0  0  0
  148.4830  157.0250  133.3880 C   0  0  0  0  0  0  0  0  0  0  0  0
  147.4230  156.0840  133.3000 C   0  0  0  0  0  0  0  0  0  0  0  0
  147.7260  154.6200  133.1110 C   0  0  0  0  0  0  0  0  0  0  0  0
  148.0670  154.0340  134.3180 F   0  0  0  0  0  0  0  0  0  0  0  0
  148.7810  154.4840  132.2280 F   0  0  0  0  0  0  0  0  0  0  0  0
  146.6250  153.9530  132.6020 F   0  0  0  0  0  0  0  0  0  0  0  0
  146.0860  156.5430  133.2970 C   0  0  0  0  0  0  0  0  0  0  0  0
  145.8520  157.9140  133.4380 C   0  0  0  0  0  0  0  0  0  0  0  0
  143.9898  155.8572  134.9037 H   0  0  0  0  0  0  0  0  0  0  0  0
  142.5112  155.9956  136.0973 H   0  0  0  0  0  0  0  0  0  0  0  0
  139.4282  157.2840  133.5671 H   0  0  0  0  0  0  0  0  0  0  0  0
  138.5536  158.8483  133.7262 H   0  0  0  0  0  0  0  0  0  0  0  0
  140.0672  157.7241  131.4240 H   0  0  0  0  0  0  0  0  0  0  0  0
  138.7293  158.9275  131.4604 H   0  0  0  0  0  0  0  0  0  0  0  0
  141.4390  159.3890  132.2060 H   0  0  0  0  0  0  0  0  0  0  0  0
  142.2590  159.8410  133.0600 H   0  0  0  0  0  0  0  0  0  0  0  0
  146.8856  161.0239  133.6940 H   0  0  0  0  0  0  0  0  0  0  0  0
  149.0350  159.1315  133.5837 H   0  0  0  0  0  0  0  0  0  0  0  0
  149.5250  156.6735  133.3619 H   0  0  0  0  0  0  0  0  0  0  0  0
  145.2491  155.8377  133.1863 H   0  0  0  0  0  0  0  0  0  0  0  0
  1  2  2  0
  2  3  1  0
  3  4  2  0
  3  5  1  0
  5  6  1  0
  6  7  1  0
  7  8  1  0
  2  9  1  0
  9 10  2  0
  9 11  1  0
 11 12  1  0
 12 13  1  0
 13 14  1  0
 13 15  2  0
 12 16  2  0
 16 17  1  0
 17 18  2  0
 18 19  1  0
 19 20  2  0
 20 21  1  0
 21 22  1  0
 21 23  1  0
 21 24  1  0
 20 25  1  0
 25 26  2  0
 26 11  1  0
 26 17  1  0
  1 27  1  0
  1 28  1  0
  6 29  1  0
  6 30  1  0
  7 31  1  0
  7 32  1  0
  8 33  1  0
 14 34  1  0
 16 35  1  0
 18 36  1  0
 19 37  1  0
 25 38  1  0
M  CHG  2   5  -1  14  -1
M  END
>  <UniqueID>  (42) 
42

>  <SMILES>  (42) 
C=C(C(=O)[N-]CCO)C(=O)n1c(C([NH-])=O)cc2ccc(C(F)(F)F)cc21

>  <Energy>  (42) 
77.77258109770375

>  <Genealogy>  (42) 
C=C(C(=O)[N-]CCO)C(=O)n1c(C([NH-])=O)cc2ccc(C(F)(F)F)cc21 (protonated)
C=C(C(=O)[N-]CCO)C(=O)n1c(C([NH-])=O)cc2ccc(C(F)(F)F)cc21 (3D coordinates assigned)
C=C(C(=O)[N-]CCO)C(=O)n1c(C([NH-])=O)cc2ccc(C(F)(F)F)cc21 (optimized conformer: 77.77258109770375 kcal/mol)

>  <smiles>  (42) 
C=C(C(=O)NCCO)C(=O)n1c(C(N)=O)cc2ccc(C(F)(F)F)cc21

>  <score_type>  (42) 
oracle

>  <origin>  (42) 
adg

>  <m_score__min__energy>  (42) 
-5.4900000000000002

>  <m_primary>  (42) 
energy

$$$$
42:0
     RDKit          3D

 58 59  0  0  0  0  0  0  0  0999 V2000
  148.2850  158.9800  133.6080 C   0  0  0  0  0  0  0  0  0  0  0  0
  146.8020  159.1980  133.6470 C   0  0  0  0  0  0  0  0  0  0  0  0
  146.2700  160.5120  133.6500 C   0  0  0  0  0  0  0  0  0  0  0  0
  144.8800  160.7220  133.6680 C   0  0  0  0  0  0  0  0  0  0  0  0
  144.0530  159.6010  133.6690 C   0  0  0  0  0  0  0  0  0  0  0  0
  142.6790  159.5130  133.6840 C   0  0  0  0  0  0  0  0  0  0  0  0
  142.3930  158.1490  133.6540 C   0  0  0  0  0  0  0  0  0  0  0  0
  141.0240  157.5910  133.5600 C   0  0  0  0  0  0  0  0  0  0  0  0
  140.7610  156.2250  133.8850 N   0  0  0  0  0  0  0  0  0  0  0  0
  140.0640  158.3280  133.2110 O   0  0  0  0  0  0  0  0  0  0  0  0
  143.5480  157.4240  133.6180 N   0  0  0  0  0  0  0  0  0  0  0  0
  143.6880  155.9960  133.5610 C   0  0  0  0  0  0  0  0  0  0  0  0
  143.0880  155.3380  132.6690 O   0  0  0  0  0  0  0  0  0  0  0  0
  144.5120  155.3250  134.5210 N   0  0  0  0  0  0  0  0  0  0  0  0
  144.0340  154.8720  135.8210 C   0  0  0  0  0  0  0  0  0  0  0  0
  142.5490  155.0170  135.9050 C   0  0  0  0  0  0  0  0  0  0  0  0
  142.0470  156.1170  136.2660 O   0  0  0  0  0  0  0  0  0  0  0  0
  141.7320  153.9400  135.5510 O   0  0  0  0  0  0  0  0  0  0  0  0
  142.2520  152.6410  135.2760 C   0  0  0  0  0  0  0  0  0  0  0  0
  141.8190  152.1630  133.8770 C   0  0  2  0  0  0  0  0  0  0  0  0
  143.0590  151.9450  132.9870 C   0  0  0  0  0  0  0  0  0  0  0  0
  140.9320  153.1760  133.2700 C   0  0  0  0  0  0  0  0  0  0  0  0
  140.2370  153.9710  132.7950 N   0  0  0  0  0  0  0  0  0  0  0  0
  141.0870  150.9030  134.0380 N   0  0  0  0  0  0  0  0  0  0  0  0
  141.0980  149.7950  133.1270 C   0  0  0  0  0  0  0  0  0  0  0  0
  142.1880  149.2790  132.7630 O   0  0  0  0  0  0  0  0  0  0  0  0
  139.8740  149.3060  132.6520 O   0  0  0  0  0  0  0  0  0  0  0  0
  139.4970  149.1470  131.2740 C   0  0  0  0  0  0  0  0  0  0  0  0
  137.9790  148.9100  131.1520 C   0  0  0  0  0  0  0  0  0  0  0  0
  140.2800  147.9910  130.6250 C   0  0  0  0  0  0  0  0  0  0  0  0
  139.8540  150.4550  130.5500 C   0  0  0  0  0  0  0  0  0  0  0  0
  144.5530  158.3250  133.6310 C   0  0  0  0  0  0  0  0  0  0  0  0
  145.9330  158.0880  133.6310 C   0  0  0  0  0  0  0  0  0  0  0  0
  148.6743  158.9228  134.6352 H   0  0  0  0  0  0  0  0  0  0  0  0
  148.5037  158.0401  133.0801 H   0  0  0  0  0  0  0  0  0  0  0  0
  148.7649  159.8172  133.0801 H   0  0  0  0  0  0  0  0  0  0  0  0
  146.9513  161.3755  133.6381 H   0  0  0  0  0  0  0  0  0  0  0  0
  144.4592  161.7383  133.6809 H   0  0  0  0  0  0  0  0  0  0  0  0
  141.9588  160.3439  133.7135 H   0  0  0  0  0  0  0  0  0  0  0  0
  141.5290  155.5660  134.1440 H   0  0  0  0  0  0  0  0  0  0  0  0
  139.7830  155.8590  133.8540 H   0  0  0  0  0  0  0  0  0  0  0  0
  144.3040  153.8146  135.9590 H   0  0  0  0  0  0  0  0  0  0  0  0
  144.4991  155.4845  136.6074 H   0  0  0  0  0  0  0  0  0  0  0  0
  143.3505  152.6753  135.3213 H   0  0  0  0  0  0  0  0  0  0  0  0
  141.8595  151.9383  136.0257 H   0  0  0  0  0  0  0  0  0  0  0  0
  143.9435  151.7895  133.6222 H   0  0  0  0  0  0  0  0  0  0  0  0
  142.9036  151.0604  132.3519 H   0  0  0  0  0  0  0  0  0  0  0  0
  143.2146  152.8296  132.3519 H   0  0  0  0  0  0  0  0  0  0  0  0
  137.5367  148.8410  132.1568 H   0  0  0  0  0  0  0  0  0  0  0  0
  137.5199  149.7473  130.6060 H   0  0  0  0  0  0  0  0  0  0  0  0
  137.7970  147.9726  130.6060 H   0  0  0  0  0  0  0  0  0  0  0  0
  140.7116  147.3538  131.4109 H   0  0  0  0  0  0  0  0  0  0  0  0
  139.6003  147.3930  130.0002 H   0  0  0  0  0  0  0  0  0  0  0  0
  141.0875  148.4004  130.0002 H   0  0  0  0  0  0  0  0  0  0  0  0
  140.0678  151.2383  131.2921 H   0  0  0  0  0  0  0  0  0  0  0  0
  140.7413  150.2949  129.9199 H   0  0  0  0  0  0  0  0  0  0  0  0
  139.0084  150.7679  129.9199 H   0  0  0  0  0  0  0  0  0  0  0  0
  146.3290  157.0618  133.6188 H   0  0  0  0  0  0  0  0  0  0  0  0
  1  2  1  0
  2  3  2  0
  3  4  1  0
  4  5  2  0
  5  6  1  0
  6  7  2  0
  7  8  1  0
  8  9  1  0
  8 10  2  0
  7 11  1  0
 11 12  1  0
 12 13  2  0
 12 14  1  0
 14 15  1  0
 15 16  1  0
 16 17  2  0
 16 18  1  0
 18 19  1  0
 19 20  1  0
 20 21  1  0
 20 22  1  6
 22 23  3  0
 20 24  1  0
 24 25  1  0
 25 26  2  0
 25 27  1  0
 27 28  1  0
 28 29  1  0
 28 30  1  0
 28 31  1  0
 11 32  1  0
 32 33  2  0
 33  2  1  0
 32  5  1  0
  1 34  1  0
  1 35  1  0
  1 36  1  0
  3 37  1  0
  4 38  1  0
  6 39  1  0
  9 40  1  0
  9 41  1  0
 15 42  1  0
 15 43  1  0
 19 44  1  0
 19 45  1  0
 21 46  1  0
 21 47  1  0
 21 48  1  0
 29 49  1  0
 29 50  1  0
 29 51  1  0
 30 52  1  0
 30 53  1  0
 30 54  1  0
 31 55  1  0
 31 56  1  0
 31 57  1  0
 33 58  1  0
M  CHG  2  14  -1  24  -1
M  END
>  <UniqueID>  (43) 
43

>  <SMILES>  (43) 
Cc1ccc2cc(C(N)=O)n(C(=O)[N-]CC(=O)OC[C@](C)(C#N)[N-]C(=O)OC(C)(C)C)c2c1

>  <Energy>  (43) 
81.73135267277661

>  <Genealogy>  (43) 
Cc1ccc2cc(C(N)=O)n(C(=O)[N-]CC(=O)OCC(C)(C#N)[N-]C(=O)OC(C)(C)C)c2c1 (protonated)
Cc1ccc2cc(C(N)=O)n(C(=O)[N-]CC(=O)OC[C@](C)(C#N)[N-]C(=O)OC(C)(C)C)c2c1 (chirality)
Cc1ccc2cc(C(N)=O)n(C(=O)[N-]CC(=O)OC[C@](C)(C#N)[N-]C(=O)OC(C)(C)C)c2c1 (3D coordinates assigned)
Cc1ccc2cc(C(N)=O)n(C(=O)[N-]CC(=O)OC[C@](C)(C#N)[N-]C(=O)OC(C)(C)C)c2c1 (optimized conformer: 81.73135267277661 kcal/mol)

>  <smiles>  (43) 
Cc1ccc2cc(C(N)=O)n(C(=O)NCC(=O)OCC(C)(C#N)NC(=O)OC(C)(C)C)c2c1

>  <score_type>  (43) 
oracle

>  <origin>  (43) 
adg

>  <m_score__min__energy>  (43) 
-8.9299999999999997

>  <m_primary>  (43) 
energy

$$$$
43:0
     RDKit          3D

 37 38  0  0  0  0  0  0  0  0999 V2000
  144.1700  155.6640  134.6990 C   0  0  0  0  0  0  0  0  0  0  0  0
  143.4350  156.9250  134.5610 N   0  0  0  0  0  0  0  0  0  0  0  0
  142.4260  157.3050  135.5640 C   0  0  0  0  0  0  0  0  0  0  0  0
  141.0180  157.3490  134.9620 C   0  0  0  0  0  0  0  0  0  0  0  0
  140.2530  158.9690  135.1960 S   0  0  0  0  0  0  0  0  0  0  0  0
  141.3320  159.7660  135.9150 O   0  0  0  0  0  0  0  0  0  0  0  0
  140.2530  159.6440  133.6340 O   0  0  0  0  0  0  0  0  0  0  0  0
  143.7130  157.7690  133.4230 C   0  0  0  0  0  0  0  0  0  0  0  0
  142.8790  157.8460  132.4800 O   0  0  0  0  0  0  0  0  0  0  0  0
  144.9220  158.5390  133.3480 N   0  0  0  0  0  0  0  0  0  0  0  0
  145.0650  159.8870  133.4740 C   0  0  0  0  0  0  0  0  0  0  0  0
  143.9650  160.8360  133.7700 C   0  0  0  0  0  0  0  0  0  0  0  0
  142.6270  160.3730  133.9680 N   0  0  0  0  0  0  0  0  0  0  0  0
  144.2000  162.0700  133.8430 O   0  0  0  0  0  0  0  0  0  0  0  0
  146.4090  160.2430  133.3570 C   0  0  0  0  0  0  0  0  0  0  0  0
  147.0860  159.0570  133.1680 C   0  0  0  0  0  0  0  0  0  0  0  0
  148.4450  158.8160  132.9950 C   0  0  0  0  0  0  0  0  0  0  0  0
  148.8600  157.4840  132.8170 C   0  0  0  0  0  0  0  0  0  0  0  0
  147.9160  156.4260  132.8120 C   0  0  0  0  0  0  0  0  0  0  0  0
  148.3500  155.0720  132.6200 N   0  0  0  0  0  0  0  0  0  0  0  0
  147.4990  154.0410  132.8180 F   0  0  0  0  0  0  0  0  0  0  0  0
  149.6170  154.8010  132.2390 F   0  0  0  0  0  0  0  0  0  0  0  0
  146.5450  156.7120  132.9940 C   0  0  0  0  0  0  0  0  0  0  0  0
  146.1640  158.0450  133.1750 C   0  0  0  0  0  0  0  0  0  0  0  0
  144.3047  155.4330  135.7660 H   0  0  0  0  0  0  0  0  0  0  0  0
  143.6024  154.8542  134.2173 H   0  0  0  0  0  0  0  0  0  0  0  0
  145.1544  155.7587  134.2173 H   0  0  0  0  0  0  0  0  0  0  0  0
  142.4414  156.5694  136.3817 H   0  0  0  0  0  0  0  0  0  0  0  0
  142.6724  158.3110  135.9345 H   0  0  0  0  0  0  0  0  0  0  0  0
  141.0822  157.1355  133.8848 H   0  0  0  0  0  0  0  0  0  0  0  0
  140.3991  156.5963  135.4722 H   0  0  0  0  0  0  0  0  0  0  0  0
  142.3970  159.3560  133.9880 H   0  0  0  0  0  0  0  0  0  0  0  0
  141.8590  161.0590  134.1440 H   0  0  0  0  0  0  0  0  0  0  0  0
  146.8374  161.2550  133.4053 H   0  0  0  0  0  0  0  0  0  0  0  0
  149.1723  159.6413  132.9973 H   0  0  0  0  0  0  0  0  0  0  0  0
  149.9284  157.2606  132.6802 H   0  0  0  0  0  0  0  0  0  0  0  0
  145.7959  155.9065  132.9934 H   0  0  0  0  0  0  0  0  0  0  0  0
  1  2  1  0
  2  3  1  0
  3  4  1  0
  4  5  1  0
  5  6  2  0
  5  7  1  6
  2  8  1  0
  8  9  2  0
  8 10  1  0
 10 11  1  0
 11 12  1  0
 12 13  1  0
 12 14  2  0
 11 15  2  0
 15 16  1  0
 16 17  2  0
 17 18  1  0
 18 19  2  0
 19 20  1  0
 20 21  1  0
 20 22  1  0
 19 23  1  0
 23 24  2  0
 24 10  1  0
 24 16  1  0
  1 25  1  0
  1 26  1  0
  1 27  1  0
  3 28  1  0
  3 29  1  0
  4 30  1  0
  4 31  1  0
 13 32  1  0
 13 33  1  0
 15 34  1  0
 17 35  1  0
 18 36  1  0
 23 37  1  0
M  CHG  1   7  -1
M  END
>  <UniqueID>  (44) 
44

>  <SMILES>  (44) 
CN(CC[S@@](=O)[O-])C(=O)n1c(C(N)=O)cc2ccc(N(F)F)cc21

>  <Energy>  (44) 
68.86487203918587

>  <Genealogy>  (44) 
CN(CCS(=O)[O-])C(=O)n1c(C(N)=O)cc2ccc(N(F)F)cc21 (protonated)
CN(CC[S@@](=O)[O-])C(=O)n1c(C(N)=O)cc2ccc(N(F)F)cc21 (chirality)
CN(CC[S@@](=O)[O-])C(=O)n1c(C(N)=O)cc2ccc(N(F)F)cc21 (3D coordinates assigned)
CN(CC[S@@](=O)[O-])C(=O)n1c(C(N)=O)cc2ccc(N(F)F)cc21 (optimized conformer: 68.86487203918587 kcal/mol)

>  <smiles>  (44) 
CN(CCS(=O)O)C(=O)n1c(C(N)=O)cc2ccc(N(F)F)cc21

>  <score_type>  (44) 
oracle

>  <origin>  (44) 
adg

>  <m_score__min__energy>  (44) 
-6.5

>  <m_primary>  (44) 
energy

$$$$
44:0
     RDKit          3D

 31 32  0  0  0  0  0  0  0  0999 V2000
  143.0380  154.5730  135.4150 C   0  0  0  0  0  0  0  0  0  0  0  0
  143.0480  154.0890  133.9570 C   0  0  2  0  0  0  0  0  0  0  0  0
  143.0970  155.2250  133.0250 N   0  0  0  0  0  0  0  0  0  0  0  0
  143.9200  156.4060  133.1510 C   0  0  0  0  0  0  0  0  0  0  0  0
  145.3360  156.3630  133.0220 C   0  0  0  0  0  0  0  0  0  0  0  0
  146.1070  157.5280  133.1710 C   0  0  0  0  0  0  0  0  0  0  0  0
  145.4460  158.7200  133.4450 C   0  0  0  0  0  0  0  0  0  0  0  0
  145.9500  159.9810  133.6620 C   0  0  0  0  0  0  0  0  0  0  0  0
  144.8400  160.7850  133.9060 C   0  0  0  0  0  0  0  0  0  0  0  0
  144.9240  162.2470  134.1050 C   0  0  0  0  0  0  0  0  0  0  0  0
  145.9720  162.8230  134.8800 N   0  0  0  0  0  0  0  0  0  0  0  0
  144.0290  162.9930  133.6260 O   0  0  0  0  0  0  0  0  0  0  0  0
  143.6950  160.0490  133.8510 N   0  0  0  0  0  0  0  0  0  0  0  0
  142.3550  160.4840  134.1390 C   0  0  0  0  0  0  0  0  0  0  0  0
  141.7630  161.2770  133.3600 O   0  0  0  0  0  0  0  0  0  0  0  0
  141.6920  160.0130  135.2650 O   0  0  0  0  0  0  0  0  0  0  0  0
  144.0840  158.7850  133.5640 C   0  0  0  0  0  0  0  0  0  0  0  0
  143.2920  157.6380  133.4400 C   0  0  0  0  0  0  0  0  0  0  0  0
  141.9090  153.1590  133.6310 C   0  0  0  0  0  0  0  0  0  0  0  0
  141.1660  153.3780  132.6370 O   0  0  0  0  0  0  0  0  0  0  0  0
  141.6170  152.0940  134.4750 O   0  0  0  0  0  0  0  0  0  0  0  0
  143.0560  153.7045  136.0898 H   0  0  0  0  0  0  0  0  0  0  0  0
  143.9234  155.1991  135.5996 H   0  0  0  0  0  0  0  0  0  0  0  0
  142.1275  155.1620  135.5996 H   0  0  0  0  0  0  0  0  0  0  0  0
  143.9666  153.4968  133.8327 H   0  0  0  0  0  0  0  0  0  0  0  0
  142.5280  155.1260  132.1540 H   0  0  0  0  0  0  0  0  0  0  0  0
  145.8331  155.4065  132.8030 H   0  0  0  0  0  0  0  0  0  0  0  0
  147.2023  157.4979  133.0737 H   0  0  0  0  0  0  0  0  0  0  0  0
  147.0059  160.2889  133.6461 H   0  0  0  0  0  0  0  0  0  0  0  0
  146.9740  162.6590  134.6370 H   0  0  0  0  0  0  0  0  0  0  0  0
  142.2006  157.6946  133.5653 H   0  0  0  0  0  0  0  0  0  0  0  0
  1  2  1  0
  2  3  1  0
  3  4  1  0
  4  5  2  0
  5  6  1  0
  6  7  2  0
  7  8  1  0
  8  9  2  0
  9 10  1  0
 10 11  1  0
 10 12  2  0
  9 13  1  0
 13 14  1  0
 14 15  2  0
 14 16  1  0
 13 17  1  0
 17 18  2  0
  2 19  1  0
 19 20  2  0
 19 21  1  0
 18  4  1  0
 17  7  1  0
  1 22  1  0
  1 23  1  0
  1 24  1  0
  2 25  1  1
  3 26  1  0
  5 27  1  0
  6 28  1  0
  8 29  1  0
 11 30  1  0
 18 31  1  0
M  CHG  3  11  -1  16  -1  21  -1
M  END
>  <UniqueID>  (45) 
45

>  <SMILES>  (45) 
C[C@H](Nc1ccc2cc(C([NH-])=O)n(C(=O)[O-])c2c1)C(=O)[O-]

>  <Energy>  (45) 
72.3612293365513

>  <Genealogy>  (45) 
C[C@H](Nc1ccc2cc(C([NH-])=O)n(C(=O)[O-])c2c1)C(=O)[O-] (protonated)
C[C@H](Nc1ccc2cc(C([NH-])=O)n(C(=O)[O-])c2c1)C(=O)[O-] (3D coordinates assigned)
C[C@H](Nc1ccc2cc(C([NH-])=O)n(C(=O)[O-])c2c1)C(=O)[O-] (optimized conformer: 72.3612293365513 kcal/mol)

>  <smiles>  (45) 
C[C@H](Nc1ccc2cc(C(N)=O)n(C(=O)O)c2c1)C(=O)O

>  <score_type>  (45) 
oracle

>  <origin>  (45) 
adg

>  <m_score__min__energy>  (45) 
-6.4100000000000001

>  <m_primary>  (45) 
energy

$$$$
45:0
     RDKit          3D

 45 46  0  0  0  0  0  0  0  0999 V2000
  142.1777  156.8906  136.3256 H   0  0  0  0  0  0  0  0  0  0  0  0
  142.3300  157.4870  135.4140 C   0  0  0  0  0  0  0  0  0  0  0  0
  141.5520  158.7290  135.2830 C   0  0  0  0  0  0  0  0  0  0  0  0
  141.3200  159.4150  136.3150 O   0  0  0  0  0  0  0  0  0  0  0  0
  141.0180  159.1080  134.0460 O   0  0  0  0  0  0  0  0  0  0  0  0
  139.9470  158.4190  133.4060 C   0  0  0  0  0  0  0  0  0  0  0  0
  139.0516  158.4730  134.0426 H   0  0  0  0  0  0  0  0  0  0  0  0
  140.2435  157.3710  133.2515 H   0  0  0  0  0  0  0  0  0  0  0  0
  139.6360  159.0440  132.0520 C   0  0  0  0  0  0  0  0  0  0  0  0
  139.1505  160.0197  132.2014 H   0  0  0  0  0  0  0  0  0  0  0  0
  140.5706  159.1819  131.4885 H   0  0  0  0  0  0  0  0  0  0  0  0
  138.9624  158.3817  131.4885 H   0  0  0  0  0  0  0  0  0  0  0  0
  143.2100  157.0210  134.5140 C   0  0  0  0  0  0  0  0  0  0  0  0
  143.5834  155.9972  134.6634 H   0  0  0  0  0  0  0  0  0  0  0  0
  143.7230  157.7590  133.3400 C   0  0  0  0  0  0  0  0  0  0  0  0
  143.0140  157.7900  132.2990 O   0  0  0  0  0  0  0  0  0  0  0  0
  145.0220  158.3810  133.3260 N   0  0  0  0  0  0  0  0  0  0  0  0
  145.3260  159.7040  133.4640 C   0  0  0  0  0  0  0  0  0  0  0  0
  144.3640  160.7740  133.8070 C   0  0  0  0  0  0  0  0  0  0  0  0
  144.7400  161.7700  134.4770 O   0  0  0  0  0  0  0  0  0  0  0  0
  143.0090  160.7060  133.3580 N   0  0  0  0  0  0  0  0  0  0  0  0
  142.6490  159.8700  132.8480 H   0  0  0  0  0  0  0  0  0  0  0  0
  142.3460  161.4830  133.5750 H   0  0  0  0  0  0  0  0  0  0  0  0
  146.6970  159.9070  133.3300 C   0  0  0  0  0  0  0  0  0  0  0  0
  147.2376  160.8637  133.3798 H   0  0  0  0  0  0  0  0  0  0  0  0
  147.2320  158.6560  133.1220 C   0  0  0  0  0  0  0  0  0  0  0  0
  148.5500  158.2710  132.9060 C   0  0  0  0  0  0  0  0  0  0  0  0
  149.3638  159.0111  132.9081 H   0  0  0  0  0  0  0  0  0  0  0  0
  148.8120  156.9090  132.6850 C   0  0  0  0  0  0  0  0  0  0  0  0
  149.8459  156.5756  132.5121 H   0  0  0  0  0  0  0  0  0  0  0  0
  147.7570  155.9560  132.6820 C   0  0  0  0  0  0  0  0  0  0  0  0
  147.9960  154.5560  132.4380 N   0  0  0  0  0  0  0  0  0  0  0  0
  147.2970  154.0260  131.8680 H   0  0  0  0  0  0  0  0  0  0  0  0
  149.1640  153.8140  132.9120 C   0  0  0  0  0  0  0  0  0  0  0  0
  150.0739  154.2609  132.4850 H   0  0  0  0  0  0  0  0  0  0  0  0
  149.1944  153.8647  134.0104 H   0  0  0  0  0  0  0  0  0  0  0  0
  149.0780  152.3420  132.4870 C   0  0  0  0  0  0  0  0  0  0  0  0
  149.5726  152.2211  131.5119 H   0  0  0  0  0  0  0  0  0  0  0  0
  149.5748  151.7297  133.2540 H   0  0  0  0  0  0  0  0  0  0  0  0
  147.6890  151.9020  132.3740 N   0  0  0  0  0  0  0  0  0  0  0  0
  147.2700  151.8560  133.3310 H   0  0  0  0  0  0  0  0  0  0  0  0
  147.1540  152.6120  131.8240 H   0  0  0  0  0  0  0  0  0  0  0  0
  146.4320  156.3920  132.9050 C   0  0  0  0  0  0  0  0  0  0  0  0
  145.5970  155.6759  132.8980 H   0  0  0  0  0  0  0  0  0  0  0  0
  146.2030  157.7530  133.1350 C   0  0  0  0  0  0  0  0  0  0  0  0
  1  2  1  0
  2  3  1  0
  3  4  2  0
  3  5  1  0
  5  6  1  0
  6  7  1  0
  6  8  1  0
  6  9  1  0
  9 10  1  0
  9 11  1  0
  9 12  1  0
  2 13  2  0
 13 14  1  0
 13 15  1  0
 15 16  2  0
 15 17  1  0
 17 18  1  0
 18 19  1  0
 19 20  2  0
 19 21  1  0
 21 22  1  0
 21 23  1  0
 18 24  2  0
 24 25  1  0
 24 26  1  0
 26 27  2  0
 27 28  1  0
 27 29  1  0
 29 30  1  0
 29 31  2  0
 31 32  1  0
 32 33  1  0
 32 34  1  0
 34 35  1  0
 34 36  1  0
 34 37  1  0
 37 38  1  0
 37 39  1  0
 37 40  1  0
 40 41  1  0
 40 42  1  0
 31 43  1  0
 43 44  1  0
 43 45  2  0
 45 17  1  0
 45 26  1  0
M  END
>  <UniqueID>  (46) 
46

>  <SMILES>  (46) 
CCOC(=O)/C=C\C(=O)n1c(C(N)=O)cc2ccc(NCCN)cc21

>  <Energy>  (46) 
79.8195147773628

>  <Genealogy>  (46) 
CCOC(=O)/C=C\C(=O)n1c(C(N)=O)cc2ccc(NCCN)cc21 (cis-trans isomerization)
CCOC(=O)/C=C\C(=O)n1c(C(N)=O)cc2ccc(NCCN)cc21 (3D coordinates assigned)
CCOC(=O)/C=C\C(=O)n1c(C(N)=O)cc2ccc(NCCN)cc21 (optimized conformer: 79.8195147773628 kcal/mol)

>  <smiles>  (46) 
CCOC(=O)/C=C\C(=O)n1c(C(N)=O)cc2ccc(NCCN)cc21

>  <score_type>  (46) 
oracle

>  <origin>  (46) 
adg

>  <m_score__min__energy>  (46) 
-7.6200000000000001

>  <m_primary>  (46) 
energy

$$$$
46:0
     RDKit          3D

 44 46  0  0  0  0  0  0  0  0999 V2000
  141.7420  158.4130  134.7760 C   0  0  0  0  0  0  0  0  0  0  0  0
  143.0530  158.9450  134.2800 C   0  0  0  0  0  0  0  0  0  0  0  0
  143.2150  160.3340  134.0550 C   0  0  0  0  0  0  0  0  0  0  0  0
  144.4530  160.8510  133.6350 C   0  0  0  0  0  0  0  0  0  0  0  0
  145.5050  159.9580  133.4530 C   0  0  0  0  0  0  0  0  0  0  0  0
  146.8100  160.1870  133.0760 C   0  0  0  0  0  0  0  0  0  0  0  0
  147.4200  158.9330  133.0750 C   0  0  0  0  0  0  0  0  0  0  0  0
  148.8270  158.7030  132.6840 C   0  0  0  0  0  0  0  0  0  0  0  0
  149.3100  157.3710  132.5180 N   0  0  0  0  0  0  0  0  0  0  0  0
  149.6140  159.6700  132.5100 O   0  0  0  0  0  0  0  0  0  0  0  0
  146.5260  157.9700  133.4340 N   0  0  0  0  0  0  0  0  0  0  0  0
  146.7600  156.5590  133.5560 C   0  0  0  0  0  0  0  0  0  0  0  0
  147.0650  156.0700  134.6760 O   0  0  0  0  0  0  0  0  0  0  0  0
  146.7210  155.6740  132.3440 C   0  0  0  0  0  0  0  0  0  0  0  0
  148.0590  155.1090  132.0780 N   0  0  0  0  0  0  0  0  0  0  0  0
  148.4370  153.9650  132.9440 C   0  0  1  0  0  0  0  0  0  0  0  0
  147.2870  152.9630  133.1590 C   0  0  0  0  0  0  0  0  0  0  0  0
  147.6000  151.7680  132.2630 C   0  0  0  0  0  0  0  0  0  0  0  0
  148.9970  151.9080  131.8950 N   0  0  0  0  0  0  0  0  0  0  0  0
  149.7050  150.9300  131.1230 C   0  0  0  0  0  0  0  0  0  0  0  0
  150.0120  149.8190  131.6310 O   0  0  0  0  0  0  0  0  0  0  0  0
  150.0580  151.2010  129.8070 O   0  0  0  0  0  0  0  0  0  0  0  0
  149.5990  153.1430  132.3710 C   0  0  0  0  0  0  0  0  0  0  0  0
  145.3610  158.6110  133.6650 C   0  0  0  0  0  0  0  0  0  0  0  0
  144.1480  158.0710  134.1030 C   0  0  0  0  0  0  0  0  0  0  0  0
  141.7393  158.4119  135.8760 H   0  0  0  0  0  0  0  0  0  0  0  0
  140.9247  159.0506  134.4080 H   0  0  0  0  0  0  0  0  0  0  0  0
  141.6001  157.3861  134.4080 H   0  0  0  0  0  0  0  0  0  0  0  0
  142.3646  161.0142  134.2103 H   0  0  0  0  0  0  0  0  0  0  0  0
  144.5862  161.9281  133.4557 H   0  0  0  0  0  0  0  0  0  0  0  0
  147.2727  161.1538  132.8283 H   0  0  0  0  0  0  0  0  0  0  0  0
  149.5910  156.7960  133.3420 H   0  0  0  0  0  0  0  0  0  0  0  0
  146.0086  154.8538  132.5165 H   0  0  0  0  0  0  0  0  0  0  0  0
  146.4058  156.2709  131.4754 H   0  0  0  0  0  0  0  0  0  0  0  0
  148.7740  155.8660  132.2000 H   0  0  0  0  0  0  0  0  0  0  0  0
  148.1100  154.7910  131.0810 H   0  0  0  0  0  0  0  0  0  0  0  0
  148.7199  154.4464  133.8918 H   0  0  0  0  0  0  0  0  0  0  0  0
  147.2441  152.6502  134.2127 H   0  0  0  0  0  0  0  0  0  0  0  0
  146.3120  153.4084  132.9120 H   0  0  0  0  0  0  0  0  0  0  0  0
  147.4398  150.8268  132.8092 H   0  0  0  0  0  0  0  0  0  0  0  0
  146.9476  151.7426  131.3777 H   0  0  0  0  0  0  0  0  0  0  0  0
  150.3441  152.9323  133.1523 H   0  0  0  0  0  0  0  0  0  0  0  0
  150.1240  153.6799  131.5672 H   0  0  0  0  0  0  0  0  0  0  0  0
  144.0492  156.9941  134.3044 H   0  0  0  0  0  0  0  0  0  0  0  0
  1  2  1  0
  2  3  2  0
  3  4  1  0
  4  5  2  0
  5  6  1  0
  6  7  2  0
  7  8  1  0
  8  9  1  0
  8 10  2  0
  7 11  1  0
 11 12  1  0
 12 13  2  0
 12 14  1  0
 14 15  1  0
 15 16  1  0
 16 17  1  0
 17 18  1  0
 18 19  1  0
 19 20  1  0
 20 21  2  0
 20 22  1  0
 19 23  1  0
 11 24  1  0
 24 25  2  0
 25  2  1  0
 24  5  1  0
 23 16  1  0
  1 26  1  0
  1 27  1  0
  1 28  1  0
  3 29  1  0
  4 30  1  0
  6 31  1  0
  9 32  1  0
 14 33  1  0
 14 34  1  0
 15 35  1  0
 15 36  1  0
 16 37  1  1
 17 38  1  0
 17 39  1  0
 18 40  1  0
 18 41  1  0
 23 42  1  0
 23 43  1  0
 25 44  1  0
M  CHG  3   9  -1  15   1  22  -1
M  END
>  <UniqueID>  (47) 
47

>  <SMILES>  (47) 
Cc1ccc2cc(C([NH-])=O)n(C(=O)C[NH2+][C@H]3CCN(C(=O)[O-])C3)c2c1

>  <Energy>  (47) 
85.447530259733

>  <Genealogy>  (47) 
Cc1ccc2cc(C([NH-])=O)n(C(=O)C[NH2+]C3CCN(C(=O)[O-])C3)c2c1 (protonated)
Cc1ccc2cc(C([NH-])=O)n(C(=O)C[NH2+][C@H]3CCN(C(=O)[O-])C3)c2c1 (chirality)
Cc1ccc2cc(C([NH-])=O)n(C(=O)C[NH2+][C@H]3CCN(C(=O)[O-])C3)c2c1 (3D coordinates assigned)
Cc1ccc2cc(C([NH-])=O)n(C(=O)C[NH2+][C@H]3CCN(C(=O)[O-])C3)c2c1 (nonaromatic ring conformer: 85.447530259733 kcal/mol)

>  <smiles>  (47) 
Cc1ccc2cc(C(N)=O)n(C(=O)CNC3CCN(C(=O)O)C3)c2c1

>  <score_type>  (47) 
oracle

>  <origin>  (47) 
adg

>  <m_score__min__energy>  (47) 
-7.1299999999999999

>  <m_primary>  (47) 
energy

$$$$
47:0
     RDKit          3D

 49 50  0  0  0  0  0  0  0  0999 V2000
  141.1730  159.3690  134.2880 C   0  0  0  0  0  0  0  0  0  0  0  0
  141.2940  158.2610  135.2910 C   0  0  0  0  0  0  0  0  0  0  0  0
  141.1790  158.5420  136.6740 C   0  0  0  0  0  0  0  0  0  0  0  0
  141.2520  157.5070  137.6210 C   0  0  0  0  0  0  0  0  0  0  0  0
  141.4430  156.2100  137.1560 C   0  0  0  0  0  0  0  0  0  0  0  0
  141.5380  155.0270  137.8520 C   0  0  0  0  0  0  0  0  0  0  0  0
  141.7230  154.0410  136.8850 C   0  0  0  0  0  0  0  0  0  0  0  0
  141.9650  152.6210  137.2170 C   0  0  0  0  0  0  0  0  0  0  0  0
  142.9880  152.2410  138.1350 N   0  0  0  0  0  0  0  0  0  0  0  0
  141.2230  151.7310  136.7230 O   0  0  0  0  0  0  0  0  0  0  0  0
  141.7290  154.5920  135.6370 N   0  0  0  0  0  0  0  0  0  0  0  0
  141.8410  153.9190  134.3730 C   0  0  0  0  0  0  0  0  0  0  0  0
  140.9010  153.9870  133.5350 O   0  0  0  0  0  0  0  0  0  0  0  0
  143.0080  153.2090  134.0680 O   0  0  0  0  0  0  0  0  0  0  0  0
  143.8380  153.5010  132.9470 C   0  0  0  0  0  0  0  0  0  0  0  0
  145.2100  152.8310  133.0910 C   0  0  0  0  0  0  0  0  0  0  0  0
  146.2290  153.7080  133.8370 C   0  0  0  0  0  0  0  0  0  0  0  0
  145.6100  154.4260  134.9620 N   0  0  0  0  0  0  0  0  0  0  0  0
  145.0260  155.7520  134.7460 C   0  0  0  0  0  0  0  0  0  0  0  0
  145.5700  153.8590  136.2850 C   0  0  0  0  0  0  0  0  0  0  0  0
  144.6070  154.1140  137.0590 O   0  0  0  0  0  0  0  0  0  0  0  0
  146.6020  153.0140  136.7070 O   0  0  0  0  0  0  0  0  0  0  0  0
  147.6050  153.4220  137.6280 C   0  0  0  0  0  0  0  0  0  0  0  0
  147.0480  153.0610  139.3160 P   0  0  1  0  0  0  0  0  0  0  0  0
  147.9780  152.0500  139.9460 O   0  0  0  0  0  0  0  0  0  0  0  0
  147.0530  154.4800  140.2350 O   0  0  0  0  0  0  0  0  0  0  0  0
  145.4790  152.4290  139.2700 O   0  0  0  0  0  0  0  0  0  0  0  0
  141.5620  155.9210  135.8210 C   0  0  0  0  0  0  0  0  0  0  0  0
  141.4660  156.9300  134.8550 C   0  0  0  0  0  0  0  0  0  0  0  0
  141.0681  160.3296  134.8136 H   0  0  0  0  0  0  0  0  0  0  0  0
  142.0739  159.3926  133.6573 H   0  0  0  0  0  0  0  0  0  0  0  0
  140.2882  159.1976  133.6573 H   0  0  0  0  0  0  0  0  0  0  0  0
  141.0313  159.5791  137.0096 H   0  0  0  0  0  0  0  0  0  0  0  0
  141.1609  157.7158  138.6972 H   0  0  0  0  0  0  0  0  0  0  0  0
  141.4801  154.8887  138.9417 H   0  0  0  0  0  0  0  0  0  0  0  0
  143.8840  152.7730  138.1910 H   0  0  0  0  0  0  0  0  0  0  0  0
  143.3511  153.1312  132.0326 H   0  0  0  0  0  0  0  0  0  0  0  0
  143.9833  154.5900  132.8922 H   0  0  0  0  0  0  0  0  0  0  0  0
  145.0843  151.8896  133.6460 H   0  0  0  0  0  0  0  0  0  0  0  0
  145.6016  152.6596  132.0774 H   0  0  0  0  0  0  0  0  0  0  0  0
  147.0351  153.0671  134.2236 H   0  0  0  0  0  0  0  0  0  0  0  0
  146.6220  154.4532  133.1298 H   0  0  0  0  0  0  0  0  0  0  0  0
  144.8182  156.2238  135.7177 H   0  0  0  0  0  0  0  0  0  0  0  0
  145.7326  156.3759  134.1791 H   0  0  0  0  0  0  0  0  0  0  0  0
  144.0887  155.6519  134.1791 H   0  0  0  0  0  0  0  0  0  0  0  0
  148.5369  152.8747  137.4232 H   0  0  0  0  0  0  0  0  0  0  0  0
  147.7866  154.5017  137.5220 H   0  0  0  0  0  0  0  0  0  0  0  0
  145.1690  152.5930  138.3440 H   0  0  0  0  0  0  0  0  0  0  0  0
  141.5232  156.6911  133.7828 H   0  0  0  0  0  0  0  0  0  0  0  0
  1  2  1  0
  2  3  2  0
  3  4  1  0
  4  5  2  0
  5  6  1  0
  6  7  2  0
  7  8  1  0
  8  9  1  0
  8 10  2  0
  7 11  1  0
 11 12  1  0
 12 13  2  0
 12 14  1  0
 14 15  1  0
 15 16  1  0
 16 17  1  0
 17 18  1  0
 18 19  1  0
 18 20  1  0
 20 21  2  0
 20 22  1  0
 22 23  1  0
 23 24  1  0
 24 25  2  0
 24 26  1  1
 24 27  1  0
 11 28  1  0
 28 29  2  0
 29  2  1  0
 28  5  1  0
  1 30  1  0
  1 31  1  0
  1 32  1  0
  3 33  1  0
  4 34  1  0
  6 35  1  0
  9 36  1  0
 15 37  1  0
 15 38  1  0
 16 39  1  0
 16 40  1  0
 17 41  1  0
 17 42  1  0
 19 43  1  0
 19 44  1  0
 19 45  1  0
 23 46  1  0
 23 47  1  0
 27 48  1  0
 29 49  1  0
M  CHG  2   9  -1  26  -1
M  END
>  <UniqueID>  (48) 
48

>  <SMILES>  (48) 
Cc1ccc2cc(C([NH-])=O)n(C(=O)OCCCN(C)C(=O)OC[P@@](=O)([O-])O)c2c1

>  <Energy>  (48) 
66.60843259318945

>  <Genealogy>  (48) 
Cc1ccc2cc(C([NH-])=O)n(C(=O)OCCCN(C)C(=O)OCP(=O)([O-])O)c2c1 (protonated)
Cc1ccc2cc(C([NH-])=O)n(C(=O)OCCCN(C)C(=O)OC[P@@](=O)([O-])O)c2c1 (chirality)
Cc1ccc2cc(C([NH-])=O)n(C(=O)OCCCN(C)C(=O)OC[P@@](=O)([O-])O)c2c1 (3D coordinates assigned)
Cc1ccc2cc(C([NH-])=O)n(C(=O)OCCCN(C)C(=O)OC[P@@](=O)([O-])O)c2c1 (optimized conformer: 66.60843259318945 kcal/mol)

>  <smiles>  (48) 
Cc1ccc2cc(C(N)=O)n(C(=O)OCCCN(C)C(=O)OCP(=O)(O)O)c2c1

>  <score_type>  (48) 
oracle

>  <origin>  (48) 
adg

>  <m_score__min__energy>  (48) 
-6.2000000000000002

>  <m_primary>  (48) 
energy

$$$$
48:0
     RDKit          3D

 40 41  0  0  0  0  0  0  0  0999 V2000
  139.4900  155.5710  132.9410 C   0  0  0  0  0  0  0  0  0  0  0  0
  139.7050  157.0740  132.8530 C   0  0  0  0  0  0  0  0  0  0  0  0
  140.6030  157.4870  133.8770 O   0  0  0  0  0  0  0  0  0  0  0  0
  141.7830  158.1900  133.6120 C   0  0  0  0  0  0  0  0  0  0  0  0
  142.5060  157.8760  132.6270 O   0  0  0  0  0  0  0  0  0  0  0  0
  142.1870  159.2970  134.4920 C   0  0  0  0  0  0  0  0  0  0  0  0
  141.5770  159.4880  135.5790 O   0  0  0  0  0  0  0  0  0  0  0  0
  143.3310  160.1940  134.1200 C   0  0  0  0  0  0  0  0  0  0  0  0
  144.4410  159.4080  133.5820 N   0  0  0  0  0  0  0  0  0  0  0  0
  145.7640  159.9430  133.4420 C   0  0  0  0  0  0  0  0  0  0  0  0
  146.0010  161.1430  133.7460 O   0  0  0  0  0  0  0  0  0  0  0  0
  146.8370  159.0960  133.0120 N   0  0  0  0  0  0  0  0  0  0  0  0
  147.0930  157.8100  133.3830 C   0  0  0  0  0  0  0  0  0  0  0  0
  146.2010  156.9480  134.1850 C   0  0  0  0  0  0  0  0  0  0  0  0
  144.8540  156.7130  133.7850 N   0  0  0  0  0  0  0  0  0  0  0  0
  146.6440  156.3840  135.2220 O   0  0  0  0  0  0  0  0  0  0  0  0
  148.3050  157.3810  132.8430 C   0  0  0  0  0  0  0  0  0  0  0  0
  148.7840  158.4520  132.1220 C   0  0  0  0  0  0  0  0  0  0  0  0
  149.9700  158.5960  131.4090 C   0  0  0  0  0  0  0  0  0  0  0  0
  150.2280  159.8400  130.8040 C   0  0  0  0  0  0  0  0  0  0  0  0
  149.2970  160.9020  130.9140 C   0  0  0  0  0  0  0  0  0  0  0  0
  149.6120  162.2410  130.3190 C   0  0  0  0  0  0  0  0  0  0  0  0
  148.1090  160.7210  131.6540 C   0  0  0  0  0  0  0  0  0  0  0  0
  147.8770  159.4720  132.2390 C   0  0  0  0  0  0  0  0  0  0  0  0
  139.4467  155.2680  133.9976 H   0  0  0  0  0  0  0  0  0  0  0  0
  138.5448  155.3061  132.4445 H   0  0  0  0  0  0  0  0  0  0  0  0
  140.3230  155.0518  132.4445 H   0  0  0  0  0  0  0  0  0  0  0  0
  140.1291  157.3265  131.8700 H   0  0  0  0  0  0  0  0  0  0  0  0
  138.7418  157.5896  132.9810 H   0  0  0  0  0  0  0  0  0  0  0  0
  142.9946  160.9140  133.3594 H   0  0  0  0  0  0  0  0  0  0  0  0
  143.6738  160.7267  135.0193 H   0  0  0  0  0  0  0  0  0  0  0  0
  144.2620  158.4280  133.2670 H   0  0  0  0  0  0  0  0  0  0  0  0
  144.4920  157.0730  132.8740 H   0  0  0  0  0  0  0  0  0  0  0  0
  148.7782  156.3957  132.9668 H   0  0  0  0  0  0  0  0  0  0  0  0
  150.6836  157.7635  131.3210 H   0  0  0  0  0  0  0  0  0  0  0  0
  151.1609  159.9891  130.2406 H   0  0  0  0  0  0  0  0  0  0  0  0
  149.7834  162.9694  131.1253 H   0  0  0  0  0  0  0  0  0  0  0  0
  150.5162  162.1625  129.6975 H   0  0  0  0  0  0  0  0  0  0  0  0
  148.7676  162.5739  129.6975 H   0  0  0  0  0  0  0  0  0  0  0  0
  147.3844  161.5408  131.7677 H   0  0  0  0  0  0  0  0  0  0  0  0
  1  2  1  0
  2  3  1  0
  3  4  1  0
  4  5  2  0
  4  6  1  0
  6  7  2  0
  6  8  1  0
  8  9  1  0
  9 10  1  0
 10 11  2  0
 10 12  1  0
 12 13  1  0
 13 14  1  0
 14 15  1  0
 14 16  2  0
 13 17  2  0
 17 18  1  0
 18 19  2  0
 19 20  1  0
 20 21  2  0
 21 22  1  0
 21 23  1  0
 23 24  2  0
 24 12  1  0
 24 18  1  0
  1 25  1  0
  1 26  1  0
  1 27  1  0
  2 28  1  0
  2 29  1  0
  8 30  1  0
  8 31  1  0
  9 32  1  0
 15 33  1  0
 17 34  1  0
 19 35  1  0
 20 36  1  0
 22 37  1  0
 22 38  1  0
 22 39  1  0
 23 40  1  0
M  CHG  1  15  -1
M  END
>  <UniqueID>  (49) 
49

>  <SMILES>  (49) 
CCOC(=O)C(=O)CNC(=O)n1c(C([NH-])=O)cc2ccc(C)cc21

>  <Energy>  (49) 
68.50769849780376

>  <Genealogy>  (49) 
CCOC(=O)C(=O)CNC(=O)n1c(C([NH-])=O)cc2ccc(C)cc21 (protonated)
CCOC(=O)C(=O)CNC(=O)n1c(C([NH-])=O)cc2ccc(C)cc21 (3D coordinates assigned)
CCOC(=O)C(=O)CNC(=O)n1c(C([NH-])=O)cc2ccc(C)cc21 (optimized conformer: 68.50769849780376 kcal/mol)

>  <smiles>  (49) 
CCOC(=O)C(=O)CNC(=O)n1c(C(N)=O)cc2ccc(C)cc21

>  <score_type>  (49) 
oracle

>  <origin>  (49) 
adg

>  <m_score__min__energy>  (49) 
-7.1399999999999997

>  <m_primary>  (49) 
energy

$$$$
49:0
     RDKit          3D

 41 43  0  0  0  0  0  0  0  0999 V2000
  147.7390  155.0040  134.1880 C   0  0  0  0  0  0  0  0  0  0  0  0
  147.6040  155.0330  132.6690 C   0  0  0  0  0  0  0  0  0  0  0  0
  146.5760  155.9380  132.2740 O   0  0  0  0  0  0  0  0  0  0  0  0
  145.6290  156.4660  133.1620 C   0  0  0  0  0  0  0  0  0  0  0  0
  144.8530  155.7010  133.7960 O   0  0  0  0  0  0  0  0  0  0  0  0
  145.5330  157.8870  133.3360 N   0  0  0  0  0  0  0  0  0  0  0  0
  146.5340  158.8080  133.2430 C   0  0  0  0  0  0  0  0  0  0  0  0
  147.9760  158.5130  133.1110 C   0  0  0  0  0  0  0  0  0  0  0  0
  148.5160  158.0320  131.8830 N   0  0  0  0  0  0  0  0  0  0  0  0
  148.7330  158.6400  134.1090 O   0  0  0  0  0  0  0  0  0  0  0  0
  146.0250  160.0990  133.3710 C   0  0  0  0  0  0  0  0  0  0  0  0
  144.6700  159.9400  133.5560 C   0  0  0  0  0  0  0  0  0  0  0  0
  143.6730  160.8940  133.7360 C   0  0  0  0  0  0  0  0  0  0  0  0
  142.3500  160.4450  133.8800 C   0  0  0  0  0  0  0  0  0  0  0  0
  142.0490  159.0610  133.8210 C   0  0  0  0  0  0  0  0  0  0  0  0
  140.6330  158.5910  134.0090 C   0  0  0  0  0  0  0  0  0  0  0  0
  139.8900  158.7530  132.7640 N   0  0  0  0  0  0  0  0  0  0  0  0
  139.1770  157.8100  132.1250 C   0  0  0  0  0  0  0  0  0  0  0  0
  138.5710  158.3340  131.0470 N   0  0  0  0  0  0  0  0  0  0  0  0
  138.9350  159.6330  131.0810 C   0  0  0  0  0  0  0  0  0  0  0  0
  138.5490  160.6370  130.0480 C   0  0  0  0  0  0  0  0  0  0  0  0
  139.7450  159.9030  132.1250 N   0  0  0  0  0  0  0  0  0  0  0  0
  143.0880  158.1220  133.6500 C   0  0  0  0  0  0  0  0  0  0  0  0
  144.3990  158.5960  133.5300 C   0  0  0  0  0  0  0  0  0  0  0  0
  146.7617  155.2140  134.6470 H   0  0  0  0  0  0  0  0  0  0  0  0
  148.0877  154.0104  134.5062 H   0  0  0  0  0  0  0  0  0  0  0  0
  148.4650  155.7666  134.5062 H   0  0  0  0  0  0  0  0  0  0  0  0
  148.5586  155.3551  132.2273 H   0  0  0  0  0  0  0  0  0  0  0  0
  147.3430  154.0241  132.3168 H   0  0  0  0  0  0  0  0  0  0  0  0
  148.2130  157.1140  131.4870 H   0  0  0  0  0  0  0  0  0  0  0  0
  146.5865  161.0441  133.3324 H   0  0  0  0  0  0  0  0  0  0  0  0
  143.9137  161.9670  133.7646 H   0  0  0  0  0  0  0  0  0  0  0  0
  141.5410  161.1730  134.0398 H   0  0  0  0  0  0  0  0  0  0  0  0
  140.6356  157.5295  134.2974 H   0  0  0  0  0  0  0  0  0  0  0  0
  140.1536  159.1880  134.7988 H   0  0  0  0  0  0  0  0  0  0  0  0
  139.1006  156.7588  132.4399 H   0  0  0  0  0  0  0  0  0  0  0  0
  137.9620  157.8500  130.3510 H   0  0  0  0  0  0  0  0  0  0  0  0
  138.1963  161.5543  130.5420 H   0  0  0  0  0  0  0  0  0  0  0  0
  139.4213  160.8709  129.4200 H   0  0  0  0  0  0  0  0  0  0  0  0
  137.7447  160.2263  129.4200 H   0  0  0  0  0  0  0  0  0  0  0  0
  142.8728  157.0439  133.6119 H   0  0  0  0  0  0  0  0  0  0  0  0
  1  2  1  0
  2  3  1  0
  3  4  1  0
  4  5  2  0
  4  6  1  0
  6  7  1  0
  7  8  1  0
  8  9  1  0
  8 10  2  0
  7 11  2  0
 11 12  1  0
 12 13  2  0
 13 14  1  0
 14 15  2  0
 15 16  1  0
 16 17  1  0
 17 18  1  0
 18 19  2  0
 19 20  1  0
 20 21  1  0
 20 22  2  0
 15 23  1  0
 23 24  2  0
 24  6  1  0
 24 12  1  0
 22 17  1  0
  1 25  1  0
  1 26  1  0
  1 27  1  0
  2 28  1  0
  2 29  1  0
  9 30  1  0
 11 31  1  0
 13 32  1  0
 14 33  1  0
 16 34  1  0
 16 35  1  0
 18 36  1  0
 19 37  1  0
 21 38  1  0
 21 39  1  0
 21 40  1  0
 23 41  1  0
M  CHG  2   9  -1  19   1
M  END
>  <UniqueID>  (50) 
50

>  <SMILES>  (50) 
CCOC(=O)n1c(C([NH-])=O)cc2ccc(Cn3c[nH+]c(C)n3)cc21

>  <Energy>  (50) 
109.22459676699258

>  <Genealogy>  (50) 
CCOC(=O)n1c(C([NH-])=O)cc2ccc(Cn3c[nH+]c(C)n3)cc21 (protonated)
CCOC(=O)n1c(C([NH-])=O)cc2ccc(Cn3c[nH+]c(C)n3)cc21 (3D coordinates assigned)
CCOC(=O)n1c(C([NH-])=O)cc2ccc(Cn3c[nH+]c(C)n3)cc21 (optimized conformer: 109.22459676699258 kcal/mol)

>  <smiles>  (50) 
CCOC(=O)n1c(C(N)=O)cc2ccc(Cn3cnc(C)n3)cc21

>  <score_type>  (50) 
oracle

>  <origin>  (50) 
adg

>  <m_score__min__energy>  (50) 
-7.1200000000000001

>  <m_primary>  (50) 
energy

$$$$
50:0
     RDKit          3D

 39 41  0  0  0  0  0  0  0  0999 V2000
  144.7840  162.3180  134.1130 N   0  0  0  0  0  0  0  0  0  0  0  0
  144.3870  161.0010  133.7380 C   0  0  0  0  0  0  0  0  0  0  0  0
  143.1620  160.7420  133.6030 O   0  0  0  0  0  0  0  0  0  0  0  0
  145.3870  159.9300  133.5450 C   0  0  0  0  0  0  0  0  0  0  0  0
  146.7350  160.1700  133.2830 C   0  0  0  0  0  0  0  0  0  0  0  0
  147.3020  158.9270  133.1140 C   0  0  0  0  0  0  0  0  0  0  0  0
  148.6240  158.5690  132.8670 C   0  0  0  0  0  0  0  0  0  0  0  0
  148.9330  157.2000  132.7900 C   0  0  0  0  0  0  0  0  0  0  0  0
  147.9210  156.2170  132.9490 C   0  0  0  0  0  0  0  0  0  0  0  0
  148.2680  154.7500  132.9300 C   0  0  0  0  0  0  0  0  0  0  0  0
  148.4140  154.2600  134.2160 F   0  0  0  0  0  0  0  0  0  0  0  0
  147.2600  154.0520  132.2920 F   0  0  0  0  0  0  0  0  0  0  0  0
  149.4580  154.5450  132.2510 F   0  0  0  0  0  0  0  0  0  0  0  0
  146.5960  156.6220  133.2240 C   0  0  0  0  0  0  0  0  0  0  0  0
  146.3140  157.9920  133.2750 C   0  0  0  0  0  0  0  0  0  0  0  0
  145.1340  158.5910  133.5380 N   0  0  0  0  0  0  0  0  0  0  0  0
  143.9010  157.9230  133.8440 C   0  0  0  0  0  0  0  0  0  0  0  0
  143.8570  157.0920  134.7900 O   0  0  0  0  0  0  0  0  0  0  0  0
  142.7320  158.1850  133.0570 N   0  0  0  0  0  0  0  0  0  0  0  0
  141.5780  157.2910  133.0490 C   0  0  0  0  0  0  0  0  0  0  0  0
  140.3520  158.0470  132.6180 C   0  0  0  0  0  0  0  0  0  0  0  0
  139.0970  157.7480  133.1720 C   0  0  0  0  0  0  0  0  0  0  0  0
  137.9520  158.4130  132.7230 C   0  0  0  0  0  0  0  0  0  0  0  0
  138.0510  159.3740  131.7120 C   0  0  0  0  0  0  0  0  0  0  0  0
  139.2950  159.6700  131.1480 C   0  0  0  0  0  0  0  0  0  0  0  0
  139.3890  160.5940  130.1600 F   0  0  0  0  0  0  0  0  0  0  0  0
  140.4430  159.0080  131.5970 C   0  0  0  0  0  0  0  0  0  0  0  0
  145.6490  162.7500  133.7190 H   0  0  0  0  0  0  0  0  0  0  0  0
  147.2389  161.1460  133.2238 H   0  0  0  0  0  0  0  0  0  0  0  0
  149.4033  159.3341  132.7360 H   0  0  0  0  0  0  0  0  0  0  0  0
  149.9709  156.8866  132.6044 H   0  0  0  0  0  0  0  0  0  0  0  0
  145.8040  155.8778  133.3942 H   0  0  0  0  0  0  0  0  0  0  0  0
  142.7440  158.9870  132.3870 H   0  0  0  0  0  0  0  0  0  0  0  0
  141.7620  156.4633  132.3482 H   0  0  0  0  0  0  0  0  0  0  0  0
  141.4211  156.8909  134.0616 H   0  0  0  0  0  0  0  0  0  0  0  0
  139.0143  156.9875  133.9624 H   0  0  0  0  0  0  0  0  0  0  0  0
  136.9723  158.1800  133.1655 H   0  0  0  0  0  0  0  0  0  0  0  0
  137.1495  159.8971  131.3605 H   0  0  0  0  0  0  0  0  0  0  0  0
  141.4203  159.2407  131.1490 H   0  0  0  0  0  0  0  0  0  0  0  0
  1  2  1  0
  2  3  2  0
  2  4  1  0
  4  5  2  0
  5  6  1  0
  6  7  2  0
  7  8  1  0
  8  9  2  0
  9 10  1  0
 10 11  1  0
 10 12  1  0
 10 13  1  0
  9 14  1  0
 14 15  2  0
 15 16  1  0
 16 17  1  0
 17 18  2  0
 17 19  1  0
 19 20  1  0
 20 21  1  0
 21 22  2  0
 22 23  1  0
 23 24  2  0
 24 25  1  0
 25 26  1  0
 25 27  2  0
 16  4  1  0
 27 21  1  0
 15  6  1  0
  1 28  1  0
  5 29  1  0
  7 30  1  0
  8 31  1  0
 14 32  1  0
 19 33  1  0
 20 34  1  0
 20 35  1  0
 22 36  1  0
 23 37  1  0
 24 38  1  0
 27 39  1  0
M  CHG  1   1  -1
M  END
>  <UniqueID>  (51) 
51

>  <SMILES>  (51) 
[NH-]C(=O)c1cc2ccc(C(F)(F)F)cc2n1C(=O)NCc1cccc(F)c1

>  <Energy>  (51) 
77.75819700672207

>  <Genealogy>  (51) 
[NH-]C(=O)c1cc2ccc(C(F)(F)F)cc2n1C(=O)NCc1cccc(F)c1 (protonated)
[NH-]C(=O)c1cc2ccc(C(F)(F)F)cc2n1C(=O)NCc1cccc(F)c1 (3D coordinates assigned)
[NH-]C(=O)c1cc2ccc(C(F)(F)F)cc2n1C(=O)NCc1cccc(F)c1 (optimized conformer: 77.75819700672207 kcal/mol)

>  <smiles>  (51) 
NC(=O)c1cc2ccc(C(F)(F)F)cc2n1C(=O)NCc1cccc(F)c1

>  <score_type>  (51) 
oracle

>  <origin>  (51) 
adg

>  <m_score__min__energy>  (51) 
-8.3599999999999994

>  <m_primary>  (51) 
energy

$$$$
51:0
     RDKit          3D

 72 76  0  0  0  0  0  0  0  0999 V2000
  146.7880  159.2690  132.9800 C   0  0  0  0  0  0  0  0  0  0  0  0
  145.3710  159.4890  133.4140 C   0  0  0  0  0  0  0  0  0  0  0  0
  144.8080  160.7900  133.3770 C   0  0  0  0  0  0  0  0  0  0  0  0
  143.4740  161.0040  133.7630 C   0  0  0  0  0  0  0  0  0  0  0  0
  142.7270  159.9000  134.1650 C   0  0  0  0  0  0  0  0  0  0  0  0
  141.4240  159.8210  134.6020 C   0  0  0  0  0  0  0  0  0  0  0  0
  141.2040  158.4710  134.8690 C   0  0  0  0  0  0  0  0  0  0  0  0
  139.9110  157.9200  135.3240 C   0  0  0  0  0  0  0  0  0  0  0  0
  139.6060  157.8750  136.7170 N   0  0  0  0  0  0  0  0  0  0  0  0
  139.0580  157.5070  134.4940 O   0  0  0  0  0  0  0  0  0  0  0  0
  142.3240  157.7470  134.6030 N   0  0  0  0  0  0  0  0  0  0  0  0
  142.5080  156.3340  134.7730 C   0  0  0  0  0  0  0  0  0  0  0  0
  143.5630  155.9030  135.3080 O   0  0  0  0  0  0  0  0  0  0  0  0
  141.4670  155.3610  134.3090 C   0  0  0  0  0  0  0  0  0  0  0  0
  141.8700  154.7720  133.0770 O   0  0  0  0  0  0  0  0  0  0  0  0
  143.0850  154.1050  132.8680 C   0  0  0  0  0  0  0  0  0  0  0  0
  144.3030  154.7920  132.6990 C   0  0  0  0  0  0  0  0  0  0  0  0
  145.5280  154.0940  132.5930 C   0  0  0  0  0  0  0  0  0  0  0  0
  146.7940  154.8090  132.3900 N   0  0  1  0  0  0  0  0  0  0  0  0
  147.0210  156.0100  133.2180 C   0  0  2  0  0  0  0  0  0  0  0  0
  148.4770  156.4050  132.9350 C   0  0  0  0  0  0  0  0  0  0  0  0
  149.1560  155.0870  132.5850 C   0  0  0  0  0  0  0  0  0  0  0  0
  148.0270  154.0490  132.6730 C   0  0  1  0  0  0  0  0  0  0  0  0
  147.9880  153.4430  134.1020 C   0  0  0  0  0  0  0  0  0  0  0  0
  147.4410  154.3840  135.0980 N   0  0  0  0  0  0  0  0  0  0  0  0
  147.3680  153.9560  136.4690 C   0  0  0  0  0  0  0  0  0  0  0  0
  146.3540  153.3280  136.8790 O   0  0  0  0  0  0  0  0  0  0  0  0
  148.4360  154.2350  137.3390 O   0  0  0  0  0  0  0  0  0  0  0  0
  148.7790  153.5050  138.5280 C   0  0  0  0  0  0  0  0  0  0  0  0
  148.4670  152.0050  138.3540 C   0  0  0  0  0  0  0  0  0  0  0  0
  147.9120  154.0640  139.6660 C   0  0  0  0  0  0  0  0  0  0  0  0
  150.2640  153.7170  138.8830 C   0  0  0  0  0  0  0  0  0  0  0  0
  146.8580  155.6890  134.7290 C   0  0  0  0  0  0  0  0  0  0  0  0
  145.4680  152.6870  132.4770 C   0  0  0  0  0  0  0  0  0  0  0  0
  144.2590  152.0040  132.6220 C   0  0  0  0  0  0  0  0  0  0  0  0
  144.2350  150.6490  132.5500 F   0  0  0  0  0  0  0  0  0  0  0  0
  143.0770  152.7100  132.8370 C   0  0  0  0  0  0  0  0  0  0  0  0
  141.9100  152.0360  132.9970 F   0  0  0  0  0  0  0  0  0  0  0  0
  143.2490  158.6330  134.1750 C   0  0  0  0  0  0  0  0  0  0  0  0
  144.5760  158.3900  133.8060 C   0  0  0  0  0  0  0  0  0  0  0  0
  147.4317  159.1691  133.8664 H   0  0  0  0  0  0  0  0  0  0  0  0
  146.8486  158.3507  132.3775 H   0  0  0  0  0  0  0  0  0  0  0  0
  147.1241  160.1257  132.3775 H   0  0  0  0  0  0  0  0  0  0  0  0
  145.4215  161.6397  133.0429 H   0  0  0  0  0  0  0  0  0  0  0  0
  143.0338  162.0119  133.7481 H   0  0  0  0  0  0  0  0  0  0  0  0
  140.7081  160.6483  134.7163 H   0  0  0  0  0  0  0  0  0  0  0  0
  139.0910  158.6580  137.1790 H   0  0  0  0  0  0  0  0  0  0  0  0
  141.3408  154.5730  135.0661 H   0  0  0  0  0  0  0  0  0  0  0  0
  140.5146  155.8915  134.1627 H   0  0  0  0  0  0  0  0  0  0  0  0
  144.3011  155.8909  132.6486 H   0  0  0  0  0  0  0  0  0  0  0  0
  146.8060  155.0960  131.3810 H   0  0  0  0  0  0  0  0  0  0  0  0
  146.3006  156.8066  132.9804 H   0  0  0  0  0  0  0  0  0  0  0  0
  148.5340  157.1099  132.0924 H   0  0  0  0  0  0  0  0  0  0  0  0
  148.9514  156.9117  133.7884 H   0  0  0  0  0  0  0  0  0  0  0  0
  149.5761  155.1219  131.5690 H   0  0  0  0  0  0  0  0  0  0  0  0
  149.9967  154.8542  133.2551 H   0  0  0  0  0  0  0  0  0  0  0  0
  148.1583  153.2122  131.9712 H   0  0  0  0  0  0  0  0  0  0  0  0
  147.3590  152.5407  134.0859 H   0  0  0  0  0  0  0  0  0  0  0  0
  149.0221  153.2087  134.3949 H   0  0  0  0  0  0  0  0  0  0  0  0
  148.3690  151.5337  139.3431 H   0  0  0  0  0  0  0  0  0  0  0  0
  147.5254  151.8885  137.7974 H   0  0  0  0  0  0  0  0  0  0  0  0
  149.2840  151.5227  137.7974 H   0  0  0  0  0  0  0  0  0  0  0  0
  148.3508  153.7811  140.6342 H   0  0  0  0  0  0  0  0  0  0  0  0
  147.8688  155.1605  139.5894 H   0  0  0  0  0  0  0  0  0  0  0  0
  146.8955  153.6508  139.5894 H   0  0  0  0  0  0  0  0  0  0  0  0
  150.3808  153.7337  139.9767 H   0  0  0  0  0  0  0  0  0  0  0  0
  150.8624  152.8952  138.4628 H   0  0  0  0  0  0  0  0  0  0  0  0
  150.6085  154.6734  138.4628 H   0  0  0  0  0  0  0  0  0  0  0  0
  145.7855  155.6774  134.9731 H   0  0  0  0  0  0  0  0  0  0  0  0
  147.3943  156.4654  135.2944 H   0  0  0  0  0  0  0  0  0  0  0  0
  146.3881  152.1211  132.2693 H   0  0  0  0  0  0  0  0  0  0  0  0
  144.9890  157.3706  133.8208 H   0  0  0  0  0  0  0  0  0  0  0  0
  1  2  1  0
  2  3  2  0
  3  4  1  0
  4  5  2  0
  5  6  1  0
  6  7  2  0
  7  8  1  0
  8  9  1  0
  8 10  2  0
  7 11  1  0
 11 12  1  0
 12 13  2  0
 12 14  1  0
 14 15  1  0
 15 16  1  0
 16 17  2  0
 17 18  1  0
 18 19  1  0
 19 20  1  0
 20 21  1  0
 21 22  1  0
 22 23  1  0
 23 24  1  0
 24 25  1  0
 25 26  1  0
 26 27  2  0
 26 28  1  0
 28 29  1  0
 29 30  1  0
 29 31  1  0
 29 32  1  0
 25 33  1  0
 18 34  2  0
 34 35  1  0
 35 36  1  0
 35 37  2  0
 37 38  1  0
 11 39  1  0
 39 40  2  0
 40  2  1  0
 39  5  1  0
 37 16  1  0
 23 19  1  0
 33 20  1  0
  1 41  1  0
  1 42  1  0
  1 43  1  0
  3 44  1  0
  4 45  1  0
  6 46  1  0
  9 47  1  0
 14 48  1  0
 14 49  1  0
 17 50  1  0
 19 51  1  6
 20 52  1  6
 21 53  1  0
 21 54  1  0
 22 55  1  0
 22 56  1  0
 23 57  1  6
 24 58  1  0
 24 59  1  0
 30 60  1  0
 30 61  1  0
 30 62  1  0
 31 63  1  0
 31 64  1  0
 31 65  1  0
 32 66  1  0
 32 67  1  0
 32 68  1  0
 33 69  1  0
 33 70  1  0
 34 71  1  0
 40 72  1  0
M  CHG  2   9  -1  19   1
M  END
>  <UniqueID>  (52) 
52

>  <SMILES>  (52) 
Cc1ccc2cc(C([NH-])=O)n(C(=O)COc3cc([NH+]4[C@@H]5CC[C@H]4CN(C(=O)OC(C)(C)C)C5)cc(F)c3F)c2c1

>  <Energy>  (52) 
130.69412742253112

>  <Genealogy>  (52) 
Cc1ccc2cc(C([NH-])=O)n(C(=O)COc3cc([NH+]4C5CCC4CN(C(=O)OC(C)(C)C)C5)cc(F)c3F)c2c1 (protonated)
Cc1ccc2cc(C([NH-])=O)n(C(=O)COc3cc([NH+]4[C@@H]5CC[C@H]4CN(C(=O)OC(C)(C)C)C5)cc(F)c3F)c2c1 (chirality)
Cc1ccc2cc(C([NH-])=O)n(C(=O)COc3cc([NH+]4[C@@H]5CC[C@H]4CN(C(=O)OC(C)(C)C)C5)cc(F)c3F)c2c1 (3D coordinates assigned)
Cc1ccc2cc(C([NH-])=O)n(C(=O)COc3cc([NH+]4[C@@H]5CC[C@H]4CN(C(=O)OC(C)(C)C)C5)cc(F)c3F)c2c1 (nonaromatic ring conformer: 130.69412742253112 kcal/mol)

>  <smiles>  (52) 
Cc1ccc2cc(C(N)=O)n(C(=O)COc3cc(N4C5CCC4CN(C(=O)OC(C)(C)C)C5)cc(F)c3F)c2c1

>  <score_type>  (52) 
oracle

>  <origin>  (52) 
adg

>  <m_score__min__energy>  (52) 
-10.130000000000001

>  <m_primary>  (52) 
energy

$$$$
52:0
     RDKit          3D

 43 45  0  0  0  0  0  0  0  0999 V2000
  148.8410  157.4240  131.8540 N   0  0  0  0  0  0  0  0  0  0  0  0
  148.5690  158.5720  132.6610 C   0  0  0  0  0  0  0  0  0  0  0  0
  149.5250  159.3130  133.0120 O   0  0  0  0  0  0  0  0  0  0  0  0
  147.1930  158.8790  133.1050 C   0  0  0  0  0  0  0  0  0  0  0  0
  146.6620  160.1670  133.1740 C   0  0  0  0  0  0  0  0  0  0  0  0
  145.3430  159.9990  133.5280 C   0  0  0  0  0  0  0  0  0  0  0  0
  144.3410  160.9440  133.7340 C   0  0  0  0  0  0  0  0  0  0  0  0
  143.0660  160.4830  134.1030 C   0  0  0  0  0  0  0  0  0  0  0  0
  142.8200  159.0980  134.2710 C   0  0  0  0  0  0  0  0  0  0  0  0
  141.4410  158.6170  134.6400 C   0  0  0  0  0  0  0  0  0  0  0  0
  141.1800  158.7490  136.1220 C   0  0  0  0  0  0  0  0  0  0  0  0
  140.6740  159.8180  136.5620 O   0  0  0  0  0  0  0  0  0  0  0  0
  141.4370  157.6570  137.0330 N   0  0  0  0  0  0  0  0  0  0  0  0
  141.7540  156.3130  136.5320 C   0  0  0  0  0  0  0  0  0  0  0  0
  141.3830  155.2530  137.5740 C   0  0  0  0  0  0  0  0  0  0  0  0
  141.9390  155.5690  138.8340 O   0  0  0  0  0  0  0  0  0  0  0  0
  141.3510  156.7570  139.3240 C   0  0  0  0  0  0  0  0  0  0  0  0
  141.7220  157.9520  138.4440 C   0  0  0  0  0  0  0  0  0  0  0  0
  143.8570  158.1670  134.0400 C   0  0  0  0  0  0  0  0  0  0  0  0
  145.1120  158.6550  133.6620 C   0  0  0  0  0  0  0  0  0  0  0  0
  146.2390  157.9550  133.4090 N   0  0  0  0  0  0  0  0  0  0  0  0
  146.3860  156.5290  133.5100 C   0  0  0  0  0  0  0  0  0  0  0  0
  146.4360  155.8320  132.4600 O   0  0  0  0  0  0  0  0  0  0  0  0
  146.3550  155.8490  134.8450 C   0  0  0  0  0  0  0  0  0  0  0  0
  144.8160  154.9790  135.0740 Cl  0  0  0  0  0  0  0  0  0  0  0  0
  148.0700  156.8200  131.4930 H   0  0  0  0  0  0  0  0  0  0  0  0
  149.8210  157.1990  131.5780 H   0  0  0  0  0  0  0  0  0  0  0  0
  147.1863  161.1155  132.9855 H   0  0  0  0  0  0  0  0  0  0  0  0
  144.5416  162.0186  133.6116 H   0  0  0  0  0  0  0  0  0  0  0  0
  142.2511  161.2044  134.2629 H   0  0  0  0  0  0  0  0  0  0  0  0
  140.6970  159.2144  134.0926 H   0  0  0  0  0  0  0  0  0  0  0  0
  141.3667  157.5526  134.3727 H   0  0  0  0  0  0  0  0  0  0  0  0
  141.1863  156.1274  135.6083 H   0  0  0  0  0  0  0  0  0  0  0  0
  142.8338  156.2528  136.3308 H   0  0  0  0  0  0  0  0  0  0  0  0
  140.2878  155.2053  137.6652 H   0  0  0  0  0  0  0  0  0  0  0  0
  141.7836  154.2824  137.2463 H   0  0  0  0  0  0  0  0  0  0  0  0
  140.2572  156.6410  139.3317 H   0  0  0  0  0  0  0  0  0  0  0  0
  141.7247  156.9405  140.3422 H   0  0  0  0  0  0  0  0  0  0  0  0
  141.1354  158.8284  138.7567 H   0  0  0  0  0  0  0  0  0  0  0  0
  142.7969  158.1573  138.5556 H   0  0  0  0  0  0  0  0  0  0  0  0
  143.6821  157.0870  134.1544 H   0  0  0  0  0  0  0  0  0  0  0  0
  147.1872  155.1322  134.9044 H   0  0  0  0  0  0  0  0  0  0  0  0
  146.4506  156.6113  135.6323 H   0  0  0  0  0  0  0  0  0  0  0  0
  1  2  1  0
  2  3  2  0
  2  4  1  0
  4  5  2  0
  5  6  1  0
  6  7  2  0
  7  8  1  0
  8  9  2  0
  9 10  1  0
 10 11  1  0
 11 12  2  0
 11 13  1  0
 13 14  1  0
 14 15  1  0
 15 16  1  0
 16 17  1  0
 17 18  1  0
  9 19  1  0
 19 20  2  0
 20 21  1  0
 21 22  1  0
 22 23  2  0
 22 24  1  0
 24 25  1  0
 21  4  1  0
 20  6  1  0
 18 13  1  0
  1 26  1  0
  1 27  1  0
  5 28  1  0
  7 29  1  0
  8 30  1  0
 10 31  1  0
 10 32  1  0
 14 33  1  0
 14 34  1  0
 15 35  1  0
 15 36  1  0
 17 37  1  0
 17 38  1  0
 18 39  1  0
 18 40  1  0
 19 41  1  0
 24 42  1  0
 24 43  1  0
M  END
>  <UniqueID>  (53) 
53

>  <SMILES>  (53) 
NC(=O)c1cc2ccc(CC(=O)N3CCOCC3)cc2n1C(=O)CCl

>  <Energy>  (53) 
85.12423989958819

>  <Genealogy>  (53) 
NC(=O)c1cc2ccc(CC(=O)N3CCOCC3)cc2n1C(=O)CCl (3D coordinates assigned)
NC(=O)c1cc2ccc(CC(=O)N3CCOCC3)cc2n1C(=O)CCl (nonaromatic ring conformer: 85.12423989958819 kcal/mol)

>  <smiles>  (53) 
NC(=O)c1cc2ccc(CC(=O)N3CCOCC3)cc2n1C(=O)CCl

>  <score_type>  (53) 
oracle

>  <origin>  (53) 
adg

>  <m_score__min__energy>  (53) 
-7.9699999999999998

>  <m_primary>  (53) 
energy

$$$$
53:0
     RDKit          3D

 37 38  0  0  0  0  0  0  0  0999 V2000
  141.9350  156.6690  134.9840 C   0  0  0  0  0  0  0  0  0  0  0  0
  142.5820  157.8320  134.8230 C   0  0  0  0  0  0  0  0  0  0  0  0
  142.5950  158.8120  135.8300 O   0  0  0  0  0  0  0  0  0  0  0  0
  141.5010  159.1940  136.6170 C   0  0  0  0  0  0  0  0  0  0  0  0
  141.3210  158.5740  137.9600 C   0  0  0  0  0  0  0  0  0  0  0  0
  140.6170  159.9740  136.1680 O   0  0  0  0  0  0  0  0  0  0  0  0
  143.2680  158.1450  133.5500 C   0  0  0  0  0  0  0  0  0  0  0  0
  142.7700  157.7840  132.4480 O   0  0  0  0  0  0  0  0  0  0  0  0
  144.5160  158.8540  133.5590 N   0  0  0  0  0  0  0  0  0  0  0  0
  144.7100  160.1960  133.6860 C   0  0  0  0  0  0  0  0  0  0  0  0
  143.6490  161.2260  133.7290 C   0  0  0  0  0  0  0  0  0  0  0  0
  142.2710  160.8620  133.7230 N   0  0  0  0  0  0  0  0  0  0  0  0
  143.9640  162.4460  133.7410 O   0  0  0  0  0  0  0  0  0  0  0  0
  146.0720  160.4900  133.7200 C   0  0  0  0  0  0  0  0  0  0  0  0
  146.7100  159.2750  133.6070 C   0  0  0  0  0  0  0  0  0  0  0  0
  148.0680  158.9720  133.6060 C   0  0  0  0  0  0  0  0  0  0  0  0
  148.4420  157.6210  133.5060 C   0  0  0  0  0  0  0  0  0  0  0  0
  147.4590  156.6010  133.4040 C   0  0  0  0  0  0  0  0  0  0  0  0
  147.8720  155.1470  133.3500 C   0  0  0  0  0  0  0  0  0  0  0  0
  146.7750  154.3110  132.6980 C   0  0  0  0  0  0  0  0  0  0  0  0
  148.1080  154.6660  134.6270 F   0  0  0  0  0  0  0  0  0  0  0  0
  149.0420  155.0090  132.6210 F   0  0  0  0  0  0  0  0  0  0  0  0
  146.0890  156.9500  133.4360 C   0  0  0  0  0  0  0  0  0  0  0  0
  145.7480  158.3050  133.5140 C   0  0  0  0  0  0  0  0  0  0  0  0
  141.9416  155.9198  134.1786 H   0  0  0  0  0  0  0  0  0  0  0  0
  141.3974  156.4639  135.9215 H   0  0  0  0  0  0  0  0  0  0  0  0
  141.5373  159.3191  138.7398 H   0  0  0  0  0  0  0  0  0  0  0  0
  140.2839  158.2231  138.0658 H   0  0  0  0  0  0  0  0  0  0  0  0
  142.0089  157.7222  138.0658 H   0  0  0  0  0  0  0  0  0  0  0  0
  141.8830  160.2130  134.4430 H   0  0  0  0  0  0  0  0  0  0  0  0
  146.5381  161.4817  133.8166 H   0  0  0  0  0  0  0  0  0  0  0  0
  148.8258  159.7658  133.6812 H   0  0  0  0  0  0  0  0  0  0  0  0
  149.5082  157.3505  133.5067 H   0  0  0  0  0  0  0  0  0  0  0  0
  146.1588  153.8414  133.4789 H   0  0  0  0  0  0  0  0  0  0  0  0
  146.1432  154.9588  132.0725 H   0  0  0  0  0  0  0  0  0  0  0  0
  147.2320  153.5301  132.0725 H   0  0  0  0  0  0  0  0  0  0  0  0
  145.3096  156.1746  133.4004 H   0  0  0  0  0  0  0  0  0  0  0  0
  1  2  2  0
  2  3  1  0
  3  4  1  0
  4  5  1  0
  4  6  2  0
  2  7  1  0
  7  8  2  0
  7  9  1  0
  9 10  1  0
 10 11  1  0
 11 12  1  0
 11 13  2  0
 10 14  2  0
 14 15  1  0
 15 16  2  0
 16 17  1  0
 17 18  2  0
 18 19  1  0
 19 20  1  0
 19 21  1  0
 19 22  1  0
 18 23  1  0
 23 24  2  0
 24  9  1  0
 24 15  1  0
  1 25  1  0
  1 26  1  0
  5 27  1  0
  5 28  1  0
  5 29  1  0
 12 30  1  0
 14 31  1  0
 16 32  1  0
 17 33  1  0
 20 34  1  0
 20 35  1  0
 20 36  1  0
 23 37  1  0
M  CHG  1  12  -1
M  END
>  <UniqueID>  (54) 
54

>  <SMILES>  (54) 
C=C(OC(C)=O)C(=O)n1c(C([NH-])=O)cc2ccc(C(C)(F)F)cc21

>  <Energy>  (54) 
76.86582875841793

>  <Genealogy>  (54) 
C=C(OC(C)=O)C(=O)n1c(C([NH-])=O)cc2ccc(C(C)(F)F)cc21 (protonated)
C=C(OC(C)=O)C(=O)n1c(C([NH-])=O)cc2ccc(C(C)(F)F)cc21 (3D coordinates assigned)
C=C(OC(C)=O)C(=O)n1c(C([NH-])=O)cc2ccc(C(C)(F)F)cc21 (optimized conformer: 76.86582875841793 kcal/mol)

>  <smiles>  (54) 
C=C(OC(C)=O)C(=O)n1c(C(N)=O)cc2ccc(C(C)(F)F)cc21

>  <score_type>  (54) 
oracle

>  <origin>  (54) 
adg

>  <m_score__min__energy>  (54) 
-6.1200000000000001

>  <m_primary>  (54) 
energy

$$$$
54:0
     RDKit          3D

 35 36  0  0  0  0  0  0  0  0999 V2000
  147.1960  153.6960  136.1210 N   0  0  0  0  0  0  0  0  0  0  0  0
  146.5050  154.1100  134.9430 C   0  0  0  0  0  0  0  0  0  0  0  0
  145.5860  153.3860  134.4810 O   0  0  0  0  0  0  0  0  0  0  0  0
  146.8690  155.3810  134.2840 C   0  0  0  0  0  0  0  0  0  0  0  0
  146.1800  156.5790  134.4670 C   0  0  0  0  0  0  0  0  0  0  0  0
  146.8210  157.4950  133.6620 C   0  0  0  0  0  0  0  0  0  0  0  0
  146.5550  158.8430  133.4490 C   0  0  0  0  0  0  0  0  0  0  0  0
  147.3890  159.5470  132.5630 C   0  0  0  0  0  0  0  0  0  0  0  0
  148.4820  158.9010  131.9270 C   0  0  0  0  0  0  0  0  0  0  0  0
  149.3440  159.6560  130.9470 C   0  0  0  0  0  0  0  0  0  0  0  0
  149.2360  161.0200  131.1520 F   0  0  0  0  0  0  0  0  0  0  0  0
  148.9610  159.3820  129.6460 F   0  0  0  0  0  0  0  0  0  0  0  0
  150.6630  159.2780  131.1170 F   0  0  0  0  0  0  0  0  0  0  0  0
  148.7040  157.5230  132.1540 C   0  0  0  0  0  0  0  0  0  0  0  0
  147.8500  156.8480  133.0310 C   0  0  0  0  0  0  0  0  0  0  0  0
  147.8880  155.5510  133.3980 N   0  0  0  0  0  0  0  0  0  0  0  0
  148.8240  154.5660  132.9400 C   0  0  0  0  0  0  0  0  0  0  0  0
  149.9790  154.9340  132.5990 O   0  0  0  0  0  0  0  0  0  0  0  0
  148.3840  153.1260  132.7610 C   0  0  2  0  0  0  0  0  0  0  0  0
  148.4870  152.3980  134.0280 N   0  0  0  0  0  0  0  0  0  0  0  0
  149.1470  152.3830  131.6370 C   0  0  0  0  0  0  0  0  0  0  0  0
  149.7010  150.6960  132.0830 P   0  0  0  0  0  0  0  0  0  0  0  0
  150.5780  150.7310  133.3140 O   0  0  0  0  0  0  0  0  0  0  0  0
  150.5530  149.9900  130.8050 O   0  0  0  0  0  0  0  0  0  0  0  0
  148.3370  149.7520  132.4090 O   0  0  0  0  0  0  0  0  0  0  0  0
  147.9730  153.0010  136.0700 H   0  0  0  0  0  0  0  0  0  0  0  0
  145.3096  156.7554  135.1161 H   0  0  0  0  0  0  0  0  0  0  0  0
  145.7179  159.3431  133.9580 H   0  0  0  0  0  0  0  0  0  0  0  0
  147.1927  160.6102  132.3601 H   0  0  0  0  0  0  0  0  0  0  0  0
  149.5286  156.9951  131.6527 H   0  0  0  0  0  0  0  0  0  0  0  0
  147.3313  153.1595  132.4438 H   0  0  0  0  0  0  0  0  0  0  0  0
  148.5800  151.3780  133.8180 H   0  0  0  0  0  0  0  0  0  0  0  0
  147.5820  152.4940  134.5440 H   0  0  0  0  0  0  0  0  0  0  0  0
  148.4831  152.3069  130.7632 H   0  0  0  0  0  0  0  0  0  0  0  0
  150.0565  152.9683  131.4363 H   0  0  0  0  0  0  0  0  0  0  0  0
  1  2  1  0
  2  3  2  0
  2  4  1  0
  4  5  2  0
  5  6  1  0
  6  7  2  0
  7  8  1  0
  8  9  2  0
  9 10  1  0
 10 11  1  0
 10 12  1  0
 10 13  1  0
  9 14  1  0
 14 15  2  0
 15 16  1  0
 16 17  1  0
 17 18  2  0
 17 19  1  0
 19 20  1  0
 19 21  1  0
 21 22  1  0
 22 23  2  0
 22 24  1  0
 22 25  1  0
 16  4  1  0
 15  6  1  0
  1 26  1  0
  5 27  1  0
  7 28  1  0
  8 29  1  0
 14 30  1  0
 19 31  1  6
 20 32  1  0
 20 33  1  0
 21 34  1  0
 21 35  1  0
M  CHG  3   1  -1  24  -1  25  -1
M  END
>  <UniqueID>  (55) 
55

>  <SMILES>  (55) 
[NH-]C(=O)c1cc2ccc(C(F)(F)F)cc2n1C(=O)[C@H](N)CP(=O)([O-])[O-]

>  <Energy>  (55) 
73.0323796556063

>  <Genealogy>  (55) 
[NH-]C(=O)c1cc2ccc(C(F)(F)F)cc2n1C(=O)C(N)CP(=O)([O-])[O-] (protonated)
[NH-]C(=O)c1cc2ccc(C(F)(F)F)cc2n1C(=O)[C@H](N)CP(=O)([O-])[O-] (chirality)
[NH-]C(=O)c1cc2ccc(C(F)(F)F)cc2n1C(=O)[C@H](N)CP(=O)([O-])[O-] (3D coordinates assigned)
[NH-]C(=O)c1cc2ccc(C(F)(F)F)cc2n1C(=O)[C@H](N)CP(=O)([O-])[O-] (optimized conformer: 73.0323796556063 kcal/mol)

>  <smiles>  (55) 
NC(=O)c1cc2ccc(C(F)(F)F)cc2n1C(=O)C(N)CP(=O)(O)O

>  <score_type>  (55) 
oracle

>  <origin>  (55) 
adg

>  <m_score__min__energy>  (55) 
-6.3700000000000001

>  <m_primary>  (55) 
energy

$$$$
55:0
     RDKit          3D

 37 38  0  0  0  0  0  0  0  0999 V2000
  140.8930  155.7510  133.6150 C   0  0  0  0  0  0  0  0  0  0  0  0
  141.3340  157.0660  133.1370 N   0  0  0  0  0  0  0  0  0  0  0  0
  140.3420  158.0190  132.6090 C   0  0  0  0  0  0  0  0  0  0  0  0
  140.3430  159.2890  133.4040 C   0  0  0  0  0  0  0  0  0  0  0  0
  140.2980  159.2500  134.6620 O   0  0  0  0  0  0  0  0  0  0  0  0
  140.4040  160.5180  132.7560 O   0  0  0  0  0  0  0  0  0  0  0  0
  142.7530  157.3540  133.1340 C   0  0  0  0  0  0  0  0  0  0  0  0
  143.4830  156.8550  132.2330 O   0  0  0  0  0  0  0  0  0  0  0  0
  143.3960  158.2180  134.1470 C   0  0  0  0  0  0  0  0  0  0  0  0
  142.8450  158.4020  135.2640 O   0  0  0  0  0  0  0  0  0  0  0  0
  144.6840  158.8020  133.8910 N   0  0  0  0  0  0  0  0  0  0  0  0
  144.9590  160.1120  133.6390 C   0  0  0  0  0  0  0  0  0  0  0  0
  143.9960  161.2280  133.7280 C   0  0  0  0  0  0  0  0  0  0  0  0
  142.5910  160.9870  133.8170 N   0  0  0  0  0  0  0  0  0  0  0  0
  144.4250  162.4120  133.7610 O   0  0  0  0  0  0  0  0  0  0  0  0
  146.2940  160.2720  133.2730 C   0  0  0  0  0  0  0  0  0  0  0  0
  146.8360  159.0070  133.3100 C   0  0  0  0  0  0  0  0  0  0  0  0
  148.1180  158.5730  132.9910 C   0  0  0  0  0  0  0  0  0  0  0  0
  148.3810  157.1960  133.0510 C   0  0  0  0  0  0  0  0  0  0  0  0
  147.3680  156.2780  133.4330 C   0  0  0  0  0  0  0  0  0  0  0  0
  147.6350  154.7960  133.4210 C   0  0  0  0  0  0  0  0  0  0  0  0
  148.8450  154.5220  132.8070 F   0  0  0  0  0  0  0  0  0  0  0  0
  147.6770  154.3330  134.7220 F   0  0  0  0  0  0  0  0  0  0  0  0
  146.6380  154.1260  132.7340 F   0  0  0  0  0  0  0  0  0  0  0  0
  146.0700  156.7580  133.7240 C   0  0  0  0  0  0  0  0  0  0  0  0
  145.8420  158.1370  133.6810 C   0  0  0  0  0  0  0  0  0  0  0  0
  140.8902  155.7427  134.7150 H   0  0  0  0  0  0  0  0  0  0  0  0
  139.8775  155.5477  133.2442 H   0  0  0  0  0  0  0  0  0  0  0  0
  141.5806  154.9766  133.2442 H   0  0  0  0  0  0  0  0  0  0  0  0
  140.5866  158.2498  131.5617 H   0  0  0  0  0  0  0  0  0  0  0  0
  139.3440  157.5617  132.6793 H   0  0  0  0  0  0  0  0  0  0  0  0
  142.2140  160.0250  133.9580 H   0  0  0  0  0  0  0  0  0  0  0  0
  141.9210  161.7890  133.8070 H   0  0  0  0  0  0  0  0  0  0  0  0
  146.8059  161.2096  133.0104 H   0  0  0  0  0  0  0  0  0  0  0  0
  148.9022  159.2875  132.7004 H   0  0  0  0  0  0  0  0  0  0  0  0
  149.3847  156.8233  132.7988 H   0  0  0  0  0  0  0  0  0  0  0  0
  145.2574  156.0617  133.9786 H   0  0  0  0  0  0  0  0  0  0  0  0
  1  2  1  0
  2  3  1  0
  3  4  1  0
  4  5  2  0
  4  6  1  0
  2  7  1  0
  7  8  2  0
  7  9  1  0
  9 10  2  0
  9 11  1  0
 11 12  1  0
 12 13  1  0
 13 14  1  0
 13 15  2  0
 12 16  2  0
 16 17  1  0
 17 18  2  0
 18 19  1  0
 19 20  2  0
 20 21  1  0
 21 22  1  0
 21 23  1  0
 21 24  1  0
 20 25  1  0
 25 26  2  0
 26 11  1  0
 26 17  1  0
  1 27  1  0
  1 28  1  0
  1 29  1  0
  3 30  1  0
  3 31  1  0
 14 32  1  0
 14 33  1  0
 16 34  1  0
 18 35  1  0
 19 36  1  0
 25 37  1  0
M  CHG  1   6  -1
M  END
>  <UniqueID>  (56) 
56

>  <SMILES>  (56) 
CN(CC(=O)[O-])C(=O)C(=O)n1c(C(N)=O)cc2ccc(C(F)(F)F)cc21

>  <Energy>  (56) 
77.97100552286636

>  <Genealogy>  (56) 
CN(CC(=O)[O-])C(=O)C(=O)n1c(C(N)=O)cc2ccc(C(F)(F)F)cc21 (protonated)
CN(CC(=O)[O-])C(=O)C(=O)n1c(C(N)=O)cc2ccc(C(F)(F)F)cc21 (3D coordinates assigned)
CN(CC(=O)[O-])C(=O)C(=O)n1c(C(N)=O)cc2ccc(C(F)(F)F)cc21 (optimized conformer: 77.97100552286636 kcal/mol)

>  <smiles>  (56) 
CN(CC(=O)O)C(=O)C(=O)n1c(C(N)=O)cc2ccc(C(F)(F)F)cc21

>  <score_type>  (56) 
oracle

>  <origin>  (56) 
adg

>  <m_score__min__energy>  (56) 
-6.7800000000000002

>  <m_primary>  (56) 
energy

$$$$
56:0
     RDKit          3D

 42 43  0  0  0  0  0  0  0  0999 V2000
  147.9730  154.0910  133.3760 C   0  0  0  0  0  0  0  0  0  0  0  0
  147.7800  155.1080  132.3470 N   0  0  0  0  0  0  0  0  0  0  0  0
  147.6800  156.5150  132.6290 C   0  0  0  0  0  0  0  0  0  0  0  0
  148.8500  157.3140  132.5810 C   0  0  0  0  0  0  0  0  0  0  0  0
  148.7930  158.6920  132.8440 C   0  0  0  0  0  0  0  0  0  0  0  0
  147.5570  159.2460  133.1610 C   0  0  0  0  0  0  0  0  0  0  0  0
  147.2180  160.5510  133.4360 C   0  0  0  0  0  0  0  0  0  0  0  0
  145.8460  160.5340  133.6770 C   0  0  0  0  0  0  0  0  0  0  0  0
  145.0830  161.7250  134.1040 C   0  0  0  0  0  0  0  0  0  0  0  0
  143.8410  162.0590  133.4910 N   0  0  0  0  0  0  0  0  0  0  0  0
  145.5090  162.4270  135.0590 O   0  0  0  0  0  0  0  0  0  0  0  0
  145.3530  159.2680  133.5440 N   0  0  0  0  0  0  0  0  0  0  0  0
  143.9840  158.8400  133.6390 C   0  0  0  0  0  0  0  0  0  0  0  0
  143.4600  158.1880  132.6940 O   0  0  0  0  0  0  0  0  0  0  0  0
  143.2460  159.1270  134.7890 O   0  0  0  0  0  0  0  0  0  0  0  0
  142.2150  160.1080  134.8240 C   0  0  0  0  0  0  0  0  0  0  0  0
  141.5700  160.1650  133.5570 O   0  0  0  0  0  0  0  0  0  0  0  0
  140.7150  159.1610  133.0930 C   0  0  0  0  0  0  0  0  0  0  0  0
  139.7400  159.4470  132.3450 O   0  0  0  0  0  0  0  0  0  0  0  0
  140.9600  157.8020  133.4770 N   0  0  0  0  0  0  0  0  0  0  0  0
  140.1870  156.6800  132.9360 C   0  0  2  0  0  0  0  0  0  0  0  0
  138.7490  156.7800  133.3660 C   0  0  0  0  0  0  0  0  0  0  0  0
  138.3800  157.7160  134.0580 O   0  0  0  0  0  0  0  0  0  0  0  0
  140.7850  155.3920  133.4150 C   0  0  0  0  0  0  0  0  0  0  0  0
  141.7580  155.4040  134.2150 O   0  0  0  0  0  0  0  0  0  0  0  0
  140.2380  154.1760  133.0200 O   0  0  0  0  0  0  0  0  0  0  0  0
  146.4150  158.4920  133.2320 C   0  0  0  0  0  0  0  0  0  0  0  0
  146.4380  157.1190  132.9520 C   0  0  0  0  0  0  0  0  0  0  0  0
  147.8852  154.5538  134.3700 H   0  0  0  0  0  0  0  0  0  0  0  0
  147.2073  153.3089  133.2668 H   0  0  0  0  0  0  0  0  0  0  0  0
  148.9721  153.6438  133.2668 H   0  0  0  0  0  0  0  0  0  0  0  0
  147.7270  154.7870  131.3530 H   0  0  0  0  0  0  0  0  0  0  0  0
  149.8155  156.8481  132.3344 H   0  0  0  0  0  0  0  0  0  0  0  0
  149.6986  159.3149  132.8007 H   0  0  0  0  0  0  0  0  0  0  0  0
  147.8883  161.4228  133.4604 H   0  0  0  0  0  0  0  0  0  0  0  0
  143.1790  161.3150  133.1790 H   0  0  0  0  0  0  0  0  0  0  0  0
  141.4803  159.8400  135.5975 H   0  0  0  0  0  0  0  0  0  0  0  0
  142.6518  161.0903  135.0571 H   0  0  0  0  0  0  0  0  0  0  0  0
  141.8210  157.6040  134.0360 H   0  0  0  0  0  0  0  0  0  0  0  0
  140.2204  156.7111  131.8370 H   0  0  0  0  0  0  0  0  0  0  0  0
  138.0285  156.0086  133.0565 H   0  0  0  0  0  0  0  0  0  0  0  0
  145.5138  156.5233  132.9820 H   0  0  0  0  0  0  0  0  0  0  0  0
  1  2  1  0
  2  3  1  0
  3  4  2  0
  4  5  1  0
  5  6  2  0
  6  7  1  0
  7  8  2  0
  8  9  1  0
  9 10  1  0
  9 11  2  0
  8 12  1  0
 12 13  1  0
 13 14  2  0
 13 15  1  0
 15 16  1  0
 16 17  1  0
 17 18  1  0
 18 19  2  0
 18 20  1  0
 20 21  1  0
 21 22  1  0
 22 23  2  0
 21 24  1  0
 24 25  2  0
 24 26  1  0
 12 27  1  0
 27 28  2  0
 28  3  1  0
 27  6  1  0
  1 29  1  0
  1 30  1  0
  1 31  1  0
  2 32  1  0
  4 33  1  0
  5 34  1  0
  7 35  1  0
 10 36  1  0
 16 37  1  0
 16 38  1  0
 20 39  1  0
 21 40  1  6
 22 41  1  0
 28 42  1  0
M  CHG  2  10  -1  26  -1
M  END
>  <UniqueID>  (57) 
57

>  <SMILES>  (57) 
CNc1ccc2cc(C([NH-])=O)n(C(=O)OCOC(=O)N[C@H](C=O)C(=O)[O-])c2c1

>  <Energy>  (57) 
73.74794776059248

>  <Genealogy>  (57) 
CNc1ccc2cc(C([NH-])=O)n(C(=O)OCOC(=O)NC(C=O)C(=O)[O-])c2c1 (protonated)
CNc1ccc2cc(C([NH-])=O)n(C(=O)OCOC(=O)N[C@H](C=O)C(=O)[O-])c2c1 (chirality)
CNc1ccc2cc(C([NH-])=O)n(C(=O)OCOC(=O)N[C@H](C=O)C(=O)[O-])c2c1 (3D coordinates assigned)
CNc1ccc2cc(C([NH-])=O)n(C(=O)OCOC(=O)N[C@H](C=O)C(=O)[O-])c2c1 (optimized conformer: 73.74794776059248 kcal/mol)

>  <smiles>  (57) 
CNc1ccc2cc(C(N)=O)n(C(=O)OCOC(=O)NC(C=O)C(=O)O)c2c1

>  <score_type>  (57) 
oracle

>  <origin>  (57) 
adg

>  <m_score__min__energy>  (57) 
-6.71

>  <m_primary>  (57) 
energy

$$$$
57:0
     RDKit          3D

 36 37  0  0  0  0  0  0  0  0999 V2000
  148.8470  157.0680  132.9640 C   0  0  0  0  0  0  0  0  0  0  0  0
  147.7660  158.1010  133.0710 C   0  0  0  0  0  0  0  0  0  0  0  0
  148.1020  159.4690  133.2260 C   0  0  0  0  0  0  0  0  0  0  0  0
  147.0970  160.4400  133.3760 C   0  0  0  0  0  0  0  0  0  0  0  0
  145.7720  160.0140  133.3700 C   0  0  0  0  0  0  0  0  0  0  0  0
  144.6070  160.7310  133.5310 C   0  0  0  0  0  0  0  0  0  0  0  0
  143.5820  159.7890  133.4710 C   0  0  0  0  0  0  0  0  0  0  0  0
  142.1460  160.1270  133.5700 C   0  0  0  0  0  0  0  0  0  0  0  0
  141.2070  159.6320  132.6190 N   0  0  0  0  0  0  0  0  0  0  0  0
  141.7450  160.8850  134.4940 O   0  0  0  0  0  0  0  0  0  0  0  0
  144.0940  158.5410  133.2790 N   0  0  0  0  0  0  0  0  0  0  0  0
  143.3780  157.2990  133.2400 C   0  0  0  0  0  0  0  0  0  0  0  0
  142.6450  157.0500  132.2480 O   0  0  0  0  0  0  0  0  0  0  0  0
  143.4970  156.3380  134.3630 C   0  0  0  0  0  0  0  0  0  0  0  0
  142.8470  156.5770  135.4170 O   0  0  0  0  0  0  0  0  0  0  0  0
  144.3270  155.1530  134.2990 N   0  0  0  0  0  0  0  0  0  0  0  0
  144.9430  154.7160  133.0410 C   0  0  0  0  0  0  0  0  0  0  0  0
  144.7030  154.4680  135.5450 C   0  0  0  0  0  0  0  0  0  0  0  0
  146.1900  154.4730  135.7120 C   0  0  0  0  0  0  0  0  0  0  0  0
  146.8710  155.4480  135.2950 O   0  0  0  0  0  0  0  0  0  0  0  0
  146.8230  153.4180  136.3550 O   0  0  0  0  0  0  0  0  0  0  0  0
  145.4330  158.6940  133.2230 C   0  0  0  0  0  0  0  0  0  0  0  0
  146.4110  157.7030  133.0910 C   0  0  0  0  0  0  0  0  0  0  0  0
  149.1649  156.7642  133.9723 H   0  0  0  0  0  0  0  0  0  0  0  0
  148.4641  156.1916  132.4206 H   0  0  0  0  0  0  0  0  0  0  0  0
  149.7052  157.4902  132.4206 H   0  0  0  0  0  0  0  0  0  0  0  0
  149.1590  159.7736  133.2289 H   0  0  0  0  0  0  0  0  0  0  0  0
  147.3499  161.5040  133.4945 H   0  0  0  0  0  0  0  0  0  0  0  0
  144.5070  161.8168  133.6762 H   0  0  0  0  0  0  0  0  0  0  0  0
  141.4850  158.9190  131.9100 H   0  0  0  0  0  0  0  0  0  0  0  0
  145.8221  154.0923  133.2605 H   0  0  0  0  0  0  0  0  0  0  0  0
  144.2147  154.1315  132.4597 H   0  0  0  0  0  0  0  0  0  0  0  0
  145.2540  155.5966  132.4597 H   0  0  0  0  0  0  0  0  0  0  0  0
  144.2403  154.9862  136.3979 H   0  0  0  0  0  0  0  0  0  0  0  0
  144.3514  153.4266  135.5010 H   0  0  0  0  0  0  0  0  0  0  0  0
  146.1324  156.6423  133.0051 H   0  0  0  0  0  0  0  0  0  0  0  0
  1  2  1  0
  2  3  2  0
  3  4  1  0
  4  5  2  0
  5  6  1  0
  6  7  2  0
  7  8  1  0
  8  9  1  0
  8 10  2  0
  7 11  1  0
 11 12  1  0
 12 13  2  0
 12 14  1  0
 14 15  2  0
 14 16  1  0
 16 17  1  0
 16 18  1  0
 18 19  1  0
 19 20  2  0
 19 21  1  0
 11 22  1  0
 22 23  2  0
 23  2  1  0
 22  5  1  0
  1 24  1  0
  1 25  1  0
  1 26  1  0
  3 27  1  0
  4 28  1  0
  6 29  1  0
  9 30  1  0
 17 31  1  0
 17 32  1  0
 17 33  1  0
 18 34  1  0
 18 35  1  0
 23 36  1  0
M  CHG  2   9  -1  21  -1
M  END
>  <UniqueID>  (58) 
58

>  <SMILES>  (58) 
Cc1ccc2cc(C([NH-])=O)n(C(=O)C(=O)N(C)CC(=O)[O-])c2c1

>  <Energy>  (58) 
75.32279884004222

>  <Genealogy>  (58) 
Cc1ccc2cc(C([NH-])=O)n(C(=O)C(=O)N(C)CC(=O)[O-])c2c1 (protonated)
Cc1ccc2cc(C([NH-])=O)n(C(=O)C(=O)N(C)CC(=O)[O-])c2c1 (3D coordinates assigned)
Cc1ccc2cc(C([NH-])=O)n(C(=O)C(=O)N(C)CC(=O)[O-])c2c1 (optimized conformer: 75.32279884004222 kcal/mol)

>  <smiles>  (58) 
Cc1ccc2cc(C(N)=O)n(C(=O)C(=O)N(C)CC(=O)O)c2c1

>  <score_type>  (58) 
oracle

>  <origin>  (58) 
adg

>  <m_score__min__energy>  (58) 
-6.5

>  <m_primary>  (58) 
energy

$$$$
59:0
     RDKit          3D

 56 59  0  0  0  0  0  0  0  0999 V2000
  147.8870  152.5660  133.4260 N   0  0  0  0  0  0  0  0  0  0  0  0
  148.6410  153.7110  133.0290 C   0  0  0  0  0  0  0  0  0  0  0  0
  149.7990  153.5390  132.5750 O   0  0  0  0  0  0  0  0  0  0  0  0
  148.1050  155.0870  133.1830 C   0  0  0  0  0  0  0  0  0  0  0  0
  148.6540  156.2330  132.6070 C   0  0  0  0  0  0  0  0  0  0  0  0
  147.7620  157.2440  132.8870 C   0  0  0  0  0  0  0  0  0  0  0  0
  147.7890  158.5860  132.5280 C   0  0  0  0  0  0  0  0  0  0  0  0
  146.7070  159.3910  132.9280 C   0  0  0  0  0  0  0  0  0  0  0  0
  145.6400  158.8430  133.6930 C   0  0  0  0  0  0  0  0  0  0  0  0
  144.4510  159.6880  134.0770 C   0  0  0  0  0  0  0  0  0  0  0  0
  143.5780  158.9490  134.8610 F   0  0  0  0  0  0  0  0  0  0  0  0
  143.7910  160.1000  132.9360 F   0  0  0  0  0  0  0  0  0  0  0  0
  144.8430  160.8010  134.7980 F   0  0  0  0  0  0  0  0  0  0  0  0
  145.6450  157.4680  134.0260 C   0  0  0  0  0  0  0  0  0  0  0  0
  146.7360  156.7030  133.6250 C   0  0  0  0  0  0  0  0  0  0  0  0
  146.9420  155.3860  133.8230 N   0  0  0  0  0  0  0  0  0  0  0  0
  146.1250  154.4800  134.5670 C   0  0  0  0  0  0  0  0  0  0  0  0
  146.6360  153.8940  135.5580 O   0  0  0  0  0  0  0  0  0  0  0  0
  144.7020  154.4390  134.3580 N   0  0  0  0  0  0  0  0  0  0  0  0
  143.8510  154.7730  135.5070 C   0  0  0  0  0  0  0  0  0  0  0  0
  142.4320  154.2090  135.3660 C   0  0  0  0  0  0  0  0  0  0  0  0
  141.8050  154.3840  133.9610 C   0  0  0  0  0  0  0  0  0  0  0  0
  141.0830  155.6720  133.7210 N   0  0  0  0  0  0  0  0  0  0  0  0
  141.0240  156.6140  134.8620 C   0  0  0  0  0  0  0  0  0  0  0  0
  140.4140  157.9720  134.4510 C   0  0  0  0  0  0  0  0  0  0  0  0
  139.9610  158.0000  132.9870 C   0  0  0  0  0  0  0  0  0  0  0  0
  141.0920  158.0430  132.1560 O   0  0  0  0  0  0  0  0  0  0  0  0
  139.1140  156.7610  132.6500 C   0  0  0  0  0  0  0  0  0  0  0  0
  139.7090  155.4550  133.2170 C   0  0  0  0  0  0  0  0  0  0  0  0
  142.8000  154.0520  132.8300 C   0  0  0  0  0  0  0  0  0  0  0  0
  144.1800  154.6820  133.0030 C   0  0  0  0  0  0  0  0  0  0  0  0
  148.3400  151.6270  133.4160 H   0  0  0  0  0  0  0  0  0  0  0  0
  146.9140  152.6330  133.8020 H   0  0  0  0  0  0  0  0  0  0  0  0
  149.5982  156.3121  132.0482 H   0  0  0  0  0  0  0  0  0  0  0  0
  148.6271  159.0043  131.9512 H   0  0  0  0  0  0  0  0  0  0  0  0
  146.6857  160.4542  132.6467 H   0  0  0  0  0  0  0  0  0  0  0  0
  144.8117  157.0173  134.5850 H   0  0  0  0  0  0  0  0  0  0  0  0
  144.3075  154.3576  136.4175 H   0  0  0  0  0  0  0  0  0  0  0  0
  143.7730  155.8690  135.5597 H   0  0  0  0  0  0  0  0  0  0  0  0
  142.4660  153.1336  135.5949 H   0  0  0  0  0  0  0  0  0  0  0  0
  141.7996  154.7789  136.0626 H   0  0  0  0  0  0  0  0  0  0  0  0
  141.0032  153.6311  133.9416 H   0  0  0  0  0  0  0  0  0  0  0  0
  140.4062  156.1719  135.6576 H   0  0  0  0  0  0  0  0  0  0  0  0
  142.0512  156.7918  135.2131 H   0  0  0  0  0  0  0  0  0  0  0  0
  139.5436  158.1750  135.0923 H   0  0  0  0  0  0  0  0  0  0  0  0
  141.1958  158.7365  134.5708 H   0  0  0  0  0  0  0  0  0  0  0  0
  139.3407  158.8938  132.8245 H   0  0  0  0  0  0  0  0  0  0  0  0
  141.4230  157.1110  132.0680 H   0  0  0  0  0  0  0  0  0  0  0  0
  138.1069  156.8994  133.0702 H   0  0  0  0  0  0  0  0  0  0  0  0
  139.0906  156.6649  131.5544 H   0  0  0  0  0  0  0  0  0  0  0  0
  139.0750  155.0999  134.0428 H   0  0  0  0  0  0  0  0  0  0  0  0
  139.7460  154.7081  132.4103 H   0  0  0  0  0  0  0  0  0  0  0  0
  142.9226  152.9596  132.7885 H   0  0  0  0  0  0  0  0  0  0  0  0
  142.3765  154.4698  131.9048 H   0  0  0  0  0  0  0  0  0  0  0  0
  144.8706  154.2444  132.2671 H   0  0  0  0  0  0  0  0  0  0  0  0
  144.0926  155.7677  132.8494 H   0  0  0  0  0  0  0  0  0  0  0  0
  1  2  1  0
  2  3  2  0
  2  4  1  0
  4  5  2  0
  5  6  1  0
  6  7  2  0
  7  8  1  0
  8  9  2  0
  9 10  1  0
 10 11  1  0
 10 12  1  0
 10 13  1  0
  9 14  1  0
 14 15  2  0
 15 16  1  0
 16 17  1  0
 17 18  2  0
 17 19  1  0
 19 20  1  0
 20 21  1  0
 21 22  1  0
 22 23  1  0
 23 24  1  0
 24 25  1  0
 25 26  1  0
 26 27  1  0
 26 28  1  0
 28 29  1  0
 22 30  1  0
 30 31  1  0
 16  4  1  0
 31 19  1  0
 15  6  1  0
 29 23  1  0
  1 32  1  0
  1 33  1  0
  5 34  1  0
  7 35  1  0
  8 36  1  0
 14 37  1  0
 20 38  1  0
 20 39  1  0
 21 40  1  0
 21 41  1  0
 22 42  1  0
 24 43  1  0
 24 44  1  0
 25 45  1  0
 25 46  1  0
 26 47  1  0
 27 48  1  0
 28 49  1  0
 28 50  1  0
 29 51  1  0
 29 52  1  0
 30 53  1  0
 30 54  1  0
 31 55  1  0
 31 56  1  0
M  END
>  <UniqueID>  (59) 
59

>  <SMILES>  (59) 
NC(=O)c1cc2ccc(C(F)(F)F)cc2n1C(=O)N1CCC(N2CCC(O)CC2)CC1

>  <Energy>  (59) 
119.73081652340937

>  <Genealogy>  (59) 
NC(=O)c1cc2ccc(C(F)(F)F)cc2n1C(=O)N1CCC(N2CCC(O)CC2)CC1 (3D coordinates assigned)
NC(=O)c1cc2ccc(C(F)(F)F)cc2n1C(=O)N1CCC(N2CCC(O)CC2)CC1 (nonaromatic ring conformer: 119.73081652340937 kcal/mol)

>  <smiles>  (59) 
NC(=O)c1cc2ccc(C(F)(F)F)cc2n1C(=O)N1CCC(N2CCC(O)CC2)CC1

>  <score_type>  (59) 
oracle

>  <origin>  (59) 
adg

>  <m_score__min__energy>  (59) 
-8.3699999999999992

>  <m_primary>  (59) 
energy

$$$$
60:0
     RDKit          3D

 39 41  0  0  0  0  0  0  0  0999 V2000
  140.7770  156.5650  133.0350 N   0  0  0  0  0  0  0  0  0  0  0  0
  141.0850  157.6330  133.9270 C   0  0  0  0  0  0  0  0  0  0  0  0
  140.2160  158.0210  134.7540 O   0  0  0  0  0  0  0  0  0  0  0  0
  142.4270  158.2440  133.9100 C   0  0  0  0  0  0  0  0  0  0  0  0
  142.6580  159.6150  134.0090 C   0  0  0  0  0  0  0  0  0  0  0  0
  144.0160  159.7670  133.8480 C   0  0  0  0  0  0  0  0  0  0  0  0
  144.8010  160.9170  133.8810 C   0  0  0  0  0  0  0  0  0  0  0  0
  146.1910  160.7700  133.7250 C   0  0  0  0  0  0  0  0  0  0  0  0
  146.7650  159.4880  133.5350 C   0  0  0  0  0  0  0  0  0  0  0  0
  148.2560  159.3400  133.4250 C   0  0  0  0  0  0  0  0  0  0  0  0
  148.6960  159.7240  132.0880 N   0  0  0  0  0  0  0  0  0  0  0  0
  149.2460  158.9250  131.1600 C   0  0  0  0  0  0  0  0  0  0  0  0
  149.4290  159.6730  130.0170 C   0  0  0  0  0  0  0  0  0  0  0  0
  148.9830  160.9290  130.2210 N   0  0  0  0  0  0  0  0  0  0  0  0
  148.5370  160.9230  131.4940 C   0  0  0  0  0  0  0  0  0  0  0  0
  145.9400  158.3430  133.5210 C   0  0  0  0  0  0  0  0  0  0  0  0
  144.5590  158.5210  133.6650 C   0  0  0  0  0  0  0  0  0  0  0  0
  143.5950  157.5770  133.7060 N   0  0  0  0  0  0  0  0  0  0  0  0
  143.7930  156.1570  133.6600 C   0  0  0  0  0  0  0  0  0  0  0  0
  143.6390  155.5380  132.5730 O   0  0  0  0  0  0  0  0  0  0  0  0
  144.1960  155.4750  134.8130 O   0  0  0  0  0  0  0  0  0  0  0  0
  145.3680  154.6660  134.8580 C   0  0  0  0  0  0  0  0  0  0  0  0
  146.3920  155.3190  135.5710 O   0  0  0  0  0  0  0  0  0  0  0  0
  147.4860  154.1620  136.1820 P   0  0  0  0  0  0  0  0  0  0  0  0
  148.4830  154.8140  137.1150 O   0  0  0  0  0  0  0  0  0  0  0  0
  146.6140  152.9970  137.0430 O   0  0  0  0  0  0  0  0  0  0  0  0
  148.3050  153.3980  134.9130 O   0  0  0  0  0  0  0  0  0  0  0  0
  141.5360  155.9900  132.6040 H   0  0  0  0  0  0  0  0  0  0  0  0
  141.9135  160.4066  134.1795 H   0  0  0  0  0  0  0  0  0  0  0  0
  144.3480  161.9091  134.0245 H   0  0  0  0  0  0  0  0  0  0  0  0
  146.8390  161.6585  133.7507 H   0  0  0  0  0  0  0  0  0  0  0  0
  148.7427  159.9876  134.1691 H   0  0  0  0  0  0  0  0  0  0  0  0
  148.5302  158.2907  133.6090 H   0  0  0  0  0  0  0  0  0  0  0  0
  149.5043  157.8635  131.2888 H   0  0  0  0  0  0  0  0  0  0  0  0
  149.8715  159.3019  129.0808 H   0  0  0  0  0  0  0  0  0  0  0  0
  148.0935  161.7983  131.9912 H   0  0  0  0  0  0  0  0  0  0  0  0
  146.3705  157.3380  133.4002 H   0  0  0  0  0  0  0  0  0  0  0  0
  145.1314  153.7137  135.3552 H   0  0  0  0  0  0  0  0  0  0  0  0
  145.7125  154.4821  133.8297 H   0  0  0  0  0  0  0  0  0  0  0  0
  1  2  1  0
  2  3  2  0
  2  4  1  0
  4  5  2  0
  5  6  1  0
  6  7  2  0
  7  8  1  0
  8  9  2  0
  9 10  1  0
 10 11  1  0
 11 12  1  0
 12 13  2  0
 13 14  1  0
 14 15  2  0
  9 16  1  0
 16 17  2  0
 17 18  1  0
 18 19  1  0
 19 20  2  0
 19 21  1  0
 21 22  1  0
 22 23  1  0
 23 24  1  0
 24 25  2  0
 24 26  1  0
 24 27  1  0
 18  4  1  0
 17  6  1  0
 15 11  1  0
  1 28  1  0
  5 29  1  0
  7 30  1  0
  8 31  1  0
 10 32  1  0
 10 33  1  0
 12 34  1  0
 13 35  1  0
 15 36  1  0
 16 37  1  0
 22 38  1  0
 22 39  1  0
M  CHG  3   1  -1  26  -1  27  -1
M  END
>  <UniqueID>  (60) 
60

>  <SMILES>  (60) 
[NH-]C(=O)c1cc2ccc(Cn3ccnc3)cc2n1C(=O)OCOP(=O)([O-])[O-]

>  <Energy>  (60) 
105.84962478488667

>  <Genealogy>  (60) 
[NH-]C(=O)c1cc2ccc(Cn3ccnc3)cc2n1C(=O)OCOP(=O)([O-])[O-] (protonated)
[NH-]C(=O)c1cc2ccc(Cn3ccnc3)cc2n1C(=O)OCOP(=O)([O-])[O-] (3D coordinates assigned)
[NH-]C(=O)c1cc2ccc(Cn3ccnc3)cc2n1C(=O)OCOP(=O)([O-])[O-] (optimized conformer: 105.84962478488667 kcal/mol)

>  <smiles>  (60) 
NC(=O)c1cc2ccc(Cn3ccnc3)cc2n1C(=O)OCOP(=O)(O)O

>  <score_type>  (60) 
oracle

>  <origin>  (60) 
adg

>  <m_score__min__energy>  (60) 
-7.6399999999999997

>  <m_primary>  (60) 
energy

$$$$
61:0
     RDKit          3D

 41 43  0  0  0  0  0  0  0  0999 V2000
  142.4260  157.8190  135.6060 N   0  0  0  0  0  0  0  0  0  0  0  0
  142.7050  157.3500  134.2900 C   0  0  0  0  0  0  0  0  0  0  0  0
  143.1150  158.1620  133.4190 O   0  0  0  0  0  0  0  0  0  0  0  0
  142.5080  155.9250  133.9570 C   0  0  0  0  0  0  0  0  0  0  0  0
  143.4990  154.9500  134.0690 C   0  0  0  0  0  0  0  0  0  0  0  0
  142.9000  153.7750  133.6660 C   0  0  0  0  0  0  0  0  0  0  0  0
  143.4190  152.4850  133.5710 C   0  0  0  0  0  0  0  0  0  0  0  0
  142.5650  151.4640  133.1150 C   0  0  0  0  0  0  0  0  0  0  0  0
  141.2240  151.7540  132.7670 C   0  0  0  0  0  0  0  0  0  0  0  0
  140.3620  150.7020  132.2990 C   0  0  0  0  0  0  0  0  0  0  0  0
  139.6350  149.8230  131.9070 C   0  0  0  0  0  0  0  0  0  0  0  0
  138.7530  148.7520  131.4280 C   0  0  0  0  0  0  0  0  0  0  0  0
  139.4060  147.8100  130.4300 C   0  0  0  0  0  0  0  0  0  0  0  0
  138.4030  148.8480  129.9530 C   0  0  0  0  0  0  0  0  0  0  0  0
  140.7300  153.0690  132.8730 C   0  0  0  0  0  0  0  0  0  0  0  0
  141.6020  154.0610  133.3320 C   0  0  0  0  0  0  0  0  0  0  0  0
  141.3490  155.3720  133.5060 N   0  0  0  0  0  0  0  0  0  0  0  0
  140.1080  156.0320  133.2410 C   0  0  0  0  0  0  0  0  0  0  0  0
  139.0320  155.3860  133.3470 O   0  0  0  0  0  0  0  0  0  0  0  0
  140.1190  157.4550  132.7430 C   0  0  0  0  0  0  0  0  0  0  0  0
  139.6560  158.5100  133.7680 C   0  0  2  0  0  0  0  0  0  0  0  0
  140.7090  159.3950  134.0590 O   0  0  0  0  0  0  0  0  0  0  0  0
  139.1160  157.8700  135.0610 C   0  0  0  0  0  0  0  0  0  0  0  0
  139.9060  158.2400  136.1590 O   0  0  0  0  0  0  0  0  0  0  0  0
  141.9570  158.7390  135.7610 H   0  0  0  0  0  0  0  0  0  0  0  0
  144.5367  155.0886  134.4066 H   0  0  0  0  0  0  0  0  0  0  0  0
  144.4631  152.2719  133.8438 H   0  0  0  0  0  0  0  0  0  0  0  0
  142.9418  150.4342  133.0284 H   0  0  0  0  0  0  0  0  0  0  0  0
  138.1805  148.6282  132.3591 H   0  0  0  0  0  0  0  0  0  0  0  0
  140.4724  147.9219  130.1844 H   0  0  0  0  0  0  0  0  0  0  0  0
  139.4993  146.7179  130.3370 H   0  0  0  0  0  0  0  0  0  0  0  0
  138.7436  149.7110  129.3620 H   0  0  0  0  0  0  0  0  0  0  0  0
  137.4697  148.8181  129.3716 H   0  0  0  0  0  0  0  0  0  0  0  0
  139.6907  153.3080  132.6031 H   0  0  0  0  0  0  0  0  0  0  0  0
  141.1472  157.7022  132.4402 H   0  0  0  0  0  0  0  0  0  0  0  0
  139.3968  157.4953  131.9142 H   0  0  0  0  0  0  0  0  0  0  0  0
  138.8248  159.0693  133.3139 H   0  0  0  0  0  0  0  0  0  0  0  0
  141.3620  158.8960  134.6150 H   0  0  0  0  0  0  0  0  0  0  0  0
  138.0827  158.2081  135.2281 H   0  0  0  0  0  0  0  0  0  0  0  0
  139.1443  156.7755  134.9550 H   0  0  0  0  0  0  0  0  0  0  0  0
  140.8510  158.1830  135.8610 H   0  0  0  0  0  0  0  0  0  0  0  0
  1  2  1  0
  2  3  2  0
  2  4  1  0
  4  5  2  0
  5  6  1  0
  6  7  2  0
  7  8  1  0
  8  9  2  0
  9 10  1  0
 10 11  3  0
 11 12  1  0
 12 13  1  0
 13 14  1  0
  9 15  1  0
 15 16  2  0
 16 17  1  0
 17 18  1  0
 18 19  2  0
 18 20  1  0
 20 21  1  0
 21 22  1  0
 21 23  1  0
 23 24  1  0
 17  4  1  0
 16  6  1  0
 14 12  1  0
  1 25  1  0
  5 26  1  0
  7 27  1  0
  8 28  1  0
 12 29  1  0
 13 30  1  0
 13 31  1  0
 14 32  1  0
 14 33  1  0
 15 34  1  0
 20 35  1  0
 20 36  1  0
 21 37  1  6
 22 38  1  0
 23 39  1  0
 23 40  1  0
 24 41  1  0
M  CHG  1   1  -1
M  END
>  <UniqueID>  (61) 
61

>  <SMILES>  (61) 
[NH-]C(=O)c1cc2ccc(C#CC3CC3)cc2n1C(=O)C[C@H](O)CO

>  <Energy>  (61) 
341.0294370905303

>  <Genealogy>  (61) 
[NH-]C(=O)c1cc2ccc(C#CC3CC3)cc2n1C(=O)CC(O)CO (protonated)
[NH-]C(=O)c1cc2ccc(C#CC3CC3)cc2n1C(=O)C[C@H](O)CO (chirality)
[NH-]C(=O)c1cc2ccc(C#CC3CC3)cc2n1C(=O)C[C@H](O)CO (3D coordinates assigned)
[NH-]C(=O)c1cc2ccc(C#CC3CC3)cc2n1C(=O)C[C@H](O)CO (nonaromatic ring conformer: 341.0294370905303 kcal/mol)

>  <smiles>  (61) 
NC(=O)c1cc2ccc(C#CC3CC3)cc2n1C(=O)CC(O)CO

>  <score_type>  (61) 
oracle

>  <origin>  (61) 
adg

>  <m_score__min__energy>  (61) 
-7.1500000000000004

>  <m_primary>  (61) 
energy

$$$$
62:0
     RDKit          3D

 48 51  0  0  0  0  0  0  0  0999 V2000
  138.8060  156.4870  133.3480 N   0  0  0  0  0  0  0  0  0  0  0  0
  139.6020  157.1760  134.3090 C   0  0  0  0  0  0  0  0  0  0  0  0
  139.0410  157.7650  135.2680 O   0  0  0  0  0  0  0  0  0  0  0  0
  141.0740  157.1630  134.1910 C   0  0  0  0  0  0  0  0  0  0  0  0
  141.8790  156.1350  134.6760 C   0  0  0  0  0  0  0  0  0  0  0  0
  143.1730  156.5450  134.4460 C   0  0  0  0  0  0  0  0  0  0  0  0
  144.3790  155.9110  134.7220 C   0  0  0  0  0  0  0  0  0  0  0  0
  145.5670  156.5650  134.3550 C   0  0  0  0  0  0  0  0  0  0  0  0
  145.5320  157.8320  133.7170 C   0  0  0  0  0  0  0  0  0  0  0  0
  146.7580  158.4900  133.3450 N   0  0  0  0  0  0  0  0  0  0  0  0
  146.8110  159.9590  133.2830 C   0  0  0  0  0  0  0  0  0  0  0  0
  147.8080  160.4630  132.2130 C   0  0  0  0  0  0  0  0  0  0  0  0
  148.7920  159.4410  131.8010 N   0  0  0  0  0  0  0  0  0  0  0  0
  149.8860  160.0620  131.0050 C   0  0  0  0  0  0  0  0  0  0  0  0
  149.5950  161.4820  130.5720 C   0  0  0  0  0  0  0  0  0  0  0  0
  149.5990  161.1360  129.2040 O   0  0  0  0  0  0  0  0  0  0  0  0
  149.9020  159.7940  129.5110 C   0  0  0  0  0  0  0  0  0  0  0  0
  149.1910  158.5910  132.9430 C   0  0  0  0  0  0  0  0  0  0  0  0
  148.0030  157.7060  133.3060 C   0  0  0  0  0  0  0  0  0  0  0  0
  144.2850  158.4420  133.4510 C   0  0  0  0  0  0  0  0  0  0  0  0
  143.1210  157.7730  133.8400 C   0  0  0  0  0  0  0  0  0  0  0  0
  141.8390  158.1640  133.6730 N   0  0  0  0  0  0  0  0  0  0  0  0
  141.4050  159.3550  132.9980 C   0  0  0  0  0  0  0  0  0  0  0  0
  141.8400  160.4770  133.3810 O   0  0  0  0  0  0  0  0  0  0  0  0
  140.5960  159.2560  131.7360 C   0  0  0  0  0  0  0  0  0  0  0  0
  139.2380  159.8670  131.9000 C   0  0  0  0  0  0  0  0  0  0  0  0
  138.2290  159.1330  132.0830 O   0  0  0  0  0  0  0  0  0  0  0  0
  139.0830  161.2460  131.8440 O   0  0  0  0  0  0  0  0  0  0  0  0
  138.3610  156.9980  132.5540 H   0  0  0  0  0  0  0  0  0  0  0  0
  141.5506  155.1950  135.1436 H   0  0  0  0  0  0  0  0  0  0  0  0
  144.4024  154.9269  135.2130 H   0  0  0  0  0  0  0  0  0  0  0  0
  146.5362  156.0890  134.5648 H   0  0  0  0  0  0  0  0  0  0  0  0
  145.8080  160.3397  133.0400 H   0  0  0  0  0  0  0  0  0  0  0  0
  147.1522  160.3263  134.2621 H   0  0  0  0  0  0  0  0  0  0  0  0
  147.2384  160.7765  131.3257 H   0  0  0  0  0  0  0  0  0  0  0  0
  148.3716  161.2951  132.6603 H   0  0  0  0  0  0  0  0  0  0  0  0
  150.7092  159.7523  131.6657 H   0  0  0  0  0  0  0  0  0  0  0  0
  148.6239  161.8581  130.9263 H   0  0  0  0  0  0  0  0  0  0  0  0
  150.2553  162.2905  130.9188 H   0  0  0  0  0  0  0  0  0  0  0  0
  149.1286  159.0834  129.1841 H   0  0  0  0  0  0  0  0  0  0  0  0
  150.7926  159.3312  129.0609 H   0  0  0  0  0  0  0  0  0  0  0  0
  150.0507  157.9654  132.6609 H   0  0  0  0  0  0  0  0  0  0  0  0
  149.4811  159.2143  133.8017 H   0  0  0  0  0  0  0  0  0  0  0  0
  147.9039  156.9095  132.5538 H   0  0  0  0  0  0  0  0  0  0  0  0
  148.1778  157.2734  134.3021 H   0  0  0  0  0  0  0  0  0  0  0  0
  144.2318  159.4198  132.9499 H   0  0  0  0  0  0  0  0  0  0  0  0
  141.1282  159.7810  130.9291 H   0  0  0  0  0  0  0  0  0  0  0  0
  140.4662  158.1908  131.4941 H   0  0  0  0  0  0  0  0  0  0  0  0
  1  2  1  0
  2  3  2  0
  2  4  1  0
  4  5  2  0
  5  6  1  0
  6  7  2  0
  7  8  1  0
  8  9  2  0
  9 10  1  0
 10 11  1  0
 11 12  1  0
 12 13  1  0
 13 14  1  0
 14 15  1  0
 15 16  1  0
 16 17  1  0
 13 18  1  0
 18 19  1  0
  9 20  1  0
 20 21  2  0
 21 22  1  0
 22 23  1  0
 23 24  2  0
 23 25  1  0
 25 26  1  0
 26 27  2  0
 26 28  1  0
 22  4  1  0
 21  6  1  0
 19 10  1  0
 17 14  1  0
  1 29  1  0
  5 30  1  0
  7 31  1  0
  8 32  1  0
 11 33  1  0
 11 34  1  0
 12 35  1  0
 12 36  1  0
 14 37  1  0
 15 38  1  0
 15 39  1  0
 17 40  1  0
 17 41  1  0
 18 42  1  0
 18 43  1  0
 19 44  1  0
 19 45  1  0
 20 46  1  0
 25 47  1  0
 25 48  1  0
M  CHG  2   1  -1  28  -1
M  END
>  <UniqueID>  (62) 
62

>  <SMILES>  (62) 
[NH-]C(=O)c1cc2ccc(N3CCN(C4COC4)CC3)cc2n1C(=O)CC(=O)[O-]

>  <Energy>  (62) 
169.85353435625802

>  <Genealogy>  (62) 
[NH-]C(=O)c1cc2ccc(N3CCN(C4COC4)CC3)cc2n1C(=O)CC(=O)[O-] (protonated)
[NH-]C(=O)c1cc2ccc(N3CCN(C4COC4)CC3)cc2n1C(=O)CC(=O)[O-] (3D coordinates assigned)
[NH-]C(=O)c1cc2ccc(N3CCN(C4COC4)CC3)cc2n1C(=O)CC(=O)[O-] (nonaromatic ring conformer: 169.85353435625802 kcal/mol)

>  <smiles>  (62) 
NC(=O)c1cc2ccc(N3CCN(C4COC4)CC3)cc2n1C(=O)CC(=O)O

>  <score_type>  (62) 
oracle

>  <origin>  (62) 
adg

>  <m_score__min__energy>  (62) 
-8.3399999999999999

>  <m_primary>  (62) 
energy

$$$$
63:0
     RDKit          3D

 44 46  0  0  0  0  0  0  0  0999 V2000
  141.2640  152.8430  132.7280 C   0  0  0  0  0  0  0  0  0  0  0  0
  141.6410  153.6410  133.9400 C   0  0  0  0  0  0  0  0  0  0  0  0
  142.5640  153.1140  134.8780 C   0  0  0  0  0  0  0  0  0  0  0  0
  142.8940  153.8350  136.0390 C   0  0  0  0  0  0  0  0  0  0  0  0
  142.2810  155.0680  136.2380 C   0  0  0  0  0  0  0  0  0  0  0  0
  142.4040  155.9660  137.2760 C   0  0  0  0  0  0  0  0  0  0  0  0
  141.5500  157.0210  136.9540 C   0  0  0  0  0  0  0  0  0  0  0  0
  141.3910  158.2350  137.7850 C   0  0  0  0  0  0  0  0  0  0  0  0
  140.8540  159.4350  137.2360 N   0  0  0  0  0  0  0  0  0  0  0  0
  141.7500  158.2160  138.9920 O   0  0  0  0  0  0  0  0  0  0  0  0
  140.9290  156.7830  135.7660 N   0  0  0  0  0  0  0  0  0  0  0  0
  139.9540  157.6040  135.1110 C   0  0  0  0  0  0  0  0  0  0  0  0
  138.9660  158.0240  135.7740 O   0  0  0  0  0  0  0  0  0  0  0  0
  140.0550  157.9060  133.6280 C   0  0  0  0  0  0  0  0  0  0  0  0
  138.7710  157.4790  132.8930 C   0  0  0  0  0  0  0  0  0  0  0  0
  138.8190  157.8620  131.4030 C   0  0  0  0  0  0  0  0  0  0  0  0
  139.1210  159.2950  131.1820 N   0  0  0  0  0  0  0  0  0  0  0  0
  137.9850  160.1920  131.4890 C   0  0  0  0  0  0  0  0  0  0  0  0
  136.9430  160.0970  130.4190 C   0  0  0  0  0  0  0  0  0  0  0  0
  137.1940  160.4920  129.2500 O   0  0  0  0  0  0  0  0  0  0  0  0
  135.6860  159.5870  130.7180 O   0  0  0  0  0  0  0  0  0  0  0  0
  140.3650  159.6980  131.8680 C   0  0  0  0  0  0  0  0  0  0  0  0
  140.3260  159.3990  133.3730 C   0  0  0  0  0  0  0  0  0  0  0  0
  141.3830  155.5850  135.3420 C   0  0  0  0  0  0  0  0  0  0  0  0
  141.0270  154.8880  134.1840 C   0  0  0  0  0  0  0  0  0  0  0  0
  140.8137  151.8898  133.0421 H   0  0  0  0  0  0  0  0  0  0  0  0
  140.5388  153.4105  132.1263 H   0  0  0  0  0  0  0  0  0  0  0  0
  142.1629  152.6432  132.1263 H   0  0  0  0  0  0  0  0  0  0  0  0
  143.0260  152.1325  134.6959 H   0  0  0  0  0  0  0  0  0  0  0  0
  143.6150  153.4364  136.7679 H   0  0  0  0  0  0  0  0  0  0  0  0
  143.0401  155.8711  138.1684 H   0  0  0  0  0  0  0  0  0  0  0  0
  139.8300  159.5330  137.0560 H   0  0  0  0  0  0  0  0  0  0  0  0
  140.9040  157.3270  133.2357 H   0  0  0  0  0  0  0  0  0  0  0  0
  138.6566  156.3883  132.9780 H   0  0  0  0  0  0  0  0  0  0  0  0
  137.9196  157.9997  133.3556 H   0  0  0  0  0  0  0  0  0  0  0  0
  139.5976  157.2601  130.9115 H   0  0  0  0  0  0  0  0  0  0  0  0
  137.8217  157.6677  130.9816 H   0  0  0  0  0  0  0  0  0  0  0  0
  137.5427  159.9002  132.4529 H   0  0  0  0  0  0  0  0  0  0  0  0
  138.3513  161.2279  131.5401 H   0  0  0  0  0  0  0  0  0  0  0  0
  141.2082  159.1511  131.4208 H   0  0  0  0  0  0  0  0  0  0  0  0
  140.4792  160.7851  131.7447 H   0  0  0  0  0  0  0  0  0  0  0  0
  141.2937  159.6710  133.8197 H   0  0  0  0  0  0  0  0  0  0  0  0
  139.5149  159.9867  133.8277 H   0  0  0  0  0  0  0  0  0  0  0  0
  140.2878  155.3005  133.4815 H   0  0  0  0  0  0  0  0  0  0  0  0
  1  2  1  0
  2  3  2  0
  3  4  1  0
  4  5  2  0
  5  6  1  0
  6  7  2  0
  7  8  1  0
  8  9  1  0
  8 10  2  0
  7 11  1  0
 11 12  1  0
 12 13  2  0
 12 14  1  0
 14 15  1  0
 15 16  1  0
 16 17  1  0
 17 18  1  0
 18 19  1  0
 19 20  2  0
 19 21  1  0
 17 22  1  0
 22 23  1  0
 11 24  1  0
 24 25  2  0
 25  2  1  0
 24  5  1  0
 23 14  1  0
  1 26  1  0
  1 27  1  0
  1 28  1  0
  3 29  1  0
  4 30  1  0
  6 31  1  0
  9 32  1  0
 14 33  1  0
 15 34  1  0
 15 35  1  0
 16 36  1  0
 16 37  1  0
 18 38  1  0
 18 39  1  0
 22 40  1  0
 22 41  1  0
 23 42  1  0
 23 43  1  0
 25 44  1  0
M  CHG  2   9  -1  21  -1
M  END
>  <UniqueID>  (63) 
63

>  <SMILES>  (63) 
Cc1ccc2cc(C([NH-])=O)n(C(=O)C3CCN(CC(=O)[O-])CC3)c2c1

>  <Energy>  (63) 
85.05339010436755

>  <Genealogy>  (63) 
Cc1ccc2cc(C([NH-])=O)n(C(=O)C3CCN(CC(=O)[O-])CC3)c2c1 (protonated)
Cc1ccc2cc(C([NH-])=O)n(C(=O)C3CCN(CC(=O)[O-])CC3)c2c1 (3D coordinates assigned)
Cc1ccc2cc(C([NH-])=O)n(C(=O)C3CCN(CC(=O)[O-])CC3)c2c1 (nonaromatic ring conformer: 85.05339010436755 kcal/mol)

>  <smiles>  (63) 
Cc1ccc2cc(C(N)=O)n(C(=O)C3CCN(CC(=O)O)CC3)c2c1

>  <score_type>  (63) 
oracle

>  <origin>  (63) 
adg

>  <m_score__min__energy>  (63) 
-7.5300000000000002

>  <m_primary>  (63) 
energy

$$$$
64:0
     RDKit          3D

 35 36  0  0  0  0  0  0  0  0999 V2000
  149.8040  160.1200  131.2800 C   0  0  0  0  0  0  0  0  0  0  0  0
  149.5880  159.2590  132.4370 N   0  0  0  0  0  0  0  0  0  0  0  0
  148.2910  158.7850  132.8450 C   0  0  0  0  0  0  0  0  0  0  0  0
  147.1050  159.5010  132.5300 C   0  0  0  0  0  0  0  0  0  0  0  0
  145.8480  159.0150  132.9260 C   0  0  0  0  0  0  0  0  0  0  0  0
  145.8040  157.8230  133.6400 C   0  0  0  0  0  0  0  0  0  0  0  0
  144.7220  157.1190  134.1160 C   0  0  0  0  0  0  0  0  0  0  0  0
  145.2600  155.9990  134.7420 C   0  0  0  0  0  0  0  0  0  0  0  0
  144.4420  155.0000  135.4580 C   0  0  0  0  0  0  0  0  0  0  0  0
  144.9350  154.3390  136.6250 N   0  0  0  0  0  0  0  0  0  0  0  0
  143.2680  154.7650  135.0650 O   0  0  0  0  0  0  0  0  0  0  0  0
  146.6210  155.9960  134.6450 N   0  0  0  0  0  0  0  0  0  0  0  0
  147.5240  154.9590  135.0650 C   0  0  0  0  0  0  0  0  0  0  0  0
  147.8720  154.0610  134.2500 O   0  0  0  0  0  0  0  0  0  0  0  0
  148.0120  154.9410  136.3760 O   0  0  0  0  0  0  0  0  0  0  0  0
  148.2040  153.7330  137.1060 C   0  0  0  0  0  0  0  0  0  0  0  0
  146.9980  153.0060  137.1500 O   0  0  0  0  0  0  0  0  0  0  0  0
  146.5340  152.7770  138.7780 P   0  0  0  0  0  0  0  0  0  0  0  0
  145.0370  152.6020  138.8850 O   0  0  0  0  0  0  0  0  0  0  0  0
  147.0140  154.1090  139.7030 O   0  0  0  0  0  0  0  0  0  0  0  0
  147.2950  151.3900  139.3740 O   0  0  0  0  0  0  0  0  0  0  0  0
  146.9380  157.1260  133.9700 C   0  0  0  0  0  0  0  0  0  0  0  0
  148.2010  157.5770  133.5710 C   0  0  0  0  0  0  0  0  0  0  0  0
  150.0585  161.1346  131.6204 H   0  0  0  0  0  0  0  0  0  0  0  0
  150.6293  159.7189  130.6734 H   0  0  0  0  0  0  0  0  0  0  0  0
  148.8871  160.1560  130.6734 H   0  0  0  0  0  0  0  0  0  0  0  0
  150.4270  158.9780  132.9940 H   0  0  0  0  0  0  0  0  0  0  0  0
  147.1718  160.4456  131.9703 H   0  0  0  0  0  0  0  0  0  0  0  0
  144.9259  159.5613  132.6785 H   0  0  0  0  0  0  0  0  0  0  0  0
  143.6588  157.3848  134.0218 H   0  0  0  0  0  0  0  0  0  0  0  0
  145.8320  154.6310  137.0710 H   0  0  0  0  0  0  0  0  0  0  0  0
  144.3570  153.6090  137.0970 H   0  0  0  0  0  0  0  0  0  0  0  0
  148.9781  153.1270  136.6125 H   0  0  0  0  0  0  0  0  0  0  0  0
  148.5206  153.9744  138.1314 H   0  0  0  0  0  0  0  0  0  0  0  0
  149.1058  157.0021  133.8179 H   0  0  0  0  0  0  0  0  0  0  0  0
  1  2  1  0
  2  3  1  0
  3  4  2  0
  4  5  1  0
  5  6  2  0
  6  7  1  0
  7  8  2  0
  8  9  1  0
  9 10  1  0
  9 11  2  0
  8 12  1  0
 12 13  1  0
 13 14  2  0
 13 15  1  0
 15 16  1  0
 16 17  1  0
 17 18  1  0
 18 19  2  0
 18 20  1  0
 18 21  1  0
 12 22  1  0
 22 23  2  0
 23  3  1  0
 22  6  1  0
  1 24  1  0
  1 25  1  0
  1 26  1  0
  2 27  1  0
  4 28  1  0
  5 29  1  0
  7 30  1  0
 10 31  1  0
 10 32  1  0
 16 33  1  0
 16 34  1  0
 23 35  1  0
M  CHG  2  20  -1  21  -1
M  END
>  <UniqueID>  (64) 
64

>  <SMILES>  (64) 
CNc1ccc2cc(C(N)=O)n(C(=O)OCOP(=O)([O-])[O-])c2c1

>  <Energy>  (64) 
71.40333128684948

>  <Genealogy>  (64) 
CNc1ccc2cc(C(N)=O)n(C(=O)OCOP(=O)([O-])[O-])c2c1 (protonated)
CNc1ccc2cc(C(N)=O)n(C(=O)OCOP(=O)([O-])[O-])c2c1 (3D coordinates assigned)
CNc1ccc2cc(C(N)=O)n(C(=O)OCOP(=O)([O-])[O-])c2c1 (optimized conformer: 71.40333128684948 kcal/mol)

>  <smiles>  (64) 
CNc1ccc2cc(C(N)=O)n(C(=O)OCOP(=O)(O)O)c2c1

>  <score_type>  (64) 
oracle

>  <origin>  (64) 
adg

>  <m_score__min__energy>  (64) 
-7.0999999999999996

>  <m_primary>  (64) 
energy

$$$$
65:0
     RDKit          3D

 42 43  0  0  0  0  0  0  0  0999 V2000
  142.2000  160.0670  133.8010 H   0  0  0  0  0  0  0  0  0  0  0  0
  142.5790  161.0370  133.7270 N   0  0  0  0  0  0  0  0  0  0  0  0
  143.9840  161.2780  133.7320 C   0  0  0  0  0  0  0  0  0  0  0  0
  144.4060  162.4650  133.7630 O   0  0  0  0  0  0  0  0  0  0  0  0
  144.9480  160.1620  133.6370 C   0  0  0  0  0  0  0  0  0  0  0  0
  146.3240  160.3490  133.5520 C   0  0  0  0  0  0  0  0  0  0  0  0
  146.8729  161.3001  133.6161 H   0  0  0  0  0  0  0  0  0  0  0  0
  146.8520  159.0930  133.3710 C   0  0  0  0  0  0  0  0  0  0  0  0
  148.1750  158.6970  133.2190 C   0  0  0  0  0  0  0  0  0  0  0  0
  148.9912  159.4344  133.2247 H   0  0  0  0  0  0  0  0  0  0  0  0
  148.4390  157.3280  133.0580 C   0  0  0  0  0  0  0  0  0  0  0  0
  149.4777  156.9897  132.9287 H   0  0  0  0  0  0  0  0  0  0  0  0
  147.3870  156.3700  133.0590 C   0  0  0  0  0  0  0  0  0  0  0  0
  147.6740  154.9580  132.8950 N   0  0  0  0  0  0  0  0  0  0  0  0
  149.0350  154.5040  132.5830 C   0  0  0  0  0  0  0  0  0  0  0  0
  149.5839  154.3209  133.5185 H   0  0  0  0  0  0  0  0  0  0  0  0
  148.9862  153.5735  131.9984 H   0  0  0  0  0  0  0  0  0  0  0  0
  149.5546  155.2775  131.9984 H   0  0  0  0  0  0  0  0  0  0  0  0
  146.6080  153.9590  133.0380 C   0  0  0  0  0  0  0  0  0  0  0  0
  146.4154  153.7785  134.1059 H   0  0  0  0  0  0  0  0  0  0  0  0
  145.6907  154.3303  132.5576 H   0  0  0  0  0  0  0  0  0  0  0  0
  146.9190  153.0196  132.5576 H   0  0  0  0  0  0  0  0  0  0  0  0
  146.0510  156.8240  133.2230 C   0  0  0  0  0  0  0  0  0  0  0  0
  145.2155  156.1088  133.2429 H   0  0  0  0  0  0  0  0  0  0  0  0
  145.8160  158.1980  133.3590 C   0  0  0  0  0  0  0  0  0  0  0  0
  144.6360  158.8380  133.5270 N   0  0  0  0  0  0  0  0  0  0  0  0
  143.3380  158.2320  133.6370 C   0  0  0  0  0  0  0  0  0  0  0  0
  142.7320  157.8530  132.5980 O   0  0  0  0  0  0  0  0  0  0  0  0
  142.7220  158.1200  134.8910 O   0  0  0  0  0  0  0  0  0  0  0  0
  141.3660  158.3820  135.1460 C   0  0  0  0  0  0  0  0  0  0  0  0
  140.9900  159.3750  135.9590 C   0  0  0  0  0  0  0  0  0  0  0  0
  141.7480  159.9549  136.5060 H   0  0  0  0  0  0  0  0  0  0  0  0
  139.9227  159.6119  136.0807 H   0  0  0  0  0  0  0  0  0  0  0  0
  140.3320  157.6160  134.4210 C   0  0  0  0  0  0  0  0  0  0  0  0
  140.1016  156.6025  134.7813 H   0  0  0  0  0  0  0  0  0  0  0  0
  139.6540  158.0660  133.3560 C   0  0  0  0  0  0  0  0  0  0  0  0
  138.8214  157.4529  132.9806 H   0  0  0  0  0  0  0  0  0  0  0  0
  139.9510  159.3310  132.6530 C   0  0  0  0  0  0  0  0  0  0  0  0
  140.8167  159.9345  132.9633 H   0  0  0  0  0  0  0  0  0  0  0  0
  139.1850  159.7490  131.6500 C   0  0  0  0  0  0  0  0  0  0  0  0
  139.4186  160.6931  131.1360 H   0  0  0  0  0  0  0  0  0  0  0  0
  138.3176  159.1508  131.3341 H   0  0  0  0  0  0  0  0  0  0  0  0
  1  2  1  0
  2  3  1  0
  3  4  2  0
  3  5  1  0
  5  6  2  0
  6  7  1  0
  6  8  1  0
  8  9  2  0
  9 10  1  0
  9 11  1  0
 11 12  1  0
 11 13  2  0
 13 14  1  0
 14 15  1  0
 15 16  1  0
 15 17  1  0
 15 18  1  0
 14 19  1  0
 19 20  1  0
 19 21  1  0
 19 22  1  0
 13 23  1  0
 23 24  1  0
 23 25  2  0
 25 26  1  0
 26 27  1  0
 27 28  2  0
 27 29  1  0
 29 30  1  0
 30 31  2  0
 31 32  1  0
 31 33  1  0
 30 34  1  0
 34 35  1  0
 34 36  2  0
 36 37  1  0
 36 38  1  0
 38 39  1  0
 38 40  2  0
 40 41  1  0
 40 42  1  0
 26  5  1  0
 25  8  1  0
M  CHG  1   2  -1
M  END
>  <UniqueID>  (65) 
65

>  <SMILES>  (65) 
C=C/C=C\C(=C)OC(=O)n1c(C([NH-])=O)cc2ccc(N(C)C)cc21

>  <Energy>  (65) 
86.06969470078594

>  <Genealogy>  (65) 
C=C/C=C\C(=C)OC(=O)n1c(C([NH-])=O)cc2ccc(N(C)C)cc21 (protonated)
C=C/C=C\C(=C)OC(=O)n1c(C([NH-])=O)cc2ccc(N(C)C)cc21 (cis-trans isomerization)
C=C/C=C\C(=C)OC(=O)n1c(C([NH-])=O)cc2ccc(N(C)C)cc21 (3D coordinates assigned)
C=C/C=C\C(=C)OC(=O)n1c(C([NH-])=O)cc2ccc(N(C)C)cc21 (optimized conformer: 86.06969470078594 kcal/mol)

>  <smiles>  (65) 
C=C/C=C\C(=C)OC(=O)n1c(C(N)=O)cc2ccc(N(C)C)cc21

>  <score_type>  (65) 
oracle

>  <origin>  (65) 
adg

>  <m_score__min__energy>  (65) 
-7.2999999999999998

>  <m_primary>  (65) 
energy

$$$$
66:0
     RDKit          3D

 46 47  0  0  0  0  0  0  0  0999 V2000
  141.1290  151.3000  132.8950 C   0  0  0  0  0  0  0  0  0  0  0  0
  141.8050  152.4750  133.6360 C   0  0  0  0  0  0  0  0  0  0  0  0
  143.2770  152.5650  133.1880 C   0  0  0  0  0  0  0  0  0  0  0  0
  141.7100  152.2350  135.1300 C   0  0  0  0  0  0  0  0  0  0  0  0
  142.3280  152.9870  135.9300 O   0  0  0  0  0  0  0  0  0  0  0  0
  140.9820  151.1640  135.6390 O   0  0  0  0  0  0  0  0  0  0  0  0
  141.1270  153.7900  133.3100 C   0  0  0  0  0  0  0  0  0  0  0  0
  139.9080  153.8230  132.9770 O   0  0  0  0  0  0  0  0  0  0  0  0
  141.8830  154.9660  133.3190 O   0  0  0  0  0  0  0  0  0  0  0  0
  142.1970  155.6740  134.5140 C   0  0  0  0  0  0  0  0  0  0  0  0
  143.4510  156.3290  134.3640 O   0  0  0  0  0  0  0  0  0  0  0  0
  143.7110  157.2440  133.3380 C   0  0  0  0  0  0  0  0  0  0  0  0
  142.8620  157.4350  132.4250 O   0  0  0  0  0  0  0  0  0  0  0  0
  144.9590  157.9540  133.3180 N   0  0  0  0  0  0  0  0  0  0  0  0
  145.1630  159.2950  133.4650 C   0  0  0  0  0  0  0  0  0  0  0  0
  144.1320  160.2960  133.8110 C   0  0  0  0  0  0  0  0  0  0  0  0
  142.7860  160.1050  133.3820 N   0  0  0  0  0  0  0  0  0  0  0  0
  144.4320  161.3370  134.4520 O   0  0  0  0  0  0  0  0  0  0  0  0
  146.5150  159.5990  133.3300 C   0  0  0  0  0  0  0  0  0  0  0  0
  147.1400  158.3950  133.1010 C   0  0  0  0  0  0  0  0  0  0  0  0
  148.4860  158.1120  132.8900 C   0  0  0  0  0  0  0  0  0  0  0  0
  148.8470  156.7750  132.6560 C   0  0  0  0  0  0  0  0  0  0  0  0
  147.8700  155.7500  132.6290 C   0  0  0  0  0  0  0  0  0  0  0  0
  148.2840  154.3940  132.3750 N   0  0  0  0  0  0  0  0  0  0  0  0
  148.5470  153.4230  133.4400 C   0  0  0  0  0  0  0  0  0  0  0  0
  149.3540  152.2760  132.9220 C   0  0  0  0  0  0  0  0  0  0  0  0
  149.5230  152.1280  131.6830 O   0  0  0  0  0  0  0  0  0  0  0  0
  149.9690  151.4020  133.8100 O   0  0  0  0  0  0  0  0  0  0  0  0
  146.5090  156.0800  132.8500 C   0  0  0  0  0  0  0  0  0  0  0  0
  146.1800  157.4180  133.0990 C   0  0  0  0  0  0  0  0  0  0  0  0
  140.7205  150.5900  133.6291 H   0  0  0  0  0  0  0  0  0  0  0  0
  140.3141  151.6846  132.2641 H   0  0  0  0  0  0  0  0  0  0  0  0
  141.8711  150.7888  132.2641 H   0  0  0  0  0  0  0  0  0  0  0  0
  143.9281  152.6048  134.0737 H   0  0  0  0  0  0  0  0  0  0  0  0
  143.5315  151.6807  132.5853 H   0  0  0  0  0  0  0  0  0  0  0  0
  143.4219  153.4737  132.5853 H   0  0  0  0  0  0  0  0  0  0  0  0
  141.4149  156.4214  134.7132 H   0  0  0  0  0  0  0  0  0  0  0  0
  142.2521  154.9665  135.3545 H   0  0  0  0  0  0  0  0  0  0  0  0
  142.5710  159.5720  132.5100 H   0  0  0  0  0  0  0  0  0  0  0  0
  146.9842  160.5919  133.3931 H   0  0  0  0  0  0  0  0  0  0  0  0
  149.2430  158.9099  132.9060 H   0  0  0  0  0  0  0  0  0  0  0  0
  149.9043  156.5202  132.4913 H   0  0  0  0  0  0  0  0  0  0  0  0
  148.4020  154.0940  131.3800 H   0  0  0  0  0  0  0  0  0  0  0  0
  149.1018  153.9178  134.2508 H   0  0  0  0  0  0  0  0  0  0  0  0
  147.5863  153.0392  133.8137 H   0  0  0  0  0  0  0  0  0  0  0  0
  145.7302  155.3035  132.8264 H   0  0  0  0  0  0  0  0  0  0  0  0
  1  2  1  0
  2  3  1  0
  2  4  1  0
  4  5  2  0
  4  6  1  0
  2  7  1  0
  7  8  2  0
  7  9  1  0
  9 10  1  0
 10 11  1  0
 11 12  1  0
 12 13  2  0
 12 14  1  0
 14 15  1  0
 15 16  1  0
 16 17  1  0
 16 18  2  0
 15 19  2  0
 19 20  1  0
 20 21  2  0
 21 22  1  0
 22 23  2  0
 23 24  1  0
 24 25  1  0
 25 26  1  0
 26 27  2  0
 26 28  1  0
 23 29  1  0
 29 30  2  0
 30 14  1  0
 30 20  1  0
  1 31  1  0
  1 32  1  0
  1 33  1  0
  3 34  1  0
  3 35  1  0
  3 36  1  0
 10 37  1  0
 10 38  1  0
 17 39  1  0
 19 40  1  0
 21 41  1  0
 22 42  1  0
 24 43  1  0
 25 44  1  0
 25 45  1  0
 29 46  1  0
M  CHG  3   6  -1  17  -1  28  -1
M  END
>  <UniqueID>  (66) 
66

>  <SMILES>  (66) 
CC(C)(C(=O)[O-])C(=O)OCOC(=O)n1c(C([NH-])=O)cc2ccc(NCC(=O)[O-])cc21

>  <Energy>  (66) 
78.55431258053962

>  <Genealogy>  (66) 
CC(C)(C(=O)[O-])C(=O)OCOC(=O)n1c(C([NH-])=O)cc2ccc(NCC(=O)[O-])cc21 (protonated)
CC(C)(C(=O)[O-])C(=O)OCOC(=O)n1c(C([NH-])=O)cc2ccc(NCC(=O)[O-])cc21 (3D coordinates assigned)
CC(C)(C(=O)[O-])C(=O)OCOC(=O)n1c(C([NH-])=O)cc2ccc(NCC(=O)[O-])cc21 (optimized conformer: 78.55431258053962 kcal/mol)

>  <smiles>  (66) 
CC(C)(C(=O)O)C(=O)OCOC(=O)n1c(C(N)=O)cc2ccc(NCC(=O)O)cc21

>  <score_type>  (66) 
oracle

>  <origin>  (66) 
adg

>  <m_score__min__energy>  (66) 
-7.4699999999999998

>  <m_primary>  (66) 
energy

$$$$
67:0
     RDKit          3D

 41 42  0  0  0  0  0  0  0  0999 V2000
  148.2880  155.0760  132.8370 C   0  0  0  0  0  0  0  0  0  0  0  0
  147.8930  156.5120  133.0070 C   0  0  0  0  0  0  0  0  0  0  0  0
  148.8610  157.5340  132.8490 C   0  0  0  0  0  0  0  0  0  0  0  0
  148.4980  158.8860  132.9560 C   0  0  0  0  0  0  0  0  0  0  0  0
  147.1640  159.1830  133.2190 C   0  0  0  0  0  0  0  0  0  0  0  0
  146.5350  160.4030  133.3230 C   0  0  0  0  0  0  0  0  0  0  0  0
  145.1950  160.1070  133.5520 C   0  0  0  0  0  0  0  0  0  0  0  0
  144.1610  161.1380  133.7700 C   0  0  0  0  0  0  0  0  0  0  0  0
  142.7720  160.8340  133.6330 N   0  0  0  0  0  0  0  0  0  0  0  0
  144.5070  162.2940  134.1340 O   0  0  0  0  0  0  0  0  0  0  0  0
  144.9960  158.7590  133.5830 N   0  0  0  0  0  0  0  0  0  0  0  0
  143.7380  158.0690  133.6480 C   0  0  0  0  0  0  0  0  0  0  0  0
  143.0470  157.9080  132.6060 O   0  0  0  0  0  0  0  0  0  0  0  0
  143.2830  157.5800  134.8760 O   0  0  0  0  0  0  0  0  0  0  0  0
  141.9830  157.0300  135.0580 C   0  0  0  0  0  0  0  0  0  0  0  0
  140.9540  157.9890  134.5290 C   0  0  0  0  0  0  0  0  0  0  0  0
  140.9880  159.1830  134.9340 O   0  0  0  0  0  0  0  0  0  0  0  0
  139.9380  157.5830  133.5820 N   0  0  0  0  0  0  0  0  0  0  0  0
  139.7680  156.1540  133.2970 C   0  0  0  0  0  0  0  0  0  0  0  0
  139.0030  158.5420  132.9730 C   0  0  0  0  0  0  0  0  0  0  0  0
  139.7260  159.5080  132.0800 C   0  0  0  0  0  0  0  0  0  0  0  0
  139.6210  159.3990  130.8300 O   0  0  0  0  0  0  0  0  0  0  0  0
  140.5230  160.5130  132.6150 O   0  0  0  0  0  0  0  0  0  0  0  0
  146.2140  158.2060  133.3780 C   0  0  0  0  0  0  0  0  0  0  0  0
  146.5460  156.8500  133.2570 C   0  0  0  0  0  0  0  0  0  0  0  0
  148.4158  154.6113  133.8258 H   0  0  0  0  0  0  0  0  0  0  0  0
  147.5030  154.5432  132.2802 H   0  0  0  0  0  0  0  0  0  0  0  0
  149.2350  155.0196  132.2802 H   0  0  0  0  0  0  0  0  0  0  0  0
  149.9072  157.2658  132.6405 H   0  0  0  0  0  0  0  0  0  0  0  0
  149.2443  159.6852  132.8358 H   0  0  0  0  0  0  0  0  0  0  0  0
  146.9939  161.3994  133.2423 H   0  0  0  0  0  0  0  0  0  0  0  0
  142.4460  159.8520  133.4960 H   0  0  0  0  0  0  0  0  0  0  0  0
  142.0550  161.5810  133.7620 H   0  0  0  0  0  0  0  0  0  0  0  0
  141.9090  156.0765  134.5145 H   0  0  0  0  0  0  0  0  0  0  0  0
  141.8054  156.8564  136.1296 H   0  0  0  0  0  0  0  0  0  0  0  0
  139.7017  155.5968  134.2431 H   0  0  0  0  0  0  0  0  0  0  0  0
  138.8456  156.0030  132.7171 H   0  0  0  0  0  0  0  0  0  0  0  0
  140.6293  155.7908  132.7171 H   0  0  0  0  0  0  0  0  0  0  0  0
  138.2593  157.9909  132.3788 H   0  0  0  0  0  0  0  0  0  0  0  0
  138.5115  159.1097  133.7769 H   0  0  0  0  0  0  0  0  0  0  0  0
  145.7769  156.0696  133.3543 H   0  0  0  0  0  0  0  0  0  0  0  0
  1  2  1  0
  2  3  2  0
  3  4  1  0
  4  5  2  0
  5  6  1  0
  6  7  2  0
  7  8  1  0
  8  9  1  0
  8 10  2  0
  7 11  1  0
 11 12  1  0
 12 13  2  0
 12 14  1  0
 14 15  1  0
 15 16  1  0
 16 17  2  0
 16 18  1  0
 18 19  1  0
 18 20  1  0
 20 21  1  0
 21 22  2  0
 21 23  1  0
 11 24  1  0
 24 25  2  0
 25  2  1  0
 24  5  1  0
  1 26  1  0
  1 27  1  0
  1 28  1  0
  3 29  1  0
  4 30  1  0
  6 31  1  0
  9 32  1  0
  9 33  1  0
 15 34  1  0
 15 35  1  0
 19 36  1  0
 19 37  1  0
 19 38  1  0
 20 39  1  0
 20 40  1  0
 25 41  1  0
M  CHG  1  23  -1
M  END
>  <UniqueID>  (67) 
67

>  <SMILES>  (67) 
Cc1ccc2cc(C(N)=O)n(C(=O)OCC(=O)N(C)CC(=O)[O-])c2c1

>  <Energy>  (67) 
73.81199933846037

>  <Genealogy>  (67) 
Cc1ccc2cc(C(N)=O)n(C(=O)OCC(=O)N(C)CC(=O)[O-])c2c1 (protonated)
Cc1ccc2cc(C(N)=O)n(C(=O)OCC(=O)N(C)CC(=O)[O-])c2c1 (3D coordinates assigned)
Cc1ccc2cc(C(N)=O)n(C(=O)OCC(=O)N(C)CC(=O)[O-])c2c1 (optimized conformer: 73.81199933846037 kcal/mol)

>  <smiles>  (67) 
Cc1ccc2cc(C(N)=O)n(C(=O)OCC(=O)N(C)CC(=O)O)c2c1

>  <score_type>  (67) 
oracle

>  <origin>  (67) 
adg

>  <m_score__min__energy>  (67) 
-6.4100000000000001

>  <m_primary>  (67) 
energy

$$$$
68:0
     RDKit          3D

 39 40  0  0  0  0  0  0  0  0999 V2000
  144.7020  160.5710  133.6750 C   0  0  0  0  0  0  0  0  0  0  0  0
  144.1910  159.1620  133.6370 C   0  0  0  0  0  0  0  0  0  0  0  0
  145.0980  158.0760  133.7180 C   0  0  0  0  0  0  0  0  0  0  0  0
  144.6340  156.7500  133.6590 C   0  0  0  0  0  0  0  0  0  0  0  0
  143.2670  156.5450  133.4970 C   0  0  0  0  0  0  0  0  0  0  0  0
  142.5480  155.3730  133.4330 C   0  0  0  0  0  0  0  0  0  0  0  0
  141.2170  155.7620  133.2780 C   0  0  0  0  0  0  0  0  0  0  0  0
  140.0830  154.8240  133.1140 C   0  0  0  0  0  0  0  0  0  0  0  0
  138.7480  155.3060  132.9520 N   0  0  0  0  0  0  0  0  0  0  0  0
  140.2850  153.5800  133.1330 O   0  0  0  0  0  0  0  0  0  0  0  0
  141.1230  157.1210  133.2380 N   0  0  0  0  0  0  0  0  0  0  0  0
  139.9260  157.9110  133.1530 C   0  0  0  0  0  0  0  0  0  0  0  0
  139.2680  158.1400  134.2030 O   0  0  0  0  0  0  0  0  0  0  0  0
  139.4580  158.4170  131.8430 C   0  0  0  0  0  0  0  0  0  0  0  0
  138.7050  157.6850  131.1470 O   0  0  0  0  0  0  0  0  0  0  0  0
  139.8200  159.7050  131.3260 N   0  0  0  0  0  0  0  0  0  0  0  0
  138.9580  160.8790  131.2660 C   0  0  0  0  0  0  0  0  0  0  0  0
  137.9140  160.7000  130.1580 C   0  0  1  0  0  0  0  0  0  0  0  0
  138.3540  159.7170  129.2560 O   0  0  0  0  0  0  0  0  0  0  0  0
  136.5450  160.3110  130.7420 C   0  0  0  0  0  0  0  0  0  0  0  0
  136.4820  158.9360  131.0140 O   0  0  0  0  0  0  0  0  0  0  0  0
  142.3830  157.5850  133.3820 C   0  0  0  0  0  0  0  0  0  0  0  0
  142.8130  158.9150  133.4580 C   0  0  0  0  0  0  0  0  0  0  0  0
  144.8180  160.8909  134.7211 H   0  0  0  0  0  0  0  0  0  0  0  0
  145.6758  160.6217  133.1659 H   0  0  0  0  0  0  0  0  0  0  0  0
  143.9871  161.2342  133.1659 H   0  0  0  0  0  0  0  0  0  0  0  0
  146.1748  158.2722  133.8280 H   0  0  0  0  0  0  0  0  0  0  0  0
  145.3295  155.9015  133.7384 H   0  0  0  0  0  0  0  0  0  0  0  0
  142.9398  154.3468  133.4916 H   0  0  0  0  0  0  0  0  0  0  0  0
  137.9550  154.6320  132.8740 H   0  0  0  0  0  0  0  0  0  0  0  0
  138.5430  156.3250  132.8640 H   0  0  0  0  0  0  0  0  0  0  0  0
  138.4473  161.0069  132.2318 H   0  0  0  0  0  0  0  0  0  0  0  0
  139.5690  161.7677  131.0495 H   0  0  0  0  0  0  0  0  0  0  0  0
  137.7944  161.6578  129.6304 H   0  0  0  0  0  0  0  0  0  0  0  0
  138.3680  158.8580  129.7540 H   0  0  0  0  0  0  0  0  0  0  0  0
  136.3813  160.8694  131.6755 H   0  0  0  0  0  0  0  0  0  0  0  0
  135.7684  160.5559  130.0025 H   0  0  0  0  0  0  0  0  0  0  0  0
  137.1220  158.4920  130.3990 H   0  0  0  0  0  0  0  0  0  0  0  0
  142.0959  159.7455  133.3803 H   0  0  0  0  0  0  0  0  0  0  0  0
  1  2  1  0
  2  3  2  0
  3  4  1  0
  4  5  2  0
  5  6  1  0
  6  7  2  0
  7  8  1  0
  8  9  1  0
  8 10  2  0
  7 11  1  0
 11 12  1  0
 12 13  2  0
 12 14  1  0
 14 15  2  0
 14 16  1  0
 16 17  1  0
 17 18  1  0
 18 19  1  0
 18 20  1  0
 20 21  1  0
 11 22  1  0
 22 23  2  0
 23  2  1  0
 22  5  1  0
  1 24  1  0
  1 25  1  0
  1 26  1  0
  3 27  1  0
  4 28  1  0
  6 29  1  0
  9 30  1  0
  9 31  1  0
 17 32  1  0
 17 33  1  0
 18 34  1  6
 19 35  1  0
 20 36  1  0
 20 37  1  0
 21 38  1  0
 23 39  1  0
M  CHG  1  16  -1
M  END
>  <UniqueID>  (68) 
68

>  <SMILES>  (68) 
Cc1ccc2cc(C(N)=O)n(C(=O)C(=O)[N-]C[C@@H](O)CO)c2c1

>  <Energy>  (68) 
74.10254526599414

>  <Genealogy>  (68) 
Cc1ccc2cc(C(N)=O)n(C(=O)C(=O)[N-]CC(O)CO)c2c1 (protonated)
Cc1ccc2cc(C(N)=O)n(C(=O)C(=O)[N-]C[C@@H](O)CO)c2c1 (chirality)
Cc1ccc2cc(C(N)=O)n(C(=O)C(=O)[N-]C[C@@H](O)CO)c2c1 (3D coordinates assigned)
Cc1ccc2cc(C(N)=O)n(C(=O)C(=O)[N-]C[C@@H](O)CO)c2c1 (optimized conformer: 74.10254526599414 kcal/mol)

>  <smiles>  (68) 
Cc1ccc2cc(C(N)=O)n(C(=O)C(=O)NCC(O)CO)c2c1

>  <score_type>  (68) 
oracle

>  <origin>  (68) 
adg

>  <m_score__min__energy>  (68) 
-6.0099999999999998

>  <m_primary>  (68) 
energy

$$$$
69:0
     RDKit          3D

 31 32  0  0  0  0  0  0  0  0999 V2000
  150.3769  159.1321  130.0046 H   0  0  0  0  0  0  0  0  0  0  0  0
  149.6740  159.3720  130.8160 C   0  0  0  0  0  0  0  0  0  0  0  0
  148.8700  160.5980  130.6600 C   0  0  0  0  0  0  0  0  0  0  0  0
  149.4120  161.7280  130.5450 O   0  0  0  0  0  0  0  0  0  0  0  0
  147.4900  160.4930  130.5520 O   0  0  0  0  0  0  0  0  0  0  0  0
  149.6310  158.5200  131.8530 C   0  0  0  0  0  0  0  0  0  0  0  0
  150.4035  157.7375  131.8841 H   0  0  0  0  0  0  0  0  0  0  0  0
  148.6460  158.5300  132.9590 C   0  0  0  0  0  0  0  0  0  0  0  0
  148.8480  159.3110  133.9270 O   0  0  0  0  0  0  0  0  0  0  0  0
  147.5220  157.6330  133.0040 N   0  0  0  0  0  0  0  0  0  0  0  0
  146.2230  157.9550  133.2720 C   0  0  0  0  0  0  0  0  0  0  0  0
  145.6820  159.3210  133.4410 C   0  0  0  0  0  0  0  0  0  0  0  0
  144.4800  159.4670  133.7890 O   0  0  0  0  0  0  0  0  0  0  0  0
  146.4730  160.4810  133.1720 N   0  0  0  0  0  0  0  0  0  0  0  0
  147.4070  160.4100  132.7150 H   0  0  0  0  0  0  0  0  0  0  0  0
  146.0800  161.4310  133.3480 H   0  0  0  0  0  0  0  0  0  0  0  0
  145.4430  156.8070  133.3720 C   0  0  0  0  0  0  0  0  0  0  0  0
  144.3637  156.7505  133.5765 H   0  0  0  0  0  0  0  0  0  0  0  0
  146.3070  155.7580  133.1610 C   0  0  0  0  0  0  0  0  0  0  0  0
  146.0690  154.3870  133.1810 C   0  0  0  0  0  0  0  0  0  0  0  0
  145.0557  153.9903  133.3416 H   0  0  0  0  0  0  0  0  0  0  0  0
  147.1610  153.5250  132.9900 C   0  0  0  0  0  0  0  0  0  0  0  0
  147.0028  152.4364  132.9885 H   0  0  0  0  0  0  0  0  0  0  0  0
  148.4660  154.0460  132.7990 C   0  0  0  0  0  0  0  0  0  0  0  0
  149.6360  153.1210  132.6220 C   0  0  0  0  0  0  0  0  0  0  0  0
  150.5682  153.6925  132.7419 H   0  0  0  0  0  0  0  0  0  0  0  0
  149.5850  152.1160  133.5710 F   0  0  0  0  0  0  0  0  0  0  0  0
  149.5950  152.5570  131.3590 F   0  0  0  0  0  0  0  0  0  0  0  0
  148.6700  155.4430  132.7950 C   0  0  0  0  0  0  0  0  0  0  0  0
  149.6784  155.8641  132.6691 H   0  0  0  0  0  0  0  0  0  0  0  0
  147.5590  156.2800  132.9550 C   0  0  0  0  0  0  0  0  0  0  0  0
  1  2  1  0
  2  3  1  0
  3  4  2  0
  3  5  1  0
  2  6  2  0
  6  7  1  0
  6  8  1  0
  8  9  2  0
  8 10  1  0
 10 11  1  0
 11 12  1  0
 12 13  2  0
 12 14  1  0
 14 15  1  0
 14 16  1  0
 11 17  2  0
 17 18  1  0
 17 19  1  0
 19 20  2  0
 20 21  1  0
 20 22  1  0
 22 23  1  0
 22 24  2  0
 24 25  1  0
 25 26  1  0
 25 27  1  0
 25 28  1  0
 24 29  1  0
 29 30  1  0
 29 31  2  0
 31 10  1  0
 31 19  1  0
M  CHG  1   5  -1
M  END
>  <UniqueID>  (69) 
69

>  <SMILES>  (69) 
NC(=O)c1cc2ccc(C(F)F)cc2n1C(=O)/C=C\C(=O)[O-]

>  <Energy>  (69) 
76.52737339935922

>  <Genealogy>  (69) 
NC(=O)c1cc2ccc(C(F)F)cc2n1C(=O)/C=C\C(=O)[O-] (protonated)
NC(=O)c1cc2ccc(C(F)F)cc2n1C(=O)/C=C\C(=O)[O-] (cis-trans isomerization)
NC(=O)c1cc2ccc(C(F)F)cc2n1C(=O)/C=C\C(=O)[O-] (3D coordinates assigned)
NC(=O)c1cc2ccc(C(F)F)cc2n1C(=O)/C=C\C(=O)[O-] (optimized conformer: 76.52737339935922 kcal/mol)

>  <smiles>  (69) 
NC(=O)c1cc2ccc(C(F)F)cc2n1C(=O)/C=C\C(=O)O

>  <score_type>  (69) 
oracle

>  <origin>  (69) 
adg

>  <m_score__min__energy>  (69) 
-6.6500000000000004

>  <m_primary>  (69) 
energy

$$$$
70:0
     RDKit          3D

 43 44  0  0  0  0  0  0  0  0999 V2000
  149.3360  153.3560  138.6040 C   0  0  0  0  0  0  0  0  0  0  0  0
  148.8560  153.0570  137.3920 C   0  0  0  0  0  0  0  0  0  0  0  0
  149.3290  151.8160  136.6840 C   0  0  0  0  0  0  0  0  0  0  0  0
  147.8110  153.8900  136.7590 C   0  0  0  0  0  0  0  0  0  0  0  0
  148.0980  155.0150  136.2630 O   0  0  0  0  0  0  0  0  0  0  0  0
  146.4950  153.4220  136.7170 O   0  0  0  0  0  0  0  0  0  0  0  0
  145.5950  153.7300  135.6560 C   0  0  0  0  0  0  0  0  0  0  0  0
  145.7470  155.0960  135.2870 O   0  0  0  0  0  0  0  0  0  0  0  0
  145.8190  155.5150  133.9540 C   0  0  0  0  0  0  0  0  0  0  0  0
  144.9360  155.1610  133.1260 O   0  0  0  0  0  0  0  0  0  0  0  0
  146.9220  156.3240  133.5200 N   0  0  0  0  0  0  0  0  0  0  0  0
  148.1270  155.9050  133.0400 C   0  0  0  0  0  0  0  0  0  0  0  0
  148.6050  154.5070  133.0040 C   0  0  0  0  0  0  0  0  0  0  0  0
  147.9600  153.5160  133.8010 N   0  0  0  0  0  0  0  0  0  0  0  0
  149.5580  154.1700  132.2540 O   0  0  0  0  0  0  0  0  0  0  0  0
  148.9000  156.9940  132.6450 C   0  0  0  0  0  0  0  0  0  0  0  0
  148.1250  158.1030  132.9020 C   0  0  0  0  0  0  0  0  0  0  0  0
  148.3920  159.4490  132.6850 C   0  0  0  0  0  0  0  0  0  0  0  0
  147.3910  160.3810  133.0110 C   0  0  0  0  0  0  0  0  0  0  0  0
  146.1380  159.9610  133.5410 C   0  0  0  0  0  0  0  0  0  0  0  0
  145.1050  160.9300  133.8590 N   0  0  0  0  0  0  0  0  0  0  0  0
  143.6860  160.5750  133.7330 C   0  0  0  0  0  0  0  0  0  0  0  0
  145.4620  162.2810  134.3110 C   0  0  0  0  0  0  0  0  0  0  0  0
  145.9170  158.5740  133.7450 C   0  0  0  0  0  0  0  0  0  0  0  0
  146.9380  157.6730  133.4270 C   0  0  0  0  0  0  0  0  0  0  0  0
  148.9919  154.2625  139.1236 H   0  0  0  0  0  0  0  0  0  0  0  0
  150.0749  152.6955  139.0813 H   0  0  0  0  0  0  0  0  0  0  0  0
  149.6180  151.0578  137.4267 H   0  0  0  0  0  0  0  0  0  0  0  0
  148.5181  151.4217  136.0539 H   0  0  0  0  0  0  0  0  0  0  0  0
  150.1966  152.0615  136.0539 H   0  0  0  0  0  0  0  0  0  0  0  0
  145.8163  153.0893  134.7897 H   0  0  0  0  0  0  0  0  0  0  0  0
  144.5616  153.5526  135.9885 H   0  0  0  0  0  0  0  0  0  0  0  0
  147.3950  153.7830  134.6380 H   0  0  0  0  0  0  0  0  0  0  0  0
  149.9137  156.9729  132.2185 H   0  0  0  0  0  0  0  0  0  0  0  0
  149.3572  159.7757  132.2707 H   0  0  0  0  0  0  0  0  0  0  0  0
  147.5792  161.4533  132.8539 H   0  0  0  0  0  0  0  0  0  0  0  0
  143.2453  160.4647  134.7348 H   0  0  0  0  0  0  0  0  0  0  0  0
  143.1568  161.3684  133.1849 H   0  0  0  0  0  0  0  0  0  0  0  0
  143.5928  159.6258  133.1849 H   0  0  0  0  0  0  0  0  0  0  0  0
  145.4696  162.3097  135.4106 H   0  0  0  0  0  0  0  0  0  0  0  0
  146.4602  162.5431  133.9305 H   0  0  0  0  0  0  0  0  0  0  0  0
  144.7236  163.0021  133.9305 H   0  0  0  0  0  0  0  0  0  0  0  0
  144.9584  158.2137  134.1466 H   0  0  0  0  0  0  0  0  0  0  0  0
  1  2  2  0
  2  3  1  0
  2  4  1  0
  4  5  2  0
  4  6  1  0
  6  7  1  0
  7  8  1  0
  8  9  1  0
  9 10  2  0
  9 11  1  0
 11 12  1  0
 12 13  1  0
 13 14  1  0
 13 15  2  0
 12 16  2  0
 16 17  1  0
 17 18  2  0
 18 19  1  0
 19 20  2  0
 20 21  1  0
 21 22  1  0
 21 23  1  0
 20 24  1  0
 24 25  2  0
 25 11  1  0
 25 17  1  0
  1 26  1  0
  1 27  1  0
  3 28  1  0
  3 29  1  0
  3 30  1  0
  7 31  1  0
  7 32  1  0
 14 33  1  0
 16 34  1  0
 18 35  1  0
 19 36  1  0
 22 37  1  0
 22 38  1  0
 22 39  1  0
 23 40  1  0
 23 41  1  0
 23 42  1  0
 24 43  1  0
M  CHG  1  14  -1
M  END
>  <UniqueID>  (70) 
70

>  <SMILES>  (70) 
C=C(C)C(=O)OCOC(=O)n1c(C([NH-])=O)cc2ccc(N(C)C)cc21

>  <Energy>  (70) 
77.5015056303889

>  <Genealogy>  (70) 
C=C(C)C(=O)OCOC(=O)n1c(C([NH-])=O)cc2ccc(N(C)C)cc21 (protonated)
C=C(C)C(=O)OCOC(=O)n1c(C([NH-])=O)cc2ccc(N(C)C)cc21 (3D coordinates assigned)
C=C(C)C(=O)OCOC(=O)n1c(C([NH-])=O)cc2ccc(N(C)C)cc21 (optimized conformer: 77.5015056303889 kcal/mol)

>  <smiles>  (70) 
C=C(C)C(=O)OCOC(=O)n1c(C(N)=O)cc2ccc(N(C)C)cc21

>  <score_type>  (70) 
oracle

>  <origin>  (70) 
adg

>  <m_score__min__energy>  (70) 
-6.5499999999999998

>  <m_primary>  (70) 
energy

$$$$
71:0
     RDKit          3D

 66 71  0  0  0  0  0  0  0  0999 V2000
  139.5580  158.1890  135.2320 C   0  0  0  0  0  0  0  0  0  0  0  0
  140.0430  157.6130  133.8750 C   0  0  1  0  0  0  0  0  0  0  0  0
  140.5430  156.1660  134.0510 C   0  0  0  0  0  0  0  0  0  0  0  0
  140.2300  155.1730  133.0930 C   0  0  0  0  0  0  0  0  0  0  0  0
  140.6410  153.8480  133.2680 C   0  0  0  0  0  0  0  0  0  0  0  0
  141.3710  153.4750  134.4050 C   0  0  0  0  0  0  0  0  0  0  0  0
  141.8490  152.0860  134.5700 C   0  0  0  0  0  0  0  0  0  0  0  0
  141.3300  151.3340  135.4410 O   0  0  0  0  0  0  0  0  0  0  0  0
  142.9020  151.5770  133.7400 N   0  0  0  0  0  0  0  0  0  0  0  0
  142.8660  150.4790  132.9370 C   0  0  0  0  0  0  0  0  0  0  0  0
  141.7340  149.5330  132.8270 C   0  0  0  0  0  0  0  0  0  0  0  0
  140.3920  150.0040  132.9720 N   0  0  0  0  0  0  0  0  0  0  0  0
  141.9400  148.3100  132.5950 O   0  0  0  0  0  0  0  0  0  0  0  0
  144.0620  150.3530  132.2320 C   0  0  0  0  0  0  0  0  0  0  0  0
  144.8340  151.4230  132.6290 C   0  0  0  0  0  0  0  0  0  0  0  0
  146.1010  151.8220  132.2110 C   0  0  0  0  0  0  0  0  0  0  0  0
  146.6260  153.0110  132.7420 C   0  0  0  0  0  0  0  0  0  0  0  0
  145.8820  153.7790  133.6770 C   0  0  0  0  0  0  0  0  0  0  0  0
  146.4080  155.0310  134.1670 N   0  0  0  0  0  0  0  0  0  0  0  0
  145.3270  155.9340  134.6100 C   0  0  0  0  0  0  0  0  0  0  0  0
  145.0740  157.0870  133.6240 C   0  0  0  0  0  0  0  0  0  0  0  0
  146.1900  157.3010  132.8040 O   0  0  0  0  0  0  0  0  0  0  0  0
  144.6020  153.3340  134.0860 C   0  0  0  0  0  0  0  0  0  0  0  0
  144.1100  152.1450  133.5410 C   0  0  0  0  0  0  0  0  0  0  0  0
  141.6440  154.4360  135.3870 C   0  0  0  0  0  0  0  0  0  0  0  0
  141.2140  155.7540  135.2260 C   0  0  0  0  0  0  0  0  0  0  0  0
  138.7910  157.6430  132.9820 C   0  0  0  0  0  0  0  0  0  0  0  0
  138.5660  158.5460  132.0050 C   0  0  0  0  0  0  0  0  0  0  0  0
  137.2290  158.6320  131.3860 C   0  0  0  0  0  0  0  0  0  0  0  0
  136.8810  159.7180  130.6910 C   0  0  0  0  0  0  0  0  0  0  0  0
  137.8130  160.8490  130.5310 C   0  0  0  0  0  0  0  0  0  0  0  0
  139.0820  160.7650  130.9530 C   0  0  0  0  0  0  0  0  0  0  0  0
  139.6520  159.4640  131.4760 C   0  0  1  0  0  0  0  0  0  0  0  0
  140.6900  159.6440  132.5350 C   0  0  0  0  0  0  0  0  0  0  0  0
  141.1490  160.7760  132.9610 N   0  0  0  0  0  0  0  0  0  0  0  0
  142.0410  160.4680  134.0250 C   0  0  0  0  0  0  0  0  0  0  0  0
  142.1090  159.1650  134.2430 C   0  0  0  0  0  0  0  0  0  0  0  0
  141.2150  158.4620  133.2650 C   0  0  1  0  0  0  0  0  0  0  0  0
  140.0275  157.6314  136.0558 H   0  0  0  0  0  0  0  0  0  0  0  0
  139.8384  159.2504  135.3010 H   0  0  0  0  0  0  0  0  0  0  0  0
  138.4643  158.0934  135.3010 H   0  0  0  0  0  0  0  0  0  0  0  0
  139.6544  155.4476  132.1967 H   0  0  0  0  0  0  0  0  0  0  0  0
  140.3898  153.0932  132.5083 H   0  0  0  0  0  0  0  0  0  0  0  0
  140.1290  150.6570  133.7430 H   0  0  0  0  0  0  0  0  0  0  0  0
  144.3320  149.5665  131.5119 H   0  0  0  0  0  0  0  0  0  0  0  0
  146.6732  151.2237  131.4867 H   0  0  0  0  0  0  0  0  0  0  0  0
  147.6245  153.3515  132.4305 H   0  0  0  0  0  0  0  0  0  0  0  0
  147.0910  154.8720  134.9450 H   0  0  0  0  0  0  0  0  0  0  0  0
  146.9360  155.5000  133.3930 H   0  0  0  0  0  0  0  0  0  0  0  0
  144.4007  155.3497  134.7131 H   0  0  0  0  0  0  0  0  0  0  0  0
  145.6371  156.3781  135.5674 H   0  0  0  0  0  0  0  0  0  0  0  0
  144.2073  156.8379  132.9941 H   0  0  0  0  0  0  0  0  0  0  0  0
  144.8813  158.0043  134.1997 H   0  0  0  0  0  0  0  0  0  0  0  0
  145.9240  157.0390  131.8830 H   0  0  0  0  0  0  0  0  0  0  0  0
  144.0103  153.9089  134.8136 H   0  0  0  0  0  0  0  0  0  0  0  0
  142.2011  154.1499  136.2913 H   0  0  0  0  0  0  0  0  0  0  0  0
  141.4001  156.4849  136.0267 H   0  0  0  0  0  0  0  0  0  0  0  0
  138.0240  156.8730  133.1521 H   0  0  0  0  0  0  0  0  0  0  0  0
  136.5179  157.8002  131.4973 H   0  0  0  0  0  0  0  0  0  0  0  0
  135.8833  159.7694  130.2307 H   0  0  0  0  0  0  0  0  0  0  0  0
  137.4608  161.7772  130.0574 H   0  0  0  0  0  0  0  0  0  0  0  0
  139.7220  161.6590  130.9187 H   0  0  0  0  0  0  0  0  0  0  0  0
  140.1391  159.0045  130.6033 H   0  0  0  0  0  0  0  0  0  0  0  0
  142.6047  161.2203  134.5961 H   0  0  0  0  0  0  0  0  0  0  0  0
  142.7213  158.6767  135.0155 H   0  0  0  0  0  0  0  0  0  0  0  0
  141.7484  157.6954  132.6838 H   0  0  0  0  0  0  0  0  0  0  0  0
  2  1  1  1
  2  3  1  0
  3  4  2  0
  4  5  1  0
  5  6  2  0
  6  7  1  0
  7  8  2  0
  7  9  1  0
  9 10  1  0
 10 11  1  0
 11 12  1  0
 11 13  2  0
 10 14  2  0
 14 15  1  0
 15 16  2  0
 16 17  1  0
 17 18  2  0
 18 19  1  0
 19 20  1  0
 20 21  1  0
 21 22  1  0
 18 23  1  0
 23 24  2  0
  6 25  1  0
 25 26  2  0
  2 27  1  0
 27 28  2  0
 28 29  1  0
 29 30  2  0
 30 31  1  0
 31 32  2  0
 32 33  1  0
 33 34  1  0
 34 35  2  0
 35 36  1  0
 36 37  2  0
 37 38  1  0
 38  2  1  0
 26  3  1  0
 33 28  1  0
 38 34  1  0
 24  9  1  0
 24 15  1  0
  1 39  1  0
  1 40  1  0
  1 41  1  0
  4 42  1  0
  5 43  1  0
 12 44  1  0
 14 45  1  0
 16 46  1  0
 17 47  1  0
 19 48  1  0
 19 49  1  0
 20 50  1  0
 20 51  1  0
 21 52  1  0
 21 53  1  0
 22 54  1  0
 23 55  1  0
 25 56  1  0
 26 57  1  0
 27 58  1  0
 29 59  1  0
 30 60  1  0
 31 61  1  0
 32 62  1  0
 33 63  1  6
 36 64  1  0
 37 65  1  0
 38 66  1  6
M  CHG  2  12  -1  19   1
M  END
>  <UniqueID>  (71) 
71

>  <SMILES>  (71) 
C[C@@]1(c2ccc(C(=O)n3c(C([NH-])=O)cc4ccc([NH2+]CCO)cc43)cc2)C=C2C=CC=C[C@H]2C2=NC=CC21

>  <Energy>  (71) 
146.67836666064008

>  <Genealogy>  (71) 
CC1(c2ccc(C(=O)n3c(C([NH-])=O)cc4ccc([NH2+]CCO)cc43)cc2)C=C2C=CC=CC2C2=NC=CC21 (protonated)
C[C@@]1(c2ccc(C(=O)n3c(C([NH-])=O)cc4ccc([NH2+]CCO)cc43)cc2)C=C2C=CC=C[C@H]2C2=NC=CC21 (chirality)
C[C@@]1(c2ccc(C(=O)n3c(C([NH-])=O)cc4ccc([NH2+]CCO)cc43)cc2)C=C2C=CC=C[C@H]2C2=NC=CC21 (3D coordinates assigned)
C[C@@]1(c2ccc(C(=O)n3c(C([NH-])=O)cc4ccc([NH2+]CCO)cc43)cc2)C=C2C=CC=C[C@H]2C2=NC=CC21 (nonaromatic ring conformer: 146.67836666064008 kcal/mol)

>  <smiles>  (71) 
CC1(c2ccc(C(=O)n3c(C(N)=O)cc4ccc(NCCO)cc43)cc2)C=C2C=CC=CC2C2=NC=CC21

>  <score_type>  (71) 
oracle

>  <origin>  (71) 
adg

>  <m_score__min__energy>  (71) 
-10.699999999999999

>  <m_primary>  (71) 
energy

$$$$
72:0
     RDKit          3D

 32 33  0  0  0  0  0  0  0  0999 V2000
  142.9430  161.1610  133.7310 N   0  0  0  0  0  0  0  0  0  0  0  0
  144.3450  161.3990  133.8330 C   0  0  0  0  0  0  0  0  0  0  0  0
  144.7570  162.5690  134.0530 O   0  0  0  0  0  0  0  0  0  0  0  0
  145.3180  160.3060  133.6290 C   0  0  0  0  0  0  0  0  0  0  0  0
  146.6890  160.5170  133.5010 C   0  0  0  0  0  0  0  0  0  0  0  0
  147.2260  159.2780  133.2370 C   0  0  0  0  0  0  0  0  0  0  0  0
  148.5500  158.9000  133.0350 C   0  0  0  0  0  0  0  0  0  0  0  0
  148.8210  157.5390  132.8130 C   0  0  0  0  0  0  0  0  0  0  0  0
  147.7710  156.5890  132.7940 C   0  0  0  0  0  0  0  0  0  0  0  0
  148.0770  155.1320  132.6050 C   0  0  0  0  0  0  0  0  0  0  0  0
  147.7400  154.2460  134.1110 Cl  0  0  0  0  0  0  0  0  0  0  0  0
  146.4400  157.0070  133.0160 C   0  0  0  0  0  0  0  0  0  0  0  0
  146.1980  158.3710  133.2160 C   0  0  0  0  0  0  0  0  0  0  0  0
  145.0200  158.9860  133.4610 N   0  0  0  0  0  0  0  0  0  0  0  0
  143.7410  158.3470  133.5940 C   0  0  0  0  0  0  0  0  0  0  0  0
  143.1900  157.8290  132.5850 O   0  0  0  0  0  0  0  0  0  0  0  0
  143.0970  158.3350  134.8360 O   0  0  0  0  0  0  0  0  0  0  0  0
  142.0420  157.4360  135.1680 C   0  0  0  0  0  0  0  0  0  0  0  0
  140.5360  157.8520  134.2360 P   0  0  1  0  0  0  0  0  0  0  0  0
  140.1170  156.6640  133.4010 O   0  0  0  0  0  0  0  0  0  0  0  0
  139.3000  158.2360  135.3240 O   0  0  0  0  0  0  0  0  0  0  0  0
  140.8270  159.1790  133.2280 O   0  0  0  0  0  0  0  0  0  0  0  0
  142.5400  160.2230  133.9420 H   0  0  0  0  0  0  0  0  0  0  0  0
  147.2279  161.4716  133.5918 H   0  0  0  0  0  0  0  0  0  0  0  0
  149.3600  159.6441  133.0487 H   0  0  0  0  0  0  0  0  0  0  0  0
  149.8579  157.2087  132.6526 H   0  0  0  0  0  0  0  0  0  0  0  0
  147.4501  154.7290  131.7959 H   0  0  0  0  0  0  0  0  0  0  0  0
  149.1391  155.0145  132.3439 H   0  0  0  0  0  0  0  0  0  0  0  0
  145.6152  156.2794  133.0313 H   0  0  0  0  0  0  0  0  0  0  0  0
  142.3494  156.4093  134.9202 H   0  0  0  0  0  0  0  0  0  0  0  0
  141.8293  157.5180  136.2441 H   0  0  0  0  0  0  0  0  0  0  0  0
  141.7960  159.3570  133.3170 H   0  0  0  0  0  0  0  0  0  0  0  0
  1  2  1  0
  2  3  2  0
  2  4  1  0
  4  5  2  0
  5  6  1  0
  6  7  2  0
  7  8  1  0
  8  9  2  0
  9 10  1  0
 10 11  1  0
  9 12  1  0
 12 13  2  0
 13 14  1  0
 14 15  1  0
 15 16  2  0
 15 17  1  0
 17 18  1  0
 18 19  1  0
 19 20  2  0
 19 21  1  1
 19 22  1  0
 14  4  1  0
 13  6  1  0
  1 23  1  0
  5 24  1  0
  7 25  1  0
  8 26  1  0
 10 27  1  0
 10 28  1  0
 12 29  1  0
 18 30  1  0
 18 31  1  0
 22 32  1  0
M  CHG  2   1  -1  21  -1
M  END
>  <UniqueID>  (72) 
72

>  <SMILES>  (72) 
[NH-]C(=O)c1cc2ccc(CCl)cc2n1C(=O)OC[P@@](=O)([O-])O

>  <Energy>  (72) 
64.37568627633703

>  <Genealogy>  (72) 
[NH-]C(=O)c1cc2ccc(CCl)cc2n1C(=O)OCP(=O)([O-])O (protonated)
[NH-]C(=O)c1cc2ccc(CCl)cc2n1C(=O)OC[P@@](=O)([O-])O (chirality)
[NH-]C(=O)c1cc2ccc(CCl)cc2n1C(=O)OC[P@@](=O)([O-])O (3D coordinates assigned)
[NH-]C(=O)c1cc2ccc(CCl)cc2n1C(=O)OC[P@@](=O)([O-])O (optimized conformer: 64.37568627633703 kcal/mol)

>  <smiles>  (72) 
NC(=O)c1cc2ccc(CCl)cc2n1C(=O)OCP(=O)(O)O

>  <score_type>  (72) 
oracle

>  <origin>  (72) 
adg

>  <m_score__min__energy>  (72) 
-6.0700000000000003

>  <m_primary>  (72) 
energy

$$$$
73:0
     RDKit          3D

 40 41  0  0  0  0  0  0  0  0999 V2000
  148.6500  155.1510  132.6030 C   0  0  0  0  0  0  0  0  0  0  0  0
  148.2530  156.5900  132.7430 C   0  0  0  0  0  0  0  0  0  0  0  0
  149.2220  157.6140  132.6020 C   0  0  0  0  0  0  0  0  0  0  0  0
  148.8630  158.9640  132.7570 C   0  0  0  0  0  0  0  0  0  0  0  0
  147.5390  159.2550  133.0720 C   0  0  0  0  0  0  0  0  0  0  0  0
  146.9170  160.4700  133.2590 C   0  0  0  0  0  0  0  0  0  0  0  0
  145.5900  160.1640  133.5500 C   0  0  0  0  0  0  0  0  0  0  0  0
  144.5790  161.1780  133.9180 C   0  0  0  0  0  0  0  0  0  0  0  0
  143.1890  160.9210  133.7330 N   0  0  0  0  0  0  0  0  0  0  0  0
  144.9420  162.2620  134.4500 O   0  0  0  0  0  0  0  0  0  0  0  0
  145.3950  158.8160  133.5350 N   0  0  0  0  0  0  0  0  0  0  0  0
  144.1540  158.1100  133.6890 C   0  0  0  0  0  0  0  0  0  0  0  0
  143.9140  157.4870  134.7620 O   0  0  0  0  0  0  0  0  0  0  0  0
  143.2280  158.0960  132.6390 O   0  0  0  0  0  0  0  0  0  0  0  0
  141.8420  157.8370  132.8390 C   0  0  0  0  0  0  0  0  0  0  0  0
  141.1110  159.0520  132.7090 O   0  0  0  0  0  0  0  0  0  0  0  0
  139.7510  159.1530  133.0290 C   0  0  0  0  0  0  0  0  0  0  0  0
  139.0400  160.0700  132.5270 O   0  0  0  0  0  0  0  0  0  0  0  0
  139.1390  158.2050  134.0190 C   0  0  1  0  0  0  0  0  0  0  0  0
  138.9320  156.8160  133.4030 C   0  0  0  0  0  0  0  0  0  0  0  0
  140.0080  158.1190  135.1870 N   0  0  0  0  0  0  0  0  0  0  0  0
  140.6640  159.2580  135.7400 C   0  0  0  0  0  0  0  0  0  0  0  0
  141.9110  159.3770  135.6280 O   0  0  0  0  0  0  0  0  0  0  0  0
  146.5970  158.2730  133.2420 C   0  0  0  0  0  0  0  0  0  0  0  0
  146.9220  156.9210  133.0740 C   0  0  0  0  0  0  0  0  0  0  0  0
  148.7728  154.7057  133.6013 H   0  0  0  0  0  0  0  0  0  0  0  0
  147.8684  154.6069  132.0525 H   0  0  0  0  0  0  0  0  0  0  0  0
  149.6000  155.0846  132.0525 H   0  0  0  0  0  0  0  0  0  0  0  0
  150.2642  157.3502  132.3692 H   0  0  0  0  0  0  0  0  0  0  0  0
  149.6057  159.7659  132.6331 H   0  0  0  0  0  0  0  0  0  0  0  0
  147.3719  161.4693  133.1926 H   0  0  0  0  0  0  0  0  0  0  0  0
  142.8160  159.9460  133.7440 H   0  0  0  0  0  0  0  0  0  0  0  0
  141.4911  157.1152  132.0868 H   0  0  0  0  0  0  0  0  0  0  0  0
  141.6872  157.4205  133.8453 H   0  0  0  0  0  0  0  0  0  0  0  0
  138.1500  158.5844  134.3154 H   0  0  0  0  0  0  0  0  0  0  0  0
  138.8211  156.0718  134.2055 H   0  0  0  0  0  0  0  0  0  0  0  0
  138.0249  156.8223  132.7808 H   0  0  0  0  0  0  0  0  0  0  0  0
  139.8015  156.5575  132.7808 H   0  0  0  0  0  0  0  0  0  0  0  0
  140.0810  160.0303  136.2631 H   0  0  0  0  0  0  0  0  0  0  0  0
  146.1595  156.1378  133.1969 H   0  0  0  0  0  0  0  0  0  0  0  0
  1  2  1  0
  2  3  2  0
  3  4  1  0
  4  5  2  0
  5  6  1  0
  6  7  2  0
  7  8  1  0
  8  9  1  0
  8 10  2  0
  7 11  1  0
 11 12  1  0
 12 13  2  0
 12 14  1  0
 14 15  1  0
 15 16  1  0
 16 17  1  0
 17 18  2  0
 17 19  1  0
 19 20  1  0
 19 21  1  0
 21 22  1  0
 22 23  2  0
 11 24  1  0
 24 25  2  0
 25  2  1  0
 24  5  1  0
  1 26  1  0
  1 27  1  0
  1 28  1  0
  3 29  1  0
  4 30  1  0
  6 31  1  0
  9 32  1  0
 15 33  1  0
 15 34  1  0
 19 35  1  1
 20 36  1  0
 20 37  1  0
 20 38  1  0
 22 39  1  0
 25 40  1  0
M  CHG  2   9  -1  21  -1
M  END
>  <UniqueID>  (73) 
73

>  <SMILES>  (73) 
Cc1ccc2cc(C([NH-])=O)n(C(=O)OCOC(=O)[C@@H](C)[N-]C=O)c2c1

>  <Energy>  (73) 
69.66031728104662

>  <Genealogy>  (73) 
Cc1ccc2cc(C([NH-])=O)n(C(=O)OCOC(=O)C(C)[N-]C=O)c2c1 (protonated)
Cc1ccc2cc(C([NH-])=O)n(C(=O)OCOC(=O)[C@@H](C)[N-]C=O)c2c1 (chirality)
Cc1ccc2cc(C([NH-])=O)n(C(=O)OCOC(=O)[C@@H](C)[N-]C=O)c2c1 (3D coordinates assigned)
Cc1ccc2cc(C([NH-])=O)n(C(=O)OCOC(=O)[C@@H](C)[N-]C=O)c2c1 (optimized conformer: 69.66031728104662 kcal/mol)

>  <smiles>  (73) 
Cc1ccc2cc(C(N)=O)n(C(=O)OCOC(=O)C(C)NC=O)c2c1

>  <score_type>  (73) 
oracle

>  <origin>  (73) 
adg

>  <m_score__min__energy>  (73) 
-6.75

>  <m_primary>  (73) 
energy

$$$$
74:0
     RDKit          3D

 45 46  0  0  0  0  0  0  0  0999 V2000
  147.7440  155.8480  135.1760 C   0  0  0  0  0  0  0  0  0  0  0  0
  147.4910  154.4090  135.0330 N   0  0  0  0  0  0  0  0  0  0  0  0
  148.4470  153.5850  134.2730 C   0  0  0  0  0  0  0  0  0  0  0  0
  147.9970  153.4370  132.8210 C   0  0  0  0  0  0  0  0  0  0  0  0
  147.9100  154.7010  132.2270 O   0  0  0  0  0  0  0  0  0  0  0  0
  146.2790  153.8650  135.6130 C   0  0  0  0  0  0  0  0  0  0  0  0
  146.3380  153.2860  136.7320 O   0  0  0  0  0  0  0  0  0  0  0  0
  144.9260  153.9680  134.9440 C   0  0  0  0  0  0  0  0  0  0  0  0
  144.4130  155.4130  134.9000 C   0  0  0  0  0  0  0  0  0  0  0  0
  144.8760  156.1250  133.6580 C   0  0  0  0  0  0  0  0  0  0  0  0
  145.2960  155.4500  132.6800 O   0  0  0  0  0  0  0  0  0  0  0  0
  144.7330  157.5480  133.5290 N   0  0  0  0  0  0  0  0  0  0  0  0
  145.7100  158.4710  133.3080 C   0  0  0  0  0  0  0  0  0  0  0  0
  147.1070  158.1600  132.9340 C   0  0  0  0  0  0  0  0  0  0  0  0
  147.4100  157.0460  132.0930 N   0  0  0  0  0  0  0  0  0  0  0  0
  148.0490  158.8650  133.3830 O   0  0  0  0  0  0  0  0  0  0  0  0
  145.1850  159.7610  133.3760 C   0  0  0  0  0  0  0  0  0  0  0  0
  143.8450  159.5950  133.6420 C   0  0  0  0  0  0  0  0  0  0  0  0
  142.8430  160.5420  133.8280 C   0  0  0  0  0  0  0  0  0  0  0  0
  141.5480  160.0830  134.1210 C   0  0  0  0  0  0  0  0  0  0  0  0
  141.2780  158.6950  134.2330 C   0  0  0  0  0  0  0  0  0  0  0  0
  139.8750  158.2340  134.5370 C   0  0  0  0  0  0  0  0  0  0  0  0
  138.9900  158.7930  133.6310 F   0  0  0  0  0  0  0  0  0  0  0  0
  139.4840  158.6030  135.8130 F   0  0  0  0  0  0  0  0  0  0  0  0
  139.8160  156.8570  134.4330 F   0  0  0  0  0  0  0  0  0  0  0  0
  142.3190  157.7630  134.0110 C   0  0  0  0  0  0  0  0  0  0  0  0
  143.5980  158.2510  133.7240 C   0  0  0  0  0  0  0  0  0  0  0  0
  147.7897  156.1079  136.2439 H   0  0  0  0  0  0  0  0  0  0  0  0
  148.7005  156.1016  134.6956 H   0  0  0  0  0  0  0  0  0  0  0  0
  146.9314  156.4127  134.6956 H   0  0  0  0  0  0  0  0  0  0  0  0
  149.4365  154.0650  134.2972 H   0  0  0  0  0  0  0  0  0  0  0  0
  148.4959  152.5864  134.7316 H   0  0  0  0  0  0  0  0  0  0  0  0
  148.7266  152.8236  132.2720 H   0  0  0  0  0  0  0  0  0  0  0  0
  147.0112  152.9499  132.7912 H   0  0  0  0  0  0  0  0  0  0  0  0
  147.0760  154.6950  131.6880 H   0  0  0  0  0  0  0  0  0  0  0  0
  145.0096  153.5897  133.9145 H   0  0  0  0  0  0  0  0  0  0  0  0
  144.2114  153.3724  135.5311 H   0  0  0  0  0  0  0  0  0  0  0  0
  143.3132  155.4025  134.9170 H   0  0  0  0  0  0  0  0  0  0  0  0
  144.8131  155.9480  135.7739 H   0  0  0  0  0  0  0  0  0  0  0  0
  146.6550  156.4670  131.6660 H   0  0  0  0  0  0  0  0  0  0  0  0
  148.4030  156.8150  131.8690 H   0  0  0  0  0  0  0  0  0  0  0  0
  145.7266  160.7094  133.2449 H   0  0  0  0  0  0  0  0  0  0  0  0
  143.0582  161.6178  133.7481 H   0  0  0  0  0  0  0  0  0  0  0  0
  140.7338  160.8085  134.2653 H   0  0  0  0  0  0  0  0  0  0  0  0
  142.1272  156.6811  134.0628 H   0  0  0  0  0  0  0  0  0  0  0  0
  1  2  1  0
  2  3  1  0
  3  4  1  0
  4  5  1  0
  2  6  1  0
  6  7  2  0
  6  8  1  0
  8  9  1  0
  9 10  1  0
 10 11  2  0
 10 12  1  0
 12 13  1  0
 13 14  1  0
 14 15  1  0
 14 16  2  0
 13 17  2  0
 17 18  1  0
 18 19  2  0
 19 20  1  0
 20 21  2  0
 21 22  1  0
 22 23  1  0
 22 24  1  0
 22 25  1  0
 21 26  1  0
 26 27  2  0
 27 12  1  0
 27 18  1  0
  1 28  1  0
  1 29  1  0
  1 30  1  0
  3 31  1  0
  3 32  1  0
  4 33  1  0
  4 34  1  0
  5 35  1  0
  8 36  1  0
  8 37  1  0
  9 38  1  0
  9 39  1  0
 15 40  1  0
 15 41  1  0
 17 42  1  0
 19 43  1  0
 20 44  1  0
 26 45  1  0
M  END
>  <UniqueID>  (74) 
74

>  <SMILES>  (74) 
CN(CCO)C(=O)CCC(=O)n1c(C(N)=O)cc2ccc(C(F)(F)F)cc21

>  <Energy>  (74) 
74.74303482726299

>  <Genealogy>  (74) 
CN(CCO)C(=O)CCC(=O)n1c(C(N)=O)cc2ccc(C(F)(F)F)cc21 (3D coordinates assigned)
CN(CCO)C(=O)CCC(=O)n1c(C(N)=O)cc2ccc(C(F)(F)F)cc21 (optimized conformer: 74.74303482726299 kcal/mol)

>  <smiles>  (74) 
CN(CCO)C(=O)CCC(=O)n1c(C(N)=O)cc2ccc(C(F)(F)F)cc21

>  <score_type>  (74) 
oracle

>  <origin>  (74) 
adg

>  <m_score__min__energy>  (74) 
-6.7300000000000004

>  <m_primary>  (74) 
energy

$$$$
75:0
     RDKit          3D

 44 45  0  0  0  0  0  0  0  0999 V2000
  139.1720  158.9780  132.8980 C   0  0  0  0  0  0  0  0  0  0  0  0
  139.8170  158.1680  133.9490 N   0  0  1  0  0  0  0  0  0  0  0  0
  139.1090  158.2340  135.2490 C   0  0  0  0  0  0  0  0  0  0  0  0
  139.9960  157.9400  136.4750 C   0  0  0  0  0  0  0  0  0  0  0  0
  141.3300  158.2630  136.1880 O   0  0  0  0  0  0  0  0  0  0  0  0
  140.0310  156.8020  133.5300 C   0  0  0  0  0  0  0  0  0  0  0  0
  139.2590  156.2530  132.6930 O   0  0  0  0  0  0  0  0  0  0  0  0
  141.0790  156.0710  134.0990 O   0  0  0  0  0  0  0  0  0  0  0  0
  141.8490  155.1280  133.3620 C   0  0  0  0  0  0  0  0  0  0  0  0
  143.2120  155.5360  133.3370 O   0  0  0  0  0  0  0  0  0  0  0  0
  143.7310  156.5030  134.2040 C   0  0  0  0  0  0  0  0  0  0  0  0
  143.2800  156.6140  135.3760 O   0  0  0  0  0  0  0  0  0  0  0  0
  144.8000  157.3560  133.7640 N   0  0  0  0  0  0  0  0  0  0  0  0
  144.7490  158.6970  133.5210 C   0  0  0  0  0  0  0  0  0  0  0  0
  143.6070  159.5880  133.8130 C   0  0  0  0  0  0  0  0  0  0  0  0
  142.2890  159.0510  133.8880 N   0  0  0  0  0  0  0  0  0  0  0  0
  143.7770  160.8270  133.9600 O   0  0  0  0  0  0  0  0  0  0  0  0
  145.9720  159.1500  133.0290 C   0  0  0  0  0  0  0  0  0  0  0  0
  146.7810  158.0380  132.9800 C   0  0  0  0  0  0  0  0  0  0  0  0
  148.1030  157.9120  132.5680 C   0  0  0  0  0  0  0  0  0  0  0  0
  148.6850  156.6340  132.6040 C   0  0  0  0  0  0  0  0  0  0  0  0
  147.9340  155.5060  133.0250 C   0  0  0  0  0  0  0  0  0  0  0  0
  148.5800  154.1450  133.0940 C   0  0  0  0  0  0  0  0  0  0  0  0
  149.8910  154.2030  132.6500 F   0  0  0  0  0  0  0  0  0  0  0  0
  148.5680  153.7030  134.4040 F   0  0  0  0  0  0  0  0  0  0  0  0
  147.8960  153.2370  132.3050 F   0  0  0  0  0  0  0  0  0  0  0  0
  146.5990  155.6810  133.4580 C   0  0  0  0  0  0  0  0  0  0  0  0
  146.0510  156.9680  133.4280 C   0  0  0  0  0  0  0  0  0  0  0  0
  138.5515  159.7572  133.3646 H   0  0  0  0  0  0  0  0  0  0  0  0
  139.9444  159.4498  132.2729 H   0  0  0  0  0  0  0  0  0  0  0  0
  138.5392  158.3309  132.2729 H   0  0  0  0  0  0  0  0  0  0  0  0
  140.7650  158.5880  134.1020 H   0  0  0  0  0  0  0  0  0  0  0  0
  138.6910  159.2452  135.3618 H   0  0  0  0  0  0  0  0  0  0  0  0
  138.3376  157.4502  135.2255 H   0  0  0  0  0  0  0  0  0  0  0  0
  139.6504  158.5424  137.3280 H   0  0  0  0  0  0  0  0  0  0  0  0
  139.9279  156.8705  136.7229 H   0  0  0  0  0  0  0  0  0  0  0  0
  141.6040  157.6890  135.4260 H   0  0  0  0  0  0  0  0  0  0  0  0
  141.7718  154.1401  133.8395 H   0  0  0  0  0  0  0  0  0  0  0  0
  141.4669  155.0715  132.3320 H   0  0  0  0  0  0  0  0  0  0  0  0
  142.1290  158.0620  134.1840 H   0  0  0  0  0  0  0  0  0  0  0  0
  146.2348  160.1786  132.7409 H   0  0  0  0  0  0  0  0  0  0  0  0
  148.6755  158.7862  132.2244 H   0  0  0  0  0  0  0  0  0  0  0  0
  149.7351  156.5062  132.3024 H   0  0  0  0  0  0  0  0  0  0  0  0
  146.0051  154.8248  133.8103 H   0  0  0  0  0  0  0  0  0  0  0  0
  1  2  1  0
  2  3  1  0
  3  4  1  0
  4  5  1  0
  2  6  1  0
  6  7  2  0
  6  8  1  0
  8  9  1  0
  9 10  1  0
 10 11  1  0
 11 12  2  0
 11 13  1  0
 13 14  1  0
 14 15  1  0
 15 16  1  0
 15 17  2  0
 14 18  2  0
 18 19  1  0
 19 20  2  0
 20 21  1  0
 21 22  2  0
 22 23  1  0
 23 24  1  0
 23 25  1  0
 23 26  1  0
 22 27  1  0
 27 28  2  0
 28 13  1  0
 28 19  1  0
  1 29  1  0
  1 30  1  0
  1 31  1  0
  2 32  1  1
  3 33  1  0
  3 34  1  0
  4 35  1  0
  4 36  1  0
  5 37  1  0
  9 38  1  0
  9 39  1  0
 16 40  1  0
 18 41  1  0
 20 42  1  0
 21 43  1  0
 27 44  1  0
M  CHG  2   2   1  16  -1
M  END
>  <UniqueID>  (75) 
75

>  <SMILES>  (75) 
C[N@@H+](CCO)C(=O)OCOC(=O)n1c(C([NH-])=O)cc2ccc(C(F)(F)F)cc21

>  <Energy>  (75) 
82.83873291376308

>  <Genealogy>  (75) 
C[NH+](CCO)C(=O)OCOC(=O)n1c(C([NH-])=O)cc2ccc(C(F)(F)F)cc21 (protonated)
C[N@@H+](CCO)C(=O)OCOC(=O)n1c(C([NH-])=O)cc2ccc(C(F)(F)F)cc21 (chirality)
C[N@@H+](CCO)C(=O)OCOC(=O)n1c(C([NH-])=O)cc2ccc(C(F)(F)F)cc21 (3D coordinates assigned)
C[N@@H+](CCO)C(=O)OCOC(=O)n1c(C([NH-])=O)cc2ccc(C(F)(F)F)cc21 (optimized conformer: 82.83873291376308 kcal/mol)

>  <smiles>  (75) 
CN(CCO)C(=O)OCOC(=O)n1c(C(N)=O)cc2ccc(C(F)(F)F)cc21

>  <score_type>  (75) 
oracle

>  <origin>  (75) 
adg

>  <m_score__min__energy>  (75) 
-4.1900000000000004

>  <m_primary>  (75) 
energy

$$$$
76:0
     RDKit          3D

 51 52  0  0  0  0  0  0  0  0999 V2000
  142.9410  161.3340  133.2090 H   0  0  0  0  0  0  0  0  0  0  0  0
  143.6020  162.1160  133.4110 N   0  0  0  0  0  0  0  0  0  0  0  0
  144.8430  161.8760  134.0700 C   0  0  0  0  0  0  0  0  0  0  0  0
  145.2320  162.6770  134.9610 O   0  0  0  0  0  0  0  0  0  0  0  0
  145.6410  160.6810  133.7270 C   0  0  0  0  0  0  0  0  0  0  0  0
  146.9890  160.7250  133.3790 C   0  0  0  0  0  0  0  0  0  0  0  0
  147.6384  161.6118  133.3357 H   0  0  0  0  0  0  0  0  0  0  0  0
  147.3350  159.4230  133.1010 C   0  0  0  0  0  0  0  0  0  0  0  0
  148.5620  158.8850  132.7240 C   0  0  0  0  0  0  0  0  0  0  0  0
  149.4424  159.5281  132.5778 H   0  0  0  0  0  0  0  0  0  0  0  0
  148.6410  157.4950  132.5360 C   0  0  0  0  0  0  0  0  0  0  0  0
  149.5965  157.0396  132.2366 H   0  0  0  0  0  0  0  0  0  0  0  0
  147.5030  156.6740  132.7280 C   0  0  0  0  0  0  0  0  0  0  0  0
  147.6250  155.1860  132.5680 C   0  0  0  0  0  0  0  0  0  0  0  0
  146.8517  154.6900  133.1730 H   0  0  0  0  0  0  0  0  0  0  0  0
  147.4936  154.9251  131.5075 H   0  0  0  0  0  0  0  0  0  0  0  0
  148.8730  154.7660  132.9870 F   0  0  0  0  0  0  0  0  0  0  0  0
  146.2750  157.2550  133.1150 C   0  0  0  0  0  0  0  0  0  0  0  0
  145.3847  156.6316  133.2847 H   0  0  0  0  0  0  0  0  0  0  0  0
  146.2200  158.6440  133.2770 C   0  0  0  0  0  0  0  0  0  0  0  0
  145.1690  159.4050  133.6560 N   0  0  0  0  0  0  0  0  0  0  0  0
  143.8950  158.9250  134.1170 C   0  0  0  0  0  0  0  0  0  0  0  0
  143.0850  159.7350  134.6430 O   0  0  0  0  0  0  0  0  0  0  0  0
  143.5430  157.4960  134.0930 C   0  0  0  0  0  0  0  0  0  0  0  0
  144.1668  156.8116  134.6867 H   0  0  0  0  0  0  0  0  0  0  0  0
  142.5250  156.9620  133.4070 C   0  0  0  0  0  0  0  0  0  0  0  0
  142.4219  155.8671  133.4299 H   0  0  0  0  0  0  0  0  0  0  0  0
  141.5070  157.7350  132.6050 C   0  0  0  0  0  0  0  0  0  0  0  0
  140.8748  157.0212  132.0566 H   0  0  0  0  0  0  0  0  0  0  0  0
  142.0561  158.3992  131.9213 H   0  0  0  0  0  0  0  0  0  0  0  0
  140.6440  158.5780  133.4480 N   0  0  0  0  0  0  0  0  0  0  0  0
  140.1250  159.8320  132.9630 C   0  0  0  0  0  0  0  0  0  0  0  0
  140.8560  160.8600  132.9860 O   0  0  0  0  0  0  0  0  0  0  0  0
  138.8090  159.9020  132.4790 O   0  0  0  0  0  0  0  0  0  0  0  0
  138.3840  159.6850  131.1270 C   0  0  0  0  0  0  0  0  0  0  0  0
  138.7760  158.2480  130.7550 C   0  0  0  0  0  0  0  0  0  0  0  0
  138.9358  157.6624  131.6723 H   0  0  0  0  0  0  0  0  0  0  0  0
  137.9701  157.7896  130.1631 H   0  0  0  0  0  0  0  0  0  0  0  0
  139.7030  158.2624  130.1631 H   0  0  0  0  0  0  0  0  0  0  0  0
  136.8550  159.8330  131.0070 C   0  0  0  0  0  0  0  0  0  0  0  0
  136.4108  159.8760  132.0124 H   0  0  0  0  0  0  0  0  0  0  0  0
  136.6179  160.7583  130.4615 H   0  0  0  0  0  0  0  0  0  0  0  0
  136.4448  158.9704  130.4615 H   0  0  0  0  0  0  0  0  0  0  0  0
  139.1020  160.6590  130.1740 C   0  0  0  0  0  0  0  0  0  0  0  0
  139.6537  161.4074  130.7619 H   0  0  0  0  0  0  0  0  0  0  0  0
  139.8055  160.0997  129.5398 H   0  0  0  0  0  0  0  0  0  0  0  0
  138.3596  161.1655  129.5398 H   0  0  0  0  0  0  0  0  0  0  0  0
  140.0560  158.0100  134.6650 C   0  0  0  0  0  0  0  0  0  0  0  0
  140.5281  158.4661  135.5477 H   0  0  0  0  0  0  0  0  0  0  0  0
  138.9753  158.2148  134.6802 H   0  0  0  0  0  0  0  0  0  0  0  0
  140.2234  156.9229  134.6802 H   0  0  0  0  0  0  0  0  0  0  0  0
  1  2  1  0
  2  3  1  0
  3  4  2  0
  3  5  1  0
  5  6  2  0
  6  7  1  0
  6  8  1  0
  8  9  2  0
  9 10  1  0
  9 11  1  0
 11 12  1  0
 11 13  2  0
 13 14  1  0
 14 15  1  0
 14 16  1  0
 14 17  1  0
 13 18  1  0
 18 19  1  0
 18 20  2  0
 20 21  1  0
 21 22  1  0
 22 23  2  0
 22 24  1  0
 24 25  1  0
 24 26  2  0
 26 27  1  0
 26 28  1  0
 28 29  1  0
 28 30  1  0
 28 31  1  0
 31 32  1  0
 32 33  2  0
 32 34  1  0
 34 35  1  0
 35 36  1  0
 36 37  1  0
 36 38  1  0
 36 39  1  0
 35 40  1  0
 40 41  1  0
 40 42  1  0
 40 43  1  0
 35 44  1  0
 44 45  1  0
 44 46  1  0
 44 47  1  0
 31 48  1  0
 48 49  1  0
 48 50  1  0
 48 51  1  0
 21  5  1  0
 20  8  1  0
M  CHG  1   2  -1
M  END
>  <UniqueID>  (76) 
76

>  <SMILES>  (76) 
CN(C/C=C\C(=O)n1c(C([NH-])=O)cc2ccc(CF)cc21)C(=O)OC(C)(C)C

>  <Energy>  (76) 
82.22767501853494

>  <Genealogy>  (76) 
CN(CC=CC(=O)n1c(C([NH-])=O)cc2ccc(CF)cc21)C(=O)OC(C)(C)C (protonated)
CN(C/C=C\C(=O)n1c(C([NH-])=O)cc2ccc(CF)cc21)C(=O)OC(C)(C)C (cis-trans isomerization)
CN(C/C=C\C(=O)n1c(C([NH-])=O)cc2ccc(CF)cc21)C(=O)OC(C)(C)C (3D coordinates assigned)
CN(C/C=C\C(=O)n1c(C([NH-])=O)cc2ccc(CF)cc21)C(=O)OC(C)(C)C (optimized conformer: 82.22767501853494 kcal/mol)

>  <smiles>  (76) 
CN(CC=CC(=O)n1c(C(N)=O)cc2ccc(CF)cc21)C(=O)OC(C)(C)C

>  <score_type>  (76) 
oracle

>  <origin>  (76) 
adg

>  <m_score__min__energy>  (76) 
-7.6799999999999997

>  <m_primary>  (76) 
energy

$$$$
77:0
     RDKit          3D

 39 40  0  0  0  0  0  0  0  0999 V2000
  145.0700  160.7340  133.7230 C   0  0  0  0  0  0  0  0  0  0  0  0
  146.1130  159.7170  133.3700 C   0  0  0  0  0  0  0  0  0  0  0  0
  147.3030  160.1180  132.7160 C   0  0  0  0  0  0  0  0  0  0  0  0
  148.2980  159.1770  132.4020 C   0  0  0  0  0  0  0  0  0  0  0  0
  148.0840  157.8520  132.7710 C   0  0  0  0  0  0  0  0  0  0  0  0
  148.8700  156.7410  132.5720 C   0  0  0  0  0  0  0  0  0  0  0  0
  148.1650  155.6840  133.1450 C   0  0  0  0  0  0  0  0  0  0  0  0
  148.6970  154.3070  133.2330 C   0  0  0  0  0  0  0  0  0  0  0  0
  148.1390  153.3610  134.1390 N   0  0  0  0  0  0  0  0  0  0  0  0
  149.6910  153.9780  132.5320 O   0  0  0  0  0  0  0  0  0  0  0  0
  146.9850  156.1230  133.6680 N   0  0  0  0  0  0  0  0  0  0  0  0
  145.9410  155.3420  134.2700 C   0  0  0  0  0  0  0  0  0  0  0  0
  144.9730  154.9360  133.5700 O   0  0  0  0  0  0  0  0  0  0  0  0
  145.9890  155.0560  135.6380 O   0  0  0  0  0  0  0  0  0  0  0  0
  145.6600  153.7790  136.1690 C   0  0  0  0  0  0  0  0  0  0  0  0
  146.8240  153.2030  136.7490 O   0  0  0  0  0  0  0  0  0  0  0  0
  147.9050  153.9700  137.1940 C   0  0  0  0  0  0  0  0  0  0  0  0
  148.3300  154.9300  136.4950 O   0  0  0  0  0  0  0  0  0  0  0  0
  148.5260  153.6640  138.4540 N   0  0  0  0  0  0  0  0  0  0  0  0
  149.9810  153.7350  138.5760 C   0  0  0  0  0  0  0  0  0  0  0  0
  147.5600  153.1500  139.8070 S   0  0  0  0  0  0  0  0  0  0  0  0
  146.5210  152.1680  139.3450 O   0  0  0  0  0  0  0  0  0  0  0  0
  148.4410  152.5030  140.8370 O   0  0  0  0  0  0  0  0  0  0  0  0
  146.7750  154.4670  140.4970 O   0  0  0  0  0  0  0  0  0  0  0  0
  146.9520  157.4540  133.4340 C   0  0  0  0  0  0  0  0  0  0  0  0
  145.9360  158.3660  133.7430 C   0  0  0  0  0  0  0  0  0  0  0  0
  144.9897  160.8123  134.8173 H   0  0  0  0  0  0  0  0  0  0  0  0
  145.3544  161.7111  133.3054 H   0  0  0  0  0  0  0  0  0  0  0  0
  144.1004  160.4250  133.3054 H   0  0  0  0  0  0  0  0  0  0  0  0
  147.4498  161.1756  132.4514 H   0  0  0  0  0  0  0  0  0  0  0  0
  149.2184  159.4783  131.8803 H   0  0  0  0  0  0  0  0  0  0  0  0
  149.8468  156.6962  132.0681 H   0  0  0  0  0  0  0  0  0  0  0  0
  147.5230  153.6680  134.9250 H   0  0  0  0  0  0  0  0  0  0  0  0
  144.8811  153.8892  136.9379 H   0  0  0  0  0  0  0  0  0  0  0  0
  145.2853  153.1283  135.3651 H   0  0  0  0  0  0  0  0  0  0  0  0
  150.2595  153.7486  139.6401 H   0  0  0  0  0  0  0  0  0  0  0  0
  150.4330  152.8578  138.0899 H   0  0  0  0  0  0  0  0  0  0  0  0
  150.3454  154.6520  138.0899 H   0  0  0  0  0  0  0  0  0  0  0  0
  145.0234  158.0391  134.2628 H   0  0  0  0  0  0  0  0  0  0  0  0
  1  2  1  0
  2  3  2  0
  3  4  1  0
  4  5  2  0
  5  6  1  0
  6  7  2  0
  7  8  1  0
  8  9  1  0
  8 10  2  0
  7 11  1  0
 11 12  1  0
 12 13  2  0
 12 14  1  0
 14 15  1  0
 15 16  1  0
 16 17  1  0
 17 18  2  0
 17 19  1  0
 19 20  1  0
 19 21  1  0
 21 22  2  0
 21 23  2  0
 21 24  1  0
 11 25  1  0
 25 26  2  0
 26  2  1  0
 25  5  1  0
  1 27  1  0
  1 28  1  0
  1 29  1  0
  3 30  1  0
  4 31  1  0
  6 32  1  0
  9 33  1  0
 15 34  1  0
 15 35  1  0
 20 36  1  0
 20 37  1  0
 20 38  1  0
 26 39  1  0
M  CHG  2   9  -1  24  -1
M  END
>  <UniqueID>  (77) 
77

>  <SMILES>  (77) 
Cc1ccc2cc(C([NH-])=O)n(C(=O)OCOC(=O)N(C)S(=O)(=O)[O-])c2c1

>  <Energy>  (77) 
72.98432426677437

>  <Genealogy>  (77) 
Cc1ccc2cc(C([NH-])=O)n(C(=O)OCOC(=O)N(C)S(=O)(=O)[O-])c2c1 (protonated)
Cc1ccc2cc(C([NH-])=O)n(C(=O)OCOC(=O)N(C)S(=O)(=O)[O-])c2c1 (3D coordinates assigned)
Cc1ccc2cc(C([NH-])=O)n(C(=O)OCOC(=O)N(C)S(=O)(=O)[O-])c2c1 (optimized conformer: 72.98432426677437 kcal/mol)

>  <smiles>  (77) 
Cc1ccc2cc(C(N)=O)n(C(=O)OCOC(=O)N(C)S(=O)(=O)O)c2c1

>  <score_type>  (77) 
oracle

>  <origin>  (77) 
adg

>  <m_score__min__energy>  (77) 
-6.9100000000000001

>  <m_primary>  (77) 
energy

$$$$
78:0
     RDKit          3D

 40 41  0  0  0  0  0  0  0  0999 V2000
  148.2130  153.7120  134.2510 N   0  0  0  0  0  0  0  0  0  0  0  0
  148.4890  154.7150  133.2780 C   0  0  0  0  0  0  0  0  0  0  0  0
  149.4770  154.5730  132.5100 O   0  0  0  0  0  0  0  0  0  0  0  0
  147.6690  155.9420  133.1950 C   0  0  0  0  0  0  0  0  0  0  0  0
  148.0670  157.0830  132.5010 C   0  0  0  0  0  0  0  0  0  0  0  0
  147.0860  158.0170  132.7420 C   0  0  0  0  0  0  0  0  0  0  0  0
  146.9620  159.3230  132.2790 C   0  0  0  0  0  0  0  0  0  0  0  0
  145.8220  160.0510  132.6590 C   0  0  0  0  0  0  0  0  0  0  0  0
  144.8350  159.4710  133.4970 C   0  0  0  0  0  0  0  0  0  0  0  0
  143.5870  160.2410  133.8480 C   0  0  0  0  0  0  0  0  0  0  0  0
  143.8080  161.6030  133.7410 F   0  0  0  0  0  0  0  0  0  0  0  0
  142.5490  159.9020  132.9970 F   0  0  0  0  0  0  0  0  0  0  0  0
  143.2210  159.9450  135.1480 F   0  0  0  0  0  0  0  0  0  0  0  0
  144.9870  158.1320  133.9260 C   0  0  0  0  0  0  0  0  0  0  0  0
  146.1420  157.4360  133.5480 C   0  0  0  0  0  0  0  0  0  0  0  0
  146.4820  156.1590  133.8310 N   0  0  0  0  0  0  0  0  0  0  0  0
  145.6990  155.2200  134.5830 C   0  0  0  0  0  0  0  0  0  0  0  0
  144.7590  154.5980  134.0190 O   0  0  0  0  0  0  0  0  0  0  0  0
  145.9750  155.0270  135.9450 O   0  0  0  0  0  0  0  0  0  0  0  0
  145.8850  153.8030  136.6180 C   0  0  0  0  0  0  0  0  0  0  0  0
  144.7940  153.4150  137.1140 O   0  0  0  0  0  0  0  0  0  0  0  0
  147.0630  152.9930  136.7210 N   0  0  0  0  0  0  0  0  0  0  0  0
  148.0420  152.9810  137.8140 C   0  0  1  0  0  0  0  0  0  0  0  0
  148.8440  154.2930  137.8590 C   0  0  0  0  0  0  0  0  0  0  0  0
  148.5000  155.1360  136.7950 O   0  0  0  0  0  0  0  0  0  0  0  0
  147.4040  152.6330  139.1740 C   0  0  0  0  0  0  0  0  0  0  0  0
  147.7630  153.6460  140.2190 C   0  0  0  0  0  0  0  0  0  0  0  0
  146.9740  154.5920  140.4800 O   0  0  0  0  0  0  0  0  0  0  0  0
  148.9860  153.5690  140.8720 O   0  0  0  0  0  0  0  0  0  0  0  0
  147.7000  153.9430  135.1310 H   0  0  0  0  0  0  0  0  0  0  0  0
  148.9730  157.2099  131.8903 H   0  0  0  0  0  0  0  0  0  0  0  0
  147.7328  159.7719  131.6352 H   0  0  0  0  0  0  0  0  0  0  0  0
  145.6931  161.0835  132.3023 H   0  0  0  0  0  0  0  0  0  0  0  0
  144.2153  157.6481  134.5427 H   0  0  0  0  0  0  0  0  0  0  0  0
  148.7554  152.1710  137.6019 H   0  0  0  0  0  0  0  0  0  0  0  0
  148.6340  154.8091  138.8075 H   0  0  0  0  0  0  0  0  0  0  0  0
  149.9135  154.0493  137.7773 H   0  0  0  0  0  0  0  0  0  0  0  0
  147.9420  154.5920  136.1810 H   0  0  0  0  0  0  0  0  0  0  0  0
  146.3102  152.6073  139.0606 H   0  0  0  0  0  0  0  0  0  0  0  0
  147.7850  151.6524  139.4955 H   0  0  0  0  0  0  0  0  0  0  0  0
  1  2  1  0
  2  3  2  0
  2  4  1  0
  4  5  2  0
  5  6  1  0
  6  7  2  0
  7  8  1  0
  8  9  2  0
  9 10  1  0
 10 11  1  0
 10 12  1  0
 10 13  1  0
  9 14  1  0
 14 15  2  0
 15 16  1  0
 16 17  1  0
 17 18  2  0
 17 19  1  0
 19 20  1  0
 20 21  2  0
 20 22  1  0
 22 23  1  0
 23 24  1  0
 24 25  1  0
 23 26  1  0
 26 27  1  0
 27 28  2  0
 27 29  1  0
 16  4  1  0
 15  6  1  0
  1 30  1  0
  5 31  1  0
  7 32  1  0
  8 33  1  0
 14 34  1  0
 23 35  1  6
 24 36  1  0
 24 37  1  0
 25 38  1  0
 26 39  1  0
 26 40  1  0
M  CHG  3   1  -1  22  -1  29  -1
M  END
>  <UniqueID>  (78) 
78

>  <SMILES>  (78) 
[NH-]C(=O)c1cc2ccc(C(F)(F)F)cc2n1C(=O)OC(=O)[N-][C@@H](CO)CC(=O)[O-]

>  <Energy>  (78) 
77.89133283496179

>  <Genealogy>  (78) 
[NH-]C(=O)c1cc2ccc(C(F)(F)F)cc2n1C(=O)OC(=O)[N-]C(CO)CC(=O)[O-] (protonated)
[NH-]C(=O)c1cc2ccc(C(F)(F)F)cc2n1C(=O)OC(=O)[N-][C@@H](CO)CC(=O)[O-] (chirality)
[NH-]C(=O)c1cc2ccc(C(F)(F)F)cc2n1C(=O)OC(=O)[N-][C@@H](CO)CC(=O)[O-] (3D coordinates assigned)
[NH-]C(=O)c1cc2ccc(C(F)(F)F)cc2n1C(=O)OC(=O)[N-][C@@H](CO)CC(=O)[O-] (optimized conformer: 77.89133283496179 kcal/mol)

>  <smiles>  (78) 
NC(=O)c1cc2ccc(C(F)(F)F)cc2n1C(=O)OC(=O)NC(CO)CC(=O)O

>  <score_type>  (78) 
oracle

>  <origin>  (78) 
adg

>  <m_score__min__energy>  (78) 
-6.3799999999999999

>  <m_primary>  (78) 
energy

$$$$
79:0
     RDKit          3D

 40 42  0  0  0  0  0  0  0  0999 V2000
  147.5320  152.9600  133.6750 N   0  0  0  0  0  0  0  0  0  0  0  0
  148.1840  154.0800  133.0740 C   0  0  0  0  0  0  0  0  0  0  0  0
  149.2430  153.9030  132.4100 O   0  0  0  0  0  0  0  0  0  0  0  0
  147.5900  155.4230  133.1510 C   0  0  0  0  0  0  0  0  0  0  0  0
  148.3290  156.5940  133.0200 C   0  0  0  0  0  0  0  0  0  0  0  0
  147.4250  157.6130  133.2100 C   0  0  0  0  0  0  0  0  0  0  0  0
  147.6170  158.9910  133.1970 C   0  0  0  0  0  0  0  0  0  0  0  0
  146.5030  159.8140  133.4310 C   0  0  0  0  0  0  0  0  0  0  0  0
  145.2180  159.2530  133.6470 C   0  0  0  0  0  0  0  0  0  0  0  0
  144.0450  160.1570  133.9360 C   0  0  0  0  0  0  0  0  0  0  0  0
  143.5550  159.8780  135.1990 F   0  0  0  0  0  0  0  0  0  0  0  0
  143.0320  159.9720  133.0110 F   0  0  0  0  0  0  0  0  0  0  0  0
  144.4390  161.4830  133.8880 F   0  0  0  0  0  0  0  0  0  0  0  0
  145.0680  157.8470  133.6730 C   0  0  0  0  0  0  0  0  0  0  0  0
  146.1990  157.0490  133.4620 C   0  0  0  0  0  0  0  0  0  0  0  0
  146.2870  155.6960  133.4400 N   0  0  0  0  0  0  0  0  0  0  0  0
  145.2690  154.7430  133.8080 C   0  0  0  0  0  0  0  0  0  0  0  0
  145.1360  154.4020  135.0150 O   0  0  0  0  0  0  0  0  0  0  0  0
  144.2870  154.2150  132.7970 C   0  0  0  0  0  0  0  0  0  0  0  0
  144.2160  152.7130  132.7940 C   0  0  0  0  0  0  0  0  0  0  0  0
  145.2630  152.0150  132.7180 O   0  0  0  0  0  0  0  0  0  0  0  0
  142.9440  152.0640  132.8130 N   0  0  0  0  0  0  0  0  0  0  0  0
  141.5210  152.4530  132.8660 C   0  0  0  0  0  0  0  0  0  0  0  0
  140.9770  151.0600  132.8430 C   0  0  0  0  0  0  0  0  0  0  0  0
  140.3200  150.7740  131.6380 O   0  0  0  0  0  0  0  0  0  0  0  0
  142.4260  150.6830  132.8060 C   0  0  0  0  0  0  0  0  0  0  0  0
  146.5880  153.0630  134.1090 H   0  0  0  0  0  0  0  0  0  0  0  0
  147.9650  152.0110  133.6240 H   0  0  0  0  0  0  0  0  0  0  0  0
  149.4048  156.6854  132.8097 H   0  0  0  0  0  0  0  0  0  0  0  0
  148.6111  159.4229  133.0092 H   0  0  0  0  0  0  0  0  0  0  0  0
  146.6285  160.9067  133.4470 H   0  0  0  0  0  0  0  0  0  0  0  0
  144.0840  157.3902  133.8551 H   0  0  0  0  0  0  0  0  0  0  0  0
  143.2895  154.6149  133.0317 H   0  0  0  0  0  0  0  0  0  0  0  0
  144.6270  154.5358  131.8013 H   0  0  0  0  0  0  0  0  0  0  0  0
  141.2627  152.9949  133.7877 H   0  0  0  0  0  0  0  0  0  0  0  0
  141.1608  153.1452  132.0906 H   0  0  0  0  0  0  0  0  0  0  0  0
  140.2546  150.6616  133.5706 H   0  0  0  0  0  0  0  0  0  0  0  0
  140.3170  151.6250  131.1250 H   0  0  0  0  0  0  0  0  0  0  0  0
  142.7382  150.1074  133.6899 H   0  0  0  0  0  0  0  0  0  0  0  0
  142.7536  150.0280  131.9852 H   0  0  0  0  0  0  0  0  0  0  0  0
  1  2  1  0
  2  3  2  0
  2  4  1  0
  4  5  2  0
  5  6  1  0
  6  7  2  0
  7  8  1  0
  8  9  2  0
  9 10  1  0
 10 11  1  0
 10 12  1  0
 10 13  1  0
  9 14  1  0
 14 15  2  0
 15 16  1  0
 16 17  1  0
 17 18  2  0
 17 19  1  0
 19 20  1  0
 20 21  2  0
 20 22  1  0
 22 23  1  0
 23 24  1  0
 24 25  1  0
 24 26  1  0
 16  4  1  0
 26 22  1  0
 15  6  1  0
  1 27  1  0
  1 28  1  0
  5 29  1  0
  7 30  1  0
  8 31  1  0
 14 32  1  0
 19 33  1  0
 19 34  1  0
 23 35  1  0
 23 36  1  0
 24 37  1  0
 25 38  1  0
 26 39  1  0
 26 40  1  0
M  END
>  <UniqueID>  (79) 
79

>  <SMILES>  (79) 
NC(=O)c1cc2ccc(C(F)(F)F)cc2n1C(=O)CC(=O)N1CC(O)C1

>  <Energy>  (79) 
128.72482540454942

>  <Genealogy>  (79) 
NC(=O)c1cc2ccc(C(F)(F)F)cc2n1C(=O)CC(=O)N1CC(O)C1 (3D coordinates assigned)
NC(=O)c1cc2ccc(C(F)(F)F)cc2n1C(=O)CC(=O)N1CC(O)C1 (nonaromatic ring conformer: 128.72482540454942 kcal/mol)

>  <smiles>  (79) 
NC(=O)c1cc2ccc(C(F)(F)F)cc2n1C(=O)CC(=O)N1CC(O)C1

>  <score_type>  (79) 
oracle

>  <origin>  (79) 
adg

>  <m_score__min__energy>  (79) 
-7.29

>  <m_primary>  (79) 
energy

$$$$
80:0
     RDKit          3D

 39 40  0  0  0  0  0  0  0  0999 V2000
  138.7380  149.2280  130.6270 C   0  0  0  0  0  0  0  0  0  0  0  0
  139.3230  150.2540  131.3990 O   0  0  0  0  0  0  0  0  0  0  0  0
  140.4010  149.7430  132.1600 C   0  0  0  0  0  0  0  0  0  0  0  0
  140.9000  150.8020  133.1470 C   0  0  0  0  0  0  0  0  0  0  0  0
  140.5930  152.1480  132.6580 N   0  0  0  0  0  0  0  0  0  0  0  0
  141.4010  153.3140  132.9050 C   0  0  0  0  0  0  0  0  0  0  0  0
  142.8230  153.2530  132.9240 C   0  0  0  0  0  0  0  0  0  0  0  0
  143.5890  154.4080  133.1550 C   0  0  0  0  0  0  0  0  0  0  0  0
  142.9160  155.6080  133.3630 C   0  0  0  0  0  0  0  0  0  0  0  0
  143.4060  156.8740  133.5950 C   0  0  0  0  0  0  0  0  0  0  0  0
  142.2810  157.6890  133.7230 C   0  0  0  0  0  0  0  0  0  0  0  0
  142.3230  159.1300  134.0620 C   0  0  0  0  0  0  0  0  0  0  0  0
  142.0400  160.1240  133.0760 N   0  0  0  0  0  0  0  0  0  0  0  0
  142.6280  159.4930  135.2280 O   0  0  0  0  0  0  0  0  0  0  0  0
  141.1450  156.9510  133.5730 N   0  0  0  0  0  0  0  0  0  0  0  0
  139.7870  157.4120  133.5830 C   0  0  0  0  0  0  0  0  0  0  0  0
  139.1360  157.4120  134.6630 O   0  0  0  0  0  0  0  0  0  0  0  0
  139.1010  157.7910  132.3060 C   0  0  0  0  0  0  0  0  0  0  0  0
  139.6730  159.0700  131.7870 C   0  0  0  0  0  0  0  0  0  0  0  0
  139.5460  160.1350  132.4480 O   0  0  0  0  0  0  0  0  0  0  0  0
  140.3930  159.0790  130.5990 O   0  0  0  0  0  0  0  0  0  0  0  0
  141.5500  155.6830  133.3570 C   0  0  0  0  0  0  0  0  0  0  0  0
  140.7600  154.5540  133.1190 C   0  0  0  0  0  0  0  0  0  0  0  0
  138.3049  148.4684  131.2945 H   0  0  0  0  0  0  0  0  0  0  0  0
  137.9463  149.6527  129.9923 H   0  0  0  0  0  0  0  0  0  0  0  0
  139.5067  148.7630  129.9923 H   0  0  0  0  0  0  0  0  0  0  0  0
  140.0642  148.8566  132.7176 H   0  0  0  0  0  0  0  0  0  0  0  0
  141.2221  149.4698  131.4810 H   0  0  0  0  0  0  0  0  0  0  0  0
  140.4087  150.6499  134.1194 H   0  0  0  0  0  0  0  0  0  0  0  0
  141.9905  150.7030  133.2519 H   0  0  0  0  0  0  0  0  0  0  0  0
  139.7300  152.2550  132.0770 H   0  0  0  0  0  0  0  0  0  0  0  0
  143.3281  152.2904  132.7559 H   0  0  0  0  0  0  0  0  0  0  0  0
  144.6880  154.3649  133.1709 H   0  0  0  0  0  0  0  0  0  0  0  0
  144.4608  157.1781  133.6646 H   0  0  0  0  0  0  0  0  0  0  0  0
  142.1060  161.1370  133.3230 H   0  0  0  0  0  0  0  0  0  0  0  0
  141.7280  159.8670  132.1140 H   0  0  0  0  0  0  0  0  0  0  0  0
  139.2495  156.9953  131.5611 H   0  0  0  0  0  0  0  0  0  0  0  0
  138.0256  157.9236  132.4958 H   0  0  0  0  0  0  0  0  0  0  0  0
  139.6628  154.6301  133.0989 H   0  0  0  0  0  0  0  0  0  0  0  0
  1  2  1  0
  2  3  1  0
  3  4  1  0
  4  5  1  0
  5  6  1  0
  6  7  2  0
  7  8  1  0
  8  9  2  0
  9 10  1  0
 10 11  2  0
 11 12  1  0
 12 13  1  0
 12 14  2  0
 11 15  1  0
 15 16  1  0
 16 17  2  0
 16 18  1  0
 18 19  1  0
 19 20  2  0
 19 21  1  0
 15 22  1  0
 22 23  2  0
 23  6  1  0
 22  9  1  0
  1 24  1  0
  1 25  1  0
  1 26  1  0
  3 27  1  0
  3 28  1  0
  4 29  1  0
  4 30  1  0
  5 31  1  0
  7 32  1  0
  8 33  1  0
 10 34  1  0
 13 35  1  0
 13 36  1  0
 18 37  1  0
 18 38  1  0
 23 39  1  0
M  CHG  1  21  -1
M  END
>  <UniqueID>  (80) 
80

>  <SMILES>  (80) 
COCCNc1ccc2cc(C(N)=O)n(C(=O)CC(=O)[O-])c2c1

>  <Energy>  (80) 
76.0411118231806

>  <Genealogy>  (80) 
COCCNc1ccc2cc(C(N)=O)n(C(=O)CC(=O)[O-])c2c1 (protonated)
COCCNc1ccc2cc(C(N)=O)n(C(=O)CC(=O)[O-])c2c1 (3D coordinates assigned)
COCCNc1ccc2cc(C(N)=O)n(C(=O)CC(=O)[O-])c2c1 (optimized conformer: 76.0411118231806 kcal/mol)

>  <smiles>  (80) 
COCCNc1ccc2cc(C(N)=O)n(C(=O)CC(=O)O)c2c1

>  <score_type>  (80) 
oracle

>  <origin>  (80) 
adg

>  <m_score__min__energy>  (80) 
-6.7699999999999996

>  <m_primary>  (80) 
energy

$$$$
81:0
     RDKit          3D

 50 51  0  0  0  0  0  0  0  0999 V2000
  149.5970  157.4170  132.2370 C   0  0  0  0  0  0  0  0  0  0  0  0
  148.4790  158.3530  132.5750 C   0  0  0  0  0  0  0  0  0  0  0  0
  148.7030  159.7520  132.5640 C   0  0  0  0  0  0  0  0  0  0  0  0
  147.6780  160.6440  132.9240 C   0  0  0  0  0  0  0  0  0  0  0  0
  146.4480  160.1090  133.2940 C   0  0  0  0  0  0  0  0  0  0  0  0
  145.2960  160.7370  133.7110 C   0  0  0  0  0  0  0  0  0  0  0  0
  144.3910  159.7100  133.9780 C   0  0  0  0  0  0  0  0  0  0  0  0
  142.9880  159.9380  134.3820 C   0  0  0  0  0  0  0  0  0  0  0  0
  142.4980  159.3720  135.5950 N   0  0  0  0  0  0  0  0  0  0  0  0
  142.2250  160.6580  133.6860 O   0  0  0  0  0  0  0  0  0  0  0  0
  144.9630  158.4980  133.7360 N   0  0  0  0  0  0  0  0  0  0  0  0
  144.4040  157.1970  133.9660 C   0  0  0  0  0  0  0  0  0  0  0  0
  143.2750  157.0890  134.5190 O   0  0  0  0  0  0  0  0  0  0  0  0
  145.1330  156.0580  133.6050 O   0  0  0  0  0  0  0  0  0  0  0  0
  144.8280  155.2550  132.4650 C   0  0  0  0  0  0  0  0  0  0  0  0
  144.7410  153.7660  132.8270 C   0  0  0  0  0  0  0  0  0  0  0  0
  143.3670  153.3720  133.3720 C   0  0  0  0  0  0  0  0  0  0  0  0
  142.3630  153.8760  132.5210 O   0  0  0  0  0  0  0  0  0  0  0  0
  141.0920  154.4690  133.4900 P   0  0  1  0  0  0  0  0  0  0  0  0
  139.7980  153.8140  133.0630 O   0  0  0  0  0  0  0  0  0  0  0  0
  141.3770  154.0900  135.1140 O   0  0  0  0  0  0  0  0  0  0  0  0
  140.9590  156.1620  133.3280 O   0  0  0  0  0  0  0  0  0  0  0  0
  139.6600  156.4620  132.8760 C   0  0  0  0  0  0  0  0  0  0  0  0
  139.1690  157.7290  133.5630 C   0  0  0  0  0  0  0  0  0  0  0  0
  140.1450  158.1840  134.4640 O   0  0  0  0  0  0  0  0  0  0  0  0
  139.7490  157.5270  136.0310 P   0  0  0  0  0  0  0  0  0  0  0  0
  140.3270  158.8960  136.9280 O   0  0  0  0  0  0  0  0  0  0  0  0
  141.2170  156.6160  136.1810 O   0  0  0  0  0  0  0  0  0  0  0  0
  146.2170  158.7570  133.3130 C   0  0  0  0  0  0  0  0  0  0  0  0
  147.2210  157.8450  132.9720 C   0  0  0  0  0  0  0  0  0  0  0  0
  150.0505  157.0374  133.1645 H   0  0  0  0  0  0  0  0  0  0  0  0
  149.2045  156.5742  131.6490 H   0  0  0  0  0  0  0  0  0  0  0  0
  150.3576  157.9515  131.6490 H   0  0  0  0  0  0  0  0  0  0  0  0
  149.6882  160.1438  132.2710 H   0  0  0  0  0  0  0  0  0  0  0  0
  147.8432  161.7315  132.9135 H   0  0  0  0  0  0  0  0  0  0  0  0
  145.1256  161.8190  133.8121 H   0  0  0  0  0  0  0  0  0  0  0  0
  141.9560  158.4790  135.5890 H   0  0  0  0  0  0  0  0  0  0  0  0
  143.8621  155.5780  132.0494 H   0  0  0  0  0  0  0  0  0  0  0  0
  145.6358  155.3827  131.7293 H   0  0  0  0  0  0  0  0  0  0  0  0
  144.9456  153.1715  131.9244 H   0  0  0  0  0  0  0  0  0  0  0  0
  145.4810  153.5717  133.6174 H   0  0  0  0  0  0  0  0  0  0  0  0
  143.2916  152.2756  133.4191 H   0  0  0  0  0  0  0  0  0  0  0  0
  143.2380  153.7915  134.3806 H   0  0  0  0  0  0  0  0  0  0  0  0
  139.6764  156.6170  131.7871 H   0  0  0  0  0  0  0  0  0  0  0  0
  138.9844  155.6274  133.1150 H   0  0  0  0  0  0  0  0  0  0  0  0
  138.9782  158.5050  132.8071 H   0  0  0  0  0  0  0  0  0  0  0  0
  138.2396  157.5117  134.1098 H   0  0  0  0  0  0  0  0  0  0  0  0
  141.0590  159.2690  136.3760 H   0  0  0  0  0  0  0  0  0  0  0  0
  141.3940  156.2790  135.2680 H   0  0  0  0  0  0  0  0  0  0  0  0
  147.0366  156.7613  133.0117 H   0  0  0  0  0  0  0  0  0  0  0  0
  1  2  1  0
  2  3  2  0
  3  4  1  0
  4  5  2  0
  5  6  1  0
  6  7  2  0
  7  8  1  0
  8  9  1  0
  8 10  2  0
  7 11  1  0
 11 12  1  0
 12 13  2  0
 12 14  1  0
 14 15  1  0
 15 16  1  0
 16 17  1  0
 17 18  1  0
 18 19  1  0
 19 20  2  0
 19 21  1  1
 19 22  1  0
 22 23  1  0
 23 24  1  0
 24 25  1  0
 25 26  1  0
 26 27  1  0
 26 28  1  0
 11 29  1  0
 29 30  2  0
 30  2  1  0
 29  5  1  0
  1 31  1  0
  1 32  1  0
  1 33  1  0
  3 34  1  0
  4 35  1  0
  6 36  1  0
  9 37  1  0
 15 38  1  0
 15 39  1  0
 16 40  1  0
 16 41  1  0
 17 42  1  0
 17 43  1  0
 23 44  1  0
 23 45  1  0
 24 46  1  0
 24 47  1  0
 27 48  1  0
 28 49  1  0
 30 50  1  0
M  CHG  2   9  -1  21  -1
M  END
>  <UniqueID>  (81) 
81

>  <SMILES>  (81) 
Cc1ccc2cc(C([NH-])=O)n(C(=O)OCCCO[P@@](=O)([O-])OCCOP(O)O)c2c1

>  <Energy>  (81) 
69.909256179707

>  <Genealogy>  (81) 
Cc1ccc2cc(C([NH-])=O)n(C(=O)OCCCOP(=O)([O-])OCCOP(O)O)c2c1 (protonated)
Cc1ccc2cc(C([NH-])=O)n(C(=O)OCCCO[P@@](=O)([O-])OCCOP(O)O)c2c1 (chirality)
Cc1ccc2cc(C([NH-])=O)n(C(=O)OCCCO[P@@](=O)([O-])OCCOP(O)O)c2c1 (3D coordinates assigned)
Cc1ccc2cc(C([NH-])=O)n(C(=O)OCCCO[P@@](=O)([O-])OCCOP(O)O)c2c1 (optimized conformer: 69.909256179707 kcal/mol)

>  <smiles>  (81) 
Cc1ccc2cc(C(N)=O)n(C(=O)OCCCOP(=O)(O)OCCOP(O)O)c2c1

>  <score_type>  (81) 
oracle

>  <origin>  (81) 
adg

>  <m_score__min__energy>  (81) 
-5.1100000000000003

>  <m_primary>  (81) 
energy

$$$$
82:0
     RDKit          3D

 39 40  0  0  0  0  0  0  0  0999 V2000
  139.8180  156.0840  133.3320 C   0  0  0  0  0  0  0  0  0  0  0  0
  139.9230  157.5200  133.6010 N   0  0  0  0  0  0  0  0  0  0  0  0
  139.2500  157.8780  134.8570 C   0  0  0  0  0  0  0  0  0  0  0  0
  140.2590  158.1280  135.9310 C   0  0  0  0  0  0  0  0  0  0  0  0
  139.8830  158.2260  137.1300 O   0  0  0  0  0  0  0  0  0  0  0  0
  141.6160  158.2150  135.5980 O   0  0  0  0  0  0  0  0  0  0  0  0
  142.4910  157.0920  135.6470 C   0  0  0  0  0  0  0  0  0  0  0  0
  142.7940  156.6600  134.3230 O   0  0  0  0  0  0  0  0  0  0  0  0
  143.0780  157.5530  133.2840 C   0  0  0  0  0  0  0  0  0  0  0  0
  142.4440  157.4880  132.1950 O   0  0  0  0  0  0  0  0  0  0  0  0
  144.1200  158.5270  133.4460 N   0  0  0  0  0  0  0  0  0  0  0  0
  143.9990  159.8810  133.5330 C   0  0  0  0  0  0  0  0  0  0  0  0
  142.7280  160.6310  133.6320 C   0  0  0  0  0  0  0  0  0  0  0  0
  141.4860  159.9320  133.5850 N   0  0  0  0  0  0  0  0  0  0  0  0
  142.7260  161.8850  133.7270 O   0  0  0  0  0  0  0  0  0  0  0  0
  145.2550  160.4820  133.5790 C   0  0  0  0  0  0  0  0  0  0  0  0
  146.1590  159.4440  133.5160 C   0  0  0  0  0  0  0  0  0  0  0  0
  147.5500  159.4680  133.4850 C   0  0  0  0  0  0  0  0  0  0  0  0
  148.2270  158.2420  133.3600 C   0  0  0  0  0  0  0  0  0  0  0  0
  147.5040  157.0260  133.2780 C   0  0  0  0  0  0  0  0  0  0  0  0
  148.2300  155.7290  133.0800 C   0  0  0  0  0  0  0  0  0  0  0  0
  146.0940  157.0430  133.3030 C   0  0  0  0  0  0  0  0  0  0  0  0
  145.4470  158.2750  133.4390 C   0  0  0  0  0  0  0  0  0  0  0  0
  139.7778  155.5346  134.2841 H   0  0  0  0  0  0  0  0  0  0  0  0
  138.9029  155.8850  132.7549 H   0  0  0  0  0  0  0  0  0  0  0  0
  140.6944  155.7540  132.7549 H   0  0  0  0  0  0  0  0  0  0  0  0
  140.9410  157.7410  133.7090 H   0  0  0  0  0  0  0  0  0  0  0  0
  138.6516  158.7879  134.7019 H   0  0  0  0  0  0  0  0  0  0  0  0
  138.5979  157.0470  135.1640 H   0  0  0  0  0  0  0  0  0  0  0  0
  143.4213  157.3757  136.1608 H   0  0  0  0  0  0  0  0  0  0  0  0
  142.0014  156.2728  136.1940 H   0  0  0  0  0  0  0  0  0  0  0  0
  141.4590  158.8890  133.5480 H   0  0  0  0  0  0  0  0  0  0  0  0
  145.4777  161.5568  133.6504 H   0  0  0  0  0  0  0  0  0  0  0  0
  148.1026  160.4164  133.5561 H   0  0  0  0  0  0  0  0  0  0  0  0
  149.3264  158.2267  133.3256 H   0  0  0  0  0  0  0  0  0  0  0  0
  148.4744  155.2924  134.0596 H   0  0  0  0  0  0  0  0  0  0  0  0
  147.5904  155.0329  132.5176 H   0  0  0  0  0  0  0  0  0  0  0  0
  149.1578  155.9103  132.5176 H   0  0  0  0  0  0  0  0  0  0  0  0
  145.5175  156.1101  133.2176 H   0  0  0  0  0  0  0  0  0  0  0  0
  1  2  1  0
  2  3  1  0
  3  4  1  0
  4  5  2  0
  4  6  1  0
  6  7  1  0
  7  8  1  0
  8  9  1  0
  9 10  2  0
  9 11  1  0
 11 12  1  0
 12 13  1  0
 13 14  1  0
 13 15  2  0
 12 16  2  0
 16 17  1  0
 17 18  2  0
 18 19  1  0
 19 20  2  0
 20 21  1  0
 20 22  1  0
 22 23  2  0
 23 11  1  0
 23 17  1  0
  1 24  1  0
  1 25  1  0
  1 26  1  0
  2 27  1  0
  3 28  1  0
  3 29  1  0
  7 30  1  0
  7 31  1  0
 14 32  1  0
 16 33  1  0
 18 34  1  0
 19 35  1  0
 21 36  1  0
 21 37  1  0
 21 38  1  0
 22 39  1  0
M  CHG  1  14  -1
M  END
>  <UniqueID>  (82) 
82

>  <SMILES>  (82) 
CNCC(=O)OCOC(=O)n1c(C([NH-])=O)cc2ccc(C)cc21

>  <Energy>  (82) 
69.19742078124942

>  <Genealogy>  (82) 
CNCC(=O)OCOC(=O)n1c(C([NH-])=O)cc2ccc(C)cc21 (protonated)
CNCC(=O)OCOC(=O)n1c(C([NH-])=O)cc2ccc(C)cc21 (3D coordinates assigned)
CNCC(=O)OCOC(=O)n1c(C([NH-])=O)cc2ccc(C)cc21 (optimized conformer: 69.19742078124942 kcal/mol)

>  <smiles>  (82) 
CNCC(=O)OCOC(=O)n1c(C(N)=O)cc2ccc(C)cc21

>  <score_type>  (82) 
oracle

>  <origin>  (82) 
adg

>  <m_score__min__energy>  (82) 
-5.2000000000000002

>  <m_primary>  (82) 
energy

$$$$
83:0
     RDKit          3D

 45 47  0  0  0  0  0  0  0  0999 V2000
  149.6390  160.9980  129.6140 C   0  0  0  0  0  0  0  0  0  0  0  0
  148.6690  161.2580  130.7620 C   0  0  0  0  0  0  0  0  0  0  0  0
  148.4030  159.9910  131.5290 C   0  0  0  0  0  0  0  0  0  0  0  0
  149.4590  159.0840  131.7940 C   0  0  0  0  0  0  0  0  0  0  0  0
  149.2270  157.9080  132.5260 C   0  0  0  0  0  0  0  0  0  0  0  0
  147.9360  157.6750  132.9930 C   0  0  0  0  0  0  0  0  0  0  0  0
  147.4330  156.6140  133.7100 C   0  0  0  0  0  0  0  0  0  0  0  0
  146.0830  156.9050  133.9020 C   0  0  0  0  0  0  0  0  0  0  0  0
  145.1750  156.0610  134.7080 C   0  0  0  0  0  0  0  0  0  0  0  0
  143.8060  156.4320  134.8530 N   0  0  0  0  0  0  0  0  0  0  0  0
  145.5850  154.9970  135.2410 O   0  0  0  0  0  0  0  0  0  0  0  0
  145.7640  158.0960  133.3200 N   0  0  0  0  0  0  0  0  0  0  0  0
  144.4750  158.7240  133.2460 C   0  0  0  0  0  0  0  0  0  0  0  0
  143.5380  158.1700  132.6070 O   0  0  0  0  0  0  0  0  0  0  0  0
  144.2690  159.9620  133.8670 O   0  0  0  0  0  0  0  0  0  0  0  0
  142.9740  160.5090  134.1090 C   0  0  0  0  0  0  0  0  0  0  0  0
  142.0200  159.4460  134.5840 C   0  0  0  0  0  0  0  0  0  0  0  0
  142.2380  158.8730  135.6860 O   0  0  0  0  0  0  0  0  0  0  0  0
  140.8380  159.1180  133.8350 N   0  0  0  0  0  0  0  0  0  0  0  0
  140.4250  159.7920  132.6160 C   0  0  0  0  0  0  0  0  0  0  0  0
  139.0340  159.2580  132.3020 C   0  0  0  0  0  0  0  0  0  0  0  0
  138.8820  157.9810  133.1250 C   0  0  0  0  0  0  0  0  0  0  0  0
  139.9040  158.0860  134.2500 C   0  0  0  0  0  0  0  0  0  0  0  0
  146.9090  158.5560  132.7710 C   0  0  0  0  0  0  0  0  0  0  0  0
  147.1080  159.7260  132.0290 C   0  0  0  0  0  0  0  0  0  0  0  0
  150.6262  160.7334  130.0209 H   0  0  0  0  0  0  0  0  0  0  0  0
  149.2627  160.1690  128.9966 H   0  0  0  0  0  0  0  0  0  0  0  0
  149.7277  161.9041  128.9966 H   0  0  0  0  0  0  0  0  0  0  0  0
  149.1044  162.0065  131.4404 H   0  0  0  0  0  0  0  0  0  0  0  0
  147.7195  161.6268  130.3468 H   0  0  0  0  0  0  0  0  0  0  0  0
  150.4709  159.3032  131.4226 H   0  0  0  0  0  0  0  0  0  0  0  0
  150.0396  157.1935  132.7242 H   0  0  0  0  0  0  0  0  0  0  0  0
  147.9797  155.7251  134.0579 H   0  0  0  0  0  0  0  0  0  0  0  0
  143.4930  157.4100  134.6630 H   0  0  0  0  0  0  0  0  0  0  0  0
  143.0520  161.2919  134.8777 H   0  0  0  0  0  0  0  0  0  0  0  0
  142.5898  160.9299  133.1681 H   0  0  0  0  0  0  0  0  0  0  0  0
  140.3920  160.8804  132.7717 H   0  0  0  0  0  0  0  0  0  0  0  0
  141.1277  159.6056  131.7905 H   0  0  0  0  0  0  0  0  0  0  0  0
  138.2678  159.9927  132.5902 H   0  0  0  0  0  0  0  0  0  0  0  0
  138.9087  159.0634  131.2266 H   0  0  0  0  0  0  0  0  0  0  0  0
  137.8647  157.9103  133.5374 H   0  0  0  0  0  0  0  0  0  0  0  0
  139.0469  157.0829  132.5117 H   0  0  0  0  0  0  0  0  0  0  0  0
  139.4109  158.3705  135.1912 H   0  0  0  0  0  0  0  0  0  0  0  0
  140.4113  157.1266  134.4295 H   0  0  0  0  0  0  0  0  0  0  0  0
  146.2773  160.4218  131.8398 H   0  0  0  0  0  0  0  0  0  0  0  0
  1  2  1  0
  2  3  1  0
  3  4  2  0
  4  5  1  0
  5  6  2  0
  6  7  1  0
  7  8  2  0
  8  9  1  0
  9 10  1  0
  9 11  2  0
  8 12  1  0
 12 13  1  0
 13 14  2  0
 13 15  1  0
 15 16  1  0
 16 17  1  0
 17 18  2  0
 17 19  1  0
 19 20  1  0
 20 21  1  0
 21 22  1  0
 22 23  1  0
 12 24  1  0
 24 25  2  0
 25  3  1  0
 24  6  1  0
 23 19  1  0
  1 26  1  0
  1 27  1  0
  1 28  1  0
  2 29  1  0
  2 30  1  0
  4 31  1  0
  5 32  1  0
  7 33  1  0
 10 34  1  0
 16 35  1  0
 16 36  1  0
 20 37  1  0
 20 38  1  0
 21 39  1  0
 21 40  1  0
 22 41  1  0
 22 42  1  0
 23 43  1  0
 23 44  1  0
 25 45  1  0
M  CHG  1  10  -1
M  END
>  <UniqueID>  (83) 
83

>  <SMILES>  (83) 
CCc1ccc2cc(C([NH-])=O)n(C(=O)OCC(=O)N3CCCC3)c2c1

>  <Energy>  (83) 
78.27895885591745

>  <Genealogy>  (83) 
CCc1ccc2cc(C([NH-])=O)n(C(=O)OCC(=O)N3CCCC3)c2c1 (protonated)
CCc1ccc2cc(C([NH-])=O)n(C(=O)OCC(=O)N3CCCC3)c2c1 (3D coordinates assigned)
CCc1ccc2cc(C([NH-])=O)n(C(=O)OCC(=O)N3CCCC3)c2c1 (nonaromatic ring conformer: 78.27895885591745 kcal/mol)

>  <smiles>  (83) 
CCc1ccc2cc(C(N)=O)n(C(=O)OCC(=O)N3CCCC3)c2c1

>  <score_type>  (83) 
oracle

>  <origin>  (83) 
adg

>  <m_score__min__energy>  (83) 
-7.79

>  <m_primary>  (83) 
energy

$$$$
84:0
     RDKit          3D

 41 42  0  0  0  0  0  0  0  0999 V2000
  142.1820  156.8920  134.4300 H   0  0  0  0  0  0  0  0  0  0  0  0
  142.4720  155.9190  134.6750 N   0  0  0  0  0  0  0  0  0  0  0  0
  143.7980  155.6400  135.1170 C   0  0  0  0  0  0  0  0  0  0  0  0
  143.9760  154.8470  136.0780 O   0  0  0  0  0  0  0  0  0  0  0  0
  144.9480  156.2510  134.4200 C   0  0  0  0  0  0  0  0  0  0  0  0
  146.2470  155.7520  134.4970 C   0  0  0  0  0  0  0  0  0  0  0  0
  146.5804  154.8368  135.0081 H   0  0  0  0  0  0  0  0  0  0  0  0
  147.0240  156.6470  133.7980 C   0  0  0  0  0  0  0  0  0  0  0  0
  148.3880  156.6300  133.5290 C   0  0  0  0  0  0  0  0  0  0  0  0
  149.0317  155.8266  133.9166 H   0  0  0  0  0  0  0  0  0  0  0  0
  148.9200  157.6700  132.7470 C   0  0  0  0  0  0  0  0  0  0  0  0
  149.9945  157.6782  132.5115 H   0  0  0  0  0  0  0  0  0  0  0  0
  148.0870  158.7090  132.2580 C   0  0  0  0  0  0  0  0  0  0  0  0
  148.6560  159.7830  131.3680 C   0  0  0  0  0  0  0  0  0  0  0  0
  147.8230  160.8890  131.3400 F   0  0  0  0  0  0  0  0  0  0  0  0
  149.8980  160.1890  131.8260 F   0  0  0  0  0  0  0  0  0  0  0  0
  148.7900  159.2880  130.0850 F   0  0  0  0  0  0  0  0  0  0  0  0
  146.6990  158.6750  132.5330 C   0  0  0  0  0  0  0  0  0  0  0  0
  146.0268  159.4480  132.1322 H   0  0  0  0  0  0  0  0  0  0  0  0
  146.2020  157.6360  133.3260 C   0  0  0  0  0  0  0  0  0  0  0  0
  144.9210  157.3990  133.6830 N   0  0  0  0  0  0  0  0  0  0  0  0
  143.7790  158.1970  133.3200 C   0  0  0  0  0  0  0  0  0  0  0  0
  142.9160  157.7200  132.5370 O   0  0  0  0  0  0  0  0  0  0  0  0
  143.6090  159.5880  133.7900 C   0  0  0  0  0  0  0  0  0  0  0  0
  144.5232  160.1620  134.0014 H   0  0  0  0  0  0  0  0  0  0  0  0
  142.4370  160.2110  133.9810 C   0  0  0  0  0  0  0  0  0  0  0  0
  142.4597  161.1797  134.5016 H   0  0  0  0  0  0  0  0  0  0  0  0
  141.1170  159.7040  133.5500 C   0  0  0  0  0  0  0  0  0  0  0  0
  140.3630  160.4330  132.8470 O   0  0  0  0  0  0  0  0  0  0  0  0
  140.6410  158.4240  134.0290 N   0  0  2  0  0  0  0  0  0  0  0  0
  141.4530  157.7650  134.1010 H   0  0  0  0  0  0  0  0  0  0  0  0
  139.6860  157.8560  133.0590 C   0  0  0  0  0  0  0  0  0  0  0  0
  138.8624  157.3662  133.5991 H   0  0  0  0  0  0  0  0  0  0  0  0
  139.2826  158.6611  132.4272 H   0  0  0  0  0  0  0  0  0  0  0  0
  140.2008  157.1172  132.4272 H   0  0  0  0  0  0  0  0  0  0  0  0
  140.0300  158.5900  135.3660 C   0  0  0  0  0  0  0  0  0  0  0  0
  139.5541  159.5803  135.4196 H   0  0  0  0  0  0  0  0  0  0  0  0
  139.2903  157.7880  135.5061 H   0  0  0  0  0  0  0  0  0  0  0  0
  141.0500  158.4810  136.4620 C   0  0  0  0  0  0  0  0  0  0  0  0
  142.2350  158.1480  136.1940 O   0  0  0  0  0  0  0  0  0  0  0  0
  140.6850  158.7230  137.7800 O   0  0  0  0  0  0  0  0  0  0  0  0
  1  2  1  0
  2  3  1  0
  3  4  2  0
  3  5  1  0
  5  6  2  0
  6  7  1  0
  6  8  1  0
  8  9  2  0
  9 10  1  0
  9 11  1  0
 11 12  1  0
 11 13  2  0
 13 14  1  0
 14 15  1  0
 14 16  1  0
 14 17  1  0
 13 18  1  0
 18 19  1  0
 18 20  2  0
 20 21  1  0
 21 22  1  0
 22 23  2  0
 22 24  1  0
 24 25  1  0
 24 26  2  0
 26 27  1  0
 26 28  1  0
 28 29  2  0
 28 30  1  0
 30 31  1  1
 30 32  1  0
 32 33  1  0
 32 34  1  0
 32 35  1  0
 30 36  1  0
 36 37  1  0
 36 38  1  0
 36 39  1  0
 39 40  2  0
 39 41  1  0
 21  5  1  0
 20  8  1  0
M  CHG  3   2  -1  30   1  41  -1
M  END
>  <UniqueID>  (84) 
84

>  <SMILES>  (84) 
C[N@H+](CC(=O)[O-])C(=O)/C=C\C(=O)n1c(C([NH-])=O)cc2ccc(C(F)(F)F)cc21

>  <Energy>  (84) 
86.77494191599475

>  <Genealogy>  (84) 
C[NH+](CC(=O)[O-])C(=O)/C=C\C(=O)n1c(C([NH-])=O)cc2ccc(C(F)(F)F)cc21 (protonated)
C[N@H+](CC(=O)[O-])C(=O)/C=C\C(=O)n1c(C([NH-])=O)cc2ccc(C(F)(F)F)cc21 (chirality)
C[N@H+](CC(=O)[O-])C(=O)/C=C\C(=O)n1c(C([NH-])=O)cc2ccc(C(F)(F)F)cc21 (cis-trans isomerization)
C[N@H+](CC(=O)[O-])C(=O)/C=C\C(=O)n1c(C([NH-])=O)cc2ccc(C(F)(F)F)cc21 (3D coordinates assigned)
C[N@H+](CC(=O)[O-])C(=O)/C=C\C(=O)n1c(C([NH-])=O)cc2ccc(C(F)(F)F)cc21 (optimized conformer: 86.77494191599475 kcal/mol)

>  <smiles>  (84) 
CN(CC(=O)O)C(=O)/C=C\C(=O)n1c(C(N)=O)cc2ccc(C(F)(F)F)cc21

>  <score_type>  (84) 
oracle

>  <origin>  (84) 
adg

>  <m_score__min__energy>  (84) 
-5.8300000000000001

>  <m_primary>  (84) 
energy

$$$$
85:0
     RDKit          3D

 36 37  0  0  0  0  0  0  0  0999 V2000
  150.2810  150.7330  130.7310 C   0  0  0  0  0  0  0  0  0  0  0  0
  149.6610  150.9470  131.8960 C   0  0  0  0  0  0  0  0  0  0  0  0
  148.2360  149.9970  132.3000 Cl  0  0  0  0  0  0  0  0  0  0  0  0
  150.1840  151.9500  132.8910 C   0  0  0  0  0  0  0  0  0  0  0  0
  149.9820  153.3130  132.3990 N   0  0  0  0  0  0  0  0  0  0  0  0
  148.7840  154.0870  132.6150 C   0  0  0  0  0  0  0  0  0  0  0  0
  147.5490  153.4100  132.7710 C   0  0  0  0  0  0  0  0  0  0  0  0
  146.3540  154.1240  132.9660 C   0  0  0  0  0  0  0  0  0  0  0  0
  146.4240  155.5120  133.0100 C   0  0  0  0  0  0  0  0  0  0  0  0
  145.4240  156.4460  133.1610 C   0  0  0  0  0  0  0  0  0  0  0  0
  146.0640  157.6830  133.1280 C   0  0  0  0  0  0  0  0  0  0  0  0
  145.3640  158.9650  133.3470 C   0  0  0  0  0  0  0  0  0  0  0  0
  145.7430  160.1400  132.6360 N   0  0  0  0  0  0  0  0  0  0  0  0
  144.4510  159.0370  134.2130 O   0  0  0  0  0  0  0  0  0  0  0  0
  147.4080  157.5210  132.9520 N   0  0  0  0  0  0  0  0  0  0  0  0
  148.4050  158.5400  132.7830 C   0  0  0  0  0  0  0  0  0  0  0  0
  148.3950  159.5610  133.5230 O   0  0  0  0  0  0  0  0  0  0  0  0
  149.3670  158.4070  131.7770 O   0  0  0  0  0  0  0  0  0  0  0  0
  149.1490  158.8420  130.4400 C   0  0  0  0  0  0  0  0  0  0  0  0
  148.8950  160.3120  130.4390 C   0  0  0  0  0  0  0  0  0  0  0  0
  147.7140  160.7490  130.4570 O   0  0  0  0  0  0  0  0  0  0  0  0
  149.9580  161.2010  130.3570 O   0  0  0  0  0  0  0  0  0  0  0  0
  147.6110  156.1860  132.8850 C   0  0  0  0  0  0  0  0  0  0  0  0
  148.8130  155.5010  132.6730 C   0  0  0  0  0  0  0  0  0  0  0  0
  151.1728  151.3202  130.4666 H   0  0  0  0  0  0  0  0  0  0  0  0
  149.8993  149.9697  130.0369 H   0  0  0  0  0  0  0  0  0  0  0  0
  149.6497  151.8264  133.8445 H   0  0  0  0  0  0  0  0  0  0  0  0
  151.2612  151.7797  133.0351 H   0  0  0  0  0  0  0  0  0  0  0  0
  150.7730  153.7560  131.8780 H   0  0  0  0  0  0  0  0  0  0  0  0
  147.5251  152.3107  132.7390 H   0  0  0  0  0  0  0  0  0  0  0  0
  145.3931  153.6008  133.0803 H   0  0  0  0  0  0  0  0  0  0  0  0
  144.3473  156.2558  133.2821 H   0  0  0  0  0  0  0  0  0  0  0  0
  146.7350  160.3010  132.3550 H   0  0  0  0  0  0  0  0  0  0  0  0
  150.0385  158.6217  129.8315 H   0  0  0  0  0  0  0  0  0  0  0  0
  148.2806  158.3161  130.0167 H   0  0  0  0  0  0  0  0  0  0  0  0
  149.7592  156.0493  132.5541 H   0  0  0  0  0  0  0  0  0  0  0  0
  1  2  2  0
  2  3  1  0
  2  4  1  0
  4  5  1  0
  5  6  1  0
  6  7  2  0
  7  8  1  0
  8  9  2  0
  9 10  1  0
 10 11  2  0
 11 12  1  0
 12 13  1  0
 12 14  2  0
 11 15  1  0
 15 16  1  0
 16 17  2  0
 16 18  1  0
 18 19  1  0
 19 20  1  0
 20 21  2  0
 20 22  1  0
 15 23  1  0
 23 24  2  0
 24  6  1  0
 23  9  1  0
  1 25  1  0
  1 26  1  0
  4 27  1  0
  4 28  1  0
  5 29  1  0
  7 30  1  0
  8 31  1  0
 10 32  1  0
 13 33  1  0
 19 34  1  0
 19 35  1  0
 24 36  1  0
M  CHG  2  13  -1  22  -1
M  END
>  <UniqueID>  (85) 
85

>  <SMILES>  (85) 
C=C(Cl)CNc1ccc2cc(C([NH-])=O)n(C(=O)OCC(=O)[O-])c2c1

>  <Energy>  (85) 
68.9381628609013

>  <Genealogy>  (85) 
C=C(Cl)CNc1ccc2cc(C([NH-])=O)n(C(=O)OCC(=O)[O-])c2c1 (protonated)
C=C(Cl)CNc1ccc2cc(C([NH-])=O)n(C(=O)OCC(=O)[O-])c2c1 (3D coordinates assigned)
C=C(Cl)CNc1ccc2cc(C([NH-])=O)n(C(=O)OCC(=O)[O-])c2c1 (optimized conformer: 68.9381628609013 kcal/mol)

>  <smiles>  (85) 
C=C(Cl)CNc1ccc2cc(C(N)=O)n(C(=O)OCC(=O)O)c2c1

>  <score_type>  (85) 
oracle

>  <origin>  (85) 
adg

>  <m_score__min__energy>  (85) 
-6.9800000000000004

>  <m_primary>  (85) 
energy

$$$$
86:0
     RDKit          3D

 34 35  0  0  0  0  0  0  0  0999 V2000
  148.5570  156.8730  133.5230 N   0  0  0  0  0  0  0  0  0  0  0  0
  148.1750  158.2140  133.2100 C   0  0  0  0  0  0  0  0  0  0  0  0
  149.0560  159.0250  132.8190 O   0  0  0  0  0  0  0  0  0  0  0  0
  146.7640  158.6500  133.3210 C   0  0  0  0  0  0  0  0  0  0  0  0
  146.3540  159.9800  133.4190 C   0  0  0  0  0  0  0  0  0  0  0  0
  144.9870  159.9280  133.5850 C   0  0  0  0  0  0  0  0  0  0  0  0
  144.0600  160.9560  133.7340 C   0  0  0  0  0  0  0  0  0  0  0  0
  142.7060  160.6050  133.8740 C   0  0  0  0  0  0  0  0  0  0  0  0
  142.3050  159.2460  133.8480 C   0  0  0  0  0  0  0  0  0  0  0  0
  140.8610  158.8830  134.0260 C   0  0  0  0  0  0  0  0  0  0  0  0
  139.8500  158.9990  132.1480 I   0  0  0  0  0  0  0  0  0  0  0  0
  143.2760  158.2300  133.7080 C   0  0  0  0  0  0  0  0  0  0  0  0
  144.6160  158.6090  133.5830 C   0  0  0  0  0  0  0  0  0  0  0  0
  145.6930  157.8150  133.4210 N   0  0  0  0  0  0  0  0  0  0  0  0
  145.6750  156.3850  133.3140 C   0  0  0  0  0  0  0  0  0  0  0  0
  146.3440  155.8180  132.4100 O   0  0  0  0  0  0  0  0  0  0  0  0
  144.9660  155.5570  134.3420 C   0  0  0  0  0  0  0  0  0  0  0  0
  145.6060  154.1710  134.4320 C   0  0  0  0  0  0  0  0  0  0  0  0
  147.2290  154.2650  135.2480 P   0  0  0  0  0  0  0  0  0  0  0  0
  147.3660  155.6030  135.9380 O   0  0  0  0  0  0  0  0  0  0  0  0
  147.3620  153.0280  136.3950 O   0  0  0  0  0  0  0  0  0  0  0  0
  148.4570  154.0990  134.0970 O   0  0  0  0  0  0  0  0  0  0  0  0
  147.8730  156.1870  133.9110 H   0  0  0  0  0  0  0  0  0  0  0  0
  149.5500  156.5710  133.4060 H   0  0  0  0  0  0  0  0  0  0  0  0
  146.9870  160.8785  133.3735 H   0  0  0  0  0  0  0  0  0  0  0  0
  144.3770  162.0093  133.7419 H   0  0  0  0  0  0  0  0  0  0  0  0
  141.9500  161.3932  134.0051 H   0  0  0  0  0  0  0  0  0  0  0  0
  140.7877  157.8577  134.4176 H   0  0  0  0  0  0  0  0  0  0  0  0
  140.3945  159.5840  134.7338 H   0  0  0  0  0  0  0  0  0  0  0  0
  142.9858  157.1690  133.6976 H   0  0  0  0  0  0  0  0  0  0  0  0
  145.0354  156.0542  135.3208 H   0  0  0  0  0  0  0  0  0  0  0  0
  143.9106  155.4484  134.0518 H   0  0  0  0  0  0  0  0  0  0  0  0
  144.9483  153.5064  135.0114 H   0  0  0  0  0  0  0  0  0  0  0  0
  145.7439  153.7780  133.4139 H   0  0  0  0  0  0  0  0  0  0  0  0
  1  2  1  0
  2  3  2  0
  2  4  1  0
  4  5  2  0
  5  6  1  0
  6  7  2  0
  7  8  1  0
  8  9  2  0
  9 10  1  0
 10 11  1  0
  9 12  1  0
 12 13  2  0
 13 14  1  0
 14 15  1  0
 15 16  2  0
 15 17  1  0
 17 18  1  0
 18 19  1  0
 19 20  2  0
 19 21  1  0
 19 22  1  0
 14  4  1  0
 13  6  1  0
  1 23  1  0
  1 24  1  0
  5 25  1  0
  7 26  1  0
  8 27  1  0
 10 28  1  0
 10 29  1  0
 12 30  1  0
 17 31  1  0
 17 32  1  0
 18 33  1  0
 18 34  1  0
M  CHG  2  21  -1  22  -1
M  END
>  <UniqueID>  (86) 
86

>  <SMILES>  (86) 
NC(=O)c1cc2ccc(CI)cc2n1C(=O)CCP(=O)([O-])[O-]

>  <Energy>  (86) 
64.92244343179654

>  <Genealogy>  (86) 
NC(=O)c1cc2ccc(CI)cc2n1C(=O)CCP(=O)([O-])[O-] (protonated)
NC(=O)c1cc2ccc(CI)cc2n1C(=O)CCP(=O)([O-])[O-] (3D coordinates assigned)
NC(=O)c1cc2ccc(CI)cc2n1C(=O)CCP(=O)([O-])[O-] (optimized conformer: 64.92244343179654 kcal/mol)

>  <smiles>  (86) 
NC(=O)c1cc2ccc(CI)cc2n1C(=O)CCP(=O)(O)O

>  <score_type>  (86) 
oracle

>  <origin>  (86) 
adg

>  <m_score__min__energy>  (86) 
-7.5099999999999998

>  <m_primary>  (86) 
energy

$$$$
87:0
     RDKit          3D

 38 39  0  0  0  0  0  0  0  0999 V2000
  138.7210  158.2450  131.6910 C   0  0  0  0  0  0  0  0  0  0  0  0
  139.4550  157.5850  132.8200 C   0  0  0  0  0  0  0  0  0  0  0  0
  139.8270  158.3320  133.9670 C   0  0  0  0  0  0  0  0  0  0  0  0
  140.5320  157.7230  135.0200 C   0  0  0  0  0  0  0  0  0  0  0  0
  140.8570  156.3750  134.8940 C   0  0  0  0  0  0  0  0  0  0  0  0
  141.5050  155.5280  135.7680 C   0  0  0  0  0  0  0  0  0  0  0  0
  141.5310  154.2880  135.1290 C   0  0  0  0  0  0  0  0  0  0  0  0
  142.1320  153.0690  135.7120 C   0  0  0  0  0  0  0  0  0  0  0  0
  141.3660  151.8790  135.8700 N   0  0  0  0  0  0  0  0  0  0  0  0
  143.3420  153.0760  136.0620 O   0  0  0  0  0  0  0  0  0  0  0  0
  140.9300  154.3720  133.9100 N   0  0  0  0  0  0  0  0  0  0  0  0
  140.6880  153.3140  132.9770 C   0  0  0  0  0  0  0  0  0  0  0  0
  139.5040  153.0100  132.6680 O   0  0  0  0  0  0  0  0  0  0  0  0
  141.8340  152.5280  132.4270 C   0  0  0  0  0  0  0  0  0  0  0  0
  141.8800  151.2650  133.0790 O   0  0  0  0  0  0  0  0  0  0  0  0
  140.8810  150.2990  132.9410 C   0  0  0  0  0  0  0  0  0  0  0  0
  140.5330  149.5850  133.9210 O   0  0  0  0  0  0  0  0  0  0  0  0
  140.2140  150.1210  131.6110 C   0  0  0  0  0  0  0  0  0  0  0  0
  140.4720  148.7270  131.0290 C   0  0  0  0  0  0  0  0  0  0  0  0
  139.2480  148.1730  130.3650 C   0  0  0  0  0  0  0  0  0  0  0  0
  139.1010  146.9280  130.2420 O   0  0  0  0  0  0  0  0  0  0  0  0
  138.2450  149.0320  129.9270 O   0  0  0  0  0  0  0  0  0  0  0  0
  140.5200  155.6490  133.7830 C   0  0  0  0  0  0  0  0  0  0  0  0
  139.8230  156.2280  132.7180 C   0  0  0  0  0  0  0  0  0  0  0  0
  137.9610  158.9284  132.0976 H   0  0  0  0  0  0  0  0  0  0  0  0
  139.4323  158.8132  131.0736 H   0  0  0  0  0  0  0  0  0  0  0  0
  138.2313  157.4775  131.0736 H   0  0  0  0  0  0  0  0  0  0  0  0
  139.5615  159.3974  134.0332 H   0  0  0  0  0  0  0  0  0  0  0  0
  140.8180  158.2939  135.9157 H   0  0  0  0  0  0  0  0  0  0  0  0
  141.9143  155.7769  136.7582 H   0  0  0  0  0  0  0  0  0  0  0  0
  140.9930  151.3680  135.0380 H   0  0  0  0  0  0  0  0  0  0  0  0
  141.6959  152.3808  131.3457 H   0  0  0  0  0  0  0  0  0  0  0  0
  142.7752  153.0709  132.5983 H   0  0  0  0  0  0  0  0  0  0  0  0
  139.1299  150.2606  131.7344 H   0  0  0  0  0  0  0  0  0  0  0  0
  140.6309  150.8650  130.9162 H   0  0  0  0  0  0  0  0  0  0  0  0
  141.2816  148.7937  130.2873 H   0  0  0  0  0  0  0  0  0  0  0  0
  140.7506  148.0551  131.8541 H   0  0  0  0  0  0  0  0  0  0  0  0
  139.5685  155.6399  131.8239 H   0  0  0  0  0  0  0  0  0  0  0  0
  1  2  1  0
  2  3  2  0
  3  4  1  0
  4  5  2  0
  5  6  1  0
  6  7  2  0
  7  8  1  0
  8  9  1  0
  8 10  2  0
  7 11  1  0
 11 12  1  0
 12 13  2  0
 12 14  1  0
 14 15  1  0
 15 16  1  0
 16 17  2  0
 16 18  1  0
 18 19  1  0
 19 20  1  0
 20 21  2  0
 20 22  1  0
 11 23  1  0
 23 24  2  0
 24  2  1  0
 23  5  1  0
  1 25  1  0
  1 26  1  0
  1 27  1  0
  3 28  1  0
  4 29  1  0
  6 30  1  0
  9 31  1  0
 14 32  1  0
 14 33  1  0
 18 34  1  0
 18 35  1  0
 19 36  1  0
 19 37  1  0
 24 38  1  0
M  CHG  2   9  -1  22  -1
M  END
>  <UniqueID>  (87) 
87

>  <SMILES>  (87) 
Cc1ccc2cc(C([NH-])=O)n(C(=O)COC(=O)CCC(=O)[O-])c2c1

>  <Energy>  (87) 
70.39717787972315

>  <Genealogy>  (87) 
Cc1ccc2cc(C([NH-])=O)n(C(=O)COC(=O)CCC(=O)[O-])c2c1 (protonated)
Cc1ccc2cc(C([NH-])=O)n(C(=O)COC(=O)CCC(=O)[O-])c2c1 (3D coordinates assigned)
Cc1ccc2cc(C([NH-])=O)n(C(=O)COC(=O)CCC(=O)[O-])c2c1 (optimized conformer: 70.39717787972315 kcal/mol)

>  <smiles>  (87) 
Cc1ccc2cc(C(N)=O)n(C(=O)COC(=O)CCC(=O)O)c2c1

>  <score_type>  (87) 
oracle

>  <origin>  (87) 
adg

>  <m_score__min__energy>  (87) 
-6.5999999999999996

>  <m_primary>  (87) 
energy

$$$$
88:0
     RDKit          3D

 45 47  0  0  0  0  0  0  0  0999 V2000
  141.3490  159.9070  135.1890 C   0  0  0  0  0  0  0  0  0  0  0  0
  142.1670  160.5310  134.1030 C   0  0  0  0  0  0  0  0  0  0  0  0
  141.6440  161.4060  133.3620 O   0  0  0  0  0  0  0  0  0  0  0  0
  143.5090  160.0890  133.8460 N   0  0  0  0  0  0  0  0  0  0  0  0
  144.6620  160.8140  133.9070 C   0  0  0  0  0  0  0  0  0  0  0  0
  144.7570  162.2740  134.1080 C   0  0  0  0  0  0  0  0  0  0  0  0
  143.9390  163.1720  133.3630 N   0  0  0  0  0  0  0  0  0  0  0  0
  145.6020  162.7390  134.9190 O   0  0  0  0  0  0  0  0  0  0  0  0
  145.7650  159.9950  133.6700 C   0  0  0  0  0  0  0  0  0  0  0  0
  145.2460  158.7390  133.4500 C   0  0  0  0  0  0  0  0  0  0  0  0
  145.8890  157.5380  133.1700 C   0  0  0  0  0  0  0  0  0  0  0  0
  145.0990  156.3880  133.0070 C   0  0  0  0  0  0  0  0  0  0  0  0
  143.6830  156.4550  133.1290 C   0  0  0  0  0  0  0  0  0  0  0  0
  142.8560  155.2870  132.9710 N   0  0  0  0  0  0  0  0  0  0  0  0
  141.9510  154.8030  134.0160 C   0  0  0  0  0  0  0  0  0  0  0  0
  140.6470  154.2670  133.4120 C   0  0  0  0  0  0  0  0  0  0  0  0
  139.6880  155.3820  132.9590 C   0  0  0  0  0  0  0  0  0  0  0  0
  139.9090  156.7230  133.6800 C   0  0  0  0  0  0  0  0  0  0  0  0
  139.6080  157.8630  132.8130 N   0  0  0  0  0  0  0  0  0  0  0  0
  138.3990  158.4330  132.6520 C   0  0  0  0  0  0  0  0  0  0  0  0
  138.5160  159.4360  131.7150 C   0  0  0  0  0  0  0  0  0  0  0  0
  139.8430  159.4090  131.3320 C   0  0  0  0  0  0  0  0  0  0  0  0
  140.4870  158.4360  132.0070 N   0  0  0  0  0  0  0  0  0  0  0  0
  143.0710  157.6950  133.4130 C   0  0  0  0  0  0  0  0  0  0  0  0
  143.8830  158.8240  133.5580 C   0  0  0  0  0  0  0  0  0  0  0  0
  141.7471  160.2107  136.1684 H   0  0  0  0  0  0  0  0  0  0  0  0
  140.3045  160.2398  135.0986 H   0  0  0  0  0  0  0  0  0  0  0  0
  141.3939  158.8116  135.0986 H   0  0  0  0  0  0  0  0  0  0  0  0
  143.0140  162.8690  132.9870 H   0  0  0  0  0  0  0  0  0  0  0  0
  146.8247  160.2897  133.6607 H   0  0  0  0  0  0  0  0  0  0  0  0
  146.9842  157.4900  133.0788 H   0  0  0  0  0  0  0  0  0  0  0  0
  145.5805  155.4248  132.7825 H   0  0  0  0  0  0  0  0  0  0  0  0
  142.9150  154.7600  132.0690 H   0  0  0  0  0  0  0  0  0  0  0  0
  142.4467  153.9955  134.5749 H   0  0  0  0  0  0  0  0  0  0  0  0
  141.7077  155.6424  134.6839 H   0  0  0  0  0  0  0  0  0  0  0  0
  140.8953  153.6434  132.5405 H   0  0  0  0  0  0  0  0  0  0  0  0
  140.1340  153.6923  134.1972 H   0  0  0  0  0  0  0  0  0  0  0  0
  139.8273  155.5417  131.8796 H   0  0  0  0  0  0  0  0  0  0  0  0
  138.6696  155.0489  133.2078 H   0  0  0  0  0  0  0  0  0  0  0  0
  139.2542  156.7646  134.5629 H   0  0  0  0  0  0  0  0  0  0  0  0
  140.9683  156.7845  133.9698 H   0  0  0  0  0  0  0  0  0  0  0  0
  137.4763  158.1470  133.1782 H   0  0  0  0  0  0  0  0  0  0  0  0
  137.7264  160.1102  131.3517 H   0  0  0  0  0  0  0  0  0  0  0  0
  140.3033  160.0784  130.5904 H   0  0  0  0  0  0  0  0  0  0  0  0
  141.9787  157.7714  133.5180 H   0  0  0  0  0  0  0  0  0  0  0  0
  1  2  1  0
  2  3  2  0
  2  4  1  0
  4  5  1  0
  5  6  1  0
  6  7  1  0
  6  8  2  0
  5  9  2  0
  9 10  1  0
 10 11  2  0
 11 12  1  0
 12 13  2  0
 13 14  1  0
 14 15  1  0
 15 16  1  0
 16 17  1  0
 17 18  1  0
 18 19  1  0
 19 20  1  0
 20 21  2  0
 21 22  1  0
 22 23  2  0
 13 24  1  0
 24 25  2  0
 25  4  1  0
 25 10  1  0
 23 19  1  0
  1 26  1  0
  1 27  1  0
  1 28  1  0
  7 29  1  0
  9 30  1  0
 11 31  1  0
 12 32  1  0
 14 33  1  0
 15 34  1  0
 15 35  1  0
 16 36  1  0
 16 37  1  0
 17 38  1  0
 17 39  1  0
 18 40  1  0
 18 41  1  0
 20 42  1  0
 21 43  1  0
 22 44  1  0
 24 45  1  0
M  CHG  1   7  -1
M  END
>  <UniqueID>  (88) 
88

>  <SMILES>  (88) 
CC(=O)n1c(C([NH-])=O)cc2ccc(NCCCCn3cccn3)cc21

>  <Energy>  (88) 
109.51896439157584

>  <Genealogy>  (88) 
CC(=O)n1c(C([NH-])=O)cc2ccc(NCCCCn3cccn3)cc21 (protonated)
CC(=O)n1c(C([NH-])=O)cc2ccc(NCCCCn3cccn3)cc21 (3D coordinates assigned)
CC(=O)n1c(C([NH-])=O)cc2ccc(NCCCCn3cccn3)cc21 (optimized conformer: 109.51896439157584 kcal/mol)

>  <smiles>  (88) 
CC(=O)n1c(C(N)=O)cc2ccc(NCCCCn3cccn3)cc21

>  <score_type>  (88) 
oracle

>  <origin>  (88) 
adg

>  <m_score__min__energy>  (88) 
-7.8499999999999996

>  <m_primary>  (88) 
energy

$$$$
89:0
     RDKit          3D

 33 34  0  0  0  0  0  0  0  0999 V2000
  145.9640  153.0960  134.0110 N   0  0  0  0  0  0  0  0  0  0  0  0
  146.7070  154.0490  134.7640 C   0  0  0  0  0  0  0  0  0  0  0  0
  147.0450  153.7690  135.9460 O   0  0  0  0  0  0  0  0  0  0  0  0
  147.0680  155.3650  134.1930 C   0  0  0  0  0  0  0  0  0  0  0  0
  146.4490  156.5600  134.5570 C   0  0  0  0  0  0  0  0  0  0  0  0
  147.0390  157.5310  133.7790 C   0  0  0  0  0  0  0  0  0  0  0  0
  146.8110  158.9020  133.7300 C   0  0  0  0  0  0  0  0  0  0  0  0
  147.5870  159.6670  132.8420 C   0  0  0  0  0  0  0  0  0  0  0  0
  148.5890  159.0570  132.0430 C   0  0  0  0  0  0  0  0  0  0  0  0
  149.3890  159.8830  131.0670 C   0  0  0  0  0  0  0  0  0  0  0  0
  148.8880  159.6920  129.7940 F   0  0  0  0  0  0  0  0  0  0  0  0
  149.3120  161.2270  131.3860 F   0  0  0  0  0  0  0  0  0  0  0  0
  150.7220  159.5090  131.0890 F   0  0  0  0  0  0  0  0  0  0  0  0
  148.7740  157.6560  132.1070 C   0  0  0  0  0  0  0  0  0  0  0  0
  147.9730  156.9200  132.9860 C   0  0  0  0  0  0  0  0  0  0  0  0
  147.9990  155.5900  133.2240 N   0  0  0  0  0  0  0  0  0  0  0  0
  148.8790  154.6370  132.6110 C   0  0  0  0  0  0  0  0  0  0  0  0
  150.0590  154.9710  132.3210 O   0  0  0  0  0  0  0  0  0  0  0  0
  148.4220  153.2300  132.3580 C   0  0  0  0  0  0  0  0  0  0  0  0
  149.5670  152.2470  132.5980 C   0  0  0  0  0  0  0  0  0  0  0  0
  148.9460  150.5820  132.7580 S   0  0  0  0  0  0  0  0  0  0  0  0
  147.4540  150.5760  132.5830 O   0  0  0  0  0  0  0  0  0  0  0  0
  149.2890  150.0520  134.1220 O   0  0  0  0  0  0  0  0  0  0  0  0
  149.6500  149.6000  131.5900 O   0  0  0  0  0  0  0  0  0  0  0  0
  146.4130  152.2250  133.6520 H   0  0  0  0  0  0  0  0  0  0  0  0
  145.6566  156.6981  135.3073 H   0  0  0  0  0  0  0  0  0  0  0  0
  146.0473  159.3731  134.3662 H   0  0  0  0  0  0  0  0  0  0  0  0
  147.4157  160.7509  132.7655 H   0  0  0  0  0  0  0  0  0  0  0  0
  149.5290  157.1579  131.4810 H   0  0  0  0  0  0  0  0  0  0  0  0
  147.5907  152.9911  133.0376 H   0  0  0  0  0  0  0  0  0  0  0  0
  148.0916  153.1446  131.3123 H   0  0  0  0  0  0  0  0  0  0  0  0
  150.2653  152.2919  131.7493 H   0  0  0  0  0  0  0  0  0  0  0  0
  150.0810  152.5237  133.5303 H   0  0  0  0  0  0  0  0  0  0  0  0
  1  2  1  0
  2  3  2  0
  2  4  1  0
  4  5  2  0
  5  6  1  0
  6  7  2  0
  7  8  1  0
  8  9  2  0
  9 10  1  0
 10 11  1  0
 10 12  1  0
 10 13  1  0
  9 14  1  0
 14 15  2  0
 15 16  1  0
 16 17  1  0
 17 18  2  0
 17 19  1  0
 19 20  1  0
 20 21  1  0
 21 22  2  0
 21 23  2  0
 21 24  1  0
 16  4  1  0
 15  6  1  0
  1 25  1  0
  5 26  1  0
  7 27  1  0
  8 28  1  0
 14 29  1  0
 19 30  1  0
 19 31  1  0
 20 32  1  0
 20 33  1  0
M  CHG  2   1  -1  24  -1
M  END
>  <UniqueID>  (89) 
89

>  <SMILES>  (89) 
[NH-]C(=O)c1cc2ccc(C(F)(F)F)cc2n1C(=O)CCS(=O)(=O)[O-]

>  <Energy>  (89) 
66.48933438814717

>  <Genealogy>  (89) 
[NH-]C(=O)c1cc2ccc(C(F)(F)F)cc2n1C(=O)CCS(=O)(=O)[O-] (protonated)
[NH-]C(=O)c1cc2ccc(C(F)(F)F)cc2n1C(=O)CCS(=O)(=O)[O-] (3D coordinates assigned)
[NH-]C(=O)c1cc2ccc(C(F)(F)F)cc2n1C(=O)CCS(=O)(=O)[O-] (optimized conformer: 66.48933438814717 kcal/mol)

>  <smiles>  (89) 
NC(=O)c1cc2ccc(C(F)(F)F)cc2n1C(=O)CCS(=O)(=O)O

>  <score_type>  (89) 
oracle

>  <origin>  (89) 
adg

>  <m_score__min__energy>  (89) 
-6.4000000000000004

>  <m_primary>  (89) 
energy

$$$$
90:0
     RDKit          3D

 46 48  0  0  0  0  0  0  0  0999 V2000
  142.0940  159.0150  133.2220 N   0  0  0  0  0  0  0  0  0  0  0  0
  142.2660  158.0670  134.2720 C   0  0  0  0  0  0  0  0  0  0  0  0
  142.4340  158.4710  135.4530 O   0  0  0  0  0  0  0  0  0  0  0  0
  142.3210  156.6250  133.9790 C   0  0  0  0  0  0  0  0  0  0  0  0
  143.4720  155.8650  134.1360 C   0  0  0  0  0  0  0  0  0  0  0  0
  143.1270  154.6020  133.7270 C   0  0  0  0  0  0  0  0  0  0  0  0
  143.8940  153.4420  133.7030 C   0  0  0  0  0  0  0  0  0  0  0  0
  143.2780  152.2530  133.2890 C   0  0  0  0  0  0  0  0  0  0  0  0
  141.9080  152.2330  132.9240 C   0  0  0  0  0  0  0  0  0  0  0  0
  141.2780  150.9990  132.5150 N   0  0  0  0  0  0  0  0  0  0  0  0
  139.8330  150.9630  132.2360 C   0  0  0  0  0  0  0  0  0  0  0  0
  139.5080  149.8710  131.2110 C   0  0  0  0  0  0  0  0  0  0  0  0
  139.9970  148.4820  131.6630 C   0  0  0  0  0  0  0  0  0  0  0  0
  141.2090  148.5300  132.6110 C   0  0  0  0  0  0  0  0  0  0  0  0
  142.0780  149.7700  132.3810 C   0  0  0  0  0  0  0  0  0  0  0  0
  141.1620  153.4350  132.9690 C   0  0  0  0  0  0  0  0  0  0  0  0
  141.8060  154.6210  133.3520 C   0  0  0  0  0  0  0  0  0  0  0  0
  141.2910  155.8710  133.4930 N   0  0  0  0  0  0  0  0  0  0  0  0
  139.9200  156.3050  133.3350 C   0  0  0  0  0  0  0  0  0  0  0  0
  139.1220  155.5930  132.6660 O   0  0  0  0  0  0  0  0  0  0  0  0
  139.4350  157.6210  133.8940 C   0  0  0  0  0  0  0  0  0  0  0  0
  138.4700  158.3860  132.9760 C   0  0  0  0  0  0  0  0  0  0  0  0
  139.3150  159.5520  131.8590 P   0  0  0  0  0  0  0  0  0  0  0  0
  140.3590  158.8160  131.0510 O   0  0  0  0  0  0  0  0  0  0  0  0
  140.0800  160.7420  132.7850 O   0  0  0  0  0  0  0  0  0  0  0  0
  138.2010  160.2890  130.8190 O   0  0  0  0  0  0  0  0  0  0  0  0
  142.1650  158.7110  132.2260 H   0  0  0  0  0  0  0  0  0  0  0  0
  142.0060  160.0320  133.4370 H   0  0  0  0  0  0  0  0  0  0  0  0
  144.4503  156.2030  134.5083 H   0  0  0  0  0  0  0  0  0  0  0  0
  144.9530  153.4573  134.0002 H   0  0  0  0  0  0  0  0  0  0  0  0
  143.8648  151.3236  133.2467 H   0  0  0  0  0  0  0  0  0  0  0  0
  139.2897  150.7555  133.1697 H   0  0  0  0  0  0  0  0  0  0  0  0
  139.5269  151.9366  131.8256 H   0  0  0  0  0  0  0  0  0  0  0  0
  138.4180  149.8331  131.0678 H   0  0  0  0  0  0  0  0  0  0  0  0
  140.0273  150.1227  130.2745 H   0  0  0  0  0  0  0  0  0  0  0  0
  139.1703  147.9749  132.1820 H   0  0  0  0  0  0  0  0  0  0  0  0
  140.3179  147.9445  130.7585 H   0  0  0  0  0  0  0  0  0  0  0  0
  140.8458  148.5402  133.6493 H   0  0  0  0  0  0  0  0  0  0  0  0
  141.8283  147.6432  132.4107 H   0  0  0  0  0  0  0  0  0  0  0  0
  142.8896  149.7848  133.1234 H   0  0  0  0  0  0  0  0  0  0  0  0
  142.4924  149.7273  131.3629 H   0  0  0  0  0  0  0  0  0  0  0  0
  140.0935  153.4391  132.7076 H   0  0  0  0  0  0  0  0  0  0  0  0
  138.9190  157.4212  134.8447 H   0  0  0  0  0  0  0  0  0  0  0  0
  140.3244  158.2573  134.0127 H   0  0  0  0  0  0  0  0  0  0  0  0
  137.9156  157.6573  132.3664 H   0  0  0  0  0  0  0  0  0  0  0  0
  137.8033  158.9765  133.6217 H   0  0  0  0  0  0  0  0  0  0  0  0
  1  2  1  0
  2  3  2  0
  2  4  1  0
  4  5  2  0
  5  6  1  0
  6  7  2  0
  7  8  1  0
  8  9  2  0
  9 10  1  0
 10 11  1  0
 11 12  1  0
 12 13  1  0
 13 14  1  0
 14 15  1  0
  9 16  1  0
 16 17  2  0
 17 18  1  0
 18 19  1  0
 19 20  2  0
 19 21  1  0
 21 22  1  0
 22 23  1  0
 23 24  2  0
 23 25  1  0
 23 26  1  0
 18  4  1  0
 17  6  1  0
 15 10  1  0
  1 27  1  0
  1 28  1  0
  5 29  1  0
  7 30  1  0
  8 31  1  0
 11 32  1  0
 11 33  1  0
 12 34  1  0
 12 35  1  0
 13 36  1  0
 13 37  1  0
 14 38  1  0
 14 39  1  0
 15 40  1  0
 15 41  1  0
 16 42  1  0
 21 43  1  0
 21 44  1  0
 22 45  1  0
 22 46  1  0
M  CHG  2  25  -1  26  -1
M  END
>  <UniqueID>  (90) 
90

>  <SMILES>  (90) 
NC(=O)c1cc2ccc(N3CCCCC3)cc2n1C(=O)CCP(=O)([O-])[O-]

>  <Energy>  (90) 
88.35469975670304

>  <Genealogy>  (90) 
NC(=O)c1cc2ccc(N3CCCCC3)cc2n1C(=O)CCP(=O)([O-])[O-] (protonated)
NC(=O)c1cc2ccc(N3CCCCC3)cc2n1C(=O)CCP(=O)([O-])[O-] (3D coordinates assigned)
NC(=O)c1cc2ccc(N3CCCCC3)cc2n1C(=O)CCP(=O)([O-])[O-] (nonaromatic ring conformer: 88.35469975670304 kcal/mol)

>  <smiles>  (90) 
NC(=O)c1cc2ccc(N3CCCCC3)cc2n1C(=O)CCP(=O)(O)O

>  <score_type>  (90) 
oracle

>  <origin>  (90) 
adg

>  <m_score__min__energy>  (90) 
-8.1099999999999994

>  <m_primary>  (90) 
energy

$$$$
91:0
     RDKit          3D

 47 48  0  0  0  0  0  0  0  0999 V2000
  140.4100  158.2420  133.2790 C   0  0  0  0  0  0  0  0  0  0  0  0
  141.5070  157.6980  134.0870 N   0  0  0  0  0  0  0  0  0  0  0  0
  141.3700  157.6760  135.5500 C   0  0  0  0  0  0  0  0  0  0  0  0
  140.2940  158.6190  135.9920 C   0  0  0  0  0  0  0  0  0  0  0  0
  139.1020  158.2250  136.0890 O   0  0  0  0  0  0  0  0  0  0  0  0
  140.6170  159.9230  136.3470 O   0  0  0  0  0  0  0  0  0  0  0  0
  142.6990  157.1920  133.4480 C   0  0  0  0  0  0  0  0  0  0  0  0
  143.2920  157.8940  132.5850 O   0  0  0  0  0  0  0  0  0  0  0  0
  143.2180  155.8100  133.7770 C   0  0  0  0  0  0  0  0  0  0  0  0
  144.5310  155.4420  133.0670 C   0  0  0  0  0  0  0  0  0  0  0  0
  145.7350  155.6370  133.9480 C   0  0  0  0  0  0  0  0  0  0  0  0
  145.7580  155.1200  135.0980 O   0  0  0  0  0  0  0  0  0  0  0  0
  146.8470  156.4300  133.5020 N   0  0  0  0  0  0  0  0  0  0  0  0
  148.0490  155.9980  133.0270 C   0  0  0  0  0  0  0  0  0  0  0  0
  148.5320  154.6010  133.0310 C   0  0  0  0  0  0  0  0  0  0  0  0
  148.0420  153.6620  133.9840 N   0  0  0  0  0  0  0  0  0  0  0  0
  149.4230  154.2460  132.2150 O   0  0  0  0  0  0  0  0  0  0  0  0
  148.8250  157.0760  132.6100 C   0  0  0  0  0  0  0  0  0  0  0  0
  148.0620  158.1930  132.8620 C   0  0  0  0  0  0  0  0  0  0  0  0
  148.3450  159.5350  132.6460 C   0  0  0  0  0  0  0  0  0  0  0  0
  147.3650  160.4790  132.9910 C   0  0  0  0  0  0  0  0  0  0  0  0
  146.1140  160.0740  133.5370 C   0  0  0  0  0  0  0  0  0  0  0  0
  145.1090  161.0590  133.8830 N   0  0  0  0  0  0  0  0  0  0  0  0
  143.6840  160.7480  133.7350 C   0  0  0  0  0  0  0  0  0  0  0  0
  145.5020  162.3850  134.3730 C   0  0  0  0  0  0  0  0  0  0  0  0
  145.8700  158.6900  133.7350 C   0  0  0  0  0  0  0  0  0  0  0  0
  146.8750  157.7760  133.3990 C   0  0  0  0  0  0  0  0  0  0  0  0
  139.6241  158.6317  133.9427 H   0  0  0  0  0  0  0  0  0  0  0  0
  140.7907  159.0557  132.6442 H   0  0  0  0  0  0  0  0  0  0  0  0
  139.9927  157.4464  132.6442 H   0  0  0  0  0  0  0  0  0  0  0  0
  141.1130  156.6567  135.8739 H   0  0  0  0  0  0  0  0  0  0  0  0
  142.3234  157.9890  136.0006 H   0  0  0  0  0  0  0  0  0  0  0  0
  143.3861  155.7545  134.8627 H   0  0  0  0  0  0  0  0  0  0  0  0
  142.4587  155.0962  133.4250 H   0  0  0  0  0  0  0  0  0  0  0  0
  144.4837  154.3861  132.7624 H   0  0  0  0  0  0  0  0  0  0  0  0
  144.6402  156.1082  132.1985 H   0  0  0  0  0  0  0  0  0  0  0  0
  147.0250  153.6080  134.2120 H   0  0  0  0  0  0  0  0  0  0  0  0
  149.8335  157.0420  132.1722 H   0  0  0  0  0  0  0  0  0  0  0  0
  149.3082  159.8491  132.2174 H   0  0  0  0  0  0  0  0  0  0  0  0
  147.5669  161.5493  132.8370 H   0  0  0  0  0  0  0  0  0  0  0  0
  143.2253  160.6479  134.7298 H   0  0  0  0  0  0  0  0  0  0  0  0
  143.1872  161.5589  133.1821 H   0  0  0  0  0  0  0  0  0  0  0  0
  143.5703  159.8039  133.1821 H   0  0  0  0  0  0  0  0  0  0  0  0
  145.5018  162.3843  135.4730 H   0  0  0  0  0  0  0  0  0  0  0  0
  146.5105  162.6272  134.0067 H   0  0  0  0  0  0  0  0  0  0  0  0
  144.7883  163.1376  134.0067 H   0  0  0  0  0  0  0  0  0  0  0  0
  144.9099  158.3426  134.1444 H   0  0  0  0  0  0  0  0  0  0  0  0
  1  2  1  0
  2  3  1  0
  3  4  1  0
  4  5  2  0
  4  6  1  0
  2  7  1  0
  7  8  2  0
  7  9  1  0
  9 10  1  0
 10 11  1  0
 11 12  2  0
 11 13  1  0
 13 14  1  0
 14 15  1  0
 15 16  1  0
 15 17  2  0
 14 18  2  0
 18 19  1  0
 19 20  2  0
 20 21  1  0
 21 22  2  0
 22 23  1  0
 23 24  1  0
 23 25  1  0
 22 26  1  0
 26 27  2  0
 27 13  1  0
 27 19  1  0
  1 28  1  0
  1 29  1  0
  1 30  1  0
  3 31  1  0
  3 32  1  0
  9 33  1  0
  9 34  1  0
 10 35  1  0
 10 36  1  0
 16 37  1  0
 18 38  1  0
 20 39  1  0
 21 40  1  0
 24 41  1  0
 24 42  1  0
 24 43  1  0
 25 44  1  0
 25 45  1  0
 25 46  1  0
 26 47  1  0
M  CHG  2   6  -1  16  -1
M  END
>  <UniqueID>  (91) 
91

>  <SMILES>  (91) 
CN(CC(=O)[O-])C(=O)CCC(=O)n1c(C([NH-])=O)cc2ccc(N(C)C)cc21

>  <Energy>  (91) 
83.28976712983992

>  <Genealogy>  (91) 
CN(CC(=O)[O-])C(=O)CCC(=O)n1c(C([NH-])=O)cc2ccc(N(C)C)cc21 (protonated)
CN(CC(=O)[O-])C(=O)CCC(=O)n1c(C([NH-])=O)cc2ccc(N(C)C)cc21 (3D coordinates assigned)
CN(CC(=O)[O-])C(=O)CCC(=O)n1c(C([NH-])=O)cc2ccc(N(C)C)cc21 (optimized conformer: 83.28976712983992 kcal/mol)

>  <smiles>  (91) 
CN(CC(=O)O)C(=O)CCC(=O)n1c(C(N)=O)cc2ccc(N(C)C)cc21

>  <score_type>  (91) 
oracle

>  <origin>  (91) 
adg

>  <m_score__min__energy>  (91) 
-7.0199999999999996

>  <m_primary>  (91) 
energy

$$$$
92:0
     RDKit          3D

 31 32  0  0  0  0  0  0  0  0999 V2000
  146.4210  161.6440  134.1070 N   0  0  0  0  0  0  0  0  0  0  0  0
  145.3500  160.7510  133.8130 C   0  0  0  0  0  0  0  0  0  0  0  0
  144.1710  161.1920  133.7740 O   0  0  0  0  0  0  0  0  0  0  0  0
  145.6330  159.3280  133.5340 C   0  0  0  0  0  0  0  0  0  0  0  0
  144.6890  158.3090  133.6520 C   0  0  0  0  0  0  0  0  0  0  0  0
  145.3730  157.1460  133.3780 C   0  0  0  0  0  0  0  0  0  0  0  0
  144.9280  155.8280  133.3510 C   0  0  0  0  0  0  0  0  0  0  0  0
  145.8580  154.8240  133.0280 C   0  0  0  0  0  0  0  0  0  0  0  0
  147.2120  155.1530  132.7370 C   0  0  0  0  0  0  0  0  0  0  0  0
  148.1790  154.1410  132.4010 N   0  0  0  0  0  0  0  0  0  0  0  0
  148.7910  153.2570  133.3940 C   0  0  0  0  0  0  0  0  0  0  0  0
  149.5560  152.1580  132.7240 C   0  0  0  0  0  0  0  0  0  0  0  0
  150.1090  151.2590  133.4120 O   0  0  0  0  0  0  0  0  0  0  0  0
  149.6120  152.0960  131.3370 O   0  0  0  0  0  0  0  0  0  0  0  0
  147.6200  156.5050  132.7760 C   0  0  0  0  0  0  0  0  0  0  0  0
  146.6720  157.4780  133.1070 C   0  0  0  0  0  0  0  0  0  0  0  0
  146.8470  158.8130  133.1910 N   0  0  0  0  0  0  0  0  0  0  0  0
  148.0730  159.5170  132.9450 C   0  0  0  0  0  0  0  0  0  0  0  0
  148.8520  159.7610  133.9040 O   0  0  0  0  0  0  0  0  0  0  0  0
  148.4830  159.8900  131.5510 C   0  0  0  0  0  0  0  0  0  0  0  0
  147.4380  160.4920  130.8750 F   0  0  0  0  0  0  0  0  0  0  0  0
  149.5550  160.7620  131.6000 F   0  0  0  0  0  0  0  0  0  0  0  0
  148.8600  158.7500  130.8670 F   0  0  0  0  0  0  0  0  0  0  0  0
  147.3660  161.2820  134.3660 H   0  0  0  0  0  0  0  0  0  0  0  0
  143.6245  158.4122  133.9092 H   0  0  0  0  0  0  0  0  0  0  0  0
  143.8804  155.5789  133.5755 H   0  0  0  0  0  0  0  0  0  0  0  0
  145.5356  153.7727  132.9999 H   0  0  0  0  0  0  0  0  0  0  0  0
  148.4540  154.0380  131.3970 H   0  0  0  0  0  0  0  0  0  0  0  0
  149.4768  153.8420  134.0244 H   0  0  0  0  0  0  0  0  0  0  0  0
  147.9952  152.8105  134.0083 H   0  0  0  0  0  0  0  0  0  0  0  0
  148.6595  156.7858  132.5511 H   0  0  0  0  0  0  0  0  0  0  0  0
  1  2  1  0
  2  3  2  0
  2  4  1  0
  4  5  2  0
  5  6  1  0
  6  7  2  0
  7  8  1  0
  8  9  2  0
  9 10  1  0
 10 11  1  0
 11 12  1  0
 12 13  2  0
 12 14  1  0
  9 15  1  0
 15 16  2  0
 16 17  1  0
 17 18  1  0
 18 19  2  0
 18 20  1  0
 20 21  1  0
 20 22  1  0
 20 23  1  0
 17  4  1  0
 16  6  1  0
  1 24  1  0
  5 25  1  0
  7 26  1  0
  8 27  1  0
 10 28  1  0
 11 29  1  0
 11 30  1  0
 15 31  1  0
M  CHG  2   1  -1  14  -1
M  END
>  <UniqueID>  (92) 
92

>  <SMILES>  (92) 
[NH-]C(=O)c1cc2ccc(NCC(=O)[O-])cc2n1C(=O)C(F)(F)F

>  <Energy>  (92) 
69.926299319428

>  <Genealogy>  (92) 
[NH-]C(=O)c1cc2ccc(NCC(=O)[O-])cc2n1C(=O)C(F)(F)F (protonated)
[NH-]C(=O)c1cc2ccc(NCC(=O)[O-])cc2n1C(=O)C(F)(F)F (3D coordinates assigned)
[NH-]C(=O)c1cc2ccc(NCC(=O)[O-])cc2n1C(=O)C(F)(F)F (optimized conformer: 69.926299319428 kcal/mol)

>  <smiles>  (92) 
NC(=O)c1cc2ccc(NCC(=O)O)cc2n1C(=O)C(F)(F)F

>  <score_type>  (92) 
oracle

>  <origin>  (92) 
adg

>  <m_score__min__energy>  (92) 
-5.4900000000000002

>  <m_primary>  (92) 
energy

$$$$
93:0
     RDKit          3D

 37 38  0  0  0  0  0  0  0  0999 V2000
  141.9610  158.7670  134.4390 C   0  0  0  0  0  0  0  0  0  0  0  0
  143.3300  159.2360  134.0480 C   0  0  0  0  0  0  0  0  0  0  0  0
  143.6540  160.6140  134.1080 C   0  0  0  0  0  0  0  0  0  0  0  0
  144.9490  161.0590  133.7900 C   0  0  0  0  0  0  0  0  0  0  0  0
  145.8940  160.1060  133.4200 C   0  0  0  0  0  0  0  0  0  0  0  0
  147.2240  160.2560  133.0990 C   0  0  0  0  0  0  0  0  0  0  0  0
  147.6890  158.9680  132.8420 C   0  0  0  0  0  0  0  0  0  0  0  0
  149.0630  158.6770  132.3800 C   0  0  0  0  0  0  0  0  0  0  0  0
  149.5180  157.3350  132.2320 N   0  0  0  0  0  0  0  0  0  0  0  0
  149.8280  159.6270  132.0630 O   0  0  0  0  0  0  0  0  0  0  0  0
  146.6890  158.0560  133.0050 N   0  0  0  0  0  0  0  0  0  0  0  0
  146.7890  156.6250  132.9390 C   0  0  0  0  0  0  0  0  0  0  0  0
  147.0450  156.0600  131.8400 O   0  0  0  0  0  0  0  0  0  0  0  0
  146.5700  155.8620  134.0900 O   0  0  0  0  0  0  0  0  0  0  0  0
  147.5520  154.9880  134.6340 C   0  0  0  0  0  0  0  0  0  0  0  0
  147.6480  155.1950  136.0390 O   0  0  0  0  0  0  0  0  0  0  0  0
  148.0970  154.2060  136.9190 C   0  0  0  0  0  0  0  0  0  0  0  0
  149.1710  154.3600  137.5640 O   0  0  0  0  0  0  0  0  0  0  0  0
  147.3230  153.0140  137.0830 N   0  0  0  0  0  0  0  0  0  0  0  0
  147.2660  152.2530  138.3250 C   0  0  0  0  0  0  0  0  0  0  0  0
  146.4720  152.9940  139.3530 C   0  0  0  0  0  0  0  0  0  0  0  0
  145.2820  152.6650  139.5970 O   0  0  0  0  0  0  0  0  0  0  0  0
  147.0390  154.0710  140.0230 O   0  0  0  0  0  0  0  0  0  0  0  0
  145.5950  158.7680  133.3560 C   0  0  0  0  0  0  0  0  0  0  0  0
  144.3190  158.2960  133.6860 C   0  0  0  0  0  0  0  0  0  0  0  0
  141.8820  158.7399  135.5358 H   0  0  0  0  0  0  0  0  0  0  0  0
  141.2071  159.4581  134.0340 H   0  0  0  0  0  0  0  0  0  0  0  0
  141.7893  157.7588  134.0340 H   0  0  0  0  0  0  0  0  0  0  0  0
  142.8853  161.3422  134.4061 H   0  0  0  0  0  0  0  0  0  0  0  0
  145.2077  162.1273  133.8322 H   0  0  0  0  0  0  0  0  0  0  0  0
  147.7978  161.1934  133.0548 H   0  0  0  0  0  0  0  0  0  0  0  0
  149.0620  156.6850  131.5540 H   0  0  0  0  0  0  0  0  0  0  0  0
  147.2639  153.9450  134.4362 H   0  0  0  0  0  0  0  0  0  0  0  0
  148.5258  155.1955  134.1663 H   0  0  0  0  0  0  0  0  0  0  0  0
  146.7913  151.2796  138.1324 H   0  0  0  0  0  0  0  0  0  0  0  0
  148.2891  152.1061  138.7013 H   0  0  0  0  0  0  0  0  0  0  0  0
  144.0927  157.2198  133.6638 H   0  0  0  0  0  0  0  0  0  0  0  0
  1  2  1  0
  2  3  2  0
  3  4  1  0
  4  5  2  0
  5  6  1  0
  6  7  2  0
  7  8  1  0
  8  9  1  0
  8 10  2  0
  7 11  1  0
 11 12  1  0
 12 13  2  0
 12 14  1  0
 14 15  1  0
 15 16  1  0
 16 17  1  0
 17 18  2  0
 17 19  1  0
 19 20  1  0
 20 21  1  0
 21 22  2  0
 21 23  1  0
 11 24  1  0
 24 25  2  0
 25  2  1  0
 24  5  1  0
  1 26  1  0
  1 27  1  0
  1 28  1  0
  3 29  1  0
  4 30  1  0
  6 31  1  0
  9 32  1  0
 15 33  1  0
 15 34  1  0
 20 35  1  0
 20 36  1  0
 25 37  1  0
M  CHG  3   9  -1  19  -1  23  -1
M  END
>  <UniqueID>  (93) 
93

>  <SMILES>  (93) 
Cc1ccc2cc(C([NH-])=O)n(C(=O)OCOC(=O)[N-]CC(=O)[O-])c2c1

>  <Energy>  (93) 
69.21923951048842

>  <Genealogy>  (93) 
Cc1ccc2cc(C([NH-])=O)n(C(=O)OCOC(=O)[N-]CC(=O)[O-])c2c1 (protonated)
Cc1ccc2cc(C([NH-])=O)n(C(=O)OCOC(=O)[N-]CC(=O)[O-])c2c1 (3D coordinates assigned)
Cc1ccc2cc(C([NH-])=O)n(C(=O)OCOC(=O)[N-]CC(=O)[O-])c2c1 (optimized conformer: 69.21923951048842 kcal/mol)

>  <smiles>  (93) 
Cc1ccc2cc(C(N)=O)n(C(=O)OCOC(=O)NCC(=O)O)c2c1

>  <score_type>  (93) 
oracle

>  <origin>  (93) 
adg

>  <m_score__min__energy>  (93) 
-6.79

>  <m_primary>  (93) 
energy

$$$$
94:0
     RDKit          3D

 38 39  0  0  0  0  0  0  0  0999 V2000
  142.8310  160.8250  133.4260 N   0  0  0  0  0  0  0  0  0  0  0  0
  144.1990  161.0840  133.7320 C   0  0  0  0  0  0  0  0  0  0  0  0
  144.5390  162.2370  134.1070 O   0  0  0  0  0  0  0  0  0  0  0  0
  145.2290  160.0380  133.5590 C   0  0  0  0  0  0  0  0  0  0  0  0
  146.5860  160.3190  133.4090 C   0  0  0  0  0  0  0  0  0  0  0  0
  147.1870  159.1030  133.1760 C   0  0  0  0  0  0  0  0  0  0  0  0
  148.5260  158.7930  132.9600 C   0  0  0  0  0  0  0  0  0  0  0  0
  148.8680  157.4430  132.7690 C   0  0  0  0  0  0  0  0  0  0  0  0
  147.8720  156.4340  132.8040 C   0  0  0  0  0  0  0  0  0  0  0  0
  148.2440  154.9920  132.6160 C   0  0  0  0  0  0  0  0  0  0  0  0
  149.5810  154.8960  132.2790 F   0  0  0  0  0  0  0  0  0  0  0  0
  148.0180  154.2950  133.7900 F   0  0  0  0  0  0  0  0  0  0  0  0
  146.5230  156.7870  133.0290 C   0  0  0  0  0  0  0  0  0  0  0  0
  146.2090  158.1410  133.1990 C   0  0  0  0  0  0  0  0  0  0  0  0
  145.0020  158.6980  133.4380 N   0  0  0  0  0  0  0  0  0  0  0  0
  143.7600  157.9970  133.5890 C   0  0  0  0  0  0  0  0  0  0  0  0
  142.9720  157.8910  132.6090 O   0  0  0  0  0  0  0  0  0  0  0  0
  143.4230  157.4450  134.8300 O   0  0  0  0  0  0  0  0  0  0  0  0
  142.2840  156.6120  135.0360 C   0  0  0  0  0  0  0  0  0  0  0  0
  141.3080  157.2370  136.0440 C   0  0  0  0  0  0  0  0  0  0  0  0
  140.3050  158.1940  135.3800 C   0  0  0  0  0  0  0  0  0  0  0  0
  140.8460  158.7890  134.1570 N   0  0  0  0  0  0  0  0  0  0  0  0
  140.0020  159.1420  133.0580 C   0  0  0  0  0  0  0  0  0  0  0  0
  138.7600  158.9410  133.1110 O   0  0  0  0  0  0  0  0  0  0  0  0
  140.5560  159.7140  131.9200 O   0  0  0  0  0  0  0  0  0  0  0  0
  142.5630  160.0560  132.7730 H   0  0  0  0  0  0  0  0  0  0  0  0
  147.0731  161.3037  133.4650 H   0  0  0  0  0  0  0  0  0  0  0  0
  149.2938  159.5805  132.9393 H   0  0  0  0  0  0  0  0  0  0  0  0
  149.9177  157.1667  132.5908 H   0  0  0  0  0  0  0  0  0  0  0  0
  147.6298  154.5640  131.8101 H   0  0  0  0  0  0  0  0  0  0  0  0
  145.7383  156.0172  133.0697 H   0  0  0  0  0  0  0  0  0  0  0  0
  141.7656  156.4707  134.0762 H   0  0  0  0  0  0  0  0  0  0  0  0
  142.6282  155.6481  135.4391 H   0  0  0  0  0  0  0  0  0  0  0  0
  140.7493  156.4299  136.5403 H   0  0  0  0  0  0  0  0  0  0  0  0
  141.9006  157.8217  136.7630 H   0  0  0  0  0  0  0  0  0  0  0  0
  139.3918  157.6343  135.1294 H   0  0  0  0  0  0  0  0  0  0  0  0
  140.0896  159.0074  136.0885 H   0  0  0  0  0  0  0  0  0  0  0  0
  141.8660  159.0000  134.0760 H   0  0  0  0  0  0  0  0  0  0  0  0
  1  2  1  0
  2  3  2  0
  2  4  1  0
  4  5  2  0
  5  6  1  0
  6  7  2  0
  7  8  1  0
  8  9  2  0
  9 10  1  0
 10 11  1  0
 10 12  1  0
  9 13  1  0
 13 14  2  0
 14 15  1  0
 15 16  1  0
 16 17  2  0
 16 18  1  0
 18 19  1  0
 19 20  1  0
 20 21  1  0
 21 22  1  0
 22 23  1  0
 23 24  2  0
 23 25  1  0
 15  4  1  0
 14  6  1  0
  1 26  1  0
  5 27  1  0
  7 28  1  0
  8 29  1  0
 10 30  1  0
 13 31  1  0
 19 32  1  0
 19 33  1  0
 20 34  1  0
 20 35  1  0
 21 36  1  0
 21 37  1  0
 22 38  1  0
M  CHG  2   1  -1  25  -1
M  END
>  <UniqueID>  (94) 
94

>  <SMILES>  (94) 
[NH-]C(=O)c1cc2ccc(C(F)F)cc2n1C(=O)OCCCNC(=O)[O-]

>  <Energy>  (94) 
69.32982485557253

>  <Genealogy>  (94) 
[NH-]C(=O)c1cc2ccc(C(F)F)cc2n1C(=O)OCCCNC(=O)[O-] (protonated)
[NH-]C(=O)c1cc2ccc(C(F)F)cc2n1C(=O)OCCCNC(=O)[O-] (3D coordinates assigned)
[NH-]C(=O)c1cc2ccc(C(F)F)cc2n1C(=O)OCCCNC(=O)[O-] (optimized conformer: 69.32982485557253 kcal/mol)

>  <smiles>  (94) 
NC(=O)c1cc2ccc(C(F)F)cc2n1C(=O)OCCCNC(=O)O

>  <score_type>  (94) 
oracle

>  <origin>  (94) 
adg

>  <m_score__min__energy>  (94) 
-6.04

>  <m_primary>  (94) 
energy

$$$$
95:0
     RDKit          3D

 37 38  0  0  0  0  0  0  0  0999 V2000
  145.7300  154.6750  134.2520 C   0  0  0  0  0  0  0  0  0  0  0  0
  145.9730  154.7640  132.7480 C   0  0  1  0  0  0  0  0  0  0  0  0
  144.4140  154.6980  131.8920 Cl  0  0  0  0  0  0  0  0  0  0  0  0
  146.6250  155.9890  132.4180 O   0  0  0  0  0  0  0  0  0  0  0  0
  146.9850  156.9550  133.3650 C   0  0  0  0  0  0  0  0  0  0  0  0
  147.8870  156.7100  134.2110 O   0  0  0  0  0  0  0  0  0  0  0  0
  146.3320  158.2360  133.3580 N   0  0  0  0  0  0  0  0  0  0  0  0
  146.9100  159.4520  133.1430 C   0  0  0  0  0  0  0  0  0  0  0  0
  148.2970  159.6820  132.6940 C   0  0  0  0  0  0  0  0  0  0  0  0
  149.3920  158.9930  133.2980 N   0  0  0  0  0  0  0  0  0  0  0  0
  148.5120  160.4570  131.7230 O   0  0  0  0  0  0  0  0  0  0  0  0
  145.9930  160.4770  133.3550 C   0  0  0  0  0  0  0  0  0  0  0  0
  144.8180  159.8480  133.6980 C   0  0  0  0  0  0  0  0  0  0  0  0
  143.5820  160.3910  134.0370 C   0  0  0  0  0  0  0  0  0  0  0  0
  142.5510  159.5060  134.3920 C   0  0  0  0  0  0  0  0  0  0  0  0
  142.7740  158.1060  134.4070 C   0  0  0  0  0  0  0  0  0  0  0  0
  141.6740  157.1690  134.8390 C   0  0  0  0  0  0  0  0  0  0  0  0
  141.3370  157.3330  136.3250 C   0  0  0  0  0  0  0  0  0  0  0  0
  140.2820  158.3750  136.5410 C   0  0  0  0  0  0  0  0  0  0  0  0
  139.0990  158.1660  136.1640 O   0  0  0  0  0  0  0  0  0  0  0  0
  140.6140  159.5930  137.1210 O   0  0  0  0  0  0  0  0  0  0  0  0
  144.0440  157.5940  134.0660 C   0  0  0  0  0  0  0  0  0  0  0  0
  145.0490  158.4970  133.6950 C   0  0  0  0  0  0  0  0  0  0  0  0
  146.6313  155.0051  134.7892 H   0  0  0  0  0  0  0  0  0  0  0  0
  144.8829  155.3212  134.5254 H   0  0  0  0  0  0  0  0  0  0  0  0
  145.5006  153.6345  134.5254 H   0  0  0  0  0  0  0  0  0  0  0  0
  146.6116  153.9207  132.4462 H   0  0  0  0  0  0  0  0  0  0  0  0
  150.3710  159.2000  132.9980 H   0  0  0  0  0  0  0  0  0  0  0  0
  149.2310  158.2250  133.9850 H   0  0  0  0  0  0  0  0  0  0  0  0
  146.1696  161.5592  133.2671 H   0  0  0  0  0  0  0  0  0  0  0  0
  143.4180  161.4787  134.0272 H   0  0  0  0  0  0  0  0  0  0  0  0
  141.5610  159.9028  134.6610 H   0  0  0  0  0  0  0  0  0  0  0  0
  140.7729  157.3797  134.2443 H   0  0  0  0  0  0  0  0  0  0  0  0
  142.0213  156.1376  134.6792 H   0  0  0  0  0  0  0  0  0  0  0  0
  140.9741  156.3713  136.7167 H   0  0  0  0  0  0  0  0  0  0  0  0
  142.2487  157.6532  136.8506 H   0  0  0  0  0  0  0  0  0  0  0  0
  144.2402  156.5119  134.0908 H   0  0  0  0  0  0  0  0  0  0  0  0
  1  2  1  0
  2  3  1  0
  2  4  1  0
  4  5  1  0
  5  6  2  0
  5  7  1  0
  7  8  1  0
  8  9  1  0
  9 10  1  0
  9 11  2  0
  8 12  2  0
 12 13  1  0
 13 14  2  0
 14 15  1  0
 15 16  2  0
 16 17  1  0
 17 18  1  0
 18 19  1  0
 19 20  2  0
 19 21  1  0
 16 22  1  0
 22 23  2  0
 23  7  1  0
 23 13  1  0
  1 24  1  0
  1 25  1  0
  1 26  1  0
  2 27  1  6
 10 28  1  0
 10 29  1  0
 12 30  1  0
 14 31  1  0
 15 32  1  0
 17 33  1  0
 17 34  1  0
 18 35  1  0
 18 36  1  0
 22 37  1  0
M  CHG  1  21  -1
M  END
>  <UniqueID>  (95) 
95

>  <SMILES>  (95) 
C[C@@H](Cl)OC(=O)n1c(C(N)=O)cc2ccc(CCC(=O)[O-])cc21

>  <Energy>  (95) 
68.30099974831815

>  <Genealogy>  (95) 
CC(Cl)OC(=O)n1c(C(N)=O)cc2ccc(CCC(=O)[O-])cc21 (protonated)
C[C@@H](Cl)OC(=O)n1c(C(N)=O)cc2ccc(CCC(=O)[O-])cc21 (chirality)
C[C@@H](Cl)OC(=O)n1c(C(N)=O)cc2ccc(CCC(=O)[O-])cc21 (3D coordinates assigned)
C[C@@H](Cl)OC(=O)n1c(C(N)=O)cc2ccc(CCC(=O)[O-])cc21 (optimized conformer: 68.30099974831815 kcal/mol)

>  <smiles>  (95) 
CC(Cl)OC(=O)n1c(C(N)=O)cc2ccc(CCC(=O)O)cc21

>  <score_type>  (95) 
oracle

>  <origin>  (95) 
adg

>  <m_score__min__energy>  (95) 
-7.46

>  <m_primary>  (95) 
energy

$$$$
96:0
     RDKit          3D

 41 43  0  0  0  0  0  0  0  0999 V2000
  140.2120  159.2600  136.0900 N   0  0  0  0  0  0  0  0  0  0  0  0
  140.8390  158.1630  136.7490 C   0  0  0  0  0  0  0  0  0  0  0  0
  141.0700  158.2360  137.9840 O   0  0  0  0  0  0  0  0  0  0  0  0
  141.1650  156.9220  136.0160 C   0  0  0  0  0  0  0  0  0  0  0  0
  142.0790  155.9770  136.4770 C   0  0  0  0  0  0  0  0  0  0  0  0
  142.0410  154.9540  135.5560 C   0  0  0  0  0  0  0  0  0  0  0  0
  142.7840  153.7790  135.4940 C   0  0  0  0  0  0  0  0  0  0  0  0
  142.5890  152.9340  134.3880 C   0  0  0  0  0  0  0  0  0  0  0  0
  141.6540  153.2700  133.3760 C   0  0  0  0  0  0  0  0  0  0  0  0
  141.5110  152.4330  132.2080 N   0  0  0  0  0  0  0  0  0  0  0  0
  141.7910  151.0220  132.5230 C   0  0  0  0  0  0  0  0  0  0  0  0
  140.7000  150.1070  132.0190 C   0  0  0  0  0  0  0  0  0  0  0  0
  139.3630  150.5360  132.0200 C   0  0  0  0  0  0  0  0  0  0  0  0
  138.3620  149.7250  131.4760 C   0  0  0  0  0  0  0  0  0  0  0  0
  138.6890  148.4830  130.9240 C   0  0  0  0  0  0  0  0  0  0  0  0
  140.0180  148.0480  130.9200 C   0  0  0  0  0  0  0  0  0  0  0  0
  140.3350  146.8480  130.3740 F   0  0  0  0  0  0  0  0  0  0  0  0
  141.0210  148.8560  131.4640 C   0  0  0  0  0  0  0  0  0  0  0  0
  140.9110  154.4690  133.4830 C   0  0  0  0  0  0  0  0  0  0  0  0
  141.1290  155.2930  134.5910 C   0  0  0  0  0  0  0  0  0  0  0  0
  140.5890  156.5040  134.8520 N   0  0  0  0  0  0  0  0  0  0  0  0
  139.7120  157.2430  133.9870 C   0  0  0  0  0  0  0  0  0  0  0  0
  138.6680  157.7750  134.4570 O   0  0  0  0  0  0  0  0  0  0  0  0
  140.0390  157.4030  132.6370 O   0  0  0  0  0  0  0  0  0  0  0  0
  140.1360  158.6740  132.0050 C   0  0  0  0  0  0  0  0  0  0  0  0
  138.6330  159.0430  131.1210 Cl  0  0  0  0  0  0  0  0  0  0  0  0
  139.1770  159.2850  135.9540 H   0  0  0  0  0  0  0  0  0  0  0  0
  142.6990  156.0356  137.3837 H   0  0  0  0  0  0  0  0  0  0  0  0
  143.5018  153.5196  136.2862 H   0  0  0  0  0  0  0  0  0  0  0  0
  143.1678  152.0021  134.3064 H   0  0  0  0  0  0  0  0  0  0  0  0
  140.5320  152.5080  131.8460 H   0  0  0  0  0  0  0  0  0  0  0  0
  142.1470  152.7640  131.4450 H   0  0  0  0  0  0  0  0  0  0  0  0
  142.7426  150.7343  132.0522 H   0  0  0  0  0  0  0  0  0  0  0  0
  141.8441  150.9202  133.6170 H   0  0  0  0  0  0  0  0  0  0  0  0
  139.1019  151.5140  132.4505 H   0  0  0  0  0  0  0  0  0  0  0  0
  137.3158  150.0649  131.4825 H   0  0  0  0  0  0  0  0  0  0  0  0
  137.9010  147.8480  130.4929 H   0  0  0  0  0  0  0  0  0  0  0  0
  142.0656  148.5114  131.4577 H   0  0  0  0  0  0  0  0  0  0  0  0
  140.1779  154.7468  132.7114 H   0  0  0  0  0  0  0  0  0  0  0  0
  140.3065  159.4468  132.7690 H   0  0  0  0  0  0  0  0  0  0  0  0
  140.9742  158.6559  131.2929 H   0  0  0  0  0  0  0  0  0  0  0  0
  1  2  1  0
  2  3  2  0
  2  4  1  0
  4  5  2  0
  5  6  1  0
  6  7  2  0
  7  8  1  0
  8  9  2  0
  9 10  1  0
 10 11  1  0
 11 12  1  0
 12 13  2  0
 13 14  1  0
 14 15  2  0
 15 16  1  0
 16 17  1  0
 16 18  2  0
  9 19  1  0
 19 20  2  0
 20 21  1  0
 21 22  1  0
 22 23  2  0
 22 24  1  0
 24 25  1  0
 25 26  1  0
 21  4  1  0
 20  6  1  0
 18 12  1  0
  1 27  1  0
  5 28  1  0
  7 29  1  0
  8 30  1  0
 10 31  1  0
 10 32  1  0
 11 33  1  0
 11 34  1  0
 13 35  1  0
 14 36  1  0
 15 37  1  0
 18 38  1  0
 19 39  1  0
 25 40  1  0
 25 41  1  0
M  CHG  2   1  -1  10   1
M  END
>  <UniqueID>  (96) 
96

>  <SMILES>  (96) 
[NH-]C(=O)c1cc2ccc([NH2+]Cc3cccc(F)c3)cc2n1C(=O)OCCl

>  <Energy>  (96) 
80.02880717249695

>  <Genealogy>  (96) 
[NH-]C(=O)c1cc2ccc([NH2+]Cc3cccc(F)c3)cc2n1C(=O)OCCl (protonated)
[NH-]C(=O)c1cc2ccc([NH2+]Cc3cccc(F)c3)cc2n1C(=O)OCCl (3D coordinates assigned)
[NH-]C(=O)c1cc2ccc([NH2+]Cc3cccc(F)c3)cc2n1C(=O)OCCl (optimized conformer: 80.02880717249695 kcal/mol)

>  <smiles>  (96) 
NC(=O)c1cc2ccc(NCc3cccc(F)c3)cc2n1C(=O)OCCl

>  <score_type>  (96) 
oracle

>  <origin>  (96) 
adg

>  <m_score__min__energy>  (96) 
-8.4399999999999995

>  <m_primary>  (96) 
energy

$$$$
