0:0
     RDKit          3D

 26 27  0  0  0  0  0  0  0  0999 V2000
  148.2610  161.2500  131.2090 N   0  0  0  0  0  0  0  0  0  0  0  0
  149.1300  160.1870  131.5930 C   0  0  0  0  0  0  0  0  0  0  0  0
  150.3750  160.3330  131.4690 O   0  0  0  0  0  0  0  0  0  0  0  0
  148.5930  158.9360  132.1700 C   0  0  0  0  0  0  0  0  0  0  0  0
  149.2000  157.6910  132.0120 C   0  0  0  0  0  0  0  0  0  0  0  0
  148.4460  156.8190  132.7660 C   0  0  0  0  0  0  0  0  0  0  0  0
  148.6000  155.4540  132.9810 C   0  0  0  0  0  0  0  0  0  0  0  0
  147.6650  154.8070  133.8060 C   0  0  0  0  0  0  0  0  0  0  0  0
  146.5840  155.5260  134.3830 C   0  0  0  0  0  0  0  0  0  0  0  0
  145.6130  154.8290  135.3010 C   0  0  0  0  0  0  0  0  0  0  0  0
  144.5390  155.6510  135.5910 F   0  0  0  0  0  0  0  0  0  0  0  0
  145.1480  153.6820  134.6840 F   0  0  0  0  0  0  0  0  0  0  0  0
  146.2270  154.4830  136.4920 F   0  0  0  0  0  0  0  0  0  0  0  0
  146.4770  156.9190  134.1590 C   0  0  0  0  0  0  0  0  0  0  0  0
  147.4290  157.5360  133.3410 C   0  0  0  0  0  0  0  0  0  0  0  0
  147.5020  158.8340  132.9810 N   0  0  0  0  0  0  0  0  0  0  0  0
  146.5700  159.8620  133.3500 C   0  0  0  0  0  0  0  0  0  0  0  0
  146.9990  160.9830  133.7310 O   0  0  0  0  0  0  0  0  0  0  0  0
  145.1220  159.6080  133.3370 C   0  0  0  0  0  0  0  0  0  0  0  0
  144.6410  158.6990  132.6100 O   0  0  0  0  0  0  0  0  0  0  0  0
  144.2760  160.3610  134.1400 O   0  0  0  0  0  0  0  0  0  0  0  0
  147.8250  161.8720  131.9250 H   0  0  0  0  0  0  0  0  0  0  0  0
  150.0916  157.4551  131.4125 H   0  0  0  0  0  0  0  0  0  0  0  0
  149.4289  154.8976  132.5191 H   0  0  0  0  0  0  0  0  0  0  0  0
  147.7711  153.7309  134.0077 H   0  0  0  0  0  0  0  0  0  0  0  0
  145.6648  157.5025  134.6171 H   0  0  0  0  0  0  0  0  0  0  0  0
  1  2  1  0
  2  3  2  0
  2  4  1  0
  4  5  2  0
  5  6  1  0
  6  7  2  0
  7  8  1  0
  8  9  2  0
  9 10  1  0
 10 11  1  0
 10 12  1  0
 10 13  1  0
  9 14  1  0
 14 15  2  0
 15 16  1  0
 16 17  1  0
 17 18  2  0
 17 19  1  0
 19 20  2  0
 19 21  1  0
 16  4  1  0
 15  6  1  0
  1 22  1  0
  5 23  1  0
  7 24  1  0
  8 25  1  0
 14 26  1  0
M  CHG  2   1  -1  21  -1
M  END
>  <UniqueID>  (1) 
1

>  <SMILES>  (1) 
[NH-]C(=O)c1cc2ccc(C(F)(F)F)cc2n1C(=O)C(=O)[O-]

>  <Energy>  (1) 
66.97442543922968

>  <Genealogy>  (1) 
[NH-]C(=O)c1cc2ccc(C(F)(F)F)cc2n1C(=O)C(=O)[O-] (protonated)
[NH-]C(=O)c1cc2ccc(C(F)(F)F)cc2n1C(=O)C(=O)[O-] (3D coordinates assigned)
[NH-]C(=O)c1cc2ccc(C(F)(F)F)cc2n1C(=O)C(=O)[O-] (optimized conformer: 66.97442543922968 kcal/mol)

>  <smiles>  (1) 
NC(=O)c1cc2ccc(C(F)(F)F)cc2n1C(=O)C(=O)O

>  <score_type>  (1) 
oracle

>  <origin>  (1) 
adg

>  <m_score__min__energy>  (1) 
-5.5999999999999996

>  <m_primary>  (1) 
energy

$$$$
1:0
     RDKit          3D

 30 31  0  0  0  0  0  0  0  0999 V2000
  147.7270  154.6080  134.1730 C   0  0  0  0  0  0  0  0  0  0  0  0
  147.2330  155.9420  134.1400 O   0  0  0  0  0  0  0  0  0  0  0  0
  147.1090  156.6700  132.9540 C   0  0  0  0  0  0  0  0  0  0  0  0
  147.1720  156.0850  131.8380 O   0  0  0  0  0  0  0  0  0  0  0  0
  146.9350  158.0950  133.0080 N   0  0  0  0  0  0  0  0  0  0  0  0
  147.8730  159.0630  132.7950 C   0  0  0  0  0  0  0  0  0  0  0  0
  149.2490  158.8470  132.3020 C   0  0  0  0  0  0  0  0  0  0  0  0
  149.7970  157.5360  132.2020 N   0  0  0  0  0  0  0  0  0  0  0  0
  149.9350  159.8320  131.9170 O   0  0  0  0  0  0  0  0  0  0  0  0
  147.3320  160.3260  133.0290 C   0  0  0  0  0  0  0  0  0  0  0  0
  146.0220  160.1020  133.3840 C   0  0  0  0  0  0  0  0  0  0  0  0
  145.0220  161.0060  133.7280 C   0  0  0  0  0  0  0  0  0  0  0  0
  143.7610  160.4930  134.0760 C   0  0  0  0  0  0  0  0  0  0  0  0
  143.5310  159.0950  134.0910 C   0  0  0  0  0  0  0  0  0  0  0  0
  142.1720  158.5580  134.4470 C   0  0  0  0  0  0  0  0  0  0  0  0
  141.2050  159.6850  134.6160 C   0  0  0  0  0  0  0  0  0  0  0  0
  140.7270  160.2680  133.6070 O   0  0  0  0  0  0  0  0  0  0  0  0
  140.8660  160.1260  135.8890 O   0  0  0  0  0  0  0  0  0  0  0  0
  144.5680  158.2080  133.7260 C   0  0  0  0  0  0  0  0  0  0  0  0
  145.8080  158.7480  133.3650 C   0  0  0  0  0  0  0  0  0  0  0  0
  147.8459  154.2868  135.2183 H   0  0  0  0  0  0  0  0  0  0  0  0
  147.0162  153.9411  133.6631 H   0  0  0  0  0  0  0  0  0  0  0  0
  148.7007  154.5649  133.6631 H   0  0  0  0  0  0  0  0  0  0  0  0
  149.2310  156.7440  131.8240 H   0  0  0  0  0  0  0  0  0  0  0  0
  147.8440  161.2961  132.9472 H   0  0  0  0  0  0  0  0  0  0  0  0
  145.2127  162.0893  133.7276 H   0  0  0  0  0  0  0  0  0  0  0  0
  142.9454  161.1827  134.3390 H   0  0  0  0  0  0  0  0  0  0  0  0
  141.8207  157.8941  133.6434 H   0  0  0  0  0  0  0  0  0  0  0  0
  142.2413  157.9972  135.3908 H   0  0  0  0  0  0  0  0  0  0  0  0
  144.4052  157.1201  133.7254 H   0  0  0  0  0  0  0  0  0  0  0  0
  1  2  1  0
  2  3  1  0
  3  4  2  0
  3  5  1  0
  5  6  1  0
  6  7  1  0
  7  8  1  0
  7  9  2  0
  6 10  2  0
 10 11  1  0
 11 12  2  0
 12 13  1  0
 13 14  2  0
 14 15  1  0
 15 16  1  0
 16 17  2  0
 16 18  1  0
 14 19  1  0
 19 20  2  0
 20  5  1  0
 20 11  1  0
  1 21  1  0
  1 22  1  0
  1 23  1  0
  8 24  1  0
 10 25  1  0
 12 26  1  0
 13 27  1  0
 15 28  1  0
 15 29  1  0
 19 30  1  0
M  CHG  2   8  -1  18  -1
M  END
>  <UniqueID>  (2) 
2

>  <SMILES>  (2) 
COC(=O)n1c(C([NH-])=O)cc2ccc(CC(=O)[O-])cc21

>  <Energy>  (2) 
65.96204111474826

>  <Genealogy>  (2) 
COC(=O)n1c(C([NH-])=O)cc2ccc(CC(=O)[O-])cc21 (protonated)
COC(=O)n1c(C([NH-])=O)cc2ccc(CC(=O)[O-])cc21 (3D coordinates assigned)
COC(=O)n1c(C([NH-])=O)cc2ccc(CC(=O)[O-])cc21 (optimized conformer: 65.96204111474826 kcal/mol)

>  <smiles>  (2) 
COC(=O)n1c(C(N)=O)cc2ccc(CC(=O)O)cc21

>  <score_type>  (2) 
oracle

>  <origin>  (2) 
adg

>  <m_score__min__energy>  (2) 
-6.0099999999999998

>  <m_primary>  (2) 
energy

$$$$
2:0
     RDKit          3D

 38 39  0  0  0  0  0  0  0  0999 V2000
  140.0900  158.5780  134.7470 C   0  0  0  0  0  0  0  0  0  0  0  0
  140.9790  158.8940  133.6200 N   0  0  0  0  0  0  0  0  0  0  0  0
  140.2810  159.7140  132.6170 C   0  0  0  0  0  0  0  0  0  0  0  0
  141.4720  157.6720  133.0120 C   0  0  0  0  0  0  0  0  0  0  0  0
  140.6870  156.8230  132.6110 O   0  0  0  0  0  0  0  0  0  0  0  0
  142.9490  157.4290  132.8530 C   0  0  0  0  0  0  0  0  0  0  0  0
  143.6990  158.1390  133.9380 C   0  0  0  0  0  0  0  0  0  0  0  0
  143.2130  158.1940  135.1000 O   0  0  0  0  0  0  0  0  0  0  0  0
  144.9350  158.8090  133.6510 N   0  0  0  0  0  0  0  0  0  0  0  0
  145.1740  160.1510  133.6510 C   0  0  0  0  0  0  0  0  0  0  0  0
  144.1660  161.2060  133.8830 C   0  0  0  0  0  0  0  0  0  0  0  0
  142.7890  160.8570  134.0120 N   0  0  0  0  0  0  0  0  0  0  0  0
  144.5070  162.4140  133.9830 O   0  0  0  0  0  0  0  0  0  0  0  0
  146.5110  160.4060  133.3520 C   0  0  0  0  0  0  0  0  0  0  0  0
  147.0880  159.1680  133.1720 C   0  0  0  0  0  0  0  0  0  0  0  0
  148.4040  158.8270  132.8720 C   0  0  0  0  0  0  0  0  0  0  0  0
  148.7230  157.4610  132.7730 C   0  0  0  0  0  0  0  0  0  0  0  0
  147.7300  156.4700  132.9800 C   0  0  0  0  0  0  0  0  0  0  0  0
  148.0780  155.0120  132.8900 C   0  0  0  0  0  0  0  0  0  0  0  0
  149.4250  154.8720  132.6060 F   0  0  0  0  0  0  0  0  0  0  0  0
  147.7990  154.3900  134.0940 F   0  0  0  0  0  0  0  0  0  0  0  0
  146.4060  156.8560  133.2860 C   0  0  0  0  0  0  0  0  0  0  0  0
  146.1150  158.2220  133.3600 C   0  0  0  0  0  0  0  0  0  0  0  0
  140.6175  158.7655  135.6939 H   0  0  0  0  0  0  0  0  0  0  0  0
  139.1928  159.2123  134.6953 H   0  0  0  0  0  0  0  0  0  0  0  0
  139.7944  157.5197  134.6953 H   0  0  0  0  0  0  0  0  0  0  0  0
  141.7810  159.4580  133.9890 H   0  0  0  0  0  0  0  0  0  0  0  0
  139.6489  160.4566  133.1260 H   0  0  0  0  0  0  0  0  0  0  0  0
  141.0201  160.2314  131.9876 H   0  0  0  0  0  0  0  0  0  0  0  0
  139.6522  159.0670  131.9876 H   0  0  0  0  0  0  0  0  0  0  0  0
  143.1505  156.3494  132.9158 H   0  0  0  0  0  0  0  0  0  0  0  0
  143.2769  157.8106  131.8748 H   0  0  0  0  0  0  0  0  0  0  0  0
  142.4700  160.1980  134.7560 H   0  0  0  0  0  0  0  0  0  0  0  0
  147.0016  161.3876  133.2759 H   0  0  0  0  0  0  0  0  0  0  0  0
  149.1698  159.6013  132.7173 H   0  0  0  0  0  0  0  0  0  0  0  0
  149.7528  157.1582  132.5326 H   0  0  0  0  0  0  0  0  0  0  0  0
  147.4820  154.5483  132.0901 H   0  0  0  0  0  0  0  0  0  0  0  0
  145.6245  156.1021  133.4614 H   0  0  0  0  0  0  0  0  0  0  0  0
  1  2  1  0
  2  3  1  0
  2  4  1  0
  4  5  2  0
  4  6  1  0
  6  7  1  0
  7  8  2  0
  7  9  1  0
  9 10  1  0
 10 11  1  0
 11 12  1  0
 11 13  2  0
 10 14  2  0
 14 15  1  0
 15 16  2  0
 16 17  1  0
 17 18  2  0
 18 19  1  0
 19 20  1  0
 19 21  1  0
 18 22  1  0
 22 23  2  0
 23  9  1  0
 23 15  1  0
  1 24  1  0
  1 25  1  0
  1 26  1  0
  2 27  1  0
  3 28  1  0
  3 29  1  0
  3 30  1  0
  6 31  1  0
  6 32  1  0
 12 33  1  0
 14 34  1  0
 16 35  1  0
 17 36  1  0
 19 37  1  0
 22 38  1  0
M  CHG  2   2   1  12  -1
M  END
>  <UniqueID>  (3) 
3

>  <SMILES>  (3) 
C[NH+](C)C(=O)CC(=O)n1c(C([NH-])=O)cc2ccc(C(F)F)cc21

>  <Energy>  (3) 
73.88725654767941

>  <Genealogy>  (3) 
C[NH+](C)C(=O)CC(=O)n1c(C([NH-])=O)cc2ccc(C(F)F)cc21 (protonated)
C[NH+](C)C(=O)CC(=O)n1c(C([NH-])=O)cc2ccc(C(F)F)cc21 (3D coordinates assigned)
C[NH+](C)C(=O)CC(=O)n1c(C([NH-])=O)cc2ccc(C(F)F)cc21 (optimized conformer: 73.88725654767941 kcal/mol)

>  <smiles>  (3) 
CN(C)C(=O)CC(=O)n1c(C(N)=O)cc2ccc(C(F)F)cc21

>  <score_type>  (3) 
oracle

>  <origin>  (3) 
adg

>  <m_score__min__energy>  (3) 
-5.0499999999999998

>  <m_primary>  (3) 
energy

$$$$
3:0
     RDKit          3D

 36 37  0  0  0  0  0  0  0  0999 V2000
  143.0100  155.4640  133.3480 C   0  0  0  0  0  0  0  0  0  0  0  0
  143.6710  154.5280  132.5050 O   0  0  0  0  0  0  0  0  0  0  0  0
  144.8310  153.8520  132.8970 C   0  0  0  0  0  0  0  0  0  0  0  0
  145.0800  152.6980  132.4530 O   0  0  0  0  0  0  0  0  0  0  0  0
  145.7550  154.4900  133.8460 C   0  0  0  0  0  0  0  0  0  0  0  0
  145.6250  154.2680  135.0800 O   0  0  0  0  0  0  0  0  0  0  0  0
  146.8260  155.3290  133.3840 N   0  0  0  0  0  0  0  0  0  0  0  0
  148.0740  154.9530  132.9870 C   0  0  0  0  0  0  0  0  0  0  0  0
  148.5390  153.5560  132.8380 C   0  0  0  0  0  0  0  0  0  0  0  0
  147.7640  152.4670  133.3430 N   0  0  0  0  0  0  0  0  0  0  0  0
  149.6410  153.3130  132.2770 O   0  0  0  0  0  0  0  0  0  0  0  0
  148.8310  156.0740  132.6480 C   0  0  0  0  0  0  0  0  0  0  0  0
  147.9980  157.1510  132.8450 C   0  0  0  0  0  0  0  0  0  0  0  0
  148.2290  158.5090  132.6630 C   0  0  0  0  0  0  0  0  0  0  0  0
  147.1860  159.4030  132.9550 C   0  0  0  0  0  0  0  0  0  0  0  0
  145.9260  158.9340  133.4280 C   0  0  0  0  0  0  0  0  0  0  0  0
  144.8560  159.8670  133.7330 N   0  0  0  0  0  0  0  0  0  0  0  0
  143.4530  159.4360  133.6880 C   0  0  0  0  0  0  0  0  0  0  0  0
  145.1580  161.2590  134.0890 C   0  0  0  0  0  0  0  0  0  0  0  0
  145.7380  157.5380  133.5950 C   0  0  0  0  0  0  0  0  0  0  0  0
  146.7940  156.6750  133.2850 C   0  0  0  0  0  0  0  0  0  0  0  0
  143.1941  155.2032  134.4007 H   0  0  0  0  0  0  0  0  0  0  0  0
  143.3960  156.4744  133.1476 H   0  0  0  0  0  0  0  0  0  0  0  0
  141.9287  155.4382  133.1476 H   0  0  0  0  0  0  0  0  0  0  0  0
  148.1210  151.4890  133.2630 H   0  0  0  0  0  0  0  0  0  0  0  0
  146.8180  152.6170  133.7570 H   0  0  0  0  0  0  0  0  0  0  0  0
  149.8734  156.0931  132.2973 H   0  0  0  0  0  0  0  0  0  0  0  0
  149.2014  158.8736  132.3004 H   0  0  0  0  0  0  0  0  0  0  0  0
  147.3441  160.4827  132.8164 H   0  0  0  0  0  0  0  0  0  0  0  0
  143.0723  159.3191  134.7134 H   0  0  0  0  0  0  0  0  0  0  0  0
  142.8541  160.1916  133.1585 H   0  0  0  0  0  0  0  0  0  0  0  0
  143.3816  158.4745  133.1585 H   0  0  0  0  0  0  0  0  0  0  0  0
  145.1801  161.3609  135.1841 H   0  0  0  0  0  0  0  0  0  0  0  0
  146.1378  161.5391  133.6748 H   0  0  0  0  0  0  0  0  0  0  0  0
  144.3824  161.9199  133.6748 H   0  0  0  0  0  0  0  0  0  0  0  0
  144.7796  157.1416  133.9615 H   0  0  0  0  0  0  0  0  0  0  0  0
  1  2  1  0
  2  3  1  0
  3  4  2  0
  3  5  1  0
  5  6  2  0
  5  7  1  0
  7  8  1  0
  8  9  1  0
  9 10  1  0
  9 11  2  0
  8 12  2  0
 12 13  1  0
 13 14  2  0
 14 15  1  0
 15 16  2  0
 16 17  1  0
 17 18  1  0
 17 19  1  0
 16 20  1  0
 20 21  2  0
 21  7  1  0
 21 13  1  0
  1 22  1  0
  1 23  1  0
  1 24  1  0
 10 25  1  0
 10 26  1  0
 12 27  1  0
 14 28  1  0
 15 29  1  0
 18 30  1  0
 18 31  1  0
 18 32  1  0
 19 33  1  0
 19 34  1  0
 19 35  1  0
 20 36  1  0
M  END
>  <UniqueID>  (4) 
4

>  <SMILES>  (4) 
COC(=O)C(=O)n1c(C(N)=O)cc2ccc(N(C)C)cc21

>  <Energy>  (4) 
74.15411814622576

>  <Genealogy>  (4) 
COC(=O)C(=O)n1c(C(N)=O)cc2ccc(N(C)C)cc21 (3D coordinates assigned)
COC(=O)C(=O)n1c(C(N)=O)cc2ccc(N(C)C)cc21 (optimized conformer: 74.15411814622576 kcal/mol)

>  <smiles>  (4) 
COC(=O)C(=O)n1c(C(N)=O)cc2ccc(N(C)C)cc21

>  <score_type>  (4) 
oracle

>  <origin>  (4) 
adg

>  <m_score__min__energy>  (4) 
-6

>  <m_primary>  (4) 
energy

$$$$
4:0
     RDKit          3D

 34 35  0  0  0  0  0  0  0  0999 V2000
  149.5890  161.2500  130.2540 C   0  0  0  0  0  0  0  0  0  0  0  0
  148.8000  160.8640  131.2640 C   0  0  0  0  0  0  0  0  0  0  0  0
  148.2910  159.4530  131.3910 C   0  0  2  0  0  0  0  0  0  0  0  0
  146.9520  159.4670  131.8910 O   0  0  0  0  0  0  0  0  0  0  0  0
  146.5680  160.1560  133.0480 C   0  0  0  0  0  0  0  0  0  0  0  0
  147.4270  160.7770  133.7330 O   0  0  0  0  0  0  0  0  0  0  0  0
  145.1960  160.1270  133.4740 N   0  0  0  0  0  0  0  0  0  0  0  0
  144.4210  161.1790  133.8640 C   0  0  0  0  0  0  0  0  0  0  0  0
  144.8870  162.5620  134.0900 C   0  0  0  0  0  0  0  0  0  0  0  0
  146.0130  162.8050  134.9290 N   0  0  0  0  0  0  0  0  0  0  0  0
  144.3240  163.5320  133.5170 O   0  0  0  0  0  0  0  0  0  0  0  0
  143.1140  160.7620  134.1070 C   0  0  0  0  0  0  0  0  0  0  0  0
  143.1110  159.4090  133.8580 C   0  0  0  0  0  0  0  0  0  0  0  0
  142.0650  158.4920  133.9230 C   0  0  0  0  0  0  0  0  0  0  0  0
  142.3390  157.1590  133.5750 C   0  0  0  0  0  0  0  0  0  0  0  0
  143.6400  156.7690  133.1760 C   0  0  0  0  0  0  0  0  0  0  0  0
  143.9050  155.3550  132.7560 C   0  0  0  0  0  0  0  0  0  0  0  0
  144.6720  157.7310  133.1060 C   0  0  0  0  0  0  0  0  0  0  0  0
  144.3780  159.0490  133.4770 C   0  0  0  0  0  0  0  0  0  0  0  0
  149.1930  158.6580  132.2910 C   0  0  0  0  0  0  0  0  0  0  0  0
  150.3080  158.2540  131.8670 O   0  0  0  0  0  0  0  0  0  0  0  0
  148.8270  158.4030  133.6060 O   0  0  0  0  0  0  0  0  0  0  0  0
  149.9400  162.2909  130.1971 H   0  0  0  0  0  0  0  0  0  0  0  0
  149.8864  160.5263  129.4809 H   0  0  0  0  0  0  0  0  0  0  0  0
  148.5139  161.6028  132.0271 H   0  0  0  0  0  0  0  0  0  0  0  0
  148.2888  158.9745  130.4005 H   0  0  0  0  0  0  0  0  0  0  0  0
  146.9860  162.7120  134.5610 H   0  0  0  0  0  0  0  0  0  0  0  0
  142.2650  161.3827  134.4294 H   0  0  0  0  0  0  0  0  0  0  0  0
  141.0571  158.8014  134.2366 H   0  0  0  0  0  0  0  0  0  0  0  0
  141.5341  156.4102  133.6129 H   0  0  0  0  0  0  0  0  0  0  0  0
  144.0234  154.7234  133.6488 H   0  0  0  0  0  0  0  0  0  0  0  0
  143.0603  154.9864  132.1555 H   0  0  0  0  0  0  0  0  0  0  0  0
  144.8258  155.3173  132.1555 H   0  0  0  0  0  0  0  0  0  0  0  0
  145.6811  157.4519  132.7686 H   0  0  0  0  0  0  0  0  0  0  0  0
  1  2  2  0
  2  3  1  0
  3  4  1  0
  4  5  1  0
  5  6  2  0
  5  7  1  0
  7  8  1  0
  8  9  1  0
  9 10  1  0
  9 11  2  0
  8 12  2  0
 12 13  1  0
 13 14  2  0
 14 15  1  0
 15 16  2  0
 16 17  1  0
 16 18  1  0
 18 19  2  0
  3 20  1  0
 20 21  2  0
 20 22  1  0
 19  7  1  0
 19 13  1  0
  1 23  1  0
  1 24  1  0
  2 25  1  0
  3 26  1  6
 10 27  1  0
 12 28  1  0
 14 29  1  0
 15 30  1  0
 17 31  1  0
 17 32  1  0
 17 33  1  0
 18 34  1  0
M  CHG  2  10  -1  22  -1
M  END
>  <UniqueID>  (5) 
5

>  <SMILES>  (5) 
C=C[C@H](OC(=O)n1c(C([NH-])=O)cc2ccc(C)cc21)C(=O)[O-]

>  <Energy>  (5) 
68.24317757827544

>  <Genealogy>  (5) 
C=CC(OC(=O)n1c(C([NH-])=O)cc2ccc(C)cc21)C(=O)[O-] (protonated)
C=C[C@H](OC(=O)n1c(C([NH-])=O)cc2ccc(C)cc21)C(=O)[O-] (chirality)
C=C[C@H](OC(=O)n1c(C([NH-])=O)cc2ccc(C)cc21)C(=O)[O-] (3D coordinates assigned)
C=C[C@H](OC(=O)n1c(C([NH-])=O)cc2ccc(C)cc21)C(=O)[O-] (optimized conformer: 68.24317757827544 kcal/mol)

>  <smiles>  (5) 
C=CC(OC(=O)n1c(C(N)=O)cc2ccc(C)cc21)C(=O)O

>  <score_type>  (5) 
oracle

>  <origin>  (5) 
adg

>  <m_score__min__energy>  (5) 
-6.46

>  <m_primary>  (5) 
energy

$$$$
5:0
     RDKit          3D

 39 41  0  0  0  0  0  0  0  0999 V2000
  141.1670  158.6060  136.2230 C   0  0  0  0  0  0  0  0  0  0  0  0
  140.5520  158.4020  134.8640 C   0  0  0  0  0  0  0  0  0  0  0  0
  139.2580  157.8650  134.7740 C   0  0  0  0  0  0  0  0  0  0  0  0
  138.6830  157.6490  133.5620 N   0  0  0  0  0  0  0  0  0  0  0  0
  139.3250  157.9460  132.4040 C   0  0  0  0  0  0  0  0  0  0  0  0
  140.6060  158.4980  132.4350 C   0  0  0  0  0  0  0  0  0  0  0  0
  141.2280  158.7480  133.6670 C   0  0  0  0  0  0  0  0  0  0  0  0
  142.5740  159.3640  133.6720 C   0  0  0  0  0  0  0  0  0  0  0  0
  142.7100  160.7730  133.7530 C   0  0  0  0  0  0  0  0  0  0  0  0
  143.9820  161.3720  133.7630 C   0  0  0  0  0  0  0  0  0  0  0  0
  145.0940  160.5390  133.6900 C   0  0  0  0  0  0  0  0  0  0  0  0
  146.4370  160.8470  133.6950 C   0  0  0  0  0  0  0  0  0  0  0  0
  147.0970  159.6210  133.6100 C   0  0  0  0  0  0  0  0  0  0  0  0
  148.5680  159.4870  133.5350 C   0  0  0  0  0  0  0  0  0  0  0  0
  149.2500  159.5580  132.2860 N   0  0  0  0  0  0  0  0  0  0  0  0
  149.2350  159.3350  134.5930 O   0  0  0  0  0  0  0  0  0  0  0  0
  146.1980  158.6000  133.5520 N   0  0  0  0  0  0  0  0  0  0  0  0
  146.4680  157.1900  133.5280 C   0  0  0  0  0  0  0  0  0  0  0  0
  145.8900  156.4390  134.3580 O   0  0  0  0  0  0  0  0  0  0  0  0
  147.4070  156.6130  132.5340 C   0  0  0  0  0  0  0  0  0  0  0  0
  148.8040  156.9200  132.6070 N   0  0  0  0  0  0  0  0  0  0  0  0
  146.9730  155.8190  131.6010 N   0  0  0  0  0  0  0  0  0  0  0  0
  144.9790  159.1770  133.6090 C   0  0  0  0  0  0  0  0  0  0  0  0
  143.7290  158.5520  133.6210 C   0  0  0  0  0  0  0  0  0  0  0  0
  140.4283  158.3609  137.0003 H   0  0  0  0  0  0  0  0  0  0  0  0
  142.0438  157.9506  136.3308 H   0  0  0  0  0  0  0  0  0  0  0  0
  141.4783  159.6555  136.3308 H   0  0  0  0  0  0  0  0  0  0  0  0
  138.7051  157.6171  135.6921 H   0  0  0  0  0  0  0  0  0  0  0  0
  138.8345  157.7512  131.4389 H   0  0  0  0  0  0  0  0  0  0  0  0
  141.1267  158.7365  131.4958 H   0  0  0  0  0  0  0  0  0  0  0  0
  141.8108  161.4042  133.8086 H   0  0  0  0  0  0  0  0  0  0  0  0
  144.0944  162.4644  133.8265 H   0  0  0  0  0  0  0  0  0  0  0  0
  146.8919  161.8468  133.7536 H   0  0  0  0  0  0  0  0  0  0  0  0
  149.6020  160.4700  131.9180 H   0  0  0  0  0  0  0  0  0  0  0  0
  149.1940  157.4920  133.3880 H   0  0  0  0  0  0  0  0  0  0  0  0
  149.4690  156.5530  131.8900 H   0  0  0  0  0  0  0  0  0  0  0  0
  147.6320  155.4070  130.9020 H   0  0  0  0  0  0  0  0  0  0  0  0
  145.9610  155.5740  131.5140 H   0  0  0  0  0  0  0  0  0  0  0  0
  143.6465  157.4555  133.5915 H   0  0  0  0  0  0  0  0  0  0  0  0
  1  2  1  0
  2  3  2  0
  3  4  1  0
  4  5  2  0
  5  6  1  0
  6  7  2  0
  7  8  1  0
  8  9  2  0
  9 10  1  0
 10 11  2  0
 11 12  1  0
 12 13  2  0
 13 14  1  0
 14 15  1  0
 14 16  2  0
 13 17  1  0
 17 18  1  0
 18 19  2  0
 18 20  1  0
 20 21  1  0
 20 22  2  0
 17 23  1  0
 23 24  2  0
  7  2  1  0
 24  8  1  0
 23 11  1  0
  1 25  1  0
  1 26  1  0
  1 27  1  0
  3 28  1  0
  5 29  1  0
  6 30  1  0
  9 31  1  0
 10 32  1  0
 12 33  1  0
 15 34  1  0
 21 35  1  0
 21 36  1  0
 22 37  1  0
 22 38  1  0
 24 39  1  0
M  CHG  2  15  -1  22   1
M  END
>  <UniqueID>  (6) 
6

>  <SMILES>  (6) 
Cc1cnccc1-c1ccc2cc(C([NH-])=O)n(C(=O)C(N)=[NH2+])c2c1

>  <Energy>  (6) 
87.0283812817875

>  <Genealogy>  (6) 
Cc1cnccc1-c1ccc2cc(C([NH-])=O)n(C(=O)C(N)=[NH2+])c2c1 (protonated)
Cc1cnccc1-c1ccc2cc(C([NH-])=O)n(C(=O)C(N)=[NH2+])c2c1 (3D coordinates assigned)
Cc1cnccc1-c1ccc2cc(C([NH-])=O)n(C(=O)C(N)=[NH2+])c2c1 (optimized conformer: 87.0283812817875 kcal/mol)

>  <smiles>  (6) 
Cc1cnccc1-c1ccc2cc(C(N)=O)n(C(=O)C(=N)N)c2c1

>  <score_type>  (6) 
oracle

>  <origin>  (6) 
adg

>  <m_score__min__energy>  (6) 
-8.5299999999999994

>  <m_primary>  (6) 
energy

$$$$
6:0
     RDKit          3D

 38 40  0  0  0  0  0  0  0  0999 V2000
  150.3580  150.4310  130.9020 C   0  0  0  0  0  0  0  0  0  0  0  0
  149.8120  151.7190  131.0950 O   0  0  0  0  0  0  0  0  0  0  0  0
  149.2570  151.8340  132.3910 C   0  0  0  0  0  0  0  0  0  0  0  0
  148.1980  152.9250  132.6150 C   0  0  0  0  0  0  0  0  0  0  0  0
  148.8210  154.2850  132.7650 C   0  0  0  0  0  0  0  0  0  0  0  0
  149.9680  154.4910  132.2870 O   0  0  0  0  0  0  0  0  0  0  0  0
  148.1130  155.3570  133.4140 N   0  0  0  0  0  0  0  0  0  0  0  0
  147.1130  155.2660  134.3370 C   0  0  0  0  0  0  0  0  0  0  0  0
  146.7020  154.0410  135.0520 C   0  0  0  0  0  0  0  0  0  0  0  0
  147.4160  153.5930  136.2020 N   0  0  0  0  0  0  0  0  0  0  0  0
  145.6790  153.4100  134.6750 O   0  0  0  0  0  0  0  0  0  0  0  0
  146.5880  156.5260  134.6190 C   0  0  0  0  0  0  0  0  0  0  0  0
  147.3190  157.4030  133.8510 C   0  0  0  0  0  0  0  0  0  0  0  0
  147.2220  158.7870  133.7370 C   0  0  0  0  0  0  0  0  0  0  0  0
  148.1040  159.4370  132.8570 C   0  0  0  0  0  0  0  0  0  0  0  0
  149.0700  158.7010  132.1280 C   0  0  0  0  0  0  0  0  0  0  0  0
  149.9810  159.4000  131.1630 C   0  0  0  0  0  0  0  0  0  0  0  0
  149.0260  160.0830  129.8230 Cl  0  0  0  0  0  0  0  0  0  0  0  0
  149.1340  157.2980  132.2670 C   0  0  0  0  0  0  0  0  0  0  0  0
  148.2390  156.6740  133.1430 C   0  0  0  0  0  0  0  0  0  0  0  0
  148.7990  150.4670  132.8950 C   0  0  0  0  0  0  0  0  0  0  0  0
  149.9630  151.1670  133.5710 C   0  0  0  0  0  0  0  0  0  0  0  0
  150.5551  149.9661  131.8792 H   0  0  0  0  0  0  0  0  0  0  0  0
  149.6452  149.8113  130.3382 H   0  0  0  0  0  0  0  0  0  0  0  0
  151.2990  150.5124  130.3382 H   0  0  0  0  0  0  0  0  0  0  0  0
  147.5141  152.9396  131.7536 H   0  0  0  0  0  0  0  0  0  0  0  0
  147.6579  152.6918  133.5445 H   0  0  0  0  0  0  0  0  0  0  0  0
  148.1260  152.8300  136.1300 H   0  0  0  0  0  0  0  0  0  0  0  0
  145.7653  156.7676  135.3081 H   0  0  0  0  0  0  0  0  0  0  0  0
  146.4788  159.3537  134.3171 H   0  0  0  0  0  0  0  0  0  0  0  0
  148.0436  160.5283  132.7331 H   0  0  0  0  0  0  0  0  0  0  0  0
  150.5125  160.2103  131.6834 H   0  0  0  0  0  0  0  0  0  0  0  0
  150.7085  158.6792  130.7615 H   0  0  0  0  0  0  0  0  0  0  0  0
  149.8700  156.7090  131.7001 H   0  0  0  0  0  0  0  0  0  0  0  0
  147.8372  150.3691  133.4198 H   0  0  0  0  0  0  0  0  0  0  0  0
  148.6489  149.4799  132.4335 H   0  0  0  0  0  0  0  0  0  0  0  0
  149.8441  151.5763  134.5851 H   0  0  0  0  0  0  0  0  0  0  0  0
  151.0041  150.8968  133.8013 H   0  0  0  0  0  0  0  0  0  0  0  0
  1  2  1  0
  2  3  1  0
  3  4  1  0
  4  5  1  0
  5  6  2  0
  5  7  1  0
  7  8  1  0
  8  9  1  0
  9 10  1  0
  9 11  2  0
  8 12  2  0
 12 13  1  0
 13 14  2  0
 14 15  1  0
 15 16  2  0
 16 17  1  0
 17 18  1  0
 16 19  1  0
 19 20  2  0
  3 21  1  0
 21 22  1  0
 22  3  1  0
 20  7  1  0
 20 13  1  0
  1 23  1  0
  1 24  1  0
  1 25  1  0
  4 26  1  0
  4 27  1  0
 10 28  1  0
 12 29  1  0
 14 30  1  0
 15 31  1  0
 17 32  1  0
 17 33  1  0
 19 34  1  0
 21 35  1  0
 21 36  1  0
 22 37  1  0
 22 38  1  0
M  CHG  1  10  -1
M  END
>  <UniqueID>  (7) 
7

>  <SMILES>  (7) 
COC1(CC(=O)n2c(C([NH-])=O)cc3ccc(CCl)cc32)CC1

>  <Energy>  (7) 
346.5149558310903

>  <Genealogy>  (7) 
COC1(CC(=O)n2c(C([NH-])=O)cc3ccc(CCl)cc32)CC1 (protonated)
COC1(CC(=O)n2c(C([NH-])=O)cc3ccc(CCl)cc32)CC1 (3D coordinates assigned)
COC1(CC(=O)n2c(C([NH-])=O)cc3ccc(CCl)cc32)CC1 (nonaromatic ring conformer: 346.5149558310903 kcal/mol)

>  <smiles>  (7) 
COC1(CC(=O)n2c(C(N)=O)cc3ccc(CCl)cc32)CC1

>  <score_type>  (7) 
oracle

>  <origin>  (7) 
adg

>  <m_score__min__energy>  (7) 
-7.7199999999999998

>  <m_primary>  (7) 
energy

$$$$
7:0
     RDKit          3D

 47 49  0  0  0  0  0  0  0  0999 V2000
  141.6930  155.3110  133.3230 N   0  0  0  0  0  0  0  0  0  0  0  0
  142.8350  155.2390  134.1810 C   0  0  0  0  0  0  0  0  0  0  0  0
  142.7870  154.5090  135.2040 O   0  0  0  0  0  0  0  0  0  0  0  0
  144.0700  155.9880  133.8650 C   0  0  0  0  0  0  0  0  0  0  0  0
  145.3550  155.4480  133.9260 C   0  0  0  0  0  0  0  0  0  0  0  0
  146.2060  156.4970  133.6460 C   0  0  0  0  0  0  0  0  0  0  0  0
  147.5950  156.5270  133.5530 C   0  0  0  0  0  0  0  0  0  0  0  0
  148.2070  157.7500  133.2240 C   0  0  0  0  0  0  0  0  0  0  0  0
  147.4260  158.9110  132.9980 C   0  0  0  0  0  0  0  0  0  0  0  0
  148.0900  160.2070  132.6110 C   0  0  0  0  0  0  0  0  0  0  0  0
  148.8310  160.0800  131.2790 C   0  0  0  0  0  0  0  0  0  0  0  0
  148.4590  158.9120  130.6350 F   0  0  0  0  0  0  0  0  0  0  0  0
  150.1990  160.0660  131.4880 F   0  0  0  0  0  0  0  0  0  0  0  0
  148.5130  161.1580  130.4720 F   0  0  0  0  0  0  0  0  0  0  0  0
  146.0160  158.8380  133.0930 C   0  0  0  0  0  0  0  0  0  0  0  0
  145.4380  157.6110  133.4320 C   0  0  0  0  0  0  0  0  0  0  0  0
  144.1290  157.3150  133.5580 N   0  0  0  0  0  0  0  0  0  0  0  0
  143.0360  158.2090  133.3030 C   0  0  0  0  0  0  0  0  0  0  0  0
  142.1430  157.8790  132.4770 O   0  0  0  0  0  0  0  0  0  0  0  0
  142.8640  159.4450  134.1330 C   0  0  0  0  0  0  0  0  0  0  0  0
  141.6610  159.1740  135.4630 S   0  0  0  0  0  0  0  0  0  0  0  0
  142.1040  157.8630  136.1040 O   0  0  0  0  0  0  0  0  0  0  0  0
  140.0690  158.7570  134.6860 C   0  0  1  0  0  0  0  0  0  0  0  0
  139.8680  159.4760  133.3490 C   0  0  0  0  0  0  0  0  0  0  0  0
  139.4750  158.4100  132.3330 C   0  0  0  0  0  0  0  0  0  0  0  0
  139.0850  157.1810  133.1420 C   0  0  1  0  0  0  0  0  0  0  0  0
  139.3680  155.9990  132.4410 O   0  0  0  0  0  0  0  0  0  0  0  0
  139.9150  157.2630  134.4080 C   0  0  0  0  0  0  0  0  0  0  0  0
  141.6680  155.9560  132.5040 H   0  0  0  0  0  0  0  0  0  0  0  0
  140.8410  154.7510  133.5400 H   0  0  0  0  0  0  0  0  0  0  0  0
  145.6309  154.4070  134.1498 H   0  0  0  0  0  0  0  0  0  0  0  0
  148.1950  155.6224  133.7313 H   0  0  0  0  0  0  0  0  0  0  0  0
  149.3025  157.8059  133.1413 H   0  0  0  0  0  0  0  0  0  0  0  0
  147.3219  160.9891  132.5198 H   0  0  0  0  0  0  0  0  0  0  0  0
  148.8218  160.4666  133.3902 H   0  0  0  0  0  0  0  0  0  0  0  0
  145.3911  159.7235  132.9050 H   0  0  0  0  0  0  0  0  0  0  0  0
  143.8332  159.7189  134.5752 H   0  0  0  0  0  0  0  0  0  0  0  0
  142.4934  160.2530  133.4851 H   0  0  0  0  0  0  0  0  0  0  0  0
  139.3178  159.0836  135.4202 H   0  0  0  0  0  0  0  0  0  0  0  0
  139.0692  160.2269  133.4387 H   0  0  0  0  0  0  0  0  0  0  0  0
  140.7849  159.9988  133.0392 H   0  0  0  0  0  0  0  0  0  0  0  0
  138.6238  158.7547  131.7276 H   0  0  0  0  0  0  0  0  0  0  0  0
  140.3008  158.1904  131.6403 H   0  0  0  0  0  0  0  0  0  0  0  0
  138.0055  157.1605  133.3525 H   0  0  0  0  0  0  0  0  0  0  0  0
  138.5040  155.5190  132.3420 H   0  0  0  0  0  0  0  0  0  0  0  0
  139.3976  156.7662  135.2420 H   0  0  0  0  0  0  0  0  0  0  0  0
  140.8878  156.7618  134.2965 H   0  0  0  0  0  0  0  0  0  0  0  0
  1  2  1  0
  2  3  2  0
  2  4  1  0
  4  5  2  0
  5  6  1  0
  6  7  2  0
  7  8  1  0
  8  9  2  0
  9 10  1  0
 10 11  1  0
 11 12  1  0
 11 13  1  0
 11 14  1  0
  9 15  1  0
 15 16  2  0
 16 17  1  0
 17 18  1  0
 18 19  2  0
 18 20  1  0
 21 20  1  6
 21 22  2  0
 21 23  1  0
 23 24  1  0
 24 25  1  0
 25 26  1  0
 26 27  1  0
 26 28  1  0
 17  4  1  0
 28 23  1  0
 16  6  1  0
  1 29  1  0
  1 30  1  0
  5 31  1  0
  7 32  1  0
  8 33  1  0
 10 34  1  0
 10 35  1  0
 15 36  1  0
 20 37  1  0
 20 38  1  0
 23 39  1  1
 24 40  1  0
 24 41  1  0
 25 42  1  0
 25 43  1  0
 26 44  1  1
 27 45  1  0
 28 46  1  0
 28 47  1  0
M  END
>  <UniqueID>  (8) 
8

>  <SMILES>  (8) 
NC(=O)c1cc2ccc(CC(F)(F)F)cc2n1C(=O)C[S@](=O)[C@H]1CC[C@@H](O)C1

>  <Energy>  (8) 
81.25393014310083

>  <Genealogy>  (8) 
NC(=O)c1cc2ccc(CC(F)(F)F)cc2n1C(=O)C[S@](=O)[C@H]1CC[C@@H](O)C1 (chirality)
NC(=O)c1cc2ccc(CC(F)(F)F)cc2n1C(=O)C[S@](=O)[C@H]1CC[C@@H](O)C1 (3D coordinates assigned)
NC(=O)c1cc2ccc(CC(F)(F)F)cc2n1C(=O)C[S@](=O)[C@H]1CC[C@@H](O)C1 (nonaromatic ring conformer: 81.25393014310083 kcal/mol)

>  <smiles>  (8) 
NC(=O)c1cc2ccc(CC(F)(F)F)cc2n1C(=O)CS(=O)[C@H]1CC[C@@H](O)C1

>  <score_type>  (8) 
oracle

>  <origin>  (8) 
adg

>  <m_score__min__energy>  (8) 
-8.5399999999999991

>  <m_primary>  (8) 
energy

$$$$
8:0
     RDKit          3D

 34 35  0  0  0  0  0  0  0  0999 V2000
  137.9980  160.3740  130.4290 C   0  0  0  0  0  0  0  0  0  0  0  0
  138.4580  159.0460  131.5180 S   0  0  0  0  0  0  0  0  0  0  0  0
  138.9570  157.8860  130.7040 O   0  0  0  0  0  0  0  0  0  0  0  0
  137.2570  158.6170  132.3130 O   0  0  0  0  0  0  0  0  0  0  0  0
  139.7430  159.6060  132.6200 C   0  0  0  0  0  0  0  0  0  0  0  0
  140.0400  158.5480  133.6380 C   0  0  0  0  0  0  0  0  0  0  0  0
  139.2020  158.3060  134.5470 O   0  0  0  0  0  0  0  0  0  0  0  0
  141.2140  157.7310  133.5170 N   0  0  0  0  0  0  0  0  0  0  0  0
  141.2810  156.3780  133.3810 C   0  0  0  0  0  0  0  0  0  0  0  0
  140.1190  155.4820  133.1870 C   0  0  0  0  0  0  0  0  0  0  0  0
  138.8230  156.0120  132.9050 N   0  0  0  0  0  0  0  0  0  0  0  0
  140.2620  154.2350  133.2850 O   0  0  0  0  0  0  0  0  0  0  0  0
  142.6130  155.9590  133.3700 C   0  0  0  0  0  0  0  0  0  0  0  0
  143.3580  157.1110  133.5010 C   0  0  0  0  0  0  0  0  0  0  0  0
  144.7360  157.2840  133.5730 C   0  0  0  0  0  0  0  0  0  0  0  0
  145.2280  158.5900  133.7400 C   0  0  0  0  0  0  0  0  0  0  0  0
  144.3420  159.6960  133.8180 C   0  0  0  0  0  0  0  0  0  0  0  0
  144.8780  161.0850  134.0590 C   0  0  0  0  0  0  0  0  0  0  0  0
  144.9180  161.3260  135.4190 F   0  0  0  0  0  0  0  0  0  0  0  0
  146.1550  161.2120  133.5400 F   0  0  0  0  0  0  0  0  0  0  0  0
  144.0690  162.0320  133.4550 F   0  0  0  0  0  0  0  0  0  0  0  0
  142.9460  159.4740  133.7620 C   0  0  0  0  0  0  0  0  0  0  0  0
  142.4890  158.1650  133.5850 C   0  0  0  0  0  0  0  0  0  0  0  0
  137.6952  161.2481  131.0242 H   0  0  0  0  0  0  0  0  0  0  0  0
  138.8558  160.6417  129.7945 H   0  0  0  0  0  0  0  0  0  0  0  0
  137.1584  160.0538  129.7945 H   0  0  0  0  0  0  0  0  0  0  0  0
  140.6530  159.8196  132.0401 H   0  0  0  0  0  0  0  0  0  0  0  0
  139.4063  160.5183  133.1342 H   0  0  0  0  0  0  0  0  0  0  0  0
  138.6710  157.0350  132.7560 H   0  0  0  0  0  0  0  0  0  0  0  0
  138.0060  155.3690  132.8010 H   0  0  0  0  0  0  0  0  0  0  0  0
  142.9878  154.9290  133.2767 H   0  0  0  0  0  0  0  0  0  0  0  0
  145.4198  156.4253  133.5015 H   0  0  0  0  0  0  0  0  0  0  0  0
  146.3129  158.7569  133.8111 H   0  0  0  0  0  0  0  0  0  0  0  0
  142.2379  160.3106  133.8554 H   0  0  0  0  0  0  0  0  0  0  0  0
  1  2  1  0
  2  3  2  0
  2  4  2  0
  2  5  1  0
  5  6  1  0
  6  7  2  0
  6  8  1  0
  8  9  1  0
  9 10  1  0
 10 11  1  0
 10 12  2  0
  9 13  2  0
 13 14  1  0
 14 15  2  0
 15 16  1  0
 16 17  2  0
 17 18  1  0
 18 19  1  0
 18 20  1  0
 18 21  1  0
 17 22  1  0
 22 23  2  0
 23  8  1  0
 23 14  1  0
  1 24  1  0
  1 25  1  0
  1 26  1  0
  5 27  1  0
  5 28  1  0
 11 29  1  0
 11 30  1  0
 13 31  1  0
 15 32  1  0
 16 33  1  0
 22 34  1  0
M  END
>  <UniqueID>  (9) 
9

>  <SMILES>  (9) 
CS(=O)(=O)CC(=O)n1c(C(N)=O)cc2ccc(C(F)(F)F)cc21

>  <Energy>  (9) 
65.31615441938305

>  <Genealogy>  (9) 
CS(=O)(=O)CC(=O)n1c(C(N)=O)cc2ccc(C(F)(F)F)cc21 (3D coordinates assigned)
CS(=O)(=O)CC(=O)n1c(C(N)=O)cc2ccc(C(F)(F)F)cc21 (optimized conformer: 65.31615441938305 kcal/mol)

>  <smiles>  (9) 
CS(=O)(=O)CC(=O)n1c(C(N)=O)cc2ccc(C(F)(F)F)cc21

>  <score_type>  (9) 
oracle

>  <origin>  (9) 
adg

>  <m_score__min__energy>  (9) 
-6.6500000000000004

>  <m_primary>  (9) 
energy

$$$$
9:0
     RDKit          3D

 33 34  0  0  0  0  0  0  0  0999 V2000
  149.2630  159.7360  130.7720 C   0  0  0  0  0  0  0  0  0  0  0  0
  149.2920  158.6950  131.6030 C   0  0  0  0  0  0  0  0  0  0  0  0
  148.6660  158.7230  132.9380 C   0  0  0  0  0  0  0  0  0  0  0  0
  149.2300  159.3680  133.8610 O   0  0  0  0  0  0  0  0  0  0  0  0
  147.4410  158.0250  133.2140 N   0  0  0  0  0  0  0  0  0  0  0  0
  146.1920  158.5590  133.3070 C   0  0  0  0  0  0  0  0  0  0  0  0
  145.8680  160.0000  133.3040 C   0  0  0  0  0  0  0  0  0  0  0  0
  146.8480  160.9850  133.6350 N   0  0  0  0  0  0  0  0  0  0  0  0
  144.6920  160.3680  133.0430 O   0  0  0  0  0  0  0  0  0  0  0  0
  145.2340  157.5520  133.4050 C   0  0  0  0  0  0  0  0  0  0  0  0
  145.9420  156.3720  133.3670 C   0  0  0  0  0  0  0  0  0  0  0  0
  145.4920  155.0560  133.3870 C   0  0  0  0  0  0  0  0  0  0  0  0
  146.4460  154.0310  133.2710 C   0  0  0  0  0  0  0  0  0  0  0  0
  147.8260  154.3340  133.1380 C   0  0  0  0  0  0  0  0  0  0  0  0
  148.8290  153.2160  132.9580 C   0  0  0  0  0  0  0  0  0  0  0  0
  149.9620  153.6670  132.2990 F   0  0  0  0  0  0  0  0  0  0  0  0
  149.2250  152.7500  134.2010 F   0  0  0  0  0  0  0  0  0  0  0  0
  148.2150  152.0800  132.1840 C   0  0  0  0  0  0  0  0  0  0  0  0
  148.9140  150.9890  131.8520 C   0  0  0  0  0  0  0  0  0  0  0  0
  148.2400  155.6860  133.1000 C   0  0  0  0  0  0  0  0  0  0  0  0
  147.2700  156.6850  133.2420 C   0  0  0  0  0  0  0  0  0  0  0  0
  149.7450  159.6660  129.7857 H   0  0  0  0  0  0  0  0  0  0  0  0
  148.7571  160.6655  131.0722 H   0  0  0  0  0  0  0  0  0  0  0  0
  149.8041  157.7766  131.2800 H   0  0  0  0  0  0  0  0  0  0  0  0
  147.7690  160.7160  134.0460 H   0  0  0  0  0  0  0  0  0  0  0  0
  146.6130  162.0000  133.5670 H   0  0  0  0  0  0  0  0  0  0  0  0
  144.1444  157.6739  133.4938 H   0  0  0  0  0  0  0  0  0  0  0  0
  144.4216  154.8247  133.4905 H   0  0  0  0  0  0  0  0  0  0  0  0
  146.1192  152.9808  133.2834 H   0  0  0  0  0  0  0  0  0  0  0  0
  147.1594  152.1493  131.8824 H   0  0  0  0  0  0  0  0  0  0  0  0
  148.4322  150.1783  131.2857 H   0  0  0  0  0  0  0  0  0  0  0  0
  149.9707  150.9025  132.1452 H   0  0  0  0  0  0  0  0  0  0  0  0
  149.2998  155.9463  132.9620 H   0  0  0  0  0  0  0  0  0  0  0  0
  1  2  2  0
  2  3  1  0
  3  4  2  0
  3  5  1  0
  5  6  1  0
  6  7  1  0
  7  8  1  0
  7  9  2  0
  6 10  2  0
 10 11  1  0
 11 12  2  0
 12 13  1  0
 13 14  2  0
 14 15  1  0
 15 16  1  0
 15 17  1  0
 15 18  1  0
 18 19  2  0
 14 20  1  0
 20 21  2  0
 21  5  1  0
 21 11  1  0
  1 22  1  0
  1 23  1  0
  2 24  1  0
  8 25  1  0
  8 26  1  0
 10 27  1  0
 12 28  1  0
 13 29  1  0
 18 30  1  0
 19 31  1  0
 19 32  1  0
 20 33  1  0
M  END
>  <UniqueID>  (10) 
10

>  <SMILES>  (10) 
C=CC(=O)n1c(C(N)=O)cc2ccc(C(F)(F)C=C)cc21

>  <Energy>  (10) 
70.7828933872974

>  <Genealogy>  (10) 
C=CC(=O)n1c(C(N)=O)cc2ccc(C(F)(F)C=C)cc21 (3D coordinates assigned)
C=CC(=O)n1c(C(N)=O)cc2ccc(C(F)(F)C=C)cc21 (optimized conformer: 70.7828933872974 kcal/mol)

>  <smiles>  (10) 
C=CC(=O)n1c(C(N)=O)cc2ccc(C(F)(F)C=C)cc21

>  <score_type>  (10) 
oracle

>  <origin>  (10) 
adg

>  <m_score__min__energy>  (10) 
-6.6399999999999997

>  <m_primary>  (10) 
energy

$$$$
10:0
     RDKit          3D

 46 47  0  0  0  0  0  0  0  0999 V2000
  148.4890  155.2810  132.7190 C   0  0  0  0  0  0  0  0  0  0  0  0
  147.6190  156.2810  132.5900 C   0  0  0  0  0  0  0  0  0  0  0  0
  146.6110  156.5980  133.6230 C   0  0  0  0  0  0  0  0  0  0  0  0
  146.3610  155.7800  134.5480 O   0  0  0  0  0  0  0  0  0  0  0  0
  145.8610  157.8200  133.5440 N   0  0  0  0  0  0  0  0  0  0  0  0
  146.3290  159.0910  133.3780 C   0  0  0  0  0  0  0  0  0  0  0  0
  147.7500  159.4950  133.3760 C   0  0  0  0  0  0  0  0  0  0  0  0
  148.6380  158.9640  134.3570 N   0  0  0  0  0  0  0  0  0  0  0  0
  148.1950  160.2860  132.5020 O   0  0  0  0  0  0  0  0  0  0  0  0
  145.2680  159.9940  133.2820 C   0  0  0  0  0  0  0  0  0  0  0  0
  144.1280  159.2270  133.3950 C   0  0  0  0  0  0  0  0  0  0  0  0
  142.7870  159.6010  133.3570 C   0  0  0  0  0  0  0  0  0  0  0  0
  141.8180  158.5880  133.4840 C   0  0  0  0  0  0  0  0  0  0  0  0
  142.2050  157.2300  133.6440 C   0  0  0  0  0  0  0  0  0  0  0  0
  141.1650  156.1540  133.8460 C   0  0  0  0  0  0  0  0  0  0  0  0
  141.8220  154.7690  133.9800 C   0  0  0  0  0  0  0  0  0  0  0  0
  141.2060  153.7330  133.0050 C   0  0  0  0  0  0  0  0  0  0  0  0
  142.1590  152.7070  132.5150 N   0  0  1  0  0  0  0  0  0  0  0  0
  143.5500  152.9590  132.9190 C   0  0  0  0  0  0  0  0  0  0  0  0
  141.6590  151.0830  132.9380 S   0  0  0  0  0  0  0  0  0  0  0  0
  140.1680  150.6620  132.0590 C   0  0  0  0  0  0  0  0  0  0  0  0
  142.7170  150.0700  132.5940 O   0  0  0  0  0  0  0  0  0  0  0  0
  141.3720  151.0090  134.4130 O   0  0  0  0  0  0  0  0  0  0  0  0
  143.5760  156.8920  133.6750 C   0  0  0  0  0  0  0  0  0  0  0  0
  144.5150  157.9210  133.5560 C   0  0  0  0  0  0  0  0  0  0  0  0
  149.2215  155.0831  131.9226 H   0  0  0  0  0  0  0  0  0  0  0  0
  148.4751  154.6529  133.6219 H   0  0  0  0  0  0  0  0  0  0  0  0
  147.6521  156.8955  131.6782 H   0  0  0  0  0  0  0  0  0  0  0  0
  149.2560  158.1500  134.1440 H   0  0  0  0  0  0  0  0  0  0  0  0
  145.3289  161.0838  133.1455 H   0  0  0  0  0  0  0  0  0  0  0  0
  142.4946  160.6540  133.2318 H   0  0  0  0  0  0  0  0  0  0  0  0
  140.7500  158.8502  133.4591 H   0  0  0  0  0  0  0  0  0  0  0  0
  140.5954  156.3718  134.7615 H   0  0  0  0  0  0  0  0  0  0  0  0
  140.4988  156.1423  132.9707 H   0  0  0  0  0  0  0  0  0  0  0  0
  142.8964  154.8639  133.7639 H   0  0  0  0  0  0  0  0  0  0  0  0
  141.6507  154.4113  135.0060 H   0  0  0  0  0  0  0  0  0  0  0  0
  140.3843  153.2184  133.5246 H   0  0  0  0  0  0  0  0  0  0  0  0
  140.8705  154.2958  132.1214 H   0  0  0  0  0  0  0  0  0  0  0  0
  142.1300  152.7500  131.4700 H   0  0  0  0  0  0  0  0  0  0  0  0
  143.6165  152.9710  134.0169 H   0  0  0  0  0  0  0  0  0  0  0  0
  144.1972  152.1635  132.5212 H   0  0  0  0  0  0  0  0  0  0  0  0
  143.8770  153.9310  132.5212 H   0  0  0  0  0  0  0  0  0  0  0  0
  139.3686  150.4363  132.7801 H   0  0  0  0  0  0  0  0  0  0  0  0
  139.8633  151.5092  131.4271 H   0  0  0  0  0  0  0  0  0  0  0  0
  140.3514  149.7805  131.4271 H   0  0  0  0  0  0  0  0  0  0  0  0
  143.8967  155.8461  133.7898 H   0  0  0  0  0  0  0  0  0  0  0  0
  1  2  2  0
  2  3  1  0
  3  4  2  0
  3  5  1  0
  5  6  1  0
  6  7  1  0
  7  8  1  0
  7  9  2  0
  6 10  2  0
 10 11  1  0
 11 12  2  0
 12 13  1  0
 13 14  2  0
 14 15  1  0
 15 16  1  0
 16 17  1  0
 17 18  1  0
 18 19  1  0
 18 20  1  0
 20 21  1  0
 20 22  2  0
 20 23  2  0
 14 24  1  0
 24 25  2  0
 25  5  1  0
 25 11  1  0
  1 26  1  0
  1 27  1  0
  2 28  1  0
  8 29  1  0
 10 30  1  0
 12 31  1  0
 13 32  1  0
 15 33  1  0
 15 34  1  0
 16 35  1  0
 16 36  1  0
 17 37  1  0
 17 38  1  0
 18 39  1  6
 19 40  1  0
 19 41  1  0
 19 42  1  0
 21 43  1  0
 21 44  1  0
 21 45  1  0
 24 46  1  0
M  CHG  2   8  -1  18   1
M  END
>  <UniqueID>  (11) 
11

>  <SMILES>  (11) 
C=CC(=O)n1c(C([NH-])=O)cc2ccc(CCC[N@@H+](C)S(C)(=O)=O)cc21

>  <Energy>  (11) 
78.51781152014296

>  <Genealogy>  (11) 
C=CC(=O)n1c(C([NH-])=O)cc2ccc(CCC[NH+](C)S(C)(=O)=O)cc21 (protonated)
C=CC(=O)n1c(C([NH-])=O)cc2ccc(CCC[N@@H+](C)S(C)(=O)=O)cc21 (chirality)
C=CC(=O)n1c(C([NH-])=O)cc2ccc(CCC[N@@H+](C)S(C)(=O)=O)cc21 (3D coordinates assigned)
C=CC(=O)n1c(C([NH-])=O)cc2ccc(CCC[N@@H+](C)S(C)(=O)=O)cc21 (optimized conformer: 78.51781152014296 kcal/mol)

>  <smiles>  (11) 
C=CC(=O)n1c(C(N)=O)cc2ccc(CCCN(C)S(C)(=O)=O)cc21

>  <score_type>  (11) 
oracle

>  <origin>  (11) 
adg

>  <m_score__min__energy>  (11) 
-7.4199999999999999

>  <m_primary>  (11) 
energy

$$$$
11:0
     RDKit          3D

 36 38  0  0  0  0  0  0  0  0999 V2000
  144.3440  162.8570  133.7310 C   0  0  0  0  0  0  0  0  0  0  0  0
  144.5330  161.5550  133.9360 C   0  0  0  0  0  0  0  0  0  0  0  0
  145.8260  160.8880  133.6930 C   0  0  0  0  0  0  0  0  0  0  0  0
  146.8840  161.5660  133.7650 O   0  0  0  0  0  0  0  0  0  0  0  0
  145.9060  159.4900  133.3640 N   0  0  0  0  0  0  0  0  0  0  0  0
  146.9820  158.8210  132.8670 C   0  0  0  0  0  0  0  0  0  0  0  0
  148.2440  159.4380  132.4090 C   0  0  0  0  0  0  0  0  0  0  0  0
  149.5110  158.9920  132.8960 N   0  0  0  0  0  0  0  0  0  0  0  0
  148.2030  160.4060  131.6020 O   0  0  0  0  0  0  0  0  0  0  0  0
  146.7400  157.4490  132.8450 C   0  0  0  0  0  0  0  0  0  0  0  0
  145.4690  157.2970  133.3520 C   0  0  0  0  0  0  0  0  0  0  0  0
  144.7280  156.1410  133.5810 C   0  0  0  0  0  0  0  0  0  0  0  0
  143.4580  156.2800  134.1650 C   0  0  0  0  0  0  0  0  0  0  0  0
  142.9630  157.5580  134.5260 C   0  0  0  0  0  0  0  0  0  0  0  0
  141.6220  157.6870  135.1360 C   0  0  0  0  0  0  0  0  0  0  0  0
  141.4640  157.4040  136.5030 C   0  0  0  0  0  0  0  0  0  0  0  0
  140.2070  157.4980  137.1060 C   0  0  0  0  0  0  0  0  0  0  0  0
  139.0970  157.8820  136.3520 C   0  0  0  0  0  0  0  0  0  0  0  0
  139.2420  158.1780  134.9950 C   0  0  0  0  0  0  0  0  0  0  0  0
  140.4960  158.0870  134.3790 C   0  0  0  0  0  0  0  0  0  0  0  0
  140.6300  158.5890  132.5320 Br  0  0  0  0  0  0  0  0  0  0  0  0
  143.7410  158.7090  134.2690 C   0  0  0  0  0  0  0  0  0  0  0  0
  144.9920  158.5420  133.6660 C   0  0  0  0  0  0  0  0  0  0  0  0
  143.3599  163.3075  133.9274 H   0  0  0  0  0  0  0  0  0  0  0  0
  145.1720  163.4821  133.3653 H   0  0  0  0  0  0  0  0  0  0  0  0
  143.6894  160.9514  134.3020 H   0  0  0  0  0  0  0  0  0  0  0  0
  150.3910  159.4010  132.5130 H   0  0  0  0  0  0  0  0  0  0  0  0
  149.5800  158.3360  133.7050 H   0  0  0  0  0  0  0  0  0  0  0  0
  147.4192  156.6568  132.4970 H   0  0  0  0  0  0  0  0  0  0  0  0
  145.1243  155.1504  133.3132 H   0  0  0  0  0  0  0  0  0  0  0  0
  142.8409  155.3872  134.3441 H   0  0  0  0  0  0  0  0  0  0  0  0
  142.3364  157.1062  137.1032 H   0  0  0  0  0  0  0  0  0  0  0  0
  140.0922  157.2692  138.1758 H   0  0  0  0  0  0  0  0  0  0  0  0
  138.1073  157.9515  136.8270 H   0  0  0  0  0  0  0  0  0  0  0  0
  138.3650  158.4847  134.4060 H   0  0  0  0  0  0  0  0  0  0  0  0
  143.3725  159.7104  134.5362 H   0  0  0  0  0  0  0  0  0  0  0  0
  1  2  2  0
  2  3  1  0
  3  4  2  0
  3  5  1  0
  5  6  1  0
  6  7  1  0
  7  8  1  0
  7  9  2  0
  6 10  2  0
 10 11  1  0
 11 12  2  0
 12 13  1  0
 13 14  2  0
 14 15  1  0
 15 16  2  0
 16 17  1  0
 17 18  2  0
 18 19  1  0
 19 20  2  0
 20 21  1  0
 14 22  1  0
 22 23  2  0
 23  5  1  0
 23 11  1  0
 20 15  1  0
  1 24  1  0
  1 25  1  0
  2 26  1  0
  8 27  1  0
  8 28  1  0
 10 29  1  0
 12 30  1  0
 13 31  1  0
 16 32  1  0
 17 33  1  0
 18 34  1  0
 19 35  1  0
 22 36  1  0
M  END
>  <UniqueID>  (12) 
12

>  <SMILES>  (12) 
C=CC(=O)n1c(C(N)=O)cc2ccc(-c3ccccc3Br)cc21

>  <Energy>  (12) 
85.47004294119608

>  <Genealogy>  (12) 
C=CC(=O)n1c(C(N)=O)cc2ccc(-c3ccccc3Br)cc21 (3D coordinates assigned)
C=CC(=O)n1c(C(N)=O)cc2ccc(-c3ccccc3Br)cc21 (optimized conformer: 85.47004294119608 kcal/mol)

>  <smiles>  (12) 
C=CC(=O)n1c(C(N)=O)cc2ccc(-c3ccccc3Br)cc21

>  <score_type>  (12) 
oracle

>  <origin>  (12) 
adg

>  <m_score__min__energy>  (12) 
-8.4100000000000001

>  <m_primary>  (12) 
energy

$$$$
12:0
     RDKit          3D

 43 45  0  0  0  0  0  0  0  0999 V2000
  140.9420  159.3070  137.5220 C   0  0  0  0  0  0  0  0  0  0  0  0
  140.0440  158.2160  137.1150 N   0  0  0  0  0  0  0  0  0  0  0  0
  140.5000  157.4360  135.9430 C   0  0  1  0  0  0  0  0  0  0  0  0
  139.8430  157.8680  134.6230 C   0  0  0  0  0  0  0  0  0  0  0  0
  140.8890  158.6990  133.8910 C   0  0  0  0  0  0  0  0  0  0  0  0
  142.1630  158.4090  134.5390 N   0  0  0  0  0  0  0  0  0  0  0  0
  143.4360  158.9070  134.0690 C   0  0  0  0  0  0  0  0  0  0  0  0
  143.6200  160.2930  133.8050 C   0  0  0  0  0  0  0  0  0  0  0  0
  144.8580  160.7900  133.3620 C   0  0  0  0  0  0  0  0  0  0  0  0
  145.8980  159.8840  133.1860 C   0  0  0  0  0  0  0  0  0  0  0  0
  147.2020  160.0930  132.7940 C   0  0  0  0  0  0  0  0  0  0  0  0
  147.7970  158.8310  132.8080 C   0  0  0  0  0  0  0  0  0  0  0  0
  149.1960  158.5760  132.4040 C   0  0  0  0  0  0  0  0  0  0  0  0
  149.6650  157.2490  132.1840 N   0  0  0  0  0  0  0  0  0  0  0  0
  149.9810  159.5460  132.2250 O   0  0  0  0  0  0  0  0  0  0  0  0
  146.8960  157.8880  133.1960 N   0  0  0  0  0  0  0  0  0  0  0  0
  147.1190  156.4890  133.4150 C   0  0  0  0  0  0  0  0  0  0  0  0
  147.0380  155.6850  132.4470 O   0  0  0  0  0  0  0  0  0  0  0  0
  147.3230  155.9660  134.8020 C   0  0  0  0  0  0  0  0  0  0  0  0
  146.2890  154.9330  135.1090 C   0  0  0  0  0  0  0  0  0  0  0  0
  145.1040  155.0860  134.7090 O   0  0  0  0  0  0  0  0  0  0  0  0
  146.6410  153.7750  135.7890 O   0  0  0  0  0  0  0  0  0  0  0  0
  145.7410  158.5470  133.4210 C   0  0  0  0  0  0  0  0  0  0  0  0
  144.5260  158.0220  133.8710 C   0  0  0  0  0  0  0  0  0  0  0  0
  142.0080  157.5600  135.7140 C   0  0  0  0  0  0  0  0  0  0  0  0
  140.9835  159.3574  138.6201 H   0  0  0  0  0  0  0  0  0  0  0  0
  141.9506  159.1191  137.1252 H   0  0  0  0  0  0  0  0  0  0  0  0
  140.5637  160.2606  137.1252 H   0  0  0  0  0  0  0  0  0  0  0  0
  139.1110  158.6360  136.8890 H   0  0  0  0  0  0  0  0  0  0  0  0
  140.2105  156.4050  136.1943 H   0  0  0  0  0  0  0  0  0  0  0  0
  139.5677  156.9863  134.0257 H   0  0  0  0  0  0  0  0  0  0  0  0
  138.9208  158.4414  134.7985 H   0  0  0  0  0  0  0  0  0  0  0  0
  140.9275  158.4147  132.8291 H   0  0  0  0  0  0  0  0  0  0  0  0
  140.6516  159.7722  133.9344 H   0  0  0  0  0  0  0  0  0  0  0  0
  142.7792  160.9873  133.9500 H   0  0  0  0  0  0  0  0  0  0  0  0
  144.9996  161.8621  133.1609 H   0  0  0  0  0  0  0  0  0  0  0  0
  147.6735  161.0503  132.5270 H   0  0  0  0  0  0  0  0  0  0  0  0
  149.0180  156.4990  131.8560 H   0  0  0  0  0  0  0  0  0  0  0  0
  148.3236  155.5157  134.8792 H   0  0  0  0  0  0  0  0  0  0  0  0
  147.2337  156.7946  135.5200 H   0  0  0  0  0  0  0  0  0  0  0  0
  144.4179  156.9451  134.0673 H   0  0  0  0  0  0  0  0  0  0  0  0
  142.4505  156.5695  135.5319 H   0  0  0  0  0  0  0  0  0  0  0  0
  142.5170  157.9860  136.5912 H   0  0  0  0  0  0  0  0  0  0  0  0
  1  2  1  0
  2  3  1  0
  3  4  1  0
  4  5  1  0
  5  6  1  0
  6  7  1  0
  7  8  2  0
  8  9  1  0
  9 10  2  0
 10 11  1  0
 11 12  2  0
 12 13  1  0
 13 14  1  0
 13 15  2  0
 12 16  1  0
 16 17  1  0
 17 18  2  0
 17 19  1  0
 19 20  1  0
 20 21  2  0
 20 22  1  0
 16 23  1  0
 23 24  2  0
  6 25  1  0
 25  3  1  0
 24  7  1  0
 23 10  1  0
  1 26  1  0
  1 27  1  0
  1 28  1  0
  2 29  1  0
  3 30  1  1
  4 31  1  0
  4 32  1  0
  5 33  1  0
  5 34  1  0
  8 35  1  0
  9 36  1  0
 11 37  1  0
 14 38  1  0
 19 39  1  0
 19 40  1  0
 24 41  1  0
 25 42  1  0
 25 43  1  0
M  CHG  2  14  -1  22  -1
M  END
>  <UniqueID>  (13) 
13

>  <SMILES>  (13) 
CN[C@H]1CCN(c2ccc3cc(C([NH-])=O)n(C(=O)CC(=O)[O-])c3c2)C1

>  <Energy>  (13) 
87.1414702057737

>  <Genealogy>  (13) 
CNC1CCN(c2ccc3cc(C([NH-])=O)n(C(=O)CC(=O)[O-])c3c2)C1 (protonated)
CN[C@H]1CCN(c2ccc3cc(C([NH-])=O)n(C(=O)CC(=O)[O-])c3c2)C1 (chirality)
CN[C@H]1CCN(c2ccc3cc(C([NH-])=O)n(C(=O)CC(=O)[O-])c3c2)C1 (3D coordinates assigned)
CN[C@H]1CCN(c2ccc3cc(C([NH-])=O)n(C(=O)CC(=O)[O-])c3c2)C1 (nonaromatic ring conformer: 87.1414702057737 kcal/mol)

>  <smiles>  (13) 
CNC1CCN(c2ccc3cc(C(N)=O)n(C(=O)CC(=O)O)c3c2)C1

>  <score_type>  (13) 
oracle

>  <origin>  (13) 
adg

>  <m_score__min__energy>  (13) 
-7.4299999999999997

>  <m_primary>  (13) 
energy

$$$$
13:0
     RDKit          3D

 29 30  0  0  0  0  0  0  0  0999 V2000
  147.4570  155.3720  132.0750 N   0  0  0  0  0  0  0  0  0  0  0  0
  146.1650  155.5800  132.6480 C   0  0  0  0  0  0  0  0  0  0  0  0
  145.4010  154.5910  132.8080 O   0  0  0  0  0  0  0  0  0  0  0  0
  145.7300  156.9310  133.0710 C   0  0  0  0  0  0  0  0  0  0  0  0
  144.4050  157.2860  133.3260 C   0  0  0  0  0  0  0  0  0  0  0  0
  144.4330  158.6370  133.5880 C   0  0  0  0  0  0  0  0  0  0  0  0
  143.4000  159.5100  133.9150 C   0  0  0  0  0  0  0  0  0  0  0  0
  143.7240  160.8560  134.1510 C   0  0  0  0  0  0  0  0  0  0  0  0
  145.0650  161.3100  134.0420 C   0  0  0  0  0  0  0  0  0  0  0  0
  145.4070  162.7450  134.3540 C   0  0  0  0  0  0  0  0  0  0  0  0
  146.6350  163.0840  133.8100 F   0  0  0  0  0  0  0  0  0  0  0  0
  144.4520  163.6000  133.8310 F   0  0  0  0  0  0  0  0  0  0  0  0
  145.4590  162.9130  135.7250 F   0  0  0  0  0  0  0  0  0  0  0  0
  146.0890  160.3870  133.7290 C   0  0  0  0  0  0  0  0  0  0  0  0
  145.7330  159.0560  133.4900 C   0  0  0  0  0  0  0  0  0  0  0  0
  146.5410  158.0210  133.1800 N   0  0  0  0  0  0  0  0  0  0  0  0
  147.9700  158.0780  133.0320 C   0  0  0  0  0  0  0  0  0  0  0  0
  148.6910  157.2550  133.6560 O   0  0  0  0  0  0  0  0  0  0  0  0
  148.5950  159.0590  132.1240 C   0  0  0  0  0  0  0  0  0  0  0  0
  148.7530  160.2500  132.5040 O   0  0  0  0  0  0  0  0  0  0  0  0
  149.0130  158.6750  130.8120 N   0  0  0  0  0  0  0  0  0  0  0  0
  149.5770  159.5840  129.9810 O   0  0  0  0  0  0  0  0  0  0  0  0
  148.0960  156.1720  131.8670 H   0  0  0  0  0  0  0  0  0  0  0  0
  147.7650  154.4090  131.8150 H   0  0  0  0  0  0  0  0  0  0  0  0
  143.5248  156.6263  133.3191 H   0  0  0  0  0  0  0  0  0  0  0  0
  142.3608  159.1565  133.9865 H   0  0  0  0  0  0  0  0  0  0  0  0
  142.9298  161.5667  134.4234 H   0  0  0  0  0  0  0  0  0  0  0  0
  147.1398  160.7078  133.6748 H   0  0  0  0  0  0  0  0  0  0  0  0
  148.8960  157.6930  130.4800 H   0  0  0  0  0  0  0  0  0  0  0  0
  1  2  1  0
  2  3  2  0
  2  4  1  0
  4  5  2  0
  5  6  1  0
  6  7  2  0
  7  8  1  0
  8  9  2  0
  9 10  1  0
 10 11  1  0
 10 12  1  0
 10 13  1  0
  9 14  1  0
 14 15  2  0
 15 16  1  0
 16 17  1  0
 17 18  2  0
 17 19  1  0
 19 20  2  0
 19 21  1  0
 21 22  1  0
 16  4  1  0
 15  6  1  0
  1 23  1  0
  1 24  1  0
  5 25  1  0
  7 26  1  0
  8 27  1  0
 14 28  1  0
 21 29  1  0
M  CHG  1  22  -1
M  END
>  <UniqueID>  (14) 
14

>  <SMILES>  (14) 
NC(=O)c1cc2ccc(C(F)(F)F)cc2n1C(=O)C(=O)N[O-]

>  <Energy>  (14) 
68.45584254534215

>  <Genealogy>  (14) 
NC(=O)c1cc2ccc(C(F)(F)F)cc2n1C(=O)C(=O)N[O-] (protonated)
NC(=O)c1cc2ccc(C(F)(F)F)cc2n1C(=O)C(=O)N[O-] (3D coordinates assigned)
NC(=O)c1cc2ccc(C(F)(F)F)cc2n1C(=O)C(=O)N[O-] (optimized conformer: 68.45584254534215 kcal/mol)

>  <smiles>  (14) 
NC(=O)c1cc2ccc(C(F)(F)F)cc2n1C(=O)C(=O)NO

>  <score_type>  (14) 
oracle

>  <origin>  (14) 
adg

>  <m_score__min__energy>  (14) 
-6.3399999999999999

>  <m_primary>  (14) 
energy

$$$$
14:0
     RDKit          3D

 38 40  0  0  0  0  0  0  0  0999 V2000
  148.4980  157.4020  132.6720 C   0  0  0  0  0  0  0  0  0  0  0  0
  147.4530  158.4370  132.9600 C   0  0  0  0  0  0  0  0  0  0  0  0
  147.8360  159.7630  133.2760 C   0  0  0  0  0  0  0  0  0  0  0  0
  146.8670  160.7320  133.5910 C   0  0  0  0  0  0  0  0  0  0  0  0
  145.5320  160.3390  133.6030 C   0  0  0  0  0  0  0  0  0  0  0  0
  144.3970  161.0620  133.8930 C   0  0  0  0  0  0  0  0  0  0  0  0
  143.3440  160.1540  133.7920 C   0  0  0  0  0  0  0  0  0  0  0  0
  141.9390  160.4950  134.1080 C   0  0  0  0  0  0  0  0  0  0  0  0
  141.2670  159.9020  135.2140 N   0  0  0  0  0  0  0  0  0  0  0  0
  141.3320  161.3450  133.4030 O   0  0  0  0  0  0  0  0  0  0  0  0
  143.8110  158.9210  133.4470 N   0  0  0  0  0  0  0  0  0  0  0  0
  143.0530  157.7110  133.2860 C   0  0  0  0  0  0  0  0  0  0  0  0
  143.1850  157.0290  132.2350 O   0  0  0  0  0  0  0  0  0  0  0  0
  142.1000  157.2370  134.3500 C   0  0  0  0  0  0  0  0  0  0  0  0
  140.8320  156.8910  133.7940 O   0  0  0  0  0  0  0  0  0  0  0  0
  139.7240  157.7460  133.8090 C   0  0  0  0  0  0  0  0  0  0  0  0
  139.0370  157.8760  134.8590 O   0  0  0  0  0  0  0  0  0  0  0  0
  139.3410  158.4640  132.5750 C   0  0  0  0  0  0  0  0  0  0  0  0
  137.9900  158.6720  132.2610 C   0  0  0  0  0  0  0  0  0  0  0  0
  137.6550  159.3840  131.1120 C   0  0  0  0  0  0  0  0  0  0  0  0
  138.6390  159.8650  130.3110 N   0  0  0  0  0  0  0  0  0  0  0  0
  139.9280  159.6720  130.6000 N   0  0  0  0  0  0  0  0  0  0  0  0
  140.3120  158.9870  131.7090 C   0  0  0  0  0  0  0  0  0  0  0  0
  145.1500  159.0520  133.3290 C   0  0  0  0  0  0  0  0  0  0  0  0
  146.0900  158.0720  132.9920 C   0  0  0  0  0  0  0  0  0  0  0  0
  148.8953  157.0085  133.6193 H   0  0  0  0  0  0  0  0  0  0  0  0
  148.0508  156.5808  132.0927 H   0  0  0  0  0  0  0  0  0  0  0  0
  149.3149  157.8570  132.0927 H   0  0  0  0  0  0  0  0  0  0  0  0
  148.9012  160.0376  133.2751 H   0  0  0  0  0  0  0  0  0  0  0  0
  147.1552  161.7684  133.8208 H   0  0  0  0  0  0  0  0  0  0  0  0
  144.3342  162.1297  134.1499 H   0  0  0  0  0  0  0  0  0  0  0  0
  140.9100  158.9220  135.1630 H   0  0  0  0  0  0  0  0  0  0  0  0
  142.5273  156.3527  134.8455 H   0  0  0  0  0  0  0  0  0  0  0  0
  141.9513  158.0538  135.0716 H   0  0  0  0  0  0  0  0  0  0  0  0
  137.2011  158.2758  132.9172 H   0  0  0  0  0  0  0  0  0  0  0  0
  136.5992  159.5554  130.8553 H   0  0  0  0  0  0  0  0  0  0  0  0
  141.3806  158.8433  131.9266 H   0  0  0  0  0  0  0  0  0  0  0  0
  145.7751  157.0443  132.7582 H   0  0  0  0  0  0  0  0  0  0  0  0
  1  2  1  0
  2  3  2  0
  3  4  1  0
  4  5  2  0
  5  6  1  0
  6  7  2  0
  7  8  1  0
  8  9  1  0
  8 10  2  0
  7 11  1  0
 11 12  1  0
 12 13  2  0
 12 14  1  0
 14 15  1  0
 15 16  1  0
 16 17  2  0
 16 18  1  0
 18 19  2  0
 19 20  1  0
 20 21  2  0
 21 22  1  0
 22 23  2  0
 11 24  1  0
 24 25  2  0
 25  2  1  0
 24  5  1  0
 23 18  1  0
  1 26  1  0
  1 27  1  0
  1 28  1  0
  3 29  1  0
  4 30  1  0
  6 31  1  0
  9 32  1  0
 14 33  1  0
 14 34  1  0
 19 35  1  0
 20 36  1  0
 23 37  1  0
 25 38  1  0
M  CHG  1   9  -1
M  END
>  <UniqueID>  (15) 
15

>  <SMILES>  (15) 
Cc1ccc2cc(C([NH-])=O)n(C(=O)COC(=O)c3ccnnc3)c2c1

>  <Energy>  (15) 
77.21044920345828

>  <Genealogy>  (15) 
Cc1ccc2cc(C([NH-])=O)n(C(=O)COC(=O)c3ccnnc3)c2c1 (protonated)
Cc1ccc2cc(C([NH-])=O)n(C(=O)COC(=O)c3ccnnc3)c2c1 (3D coordinates assigned)
Cc1ccc2cc(C([NH-])=O)n(C(=O)COC(=O)c3ccnnc3)c2c1 (optimized conformer: 77.21044920345828 kcal/mol)

>  <smiles>  (15) 
Cc1ccc2cc(C(N)=O)n(C(=O)COC(=O)c3ccnnc3)c2c1

>  <score_type>  (15) 
oracle

>  <origin>  (15) 
adg

>  <m_score__min__energy>  (15) 
-7.1799999999999997

>  <m_primary>  (15) 
energy

$$$$
15:0
     RDKit          3D

 38 39  0  0  0  0  0  0  0  0999 V2000
  143.4370  155.6060  135.2280 C   0  0  0  0  0  0  0  0  0  0  0  0
  144.4630  154.9490  135.9620 O   0  0  0  0  0  0  0  0  0  0  0  0
  145.5940  154.4040  135.3480 C   0  0  0  0  0  0  0  0  0  0  0  0
  146.4050  153.7000  136.0090 O   0  0  0  0  0  0  0  0  0  0  0  0
  145.8260  154.6430  133.9160 C   0  0  0  0  0  0  0  0  0  0  0  0
  145.0750  154.0910  133.0660 O   0  0  0  0  0  0  0  0  0  0  0  0
  146.9030  155.4830  133.4720 N   0  0  0  0  0  0  0  0  0  0  0  0
  148.1290  155.0900  133.0260 C   0  0  0  0  0  0  0  0  0  0  0  0
  148.6310  153.6970  133.0320 C   0  0  0  0  0  0  0  0  0  0  0  0
  147.8530  152.6360  133.5910 N   0  0  0  0  0  0  0  0  0  0  0  0
  149.7530  153.4290  132.5270 O   0  0  0  0  0  0  0  0  0  0  0  0
  148.8730  156.1960  132.6160 C   0  0  0  0  0  0  0  0  0  0  0  0
  148.0540  157.2840  132.8170 C   0  0  0  0  0  0  0  0  0  0  0  0
  148.2740  158.6330  132.5550 C   0  0  0  0  0  0  0  0  0  0  0  0
  147.2300  159.5350  132.8250 C   0  0  0  0  0  0  0  0  0  0  0  0
  145.9940  159.0750  133.3450 C   0  0  0  0  0  0  0  0  0  0  0  0
  144.8650  160.0430  133.5830 C   0  0  0  0  0  0  0  0  0  0  0  0
  143.6150  159.3260  134.1080 C   0  0  0  0  0  0  0  0  0  0  0  0
  142.4550  159.5940  133.2590 N   0  0  0  0  0  0  0  0  0  0  0  0
  141.1880  160.0050  133.7850 C   0  0  0  0  0  0  0  0  0  0  0  0
  141.0160  160.1320  135.0260 O   0  0  0  0  0  0  0  0  0  0  0  0
  140.1320  160.2590  132.9180 O   0  0  0  0  0  0  0  0  0  0  0  0
  145.8050  157.6970  133.5870 C   0  0  0  0  0  0  0  0  0  0  0  0
  146.8690  156.8260  133.3300 C   0  0  0  0  0  0  0  0  0  0  0  0
  142.7218  156.0640  135.9271 H   0  0  0  0  0  0  0  0  0  0  0  0
  143.8822  156.3874  134.5946 H   0  0  0  0  0  0  0  0  0  0  0  0
  142.9135  154.8747  134.5946 H   0  0  0  0  0  0  0  0  0  0  0  0
  146.9490  152.8200  134.0800 H   0  0  0  0  0  0  0  0  0  0  0  0
  148.2070  151.6540  133.5550 H   0  0  0  0  0  0  0  0  0  0  0  0
  149.8978  156.1984  132.2164 H   0  0  0  0  0  0  0  0  0  0  0  0
  149.2348  158.9826  132.1493 H   0  0  0  0  0  0  0  0  0  0  0  0
  147.3736  160.6082  132.6309 H   0  0  0  0  0  0  0  0  0  0  0  0
  145.1853  160.7917  134.3224 H   0  0  0  0  0  0  0  0  0  0  0  0
  144.6127  160.5230  132.6259 H   0  0  0  0  0  0  0  0  0  0  0  0
  143.8039  158.2425  134.1257 H   0  0  0  0  0  0  0  0  0  0  0  0
  143.3991  159.6990  135.1201 H   0  0  0  0  0  0  0  0  0  0  0  0
  142.5400  159.4350  132.2300 H   0  0  0  0  0  0  0  0  0  0  0  0
  144.8453  157.3178  133.9680 H   0  0  0  0  0  0  0  0  0  0  0  0
  1  2  1  0
  2  3  1  0
  3  4  2  0
  3  5  1  0
  5  6  2  0
  5  7  1  0
  7  8  1  0
  8  9  1  0
  9 10  1  0
  9 11  2  0
  8 12  2  0
 12 13  1  0
 13 14  2  0
 14 15  1  0
 15 16  2  0
 16 17  1  0
 17 18  1  0
 18 19  1  0
 19 20  1  0
 20 21  2  0
 20 22  1  0
 16 23  1  0
 23 24  2  0
 24  7  1  0
 24 13  1  0
  1 25  1  0
  1 26  1  0
  1 27  1  0
 10 28  1  0
 10 29  1  0
 12 30  1  0
 14 31  1  0
 15 32  1  0
 17 33  1  0
 17 34  1  0
 18 35  1  0
 18 36  1  0
 19 37  1  0
 23 38  1  0
M  CHG  1  22  -1
M  END
>  <UniqueID>  (16) 
16

>  <SMILES>  (16) 
COC(=O)C(=O)n1c(C(N)=O)cc2ccc(CCNC(=O)[O-])cc21

>  <Energy>  (16) 
69.36986321154323

>  <Genealogy>  (16) 
COC(=O)C(=O)n1c(C(N)=O)cc2ccc(CCNC(=O)[O-])cc21 (protonated)
COC(=O)C(=O)n1c(C(N)=O)cc2ccc(CCNC(=O)[O-])cc21 (3D coordinates assigned)
COC(=O)C(=O)n1c(C(N)=O)cc2ccc(CCNC(=O)[O-])cc21 (optimized conformer: 69.36986321154323 kcal/mol)

>  <smiles>  (16) 
COC(=O)C(=O)n1c(C(N)=O)cc2ccc(CCNC(=O)O)cc21

>  <score_type>  (16) 
oracle

>  <origin>  (16) 
adg

>  <m_score__min__energy>  (16) 
-7.0499999999999998

>  <m_primary>  (16) 
energy

$$$$
16:0
     RDKit          3D

 30 31  0  0  0  0  0  0  0  0999 V2000
  147.3520  160.7990  133.3840 N   0  0  0  0  0  0  0  0  0  0  0  0
  146.8770  159.4790  133.6570 C   0  0  0  0  0  0  0  0  0  0  0  0
  147.7010  158.5880  133.9900 O   0  0  0  0  0  0  0  0  0  0  0  0
  145.4320  159.1670  133.5870 C   0  0  0  0  0  0  0  0  0  0  0  0
  144.9240  157.8930  133.3390 C   0  0  0  0  0  0  0  0  0  0  0  0
  143.5600  158.0520  133.2590 C   0  0  0  0  0  0  0  0  0  0  0  0
  142.5620  157.1100  133.0320 C   0  0  0  0  0  0  0  0  0  0  0  0
  141.2290  157.5500  133.0230 C   0  0  0  0  0  0  0  0  0  0  0  0
  140.9190  158.9140  133.2540 C   0  0  0  0  0  0  0  0  0  0  0  0
  139.4860  159.3820  133.2230 C   0  0  0  0  0  0  0  0  0  0  0  0
  138.6140  158.4860  132.3340 C   0  0  0  0  0  0  0  0  0  0  0  0
  138.1430  159.2110  131.1120 C   0  0  0  0  0  0  0  0  0  0  0  0
  136.9830  159.7010  131.0740 O   0  0  0  0  0  0  0  0  0  0  0  0
  138.9680  159.3100  129.9990 O   0  0  0  0  0  0  0  0  0  0  0  0
  141.9590  159.8440  133.4740 C   0  0  0  0  0  0  0  0  0  0  0  0
  143.2800  159.3800  133.4580 C   0  0  0  0  0  0  0  0  0  0  0  0
  144.4200  160.0790  133.6610 N   0  0  0  0  0  0  0  0  0  0  0  0
  144.5210  161.4820  133.9570 C   0  0  0  0  0  0  0  0  0  0  0  0
  145.4010  161.9020  134.7550 O   0  0  0  0  0  0  0  0  0  0  0  0
  143.6410  162.3890  133.3790 O   0  0  0  0  0  0  0  0  0  0  0  0
  146.7080  161.5490  133.0510 H   0  0  0  0  0  0  0  0  0  0  0  0
  148.3690  161.0180  133.4740 H   0  0  0  0  0  0  0  0  0  0  0  0
  145.4934  156.9581  133.2303 H   0  0  0  0  0  0  0  0  0  0  0  0
  142.8100  156.0515  132.8645 H   0  0  0  0  0  0  0  0  0  0  0  0
  140.4183  156.8306  132.8352 H   0  0  0  0  0  0  0  0  0  0  0  0
  139.0842  159.3671  134.2469 H   0  0  0  0  0  0  0  0  0  0  0  0
  139.4673  160.3998  132.8062 H   0  0  0  0  0  0  0  0  0  0  0  0
  139.2025  157.6098  132.0243 H   0  0  0  0  0  0  0  0  0  0  0  0
  137.7307  158.1816  132.9146 H   0  0  0  0  0  0  0  0  0  0  0  0
  141.7367  160.9063  133.6534 H   0  0  0  0  0  0  0  0  0  0  0  0
  1  2  1  0
  2  3  2  0
  2  4  1  0
  4  5  2  0
  5  6  1  0
  6  7  2  0
  7  8  1  0
  8  9  2  0
  9 10  1  0
 10 11  1  0
 11 12  1  0
 12 13  2  0
 12 14  1  0
  9 15  1  0
 15 16  2  0
 16 17  1  0
 17 18  1  0
 18 19  2  0
 18 20  1  0
 17  4  1  0
 16  6  1  0
  1 21  1  0
  1 22  1  0
  5 23  1  0
  7 24  1  0
  8 25  1  0
 10 26  1  0
 10 27  1  0
 11 28  1  0
 11 29  1  0
 15 30  1  0
M  CHG  2  14  -1  20  -1
M  END
>  <UniqueID>  (17) 
17

>  <SMILES>  (17) 
NC(=O)c1cc2ccc(CCC(=O)[O-])cc2n1C(=O)[O-]

>  <Energy>  (17) 
66.12686232883568

>  <Genealogy>  (17) 
NC(=O)c1cc2ccc(CCC(=O)[O-])cc2n1C(=O)[O-] (protonated)
NC(=O)c1cc2ccc(CCC(=O)[O-])cc2n1C(=O)[O-] (3D coordinates assigned)
NC(=O)c1cc2ccc(CCC(=O)[O-])cc2n1C(=O)[O-] (optimized conformer: 66.12686232883568 kcal/mol)

>  <smiles>  (17) 
NC(=O)c1cc2ccc(CCC(=O)O)cc2n1C(=O)O

>  <score_type>  (17) 
oracle

>  <origin>  (17) 
adg

>  <m_score__min__energy>  (17) 
-6.5300000000000002

>  <m_primary>  (17) 
energy

$$$$
17:0
     RDKit          3D

 35 36  0  0  0  0  0  0  0  0999 V2000
  145.9970  153.3730  136.3400 N   0  0  0  0  0  0  0  0  0  0  0  0
  145.3010  154.1180  135.3440 C   0  0  0  0  0  0  0  0  0  0  0  0
  144.1040  153.8280  135.0810 O   0  0  0  0  0  0  0  0  0  0  0  0
  145.9540  155.2430  134.6410 C   0  0  0  0  0  0  0  0  0  0  0  0
  145.3800  156.5060  134.4950 C   0  0  0  0  0  0  0  0  0  0  0  0
  146.3230  157.2620  133.8330 C   0  0  0  0  0  0  0  0  0  0  0  0
  146.2770  158.5850  133.4030 C   0  0  0  0  0  0  0  0  0  0  0  0
  147.3880  159.0900  132.7080 C   0  0  0  0  0  0  0  0  0  0  0  0
  148.5220  158.2730  132.4640 C   0  0  0  0  0  0  0  0  0  0  0  0
  149.6850  158.8100  131.6790 C   0  0  0  0  0  0  0  0  0  0  0  0
  149.2450  159.9600  130.8320 C   0  0  0  0  0  0  0  0  0  0  0  0
  149.5850  161.1350  131.1330 O   0  0  0  0  0  0  0  0  0  0  0  0
  148.5040  159.7320  129.6790 O   0  0  0  0  0  0  0  0  0  0  0  0
  148.5280  156.9330  132.9070 C   0  0  0  0  0  0  0  0  0  0  0  0
  147.4110  156.4610  133.6020 C   0  0  0  0  0  0  0  0  0  0  0  0
  147.1980  155.2220  134.0890 N   0  0  0  0  0  0  0  0  0  0  0  0
  148.0830  154.1040  133.9460 C   0  0  0  0  0  0  0  0  0  0  0  0
  148.4770  153.4840  134.9700 O   0  0  0  0  0  0  0  0  0  0  0  0
  148.6410  153.7500  132.6020 C   0  0  0  0  0  0  0  0  0  0  0  0
  148.5750  152.2330  132.3850 C   0  0  0  0  0  0  0  0  0  0  0  0
  149.9520  151.5760  132.5090 C   0  0  0  0  0  0  0  0  0  0  0  0
  150.2630  150.4620  131.1500 Cl  0  0  0  0  0  0  0  0  0  0  0  0
  147.0060  153.5530  136.5390 H   0  0  0  0  0  0  0  0  0  0  0  0
  144.3856  156.8298  134.8360 H   0  0  0  0  0  0  0  0  0  0  0  0
  145.3977  159.2155  133.6014 H   0  0  0  0  0  0  0  0  0  0  0  0
  147.3789  160.1298  132.3491 H   0  0  0  0  0  0  0  0  0  0  0  0
  150.4679  159.1483  132.3737 H   0  0  0  0  0  0  0  0  0  0  0  0
  150.0794  158.0145  131.0297 H   0  0  0  0  0  0  0  0  0  0  0  0
  149.3891  156.2773  132.7105 H   0  0  0  0  0  0  0  0  0  0  0  0
  148.0544  154.2549  131.8204 H   0  0  0  0  0  0  0  0  0  0  0  0
  149.6908  154.0748  132.5519 H   0  0  0  0  0  0  0  0  0  0  0  0
  147.9034  151.7953  133.1383 H   0  0  0  0  0  0  0  0  0  0  0  0
  148.2021  152.0512  131.3662 H   0  0  0  0  0  0  0  0  0  0  0  0
  150.7239  152.3597  132.5139 H   0  0  0  0  0  0  0  0  0  0  0  0
  149.9783  150.9983  133.4447 H   0  0  0  0  0  0  0  0  0  0  0  0
  1  2  1  0
  2  3  2  0
  2  4  1  0
  4  5  2  0
  5  6  1  0
  6  7  2  0
  7  8  1  0
  8  9  2  0
  9 10  1  0
 10 11  1  0
 11 12  2  0
 11 13  1  0
  9 14  1  0
 14 15  2  0
 15 16  1  0
 16 17  1  0
 17 18  2  0
 17 19  1  0
 19 20  1  0
 20 21  1  0
 21 22  1  0
 16  4  1  0
 15  6  1  0
  1 23  1  0
  5 24  1  0
  7 25  1  0
  8 26  1  0
 10 27  1  0
 10 28  1  0
 14 29  1  0
 19 30  1  0
 19 31  1  0
 20 32  1  0
 20 33  1  0
 21 34  1  0
 21 35  1  0
M  CHG  2   1  -1  13  -1
M  END
>  <UniqueID>  (18) 
18

>  <SMILES>  (18) 
[NH-]C(=O)c1cc2ccc(CC(=O)[O-])cc2n1C(=O)CCCCl

>  <Energy>  (18) 
67.76478434803256

>  <Genealogy>  (18) 
[NH-]C(=O)c1cc2ccc(CC(=O)[O-])cc2n1C(=O)CCCCl (protonated)
[NH-]C(=O)c1cc2ccc(CC(=O)[O-])cc2n1C(=O)CCCCl (3D coordinates assigned)
[NH-]C(=O)c1cc2ccc(CC(=O)[O-])cc2n1C(=O)CCCCl (optimized conformer: 67.76478434803256 kcal/mol)

>  <smiles>  (18) 
NC(=O)c1cc2ccc(CC(=O)O)cc2n1C(=O)CCCCl

>  <score_type>  (18) 
oracle

>  <origin>  (18) 
adg

>  <m_score__min__energy>  (18) 
-7.3700000000000001

>  <m_primary>  (18) 
energy

$$$$
18:0
     RDKit          3D

 36 37  0  0  0  0  0  0  0  0999 V2000
  139.2130  149.5940  130.0510 C   0  0  0  0  0  0  0  0  0  0  0  0
  139.4840  150.5750  131.0270 O   0  0  0  0  0  0  0  0  0  0  0  0
  140.0180  149.9550  132.1770 C   0  0  0  0  0  0  0  0  0  0  0  0
  140.9840  150.9140  132.8720 C   0  0  0  0  0  0  0  0  0  0  0  0
  140.6300  152.3110  132.6070 N   0  0  0  0  0  0  0  0  0  0  0  0
  141.1990  153.4190  133.3290 C   0  0  0  0  0  0  0  0  0  0  0  0
  142.4570  153.3160  133.9840 C   0  0  0  0  0  0  0  0  0  0  0  0
  143.0000  154.4140  134.6730 C   0  0  0  0  0  0  0  0  0  0  0  0
  142.2660  155.5940  134.7020 C   0  0  0  0  0  0  0  0  0  0  0  0
  142.5680  156.8120  135.2690 C   0  0  0  0  0  0  0  0  0  0  0  0
  141.4840  157.6370  134.9740 C   0  0  0  0  0  0  0  0  0  0  0  0
  141.3680  159.0340  135.4440 C   0  0  0  0  0  0  0  0  0  0  0  0
  140.2690  159.4500  136.2490 N   0  0  0  0  0  0  0  0  0  0  0  0
  142.2700  159.8650  135.1560 O   0  0  0  0  0  0  0  0  0  0  0  0
  140.5500  156.9540  134.2530 N   0  0  0  0  0  0  0  0  0  0  0  0
  139.3290  157.4680  133.6980 C   0  0  0  0  0  0  0  0  0  0  0  0
  138.4090  157.8560  134.4650 O   0  0  0  0  0  0  0  0  0  0  0  0
  139.1130  157.4930  132.2160 C   0  0  0  0  0  0  0  0  0  0  0  0
  139.1180  159.3150  131.5570 Br  0  0  0  0  0  0  0  0  0  0  0  0
  141.0450  155.7080  134.0930 C   0  0  0  0  0  0  0  0  0  0  0  0
  140.4890  154.6390  133.3820 C   0  0  0  0  0  0  0  0  0  0  0  0
  138.9514  148.6470  130.5457 H   0  0  0  0  0  0  0  0  0  0  0  0
  138.3724  149.9240  129.4229 H   0  0  0  0  0  0  0  0  0  0  0  0
  140.1038  149.4457  129.4229 H   0  0  0  0  0  0  0  0  0  0  0  0
  139.2009  149.6948  132.8659 H   0  0  0  0  0  0  0  0  0  0  0  0
  140.5562  149.0415  131.8841 H   0  0  0  0  0  0  0  0  0  0  0  0
  140.9483  150.7349  133.9567 H   0  0  0  0  0  0  0  0  0  0  0  0
  141.9957  150.7319  132.4806 H   0  0  0  0  0  0  0  0  0  0  0  0
  139.9290  152.5210  131.8600 H   0  0  0  0  0  0  0  0  0  0  0  0
  143.0112  152.3664  133.9510 H   0  0  0  0  0  0  0  0  0  0  0  0
  143.9765  154.3417  135.1743 H   0  0  0  0  0  0  0  0  0  0  0  0
  143.4731  157.0776  135.8349 H   0  0  0  0  0  0  0  0  0  0  0  0
  139.2900  159.1860  136.0010 H   0  0  0  0  0  0  0  0  0  0  0  0
  139.9184  156.9283  131.7237 H   0  0  0  0  0  0  0  0  0  0  0  0
  138.1371  157.0375  131.9920 H   0  0  0  0  0  0  0  0  0  0  0  0
  139.5189  154.7464  132.8747 H   0  0  0  0  0  0  0  0  0  0  0  0
  1  2  1  0
  2  3  1  0
  3  4  1  0
  4  5  1  0
  5  6  1  0
  6  7  2  0
  7  8  1  0
  8  9  2  0
  9 10  1  0
 10 11  2  0
 11 12  1  0
 12 13  1  0
 12 14  2  0
 11 15  1  0
 15 16  1  0
 16 17  2  0
 16 18  1  0
 18 19  1  0
 15 20  1  0
 20 21  2  0
 21  6  1  0
 20  9  1  0
  1 22  1  0
  1 23  1  0
  1 24  1  0
  3 25  1  0
  3 26  1  0
  4 27  1  0
  4 28  1  0
  5 29  1  0
  7 30  1  0
  8 31  1  0
 10 32  1  0
 13 33  1  0
 18 34  1  0
 18 35  1  0
 21 36  1  0
M  CHG  1  13  -1
M  END
>  <UniqueID>  (19) 
19

>  <SMILES>  (19) 
COCCNc1ccc2cc(C([NH-])=O)n(C(=O)CBr)c2c1

>  <Energy>  (19) 
72.7067641158285

>  <Genealogy>  (19) 
COCCNc1ccc2cc(C([NH-])=O)n(C(=O)CBr)c2c1 (protonated)
COCCNc1ccc2cc(C([NH-])=O)n(C(=O)CBr)c2c1 (3D coordinates assigned)
COCCNc1ccc2cc(C([NH-])=O)n(C(=O)CBr)c2c1 (optimized conformer: 72.7067641158285 kcal/mol)

>  <smiles>  (19) 
COCCNc1ccc2cc(C(N)=O)n(C(=O)CBr)c2c1

>  <score_type>  (19) 
oracle

>  <origin>  (19) 
adg

>  <m_score__min__energy>  (19) 
-6.5300000000000002

>  <m_primary>  (19) 
energy

$$$$
19:0
     RDKit          3D

 36 37  0  0  0  0  0  0  0  0999 V2000
  139.4430  158.6160  132.0260 C   0  0  0  0  0  0  0  0  0  0  0  0
  140.1470  157.7590  132.7640 C   0  0  0  0  0  0  0  0  0  0  0  0
  139.7940  157.4380  134.1590 C   0  0  0  0  0  0  0  0  0  0  0  0
  138.7020  157.8320  134.6500 O   0  0  0  0  0  0  0  0  0  0  0  0
  140.6960  156.6700  134.9700 N   0  0  0  0  0  0  0  0  0  0  0  0
  141.2470  157.0220  136.1660 C   0  0  0  0  0  0  0  0  0  0  0  0
  140.9180  158.2320  136.9500 C   0  0  0  0  0  0  0  0  0  0  0  0
  140.2660  159.3450  136.3440 N   0  0  0  0  0  0  0  0  0  0  0  0
  141.1870  158.2700  138.1800 O   0  0  0  0  0  0  0  0  0  0  0  0
  142.1420  156.0450  136.5970 C   0  0  0  0  0  0  0  0  0  0  0  0
  142.1220  155.0750  135.6200 C   0  0  0  0  0  0  0  0  0  0  0  0
  142.8410  153.8860  135.5240 C   0  0  0  0  0  0  0  0  0  0  0  0
  142.6490  153.0930  134.3800 C   0  0  0  0  0  0  0  0  0  0  0  0
  141.7560  153.5000  133.3550 C   0  0  0  0  0  0  0  0  0  0  0  0
  141.5930  152.6910  132.1720 N   0  0  0  0  0  0  0  0  0  0  0  0
  141.7460  151.2560  132.4690 C   0  0  0  0  0  0  0  0  0  0  0  0
  140.4120  150.4990  132.3830 C   0  0  0  0  0  0  0  0  0  0  0  0
  139.3080  151.4420  132.2300 N   0  0  0  0  0  0  0  0  0  0  0  0
  141.0470  154.7170  133.4910 C   0  0  0  0  0  0  0  0  0  0  0  0
  141.2440  155.4760  134.6490 C   0  0  0  0  0  0  0  0  0  0  0  0
  139.7439  158.8250  130.9888 H   0  0  0  0  0  0  0  0  0  0  0  0
  138.5608  159.1146  132.4538 H   0  0  0  0  0  0  0  0  0  0  0  0
  141.0255  157.2722  132.3153 H   0  0  0  0  0  0  0  0  0  0  0  0
  139.2390  159.3250  136.1500 H   0  0  0  0  0  0  0  0  0  0  0  0
  142.7380  156.0480  137.5215 H   0  0  0  0  0  0  0  0  0  0  0  0
  143.5368  153.5777  136.3182 H   0  0  0  0  0  0  0  0  0  0  0  0
  143.1976  152.1451  134.2777 H   0  0  0  0  0  0  0  0  0  0  0  0
  140.6330  152.8500  131.7850 H   0  0  0  0  0  0  0  0  0  0  0  0
  142.2740  152.9780  131.4300 H   0  0  0  0  0  0  0  0  0  0  0  0
  142.4491  150.8177  131.7454 H   0  0  0  0  0  0  0  0  0  0  0  0
  142.1208  151.1629  133.4990 H   0  0  0  0  0  0  0  0  0  0  0  0
  140.4338  149.8210  131.5171 H   0  0  0  0  0  0  0  0  0  0  0  0
  140.2660  149.9213  133.3076 H   0  0  0  0  0  0  0  0  0  0  0  0
  138.4620  151.0160  132.6730 H   0  0  0  0  0  0  0  0  0  0  0  0
  139.0940  151.5330  131.2100 H   0  0  0  0  0  0  0  0  0  0  0  0
  140.3574  155.0579  132.7047 H   0  0  0  0  0  0  0  0  0  0  0  0
  1  2  2  0
  2  3  1  0
  3  4  2  0
  3  5  1  0
  5  6  1  0
  6  7  1  0
  7  8  1  0
  7  9  2  0
  6 10  2  0
 10 11  1  0
 11 12  2  0
 12 13  1  0
 13 14  2  0
 14 15  1  0
 15 16  1  0
 16 17  1  0
 17 18  1  0
 14 19  1  0
 19 20  2  0
 20  5  1  0
 20 11  1  0
  1 21  1  0
  1 22  1  0
  2 23  1  0
  8 24  1  0
 10 25  1  0
 12 26  1  0
 13 27  1  0
 15 28  1  0
 15 29  1  0
 16 30  1  0
 16 31  1  0
 17 32  1  0
 17 33  1  0
 18 34  1  0
 18 35  1  0
 19 36  1  0
M  CHG  2   8  -1  15   1
M  END
>  <UniqueID>  (20) 
20

>  <SMILES>  (20) 
C=CC(=O)n1c(C([NH-])=O)cc2ccc([NH2+]CCN)cc21

>  <Energy>  (20) 
72.36919915593283

>  <Genealogy>  (20) 
C=CC(=O)n1c(C([NH-])=O)cc2ccc([NH2+]CCN)cc21 (protonated)
C=CC(=O)n1c(C([NH-])=O)cc2ccc([NH2+]CCN)cc21 (3D coordinates assigned)
C=CC(=O)n1c(C([NH-])=O)cc2ccc([NH2+]CCN)cc21 (optimized conformer: 72.36919915593283 kcal/mol)

>  <smiles>  (20) 
C=CC(=O)n1c(C(N)=O)cc2ccc(NCCN)cc21

>  <score_type>  (20) 
oracle

>  <origin>  (20) 
adg

>  <m_score__min__energy>  (20) 
-6.7699999999999996

>  <m_primary>  (20) 
energy

$$$$
20:0
     RDKit          3D

 39 41  0  0  0  0  0  0  0  0999 V2000
  142.2720  153.3320  132.1830 N   0  0  0  0  0  0  0  0  0  0  0  0
  142.2950  154.3430  133.1910 C   0  0  0  0  0  0  0  0  0  0  0  0
  141.3930  154.3540  134.0700 O   0  0  0  0  0  0  0  0  0  0  0  0
  143.3400  155.3910  133.1850 C   0  0  0  0  0  0  0  0  0  0  0  0
  143.0700  156.7570  133.2450 C   0  0  0  0  0  0  0  0  0  0  0  0
  144.2990  157.3690  133.3170 C   0  0  0  0  0  0  0  0  0  0  0  0
  144.6210  158.7220  133.3790 C   0  0  0  0  0  0  0  0  0  0  0  0
  145.9800  159.0750  133.4150 C   0  0  0  0  0  0  0  0  0  0  0  0
  146.9890  158.0770  133.3990 C   0  0  0  0  0  0  0  0  0  0  0  0
  148.4450  158.4720  133.3740 C   0  0  0  0  0  0  0  0  0  0  0  0
  149.2110  157.4730  132.7990 F   0  0  0  0  0  0  0  0  0  0  0  0
  148.5890  159.6320  132.6350 F   0  0  0  0  0  0  0  0  0  0  0  0
  148.9150  158.6920  134.6560 F   0  0  0  0  0  0  0  0  0  0  0  0
  146.6210  156.7160  133.3120 C   0  0  0  0  0  0  0  0  0  0  0  0
  145.2590  156.3910  133.2970 C   0  0  0  0  0  0  0  0  0  0  0  0
  144.6860  155.1700  133.2150 N   0  0  0  0  0  0  0  0  0  0  0  0
  145.3710  153.9100  133.1230 C   0  0  0  0  0  0  0  0  0  0  0  0
  145.0580  153.0880  132.2180 O   0  0  0  0  0  0  0  0  0  0  0  0
  146.3930  153.6090  134.0320 O   0  0  0  0  0  0  0  0  0  0  0  0
  147.7870  153.7370  133.7450 C   0  0  0  0  0  0  0  0  0  0  0  0
  148.3200  152.5490  132.9120 C   0  0  0  0  0  0  0  0  0  0  0  0
  147.2610  151.7250  132.3280 N   0  0  0  0  0  0  0  0  0  0  0  0
  149.4040  152.8860  131.9070 C   0  0  0  0  0  0  0  0  0  0  0  0
  150.3580  152.0880  132.5710 O   0  0  0  0  0  0  0  0  0  0  0  0
  149.4120  151.7110  133.5460 C   0  0  0  0  0  0  0  0  0  0  0  0
  143.0300  153.2570  131.4710 H   0  0  0  0  0  0  0  0  0  0  0  0
  141.5070  152.6210  132.1740 H   0  0  0  0  0  0  0  0  0  0  0  0
  142.0830  157.2425  133.2365 H   0  0  0  0  0  0  0  0  0  0  0  0
  143.8350  159.4912  133.3992 H   0  0  0  0  0  0  0  0  0  0  0  0
  146.2654  160.1365  133.4560 H   0  0  0  0  0  0  0  0  0  0  0  0
  147.3874  155.9288  133.2572 H   0  0  0  0  0  0  0  0  0  0  0  0
  147.9491  154.6671  133.1806 H   0  0  0  0  0  0  0  0  0  0  0  0
  148.3301  153.7511  134.7015 H   0  0  0  0  0  0  0  0  0  0  0  0
  146.4770  151.6580  133.0170 H   0  0  0  0  0  0  0  0  0  0  0  0
  146.8890  152.2140  131.4820 H   0  0  0  0  0  0  0  0  0  0  0  0
  149.1784  152.5424  130.8867 H   0  0  0  0  0  0  0  0  0  0  0  0
  149.6377  153.9425  131.7090 H   0  0  0  0  0  0  0  0  0  0  0  0
  149.1916  150.6333  133.5496 H   0  0  0  0  0  0  0  0  0  0  0  0
  149.6520  151.8640  134.6085 H   0  0  0  0  0  0  0  0  0  0  0  0
  1  2  1  0
  2  3  2  0
  2  4  1  0
  4  5  2  0
  5  6  1  0
  6  7  2  0
  7  8  1  0
  8  9  2  0
  9 10  1  0
 10 11  1  0
 10 12  1  0
 10 13  1  0
  9 14  1  0
 14 15  2  0
 15 16  1  0
 16 17  1  0
 17 18  2  0
 17 19  1  0
 19 20  1  0
 20 21  1  0
 21 22  1  0
 21 23  1  0
 23 24  1  0
 24 25  1  0
 16  4  1  0
 25 21  1  0
 15  6  1  0
  1 26  1  0
  1 27  1  0
  5 28  1  0
  7 29  1  0
  8 30  1  0
 14 31  1  0
 20 32  1  0
 20 33  1  0
 22 34  1  0
 22 35  1  0
 23 36  1  0
 23 37  1  0
 25 38  1  0
 25 39  1  0
M  END
>  <UniqueID>  (21) 
21

>  <SMILES>  (21) 
NC(=O)c1cc2ccc(C(F)(F)F)cc2n1C(=O)OCC1(N)COC1

>  <Energy>  (21) 
143.6547576340128

>  <Genealogy>  (21) 
NC(=O)c1cc2ccc(C(F)(F)F)cc2n1C(=O)OCC1(N)COC1 (3D coordinates assigned)
NC(=O)c1cc2ccc(C(F)(F)F)cc2n1C(=O)OCC1(N)COC1 (nonaromatic ring conformer: 143.6547576340128 kcal/mol)

>  <smiles>  (21) 
NC(=O)c1cc2ccc(C(F)(F)F)cc2n1C(=O)OCC1(N)COC1

>  <score_type>  (21) 
oracle

>  <origin>  (21) 
adg

>  <m_score__min__energy>  (21) 
-7.2400000000000002

>  <m_primary>  (21) 
energy

$$$$
21:0
     RDKit          3D

 49 51  0  0  0  0  0  0  0  0999 V2000
  148.2110  153.7190  137.2730 C   0  0  0  0  0  0  0  0  0  0  0  0
  146.9440  153.3190  136.7680 O   0  0  0  0  0  0  0  0  0  0  0  0
  146.1980  154.1140  135.8920 C   0  0  0  0  0  0  0  0  0  0  0  0
  145.0510  154.5260  136.2150 O   0  0  0  0  0  0  0  0  0  0  0  0
  146.7890  154.5210  134.5810 C   0  0  0  0  0  0  0  0  0  0  0  0
  146.0290  155.5830  134.0100 O   0  0  0  0  0  0  0  0  0  0  0  0
  146.5620  156.5120  133.1070 C   0  0  0  0  0  0  0  0  0  0  0  0
  147.3280  156.1330  132.1800 O   0  0  0  0  0  0  0  0  0  0  0  0
  146.2120  157.8990  133.2250 N   0  0  0  0  0  0  0  0  0  0  0  0
  147.0000  158.9860  132.9890 C   0  0  0  0  0  0  0  0  0  0  0  0
  148.4490  158.9630  132.7040 C   0  0  0  0  0  0  0  0  0  0  0  0
  148.9480  158.4370  131.4760 N   0  0  0  0  0  0  0  0  0  0  0  0
  149.2630  159.3690  133.5760 O   0  0  0  0  0  0  0  0  0  0  0  0
  146.2670  160.1620  133.1400 C   0  0  0  0  0  0  0  0  0  0  0  0
  144.9980  159.7580  133.4920 C   0  0  0  0  0  0  0  0  0  0  0  0
  143.8600  160.5120  133.7610 C   0  0  0  0  0  0  0  0  0  0  0  0
  142.6760  159.8270  134.0800 C   0  0  0  0  0  0  0  0  0  0  0  0
  142.6490  158.4100  134.1270 C   0  0  0  0  0  0  0  0  0  0  0  0
  141.3610  157.6890  134.4460 C   0  0  0  0  0  0  0  0  0  0  0  0
  141.3760  157.0940  135.8470 C   0  0  0  0  0  0  0  0  0  0  0  0
  141.7260  155.7310  136.0490 C   0  0  0  0  0  0  0  0  0  0  0  0
  142.1100  154.8250  134.9050 C   0  0  0  0  0  0  0  0  0  0  0  0
  141.6870  155.1930  137.3430 C   0  0  0  0  0  0  0  0  0  0  0  0
  141.3210  155.9960  138.4180 C   0  0  0  0  0  0  0  0  0  0  0  0
  140.9980  157.2960  138.2150 N   0  0  0  0  0  0  0  0  0  0  0  0
  141.0090  157.8680  136.9820 C   0  0  0  0  0  0  0  0  0  0  0  0
  140.6460  159.3230  136.8850 C   0  0  0  0  0  0  0  0  0  0  0  0
  143.8220  157.6800  133.8270 C   0  0  0  0  0  0  0  0  0  0  0  0
  144.9920  158.3890  133.5350 C   0  0  0  0  0  0  0  0  0  0  0  0
  148.1865  153.7113  138.3727 H   0  0  0  0  0  0  0  0  0  0  0  0
  148.9839  153.0212  136.9186 H   0  0  0  0  0  0  0  0  0  0  0  0
  148.4431  154.7341  136.9186 H   0  0  0  0  0  0  0  0  0  0  0  0
  147.8244  154.8578  134.7375 H   0  0  0  0  0  0  0  0  0  0  0  0
  146.7750  153.6598  133.8968 H   0  0  0  0  0  0  0  0  0  0  0  0
  148.6780  157.4810  131.1520 H   0  0  0  0  0  0  0  0  0  0  0  0
  146.6256  161.1933  133.0065 H   0  0  0  0  0  0  0  0  0  0  0  0
  143.8868  161.6111  133.7249 H   0  0  0  0  0  0  0  0  0  0  0  0
  141.7596  160.3960  134.2957 H   0  0  0  0  0  0  0  0  0  0  0  0
  140.5265  158.4017  134.3712 H   0  0  0  0  0  0  0  0  0  0  0  0
  141.2442  156.8650  133.7267 H   0  0  0  0  0  0  0  0  0  0  0  0
  142.5101  153.8809  135.3033 H   0  0  0  0  0  0  0  0  0  0  0  0
  141.2230  154.6163  134.2889 H   0  0  0  0  0  0  0  0  0  0  0  0
  142.8768  155.3173  134.2889 H   0  0  0  0  0  0  0  0  0  0  0  0
  141.9456  154.1366  137.5080 H   0  0  0  0  0  0  0  0  0  0  0  0
  141.2938  155.5752  139.4340 H   0  0  0  0  0  0  0  0  0  0  0  0
  140.5412  159.7430  137.8963 H   0  0  0  0  0  0  0  0  0  0  0  0
  141.4370  159.8630  136.3439 H   0  0  0  0  0  0  0  0  0  0  0  0
  139.6941  159.4281  136.3439 H   0  0  0  0  0  0  0  0  0  0  0  0
  143.8148  156.5800  133.8233 H   0  0  0  0  0  0  0  0  0  0  0  0
  1  2  1  0
  2  3  1  0
  3  4  2  0
  3  5  1  0
  5  6  1  0
  6  7  1  0
  7  8  2  0
  7  9  1  0
  9 10  1  0
 10 11  1  0
 11 12  1  0
 11 13  2  0
 10 14  2  0
 14 15  1  0
 15 16  2  0
 16 17  1  0
 17 18  2  0
 18 19  1  0
 19 20  1  0
 20 21  2  0
 21 22  1  0
 21 23  1  0
 23 24  2  0
 24 25  1  0
 25 26  2  0
 26 27  1  0
 18 28  1  0
 28 29  2  0
 29  9  1  0
 29 15  1  0
 26 20  1  0
  1 30  1  0
  1 31  1  0
  1 32  1  0
  5 33  1  0
  5 34  1  0
 12 35  1  0
 14 36  1  0
 16 37  1  0
 17 38  1  0
 19 39  1  0
 19 40  1  0
 22 41  1  0
 22 42  1  0
 22 43  1  0
 23 44  1  0
 24 45  1  0
 27 46  1  0
 27 47  1  0
 27 48  1  0
 28 49  1  0
M  CHG  1  12  -1
M  END
>  <UniqueID>  (22) 
22

>  <SMILES>  (22) 
COC(=O)COC(=O)n1c(C([NH-])=O)cc2ccc(Cc3c(C)ccnc3C)cc21

>  <Energy>  (22) 
87.17363669193635

>  <Genealogy>  (22) 
COC(=O)COC(=O)n1c(C([NH-])=O)cc2ccc(Cc3c(C)ccnc3C)cc21 (protonated)
COC(=O)COC(=O)n1c(C([NH-])=O)cc2ccc(Cc3c(C)ccnc3C)cc21 (3D coordinates assigned)
COC(=O)COC(=O)n1c(C([NH-])=O)cc2ccc(Cc3c(C)ccnc3C)cc21 (optimized conformer: 87.17363669193635 kcal/mol)

>  <smiles>  (22) 
COC(=O)COC(=O)n1c(C(N)=O)cc2ccc(Cc3c(C)ccnc3C)cc21

>  <score_type>  (22) 
oracle

>  <origin>  (22) 
adg

>  <m_score__min__energy>  (22) 
-7.3499999999999996

>  <m_primary>  (22) 
energy

$$$$
22:0
     RDKit          3D

 36 38  0  0  0  0  0  0  0  0999 V2000
  149.5490  157.4780  132.1560 N   0  0  0  0  0  0  0  0  0  0  0  0
  149.0310  158.7730  132.4730 C   0  0  0  0  0  0  0  0  0  0  0  0
  149.7530  159.7920  132.2540 O   0  0  0  0  0  0  0  0  0  0  0  0
  147.6300  158.9700  132.9300 C   0  0  0  0  0  0  0  0  0  0  0  0
  147.0440  160.2340  132.9730 C   0  0  0  0  0  0  0  0  0  0  0  0
  145.7680  160.0350  133.4350 C   0  0  0  0  0  0  0  0  0  0  0  0
  144.7440  160.9520  133.6310 C   0  0  0  0  0  0  0  0  0  0  0  0
  143.5100  160.4760  134.1070 C   0  0  0  0  0  0  0  0  0  0  0  0
  143.3150  159.0940  134.3640 C   0  0  0  0  0  0  0  0  0  0  0  0
  142.0220  158.6120  134.9150 C   0  0  0  0  0  0  0  0  0  0  0  0
  141.7340  158.7410  136.2840 C   0  0  0  0  0  0  0  0  0  0  0  0
  140.5180  158.3660  136.7670 N   0  0  0  0  0  0  0  0  0  0  0  0
  139.5570  157.8460  135.9580 C   0  0  0  0  0  0  0  0  0  0  0  0
  139.8010  157.6800  134.5970 C   0  0  0  0  0  0  0  0  0  0  0  0
  138.8370  157.1820  133.7840 F   0  0  0  0  0  0  0  0  0  0  0  0
  141.0370  158.0660  134.0750 C   0  0  0  0  0  0  0  0  0  0  0  0
  144.3730  158.1890  134.1080 C   0  0  0  0  0  0  0  0  0  0  0  0
  145.6090  158.6870  133.6710 C   0  0  0  0  0  0  0  0  0  0  0  0
  146.7490  158.0110  133.3700 N   0  0  0  0  0  0  0  0  0  0  0  0
  146.9620  156.5870  133.4960 C   0  0  0  0  0  0  0  0  0  0  0  0
  146.9400  155.8560  132.4650 O   0  0  0  0  0  0  0  0  0  0  0  0
  147.1160  155.9310  134.8520 C   0  0  0  0  0  0  0  0  0  0  0  0
  145.9630  154.5300  135.1060 P   0  0  0  0  0  0  0  0  0  0  0  0
  145.7930  153.7430  133.8300 O   0  0  0  0  0  0  0  0  0  0  0  0
  144.4550  155.1040  135.6150 O   0  0  0  0  0  0  0  0  0  0  0  0
  146.5840  153.5280  136.3230 O   0  0  0  0  0  0  0  0  0  0  0  0
  148.9100  156.7020  131.8610 H   0  0  0  0  0  0  0  0  0  0  0  0
  147.5082  161.1916  132.6945 H   0  0  0  0  0  0  0  0  0  0  0  0
  144.8942  162.0210  133.4197 H   0  0  0  0  0  0  0  0  0  0  0  0
  142.6858  161.1830  134.2823 H   0  0  0  0  0  0  0  0  0  0  0  0
  142.4940  159.1465  136.9680 H   0  0  0  0  0  0  0  0  0  0  0  0
  138.5836  157.5554  136.3798 H   0  0  0  0  0  0  0  0  0  0  0  0
  141.2406  157.9421  133.0011 H   0  0  0  0  0  0  0  0  0  0  0  0
  144.2274  157.1080  134.2502 H   0  0  0  0  0  0  0  0  0  0  0  0
  148.1466  155.5580  134.9457 H   0  0  0  0  0  0  0  0  0  0  0  0
  146.8828  156.6905  135.6128 H   0  0  0  0  0  0  0  0  0  0  0  0
  1  2  1  0
  2  3  2  0
  2  4  1  0
  4  5  2  0
  5  6  1  0
  6  7  2  0
  7  8  1  0
  8  9  2  0
  9 10  1  0
 10 11  2  0
 11 12  1  0
 12 13  2  0
 13 14  1  0
 14 15  1  0
 14 16  2  0
  9 17  1  0
 17 18  2  0
 18 19  1  0
 19 20  1  0
 20 21  2  0
 20 22  1  0
 22 23  1  0
 23 24  2  0
 23 25  1  0
 23 26  1  0
 19  4  1  0
 18  6  1  0
 16 10  1  0
  1 27  1  0
  5 28  1  0
  7 29  1  0
  8 30  1  0
 11 31  1  0
 13 32  1  0
 16 33  1  0
 17 34  1  0
 22 35  1  0
 22 36  1  0
M  CHG  3   1  -1  25  -1  26  -1
M  END
>  <UniqueID>  (23) 
23

>  <SMILES>  (23) 
[NH-]C(=O)c1cc2ccc(-c3cncc(F)c3)cc2n1C(=O)CP(=O)([O-])[O-]

>  <Energy>  (23) 
85.36257846234712

>  <Genealogy>  (23) 
[NH-]C(=O)c1cc2ccc(-c3cncc(F)c3)cc2n1C(=O)CP(=O)([O-])[O-] (protonated)
[NH-]C(=O)c1cc2ccc(-c3cncc(F)c3)cc2n1C(=O)CP(=O)([O-])[O-] (3D coordinates assigned)
[NH-]C(=O)c1cc2ccc(-c3cncc(F)c3)cc2n1C(=O)CP(=O)([O-])[O-] (optimized conformer: 85.36257846234712 kcal/mol)

>  <smiles>  (23) 
NC(=O)c1cc2ccc(-c3cncc(F)c3)cc2n1C(=O)CP(=O)(O)O

>  <score_type>  (23) 
oracle

>  <origin>  (23) 
adg

>  <m_score__min__energy>  (23) 
-7.3200000000000003

>  <m_primary>  (23) 
energy

$$$$
23:0
     RDKit          3D

 31 32  0  0  0  0  0  0  0  0999 V2000
  139.1070  156.2790  132.6020 N   0  0  0  0  0  0  0  0  0  0  0  0
  140.4130  155.8980  133.0350 C   0  0  0  0  0  0  0  0  0  0  0  0
  140.6820  154.6770  133.1870 O   0  0  0  0  0  0  0  0  0  0  0  0
  141.4670  156.9060  133.2510 C   0  0  0  0  0  0  0  0  0  0  0  0
  142.8280  156.6070  133.2580 C   0  0  0  0  0  0  0  0  0  0  0  0
  143.4650  157.8170  133.4160 C   0  0  0  0  0  0  0  0  0  0  0  0
  144.8230  158.1130  133.4950 C   0  0  0  0  0  0  0  0  0  0  0  0
  145.1950  159.4550  133.6850 C   0  0  0  0  0  0  0  0  0  0  0  0
  144.2090  160.4660  133.8110 C   0  0  0  0  0  0  0  0  0  0  0  0
  144.6200  161.8970  133.9870 C   0  0  0  0  0  0  0  0  0  0  0  0
  145.9890  161.9650  134.1680 F   0  0  0  0  0  0  0  0  0  0  0  0
  142.8410  160.1300  133.7120 C   0  0  0  0  0  0  0  0  0  0  0  0
  142.5010  158.7890  133.5060 C   0  0  0  0  0  0  0  0  0  0  0  0
  141.2690  158.2450  133.4110 N   0  0  0  0  0  0  0  0  0  0  0  0
  140.0260  158.9430  133.5870 C   0  0  0  0  0  0  0  0  0  0  0  0
  139.2360  158.5790  134.5010 O   0  0  0  0  0  0  0  0  0  0  0  0
  139.5960  159.9830  132.5870 C   0  0  0  0  0  0  0  0  0  0  0  0
  138.3350  159.3530  131.4300 P   0  0  0  0  0  0  0  0  0  0  0  0
  137.2520  158.6460  132.2110 O   0  0  0  0  0  0  0  0  0  0  0  0
  139.0330  158.2670  130.3380 O   0  0  0  0  0  0  0  0  0  0  0  0
  137.6500  160.6430  130.5760 O   0  0  0  0  0  0  0  0  0  0  0  0
  138.9090  157.2530  132.2840 H   0  0  0  0  0  0  0  0  0  0  0  0
  138.3560  155.5600  132.5070 H   0  0  0  0  0  0  0  0  0  0  0  0
  143.2939  155.6155  133.1585 H   0  0  0  0  0  0  0  0  0  0  0  0
  145.5816  157.3209  133.4113 H   0  0  0  0  0  0  0  0  0  0  0  0
  146.2605  159.7233  133.7364 H   0  0  0  0  0  0  0  0  0  0  0  0
  144.3396  162.4716  133.0919 H   0  0  0  0  0  0  0  0  0  0  0  0
  144.1126  162.3183  134.8674 H   0  0  0  0  0  0  0  0  0  0  0  0
  142.0628  160.9030  133.7948 H   0  0  0  0  0  0  0  0  0  0  0  0
  139.1791  160.8442  133.1297 H   0  0  0  0  0  0  0  0  0  0  0  0
  140.4800  160.2684  131.9978 H   0  0  0  0  0  0  0  0  0  0  0  0
  1  2  1  0
  2  3  2  0
  2  4  1  0
  4  5  2  0
  5  6  1  0
  6  7  2  0
  7  8  1  0
  8  9  2  0
  9 10  1  0
 10 11  1  0
  9 12  1  0
 12 13  2  0
 13 14  1  0
 14 15  1  0
 15 16  2  0
 15 17  1  0
 17 18  1  0
 18 19  2  0
 18 20  1  0
 18 21  1  0
 14  4  1  0
 13  6  1  0
  1 22  1  0
  1 23  1  0
  5 24  1  0
  7 25  1  0
  8 26  1  0
 10 27  1  0
 10 28  1  0
 12 29  1  0
 17 30  1  0
 17 31  1  0
M  CHG  2  20  -1  21  -1
M  END
>  <UniqueID>  (24) 
24

>  <SMILES>  (24) 
NC(=O)c1cc2ccc(CF)cc2n1C(=O)CP(=O)([O-])[O-]

>  <Energy>  (24) 
67.71636494603732

>  <Genealogy>  (24) 
NC(=O)c1cc2ccc(CF)cc2n1C(=O)CP(=O)([O-])[O-] (protonated)
NC(=O)c1cc2ccc(CF)cc2n1C(=O)CP(=O)([O-])[O-] (3D coordinates assigned)
NC(=O)c1cc2ccc(CF)cc2n1C(=O)CP(=O)([O-])[O-] (optimized conformer: 67.71636494603732 kcal/mol)

>  <smiles>  (24) 
NC(=O)c1cc2ccc(CF)cc2n1C(=O)CP(=O)(O)O

>  <score_type>  (24) 
oracle

>  <origin>  (24) 
adg

>  <m_score__min__energy>  (24) 
-5.9699999999999998

>  <m_primary>  (24) 
energy

$$$$
24:0
     RDKit          3D

 41 43  0  0  0  0  0  0  0  0999 V2000
  149.9960  153.4090  132.2370 C   0  0  0  0  0  0  0  0  0  0  0  0
  148.7460  152.8840  132.9500 C   0  0  1  0  0  0  0  0  0  0  0  0
  147.7220  153.8790  132.8620 O   0  0  0  0  0  0  0  0  0  0  0  0
  147.3870  154.7490  133.9080 C   0  0  0  0  0  0  0  0  0  0  0  0
  148.1060  154.8120  134.9430 O   0  0  0  0  0  0  0  0  0  0  0  0
  146.2490  155.6150  133.7770 N   0  0  0  0  0  0  0  0  0  0  0  0
  144.9350  155.2610  133.7370 C   0  0  0  0  0  0  0  0  0  0  0  0
  144.3910  153.9200  134.0270 C   0  0  0  0  0  0  0  0  0  0  0  0
  145.0640  152.7490  133.5770 N   0  0  0  0  0  0  0  0  0  0  0  0
  143.3500  153.8060  134.7270 O   0  0  0  0  0  0  0  0  0  0  0  0
  144.1360  156.3710  133.4720 C   0  0  0  0  0  0  0  0  0  0  0  0
  145.0090  157.4280  133.3560 C   0  0  0  0  0  0  0  0  0  0  0  0
  144.7580  158.7720  133.0910 C   0  0  0  0  0  0  0  0  0  0  0  0
  145.8580  159.6420  132.9990 C   0  0  0  0  0  0  0  0  0  0  0  0
  147.1780  159.1520  133.1580 C   0  0  0  0  0  0  0  0  0  0  0  0
  148.3430  160.0950  133.0830 C   0  0  0  0  0  0  0  0  0  0  0  0
  149.1380  160.1070  131.1010 I   0  0  0  0  0  0  0  0  0  0  0  0
  147.3940  157.7860  133.4390 C   0  0  0  0  0  0  0  0  0  0  0  0
  146.2790  156.9460  133.5420 C   0  0  0  0  0  0  0  0  0  0  0  0
  148.2090  151.5190  132.4320 C   0  0  0  0  0  0  0  0  0  0  0  0
  146.7690  151.4450  132.1480 N   0  0  0  0  0  0  0  0  0  0  0  0
  148.8750  150.1930  132.8100 C   0  0  0  0  0  0  0  0  0  0  0  0
  149.0680  150.7750  131.4130 C   0  0  0  0  0  0  0  0  0  0  0  0
  150.7403  153.7216  132.9842 H   0  0  0  0  0  0  0  0  0  0  0  0
  150.4205  152.6131  131.6074 H   0  0  0  0  0  0  0  0  0  0  0  0
  149.7249  154.2693  131.6074 H   0  0  0  0  0  0  0  0  0  0  0  0
  149.0427  152.6893  133.9912 H   0  0  0  0  0  0  0  0  0  0  0  0
  146.0980  152.6500  133.6880 H   0  0  0  0  0  0  0  0  0  0  0  0
  143.0405  156.3969  133.3760 H   0  0  0  0  0  0  0  0  0  0  0  0
  143.7304  159.1413  132.9578 H   0  0  0  0  0  0  0  0  0  0  0  0
  145.6929  160.7116  132.8020 H   0  0  0  0  0  0  0  0  0  0  0  0
  148.0097  161.1090  133.3488 H   0  0  0  0  0  0  0  0  0  0  0  0
  149.1229  159.7651  133.7850 H   0  0  0  0  0  0  0  0  0  0  0  0
  148.4120  157.3916  133.5736 H   0  0  0  0  0  0  0  0  0  0  0  0
  146.6080  150.7840  131.3550 H   0  0  0  0  0  0  0  0  0  0  0  0
  146.2170  151.1110  132.9720 H   0  0  0  0  0  0  0  0  0  0  0  0
  146.4210  152.3930  131.8820 H   0  0  0  0  0  0  0  0  0  0  0  0
  149.7134  150.1816  133.5220 H   0  0  0  0  0  0  0  0  0  0  0  0
  148.5222  149.2312  133.2106 H   0  0  0  0  0  0  0  0  0  0  0  0
  150.0464  151.1819  131.1177 H   0  0  0  0  0  0  0  0  0  0  0  0
  148.9121  150.4044  130.3891 H   0  0  0  0  0  0  0  0  0  0  0  0
  1  2  1  0
  2  3  1  0
  3  4  1  0
  4  5  2  0
  4  6  1  0
  6  7  1  0
  7  8  1  0
  8  9  1  0
  8 10  2  0
  7 11  2  0
 11 12  1  0
 12 13  2  0
 13 14  1  0
 14 15  2  0
 15 16  1  0
 16 17  1  0
 15 18  1  0
 18 19  2  0
  2 20  1  0
 20 21  1  0
 20 22  1  0
 22 23  1  0
 19  6  1  0
 23 20  1  0
 19 12  1  0
  1 24  1  0
  1 25  1  0
  1 26  1  0
  2 27  1  1
  9 28  1  0
 11 29  1  0
 13 30  1  0
 14 31  1  0
 16 32  1  0
 16 33  1  0
 18 34  1  0
 21 35  1  0
 21 36  1  0
 21 37  1  0
 22 38  1  0
 22 39  1  0
 23 40  1  0
 23 41  1  0
M  CHG  2   9  -1  21   1
M  END
>  <UniqueID>  (25) 
25

>  <SMILES>  (25) 
C[C@@H](OC(=O)n1c(C([NH-])=O)cc2ccc(CI)cc21)C1([NH3+])CC1

>  <Energy>  (25) 
348.93982289266

>  <Genealogy>  (25) 
CC(OC(=O)n1c(C([NH-])=O)cc2ccc(CI)cc21)C1([NH3+])CC1 (protonated)
C[C@@H](OC(=O)n1c(C([NH-])=O)cc2ccc(CI)cc21)C1([NH3+])CC1 (chirality)
C[C@@H](OC(=O)n1c(C([NH-])=O)cc2ccc(CI)cc21)C1([NH3+])CC1 (3D coordinates assigned)
C[C@@H](OC(=O)n1c(C([NH-])=O)cc2ccc(CI)cc21)C1([NH3+])CC1 (nonaromatic ring conformer: 348.93982289266 kcal/mol)

>  <smiles>  (25) 
CC(OC(=O)n1c(C(N)=O)cc2ccc(CI)cc21)C1(N)CC1

>  <score_type>  (25) 
oracle

>  <origin>  (25) 
adg

>  <m_score__min__energy>  (25) 
-7.4900000000000002

>  <m_primary>  (25) 
energy

$$$$
25:0
     RDKit          3D

 36 38  0  0  0  0  0  0  0  0999 V2000
  141.5100  155.0590  133.3650 N   0  0  0  0  0  0  0  0  0  0  0  0
  141.1220  156.3570  133.8110 C   0  0  0  0  0  0  0  0  0  0  0  0
  139.9570  156.5350  134.2540 O   0  0  0  0  0  0  0  0  0  0  0  0
  142.0910  157.4710  133.7690 C   0  0  0  0  0  0  0  0  0  0  0  0
  141.7510  158.8100  133.9630 C   0  0  0  0  0  0  0  0  0  0  0  0
  142.9290  159.5100  133.8090 C   0  0  0  0  0  0  0  0  0  0  0  0
  143.1900  160.8720  133.9300 C   0  0  0  0  0  0  0  0  0  0  0  0
  144.5170  161.3060  133.7640 C   0  0  0  0  0  0  0  0  0  0  0  0
  145.5490  160.3790  133.4720 C   0  0  0  0  0  0  0  0  0  0  0  0
  146.9750  160.8390  133.3650 C   0  0  0  0  0  0  0  0  0  0  0  0
  147.8480  159.6940  133.1370 N   0  0  0  0  0  0  0  0  0  0  0  0
  148.4370  159.3490  131.9770 C   0  0  0  0  0  0  0  0  0  0  0  0
  149.0890  158.1560  132.2060 C   0  0  0  0  0  0  0  0  0  0  0  0
  148.8610  157.8200  133.4900 N   0  0  0  0  0  0  0  0  0  0  0  0
  148.1010  158.7550  134.0350 N   0  0  0  0  0  0  0  0  0  0  0  0
  145.2480  159.0040  133.3640 C   0  0  0  0  0  0  0  0  0  0  0  0
  143.9190  158.6040  133.5320 C   0  0  0  0  0  0  0  0  0  0  0  0
  143.4210  157.3530  133.5060 N   0  0  0  0  0  0  0  0  0  0  0  0
  144.1810  156.1520  133.3240 C   0  0  0  0  0  0  0  0  0  0  0  0
  144.1450  155.5530  132.2160 O   0  0  0  0  0  0  0  0  0  0  0  0
  145.1110  155.6780  134.3970 C   0  0  0  0  0  0  0  0  0  0  0  0
  146.5180  156.0180  134.0270 C   0  0  0  0  0  0  0  0  0  0  0  0
  146.8440  156.1380  132.8170 O   0  0  0  0  0  0  0  0  0  0  0  0
  147.4870  156.1470  135.0160 O   0  0  0  0  0  0  0  0  0  0  0  0
  142.1050  154.9390  132.5170 H   0  0  0  0  0  0  0  0  0  0  0  0
  140.7558  159.2198  134.1903 H   0  0  0  0  0  0  0  0  0  0  0  0
  142.3829  161.5867  134.1487 H   0  0  0  0  0  0  0  0  0  0  0  0
  144.7567  162.3751  133.8617 H   0  0  0  0  0  0  0  0  0  0  0  0
  147.0695  161.5431  132.5251 H   0  0  0  0  0  0  0  0  0  0  0  0
  147.2669  161.3372  134.3013 H   0  0  0  0  0  0  0  0  0  0  0  0
  148.4045  159.9094  131.0310 H   0  0  0  0  0  0  0  0  0  0  0  0
  149.6836  157.5859  131.4770 H   0  0  0  0  0  0  0  0  0  0  0  0
  149.2050  156.9670  133.9830 H   0  0  0  0  0  0  0  0  0  0  0  0
  146.0375  158.2675  133.1534 H   0  0  0  0  0  0  0  0  0  0  0  0
  144.8537  156.1684  135.3474 H   0  0  0  0  0  0  0  0  0  0  0  0
  145.0157  154.5877  134.5076 H   0  0  0  0  0  0  0  0  0  0  0  0
  1  2  1  0
  2  3  2  0
  2  4  1  0
  4  5  2  0
  5  6  1  0
  6  7  2  0
  7  8  1  0
  8  9  2  0
  9 10  1  0
 10 11  1  0
 11 12  1  0
 12 13  2  0
 13 14  1  0
 14 15  2  0
  9 16  1  0
 16 17  2  0
 17 18  1  0
 18 19  1  0
 19 20  2  0
 19 21  1  0
 21 22  1  0
 22 23  2  0
 22 24  1  0
 18  4  1  0
 17  6  1  0
 15 11  1  0
  1 25  1  0
  5 26  1  0
  7 27  1  0
  8 28  1  0
 10 29  1  0
 10 30  1  0
 12 31  1  0
 13 32  1  0
 14 33  1  0
 16 34  1  0
 21 35  1  0
 21 36  1  0
M  CHG  3   1  -1  14   1  24  -1
M  END
>  <UniqueID>  (26) 
26

>  <SMILES>  (26) 
[NH-]C(=O)c1cc2ccc(Cn3cc[nH+]n3)cc2n1C(=O)CC(=O)[O-]

>  <Energy>  (26) 
108.76358153797389

>  <Genealogy>  (26) 
[NH-]C(=O)c1cc2ccc(Cn3cc[nH+]n3)cc2n1C(=O)CC(=O)[O-] (protonated)
[NH-]C(=O)c1cc2ccc(Cn3cc[nH+]n3)cc2n1C(=O)CC(=O)[O-] (3D coordinates assigned)
[NH-]C(=O)c1cc2ccc(Cn3cc[nH+]n3)cc2n1C(=O)CC(=O)[O-] (optimized conformer: 108.76358153797389 kcal/mol)

>  <smiles>  (26) 
NC(=O)c1cc2ccc(Cn3ccnn3)cc2n1C(=O)CC(=O)O

>  <score_type>  (26) 
oracle

>  <origin>  (26) 
adg

>  <m_score__min__energy>  (26) 
-6.1799999999999997

>  <m_primary>  (26) 
energy

$$$$
26:0
     RDKit          3D

 44 45  0  0  0  0  0  0  0  0999 V2000
  149.6090  154.8240  132.2910 N   0  0  0  0  0  0  0  0  0  0  0  0
  148.4920  154.3390  133.0380 C   0  0  0  0  0  0  0  0  0  0  0  0
  148.5210  153.1740  133.5150 O   0  0  0  0  0  0  0  0  0  0  0  0
  147.2780  155.1560  133.1890 C   0  0  0  0  0  0  0  0  0  0  0  0
  146.0140  154.6000  133.3410 C   0  0  0  0  0  0  0  0  0  0  0  0
  145.1540  155.6680  133.3970 C   0  0  0  0  0  0  0  0  0  0  0  0
  143.7680  155.6820  133.5150 C   0  0  0  0  0  0  0  0  0  0  0  0
  143.1210  156.9270  133.5220 C   0  0  0  0  0  0  0  0  0  0  0  0
  143.8640  158.1260  133.4070 C   0  0  0  0  0  0  0  0  0  0  0  0
  143.1480  159.4530  133.3640 C   0  0  0  0  0  0  0  0  0  0  0  0
  143.7130  160.4430  134.3930 C   0  0  0  0  0  0  0  0  0  0  0  0
  144.7490  161.3940  133.7840 C   0  0  0  0  0  0  0  0  0  0  0  0
  146.0000  160.7640  133.7130 O   0  0  0  0  0  0  0  0  0  0  0  0
  145.2700  158.0730  133.2840 C   0  0  0  0  0  0  0  0  0  0  0  0
  145.8980  156.8190  133.2950 C   0  0  0  0  0  0  0  0  0  0  0  0
  147.2200  156.5210  133.1820 N   0  0  0  0  0  0  0  0  0  0  0  0
  148.3340  157.4410  133.2200 C   0  0  0  0  0  0  0  0  0  0  0  0
  148.6170  158.0530  134.2870 O   0  0  0  0  0  0  0  0  0  0  0  0
  149.0780  157.6980  132.0610 O   0  0  0  0  0  0  0  0  0  0  0  0
  149.9530  158.8140  131.9020 C   0  0  0  0  0  0  0  0  0  0  0  0
  149.1650  160.1310  131.8110 C   0  0  2  0  0  0  0  0  0  0  0  0
  148.4850  160.3250  133.0240 O   0  0  0  0  0  0  0  0  0  0  0  0
  148.1600  160.1140  130.6490 C   0  0  0  0  0  0  0  0  0  0  0  0
  146.8510  160.1110  131.1520 O   0  0  0  0  0  0  0  0  0  0  0  0
  150.4680  154.2400  132.1890 H   0  0  0  0  0  0  0  0  0  0  0  0
  149.5660  155.7470  131.8050 H   0  0  0  0  0  0  0  0  0  0  0  0
  145.7574  153.5322  133.4032 H   0  0  0  0  0  0  0  0  0  0  0  0
  143.1968  154.7458  133.6002 H   0  0  0  0  0  0  0  0  0  0  0  0
  142.0261  156.9715  133.6178 H   0  0  0  0  0  0  0  0  0  0  0  0
  143.2585  159.8841  132.3581 H   0  0  0  0  0  0  0  0  0  0  0  0
  142.0896  159.2769  133.6063 H   0  0  0  0  0  0  0  0  0  0  0  0
  142.8837  161.0392  134.8013 H   0  0  0  0  0  0  0  0  0  0  0  0
  144.2157  159.8590  135.1781 H   0  0  0  0  0  0  0  0  0  0  0  0
  144.4284  161.6809  132.7716 H   0  0  0  0  0  0  0  0  0  0  0  0
  144.8325  162.2887  134.4184 H   0  0  0  0  0  0  0  0  0  0  0  0
  146.5020  161.2130  132.9830 H   0  0  0  0  0  0  0  0  0  0  0  0
  145.8600  158.9957  133.1817 H   0  0  0  0  0  0  0  0  0  0  0  0
  150.6334  158.8621  132.7650 H   0  0  0  0  0  0  0  0  0  0  0  0
  150.5190  158.6820  130.9681 H   0  0  0  0  0  0  0  0  0  0  0  0
  149.8707  160.9536  131.6229 H   0  0  0  0  0  0  0  0  0  0  0  0
  147.7670  159.6400  133.0680 H   0  0  0  0  0  0  0  0  0  0  0  0
  148.3090  161.0072  130.0245 H   0  0  0  0  0  0  0  0  0  0  0  0
  148.3188  159.2083  130.0452 H   0  0  0  0  0  0  0  0  0  0  0  0
  146.8060  160.8530  131.8110 H   0  0  0  0  0  0  0  0  0  0  0  0
  1  2  1  0
  2  3  2  0
  2  4  1  0
  4  5  2  0
  5  6  1  0
  6  7  2  0
  7  8  1  0
  8  9  2  0
  9 10  1  0
 10 11  1  0
 11 12  1  0
 12 13  1  0
  9 14  1  0
 14 15  2  0
 15 16  1  0
 16 17  1  0
 17 18  2  0
 17 19  1  0
 19 20  1  0
 20 21  1  0
 21 22  1  0
 21 23  1  0
 23 24  1  0
 16  4  1  0
 15  6  1  0
  1 25  1  0
  1 26  1  0
  5 27  1  0
  7 28  1  0
  8 29  1  0
 10 30  1  0
 10 31  1  0
 11 32  1  0
 11 33  1  0
 12 34  1  0
 12 35  1  0
 13 36  1  0
 14 37  1  0
 20 38  1  0
 20 39  1  0
 21 40  1  6
 22 41  1  0
 23 42  1  0
 23 43  1  0
 24 44  1  0
M  END
>  <UniqueID>  (27) 
27

>  <SMILES>  (27) 
NC(=O)c1cc2ccc(CCCO)cc2n1C(=O)OC[C@H](O)CO

>  <Energy>  (27) 
77.19607659585758

>  <Genealogy>  (27) 
NC(=O)c1cc2ccc(CCCO)cc2n1C(=O)OC[C@H](O)CO (3D coordinates assigned)
NC(=O)c1cc2ccc(CCCO)cc2n1C(=O)OC[C@H](O)CO (optimized conformer: 77.19607659585758 kcal/mol)

>  <smiles>  (27) 
NC(=O)c1cc2ccc(CCCO)cc2n1C(=O)OC[C@H](O)CO

>  <score_type>  (27) 
oracle

>  <origin>  (27) 
adg

>  <m_score__min__energy>  (27) 
-6.5199999999999996

>  <m_primary>  (27) 
energy

$$$$
27:0
     RDKit          3D

 40 41  0  0  0  0  0  0  0  0999 V2000
  139.2670  147.5180  130.2720 C   0  0  0  0  0  0  0  0  0  0  0  0
  140.0230  148.1940  131.2690 O   0  0  0  0  0  0  0  0  0  0  0  0
  140.1730  149.5830  131.2890 C   0  0  0  0  0  0  0  0  0  0  0  0
  139.4640  150.3170  130.5450 O   0  0  0  0  0  0  0  0  0  0  0  0
  141.1740  150.2020  132.2120 C   0  0  0  0  0  0  0  0  0  0  0  0
  141.0010  151.6520  132.2230 N   0  0  0  0  0  0  0  0  0  0  0  0
  141.6030  152.4780  133.2300 C   0  0  0  0  0  0  0  0  0  0  0  0
  142.6300  152.0840  133.8450 O   0  0  0  0  0  0  0  0  0  0  0  0
  140.9610  153.7740  133.6140 C   0  0  0  0  0  0  0  0  0  0  0  0
  141.9950  154.8650  133.5920 C   0  0  0  0  0  0  0  0  0  0  0  0
  143.2900  154.6110  133.0730 C   0  0  0  0  0  0  0  0  0  0  0  0
  144.2320  155.6480  132.9580 C   0  0  0  0  0  0  0  0  0  0  0  0
  143.8500  156.9230  133.3670 C   0  0  0  0  0  0  0  0  0  0  0  0
  144.5380  158.1130  133.3070 C   0  0  0  0  0  0  0  0  0  0  0  0
  143.6570  159.0740  133.8020 C   0  0  0  0  0  0  0  0  0  0  0  0
  144.0040  160.5040  133.9530 C   0  0  0  0  0  0  0  0  0  0  0  0
  143.0370  161.5220  133.7210 N   0  0  0  0  0  0  0  0  0  0  0  0
  145.1650  160.8270  134.3220 O   0  0  0  0  0  0  0  0  0  0  0  0
  142.4740  158.4970  134.1570 N   0  0  0  0  0  0  0  0  0  0  0  0
  141.2840  159.1540  134.6170 C   0  0  0  0  0  0  0  0  0  0  0  0
  140.5230  159.7230  133.7890 O   0  0  0  0  0  0  0  0  0  0  0  0
  140.9330  159.1680  136.0730 C   0  0  0  0  0  0  0  0  0  0  0  0
  139.8080  157.8370  136.4380 Cl  0  0  0  0  0  0  0  0  0  0  0  0
  142.6080  157.1820  133.8820 C   0  0  0  0  0  0  0  0  0  0  0  0
  141.6450  156.1730  133.9940 C   0  0  0  0  0  0  0  0  0  0  0  0
  138.5301  146.8591  130.7545 H   0  0  0  0  0  0  0  0  0  0  0  0
  138.7444  148.2555  129.6452 H   0  0  0  0  0  0  0  0  0  0  0  0
  139.9417  146.9165  129.6452 H   0  0  0  0  0  0  0  0  0  0  0  0
  141.0268  149.8083  133.2285 H   0  0  0  0  0  0  0  0  0  0  0  0
  142.1892  149.9584  131.8655 H   0  0  0  0  0  0  0  0  0  0  0  0
  140.2370  152.0550  131.6360 H   0  0  0  0  0  0  0  0  0  0  0  0
  140.1592  154.0129  132.8999 H   0  0  0  0  0  0  0  0  0  0  0  0
  140.5351  153.6896  134.6247 H   0  0  0  0  0  0  0  0  0  0  0  0
  143.5600  153.5925  132.7573 H   0  0  0  0  0  0  0  0  0  0  0  0
  145.2388  155.4583  132.5576 H   0  0  0  0  0  0  0  0  0  0  0  0
  145.5646  158.2724  132.9455 H   0  0  0  0  0  0  0  0  0  0  0  0
  142.0170  161.2980  133.6840 H   0  0  0  0  0  0  0  0  0  0  0  0
  141.8487  159.0457  136.6701 H   0  0  0  0  0  0  0  0  0  0  0  0
  140.4528  160.1262  136.3206 H   0  0  0  0  0  0  0  0  0  0  0  0
  140.6407  156.3929  134.3853 H   0  0  0  0  0  0  0  0  0  0  0  0
  1  2  1  0
  2  3  1  0
  3  4  2  0
  3  5  1  0
  5  6  1  0
  6  7  1  0
  7  8  2  0
  7  9  1  0
  9 10  1  0
 10 11  2  0
 11 12  1  0
 12 13  2  0
 13 14  1  0
 14 15  2  0
 15 16  1  0
 16 17  1  0
 16 18  2  0
 15 19  1  0
 19 20  1  0
 20 21  2  0
 20 22  1  0
 22 23  1  0
 19 24  1  0
 24 25  2  0
 25 10  1  0
 24 13  1  0
  1 26  1  0
  1 27  1  0
  1 28  1  0
  5 29  1  0
  5 30  1  0
  6 31  1  0
  9 32  1  0
  9 33  1  0
 11 34  1  0
 12 35  1  0
 14 36  1  0
 17 37  1  0
 22 38  1  0
 22 39  1  0
 25 40  1  0
M  CHG  1  17  -1
M  END
>  <UniqueID>  (28) 
28

>  <SMILES>  (28) 
COC(=O)CNC(=O)Cc1ccc2cc(C([NH-])=O)n(C(=O)CCl)c2c1

>  <Energy>  (28) 
68.8888164396872

>  <Genealogy>  (28) 
COC(=O)CNC(=O)Cc1ccc2cc(C([NH-])=O)n(C(=O)CCl)c2c1 (protonated)
COC(=O)CNC(=O)Cc1ccc2cc(C([NH-])=O)n(C(=O)CCl)c2c1 (3D coordinates assigned)
COC(=O)CNC(=O)Cc1ccc2cc(C([NH-])=O)n(C(=O)CCl)c2c1 (optimized conformer: 68.8888164396872 kcal/mol)

>  <smiles>  (28) 
COC(=O)CNC(=O)Cc1ccc2cc(C(N)=O)n(C(=O)CCl)c2c1

>  <score_type>  (28) 
oracle

>  <origin>  (28) 
adg

>  <m_score__min__energy>  (28) 
-6.7400000000000002

>  <m_primary>  (28) 
energy

$$$$
28:0
     RDKit          3D

 45 47  0  0  0  0  0  0  0  0999 V2000
  141.5940  154.2980  134.1770 C   0  0  0  0  0  0  0  0  0  0  0  0
  141.6130  155.6740  133.6480 N   0  0  2  0  0  0  0  0  0  0  0  0
  142.8400  156.4270  133.9990 C   0  0  0  0  0  0  0  0  0  0  0  0
  143.2970  157.4080  132.9380 C   0  0  0  0  0  0  0  0  0  0  0  0
  143.1960  157.0930  131.7210 O   0  0  0  0  0  0  0  0  0  0  0  0
  143.7960  158.7100  133.2950 N   0  0  0  0  0  0  0  0  0  0  0  0
  143.0930  159.7610  133.8110 C   0  0  0  0  0  0  0  0  0  0  0  0
  141.6410  159.7880  134.0970 C   0  0  0  0  0  0  0  0  0  0  0  0
  140.7200  159.2770  133.1360 N   0  0  0  0  0  0  0  0  0  0  0  0
  141.2010  160.2450  135.1850 O   0  0  0  0  0  0  0  0  0  0  0  0
  143.9400  160.8430  134.0450 C   0  0  0  0  0  0  0  0  0  0  0  0
  145.1940  160.4150  133.6800 C   0  0  0  0  0  0  0  0  0  0  0  0
  146.4180  161.0770  133.7380 C   0  0  0  0  0  0  0  0  0  0  0  0
  147.5660  160.3760  133.3370 C   0  0  0  0  0  0  0  0  0  0  0  0
  147.4810  159.0220  132.9210 C   0  0  0  0  0  0  0  0  0  0  0  0
  148.7130  158.2960  132.4430 C   0  0  0  0  0  0  0  0  0  0  0  0
  148.7600  157.0140  132.9640 F   0  0  0  0  0  0  0  0  0  0  0  0
  148.7220  158.2040  131.0610 F   0  0  0  0  0  0  0  0  0  0  0  0
  149.8360  158.9920  132.8530 F   0  0  0  0  0  0  0  0  0  0  0  0
  146.2170  158.3870  132.8670 C   0  0  0  0  0  0  0  0  0  0  0  0
  145.0840  159.1210  133.2400 C   0  0  0  0  0  0  0  0  0  0  0  0
  140.4230  156.4050  134.0230 C   0  0  0  0  0  0  0  0  0  0  0  0
  139.4390  156.4830  133.2360 O   0  0  0  0  0  0  0  0  0  0  0  0
  140.3310  157.0120  135.3120 N   0  0  0  0  0  0  0  0  0  0  0  0
  141.1840  157.1830  136.5040 C   0  0  0  0  0  0  0  0  0  0  0  0
  140.2020  157.9930  137.2880 C   0  0  0  0  0  0  0  0  0  0  0  0
  140.6260  159.3210  137.4520 O   0  0  0  0  0  0  0  0  0  0  0  0
  139.3470  157.8070  136.0700 C   0  0  0  0  0  0  0  0  0  0  0  0
  141.5944  154.3279  135.2766 H   0  0  0  0  0  0  0  0  0  0  0  0
  140.6886  153.7821  133.8246 H   0  0  0  0  0  0  0  0  0  0  0  0
  142.4848  153.7573  133.8246 H   0  0  0  0  0  0  0  0  0  0  0  0
  141.6100  155.5810  132.6040 H   0  0  0  0  0  0  0  0  0  0  0  0
  142.6466  156.9875  134.9255 H   0  0  0  0  0  0  0  0  0  0  0  0
  143.6441  155.6843  134.1074 H   0  0  0  0  0  0  0  0  0  0  0  0
  139.9970  158.5730  133.4050 H   0  0  0  0  0  0  0  0  0  0  0  0
  143.6629  161.8319  134.4391 H   0  0  0  0  0  0  0  0  0  0  0  0
  146.4831  162.1179  134.0876 H   0  0  0  0  0  0  0  0  0  0  0  0
  148.5427  160.8820  133.3453 H   0  0  0  0  0  0  0  0  0  0  0  0
  146.1267  157.3408  132.5395 H   0  0  0  0  0  0  0  0  0  0  0  0
  141.4303  156.2276  136.9903 H   0  0  0  0  0  0  0  0  0  0  0  0
  142.1814  157.6197  136.3474 H   0  0  0  0  0  0  0  0  0  0  0  0
  139.8756  157.7577  138.3118 H   0  0  0  0  0  0  0  0  0  0  0  0
  139.9810  159.8730  136.9400 H   0  0  0  0  0  0  0  0  0  0  0  0
  138.4222  157.2499  136.2808 H   0  0  0  0  0  0  0  0  0  0  0  0
  138.9562  158.7150  135.5874 H   0  0  0  0  0  0  0  0  0  0  0  0
  1  2  1  0
  2  3  1  0
  3  4  1  0
  4  5  2  0
  4  6  1  0
  6  7  1  0
  7  8  1  0
  8  9  1  0
  8 10  2  0
  7 11  2  0
 11 12  1  0
 12 13  2  0
 13 14  1  0
 14 15  2  0
 15 16  1  0
 16 17  1  0
 16 18  1  0
 16 19  1  0
 15 20  1  0
 20 21  2  0
  2 22  1  0
 22 23  2  0
 22 24  1  0
 24 25  1  0
 25 26  1  0
 26 27  1  0
 26 28  1  0
 21  6  1  0
 28 24  1  0
 21 12  1  0
  1 29  1  0
  1 30  1  0
  1 31  1  0
  2 32  1  6
  3 33  1  0
  3 34  1  0
  9 35  1  0
 11 36  1  0
 13 37  1  0
 14 38  1  0
 20 39  1  0
 25 40  1  0
 25 41  1  0
 26 42  1  0
 27 43  1  0
 28 44  1  0
 28 45  1  0
M  CHG  2   2   1   9  -1
M  END
>  <UniqueID>  (29) 
29

>  <SMILES>  (29) 
C[N@H+](CC(=O)n1c(C([NH-])=O)cc2ccc(C(F)(F)F)cc21)C(=O)N1CC(O)C1

>  <Energy>  (29) 
133.61505625107046

>  <Genealogy>  (29) 
C[NH+](CC(=O)n1c(C([NH-])=O)cc2ccc(C(F)(F)F)cc21)C(=O)N1CC(O)C1 (protonated)
C[N@H+](CC(=O)n1c(C([NH-])=O)cc2ccc(C(F)(F)F)cc21)C(=O)N1CC(O)C1 (chirality)
C[N@H+](CC(=O)n1c(C([NH-])=O)cc2ccc(C(F)(F)F)cc21)C(=O)N1CC(O)C1 (3D coordinates assigned)
C[N@H+](CC(=O)n1c(C([NH-])=O)cc2ccc(C(F)(F)F)cc21)C(=O)N1CC(O)C1 (nonaromatic ring conformer: 133.61505625107046 kcal/mol)

>  <smiles>  (29) 
CN(CC(=O)n1c(C(N)=O)cc2ccc(C(F)(F)F)cc21)C(=O)N1CC(O)C1

>  <score_type>  (29) 
oracle

>  <origin>  (29) 
adg

>  <m_score__min__energy>  (29) 
-6.9100000000000001

>  <m_primary>  (29) 
energy

$$$$
29:0
     RDKit          3D

 39 40  0  0  0  0  0  0  0  0999 V2000
  146.0650  153.1740  133.8730 N   0  0  0  0  0  0  0  0  0  0  0  0
  146.4950  154.2110  134.7520 C   0  0  0  0  0  0  0  0  0  0  0  0
  146.3710  154.0560  135.9960 O   0  0  0  0  0  0  0  0  0  0  0  0
  147.0270  155.4830  134.2230 C   0  0  0  0  0  0  0  0  0  0  0  0
  146.4930  156.7300  134.5430 C   0  0  0  0  0  0  0  0  0  0  0  0
  147.2040  157.6360  133.7910 C   0  0  0  0  0  0  0  0  0  0  0  0
  147.0950  159.0220  133.7210 C   0  0  0  0  0  0  0  0  0  0  0  0
  147.9840  159.7100  132.8790 C   0  0  0  0  0  0  0  0  0  0  0  0
  148.9690  159.0090  132.1410 C   0  0  0  0  0  0  0  0  0  0  0  0
  149.9040  159.7570  131.2280 C   0  0  0  0  0  0  0  0  0  0  0  0
  149.1130  160.5920  130.2140 C   0  0  0  0  0  0  0  0  0  0  0  0
  148.8250  161.9270  130.7340 N   0  0  0  0  0  0  0  0  0  0  0  0
  149.0410  157.6010  132.2260 C   0  0  0  0  0  0  0  0  0  0  0  0
  148.1300  156.9390  133.0590 C   0  0  0  0  0  0  0  0  0  0  0  0
  148.0350  155.6150  133.3130 N   0  0  0  0  0  0  0  0  0  0  0  0
  148.8920  154.5810  132.8020 C   0  0  0  0  0  0  0  0  0  0  0  0
  150.0020  154.8830  132.2820 O   0  0  0  0  0  0  0  0  0  0  0  0
  148.5020  153.2430  132.9030 O   0  0  0  0  0  0  0  0  0  0  0  0
  149.2150  152.1840  132.2750 C   0  0  0  0  0  0  0  0  0  0  0  0
  148.2370  151.1190  131.7770 C   0  0  0  0  0  0  0  0  0  0  0  0
  146.8490  151.5180  132.0080 N   0  0  0  0  0  0  0  0  0  0  0  0
  146.6630  152.3350  133.7000 H   0  0  0  0  0  0  0  0  0  0  0  0
  145.6760  156.9442  135.2477 H   0  0  0  0  0  0  0  0  0  0  0  0
  146.3363  159.5616  134.3068 H   0  0  0  0  0  0  0  0  0  0  0  0
  147.9146  160.8043  132.7918 H   0  0  0  0  0  0  0  0  0  0  0  0
  150.5394  160.4243  131.8288 H   0  0  0  0  0  0  0  0  0  0  0  0
  150.5246  159.0307  130.6828 H   0  0  0  0  0  0  0  0  0  0  0  0
  149.7029  160.6869  129.2904 H   0  0  0  0  0  0  0  0  0  0  0  0
  148.1580  160.0835  130.0158 H   0  0  0  0  0  0  0  0  0  0  0  0
  148.0930  161.8490  131.4770 H   0  0  0  0  0  0  0  0  0  0  0  0
  148.4320  162.5130  129.9620 H   0  0  0  0  0  0  0  0  0  0  0  0
  149.7930  157.0389  131.6529 H   0  0  0  0  0  0  0  0  0  0  0  0
  149.7842  152.5832  131.4225 H   0  0  0  0  0  0  0  0  0  0  0  0
  149.9034  151.7302  133.0031 H   0  0  0  0  0  0  0  0  0  0  0  0
  148.3911  150.9682  130.6983 H   0  0  0  0  0  0  0  0  0  0  0  0
  148.4264  150.1887  132.3326 H   0  0  0  0  0  0  0  0  0  0  0  0
  146.2100  150.9990  131.3620 H   0  0  0  0  0  0  0  0  0  0  0  0
  146.7400  152.5480  131.8630 H   0  0  0  0  0  0  0  0  0  0  0  0
  146.5870  151.2870  132.9930 H   0  0  0  0  0  0  0  0  0  0  0  0
  1  2  1  0
  2  3  2  0
  2  4  1  0
  4  5  2  0
  5  6  1  0
  6  7  2  0
  7  8  1  0
  8  9  2  0
  9 10  1  0
 10 11  1  0
 11 12  1  0
  9 13  1  0
 13 14  2  0
 14 15  1  0
 15 16  1  0
 16 17  2  0
 16 18  1  0
 18 19  1  0
 19 20  1  0
 20 21  1  0
 15  4  1  0
 14  6  1  0
  1 22  1  0
  5 23  1  0
  7 24  1  0
  8 25  1  0
 10 26  1  0
 10 27  1  0
 11 28  1  0
 11 29  1  0
 12 30  1  0
 12 31  1  0
 13 32  1  0
 19 33  1  0
 19 34  1  0
 20 35  1  0
 20 36  1  0
 21 37  1  0
 21 38  1  0
 21 39  1  0
M  CHG  2   1  -1  21   1
M  END
>  <UniqueID>  (30) 
30

>  <SMILES>  (30) 
[NH-]C(=O)c1cc2ccc(CCN)cc2n1C(=O)OCC[NH3+]

>  <Energy>  (30) 
68.91761154105751

>  <Genealogy>  (30) 
[NH-]C(=O)c1cc2ccc(CCN)cc2n1C(=O)OCC[NH3+] (protonated)
[NH-]C(=O)c1cc2ccc(CCN)cc2n1C(=O)OCC[NH3+] (3D coordinates assigned)
[NH-]C(=O)c1cc2ccc(CCN)cc2n1C(=O)OCC[NH3+] (optimized conformer: 68.91761154105751 kcal/mol)

>  <smiles>  (30) 
NCCOC(=O)n1c(C(N)=O)cc2ccc(CCN)cc21

>  <score_type>  (30) 
oracle

>  <origin>  (30) 
adg

>  <m_score__min__energy>  (30) 
-7.1399999999999997

>  <m_primary>  (30) 
energy

$$$$
30:0
     RDKit          3D

 31 32  0  0  0  0  0  0  0  0999 V2000
  139.1140  146.6000  129.8640 C   0  0  0  0  0  0  0  0  0  0  0  0
  138.8790  147.7290  130.2150 C   0  0  0  0  0  0  0  0  0  0  0  0
  138.5960  149.1040  130.6430 C   0  0  0  0  0  0  0  0  0  0  0  0
  139.7910  149.7380  131.0890 O   0  0  0  0  0  0  0  0  0  0  0  0
  139.8020  150.8490  131.9390 C   0  0  0  0  0  0  0  0  0  0  0  0
  138.7240  151.4320  132.2370 O   0  0  0  0  0  0  0  0  0  0  0  0
  141.0470  151.3280  132.4740 N   0  0  0  0  0  0  0  0  0  0  0  0
  142.2310  150.6580  132.5450 C   0  0  0  0  0  0  0  0  0  0  0  0
  142.4370  149.2310  132.2260 C   0  0  0  0  0  0  0  0  0  0  0  0
  141.3790  148.2810  132.3600 N   0  0  0  0  0  0  0  0  0  0  0  0
  143.5820  148.8320  131.8820 O   0  0  0  0  0  0  0  0  0  0  0  0
  143.2410  151.4920  133.0140 C   0  0  0  0  0  0  0  0  0  0  0  0
  142.6320  152.7040  133.2470 C   0  0  0  0  0  0  0  0  0  0  0  0
  143.1730  153.9030  133.6970 C   0  0  0  0  0  0  0  0  0  0  0  0
  142.3190  155.0140  133.8020 C   0  0  0  0  0  0  0  0  0  0  0  0
  140.9460  154.9070  133.4640 C   0  0  0  0  0  0  0  0  0  0  0  0
  140.0540  156.1220  133.5180 C   0  0  0  0  0  0  0  0  0  0  0  0
  138.7520  155.7870  133.1900 F   0  0  0  0  0  0  0  0  0  0  0  0
  140.4900  157.0880  132.6280 F   0  0  0  0  0  0  0  0  0  0  0  0
  140.0750  156.6460  134.7980 F   0  0  0  0  0  0  0  0  0  0  0  0
  140.4400  153.6770  132.9840 C   0  0  0  0  0  0  0  0  0  0  0  0
  141.3080  152.5800  132.9120 C   0  0  0  0  0  0  0  0  0  0  0  0
  139.3284  145.5698  129.5437 H   0  0  0  0  0  0  0  0  0  0  0  0
  138.1794  149.6693  129.7963 H   0  0  0  0  0  0  0  0  0  0  0  0
  137.8729  149.0795  131.4715 H   0  0  0  0  0  0  0  0  0  0  0  0
  140.4720  148.5430  132.8070 H   0  0  0  0  0  0  0  0  0  0  0  0
  141.5310  147.2840  132.0910 H   0  0  0  0  0  0  0  0  0  0  0  0
  144.3002  151.2371  133.1661 H   0  0  0  0  0  0  0  0  0  0  0  0
  144.2376  153.9797  133.9629 H   0  0  0  0  0  0  0  0  0  0  0  0
  142.7200  155.9773  134.1502 H   0  0  0  0  0  0  0  0  0  0  0  0
  139.3887  153.5837  132.6742 H   0  0  0  0  0  0  0  0  0  0  0  0
  1  2  3  0
  2  3  1  0
  3  4  1  0
  4  5  1  0
  5  6  2  0
  5  7  1  0
  7  8  1  0
  8  9  1  0
  9 10  1  0
  9 11  2  0
  8 12  2  0
 12 13  1  0
 13 14  2  0
 14 15  1  0
 15 16  2  0
 16 17  1  0
 17 18  1  0
 17 19  1  0
 17 20  1  0
 16 21  1  0
 21 22  2  0
 22  7  1  0
 22 13  1  0
  1 23  1  0
  3 24  1  0
  3 25  1  0
 10 26  1  0
 10 27  1  0
 12 28  1  0
 14 29  1  0
 15 30  1  0
 21 31  1  0
M  END
>  <UniqueID>  (31) 
31

>  <SMILES>  (31) 
C#CCOC(=O)n1c(C(N)=O)cc2ccc(C(F)(F)F)cc21

>  <Energy>  (31) 
67.54854663898624

>  <Genealogy>  (31) 
C#CCOC(=O)n1c(C(N)=O)cc2ccc(C(F)(F)F)cc21 (3D coordinates assigned)
C#CCOC(=O)n1c(C(N)=O)cc2ccc(C(F)(F)F)cc21 (optimized conformer: 67.54854663898624 kcal/mol)

>  <smiles>  (31) 
C#CCOC(=O)n1c(C(N)=O)cc2ccc(C(F)(F)F)cc21

>  <score_type>  (31) 
oracle

>  <origin>  (31) 
adg

>  <m_score__min__energy>  (31) 
-6.8700000000000001

>  <m_primary>  (31) 
energy

$$$$
31:0
     RDKit          3D

 44 46  0  0  0  0  0  0  0  0999 V2000
  149.6050  150.6700  134.4010 C   0  0  0  0  0  0  0  0  0  0  0  0
  149.6720  150.7130  132.9310 N   0  0  0  0  0  0  0  0  0  0  0  0
  148.3620  150.5520  132.2930 C   0  0  0  0  0  0  0  0  0  0  0  0
  147.4080  151.7230  132.5720 C   0  0  0  0  0  0  0  0  0  0  0  0
  148.0560  153.0490  132.6570 N   0  0  0  0  0  0  0  0  0  0  0  0
  147.2170  154.2320  132.8570 C   0  0  0  0  0  0  0  0  0  0  0  0
  145.7990  154.1170  132.9910 C   0  0  0  0  0  0  0  0  0  0  0  0
  144.9850  155.2460  133.1670 C   0  0  0  0  0  0  0  0  0  0  0  0
  145.5970  156.4900  133.2320 C   0  0  0  0  0  0  0  0  0  0  0  0
  145.0390  157.7420  133.3450 C   0  0  0  0  0  0  0  0  0  0  0  0
  146.1160  158.6250  133.3290 C   0  0  0  0  0  0  0  0  0  0  0  0
  145.9680  160.0910  133.4240 C   0  0  0  0  0  0  0  0  0  0  0  0
  147.0990  160.9600  133.3450 N   0  0  0  0  0  0  0  0  0  0  0  0
  144.8270  160.5860  133.6260 O   0  0  0  0  0  0  0  0  0  0  0  0
  147.2910  157.9470  133.2110 N   0  0  0  0  0  0  0  0  0  0  0  0
  148.6020  158.5080  133.0350 C   0  0  0  0  0  0  0  0  0  0  0  0
  149.1230  159.1790  133.9670 O   0  0  0  0  0  0  0  0  0  0  0  0
  149.3660  158.3050  131.7570 C   0  0  0  0  0  0  0  0  0  0  0  0
  149.3450  159.5480  130.9260 C   0  0  0  0  0  0  0  0  0  0  0  0
  149.5620  159.4850  129.6860 O   0  0  0  0  0  0  0  0  0  0  0  0
  149.1240  160.7820  131.5230 O   0  0  0  0  0  0  0  0  0  0  0  0
  146.9540  156.6380  133.1430 C   0  0  0  0  0  0  0  0  0  0  0  0
  147.7880  155.5350  132.9300 C   0  0  0  0  0  0  0  0  0  0  0  0
  149.5270  153.2040  132.7060 C   0  0  0  0  0  0  0  0  0  0  0  0
  150.3240  151.9220  132.4210 C   0  0  0  0  0  0  0  0  0  0  0  0
  150.4598  151.2186  134.8232 H   0  0  0  0  0  0  0  0  0  0  0  0
  148.6674  151.1355  134.7391 H   0  0  0  0  0  0  0  0  0  0  0  0
  149.6376  149.6238  134.7391 H   0  0  0  0  0  0  0  0  0  0  0  0
  148.5095  150.4720  131.2059 H   0  0  0  0  0  0  0  0  0  0  0  0
  147.9013  149.6461  132.7139 H   0  0  0  0  0  0  0  0  0  0  0  0
  146.6642  151.7578  131.7623 H   0  0  0  0  0  0  0  0  0  0  0  0
  146.9671  151.5318  133.5615 H   0  0  0  0  0  0  0  0  0  0  0  0
  145.3350  153.1203  132.9553 H   0  0  0  0  0  0  0  0  0  0  0  0
  143.8926  155.1480  133.2511 H   0  0  0  0  0  0  0  0  0  0  0  0
  143.9712  157.9923  133.4298 H   0  0  0  0  0  0  0  0  0  0  0  0
  146.9650  161.9950  133.3560 H   0  0  0  0  0  0  0  0  0  0  0  0
  148.0710  160.5850  133.3810 H   0  0  0  0  0  0  0  0  0  0  0  0
  150.4085  158.0481  131.9963 H   0  0  0  0  0  0  0  0  0  0  0  0
  148.8935  157.4908  131.1878 H   0  0  0  0  0  0  0  0  0  0  0  0
  148.8738  155.6726  132.8200 H   0  0  0  0  0  0  0  0  0  0  0  0
  149.8158  153.9586  131.9595 H   0  0  0  0  0  0  0  0  0  0  0  0
  149.7715  153.4954  133.7381 H   0  0  0  0  0  0  0  0  0  0  0  0
  150.4464  151.8208  131.3325 H   0  0  0  0  0  0  0  0  0  0  0  0
  151.2905  152.0156  132.9379 H   0  0  0  0  0  0  0  0  0  0  0  0
  1  2  1  0
  2  3  1  0
  3  4  1  0
  4  5  1  0
  5  6  1  0
  6  7  2  0
  7  8  1  0
  8  9  2  0
  9 10  1  0
 10 11  2  0
 11 12  1  0
 12 13  1  0
 12 14  2  0
 11 15  1  0
 15 16  1  0
 16 17  2  0
 16 18  1  0
 18 19  1  0
 19 20  2  0
 19 21  1  0
 15 22  1  0
 22 23  2  0
  5 24  1  0
 24 25  1  0
 25  2  1  0
 23  6  1  0
 22  9  1  0
  1 26  1  0
  1 27  1  0
  1 28  1  0
  3 29  1  0
  3 30  1  0
  4 31  1  0
  4 32  1  0
  7 33  1  0
  8 34  1  0
 10 35  1  0
 13 36  1  0
 13 37  1  0
 18 38  1  0
 18 39  1  0
 23 40  1  0
 24 41  1  0
 24 42  1  0
 25 43  1  0
 25 44  1  0
M  CHG  1  21  -1
M  END
>  <UniqueID>  (32) 
32

>  <SMILES>  (32) 
CN1CCN(c2ccc3cc(C(N)=O)n(C(=O)CC(=O)[O-])c3c2)CC1

>  <Energy>  (32) 
94.51135094020488

>  <Genealogy>  (32) 
CN1CCN(c2ccc3cc(C(N)=O)n(C(=O)CC(=O)[O-])c3c2)CC1 (protonated)
CN1CCN(c2ccc3cc(C(N)=O)n(C(=O)CC(=O)[O-])c3c2)CC1 (3D coordinates assigned)
CN1CCN(c2ccc3cc(C(N)=O)n(C(=O)CC(=O)[O-])c3c2)CC1 (nonaromatic ring conformer: 94.51135094020488 kcal/mol)

>  <smiles>  (32) 
CN1CCN(c2ccc3cc(C(N)=O)n(C(=O)CC(=O)O)c3c2)CC1

>  <score_type>  (32) 
oracle

>  <origin>  (32) 
adg

>  <m_score__min__energy>  (32) 
-7.6900000000000004

>  <m_primary>  (32) 
energy

$$$$
32:0
     RDKit          3D

 49 51  0  0  0  0  0  0  0  0999 V2000
  139.0920  157.1940  133.3840 C   0  0  0  0  0  0  0  0  0  0  0  0
  138.8710  158.0870  134.4700 O   0  0  0  0  0  0  0  0  0  0  0  0
  139.8430  158.3530  135.4370 C   0  0  0  0  0  0  0  0  0  0  0  0
  139.8490  157.7240  136.5300 O   0  0  0  0  0  0  0  0  0  0  0  0
  140.8450  159.3500  135.2010 N   0  0  0  0  0  0  0  0  0  0  0  0
  141.5650  159.5440  133.9390 C   0  0  1  0  0  0  0  0  0  0  0  0
  142.3420  160.8680  133.9210 C   0  0  0  0  0  0  0  0  0  0  0  0
  143.8150  160.5120  133.7400 C   0  0  0  0  0  0  0  0  0  0  0  0
  143.8860  159.0640  133.6070 N   0  0  0  0  0  0  0  0  0  0  0  0
  145.1170  158.3370  133.3780 C   0  0  0  0  0  0  0  0  0  0  0  0
  146.3290  159.0320  133.1060 C   0  0  0  0  0  0  0  0  0  0  0  0
  147.5250  158.3330  132.8700 C   0  0  0  0  0  0  0  0  0  0  0  0
  147.4900  156.9450  132.9020 C   0  0  0  0  0  0  0  0  0  0  0  0
  148.5110  156.0340  132.7710 C   0  0  0  0  0  0  0  0  0  0  0  0
  147.9200  154.7860  132.9480 C   0  0  0  0  0  0  0  0  0  0  0  0
  148.6850  153.5200  132.9380 C   0  0  0  0  0  0  0  0  0  0  0  0
  148.0740  152.2700  133.2500 N   0  0  0  0  0  0  0  0  0  0  0  0
  149.9010  153.5380  132.6040 O   0  0  0  0  0  0  0  0  0  0  0  0
  146.5800  154.9170  133.1730 N   0  0  0  0  0  0  0  0  0  0  0  0
  145.6750  153.8710  133.5730 C   0  0  0  0  0  0  0  0  0  0  0  0
  145.6890  153.4790  134.7720 O   0  0  0  0  0  0  0  0  0  0  0  0
  144.6860  153.2370  132.6080 C   0  0  2  0  0  0  0  0  0  0  0  0
  145.3090  152.2350  131.8420 O   0  0  0  0  0  0  0  0  0  0  0  0
  143.9780  154.2490  131.6840 C   0  0  0  0  0  0  0  0  0  0  0  0
  144.4520  154.1530  130.3660 O   0  0  0  0  0  0  0  0  0  0  0  0
  146.3360  156.2500  133.1560 C   0  0  0  0  0  0  0  0  0  0  0  0
  145.1380  156.9200  133.4230 C   0  0  0  0  0  0  0  0  0  0  0  0
  142.5790  158.4260  133.6870 C   0  0  0  0  0  0  0  0  0  0  0  0
  139.3390  156.1958  133.7746 H   0  0  0  0  0  0  0  0  0  0  0  0
  138.1820  157.1323  132.7691 H   0  0  0  0  0  0  0  0  0  0  0  0
  139.9257  157.5638  132.7691 H   0  0  0  0  0  0  0  0  0  0  0  0
  140.7912  159.5447  133.1572 H   0  0  0  0  0  0  0  0  0  0  0  0
  141.9991  161.4971  133.0864 H   0  0  0  0  0  0  0  0  0  0  0  0
  142.1835  161.4315  134.8523 H   0  0  0  0  0  0  0  0  0  0  0  0
  144.2127  160.9951  132.8353 H   0  0  0  0  0  0  0  0  0  0  0  0
  144.4123  160.8589  134.5961 H   0  0  0  0  0  0  0  0  0  0  0  0
  146.3295  160.1317  133.0802 H   0  0  0  0  0  0  0  0  0  0  0  0
  148.4628  158.8703  132.6656 H   0  0  0  0  0  0  0  0  0  0  0  0
  149.5712  156.2463  132.5690 H   0  0  0  0  0  0  0  0  0  0  0  0
  147.0440  152.1790  133.3800 H   0  0  0  0  0  0  0  0  0  0  0  0
  148.6510  151.3990  133.2660 H   0  0  0  0  0  0  0  0  0  0  0  0
  143.9017  152.7909  133.2371 H   0  0  0  0  0  0  0  0  0  0  0  0
  145.8360  152.6800  131.1290 H   0  0  0  0  0  0  0  0  0  0  0  0
  142.8969  154.0463  131.6919 H   0  0  0  0  0  0  0  0  0  0  0  0
  144.1859  155.2634  132.0553 H   0  0  0  0  0  0  0  0  0  0  0  0
  144.4220  153.1940  130.1160 H   0  0  0  0  0  0  0  0  0  0  0  0
  144.2251  156.3559  133.6645 H   0  0  0  0  0  0  0  0  0  0  0  0
  142.3494  157.9103  132.7429 H   0  0  0  0  0  0  0  0  0  0  0  0
  142.5512  157.6750  134.4903 H   0  0  0  0  0  0  0  0  0  0  0  0
  1  2  1  0
  2  3  1  0
  3  4  2  0
  3  5  1  0
  5  6  1  0
  6  7  1  0
  7  8  1  0
  8  9  1  0
  9 10  1  0
 10 11  2  0
 11 12  1  0
 12 13  2  0
 13 14  1  0
 14 15  2  0
 15 16  1  0
 16 17  1  0
 16 18  2  0
 15 19  1  0
 19 20  1  0
 20 21  2  0
 20 22  1  0
 22 23  1  0
 22 24  1  0
 24 25  1  0
 19 26  1  0
 26 27  2  0
  9 28  1  0
 28  6  1  0
 27 10  1  0
 26 13  1  0
  1 29  1  0
  1 30  1  0
  1 31  1  0
  6 32  1  6
  7 33  1  0
  7 34  1  0
  8 35  1  0
  8 36  1  0
 11 37  1  0
 12 38  1  0
 14 39  1  0
 17 40  1  0
 17 41  1  0
 22 42  1  1
 23 43  1  0
 24 44  1  0
 24 45  1  0
 25 46  1  0
 27 47  1  0
 28 48  1  0
 28 49  1  0
M  CHG  1   5  -1
M  END
>  <UniqueID>  (33) 
33

>  <SMILES>  (33) 
COC(=O)[N-][C@H]1CCN(c2ccc3cc(C(N)=O)n(C(=O)[C@H](O)CO)c3c2)C1

>  <Energy>  (33) 
90.24598142773067

>  <Genealogy>  (33) 
COC(=O)[N-]C1CCN(c2ccc3cc(C(N)=O)n(C(=O)C(O)CO)c3c2)C1 (protonated)
COC(=O)[N-][C@H]1CCN(c2ccc3cc(C(N)=O)n(C(=O)[C@H](O)CO)c3c2)C1 (chirality)
COC(=O)[N-][C@H]1CCN(c2ccc3cc(C(N)=O)n(C(=O)[C@H](O)CO)c3c2)C1 (3D coordinates assigned)
COC(=O)[N-][C@H]1CCN(c2ccc3cc(C(N)=O)n(C(=O)[C@H](O)CO)c3c2)C1 (nonaromatic ring conformer: 90.24598142773067 kcal/mol)

>  <smiles>  (33) 
COC(=O)NC1CCN(c2ccc3cc(C(N)=O)n(C(=O)C(O)CO)c3c2)C1

>  <score_type>  (33) 
oracle

>  <origin>  (33) 
adg

>  <m_score__min__energy>  (33) 
-7.4500000000000002

>  <m_primary>  (33) 
energy

$$$$
33:0
     RDKit          3D

 45 46  0  0  0  0  0  0  0  0999 V2000
  139.1100  157.4560  133.3340 C   0  0  0  0  0  0  0  0  0  0  0  0
  139.5150  158.5110  134.1970 O   0  0  0  0  0  0  0  0  0  0  0  0
  139.9660  158.2860  135.5000 C   0  0  0  0  0  0  0  0  0  0  0  0
  139.1830  157.8490  136.3870 O   0  0  0  0  0  0  0  0  0  0  0  0
  141.4100  158.5120  135.8280 C   0  0  0  0  0  0  0  0  0  0  0  0
  142.3260  157.6390  134.9610 C   0  0  0  0  0  0  0  0  0  0  0  0
  143.4650  158.4330  134.3750 C   0  0  0  0  0  0  0  0  0  0  0  0
  143.3450  159.8360  134.2120 C   0  0  0  0  0  0  0  0  0  0  0  0
  144.4220  160.5950  133.7250 C   0  0  0  0  0  0  0  0  0  0  0  0
  145.5990  159.9240  133.4050 C   0  0  0  0  0  0  0  0  0  0  0  0
  146.7990  160.4160  132.9490 C   0  0  0  0  0  0  0  0  0  0  0  0
  147.6310  159.3050  132.8190 C   0  0  0  0  0  0  0  0  0  0  0  0
  149.0110  159.3830  132.2900 C   0  0  0  0  0  0  0  0  0  0  0  0
  149.8260  158.2200  132.1750 N   0  0  0  0  0  0  0  0  0  0  0  0
  149.4650  160.4910  131.9010 O   0  0  0  0  0  0  0  0  0  0  0  0
  146.9680  158.1690  133.1840 N   0  0  0  0  0  0  0  0  0  0  0  0
  147.4790  156.8270  133.2200 C   0  0  0  0  0  0  0  0  0  0  0  0
  148.4820  156.5520  133.9310 O   0  0  0  0  0  0  0  0  0  0  0  0
  146.6940  155.5180  132.2700 S   0  0  0  0  0  0  0  0  0  0  0  0
  147.3570  154.1550  133.2880 C   0  0  0  0  0  0  0  0  0  0  0  0
  146.7070  154.1560  134.6770 C   0  0  0  0  0  0  0  0  0  0  0  0
  147.7050  154.5200  135.7830 C   0  0  0  0  0  0  0  0  0  0  0  0
  147.8870  153.3930  136.7550 C   0  0  0  0  0  0  0  0  0  0  0  0
  149.0180  153.1730  137.2640 O   0  0  0  0  0  0  0  0  0  0  0  0
  146.8010  152.6100  137.1250 O   0  0  0  0  0  0  0  0  0  0  0  0
  145.7270  158.5660  133.5410 C   0  0  0  0  0  0  0  0  0  0  0  0
  144.6790  157.7900  134.0480 C   0  0  0  0  0  0  0  0  0  0  0  0
  138.7800  156.5963  133.9357 H   0  0  0  0  0  0  0  0  0  0  0  0
  138.2799  157.7996  132.6993 H   0  0  0  0  0  0  0  0  0  0  0  0
  139.9568  157.1559  132.6993 H   0  0  0  0  0  0  0  0  0  0  0  0
  141.6549  159.5702  135.6538 H   0  0  0  0  0  0  0  0  0  0  0  0
  141.5713  158.2414  136.8819 H   0  0  0  0  0  0  0  0  0  0  0  0
  142.7383  156.8297  135.5815 H   0  0  0  0  0  0  0  0  0  0  0  0
  141.7280  157.2351  134.1308 H   0  0  0  0  0  0  0  0  0  0  0  0
  142.3992  160.3353  134.4694 H   0  0  0  0  0  0  0  0  0  0  0  0
  144.3380  161.6847  133.6005 H   0  0  0  0  0  0  0  0  0  0  0  0
  147.0497  161.4649  132.7324 H   0  0  0  0  0  0  0  0  0  0  0  0
  149.9780  157.5870  132.9910 H   0  0  0  0  0  0  0  0  0  0  0  0
  147.1468  153.1966  132.7908 H   0  0  0  0  0  0  0  0  0  0  0  0
  148.4422  154.2927  133.4032 H   0  0  0  0  0  0  0  0  0  0  0  0
  145.8873  154.8895  134.6840 H   0  0  0  0  0  0  0  0  0  0  0  0
  146.3365  153.1398  134.8773 H   0  0  0  0  0  0  0  0  0  0  0  0
  148.6764  154.7558  135.3238 H   0  0  0  0  0  0  0  0  0  0  0  0
  147.3091  155.3872  136.3319 H   0  0  0  0  0  0  0  0  0  0  0  0
  144.7978  156.7055  134.1885 H   0  0  0  0  0  0  0  0  0  0  0  0
  1  2  1  0
  2  3  1  0
  3  4  2  0
  3  5  1  0
  5  6  1  0
  6  7  1  0
  7  8  2  0
  8  9  1  0
  9 10  2  0
 10 11  1  0
 11 12  2  0
 12 13  1  0
 13 14  1  0
 13 15  2  0
 12 16  1  0
 16 17  1  0
 17 18  2  0
 17 19  1  0
 19 20  1  0
 20 21  1  0
 21 22  1  0
 22 23  1  0
 23 24  2  0
 23 25  1  0
 16 26  1  0
 26 27  2  0
 27  7  1  0
 26 10  1  0
  1 28  1  0
  1 29  1  0
  1 30  1  0
  5 31  1  0
  5 32  1  0
  6 33  1  0
  6 34  1  0
  8 35  1  0
  9 36  1  0
 11 37  1  0
 14 38  1  0
 20 39  1  0
 20 40  1  0
 21 41  1  0
 21 42  1  0
 22 43  1  0
 22 44  1  0
 27 45  1  0
M  CHG  2  14  -1  25  -1
M  END
>  <UniqueID>  (34) 
34

>  <SMILES>  (34) 
COC(=O)CCc1ccc2cc(C([NH-])=O)n(C(=O)SCCCC(=O)[O-])c2c1

>  <Energy>  (34) 
68.24454093807616

>  <Genealogy>  (34) 
COC(=O)CCc1ccc2cc(C([NH-])=O)n(C(=O)SCCCC(=O)[O-])c2c1 (protonated)
COC(=O)CCc1ccc2cc(C([NH-])=O)n(C(=O)SCCCC(=O)[O-])c2c1 (3D coordinates assigned)
COC(=O)CCc1ccc2cc(C([NH-])=O)n(C(=O)SCCCC(=O)[O-])c2c1 (optimized conformer: 68.24454093807616 kcal/mol)

>  <smiles>  (34) 
COC(=O)CCc1ccc2cc(C(N)=O)n(C(=O)SCCCC(=O)O)c2c1

>  <score_type>  (34) 
oracle

>  <origin>  (34) 
adg

>  <m_score__min__energy>  (34) 
-7.2199999999999998

>  <m_primary>  (34) 
energy

$$$$
34:0
     RDKit          3D

 58 60  0  0  0  0  0  0  0  0999 V2000
  145.6980  160.0890  133.3200 C   0  0  0  0  0  0  0  0  0  0  0  0
  147.1170  159.5190  133.1620 C   0  0  0  0  0  0  0  0  0  0  0  0
  147.8900  160.2920  132.0830 C   0  0  0  0  0  0  0  0  0  0  0  0
  147.0560  158.1400  132.7970 O   0  0  0  0  0  0  0  0  0  0  0  0
  147.7540  157.1330  133.4640 C   0  0  0  0  0  0  0  0  0  0  0  0
  148.4550  157.4050  134.4740 O   0  0  0  0  0  0  0  0  0  0  0  0
  147.7100  155.7300  132.9340 C   0  0  0  0  0  0  0  0  0  0  0  0
  146.6440  155.5760  131.9220 N   0  0  0  0  0  0  0  0  0  0  0  0
  145.3740  155.0050  132.4280 C   0  0  1  0  0  0  0  0  0  0  0  0
  145.5370  153.5550  132.9680 C   0  0  0  0  0  0  0  0  0  0  0  0
  144.3020  153.1370  133.7720 C   0  0  0  0  0  0  0  0  0  0  0  0
  144.1050  154.0320  135.0320 C   0  0  2  0  0  0  0  0  0  0  0  0
  142.6510  154.1260  135.4520 C   0  0  0  0  0  0  0  0  0  0  0  0
  142.2830  153.7430  136.5930 O   0  0  0  0  0  0  0  0  0  0  0  0
  141.6580  154.5320  134.4990 N   0  0  0  0  0  0  0  0  0  0  0  0
  140.8950  153.7450  133.6900 C   0  0  0  0  0  0  0  0  0  0  0  0
  141.0360  152.2870  133.5250 C   0  0  0  0  0  0  0  0  0  0  0  0
  141.3940  151.4570  134.6300 N   0  0  0  0  0  0  0  0  0  0  0  0
  140.8710  151.7710  132.3860 O   0  0  0  0  0  0  0  0  0  0  0  0
  139.9850  154.5230  132.9770 C   0  0  0  0  0  0  0  0  0  0  0  0
  140.2280  155.8210  133.3680 C   0  0  0  0  0  0  0  0  0  0  0  0
  139.6140  157.0060  132.9800 C   0  0  0  0  0  0  0  0  0  0  0  0
  140.0560  158.2000  133.5760 C   0  0  0  0  0  0  0  0  0  0  0  0
  141.1120  158.1930  134.5270 C   0  0  0  0  0  0  0  0  0  0  0  0
  141.5300  159.4830  135.1800 C   0  0  0  0  0  0  0  0  0  0  0  0
  141.4340  160.5140  134.2660 F   0  0  0  0  0  0  0  0  0  0  0  0
  142.8440  159.3900  135.6110 F   0  0  0  0  0  0  0  0  0  0  0  0
  140.7310  159.7720  136.2710 F   0  0  0  0  0  0  0  0  0  0  0  0
  141.7080  156.9650  134.8940 C   0  0  0  0  0  0  0  0  0  0  0  0
  141.2460  155.7930  134.2830 C   0  0  0  0  0  0  0  0  0  0  0  0
  144.7140  155.4510  134.8720 C   0  0  0  0  0  0  0  0  0  0  0  0
  144.6270  155.9490  133.4210 C   0  0  0  0  0  0  0  0  0  0  0  0
  145.4585  160.1852  134.3893 H   0  0  0  0  0  0  0  0  0  0  0  0
  145.6449  161.0782  132.8419 H   0  0  0  0  0  0  0  0  0  0  0  0
  144.9753  159.4114  132.8419 H   0  0  0  0  0  0  0  0  0  0  0  0
  147.6379  159.6224  134.1253 H   0  0  0  0  0  0  0  0  0  0  0  0
  148.5897  160.9917  132.5635 H   0  0  0  0  0  0  0  0  0  0  0  0
  148.4520  159.5839  131.4564 H   0  0  0  0  0  0  0  0  0  0  0  0
  147.1819  160.8540  131.4564 H   0  0  0  0  0  0  0  0  0  0  0  0
  148.6797  155.4894  132.4737 H   0  0  0  0  0  0  0  0  0  0  0  0
  147.4987  155.0474  133.7703 H   0  0  0  0  0  0  0  0  0  0  0  0
  146.4330  156.5180  131.5050 H   0  0  0  0  0  0  0  0  0  0  0  0
  146.9950  154.9650  131.1420 H   0  0  0  0  0  0  0  0  0  0  0  0
  144.7141  154.9253  131.5515 H   0  0  0  0  0  0  0  0  0  0  0  0
  146.4237  153.5086  133.6173 H   0  0  0  0  0  0  0  0  0  0  0  0
  145.6535  152.8700  132.1152 H   0  0  0  0  0  0  0  0  0  0  0  0
  144.4223  152.0916  134.0925 H   0  0  0  0  0  0  0  0  0  0  0  0
  143.4180  153.2524  133.1276 H   0  0  0  0  0  0  0  0  0  0  0  0
  144.6611  153.5246  135.8341 H   0  0  0  0  0  0  0  0  0  0  0  0
  141.7350  151.8680  135.5220 H   0  0  0  0  0  0  0  0  0  0  0  0
  139.2321  154.1743  132.2549 H   0  0  0  0  0  0  0  0  0  0  0  0
  138.8084  157.0095  132.2310 H   0  0  0  0  0  0  0  0  0  0  0  0
  139.5781  159.1523  133.3026 H   0  0  0  0  0  0  0  0  0  0  0  0
  142.5147  156.9310  135.6410 H   0  0  0  0  0  0  0  0  0  0  0  0
  145.7709  155.4212  135.1754 H   0  0  0  0  0  0  0  0  0  0  0  0
  144.1401  156.1429  135.5059 H   0  0  0  0  0  0  0  0  0  0  0  0
  145.0764  156.9513  133.3629 H   0  0  0  0  0  0  0  0  0  0  0  0
  143.5653  155.9691  133.1340 H   0  0  0  0  0  0  0  0  0  0  0  0
  1  2  1  0
  2  3  1  0
  2  4  1  0
  4  5  1  0
  5  6  2  0
  5  7  1  0
  7  8  1  0
  8  9  1  0
  9 10  1  0
 10 11  1  0
 11 12  1  0
 12 13  1  0
 13 14  2  0
 13 15  1  0
 15 16  1  0
 16 17  1  0
 17 18  1  0
 17 19  2  0
 16 20  2  0
 20 21  1  0
 21 22  2  0
 22 23  1  0
 23 24  2  0
 24 25  1  0
 25 26  1  0
 25 27  1  0
 25 28  1  0
 24 29  1  0
 29 30  2  0
 12 31  1  0
 31 32  1  0
 32  9  1  0
 30 15  1  0
 30 21  1  0
  1 33  1  0
  1 34  1  0
  1 35  1  0
  2 36  1  0
  3 37  1  0
  3 38  1  0
  3 39  1  0
  7 40  1  0
  7 41  1  0
  8 42  1  0
  8 43  1  0
  9 44  1  6
 10 45  1  0
 10 46  1  0
 11 47  1  0
 11 48  1  0
 12 49  1  1
 18 50  1  0
 20 51  1  0
 22 52  1  0
 23 53  1  0
 29 54  1  0
 31 55  1  0
 31 56  1  0
 32 57  1  0
 32 58  1  0
M  CHG  2   8   1  18  -1
M  END
>  <UniqueID>  (35) 
35

>  <SMILES>  (35) 
CC(C)OC(=O)C[NH2+]C1CCC(C(=O)n2c(C([NH-])=O)cc3ccc(C(F)(F)F)cc32)CC1

>  <Energy>  (35) 
101.37043266153246

>  <Genealogy>  (35) 
CC(C)OC(=O)C[NH2+]C1CCC(C(=O)n2c(C([NH-])=O)cc3ccc(C(F)(F)F)cc32)CC1 (protonated)
CC(C)OC(=O)C[NH2+]C1CCC(C(=O)n2c(C([NH-])=O)cc3ccc(C(F)(F)F)cc32)CC1 (3D coordinates assigned)
CC(C)OC(=O)C[NH2+]C1CCC(C(=O)n2c(C([NH-])=O)cc3ccc(C(F)(F)F)cc32)CC1 (nonaromatic ring conformer: 101.37043266153246 kcal/mol)

>  <smiles>  (35) 
CC(C)OC(=O)CNC1CCC(C(=O)n2c(C(N)=O)cc3ccc(C(F)(F)F)cc32)CC1

>  <score_type>  (35) 
oracle

>  <origin>  (35) 
adg

>  <m_score__min__energy>  (35) 
-8.5999999999999996

>  <m_primary>  (35) 
energy

$$$$
35:0
     RDKit          3D

 32 33  0  0  0  0  0  0  0  0999 V2000
  147.8900  154.9170  135.4200 N   0  0  0  0  0  0  0  0  0  0  0  0
  146.7510  154.2020  135.8940 C   0  0  0  0  0  0  0  0  0  0  0  0
  146.8940  153.2840  136.7440 O   0  0  0  0  0  0  0  0  0  0  0  0
  145.3880  154.5780  135.4200 C   0  0  0  0  0  0  0  0  0  0  0  0
  145.3330  155.9860  135.2250 O   0  0  0  0  0  0  0  0  0  0  0  0
  145.7130  156.6020  134.0300 C   0  0  0  0  0  0  0  0  0  0  0  0
  146.2830  155.9330  133.1250 O   0  0  0  0  0  0  0  0  0  0  0  0
  145.4590  158.0030  133.8350 N   0  0  0  0  0  0  0  0  0  0  0  0
  146.3760  159.0050  133.7220 C   0  0  0  0  0  0  0  0  0  0  0  0
  147.8400  158.8320  133.6190 C   0  0  0  0  0  0  0  0  0  0  0  0
  148.4720  157.6190  134.0300 N   0  0  0  0  0  0  0  0  0  0  0  0
  148.5360  159.7490  133.1080 O   0  0  0  0  0  0  0  0  0  0  0  0
  145.7470  160.2450  133.6640 C   0  0  0  0  0  0  0  0  0  0  0  0
  144.4000  159.9710  133.7300 C   0  0  0  0  0  0  0  0  0  0  0  0
  143.3120  160.8380  133.7380 C   0  0  0  0  0  0  0  0  0  0  0  0
  142.0280  160.2830  133.8620 C   0  0  0  0  0  0  0  0  0  0  0  0
  141.8510  158.8790  133.9690 C   0  0  0  0  0  0  0  0  0  0  0  0
  140.4720  158.3010  134.1660 C   0  0  0  0  0  0  0  0  0  0  0  0
  139.6010  158.7750  133.2000 F   0  0  0  0  0  0  0  0  0  0  0  0
  140.5390  156.9230  134.0740 F   0  0  0  0  0  0  0  0  0  0  0  0
  139.9700  158.6470  135.4070 F   0  0  0  0  0  0  0  0  0  0  0  0
  142.9850  158.0330  133.9840 C   0  0  0  0  0  0  0  0  0  0  0  0
  144.2520  158.6110  133.8350 C   0  0  0  0  0  0  0  0  0  0  0  0
  147.8130  155.5720  134.6110 H   0  0  0  0  0  0  0  0  0  0  0  0
  145.1746  154.0663  134.4699 H   0  0  0  0  0  0  0  0  0  0  0  0
  144.6403  154.2790  136.1694 H   0  0  0  0  0  0  0  0  0  0  0  0
  149.5110  157.5290  133.9850 H   0  0  0  0  0  0  0  0  0  0  0  0
  147.9100  156.7810  134.2960 H   0  0  0  0  0  0  0  0  0  0  0  0
  146.2243  161.2327  133.5828 H   0  0  0  0  0  0  0  0  0  0  0  0
  143.4532  161.9253  133.6499 H   0  0  0  0  0  0  0  0  0  0  0  0
  141.1491  160.9443  133.8764 H   0  0  0  0  0  0  0  0  0  0  0  0
  142.8740  156.9459  134.1098 H   0  0  0  0  0  0  0  0  0  0  0  0
  1  2  1  0
  2  3  2  0
  2  4  1  0
  4  5  1  0
  5  6  1  0
  6  7  2  0
  6  8  1  0
  8  9  1  0
  9 10  1  0
 10 11  1  0
 10 12  2  0
  9 13  2  0
 13 14  1  0
 14 15  2  0
 15 16  1  0
 16 17  2  0
 17 18  1  0
 18 19  1  0
 18 20  1  0
 18 21  1  0
 17 22  1  0
 22 23  2  0
 23  8  1  0
 23 14  1  0
  1 24  1  0
  4 25  1  0
  4 26  1  0
 11 27  1  0
 11 28  1  0
 13 29  1  0
 15 30  1  0
 16 31  1  0
 22 32  1  0
M  CHG  1   1  -1
M  END
>  <UniqueID>  (36) 
36

>  <SMILES>  (36) 
[NH-]C(=O)COC(=O)n1c(C(N)=O)cc2ccc(C(F)(F)F)cc21

>  <Energy>  (36) 
68.33362848482112

>  <Genealogy>  (36) 
[NH-]C(=O)COC(=O)n1c(C(N)=O)cc2ccc(C(F)(F)F)cc21 (protonated)
[NH-]C(=O)COC(=O)n1c(C(N)=O)cc2ccc(C(F)(F)F)cc21 (3D coordinates assigned)
[NH-]C(=O)COC(=O)n1c(C(N)=O)cc2ccc(C(F)(F)F)cc21 (optimized conformer: 68.33362848482112 kcal/mol)

>  <smiles>  (36) 
NC(=O)COC(=O)n1c(C(N)=O)cc2ccc(C(F)(F)F)cc21

>  <score_type>  (36) 
oracle

>  <origin>  (36) 
adg

>  <m_score__min__energy>  (36) 
-5.6699999999999999

>  <m_primary>  (36) 
energy

$$$$
36:0
     RDKit          3D

 29 30  0  0  0  0  0  0  0  0999 V2000
  143.5020  160.1360  133.4200 N   0  0  0  0  0  0  0  0  0  0  0  0
  144.9020  159.9320  133.5990 C   0  0  0  0  0  0  0  0  0  0  0  0
  145.6380  160.9160  133.8760 O   0  0  0  0  0  0  0  0  0  0  0  0
  145.4750  158.5780  133.4400 C   0  0  0  0  0  0  0  0  0  0  0  0
  144.7210  157.4060  133.4770 C   0  0  0  0  0  0  0  0  0  0  0  0
  145.6190  156.3880  133.2480 C   0  0  0  0  0  0  0  0  0  0  0  0
  145.4220  155.0110  133.2060 C   0  0  0  0  0  0  0  0  0  0  0  0
  146.5420  154.1910  132.9870 C   0  0  0  0  0  0  0  0  0  0  0  0
  147.8320  154.7570  132.8060 C   0  0  0  0  0  0  0  0  0  0  0  0
  149.0350  153.8640  132.6340 C   0  0  0  0  0  0  0  0  0  0  0  0
  149.2000  153.0480  133.7390 F   0  0  0  0  0  0  0  0  0  0  0  0
  150.1850  154.6200  132.4790 F   0  0  0  0  0  0  0  0  0  0  0  0
  148.8590  153.0760  131.5120 F   0  0  0  0  0  0  0  0  0  0  0  0
  147.9940  156.1600  132.8830 C   0  0  0  0  0  0  0  0  0  0  0  0
  146.8570  156.9500  133.0830 C   0  0  0  0  0  0  0  0  0  0  0  0
  146.7850  158.2930  133.1950 N   0  0  0  0  0  0  0  0  0  0  0  0
  147.8810  159.2150  133.1160 C   0  0  0  0  0  0  0  0  0  0  0  0
  148.7030  159.2930  134.0670 O   0  0  0  0  0  0  0  0  0  0  0  0
  148.0260  160.1270  131.9350 C   0  0  0  0  0  0  0  0  0  0  0  0
  149.2280  159.7360  131.1380 C   0  0  0  0  0  0  0  0  0  0  0  0
  149.5970  158.5330  131.0960 O   0  0  0  0  0  0  0  0  0  0  0  0
  149.9140  160.6920  130.4000 O   0  0  0  0  0  0  0  0  0  0  0  0
  143.0010  159.7280  132.6000 H   0  0  0  0  0  0  0  0  0  0  0  0
  143.6389  157.3142  133.6519 H   0  0  0  0  0  0  0  0  0  0  0  0
  144.4199  154.5776  133.3401 H   0  0  0  0  0  0  0  0  0  0  0  0
  146.4182  153.0984  132.9554 H   0  0  0  0  0  0  0  0  0  0  0  0
  148.9894  156.6185  132.7880 H   0  0  0  0  0  0  0  0  0  0  0  0
  147.1287  160.0518  131.3032 H   0  0  0  0  0  0  0  0  0  0  0  0
  148.1452  161.1620  132.2879 H   0  0  0  0  0  0  0  0  0  0  0  0
  1  2  1  0
  2  3  2  0
  2  4  1  0
  4  5  2  0
  5  6  1  0
  6  7  2  0
  7  8  1  0
  8  9  2  0
  9 10  1  0
 10 11  1  0
 10 12  1  0
 10 13  1  0
  9 14  1  0
 14 15  2  0
 15 16  1  0
 16 17  1  0
 17 18  2  0
 17 19  1  0
 19 20  1  0
 20 21  2  0
 20 22  1  0
 16  4  1  0
 15  6  1  0
  1 23  1  0
  5 24  1  0
  7 25  1  0
  8 26  1  0
 14 27  1  0
 19 28  1  0
 19 29  1  0
M  CHG  2   1  -1  22  -1
M  END
>  <UniqueID>  (37) 
37

>  <SMILES>  (37) 
[NH-]C(=O)c1cc2ccc(C(F)(F)F)cc2n1C(=O)CC(=O)[O-]

>  <Energy>  (37) 
67.42058757694689

>  <Genealogy>  (37) 
[NH-]C(=O)c1cc2ccc(C(F)(F)F)cc2n1C(=O)CC(=O)[O-] (protonated)
[NH-]C(=O)c1cc2ccc(C(F)(F)F)cc2n1C(=O)CC(=O)[O-] (3D coordinates assigned)
[NH-]C(=O)c1cc2ccc(C(F)(F)F)cc2n1C(=O)CC(=O)[O-] (optimized conformer: 67.42058757694689 kcal/mol)

>  <smiles>  (37) 
NC(=O)c1cc2ccc(C(F)(F)F)cc2n1C(=O)CC(=O)O

>  <score_type>  (37) 
oracle

>  <origin>  (37) 
adg

>  <m_score__min__energy>  (37) 
-5.8600000000000003

>  <m_primary>  (37) 
energy

$$$$
37:0
     RDKit          3D

 35 36  0  0  0  0  0  0  0  0999 V2000
  140.9380  156.5930  133.0680 N   0  0  0  0  0  0  0  0  0  0  0  0
  141.5740  157.2550  134.1580 C   0  0  0  0  0  0  0  0  0  0  0  0
  141.0810  157.1540  135.3130 O   0  0  0  0  0  0  0  0  0  0  0  0
  142.8310  158.0050  133.9610 C   0  0  0  0  0  0  0  0  0  0  0  0
  142.9280  159.3880  134.1060 C   0  0  0  0  0  0  0  0  0  0  0  0
  144.2630  159.6790  133.9390 C   0  0  0  0  0  0  0  0  0  0  0  0
  144.9210  160.9050  133.9640 C   0  0  0  0  0  0  0  0  0  0  0  0
  146.3060  160.9130  133.7260 C   0  0  0  0  0  0  0  0  0  0  0  0
  147.0050  159.7050  133.4740 C   0  0  0  0  0  0  0  0  0  0  0  0
  148.4830  159.7360  133.1790 C   0  0  1  0  0  0  0  0  0  0  0  0
  149.1870  159.2270  134.2590 F   0  0  0  0  0  0  0  0  0  0  0  0
  148.7970  158.9210  131.9160 C   0  0  0  0  0  0  0  0  0  0  0  0
  149.7370  157.8360  132.1940 N   0  0  0  0  0  0  0  0  0  0  0  0
  146.2980  158.4810  133.4440 C   0  0  0  0  0  0  0  0  0  0  0  0
  144.9210  158.5010  133.7000 C   0  0  0  0  0  0  0  0  0  0  0  0
  144.0560  157.4640  133.7050 N   0  0  0  0  0  0  0  0  0  0  0  0
  144.3670  156.0960  133.3970 C   0  0  0  0  0  0  0  0  0  0  0  0
  143.5290  155.3850  132.7790 O   0  0  0  0  0  0  0  0  0  0  0  0
  145.6100  155.5320  133.8280 N   0  0  0  0  0  0  0  0  0  0  0  0
  146.6440  155.0640  132.9130 C   0  0  0  0  0  0  0  0  0  0  0  0
  147.9780  155.6050  133.3170 C   0  0  0  0  0  0  0  0  0  0  0  0
  149.0000  155.3580  132.6260 O   0  0  0  0  0  0  0  0  0  0  0  0
  148.0860  156.4160  134.4400 O   0  0  0  0  0  0  0  0  0  0  0  0
  141.4820  155.9860  132.4160 H   0  0  0  0  0  0  0  0  0  0  0  0
  142.1114  160.0961  134.3104 H   0  0  0  0  0  0  0  0  0  0  0  0
  144.3743  161.8384  134.1638 H   0  0  0  0  0  0  0  0  0  0  0  0
  146.8540  161.8667  133.7353 H   0  0  0  0  0  0  0  0  0  0  0  0
  148.7873  160.7788  133.0060 H   0  0  0  0  0  0  0  0  0  0  0  0
  147.8619  158.4919  131.5267 H   0  0  0  0  0  0  0  0  0  0  0  0
  149.2580  159.5944  131.1784 H   0  0  0  0  0  0  0  0  0  0  0  0
  149.6070  157.0810  131.4820 H   0  0  0  0  0  0  0  0  0  0  0  0
  149.5170  157.4310  133.1340 H   0  0  0  0  0  0  0  0  0  0  0  0
  146.8167  157.5360  133.2250 H   0  0  0  0  0  0  0  0  0  0  0  0
  146.6767  153.9647  132.9341 H   0  0  0  0  0  0  0  0  0  0  0  0
  146.4084  155.4146  131.8973 H   0  0  0  0  0  0  0  0  0  0  0  0
  1  2  1  0
  2  3  2  0
  2  4  1  0
  4  5  2  0
  5  6  1  0
  6  7  2  0
  7  8  1  0
  8  9  2  0
  9 10  1  0
 10 11  1  0
 10 12  1  0
 12 13  1  0
  9 14  1  0
 14 15  2  0
 15 16  1  0
 16 17  1  0
 17 18  2  0
 17 19  1  0
 19 20  1  0
 20 21  1  0
 21 22  2  0
 21 23  1  0
 16  4  1  0
 15  6  1  0
  1 24  1  0
  5 25  1  0
  7 26  1  0
  8 27  1  0
 10 28  1  6
 12 29  1  0
 12 30  1  0
 13 31  1  0
 13 32  1  0
 14 33  1  0
 20 34  1  0
 20 35  1  0
M  CHG  3   1  -1  19  -1  23  -1
M  END
>  <UniqueID>  (38) 
38

>  <SMILES>  (38) 
[NH-]C(=O)c1cc2ccc([C@@H](F)CN)cc2n1C(=O)[N-]CC(=O)[O-]

>  <Energy>  (38) 
69.05846831225988

>  <Genealogy>  (38) 
[NH-]C(=O)c1cc2ccc(C(F)CN)cc2n1C(=O)[N-]CC(=O)[O-] (protonated)
[NH-]C(=O)c1cc2ccc([C@@H](F)CN)cc2n1C(=O)[N-]CC(=O)[O-] (chirality)
[NH-]C(=O)c1cc2ccc([C@@H](F)CN)cc2n1C(=O)[N-]CC(=O)[O-] (3D coordinates assigned)
[NH-]C(=O)c1cc2ccc([C@@H](F)CN)cc2n1C(=O)[N-]CC(=O)[O-] (optimized conformer: 69.05846831225988 kcal/mol)

>  <smiles>  (38) 
NCC(F)c1ccc2cc(C(N)=O)n(C(=O)NCC(=O)O)c2c1

>  <score_type>  (38) 
oracle

>  <origin>  (38) 
adg

>  <m_score__min__energy>  (38) 
-5.6600000000000001

>  <m_primary>  (38) 
energy

$$$$
38:0
     RDKit          3D

 29 30  0  0  0  0  0  0  0  0999 V2000
  149.0820  158.4990  131.2790 N   0  0  0  0  0  0  0  0  0  0  0  0
  148.7090  159.0040  132.5590 C   0  0  0  0  0  0  0  0  0  0  0  0
  149.6070  159.2900  133.3950 O   0  0  0  0  0  0  0  0  0  0  0  0
  147.2870  159.1610  132.9280 C   0  0  0  0  0  0  0  0  0  0  0  0
  146.6470  160.3950  133.0410 C   0  0  0  0  0  0  0  0  0  0  0  0
  145.3690  160.1050  133.4660 C   0  0  0  0  0  0  0  0  0  0  0  0
  144.2940  160.9510  133.7240 C   0  0  0  0  0  0  0  0  0  0  0  0
  143.0790  160.3680  134.1230 C   0  0  0  0  0  0  0  0  0  0  0  0
  142.9620  158.9610  134.2730 C   0  0  0  0  0  0  0  0  0  0  0  0
  141.6360  158.3470  134.6460 C   0  0  0  0  0  0  0  0  0  0  0  0
  141.6750  156.9890  134.3890 F   0  0  0  0  0  0  0  0  0  0  0  0
  141.3660  158.5450  135.9890 F   0  0  0  0  0  0  0  0  0  0  0  0
  140.6120  158.9170  133.9090 F   0  0  0  0  0  0  0  0  0  0  0  0
  144.0710  158.1350  133.9770 C   0  0  0  0  0  0  0  0  0  0  0  0
  145.2680  158.7450  133.5920 C   0  0  0  0  0  0  0  0  0  0  0  0
  146.4340  158.1530  133.2620 N   0  0  0  0  0  0  0  0  0  0  0  0
  146.6700  156.7390  133.2080 C   0  0  0  0  0  0  0  0  0  0  0  0
  145.8440  155.9900  132.6230 O   0  0  0  0  0  0  0  0  0  0  0  0
  147.9530  156.1630  133.7380 C   0  0  0  0  0  0  0  0  0  0  0  0
  149.0220  156.2820  132.7500 N   0  0  0  0  0  0  0  0  0  0  0  0
  149.1510  157.4710  131.1080 H   0  0  0  0  0  0  0  0  0  0  0  0
  147.0721  161.3883  132.8347 H   0  0  0  0  0  0  0  0  0  0  0  0
  144.3924  162.0415  133.6189 H   0  0  0  0  0  0  0  0  0  0  0  0
  142.2079  161.0097  134.3215 H   0  0  0  0  0  0  0  0  0  0  0  0
  143.9935  157.0400  134.0480 H   0  0  0  0  0  0  0  0  0  0  0  0
  148.2426  156.7059  134.6498 H   0  0  0  0  0  0  0  0  0  0  0  0
  147.7957  155.0973  133.9607 H   0  0  0  0  0  0  0  0  0  0  0  0
  148.5960  156.4500  131.8090 H   0  0  0  0  0  0  0  0  0  0  0  0
  149.6060  157.1170  132.9870 H   0  0  0  0  0  0  0  0  0  0  0  0
  1  2  1  0
  2  3  2  0
  2  4  1  0
  4  5  2  0
  5  6  1  0
  6  7  2  0
  7  8  1  0
  8  9  2  0
  9 10  1  0
 10 11  1  0
 10 12  1  0
 10 13  1  0
  9 14  1  0
 14 15  2  0
 15 16  1  0
 16 17  1  0
 17 18  2  0
 17 19  1  0
 19 20  1  0
 16  4  1  0
 15  6  1  0
  1 21  1  0
  5 22  1  0
  7 23  1  0
  8 24  1  0
 14 25  1  0
 19 26  1  0
 19 27  1  0
 20 28  1  0
 20 29  1  0
M  CHG  1   1  -1
M  END
>  <UniqueID>  (39) 
39

>  <SMILES>  (39) 
[NH-]C(=O)c1cc2ccc(C(F)(F)F)cc2n1C(=O)CN

>  <Energy>  (39) 
68.32151598972042

>  <Genealogy>  (39) 
[NH-]C(=O)c1cc2ccc(C(F)(F)F)cc2n1C(=O)CN (protonated)
[NH-]C(=O)c1cc2ccc(C(F)(F)F)cc2n1C(=O)CN (3D coordinates assigned)
[NH-]C(=O)c1cc2ccc(C(F)(F)F)cc2n1C(=O)CN (optimized conformer: 68.32151598972042 kcal/mol)

>  <smiles>  (39) 
NCC(=O)n1c(C(N)=O)cc2ccc(C(F)(F)F)cc21

>  <score_type>  (39) 
oracle

>  <origin>  (39) 
adg

>  <m_score__min__energy>  (39) 
-5.3700000000000001

>  <m_primary>  (39) 
energy

$$$$
39:0
     RDKit          3D

 38 39  0  0  0  0  0  0  0  0999 V2000
  150.3310  159.3650  131.0440 C   0  0  0  0  0  0  0  0  0  0  0  0
  148.9800  159.8250  131.3890 N   0  0  0  0  0  0  0  0  0  0  0  0
  148.5310  161.1350  130.9000 C   0  0  0  0  0  0  0  0  0  0  0  0
  148.1000  158.9960  132.1960 C   0  0  0  0  0  0  0  0  0  0  0  0
  146.9720  159.5600  132.8600 C   0  0  0  0  0  0  0  0  0  0  0  0
  146.1240  158.7680  133.6530 C   0  0  0  0  0  0  0  0  0  0  0  0
  146.4110  157.4130  133.7640 C   0  0  0  0  0  0  0  0  0  0  0  0
  145.7790  156.4280  134.4880 C   0  0  0  0  0  0  0  0  0  0  0  0
  146.5080  155.2640  134.2440 C   0  0  0  0  0  0  0  0  0  0  0  0
  146.1380  153.9390  134.7850 C   0  0  0  0  0  0  0  0  0  0  0  0
  145.4430  152.9860  133.9860 N   0  0  0  0  0  0  0  0  0  0  0  0
  146.4110  153.6550  135.9820 O   0  0  0  0  0  0  0  0  0  0  0  0
  147.5470  155.5240  133.4030 N   0  0  0  0  0  0  0  0  0  0  0  0
  148.5720  154.6220  132.9610 C   0  0  0  0  0  0  0  0  0  0  0  0
  149.6170  155.0780  132.4220 O   0  0  0  0  0  0  0  0  0  0  0  0
  148.3950  153.2070  133.1150 N   0  0  0  0  0  0  0  0  0  0  0  0
  149.2220  152.2250  132.4150 C   0  0  0  0  0  0  0  0  0  0  0  0
  148.4490  150.9240  132.2170 C   0  0  0  0  0  0  0  0  0  0  0  0
  147.0750  151.1530  132.3700 O   0  0  0  0  0  0  0  0  0  0  0  0
  147.4750  156.8430  133.1220 C   0  0  0  0  0  0  0  0  0  0  0  0
  148.3500  157.6080  132.3440 C   0  0  0  0  0  0  0  0  0  0  0  0
  150.8991  159.1716  131.9659 H   0  0  0  0  0  0  0  0  0  0  0  0
  150.2636  158.4392  130.4538 H   0  0  0  0  0  0  0  0  0  0  0  0
  150.8425  160.1396  130.4538 H   0  0  0  0  0  0  0  0  0  0  0  0
  148.3069  161.7887  131.7558 H   0  0  0  0  0  0  0  0  0  0  0  0
  149.3245  161.5899  130.2889 H   0  0  0  0  0  0  0  0  0  0  0  0
  147.6253  161.0075  130.2889 H   0  0  0  0  0  0  0  0  0  0  0  0
  146.7614  160.6340  132.7499 H   0  0  0  0  0  0  0  0  0  0  0  0
  145.2587  159.2078  134.1705 H   0  0  0  0  0  0  0  0  0  0  0  0
  144.8881  156.5357  135.1241 H   0  0  0  0  0  0  0  0  0  0  0  0
  145.8840  152.0750  133.7300 H   0  0  0  0  0  0  0  0  0  0  0  0
  147.5660  152.8610  133.6490 H   0  0  0  0  0  0  0  0  0  0  0  0
  149.5108  152.6282  131.4331 H   0  0  0  0  0  0  0  0  0  0  0  0
  150.1191  152.0193  133.0174 H   0  0  0  0  0  0  0  0  0  0  0  0
  148.6429  150.5356  131.2063 H   0  0  0  0  0  0  0  0  0  0  0  0
  148.7781  150.1913  132.9686 H   0  0  0  0  0  0  0  0  0  0  0  0
  146.9590  151.5250  133.2820 H   0  0  0  0  0  0  0  0  0  0  0  0
  149.2176  157.1408  131.8551 H   0  0  0  0  0  0  0  0  0  0  0  0
  1  2  1  0
  2  3  1  0
  2  4  1  0
  4  5  2  0
  5  6  1  0
  6  7  2  0
  7  8  1  0
  8  9  2  0
  9 10  1  0
 10 11  1  0
 10 12  2  0
  9 13  1  0
 13 14  1  0
 14 15  2  0
 14 16  1  0
 16 17  1  0
 17 18  1  0
 18 19  1  0
 13 20  1  0
 20 21  2  0
 21  4  1  0
 20  7  1  0
  1 22  1  0
  1 23  1  0
  1 24  1  0
  3 25  1  0
  3 26  1  0
  3 27  1  0
  5 28  1  0
  6 29  1  0
  8 30  1  0
 11 31  1  0
 16 32  1  0
 17 33  1  0
 17 34  1  0
 18 35  1  0
 18 36  1  0
 19 37  1  0
 21 38  1  0
M  CHG  1  11  -1
M  END
>  <UniqueID>  (40) 
40

>  <SMILES>  (40) 
CN(C)c1ccc2cc(C([NH-])=O)n(C(=O)NCCO)c2c1

>  <Energy>  (40) 
73.64459172709647

>  <Genealogy>  (40) 
CN(C)c1ccc2cc(C([NH-])=O)n(C(=O)NCCO)c2c1 (protonated)
CN(C)c1ccc2cc(C([NH-])=O)n(C(=O)NCCO)c2c1 (3D coordinates assigned)
CN(C)c1ccc2cc(C([NH-])=O)n(C(=O)NCCO)c2c1 (optimized conformer: 73.64459172709647 kcal/mol)

>  <smiles>  (40) 
CN(C)c1ccc2cc(C(N)=O)n(C(=O)NCCO)c2c1

>  <score_type>  (40) 
oracle

>  <origin>  (40) 
adg

>  <m_score__min__energy>  (40) 
-6.0800000000000001

>  <m_primary>  (40) 
energy

$$$$
40:0
     RDKit          3D

 34 36  0  0  0  0  0  0  0  0999 V2000
  149.6000  156.8400  132.4310 N   0  0  0  0  0  0  0  0  0  0  0  0
  148.4760  156.0830  132.8720 C   0  0  0  0  0  0  0  0  0  0  0  0
  148.6180  154.8540  133.1100 O   0  0  0  0  0  0  0  0  0  0  0  0
  147.1590  156.7220  133.0810 C   0  0  0  0  0  0  0  0  0  0  0  0
  145.9550  156.0180  133.1110 C   0  0  0  0  0  0  0  0  0  0  0  0
  144.9870  156.9600  133.3740 C   0  0  0  0  0  0  0  0  0  0  0  0
  143.6070  156.8200  133.4940 C   0  0  0  0  0  0  0  0  0  0  0  0
  142.8470  157.9770  133.7360 C   0  0  0  0  0  0  0  0  0  0  0  0
  143.4740  159.2420  133.8520 C   0  0  0  0  0  0  0  0  0  0  0  0
  142.6490  160.4800  134.0680 C   0  0  0  0  0  0  0  0  0  0  0  0
  141.2220  160.1100  134.3120 C   0  0  0  0  0  0  0  0  0  0  0  0
  140.4010  160.0850  133.3580 O   0  0  0  0  0  0  0  0  0  0  0  0
  140.8070  159.7450  135.5880 O   0  0  0  0  0  0  0  0  0  0  0  0
  144.8750  159.3460  133.7100 C   0  0  0  0  0  0  0  0  0  0  0  0
  145.6080  158.1770  133.4910 C   0  0  0  0  0  0  0  0  0  0  0  0
  146.9410  158.0460  133.3170 N   0  0  0  0  0  0  0  0  0  0  0  0
  147.9090  159.1060  133.3220 C   0  0  0  0  0  0  0  0  0  0  0  0
  148.8280  159.1070  134.1860 O   0  0  0  0  0  0  0  0  0  0  0  0
  147.7960  160.2470  132.3530 C   0  0  0  0  0  0  0  0  0  0  0  0
  148.9010  160.2140  131.3420 C   0  0  0  0  0  0  0  0  0  0  0  0
  148.8890  160.8790  130.1710 N   0  0  0  0  0  0  0  0  0  0  0  0
  150.0380  160.5650  129.5900 N   0  0  0  0  0  0  0  0  0  0  0  0
  150.7270  159.7390  130.3640 N   0  0  0  0  0  0  0  0  0  0  0  0
  150.0330  159.5040  131.4630 N   0  0  0  0  0  0  0  0  0  0  0  0
  149.9270  157.6760  132.9630 H   0  0  0  0  0  0  0  0  0  0  0  0
  145.8101  154.9385  132.9570 H   0  0  0  0  0  0  0  0  0  0  0  0
  143.1267  155.8347  133.4023 H   0  0  0  0  0  0  0  0  0  0  0  0
  141.7543  157.8996  133.8363 H   0  0  0  0  0  0  0  0  0  0  0  0
  143.0368  161.0282  134.9392 H   0  0  0  0  0  0  0  0  0  0  0  0
  142.7083  161.1133  133.1705 H   0  0  0  0  0  0  0  0  0  0  0  0
  145.3768  160.3230  133.7703 H   0  0  0  0  0  0  0  0  0  0  0  0
  146.8303  160.1792  131.8307 H   0  0  0  0  0  0  0  0  0  0  0  0
  147.8686  161.1892  132.9161 H   0  0  0  0  0  0  0  0  0  0  0  0
  150.3310  158.8880  132.2500 H   0  0  0  0  0  0  0  0  0  0  0  0
  1  2  1  0
  2  3  2  0
  2  4  1  0
  4  5  2  0
  5  6  1  0
  6  7  2  0
  7  8  1  0
  8  9  2  0
  9 10  1  0
 10 11  1  0
 11 12  2  0
 11 13  1  0
  9 14  1  0
 14 15  2  0
 15 16  1  0
 16 17  1  0
 17 18  2  0
 17 19  1  0
 19 20  1  0
 20 21  2  0
 21 22  1  0
 22 23  1  0
 23 24  2  0
 16  4  1  0
 24 20  1  0
 15  6  1  0
  1 25  1  0
  5 26  1  0
  7 27  1  0
  8 28  1  0
 10 29  1  0
 10 30  1  0
 14 31  1  0
 19 32  1  0
 19 33  1  0
 24 34  1  0
M  CHG  4   1  -1  13  -1  22  -1  24   1
M  END
>  <UniqueID>  (41) 
41

>  <SMILES>  (41) 
[NH-]C(=O)c1cc2ccc(CC(=O)[O-])cc2n1C(=O)Cc1n[n-]n[nH+]1

>  <Energy>  (41) 
112.15991311610907

>  <Genealogy>  (41) 
[NH-]C(=O)c1cc2ccc(CC(=O)[O-])cc2n1C(=O)Cc1n[n-]n[nH+]1 (protonated)
[NH-]C(=O)c1cc2ccc(CC(=O)[O-])cc2n1C(=O)Cc1n[n-]n[nH+]1 (3D coordinates assigned)
[NH-]C(=O)c1cc2ccc(CC(=O)[O-])cc2n1C(=O)Cc1n[n-]n[nH+]1 (optimized conformer: 112.15991311610907 kcal/mol)

>  <smiles>  (41) 
NC(=O)c1cc2ccc(CC(=O)O)cc2n1C(=O)Cc1nn[nH]n1

>  <score_type>  (41) 
oracle

>  <origin>  (41) 
adg

>  <m_score__min__energy>  (41) 
-7.6200000000000001

>  <m_primary>  (41) 
energy

$$$$
41:0
     RDKit          3D

 43 44  0  0  0  0  0  0  0  0999 V2000
  140.1580  160.4440  132.6170 C   0  0  0  0  0  0  0  0  0  0  0  0
  139.9550  159.0130  132.1170 C   0  0  2  0  0  0  0  0  0  0  0  0
  139.0540  158.9840  130.8710 C   0  0  0  0  0  0  0  0  0  0  0  0
  138.3750  157.7610  130.7730 O   0  0  0  0  0  0  0  0  0  0  0  0
  139.3620  158.2470  133.1640 O   0  0  0  0  0  0  0  0  0  0  0  0
  139.7280  156.9320  133.4700 C   0  0  0  0  0  0  0  0  0  0  0  0
  139.0740  155.9550  133.0110 O   0  0  0  0  0  0  0  0  0  0  0  0
  140.9580  156.6850  134.2860 C   0  0  0  0  0  0  0  0  0  0  0  0
  141.4630  157.9490  134.8500 N   0  0  0  0  0  0  0  0  0  0  0  0
  140.7240  158.5950  135.9400 C   0  0  0  0  0  0  0  0  0  0  0  0
  142.6950  158.5390  134.3700 C   0  0  0  0  0  0  0  0  0  0  0  0
  142.8270  159.9500  134.2740 C   0  0  0  0  0  0  0  0  0  0  0  0
  144.0300  160.5350  133.8480 C   0  0  0  0  0  0  0  0  0  0  0  0
  145.0920  159.6940  133.5390 C   0  0  0  0  0  0  0  0  0  0  0  0
  146.3600  159.9970  133.0990 C   0  0  0  0  0  0  0  0  0  0  0  0
  147.0010  158.7700  132.9550 C   0  0  0  0  0  0  0  0  0  0  0  0
  148.4190  158.6370  132.5700 C   0  0  0  0  0  0  0  0  0  0  0  0
  148.8840  157.5000  131.8380 N   0  0  0  0  0  0  0  0  0  0  0  0
  149.2460  159.5120  132.9420 O   0  0  0  0  0  0  0  0  0  0  0  0
  146.1610  157.7460  133.2770 N   0  0  0  0  0  0  0  0  0  0  0  0
  146.4180  156.3350  133.1650 C   0  0  0  0  0  0  0  0  0  0  0  0
  145.5320  155.5610  132.7180 O   0  0  0  0  0  0  0  0  0  0  0  0
  147.6460  155.8100  133.5470 O   0  0  0  0  0  0  0  0  0  0  0  0
  144.9950  158.3300  133.6350 C   0  0  0  0  0  0  0  0  0  0  0  0
  143.7960  157.7190  134.0200 C   0  0  0  0  0  0  0  0  0  0  0  0
  140.1591  160.4514  133.7170 H   0  0  0  0  0  0  0  0  0  0  0  0
  141.1197  160.8288  132.2468 H   0  0  0  0  0  0  0  0  0  0  0  0
  139.3412  161.0811  132.2468 H   0  0  0  0  0  0  0  0  0  0  0  0
  140.9294  158.5871  131.8358 H   0  0  0  0  0  0  0  0  0  0  0  0
  138.3190  159.7996  130.9389 H   0  0  0  0  0  0  0  0  0  0  0  0
  139.6845  159.1085  129.9783 H   0  0  0  0  0  0  0  0  0  0  0  0
  138.2350  157.4380  131.7020 H   0  0  0  0  0  0  0  0  0  0  0  0
  140.7158  155.9933  135.1063 H   0  0  0  0  0  0  0  0  0  0  0  0
  141.7332  156.2481  133.6394 H   0  0  0  0  0  0  0  0  0  0  0  0
  141.1195  158.2493  136.9065 H   0  0  0  0  0  0  0  0  0  0  0  0
  140.8403  159.6863  135.8655 H   0  0  0  0  0  0  0  0  0  0  0  0
  139.6580  158.3339  135.8655 H   0  0  0  0  0  0  0  0  0  0  0  0
  141.9745  160.5935  134.5372 H   0  0  0  0  0  0  0  0  0  0  0  0
  144.1289  161.6271  133.7614 H   0  0  0  0  0  0  0  0  0  0  0  0
  146.7778  160.9955  132.9030 H   0  0  0  0  0  0  0  0  0  0  0  0
  149.8830  157.4400  131.5430 H   0  0  0  0  0  0  0  0  0  0  0  0
  148.2610  156.6810  131.6650 H   0  0  0  0  0  0  0  0  0  0  0  0
  143.7102  156.6228  134.0503 H   0  0  0  0  0  0  0  0  0  0  0  0
  1  2  1  0
  2  3  1  0
  3  4  1  0
  2  5  1  0
  5  6  1  0
  6  7  2  0
  6  8  1  0
  8  9  1  0
  9 10  1  0
  9 11  1  0
 11 12  2  0
 12 13  1  0
 13 14  2  0
 14 15  1  0
 15 16  2  0
 16 17  1  0
 17 18  1  0
 17 19  2  0
 16 20  1  0
 20 21  1  0
 21 22  2  0
 21 23  1  0
 20 24  1  0
 24 25  2  0
 25 11  1  0
 24 14  1  0
  1 26  1  0
  1 27  1  0
  1 28  1  0
  2 29  1  6
  3 30  1  0
  3 31  1  0
  4 32  1  0
  8 33  1  0
  8 34  1  0
 10 35  1  0
 10 36  1  0
 10 37  1  0
 12 38  1  0
 13 39  1  0
 15 40  1  0
 18 41  1  0
 18 42  1  0
 25 43  1  0
M  CHG  1  23  -1
M  END
>  <UniqueID>  (42) 
42

>  <SMILES>  (42) 
C[C@H](CO)OC(=O)CN(C)c1ccc2cc(C(N)=O)n(C(=O)[O-])c2c1

>  <Energy>  (42) 
77.1455064038414

>  <Genealogy>  (42) 
C[C@H](CO)OC(=O)CN(C)c1ccc2cc(C(N)=O)n(C(=O)[O-])c2c1 (protonated)
C[C@H](CO)OC(=O)CN(C)c1ccc2cc(C(N)=O)n(C(=O)[O-])c2c1 (3D coordinates assigned)
C[C@H](CO)OC(=O)CN(C)c1ccc2cc(C(N)=O)n(C(=O)[O-])c2c1 (optimized conformer: 77.1455064038414 kcal/mol)

>  <smiles>  (42) 
C[C@H](CO)OC(=O)CN(C)c1ccc2cc(C(N)=O)n(C(=O)O)c2c1

>  <score_type>  (42) 
oracle

>  <origin>  (42) 
adg

>  <m_score__min__energy>  (42) 
-6.4400000000000004

>  <m_primary>  (42) 
energy

$$$$
42:0
     RDKit          3D

 43 44  0  0  0  0  0  0  0  0999 V2000
  148.8860  161.8060  130.6990 C   0  0  0  0  0  0  0  0  0  0  0  0
  149.7850  161.5060  129.6570 O   0  0  0  0  0  0  0  0  0  0  0  0
  149.9910  160.1110  129.6050 C   0  0  0  0  0  0  0  0  0  0  0  0
  149.1410  159.4310  130.6740 C   0  0  0  0  0  0  0  0  0  0  0  0
  149.9190  159.1910  131.8320 O   0  0  0  0  0  0  0  0  0  0  0  0
  149.0990  159.0600  132.9750 C   0  0  0  0  0  0  0  0  0  0  0  0
  147.6830  159.5500  132.6550 C   0  0  0  0  0  0  0  0  0  0  0  0
  146.6710  158.5540  133.0550 N   0  0  0  0  0  0  0  0  0  0  0  0
  147.0040  157.1290  132.9750 C   0  0  0  0  0  0  0  0  0  0  0  0
  145.3350  158.9540  133.4430 C   0  0  0  0  0  0  0  0  0  0  0  0
  144.9890  160.3300  133.5340 C   0  0  0  0  0  0  0  0  0  0  0  0
  143.6860  160.7240  133.8810 C   0  0  0  0  0  0  0  0  0  0  0  0
  142.7530  159.7290  134.1460 C   0  0  0  0  0  0  0  0  0  0  0  0
  141.4370  159.8360  134.5320 C   0  0  0  0  0  0  0  0  0  0  0  0
  140.9900  158.5250  134.6820 C   0  0  0  0  0  0  0  0  0  0  0  0
  139.5930  158.1790  135.0190 C   0  0  0  0  0  0  0  0  0  0  0  0
  139.2180  157.8670  136.3580 N   0  0  0  0  0  0  0  0  0  0  0  0
  138.7320  158.1030  134.1030 O   0  0  0  0  0  0  0  0  0  0  0  0
  141.9920  157.6410  134.4080 N   0  0  0  0  0  0  0  0  0  0  0  0
  141.9700  156.2120  134.5620 C   0  0  0  0  0  0  0  0  0  0  0  0
  142.7580  155.6470  135.3660 O   0  0  0  0  0  0  0  0  0  0  0  0
  141.0940  155.4370  133.8150 O   0  0  0  0  0  0  0  0  0  0  0  0
  143.0640  158.3980  134.0730 C   0  0  0  0  0  0  0  0  0  0  0  0
  144.3540  157.9760  133.7320 C   0  0  0  0  0  0  0  0  0  0  0  0
  149.3797  161.6412  131.6681 H   0  0  0  0  0  0  0  0  0  0  0  0
  148.5724  162.8575  130.6214 H   0  0  0  0  0  0  0  0  0  0  0  0
  148.0038  161.1536  130.6214 H   0  0  0  0  0  0  0  0  0  0  0  0
  149.7022  159.7345  128.6126 H   0  0  0  0  0  0  0  0  0  0  0  0
  151.0533  159.8903  129.7861 H   0  0  0  0  0  0  0  0  0  0  0  0
  148.2931  160.0819  130.9335 H   0  0  0  0  0  0  0  0  0  0  0  0
  148.7698  158.4719  130.2836 H   0  0  0  0  0  0  0  0  0  0  0  0
  149.0603  158.0032  133.2778 H   0  0  0  0  0  0  0  0  0  0  0  0
  149.5168  159.6643  133.7937 H   0  0  0  0  0  0  0  0  0  0  0  0
  147.4969  160.4886  133.1976 H   0  0  0  0  0  0  0  0  0  0  0  0
  147.6061  159.7081  131.5691 H   0  0  0  0  0  0  0  0  0  0  0  0
  147.1002  156.7174  133.9905 H   0  0  0  0  0  0  0  0  0  0  0  0
  146.2063  156.5957  132.4372 H   0  0  0  0  0  0  0  0  0  0  0  0
  147.9555  157.0044  132.4372 H   0  0  0  0  0  0  0  0  0  0  0  0
  145.7516  161.0961  133.3300 H   0  0  0  0  0  0  0  0  0  0  0  0
  143.4126  161.7878  133.9411 H   0  0  0  0  0  0  0  0  0  0  0  0
  140.8605  160.7596  134.6888 H   0  0  0  0  0  0  0  0  0  0  0  0
  139.0930  158.6220  137.0690 H   0  0  0  0  0  0  0  0  0  0  0  0
  144.6006  156.9048  133.6894 H   0  0  0  0  0  0  0  0  0  0  0  0
  1  2  1  0
  2  3  1  0
  3  4  1  0
  4  5  1  0
  5  6  1  0
  6  7  1  0
  7  8  1  0
  8  9  1  0
  8 10  1  0
 10 11  2  0
 11 12  1  0
 12 13  2  0
 13 14  1  0
 14 15  2  0
 15 16  1  0
 16 17  1  0
 16 18  2  0
 15 19  1  0
 19 20  1  0
 20 21  2  0
 20 22  1  0
 19 23  1  0
 23 24  2  0
 24 10  1  0
 23 13  1  0
  1 25  1  0
  1 26  1  0
  1 27  1  0
  3 28  1  0
  3 29  1  0
  4 30  1  0
  4 31  1  0
  6 32  1  0
  6 33  1  0
  7 34  1  0
  7 35  1  0
  9 36  1  0
  9 37  1  0
  9 38  1  0
 11 39  1  0
 12 40  1  0
 14 41  1  0
 17 42  1  0
 24 43  1  0
M  CHG  2  17  -1  22  -1
M  END
>  <UniqueID>  (43) 
43

>  <SMILES>  (43) 
COCCOCCN(C)c1ccc2cc(C([NH-])=O)n(C(=O)[O-])c2c1

>  <Energy>  (43) 
80.85907410844418

>  <Genealogy>  (43) 
COCCOCCN(C)c1ccc2cc(C([NH-])=O)n(C(=O)[O-])c2c1 (protonated)
COCCOCCN(C)c1ccc2cc(C([NH-])=O)n(C(=O)[O-])c2c1 (3D coordinates assigned)
COCCOCCN(C)c1ccc2cc(C([NH-])=O)n(C(=O)[O-])c2c1 (optimized conformer: 80.85907410844418 kcal/mol)

>  <smiles>  (43) 
COCCOCCN(C)c1ccc2cc(C(N)=O)n(C(=O)O)c2c1

>  <score_type>  (43) 
oracle

>  <origin>  (43) 
adg

>  <m_score__min__energy>  (43) 
-6.1399999999999997

>  <m_primary>  (43) 
energy

$$$$
43:0
     RDKit          3D

 40 41  0  0  0  0  0  0  0  0999 V2000
  139.7700  159.3890  131.8780 C   0  0  0  0  0  0  0  0  0  0  0  0
  139.9530  158.5730  133.1520 C   0  0  0  0  0  0  0  0  0  0  0  0
  140.7210  159.3010  134.1090 O   0  0  0  0  0  0  0  0  0  0  0  0
  141.4400  158.6910  135.1430 C   0  0  0  0  0  0  0  0  0  0  0  0
  141.8410  159.3620  136.1340 O   0  0  0  0  0  0  0  0  0  0  0  0
  141.7810  157.2390  135.0430 C   0  0  0  0  0  0  0  0  0  0  0  0
  143.2750  157.0610  134.7490 C   0  0  0  0  0  0  0  0  0  0  0  0
  143.6800  157.7430  133.4710 C   0  0  0  0  0  0  0  0  0  0  0  0
  142.9940  157.5730  132.4270 O   0  0  0  0  0  0  0  0  0  0  0  0
  144.9210  158.4660  133.3920 N   0  0  0  0  0  0  0  0  0  0  0  0
  145.1280  159.8010  133.5700 C   0  0  0  0  0  0  0  0  0  0  0  0
  144.0670  160.8190  133.7240 C   0  0  0  0  0  0  0  0  0  0  0  0
  142.7200  160.5350  133.3410 N   0  0  0  0  0  0  0  0  0  0  0  0
  144.3380  161.9410  134.2240 O   0  0  0  0  0  0  0  0  0  0  0  0
  146.4880  160.0970  133.4860 C   0  0  0  0  0  0  0  0  0  0  0  0
  147.1090  158.8930  133.2420 C   0  0  0  0  0  0  0  0  0  0  0  0
  148.4590  158.5970  133.0780 C   0  0  0  0  0  0  0  0  0  0  0  0
  148.8180  157.2560  132.8590 C   0  0  0  0  0  0  0  0  0  0  0  0
  147.8260  156.2440  132.8000 C   0  0  0  0  0  0  0  0  0  0  0  0
  148.2270  154.8110  132.6100 C   0  0  0  0  0  0  0  0  0  0  0  0
  149.6010  154.7300  132.4790 F   0  0  0  0  0  0  0  0  0  0  0  0
  146.4680  156.5810  132.9860 C   0  0  0  0  0  0  0  0  0  0  0  0
  146.1400  157.9260  133.1890 C   0  0  0  0  0  0  0  0  0  0  0  0
  139.5363  160.4313  132.1406 H   0  0  0  0  0  0  0  0  0  0  0  0
  140.6972  159.3589  131.2869 H   0  0  0  0  0  0  0  0  0  0  0  0
  138.9445  158.9658  131.2869 H   0  0  0  0  0  0  0  0  0  0  0  0
  138.9657  158.3441  133.5796 H   0  0  0  0  0  0  0  0  0  0  0  0
  140.4853  157.6429  132.9038 H   0  0  0  0  0  0  0  0  0  0  0  0
  141.5369  156.7428  135.9939 H   0  0  0  0  0  0  0  0  0  0  0  0
  141.1998  156.7911  134.2235 H   0  0  0  0  0  0  0  0  0  0  0  0
  143.8545  157.4895  135.5799 H   0  0  0  0  0  0  0  0  0  0  0  0
  143.4752  155.9849  134.6396 H   0  0  0  0  0  0  0  0  0  0  0  0
  142.4670  159.6420  132.8640 H   0  0  0  0  0  0  0  0  0  0  0  0
  141.9700  161.2450  133.4980 H   0  0  0  0  0  0  0  0  0  0  0  0
  146.9636  161.0832  133.5921 H   0  0  0  0  0  0  0  0  0  0  0  0
  149.2218  159.3885  133.1186 H   0  0  0  0  0  0  0  0  0  0  0  0
  149.8775  156.9889  132.7322 H   0  0  0  0  0  0  0  0  0  0  0  0
  147.9065  154.2219  133.4820 H   0  0  0  0  0  0  0  0  0  0  0  0
  147.7483  154.4137  131.7028 H   0  0  0  0  0  0  0  0  0  0  0  0
  145.6875  155.8060  132.9717 H   0  0  0  0  0  0  0  0  0  0  0  0
  1  2  1  0
  2  3  1  0
  3  4  1  0
  4  5  2  0
  4  6  1  0
  6  7  1  0
  7  8  1  0
  8  9  2  0
  8 10  1  0
 10 11  1  0
 11 12  1  0
 12 13  1  0
 12 14  2  0
 11 15  2  0
 15 16  1  0
 16 17  2  0
 17 18  1  0
 18 19  2  0
 19 20  1  0
 20 21  1  0
 19 22  1  0
 22 23  2  0
 23 10  1  0
 23 16  1  0
  1 24  1  0
  1 25  1  0
  1 26  1  0
  2 27  1  0
  2 28  1  0
  6 29  1  0
  6 30  1  0
  7 31  1  0
  7 32  1  0
 13 33  1  0
 13 34  1  0
 15 35  1  0
 17 36  1  0
 18 37  1  0
 20 38  1  0
 20 39  1  0
 22 40  1  0
M  END
>  <UniqueID>  (44) 
44

>  <SMILES>  (44) 
CCOC(=O)CCC(=O)n1c(C(N)=O)cc2ccc(CF)cc21

>  <Energy>  (44) 
71.27105625000809

>  <Genealogy>  (44) 
CCOC(=O)CCC(=O)n1c(C(N)=O)cc2ccc(CF)cc21 (3D coordinates assigned)
CCOC(=O)CCC(=O)n1c(C(N)=O)cc2ccc(CF)cc21 (optimized conformer: 71.27105625000809 kcal/mol)

>  <smiles>  (44) 
CCOC(=O)CCC(=O)n1c(C(N)=O)cc2ccc(CF)cc21

>  <score_type>  (44) 
oracle

>  <origin>  (44) 
adg

>  <m_score__min__energy>  (44) 
-6.0999999999999996

>  <m_primary>  (44) 
energy

$$$$
44:0
     RDKit          3D

 37 38  0  0  0  0  0  0  0  0999 V2000
  144.6990  162.3800  133.7260 N   0  0  0  0  0  0  0  0  0  0  0  0
  144.3460  161.0010  133.8510 C   0  0  0  0  0  0  0  0  0  0  0  0
  143.1670  160.6980  134.1730 O   0  0  0  0  0  0  0  0  0  0  0  0
  145.3390  159.9350  133.5820 C   0  0  0  0  0  0  0  0  0  0  0  0
  146.6980  160.1650  133.3640 C   0  0  0  0  0  0  0  0  0  0  0  0
  147.2370  158.9290  133.0860 C   0  0  0  0  0  0  0  0  0  0  0  0
  148.5500  158.5690  132.8050 C   0  0  0  0  0  0  0  0  0  0  0  0
  148.8290  157.2080  132.5870 C   0  0  0  0  0  0  0  0  0  0  0  0
  147.7980  156.2320  132.6670 C   0  0  0  0  0  0  0  0  0  0  0  0
  148.0550  154.8300  132.4540 N   0  0  0  0  0  0  0  0  0  0  0  0
  148.1910  153.8240  133.5100 C   0  0  0  0  0  0  0  0  0  0  0  0
  149.1530  152.7130  133.0900 C   0  0  0  0  0  0  0  0  0  0  0  0
  149.5960  152.9150  131.7780 O   0  0  0  0  0  0  0  0  0  0  0  0
  146.4770  156.6450  132.9480 C   0  0  0  0  0  0  0  0  0  0  0  0
  146.2250  158.0090  133.1390 C   0  0  0  0  0  0  0  0  0  0  0  0
  145.0540  158.6100  133.4370 N   0  0  0  0  0  0  0  0  0  0  0  0
  143.7860  157.9630  133.6290 C   0  0  0  0  0  0  0  0  0  0  0  0
  143.7150  156.9440  134.3690 O   0  0  0  0  0  0  0  0  0  0  0  0
  142.6100  158.4830  132.9900 N   0  0  0  0  0  0  0  0  0  0  0  0
  141.3330  157.8230  132.9970 C   0  0  0  0  0  0  0  0  0  0  0  0
  141.1970  156.6980  133.5510 O   0  0  0  0  0  0  0  0  0  0  0  0
  140.1700  158.4470  132.3470 C   0  0  0  0  0  0  0  0  0  0  0  0
  139.0780  157.8240  132.2710 O   0  0  0  0  0  0  0  0  0  0  0  0
  140.2640  159.7260  131.8110 O   0  0  0  0  0  0  0  0  0  0  0  0
  143.9790  163.1200  133.8810 H   0  0  0  0  0  0  0  0  0  0  0  0
  145.6800  162.6750  133.5230 H   0  0  0  0  0  0  0  0  0  0  0  0
  147.2263  161.1289  133.4055 H   0  0  0  0  0  0  0  0  0  0  0  0
  149.3467  159.3258  132.7547 H   0  0  0  0  0  0  0  0  0  0  0  0
  149.8569  156.8948  132.3518 H   0  0  0  0  0  0  0  0  0  0  0  0
  148.1330  154.4880  131.4680 H   0  0  0  0  0  0  0  0  0  0  0  0
  148.5759  154.3078  134.4198 H   0  0  0  0  0  0  0  0  0  0  0  0
  147.2030  153.3785  133.6979 H   0  0  0  0  0  0  0  0  0  0  0  0
  150.0195  152.7097  133.7677 H   0  0  0  0  0  0  0  0  0  0  0  0
  148.6258  151.7490  133.1418 H   0  0  0  0  0  0  0  0  0  0  0  0
  150.5530  153.1670  131.8450 H   0  0  0  0  0  0  0  0  0  0  0  0
  145.6619  155.9094  133.0155 H   0  0  0  0  0  0  0  0  0  0  0  0
  142.6950  159.4030  132.5020 H   0  0  0  0  0  0  0  0  0  0  0  0
  1  2  1  0
  2  3  2  0
  2  4  1  0
  4  5  2  0
  5  6  1  0
  6  7  2  0
  7  8  1  0
  8  9  2  0
  9 10  1  0
 10 11  1  0
 11 12  1  0
 12 13  1  0
  9 14  1  0
 14 15  2  0
 15 16  1  0
 16 17  1  0
 17 18  2  0
 17 19  1  0
 19 20  1  0
 20 21  2  0
 20 22  1  0
 22 23  2  0
 22 24  1  0
 16  4  1  0
 15  6  1  0
  1 25  1  0
  1 26  1  0
  5 27  1  0
  7 28  1  0
  8 29  1  0
 10 30  1  0
 11 31  1  0
 11 32  1  0
 12 33  1  0
 12 34  1  0
 13 35  1  0
 14 36  1  0
 19 37  1  0
M  CHG  1  24  -1
M  END
>  <UniqueID>  (45) 
45

>  <SMILES>  (45) 
NC(=O)c1cc2ccc(NCCO)cc2n1C(=O)NC(=O)C(=O)[O-]

>  <Energy>  (45) 
73.55139977829307

>  <Genealogy>  (45) 
NC(=O)c1cc2ccc(NCCO)cc2n1C(=O)NC(=O)C(=O)[O-] (protonated)
NC(=O)c1cc2ccc(NCCO)cc2n1C(=O)NC(=O)C(=O)[O-] (3D coordinates assigned)
NC(=O)c1cc2ccc(NCCO)cc2n1C(=O)NC(=O)C(=O)[O-] (optimized conformer: 73.55139977829307 kcal/mol)

>  <smiles>  (45) 
NC(=O)c1cc2ccc(NCCO)cc2n1C(=O)NC(=O)C(=O)O

>  <score_type>  (45) 
oracle

>  <origin>  (45) 
adg

>  <m_score__min__energy>  (45) 
-7.3700000000000001

>  <m_primary>  (45) 
energy

$$$$
45:0
     RDKit          3D

 41 42  0  0  0  0  0  0  0  0999 V2000
  140.7340  159.0780  136.4140 C   0  0  0  0  0  0  0  0  0  0  0  0
  140.8860  159.2860  134.9710 N   0  0  0  0  0  0  0  0  0  0  0  0
  141.7400  160.3700  134.4640 C   0  0  0  0  0  0  0  0  0  0  0  0
  143.1610  159.8660  134.1680 C   0  0  0  0  0  0  0  0  0  0  0  0
  143.1380  158.6110  133.4020 N   0  0  0  0  0  0  0  0  0  0  0  0
  144.4800  158.1070  133.2460 C   0  0  0  0  0  0  0  0  0  0  0  0
  145.5610  159.0050  133.0380 C   0  0  0  0  0  0  0  0  0  0  0  0
  146.8780  158.5280  132.9230 C   0  0  0  0  0  0  0  0  0  0  0  0
  147.0860  157.1560  133.0230 C   0  0  0  0  0  0  0  0  0  0  0  0
  148.2540  156.4280  132.9670 C   0  0  0  0  0  0  0  0  0  0  0  0
  147.8680  155.0990  133.1380 C   0  0  0  0  0  0  0  0  0  0  0  0
  148.8030  153.9570  133.0710 C   0  0  0  0  0  0  0  0  0  0  0  0
  148.4060  152.6840  133.5770 N   0  0  0  0  0  0  0  0  0  0  0  0
  149.9590  154.0980  132.5930 O   0  0  0  0  0  0  0  0  0  0  0  0
  146.5190  155.0130  133.3010 N   0  0  0  0  0  0  0  0  0  0  0  0
  145.7320  153.8410  133.5590 C   0  0  0  0  0  0  0  0  0  0  0  0
  145.4890  153.5000  134.7470 O   0  0  0  0  0  0  0  0  0  0  0  0
  145.2850  152.9580  132.4320 C   0  0  0  0  0  0  0  0  0  0  0  0
  145.8870  151.6980  132.5440 O   0  0  0  0  0  0  0  0  0  0  0  0
  146.0540  156.2770  133.2220 C   0  0  0  0  0  0  0  0  0  0  0  0
  144.7360  156.7200  133.3520 C   0  0  0  0  0  0  0  0  0  0  0  0
  140.1550  158.4500  134.0550 C   0  0  0  0  0  0  0  0  0  0  0  0
  139.0140  158.0120  134.3600 O   0  0  0  0  0  0  0  0  0  0  0  0
  140.6960  158.1190  132.8170 O   0  0  0  0  0  0  0  0  0  0  0  0
  141.2984  159.8503  136.9572 H   0  0  0  0  0  0  0  0  0  0  0  0
  139.6696  159.1438  136.6838 H   0  0  0  0  0  0  0  0  0  0  0  0
  141.1199  158.0839  136.6838 H   0  0  0  0  0  0  0  0  0  0  0  0
  141.3008  160.7694  133.5379 H   0  0  0  0  0  0  0  0  0  0  0  0
  141.8017  161.1536  135.2336 H   0  0  0  0  0  0  0  0  0  0  0  0
  143.6976  160.6301  133.5865 H   0  0  0  0  0  0  0  0  0  0  0  0
  143.6671  159.6768  135.1261 H   0  0  0  0  0  0  0  0  0  0  0  0
  142.5500  157.9010  133.8990 H   0  0  0  0  0  0  0  0  0  0  0  0
  142.7190  158.7770  132.4570 H   0  0  0  0  0  0  0  0  0  0  0  0
  145.3652  160.0850  132.9662 H   0  0  0  0  0  0  0  0  0  0  0  0
  147.7186  159.2183  132.7590 H   0  0  0  0  0  0  0  0  0  0  0  0
  149.2738  156.8129  132.8189 H   0  0  0  0  0  0  0  0  0  0  0  0
  147.4180  152.5060  133.8670 H   0  0  0  0  0  0  0  0  0  0  0  0
  144.1916  152.8441  132.4699 H   0  0  0  0  0  0  0  0  0  0  0  0
  145.5791  153.4154  131.4758 H   0  0  0  0  0  0  0  0  0  0  0  0
  146.4660  151.7310  133.3510 H   0  0  0  0  0  0  0  0  0  0  0  0
  143.9172  156.0079  133.5324 H   0  0  0  0  0  0  0  0  0  0  0  0
  1  2  1  0
  2  3  1  0
  3  4  1  0
  4  5  1  0
  5  6  1  0
  6  7  2  0
  7  8  1  0
  8  9  2  0
  9 10  1  0
 10 11  2  0
 11 12  1  0
 12 13  1  0
 12 14  2  0
 11 15  1  0
 15 16  1  0
 16 17  2  0
 16 18  1  0
 18 19  1  0
 15 20  1  0
 20 21  2  0
  2 22  1  0
 22 23  2  0
 22 24  1  0
 21  6  1  0
 20  9  1  0
  1 25  1  0
  1 26  1  0
  1 27  1  0
  3 28  1  0
  3 29  1  0
  4 30  1  0
  4 31  1  0
  5 32  1  0
  5 33  1  0
  7 34  1  0
  8 35  1  0
 10 36  1  0
 13 37  1  0
 18 38  1  0
 18 39  1  0
 19 40  1  0
 21 41  1  0
M  CHG  3   5   1  13  -1  24  -1
M  END
>  <UniqueID>  (46) 
46

>  <SMILES>  (46) 
CN(CC[NH2+]c1ccc2cc(C([NH-])=O)n(C(=O)CO)c2c1)C(=O)[O-]

>  <Energy>  (46) 
75.27900238921653

>  <Genealogy>  (46) 
CN(CC[NH2+]c1ccc2cc(C([NH-])=O)n(C(=O)CO)c2c1)C(=O)[O-] (protonated)
CN(CC[NH2+]c1ccc2cc(C([NH-])=O)n(C(=O)CO)c2c1)C(=O)[O-] (3D coordinates assigned)
CN(CC[NH2+]c1ccc2cc(C([NH-])=O)n(C(=O)CO)c2c1)C(=O)[O-] (optimized conformer: 75.27900238921653 kcal/mol)

>  <smiles>  (46) 
CN(CCNc1ccc2cc(C(N)=O)n(C(=O)CO)c2c1)C(=O)O

>  <score_type>  (46) 
oracle

>  <origin>  (46) 
adg

>  <m_score__min__energy>  (46) 
-5.5499999999999998

>  <m_primary>  (46) 
energy

$$$$
46:0
     RDKit          3D

 39 40  0  0  0  0  0  0  0  0999 V2000
  149.7730  151.8720  132.4090 C   0  0  0  0  0  0  0  0  0  0  0  0
  149.4230  153.3530  132.2650 C   0  0  0  0  0  0  0  0  0  0  0  0
  148.2500  153.7750  133.1590 C   0  0  0  0  0  0  0  0  0  0  0  0
  148.1070  155.5540  133.3270 S   0  0  0  0  0  0  0  0  0  0  0  0
  149.2590  156.2210  132.6290 O   0  0  0  0  0  0  0  0  0  0  0  0
  148.1190  155.9390  134.7800 O   0  0  0  0  0  0  0  0  0  0  0  0
  146.5850  156.1060  132.5780 C   0  0  0  0  0  0  0  0  0  0  0  0
  145.6830  156.7170  133.6100 C   0  0  0  0  0  0  0  0  0  0  0  0
  145.0810  155.9720  134.4290 O   0  0  0  0  0  0  0  0  0  0  0  0
  145.4110  158.1260  133.6000 N   0  0  0  0  0  0  0  0  0  0  0  0
  146.2740  159.1450  133.3390 C   0  0  0  0  0  0  0  0  0  0  0  0
  147.7350  159.0120  133.1680 C   0  0  0  0  0  0  0  0  0  0  0  0
  148.5430  158.5770  134.2610 N   0  0  0  0  0  0  0  0  0  0  0  0
  148.2740  159.2450  132.0560 O   0  0  0  0  0  0  0  0  0  0  0  0
  145.5990  160.3650  133.3380 C   0  0  0  0  0  0  0  0  0  0  0  0
  144.2860  160.0550  133.6170 C   0  0  0  0  0  0  0  0  0  0  0  0
  143.1720  160.8810  133.7310 C   0  0  0  0  0  0  0  0  0  0  0  0
  141.9300  160.2790  134.0000 C   0  0  0  0  0  0  0  0  0  0  0  0
  141.8200  158.8690  134.1290 C   0  0  0  0  0  0  0  0  0  0  0  0
  140.4890  158.2320  134.4440 C   0  0  0  0  0  0  0  0  0  0  0  0
  139.5460  158.6790  133.5390 F   0  0  0  0  0  0  0  0  0  0  0  0
  140.5720  156.8530  134.3660 F   0  0  0  0  0  0  0  0  0  0  0  0
  140.0830  158.5680  135.7240 F   0  0  0  0  0  0  0  0  0  0  0  0
  142.9820  158.0690  134.0380 C   0  0  0  0  0  0  0  0  0  0  0  0
  144.2030  158.6980  133.7770 C   0  0  0  0  0  0  0  0  0  0  0  0
  149.8345  151.6118  133.4760 H   0  0  0  0  0  0  0  0  0  0  0  0
  148.9941  151.2626  131.9273 H   0  0  0  0  0  0  0  0  0  0  0  0
  150.7423  151.6758  131.9273 H   0  0  0  0  0  0  0  0  0  0  0  0
  150.3053  153.9509  132.5370 H   0  0  0  0  0  0  0  0  0  0  0  0
  149.1220  153.5227  131.2207 H   0  0  0  0  0  0  0  0  0  0  0  0
  147.3180  153.3876  132.7216 H   0  0  0  0  0  0  0  0  0  0  0  0
  148.4336  153.3621  134.1619 H   0  0  0  0  0  0  0  0  0  0  0  0
  146.8125  156.8561  131.8063 H   0  0  0  0  0  0  0  0  0  0  0  0
  146.0759  155.2412  132.1276 H   0  0  0  0  0  0  0  0  0  0  0  0
  149.1570  157.7370  134.1710 H   0  0  0  0  0  0  0  0  0  0  0  0
  146.0243  161.3626  133.1537 H   0  0  0  0  0  0  0  0  0  0  0  0
  143.2602  161.9712  133.6143 H   0  0  0  0  0  0  0  0  0  0  0  0
  141.0339  160.9071  134.1117 H   0  0  0  0  0  0  0  0  0  0  0  0
  142.9268  156.9783  134.1693 H   0  0  0  0  0  0  0  0  0  0  0  0
  1  2  1  0
  2  3  1  0
  3  4  1  0
  4  5  2  0
  4  6  2  0
  4  7  1  0
  7  8  1  0
  8  9  2  0
  8 10  1  0
 10 11  1  0
 11 12  1  0
 12 13  1  0
 12 14  2  0
 11 15  2  0
 15 16  1  0
 16 17  2  0
 17 18  1  0
 18 19  2  0
 19 20  1  0
 20 21  1  0
 20 22  1  0
 20 23  1  0
 19 24  1  0
 24 25  2  0
 25 10  1  0
 25 16  1  0
  1 26  1  0
  1 27  1  0
  1 28  1  0
  2 29  1  0
  2 30  1  0
  3 31  1  0
  3 32  1  0
  7 33  1  0
  7 34  1  0
 13 35  1  0
 15 36  1  0
 17 37  1  0
 18 38  1  0
 24 39  1  0
M  CHG  1  13  -1
M  END
>  <UniqueID>  (47) 
47

>  <SMILES>  (47) 
CCCS(=O)(=O)CC(=O)n1c(C([NH-])=O)cc2ccc(C(F)(F)F)cc21

>  <Energy>  (47) 
65.75465508462574

>  <Genealogy>  (47) 
CCCS(=O)(=O)CC(=O)n1c(C([NH-])=O)cc2ccc(C(F)(F)F)cc21 (protonated)
CCCS(=O)(=O)CC(=O)n1c(C([NH-])=O)cc2ccc(C(F)(F)F)cc21 (3D coordinates assigned)
CCCS(=O)(=O)CC(=O)n1c(C([NH-])=O)cc2ccc(C(F)(F)F)cc21 (optimized conformer: 65.75465508462574 kcal/mol)

>  <smiles>  (47) 
CCCS(=O)(=O)CC(=O)n1c(C(N)=O)cc2ccc(C(F)(F)F)cc21

>  <score_type>  (47) 
oracle

>  <origin>  (47) 
adg

>  <m_score__min__energy>  (47) 
-6.6299999999999999

>  <m_primary>  (47) 
energy

$$$$
47:0
     RDKit          3D

 52 55  0  0  0  0  0  0  0  0999 V2000
  140.0140  158.1270  135.1200 C   0  0  0  0  0  0  0  0  0  0  0  0
  140.3740  157.8510  133.7110 N   0  0  1  0  0  0  0  0  0  0  0  0
  139.2620  157.1680  133.0280 C   0  0  0  0  0  0  0  0  0  0  0  0
  138.3860  158.2440  132.3850 C   0  0  0  0  0  0  0  0  0  0  0  0
  139.2150  159.5200  132.4190 C   0  0  0  0  0  0  0  0  0  0  0  0
  140.5930  159.0650  132.8950 C   0  0  1  0  0  0  0  0  0  0  0  0
  141.3990  160.1550  133.5660 C   0  0  0  0  0  0  0  0  0  0  0  0
  141.1020  161.3650  133.3640 O   0  0  0  0  0  0  0  0  0  0  0  0
  142.3900  159.8180  134.5000 O   0  0  0  0  0  0  0  0  0  0  0  0
  143.7460  159.5530  134.1470 C   0  0  0  0  0  0  0  0  0  0  0  0
  143.8560  158.2210  133.4670 C   0  0  0  0  0  0  0  0  0  0  0  0
  142.9970  157.8950  132.6030 O   0  0  0  0  0  0  0  0  0  0  0  0
  144.9560  157.3420  133.7450 N   0  0  0  0  0  0  0  0  0  0  0  0
  144.9480  156.2150  134.5130 C   0  0  0  0  0  0  0  0  0  0  0  0
  143.7700  155.6410  135.1970 C   0  0  0  0  0  0  0  0  0  0  0  0
  142.4710  156.1670  134.9330 N   0  0  0  0  0  0  0  0  0  0  0  0
  143.8960  154.7050  136.0300 O   0  0  0  0  0  0  0  0  0  0  0  0
  146.2140  155.6330  134.5320 C   0  0  0  0  0  0  0  0  0  0  0  0
  147.0060  156.4520  133.7590 C   0  0  0  0  0  0  0  0  0  0  0  0
  148.3640  156.3630  133.4590 C   0  0  0  0  0  0  0  0  0  0  0  0
  148.9280  157.3740  132.6620 C   0  0  0  0  0  0  0  0  0  0  0  0
  148.1360  158.4500  132.1980 C   0  0  0  0  0  0  0  0  0  0  0  0
  148.7210  159.4770  131.3950 N   0  0  0  0  0  0  0  0  0  0  0  0
  150.0750  159.9470  131.0410 C   0  0  0  0  0  0  0  0  0  0  0  0
  149.6210  161.0600  130.1570 C   0  0  0  0  0  0  0  0  0  0  0  0
  149.9120  162.3210  130.6490 F   0  0  0  0  0  0  0  0  0  0  0  0
  149.9440  160.8790  128.8210 F   0  0  0  0  0  0  0  0  0  0  0  0
  148.2590  160.5740  130.5210 C   0  0  0  0  0  0  0  0  0  0  0  0
  146.7670  158.5120  132.5300 C   0  0  0  0  0  0  0  0  0  0  0  0
  146.2240  157.4770  133.2990 C   0  0  0  0  0  0  0  0  0  0  0  0
  140.7083  157.5947  135.7868 H   0  0  0  0  0  0  0  0  0  0  0  0
  140.0796  159.2085  135.3101 H   0  0  0  0  0  0  0  0  0  0  0  0
  138.9866  157.7829  135.3101 H   0  0  0  0  0  0  0  0  0  0  0  0
  141.2300  157.2430  133.6940 H   0  0  0  0  0  0  0  0  0  0  0  0
  139.6551  156.4921  132.2543 H   0  0  0  0  0  0  0  0  0  0  0  0
  138.6780  156.5695  133.7426 H   0  0  0  0  0  0  0  0  0  0  0  0
  138.1426  157.9717  131.3474 H   0  0  0  0  0  0  0  0  0  0  0  0
  137.4313  158.3642  132.9181 H   0  0  0  0  0  0  0  0  0  0  0  0
  139.2782  159.9700  131.4172 H   0  0  0  0  0  0  0  0  0  0  0  0
  138.7771  160.2872  133.0745 H   0  0  0  0  0  0  0  0  0  0  0  0
  141.2399  158.8178  132.0404 H   0  0  0  0  0  0  0  0  0  0  0  0
  144.1038  160.3389  133.4656 H   0  0  0  0  0  0  0  0  0  0  0  0
  144.3577  159.5396  135.0612 H   0  0  0  0  0  0  0  0  0  0  0  0
  142.3480  157.1220  134.5250 H   0  0  0  0  0  0  0  0  0  0  0  0
  146.5167  154.7134  135.0543 H   0  0  0  0  0  0  0  0  0  0  0  0
  148.9748  155.5285  133.8339 H   0  0  0  0  0  0  0  0  0  0  0  0
  149.9946  157.3280  132.3968 H   0  0  0  0  0  0  0  0  0  0  0  0
  150.6445  160.3009  131.9130 H   0  0  0  0  0  0  0  0  0  0  0  0
  150.7672  159.2099  130.6081 H   0  0  0  0  0  0  0  0  0  0  0  0
  147.6679  161.3284  131.0608 H   0  0  0  0  0  0  0  0  0  0  0  0
  147.5813  160.3095  129.6959 H   0  0  0  0  0  0  0  0  0  0  0  0
  146.1422  159.3523  132.1931 H   0  0  0  0  0  0  0  0  0  0  0  0
  1  2  1  0
  2  3  1  0
  3  4  1  0
  4  5  1  0
  5  6  1  0
  6  7  1  0
  7  8  2  0
  7  9  1  0
  9 10  1  0
 10 11  1  0
 11 12  2  0
 11 13  1  0
 13 14  1  0
 14 15  1  0
 15 16  1  0
 15 17  2  0
 14 18  2  0
 18 19  1  0
 19 20  2  0
 20 21  1  0
 21 22  2  0
 22 23  1  0
 23 24  1  0
 24 25  1  0
 25 26  1  0
 25 27  1  0
 25 28  1  0
 22 29  1  0
 29 30  2  0
  6  2  1  0
 30 13  1  0
 30 19  1  0
 28 23  1  0
  1 31  1  0
  1 32  1  0
  1 33  1  0
  2 34  1  1
  3 35  1  0
  3 36  1  0
  4 37  1  0
  4 38  1  0
  5 39  1  0
  5 40  1  0
  6 41  1  6
 10 42  1  0
 10 43  1  0
 16 44  1  0
 18 45  1  0
 20 46  1  0
 21 47  1  0
 24 48  1  0
 24 49  1  0
 28 50  1  0
 28 51  1  0
 29 52  1  0
M  CHG  2   2   1  16  -1
M  END
>  <UniqueID>  (48) 
48

>  <SMILES>  (48) 
C[N@H+]1CCC[C@H]1C(=O)OCC(=O)n1c(C([NH-])=O)cc2ccc(N3CC(F)(F)C3)cc21

>  <Energy>  (48) 
142.52949213103028

>  <Genealogy>  (48) 
C[NH+]1CCCC1C(=O)OCC(=O)n1c(C([NH-])=O)cc2ccc(N3CC(F)(F)C3)cc21 (protonated)
C[N@H+]1CCC[C@H]1C(=O)OCC(=O)n1c(C([NH-])=O)cc2ccc(N3CC(F)(F)C3)cc21 (chirality)
C[N@H+]1CCC[C@H]1C(=O)OCC(=O)n1c(C([NH-])=O)cc2ccc(N3CC(F)(F)C3)cc21 (3D coordinates assigned)
C[N@H+]1CCC[C@H]1C(=O)OCC(=O)n1c(C([NH-])=O)cc2ccc(N3CC(F)(F)C3)cc21 (nonaromatic ring conformer: 142.52949213103028 kcal/mol)

>  <smiles>  (48) 
CN1CCCC1C(=O)OCC(=O)n1c(C(N)=O)cc2ccc(N3CC(F)(F)C3)cc21

>  <score_type>  (48) 
oracle

>  <origin>  (48) 
adg

>  <m_score__min__energy>  (48) 
-7.2400000000000002

>  <m_primary>  (48) 
energy

$$$$
48:0
     RDKit          3D

 34 35  0  0  0  0  0  0  0  0999 V2000
  148.4500  157.6060  134.0270 N   0  0  0  0  0  0  0  0  0  0  0  0
  147.8310  158.8330  133.6440 C   0  0  0  0  0  0  0  0  0  0  0  0
  148.5490  159.8450  133.4210 O   0  0  0  0  0  0  0  0  0  0  0  0
  146.3630  158.9560  133.5710 C   0  0  0  0  0  0  0  0  0  0  0  0
  145.6890  160.1620  133.7360 C   0  0  0  0  0  0  0  0  0  0  0  0
  144.3540  159.8450  133.6540 C   0  0  0  0  0  0  0  0  0  0  0  0
  143.2360  160.6700  133.7320 C   0  0  0  0  0  0  0  0  0  0  0  0
  141.9710  160.0830  133.5710 C   0  0  0  0  0  0  0  0  0  0  0  0
  141.8440  158.6930  133.3250 C   0  0  0  0  0  0  0  0  0  0  0  0
  140.4800  158.0810  133.1330 C   0  0  0  0  0  0  0  0  0  0  0  0
  139.5720  158.0900  134.6670 Cl  0  0  0  0  0  0  0  0  0  0  0  0
  139.5630  158.9760  131.8930 Cl  0  0  0  0  0  0  0  0  0  0  0  0
  143.0040  157.8870  133.2480 C   0  0  0  0  0  0  0  0  0  0  0  0
  144.2530  158.4940  133.4370 C   0  0  0  0  0  0  0  0  0  0  0  0
  145.4830  157.9300  133.3830 N   0  0  0  0  0  0  0  0  0  0  0  0
  145.7900  156.5610  133.0620 C   0  0  0  0  0  0  0  0  0  0  0  0
  146.8840  156.2770  132.5040 O   0  0  0  0  0  0  0  0  0  0  0  0
  144.8620  155.5530  133.3470 O   0  0  0  0  0  0  0  0  0  0  0  0
  144.9760  154.6490  134.4470 C   0  0  0  0  0  0  0  0  0  0  0  0
  146.3410  153.9570  134.4500 C   0  0  0  0  0  0  0  0  0  0  0  0
  147.0930  154.2070  135.7190 C   0  0  0  0  0  0  0  0  0  0  0  0
  147.7350  155.2790  135.8730 O   0  0  0  0  0  0  0  0  0  0  0  0
  147.0720  153.2650  136.7400 O   0  0  0  0  0  0  0  0  0  0  0  0
  147.8800  156.8090  134.3850 H   0  0  0  0  0  0  0  0  0  0  0  0
  149.4920  157.5220  134.0360 H   0  0  0  0  0  0  0  0  0  0  0  0
  146.1302  161.1566  133.8975 H   0  0  0  0  0  0  0  0  0  0  0  0
  143.3404  161.7497  133.9143 H   0  0  0  0  0  0  0  0  0  0  0  0
  141.0686  160.7086  133.6365 H   0  0  0  0  0  0  0  0  0  0  0  0
  140.6151  157.0414  132.7999 H   0  0  0  0  0  0  0  0  0  0  0  0
  142.9275  156.8087  133.0445 H   0  0  0  0  0  0  0  0  0  0  0  0
  144.8544  155.2085  135.3863 H   0  0  0  0  0  0  0  0  0  0  0  0
  144.1943  153.8810  134.3515 H   0  0  0  0  0  0  0  0  0  0  0  0
  146.1902  152.8736  134.3340 H   0  0  0  0  0  0  0  0  0  0  0  0
  146.9321  154.3676  133.6181 H   0  0  0  0  0  0  0  0  0  0  0  0
  1  2  1  0
  2  3  2  0
  2  4  1  0
  4  5  2  0
  5  6  1  0
  6  7  2  0
  7  8  1  0
  8  9  2  0
  9 10  1  0
 10 11  1  0
 10 12  1  0
  9 13  1  0
 13 14  2  0
 14 15  1  0
 15 16  1  0
 16 17  2  0
 16 18  1  0
 18 19  1  0
 19 20  1  0
 20 21  1  0
 21 22  2  0
 21 23  1  0
 15  4  1  0
 14  6  1  0
  1 24  1  0
  1 25  1  0
  5 26  1  0
  7 27  1  0
  8 28  1  0
 10 29  1  0
 13 30  1  0
 19 31  1  0
 19 32  1  0
 20 33  1  0
 20 34  1  0
M  CHG  1  23  -1
M  END
>  <UniqueID>  (49) 
49

>  <SMILES>  (49) 
NC(=O)c1cc2ccc(C(Cl)Cl)cc2n1C(=O)OCCC(=O)[O-]

>  <Energy>  (49) 
70.09408710484412

>  <Genealogy>  (49) 
NC(=O)c1cc2ccc(C(Cl)Cl)cc2n1C(=O)OCCC(=O)[O-] (protonated)
NC(=O)c1cc2ccc(C(Cl)Cl)cc2n1C(=O)OCCC(=O)[O-] (3D coordinates assigned)
NC(=O)c1cc2ccc(C(Cl)Cl)cc2n1C(=O)OCCC(=O)[O-] (optimized conformer: 70.09408710484412 kcal/mol)

>  <smiles>  (49) 
NC(=O)c1cc2ccc(C(Cl)Cl)cc2n1C(=O)OCCC(=O)O

>  <score_type>  (49) 
oracle

>  <origin>  (49) 
adg

>  <m_score__min__energy>  (49) 
-7.3600000000000003

>  <m_primary>  (49) 
energy

$$$$
49:0
     RDKit          3D

 39 40  0  0  0  0  0  0  0  0999 V2000
  149.7900  157.5170  132.0000 N   0  0  0  0  0  0  0  0  0  0  0  0
  149.2080  158.7930  132.2490 C   0  0  0  0  0  0  0  0  0  0  0  0
  149.9020  159.8290  132.0660 O   0  0  0  0  0  0  0  0  0  0  0  0
  147.8050  158.9250  132.7010 C   0  0  0  0  0  0  0  0  0  0  0  0
  147.1030  160.1300  132.6860 C   0  0  0  0  0  0  0  0  0  0  0  0
  145.8460  159.8280  133.1560 C   0  0  0  0  0  0  0  0  0  0  0  0
  144.7480  160.6540  133.3730 C   0  0  0  0  0  0  0  0  0  0  0  0
  143.5840  160.0780  133.9100 C   0  0  0  0  0  0  0  0  0  0  0  0
  143.5420  158.6940  134.2360 C   0  0  0  0  0  0  0  0  0  0  0  0
  142.3650  158.0810  134.8010 N   0  0  0  0  0  0  0  0  0  0  0  0
  142.3150  156.7310  135.3610 C   0  0  0  0  0  0  0  0  0  0  0  0
  141.6500  156.7430  136.7370 C   0  0  0  0  0  0  0  0  0  0  0  0
  140.1920  157.8050  136.7190 S   0  0  0  0  0  0  0  0  0  0  0  0
  139.6490  157.6360  135.3060 O   0  0  0  0  0  0  0  0  0  0  0  0
  140.8420  159.3780  136.7000 O   0  0  0  0  0  0  0  0  0  0  0  0
  144.6800  157.8930  133.9970 C   0  0  0  0  0  0  0  0  0  0  0  0
  145.8150  158.4880  133.4370 C   0  0  0  0  0  0  0  0  0  0  0  0
  147.0060  157.9170  133.1530 N   0  0  0  0  0  0  0  0  0  0  0  0
  147.3470  156.5340  133.3270 C   0  0  0  0  0  0  0  0  0  0  0  0
  147.2980  155.7490  132.3430 O   0  0  0  0  0  0  0  0  0  0  0  0
  147.7150  155.9970  134.6840 C   0  0  0  0  0  0  0  0  0  0  0  0
  146.9800  154.6890  134.9960 C   0  0  0  0  0  0  0  0  0  0  0  0
  147.4170  154.0970  136.3040 C   0  0  0  0  0  0  0  0  0  0  0  0
  146.8690  153.0510  136.7400 O   0  0  0  0  0  0  0  0  0  0  0  0
  148.4510  154.6810  137.0260 O   0  0  0  0  0  0  0  0  0  0  0  0
  149.1950  156.6880  131.7810 H   0  0  0  0  0  0  0  0  0  0  0  0
  147.4758  161.1142  132.3659 H   0  0  0  0  0  0  0  0  0  0  0  0
  144.7896  161.7263  133.1314 H   0  0  0  0  0  0  0  0  0  0  0  0
  142.6958  160.7042  134.0801 H   0  0  0  0  0  0  0  0  0  0  0  0
  141.4800  158.6380  134.8250 H   0  0  0  0  0  0  0  0  0  0  0  0
  141.7382  156.0811  134.6865 H   0  0  0  0  0  0  0  0  0  0  0  0
  143.3426  156.3532  135.4673 H   0  0  0  0  0  0  0  0  0  0  0  0
  141.3497  155.7190  137.0037 H   0  0  0  0  0  0  0  0  0  0  0  0
  142.3658  157.1308  137.4768 H   0  0  0  0  0  0  0  0  0  0  0  0
  144.6739  156.8217  134.2465 H   0  0  0  0  0  0  0  0  0  0  0  0
  148.7989  155.8119  134.7119 H   0  0  0  0  0  0  0  0  0  0  0  0
  147.4221  156.7424  135.4380 H   0  0  0  0  0  0  0  0  0  0  0  0
  145.8996  154.8907  135.0407 H   0  0  0  0  0  0  0  0  0  0  0  0
  147.2174  153.9676  134.2002 H   0  0  0  0  0  0  0  0  0  0  0  0
  1  2  1  0
  2  3  2  0
  2  4  1  0
  4  5  2  0
  5  6  1  0
  6  7  2  0
  7  8  1  0
  8  9  2  0
  9 10  1  0
 10 11  1  0
 11 12  1  0
 12 13  1  0
 13 14  2  0
 13 15  1  6
  9 16  1  0
 16 17  2  0
 17 18  1  0
 18 19  1  0
 19 20  2  0
 19 21  1  0
 21 22  1  0
 22 23  1  0
 23 24  2  0
 23 25  1  0
 18  4  1  0
 17  6  1  0
  1 26  1  0
  5 27  1  0
  7 28  1  0
  8 29  1  0
 10 30  1  0
 11 31  1  0
 11 32  1  0
 12 33  1  0
 12 34  1  0
 16 35  1  0
 21 36  1  0
 21 37  1  0
 22 38  1  0
 22 39  1  0
M  CHG  3   1  -1  15  -1  25  -1
M  END
>  <UniqueID>  (50) 
50

>  <SMILES>  (50) 
[NH-]C(=O)c1cc2ccc(NCC[S@](=O)[O-])cc2n1C(=O)CCC(=O)[O-]

>  <Energy>  (50) 
70.02168056039862

>  <Genealogy>  (50) 
[NH-]C(=O)c1cc2ccc(NCCS(=O)[O-])cc2n1C(=O)CCC(=O)[O-] (protonated)
[NH-]C(=O)c1cc2ccc(NCC[S@](=O)[O-])cc2n1C(=O)CCC(=O)[O-] (chirality)
[NH-]C(=O)c1cc2ccc(NCC[S@](=O)[O-])cc2n1C(=O)CCC(=O)[O-] (3D coordinates assigned)
[NH-]C(=O)c1cc2ccc(NCC[S@](=O)[O-])cc2n1C(=O)CCC(=O)[O-] (optimized conformer: 70.02168056039862 kcal/mol)

>  <smiles>  (50) 
NC(=O)c1cc2ccc(NCCS(=O)O)cc2n1C(=O)CCC(=O)O

>  <score_type>  (50) 
oracle

>  <origin>  (50) 
adg

>  <m_score__min__energy>  (50) 
-7.7400000000000002

>  <m_primary>  (50) 
energy

$$$$
50:0
     RDKit          3D

 47 48  0  0  0  0  0  0  0  0999 V2000
  144.0250  155.2390  137.1490 H   0  0  0  0  0  0  0  0  0  0  0  0
  143.0540  155.1100  136.9920 O   0  0  0  0  0  0  0  0  0  0  0  0
  142.9390  154.5180  135.7290 C   0  0  0  0  0  0  0  0  0  0  0  0
  142.4595  153.5330  135.8280 H   0  0  0  0  0  0  0  0  0  0  0  0
  143.9396  154.3960  135.2886 H   0  0  0  0  0  0  0  0  0  0  0  0
  142.0890  155.4100  134.8240 C   0  0  0  0  0  0  0  0  0  0  0  0
  141.0364  155.1001  134.9017 H   0  0  0  0  0  0  0  0  0  0  0  0
  142.4510  155.3021  133.7909 H   0  0  0  0  0  0  0  0  0  0  0  0
  142.2020  156.8270  135.2110 N   0  0  0  0  0  0  0  0  0  0  0  0
  143.1340  157.6950  134.5230 C   0  0  0  0  0  0  0  0  0  0  0  0
  142.7110  158.9560  134.0220 C   0  0  0  0  0  0  0  0  0  0  0  0
  141.6647  159.2684  134.1548 H   0  0  0  0  0  0  0  0  0  0  0  0
  143.6090  159.8090  133.3600 C   0  0  0  0  0  0  0  0  0  0  0  0
  143.2838  160.7874  132.9767 H   0  0  0  0  0  0  0  0  0  0  0  0
  144.9230  159.3780  133.2040 C   0  0  0  0  0  0  0  0  0  0  0  0
  146.0030  160.0160  132.6370 C   0  0  0  0  0  0  0  0  0  0  0  0
  146.0184  161.0093  132.1646 H   0  0  0  0  0  0  0  0  0  0  0  0
  147.0750  159.1340  132.7890 C   0  0  0  0  0  0  0  0  0  0  0  0
  148.4510  159.3840  132.2950 C   0  0  0  0  0  0  0  0  0  0  0  0
  148.6330  160.0850  131.2650 O   0  0  0  0  0  0  0  0  0  0  0  0
  149.5890  158.8550  132.9780 N   0  0  0  0  0  0  0  0  0  0  0  0
  150.5510  159.0720  132.6320 H   0  0  0  0  0  0  0  0  0  0  0  0
  149.4930  158.2290  133.8060 H   0  0  0  0  0  0  0  0  0  0  0  0
  146.6620  157.9970  133.4140 N   0  0  0  0  0  0  0  0  0  0  0  0
  147.4690  156.8790  133.8080 C   0  0  0  0  0  0  0  0  0  0  0  0
  148.3560  157.0440  134.6880 O   0  0  0  0  0  0  0  0  0  0  0  0
  147.1970  155.5410  133.2410 C   0  0  0  0  0  0  0  0  0  0  0  0
  147.4068  155.4002  132.1704 H   0  0  0  0  0  0  0  0  0  0  0  0
  146.7180  154.4830  133.9120 C   0  0  0  0  0  0  0  0  0  0  0  0
  146.4050  153.6127  133.3164 H   0  0  0  0  0  0  0  0  0  0  0  0
  146.5730  154.3810  135.3760 C   0  0  0  0  0  0  0  0  0  0  0  0
  145.7820  155.1660  135.9660 O   0  0  0  0  0  0  0  0  0  0  0  0
  147.2300  153.3760  136.0930 O   0  0  0  0  0  0  0  0  0  0  0  0
  148.1320  153.6550  137.1560 C   0  0  0  0  0  0  0  0  0  0  0  0
  147.6239  153.4978  138.1189 H   0  0  0  0  0  0  0  0  0  0  0  0
  149.0004  152.9835  137.0858 H   0  0  0  0  0  0  0  0  0  0  0  0
  148.4696  154.6995  137.0858 H   0  0  0  0  0  0  0  0  0  0  0  0
  145.3470  158.1640  133.6660 C   0  0  0  0  0  0  0  0  0  0  0  0
  144.4800  157.2990  134.3410 C   0  0  0  0  0  0  0  0  0  0  0  0
  144.8370  156.3310  134.7225 H   0  0  0  0  0  0  0  0  0  0  0  0
  141.3570  157.3550  136.2950 C   0  0  0  0  0  0  0  0  0  0  0  0
  141.8511  158.2310  136.7404 H   0  0  0  0  0  0  0  0  0  0  0  0
  141.2194  156.5629  137.0457 H   0  0  0  0  0  0  0  0  0  0  0  0
  139.9830  157.7700  135.7740 C   0  0  0  0  0  0  0  0  0  0  0  0
  139.3143  157.9720  136.6237 H   0  0  0  0  0  0  0  0  0  0  0  0
  140.0821  158.6783  135.1615 H   0  0  0  0  0  0  0  0  0  0  0  0
  139.5627  156.9587  135.1615 H   0  0  0  0  0  0  0  0  0  0  0  0
  1  2  1  0
  2  3  1  0
  3  4  1  0
  3  5  1  0
  3  6  1  0
  6  7  1  0
  6  8  1  0
  6  9  1  0
  9 10  1  0
 10 11  2  0
 11 12  1  0
 11 13  1  0
 13 14  1  0
 13 15  2  0
 15 16  1  0
 16 17  1  0
 16 18  2  0
 18 19  1  0
 19 20  2  0
 19 21  1  0
 21 22  1  0
 21 23  1  0
 18 24  1  0
 24 25  1  0
 25 26  2  0
 25 27  1  0
 27 28  1  0
 27 29  2  0
 29 30  1  0
 29 31  1  0
 31 32  2  0
 31 33  1  0
 33 34  1  0
 34 35  1  0
 34 36  1  0
 34 37  1  0
 24 38  1  0
 38 39  2  0
 39 40  1  0
  9 41  1  0
 41 42  1  0
 41 43  1  0
 41 44  1  0
 44 45  1  0
 44 46  1  0
 44 47  1  0
 39 10  1  0
 38 15  1  0
M  END
>  <UniqueID>  (51) 
51

>  <SMILES>  (51) 
CCN(CCO)c1ccc2cc(C(N)=O)n(C(=O)/C=C\C(=O)OC)c2c1

>  <Energy>  (51) 
88.07056271810521

>  <Genealogy>  (51) 
CCN(CCO)c1ccc2cc(C(N)=O)n(C(=O)/C=C\C(=O)OC)c2c1 (cis-trans isomerization)
CCN(CCO)c1ccc2cc(C(N)=O)n(C(=O)/C=C\C(=O)OC)c2c1 (3D coordinates assigned)
CCN(CCO)c1ccc2cc(C(N)=O)n(C(=O)/C=C\C(=O)OC)c2c1 (optimized conformer: 88.07056271810521 kcal/mol)

>  <smiles>  (51) 
CCN(CCO)c1ccc2cc(C(N)=O)n(C(=O)C=CC(=O)OC)c2c1

>  <score_type>  (51) 
oracle

>  <origin>  (51) 
adg

>  <m_score__min__energy>  (51) 
-7.1500000000000004

>  <m_primary>  (51) 
energy

$$$$
51:0
     RDKit          3D

 44 45  0  0  0  0  0  0  0  0999 V2000
  150.3750  150.6700  129.6260 C   0  0  0  0  0  0  0  0  0  0  0  0
  150.3690  149.9470  130.9660 C   0  0  0  0  0  0  0  0  0  0  0  0
  149.2730  150.7450  132.1300 S   0  0  0  0  0  0  0  0  0  0  0  0
  147.8920  150.7940  131.5380 O   0  0  0  0  0  0  0  0  0  0  0  0
  149.2360  149.9500  133.4060 O   0  0  0  0  0  0  0  0  0  0  0  0
  149.8430  152.4080  132.4670 C   0  0  0  0  0  0  0  0  0  0  0  0
  148.8560  153.1850  133.3450 C   0  0  0  0  0  0  0  0  0  0  0  0
  147.6370  153.5280  132.6090 N   0  0  0  0  0  0  0  0  0  0  0  0
  146.8650  154.7270  132.8140 C   0  0  0  0  0  0  0  0  0  0  0  0
  145.4490  154.6370  132.8270 C   0  0  0  0  0  0  0  0  0  0  0  0
  144.6530  155.7790  133.0120 C   0  0  0  0  0  0  0  0  0  0  0  0
  145.2970  157.0000  133.1830 C   0  0  0  0  0  0  0  0  0  0  0  0
  144.7760  158.2630  133.3640 C   0  0  0  0  0  0  0  0  0  0  0  0
  145.8820  159.1080  133.4660 C   0  0  0  0  0  0  0  0  0  0  0  0
  145.8050  160.5610  133.7400 C   0  0  0  0  0  0  0  0  0  0  0  0
  146.9790  161.3740  133.7350 N   0  0  0  0  0  0  0  0  0  0  0  0
  144.6890  161.1010  133.9660 O   0  0  0  0  0  0  0  0  0  0  0  0
  147.0340  158.3920  133.3530 N   0  0  0  0  0  0  0  0  0  0  0  0
  148.3810  158.8830  133.3520 C   0  0  0  0  0  0  0  0  0  0  0  0
  148.8740  159.3550  134.4110 O   0  0  0  0  0  0  0  0  0  0  0  0
  149.2420  158.7290  132.1360 C   0  0  0  0  0  0  0  0  0  0  0  0
  148.9320  159.8180  131.1610 C   0  0  0  0  0  0  0  0  0  0  0  0
  148.9240  159.5760  129.9240 O   0  0  0  0  0  0  0  0  0  0  0  0
  148.7060  161.1110  131.6110 O   0  0  0  0  0  0  0  0  0  0  0  0
  146.6610  157.1070  133.1800 C   0  0  0  0  0  0  0  0  0  0  0  0
  147.4800  155.9920  132.9860 C   0  0  0  0  0  0  0  0  0  0  0  0
  150.3840  151.7568  129.7958 H   0  0  0  0  0  0  0  0  0  0  0  0
  151.2708  150.3803  129.0571 H   0  0  0  0  0  0  0  0  0  0  0  0
  149.4745  150.3952  129.0571 H   0  0  0  0  0  0  0  0  0  0  0  0
  150.0349  148.9103  130.8122 H   0  0  0  0  0  0  0  0  0  0  0  0
  151.3889  149.9705  131.3775 H   0  0  0  0  0  0  0  0  0  0  0  0
  150.8122  152.3535  132.9844 H   0  0  0  0  0  0  0  0  0  0  0  0
  149.9344  152.9375  131.5071 H   0  0  0  0  0  0  0  0  0  0  0  0
  148.5868  152.5662  134.2137 H   0  0  0  0  0  0  0  0  0  0  0  0
  149.3404  154.1195  133.6646 H   0  0  0  0  0  0  0  0  0  0  0  0
  147.3110  152.8450  131.8870 H   0  0  0  0  0  0  0  0  0  0  0  0
  144.9674  153.6576  132.6901 H   0  0  0  0  0  0  0  0  0  0  0  0
  143.5552  155.7102  133.0214 H   0  0  0  0  0  0  0  0  0  0  0  0
  143.7141  158.5451  133.4168 H   0  0  0  0  0  0  0  0  0  0  0  0
  146.9030  162.4030  133.8930 H   0  0  0  0  0  0  0  0  0  0  0  0
  147.9300  160.9590  133.6220 H   0  0  0  0  0  0  0  0  0  0  0  0
  150.3010  158.7890  132.4273 H   0  0  0  0  0  0  0  0  0  0  0  0
  149.0433  157.7531  131.6689 H   0  0  0  0  0  0  0  0  0  0  0  0
  148.5751  156.0935  132.9672 H   0  0  0  0  0  0  0  0  0  0  0  0
  1  2  1  0
  2  3  1  0
  3  4  2  0
  3  5  2  0
  3  6  1  0
  6  7  1  0
  7  8  1  0
  8  9  1  0
  9 10  2  0
 10 11  1  0
 11 12  2  0
 12 13  1  0
 13 14  2  0
 14 15  1  0
 15 16  1  0
 15 17  2  0
 14 18  1  0
 18 19  1  0
 19 20  2  0
 19 21  1  0
 21 22  1  0
 22 23  2  0
 22 24  1  0
 18 25  1  0
 25 26  2  0
 26  9  1  0
 25 12  1  0
  1 27  1  0
  1 28  1  0
  1 29  1  0
  2 30  1  0
  2 31  1  0
  6 32  1  0
  6 33  1  0
  7 34  1  0
  7 35  1  0
  8 36  1  0
 10 37  1  0
 11 38  1  0
 13 39  1  0
 16 40  1  0
 16 41  1  0
 21 42  1  0
 21 43  1  0
 26 44  1  0
M  CHG  1  24  -1
M  END
>  <UniqueID>  (52) 
52

>  <SMILES>  (52) 
CCS(=O)(=O)CCNc1ccc2cc(C(N)=O)n(C(=O)CC(=O)[O-])c2c1

>  <Energy>  (52) 
68.72088282622212

>  <Genealogy>  (52) 
CCS(=O)(=O)CCNc1ccc2cc(C(N)=O)n(C(=O)CC(=O)[O-])c2c1 (protonated)
CCS(=O)(=O)CCNc1ccc2cc(C(N)=O)n(C(=O)CC(=O)[O-])c2c1 (3D coordinates assigned)
CCS(=O)(=O)CCNc1ccc2cc(C(N)=O)n(C(=O)CC(=O)[O-])c2c1 (optimized conformer: 68.72088282622212 kcal/mol)

>  <smiles>  (52) 
CCS(=O)(=O)CCNc1ccc2cc(C(N)=O)n(C(=O)CC(=O)O)c2c1

>  <score_type>  (52) 
oracle

>  <origin>  (52) 
adg

>  <m_score__min__energy>  (52) 
-7.8200000000000003

>  <m_primary>  (52) 
energy

$$$$
52:0
     RDKit          3D

 44 46  0  0  0  0  0  0  0  0999 V2000
  141.1020  159.0690  136.3680 C   0  0  0  0  0  0  0  0  0  0  0  0
  141.6770  158.3530  135.1300 C   0  0  0  0  0  0  0  0  0  0  0  0
  141.7500  156.8460  135.4330 C   0  0  0  0  0  0  0  0  0  0  0  0
  140.7770  158.5550  133.8850 C   0  0  0  0  0  0  0  0  0  0  0  0
  141.1210  159.7100  133.1690 O   0  0  0  0  0  0  0  0  0  0  0  0
  143.0470  158.8020  134.8520 N   0  0  0  0  0  0  0  0  0  0  0  0
  143.8130  158.6250  133.6520 C   0  0  0  0  0  0  0  0  0  0  0  0
  143.3360  157.9980  132.6690 O   0  0  0  0  0  0  0  0  0  0  0  0
  145.1450  159.1570  133.5800 N   0  0  0  0  0  0  0  0  0  0  0  0
  145.5290  160.4650  133.6240 C   0  0  0  0  0  0  0  0  0  0  0  0
  144.6460  161.6190  133.8930 C   0  0  0  0  0  0  0  0  0  0  0  0
  143.2440  161.5100  133.6570 N   0  0  0  0  0  0  0  0  0  0  0  0
  145.1190  162.7140  134.2990 O   0  0  0  0  0  0  0  0  0  0  0  0
  146.9080  160.5750  133.4590 C   0  0  0  0  0  0  0  0  0  0  0  0
  147.3620  159.2840  133.3150 C   0  0  0  0  0  0  0  0  0  0  0  0
  148.6540  158.8040  133.1100 C   0  0  0  0  0  0  0  0  0  0  0  0
  148.8270  157.4170  132.9700 C   0  0  0  0  0  0  0  0  0  0  0  0
  147.7150  156.5450  133.0300 C   0  0  0  0  0  0  0  0  0  0  0  0
  147.9000  155.1370  132.8770 N   0  0  0  0  0  0  0  0  0  0  0  0
  147.0870  153.9120  132.9750 C   0  0  0  0  0  0  0  0  0  0  0  0
  148.1890  152.9640  132.6330 C   0  0  0  0  0  0  0  0  0  0  0  0
  148.9980  154.2140  132.5360 C   0  0  0  0  0  0  0  0  0  0  0  0
  146.4200  157.0630  133.2370 C   0  0  0  0  0  0  0  0  0  0  0  0
  146.2790  158.4470  133.3920 C   0  0  0  0  0  0  0  0  0  0  0  0
  141.4868  158.5899  137.2803 H   0  0  0  0  0  0  0  0  0  0  0  0
  141.4047  160.1264  136.3536 H   0  0  0  0  0  0  0  0  0  0  0  0
  140.0042  159.0017  136.3536 H   0  0  0  0  0  0  0  0  0  0  0  0
  141.7575  156.6909  136.5220 H   0  0  0  0  0  0  0  0  0  0  0  0
  140.8752  156.3415  134.9968 H   0  0  0  0  0  0  0  0  0  0  0  0
  142.6694  156.4284  134.9968 H   0  0  0  0  0  0  0  0  0  0  0  0
  140.8845  157.6824  133.2239 H   0  0  0  0  0  0  0  0  0  0  0  0
  139.7389  158.6670  134.2313 H   0  0  0  0  0  0  0  0  0  0  0  0
  142.1130  159.7470  133.1370 H   0  0  0  0  0  0  0  0  0  0  0  0
  142.7010  160.6920  134.0120 H   0  0  0  0  0  0  0  0  0  0  0  0
  147.5067  161.4977  133.4465 H   0  0  0  0  0  0  0  0  0  0  0  0
  149.5122  159.4902  133.0593 H   0  0  0  0  0  0  0  0  0  0  0  0
  149.8351  157.0059  132.8125 H   0  0  0  0  0  0  0  0  0  0  0  0
  146.6848  153.7489  133.9858 H   0  0  0  0  0  0  0  0  0  0  0  0
  146.1759  153.8644  132.3604 H   0  0  0  0  0  0  0  0  0  0  0  0
  148.4830  152.2693  133.4336 H   0  0  0  0  0  0  0  0  0  0  0  0
  148.1249  152.2106  131.8341 H   0  0  0  0  0  0  0  0  0  0  0  0
  149.8208  154.2450  133.2654 H   0  0  0  0  0  0  0  0  0  0  0  0
  149.5294  154.3950  131.5900 H   0  0  0  0  0  0  0  0  0  0  0  0
  145.5447  156.3979  133.2756 H   0  0  0  0  0  0  0  0  0  0  0  0
  1  2  1  0
  2  3  1  0
  2  4  1  0
  4  5  1  0
  2  6  1  0
  6  7  1  0
  7  8  2  0
  7  9  1  0
  9 10  1  0
 10 11  1  0
 11 12  1  0
 11 13  2  0
 10 14  2  0
 14 15  1  0
 15 16  2  0
 16 17  1  0
 17 18  2  0
 18 19  1  0
 19 20  1  0
 20 21  1  0
 21 22  1  0
 18 23  1  0
 23 24  2  0
 24  9  1  0
 24 15  1  0
 22 19  1  0
  1 25  1  0
  1 26  1  0
  1 27  1  0
  3 28  1  0
  3 29  1  0
  3 30  1  0
  4 31  1  0
  4 32  1  0
  5 33  1  0
 12 34  1  0
 14 35  1  0
 16 36  1  0
 17 37  1  0
 20 38  1  0
 20 39  1  0
 21 40  1  0
 21 41  1  0
 22 42  1  0
 22 43  1  0
 23 44  1  0
M  CHG  2   6  -1  12  -1
M  END
>  <UniqueID>  (53) 
53

>  <SMILES>  (53) 
CC(C)(CO)[N-]C(=O)n1c(C([NH-])=O)cc2ccc(N3CCC3)cc21

>  <Energy>  (53) 
123.21747556073268

>  <Genealogy>  (53) 
CC(C)(CO)[N-]C(=O)n1c(C([NH-])=O)cc2ccc(N3CCC3)cc21 (protonated)
CC(C)(CO)[N-]C(=O)n1c(C([NH-])=O)cc2ccc(N3CCC3)cc21 (3D coordinates assigned)
CC(C)(CO)[N-]C(=O)n1c(C([NH-])=O)cc2ccc(N3CCC3)cc21 (nonaromatic ring conformer: 123.21747556073268 kcal/mol)

>  <smiles>  (53) 
CC(C)(CO)NC(=O)n1c(C(N)=O)cc2ccc(N3CCC3)cc21

>  <score_type>  (53) 
oracle

>  <origin>  (53) 
adg

>  <m_score__min__energy>  (53) 
-7.2000000000000002

>  <m_primary>  (53) 
energy

$$$$
53:0
     RDKit          3D

 41 43  0  0  0  0  0  0  0  0999 V2000
  150.3310  151.8800  132.5520 C   0  0  0  0  0  0  0  0  0  0  0  0
  149.2060  152.7960  132.6710 N   0  0  0  0  0  0  0  0  0  0  0  0
  147.9220  152.4470  132.8610 C   0  0  0  0  0  0  0  0  0  0  0  0
  147.1730  153.5970  132.9960 C   0  0  0  0  0  0  0  0  0  0  0  0
  148.0940  154.6300  132.8880 C   0  0  0  0  0  0  0  0  0  0  0  0
  147.8190  156.0850  132.9730 C   0  0  0  0  0  0  0  0  0  0  0  0
  148.8590  157.0390  132.8060 C   0  0  0  0  0  0  0  0  0  0  0  0
  148.5950  158.4150  132.9030 C   0  0  0  0  0  0  0  0  0  0  0  0
  147.2870  158.8140  133.1550 C   0  0  0  0  0  0  0  0  0  0  0  0
  146.7680  160.0750  133.3340 C   0  0  0  0  0  0  0  0  0  0  0  0
  145.4110  159.8820  133.5760 C   0  0  0  0  0  0  0  0  0  0  0  0
  144.4550  160.9900  133.7700 C   0  0  0  0  0  0  0  0  0  0  0  0
  143.0910  160.8710  133.3630 N   0  0  0  0  0  0  0  0  0  0  0  0
  144.8600  162.0800  134.2540 O   0  0  0  0  0  0  0  0  0  0  0  0
  145.1030  158.5550  133.5620 N   0  0  0  0  0  0  0  0  0  0  0  0
  143.8410  157.9530  133.8920 C   0  0  0  0  0  0  0  0  0  0  0  0
  143.7700  157.1030  134.8220 O   0  0  0  0  0  0  0  0  0  0  0  0
  142.6930  158.3110  133.1740 O   0  0  0  0  0  0  0  0  0  0  0  0
  141.5850  157.4350  132.9730 C   0  0  0  0  0  0  0  0  0  0  0  0
  140.2670  158.1870  133.1600 C   0  0  0  0  0  0  0  0  0  0  0  0
  140.2890  159.4780  132.4060 C   0  0  0  0  0  0  0  0  0  0  0  0
  140.6400  160.5420  132.9810 O   0  0  0  0  0  0  0  0  0  0  0  0
  139.8720  159.5160  131.0810 O   0  0  0  0  0  0  0  0  0  0  0  0
  146.2640  157.9130  133.3000 C   0  0  0  0  0  0  0  0  0  0  0  0
  146.5030  156.5350  133.2310 C   0  0  0  0  0  0  0  0  0  0  0  0
  149.3270  154.1130  132.6990 N   0  0  0  0  0  0  0  0  0  0  0  0
  150.6801  151.5957  133.5556 H   0  0  0  0  0  0  0  0  0  0  0  0
  150.0144  150.9796  132.0052 H   0  0  0  0  0  0  0  0  0  0  0  0
  151.1486  152.3725  132.0052 H   0  0  0  0  0  0  0  0  0  0  0  0
  147.5343  151.4184  132.9019 H   0  0  0  0  0  0  0  0  0  0  0  0
  146.0874  153.6778  133.1541 H   0  0  0  0  0  0  0  0  0  0  0  0
  149.8831  156.6956  132.5982 H   0  0  0  0  0  0  0  0  0  0  0  0
  149.3995  159.1555  132.7831 H   0  0  0  0  0  0  0  0  0  0  0  0
  147.3096  161.0316  133.2944 H   0  0  0  0  0  0  0  0  0  0  0  0
  142.7630  160.0490  132.8090 H   0  0  0  0  0  0  0  0  0  0  0  0
  142.4180  161.6480  133.5490 H   0  0  0  0  0  0  0  0  0  0  0  0
  141.6270  157.0264  131.9526 H   0  0  0  0  0  0  0  0  0  0  0  0
  141.6374  156.6202  133.7102 H   0  0  0  0  0  0  0  0  0  0  0  0
  139.4394  157.5649  132.7884 H   0  0  0  0  0  0  0  0  0  0  0  0
  140.1290  158.4022  134.2299 H   0  0  0  0  0  0  0  0  0  0  0  0
  145.6829  155.8161  133.3747 H   0  0  0  0  0  0  0  0  0  0  0  0
  1  2  1  0
  2  3  1  0
  3  4  2  0
  4  5  1  0
  5  6  1  0
  6  7  2  0
  7  8  1  0
  8  9  2  0
  9 10  1  0
 10 11  2  0
 11 12  1  0
 12 13  1  0
 12 14  2  0
 11 15  1  0
 15 16  1  0
 16 17  2  0
 16 18  1  0
 18 19  1  0
 19 20  1  0
 20 21  1  0
 21 22  2  0
 21 23  1  0
 15 24  1  0
 24 25  2  0
  5 26  2  0
 26  2  1  0
 25  6  1  0
 24  9  1  0
  1 27  1  0
  1 28  1  0
  1 29  1  0
  3 30  1  0
  4 31  1  0
  7 32  1  0
  8 33  1  0
 10 34  1  0
 13 35  1  0
 13 36  1  0
 19 37  1  0
 19 38  1  0
 20 39  1  0
 20 40  1  0
 25 41  1  0
M  CHG  1  23  -1
M  END
>  <UniqueID>  (54) 
54

>  <SMILES>  (54) 
Cn1ccc(-c2ccc3cc(C(N)=O)n(C(=O)OCCC(=O)[O-])c3c2)n1

>  <Energy>  (54) 
107.83233316274725

>  <Genealogy>  (54) 
Cn1ccc(-c2ccc3cc(C(N)=O)n(C(=O)OCCC(=O)[O-])c3c2)n1 (protonated)
Cn1ccc(-c2ccc3cc(C(N)=O)n(C(=O)OCCC(=O)[O-])c3c2)n1 (3D coordinates assigned)
Cn1ccc(-c2ccc3cc(C(N)=O)n(C(=O)OCCC(=O)[O-])c3c2)n1 (optimized conformer: 107.83233316274725 kcal/mol)

>  <smiles>  (54) 
Cn1ccc(-c2ccc3cc(C(N)=O)n(C(=O)OCCC(=O)O)c3c2)n1

>  <score_type>  (54) 
oracle

>  <origin>  (54) 
adg

>  <m_score__min__energy>  (54) 
-7.6100000000000003

>  <m_primary>  (54) 
energy

$$$$
54:0
     RDKit          3D

 40 41  0  0  0  0  0  0  0  0999 V2000
  139.1170  159.3610  132.0760 C   0  0  0  0  0  0  0  0  0  0  0  0
  140.5060  159.7400  132.5770 C   0  0  0  0  0  0  0  0  0  0  0  0
  140.5480  159.7290  134.0020 O   0  0  0  0  0  0  0  0  0  0  0  0
  140.5020  158.5570  134.7660 C   0  0  0  0  0  0  0  0  0  0  0  0
  139.4390  157.8820  134.8450 O   0  0  0  0  0  0  0  0  0  0  0  0
  141.7280  158.1150  135.5120 C   0  0  1  0  0  0  0  0  0  0  0  0
  141.9760  156.6280  135.2780 C   0  0  0  0  0  0  0  0  0  0  0  0
  142.8700  158.8570  135.0850 O   0  0  0  0  0  0  0  0  0  0  0  0
  143.5510  158.6010  133.8890 C   0  0  0  0  0  0  0  0  0  0  0  0
  142.9910  157.9510  132.9640 O   0  0  0  0  0  0  0  0  0  0  0  0
  144.8840  159.1070  133.7040 N   0  0  0  0  0  0  0  0  0  0  0  0
  145.2790  160.4100  133.6330 C   0  0  0  0  0  0  0  0  0  0  0  0
  144.4280  161.5900  133.8930 C   0  0  0  0  0  0  0  0  0  0  0  0
  143.0160  161.4970  133.7220 N   0  0  0  0  0  0  0  0  0  0  0  0
  144.9370  162.6900  134.2290 O   0  0  0  0  0  0  0  0  0  0  0  0
  146.6420  160.4950  133.3570 C   0  0  0  0  0  0  0  0  0  0  0  0
  147.0760  159.1930  133.2660 C   0  0  0  0  0  0  0  0  0  0  0  0
  148.3480  158.6910  133.0070 C   0  0  0  0  0  0  0  0  0  0  0  0
  148.5070  157.2970  132.9480 C   0  0  0  0  0  0  0  0  0  0  0  0
  147.3950  156.4320  133.1210 C   0  0  0  0  0  0  0  0  0  0  0  0
  147.5860  154.9360  133.0920 C   0  0  0  0  0  0  0  0  0  0  0  0
  148.6430  154.5930  132.2660 F   0  0  0  0  0  0  0  0  0  0  0  0
  147.8500  154.4870  134.3730 F   0  0  0  0  0  0  0  0  0  0  0  0
  146.4470  154.3070  132.6200 F   0  0  0  0  0  0  0  0  0  0  0  0
  146.1230  156.9810  133.4060 C   0  0  0  0  0  0  0  0  0  0  0  0
  145.9980  158.3740  133.4770 C   0  0  0  0  0  0  0  0  0  0  0  0
  138.4541  159.1801  132.9350 H   0  0  0  0  0  0  0  0  0  0  0  0
  138.7109  160.1812  131.4658 H   0  0  0  0  0  0  0  0  0  0  0  0
  139.1838  158.4482  131.4658 H   0  0  0  0  0  0  0  0  0  0  0  0
  141.2394  159.0181  132.1885 H   0  0  0  0  0  0  0  0  0  0  0  0
  140.7448  160.7541  132.2239 H   0  0  0  0  0  0  0  0  0  0  0  0
  141.5628  158.2963  136.5843 H   0  0  0  0  0  0  0  0  0  0  0  0
  142.0618  156.1137  136.2466 H   0  0  0  0  0  0  0  0  0  0  0  0
  141.1366  156.2013  134.7094 H   0  0  0  0  0  0  0  0  0  0  0  0
  142.9084  156.4968  134.7094 H   0  0  0  0  0  0  0  0  0  0  0  0
  142.5230  160.5820  133.8190 H   0  0  0  0  0  0  0  0  0  0  0  0
  147.2429  161.4086  133.2374 H   0  0  0  0  0  0  0  0  0  0  0  0
  149.2030  159.3658  132.8532 H   0  0  0  0  0  0  0  0  0  0  0  0
  149.5045  156.8706  132.7657 H   0  0  0  0  0  0  0  0  0  0  0  0
  145.2521  156.3289  133.5681 H   0  0  0  0  0  0  0  0  0  0  0  0
  1  2  1  0
  2  3  1  0
  3  4  1  0
  4  5  2  0
  4  6  1  0
  6  7  1  0
  6  8  1  0
  8  9  1  0
  9 10  2  0
  9 11  1  0
 11 12  1  0
 12 13  1  0
 13 14  1  0
 13 15  2  0
 12 16  2  0
 16 17  1  0
 17 18  2  0
 18 19  1  0
 19 20  2  0
 20 21  1  0
 21 22  1  0
 21 23  1  0
 21 24  1  0
 20 25  1  0
 25 26  2  0
 26 11  1  0
 26 17  1  0
  1 27  1  0
  1 28  1  0
  1 29  1  0
  2 30  1  0
  2 31  1  0
  6 32  1  1
  7 33  1  0
  7 34  1  0
  7 35  1  0
 14 36  1  0
 16 37  1  0
 18 38  1  0
 19 39  1  0
 25 40  1  0
M  CHG  1  14  -1
M  END
>  <UniqueID>  (55) 
55

>  <SMILES>  (55) 
CCOC(=O)[C@@H](C)OC(=O)n1c(C([NH-])=O)cc2ccc(C(F)(F)F)cc21

>  <Energy>  (55) 
70.47048423029997

>  <Genealogy>  (55) 
CCOC(=O)C(C)OC(=O)n1c(C([NH-])=O)cc2ccc(C(F)(F)F)cc21 (protonated)
CCOC(=O)[C@@H](C)OC(=O)n1c(C([NH-])=O)cc2ccc(C(F)(F)F)cc21 (chirality)
CCOC(=O)[C@@H](C)OC(=O)n1c(C([NH-])=O)cc2ccc(C(F)(F)F)cc21 (3D coordinates assigned)
CCOC(=O)[C@@H](C)OC(=O)n1c(C([NH-])=O)cc2ccc(C(F)(F)F)cc21 (optimized conformer: 70.47048423029997 kcal/mol)

>  <smiles>  (55) 
CCOC(=O)C(C)OC(=O)n1c(C(N)=O)cc2ccc(C(F)(F)F)cc21

>  <score_type>  (55) 
oracle

>  <origin>  (55) 
adg

>  <m_score__min__energy>  (55) 
-5.9100000000000001

>  <m_primary>  (55) 
energy

$$$$
55:0
     RDKit          3D

 32 34  0  0  0  0  0  0  0  0999 V2000
  149.9720  151.5280  131.8170 C   0  0  0  0  0  0  0  0  0  0  0  0
  149.1020  152.5230  132.4310 N   0  0  0  0  0  0  0  0  0  0  0  0
  149.1950  153.8580  132.2750 C   0  0  0  0  0  0  0  0  0  0  0  0
  148.1350  154.4540  132.9450 C   0  0  0  0  0  0  0  0  0  0  0  0
  147.8270  155.9020  133.0310 C   0  0  0  0  0  0  0  0  0  0  0  0
  148.8600  156.8700  132.9190 C   0  0  0  0  0  0  0  0  0  0  0  0
  148.5710  158.2440  132.9880 C   0  0  0  0  0  0  0  0  0  0  0  0
  147.2470  158.6230  133.1720 C   0  0  0  0  0  0  0  0  0  0  0  0
  146.6860  159.8780  133.2540 C   0  0  0  0  0  0  0  0  0  0  0  0
  145.3210  159.6610  133.4320 C   0  0  0  0  0  0  0  0  0  0  0  0
  144.3460  160.7460  133.6620 C   0  0  0  0  0  0  0  0  0  0  0  0
  142.9620  160.5580  133.3780 N   0  0  0  0  0  0  0  0  0  0  0  0
  144.7310  161.8370  134.1620 O   0  0  0  0  0  0  0  0  0  0  0  0
  145.0490  158.3270  133.4470 N   0  0  0  0  0  0  0  0  0  0  0  0
  143.7660  157.6870  133.5090 C   0  0  0  0  0  0  0  0  0  0  0  0
  142.9040  157.9110  132.6200 O   0  0  0  0  0  0  0  0  0  0  0  0
  143.3400  156.6240  134.9040 S   0  0  0  0  0  0  0  0  0  0  0  0
  146.2370  157.7050  133.2910 C   0  0  0  0  0  0  0  0  0  0  0  0
  146.4910  156.3320  133.2110 C   0  0  0  0  0  0  0  0  0  0  0  0
  147.4210  153.3890  133.4790 C   0  0  0  0  0  0  0  0  0  0  0  0
  146.2510  153.4550  134.1610 F   0  0  0  0  0  0  0  0  0  0  0  0
  148.0250  152.2360  133.1430 N   0  0  0  0  0  0  0  0  0  0  0  0
  150.4785  150.9487  132.6031 H   0  0  0  0  0  0  0  0  0  0  0  0
  149.3710  150.8509  131.1922 H   0  0  0  0  0  0  0  0  0  0  0  0
  150.7232  152.0333  131.1922 H   0  0  0  0  0  0  0  0  0  0  0  0
  149.9784  154.3865  131.7119 H   0  0  0  0  0  0  0  0  0  0  0  0
  149.8997  156.5404  132.7764 H   0  0  0  0  0  0  0  0  0  0  0  0
  149.3687  158.9961  132.8990 H   0  0  0  0  0  0  0  0  0  0  0  0
  147.2050  160.8459  133.1921 H   0  0  0  0  0  0  0  0  0  0  0  0
  142.6550  160.0540  132.5170 H   0  0  0  0  0  0  0  0  0  0  0  0
  145.6708  155.6029  133.2863 H   0  0  0  0  0  0  0  0  0  0  0  0
  147.6950  151.2730  133.3760 H   0  0  0  0  0  0  0  0  0  0  0  0
  1  2  1  0
  2  3  1  0
  3  4  2  0
  4  5  1  0
  5  6  2  0
  6  7  1  0
  7  8  2  0
  8  9  1  0
  9 10  2  0
 10 11  1  0
 11 12  1  0
 11 13  2  0
 10 14  1  0
 14 15  1  0
 15 16  2  0
 15 17  1  0
 14 18  1  0
 18 19  2  0
  4 20  1  0
 20 21  1  0
 20 22  2  0
 22  2  1  0
 19  5  1  0
 18  8  1  0
  1 23  1  0
  1 24  1  0
  1 25  1  0
  3 26  1  0
  6 27  1  0
  7 28  1  0
  9 29  1  0
 12 30  1  0
 19 31  1  0
 22 32  1  0
M  CHG  3  12  -1  17  -1  22   1
M  END
>  <UniqueID>  (56) 
56

>  <SMILES>  (56) 
Cn1cc(-c2ccc3cc(C([NH-])=O)n(C(=O)[S-])c3c2)c(F)[nH+]1

>  <Energy>  (56) 
108.66701991475972

>  <Genealogy>  (56) 
Cn1cc(-c2ccc3cc(C([NH-])=O)n(C(=O)[S-])c3c2)c(F)[nH+]1 (protonated)
Cn1cc(-c2ccc3cc(C([NH-])=O)n(C(=O)[S-])c3c2)c(F)[nH+]1 (3D coordinates assigned)
Cn1cc(-c2ccc3cc(C([NH-])=O)n(C(=O)[S-])c3c2)c(F)[nH+]1 (optimized conformer: 108.66701991475972 kcal/mol)

>  <smiles>  (56) 
Cn1cc(-c2ccc3cc(C(N)=O)n(C(=O)S)c3c2)c(F)n1

>  <score_type>  (56) 
oracle

>  <origin>  (56) 
adg

>  <m_score__min__energy>  (56) 
-7.1299999999999999

>  <m_primary>  (56) 
energy

$$$$
56:0
     RDKit          3D

 37 39  0  0  0  0  0  0  0  0999 V2000
  145.3860  160.5530  132.9510 N   0  0  0  0  0  0  0  0  0  0  0  0
  144.7460  159.4350  133.5700 C   0  0  0  0  0  0  0  0  0  0  0  0
  143.6290  159.5960  134.1280 O   0  0  0  0  0  0  0  0  0  0  0  0
  145.3400  158.0840  133.5120 C   0  0  0  0  0  0  0  0  0  0  0  0
  144.6140  156.9180  133.7340 C   0  0  0  0  0  0  0  0  0  0  0  0
  145.5050  155.8900  133.5260 C   0  0  0  0  0  0  0  0  0  0  0  0
  145.3200  154.5150  133.6170 C   0  0  0  0  0  0  0  0  0  0  0  0
  146.4270  153.6830  133.3800 C   0  0  0  0  0  0  0  0  0  0  0  0
  147.7000  154.2370  133.0880 C   0  0  0  0  0  0  0  0  0  0  0  0
  148.8730  153.3340  132.8010 C   0  0  0  0  0  0  0  0  0  0  0  0
  149.2310  152.6230  133.9330 F   0  0  0  0  0  0  0  0  0  0  0  0
  149.9480  154.1000  132.3900 F   0  0  0  0  0  0  0  0  0  0  0  0
  148.5590  152.4270  131.8030 F   0  0  0  0  0  0  0  0  0  0  0  0
  147.8420  155.6400  132.9830 C   0  0  0  0  0  0  0  0  0  0  0  0
  146.7170  156.4430  133.2030 C   0  0  0  0  0  0  0  0  0  0  0  0
  146.6330  157.7940  133.1910 N   0  0  0  0  0  0  0  0  0  0  0  0
  147.7180  158.7170  133.0130 C   0  0  0  0  0  0  0  0  0  0  0  0
  147.7690  159.7700  133.7030 O   0  0  0  0  0  0  0  0  0  0  0  0
  148.7380  158.4430  132.0470 N   0  0  0  0  0  0  0  0  0  0  0  0
  149.6760  159.4420  131.5500 C   0  0  0  0  0  0  0  0  0  0  0  0
  148.9540  160.4510  130.6480 C   0  0  0  0  0  0  0  0  0  0  0  0
  147.5560  160.5140  130.7060 O   0  0  0  0  0  0  0  0  0  0  0  0
  149.5390  160.7000  129.2680 C   0  0  0  0  0  0  0  0  0  0  0  0
  149.6340  161.7750  130.3480 C   0  0  0  0  0  0  0  0  0  0  0  0
  146.2240  160.4250  132.3410 H   0  0  0  0  0  0  0  0  0  0  0  0
  144.9720  161.5070  133.0380 H   0  0  0  0  0  0  0  0  0  0  0  0
  143.5539  156.8355  134.0157 H   0  0  0  0  0  0  0  0  0  0  0  0
  144.3362  154.0912  133.8671 H   0  0  0  0  0  0  0  0  0  0  0  0
  146.3054  152.5905  133.4213 H   0  0  0  0  0  0  0  0  0  0  0  0
  148.8144  156.0900  132.7341 H   0  0  0  0  0  0  0  0  0  0  0  0
  150.1246  159.9737  132.4021 H   0  0  0  0  0  0  0  0  0  0  0  0
  150.4589  158.9368  130.9653 H   0  0  0  0  0  0  0  0  0  0  0  0
  147.3020  160.0590  131.5500 H   0  0  0  0  0  0  0  0  0  0  0  0
  150.4423  160.1603  128.9474 H   0  0  0  0  0  0  0  0  0  0  0  0
  149.1517  160.6614  128.2391 H   0  0  0  0  0  0  0  0  0  0  0  0
  150.6060  162.0107  130.8059 H   0  0  0  0  0  0  0  0  0  0  0  0
  149.3437  162.8335  130.4207 H   0  0  0  0  0  0  0  0  0  0  0  0
  1  2  1  0
  2  3  2  0
  2  4  1  0
  4  5  2  0
  5  6  1  0
  6  7  2  0
  7  8  1  0
  8  9  2  0
  9 10  1  0
 10 11  1  0
 10 12  1  0
 10 13  1  0
  9 14  1  0
 14 15  2  0
 15 16  1  0
 16 17  1  0
 17 18  2  0
 17 19  1  0
 19 20  1  0
 20 21  1  0
 21 22  1  0
 21 23  1  0
 23 24  1  0
 16  4  1  0
 24 21  1  0
 15  6  1  0
  1 25  1  0
  1 26  1  0
  5 27  1  0
  7 28  1  0
  8 29  1  0
 14 30  1  0
 20 31  1  0
 20 32  1  0
 22 33  1  0
 23 34  1  0
 23 35  1  0
 24 36  1  0
 24 37  1  0
M  CHG  1  19  -1
M  END
>  <UniqueID>  (57) 
57

>  <SMILES>  (57) 
NC(=O)c1cc2ccc(C(F)(F)F)cc2n1C(=O)[N-]CC1(O)CC1

>  <Energy>  (57) 
342.97898233137494

>  <Genealogy>  (57) 
NC(=O)c1cc2ccc(C(F)(F)F)cc2n1C(=O)[N-]CC1(O)CC1 (protonated)
NC(=O)c1cc2ccc(C(F)(F)F)cc2n1C(=O)[N-]CC1(O)CC1 (3D coordinates assigned)
NC(=O)c1cc2ccc(C(F)(F)F)cc2n1C(=O)[N-]CC1(O)CC1 (nonaromatic ring conformer: 342.97898233137494 kcal/mol)

>  <smiles>  (57) 
NC(=O)c1cc2ccc(C(F)(F)F)cc2n1C(=O)NCC1(O)CC1

>  <score_type>  (57) 
oracle

>  <origin>  (57) 
adg

>  <m_score__min__energy>  (57) 
-7.29

>  <m_primary>  (57) 
energy

$$$$
57:0
     RDKit          3D

 33 34  0  0  0  0  0  0  0  0999 V2000
  146.6040  162.4970  134.4890 N   0  0  0  0  0  0  0  0  0  0  0  0
  145.2880  162.0780  134.1210 C   0  0  0  0  0  0  0  0  0  0  0  0
  144.3850  162.9440  133.9870 O   0  0  0  0  0  0  0  0  0  0  0  0
  144.9910  160.6500  133.8680 C   0  0  0  0  0  0  0  0  0  0  0  0
  143.7420  160.0640  134.0690 C   0  0  0  0  0  0  0  0  0  0  0  0
  143.9250  158.7220  133.8200 C   0  0  0  0  0  0  0  0  0  0  0  0
  143.0130  157.6720  133.8550 C   0  0  0  0  0  0  0  0  0  0  0  0
  143.4750  156.3870  133.5260 C   0  0  0  0  0  0  0  0  0  0  0  0
  144.8350  156.1690  133.1850 C   0  0  0  0  0  0  0  0  0  0  0  0
  145.3040  154.7960  132.7770 C   0  0  0  0  0  0  0  0  0  0  0  0
  144.9310  153.8520  133.7180 F   0  0  0  0  0  0  0  0  0  0  0  0
  144.7550  154.4340  131.5600 F   0  0  0  0  0  0  0  0  0  0  0  0
  146.6830  154.8000  132.6660 F   0  0  0  0  0  0  0  0  0  0  0  0
  145.7250  157.2680  133.1390 C   0  0  0  0  0  0  0  0  0  0  0  0
  145.2390  158.5330  133.4840 C   0  0  0  0  0  0  0  0  0  0  0  0
  145.9060  159.7070  133.5050 N   0  0  0  0  0  0  0  0  0  0  0  0
  147.2860  159.9030  133.1530 C   0  0  0  0  0  0  0  0  0  0  0  0
  148.1630  159.9040  134.0590 O   0  0  0  0  0  0  0  0  0  0  0  0
  147.6750  160.0570  131.7370 C   0  0  0  0  0  0  0  0  0  0  0  0
  148.9460  160.2180  131.3570 C   0  0  0  0  0  0  0  0  0  0  0  0
  149.3070  160.3800  129.9140 C   0  0  0  0  0  0  0  0  0  0  0  0
  149.7110  161.6990  129.6740 O   0  0  0  0  0  0  0  0  0  0  0  0
  147.3650  161.8050  134.6670 H   0  0  0  0  0  0  0  0  0  0  0  0
  146.8100  163.5110  134.6280 H   0  0  0  0  0  0  0  0  0  0  0  0
  142.8090  160.5666  134.3637 H   0  0  0  0  0  0  0  0  0  0  0  0
  141.9622  157.8429  134.1318 H   0  0  0  0  0  0  0  0  0  0  0  0
  142.7740  155.5393  133.5328 H   0  0  0  0  0  0  0  0  0  0  0  0
  146.7743  157.1306  132.8390 H   0  0  0  0  0  0  0  0  0  0  0  0
  146.8899  160.0385  130.9668 H   0  0  0  0  0  0  0  0  0  0  0  0
  149.7403  160.2317  132.1179 H   0  0  0  0  0  0  0  0  0  0  0  0
  150.1298  159.6942  129.6637 H   0  0  0  0  0  0  0  0  0  0  0  0
  148.4306  160.1483  129.2909 H   0  0  0  0  0  0  0  0  0  0  0  0
  148.8780  162.2320  129.5970 H   0  0  0  0  0  0  0  0  0  0  0  0
  1  2  1  0
  2  3  2  0
  2  4  1  0
  4  5  2  0
  5  6  1  0
  6  7  2  0
  7  8  1  0
  8  9  2  0
  9 10  1  0
 10 11  1  0
 10 12  1  0
 10 13  1  0
  9 14  1  0
 14 15  2  0
 15 16  1  0
 16 17  1  0
 17 18  2  0
 17 19  1  0
 19 20  2  3
 20 21  1  0
 21 22  1  0
 16  4  1  0
 15  6  1  0
  1 23  1  0
  1 24  1  0
  5 25  1  0
  7 26  1  0
  8 27  1  0
 14 28  1  0
 19 29  1  0
 20 30  1  0
 21 31  1  0
 21 32  1  0
 22 33  1  0
M  END
>  <UniqueID>  (58) 
58

>  <SMILES>  (58) 
NC(=O)c1cc2ccc(C(F)(F)F)cc2n1C(=O)C=CCO

>  <Energy>  (58) 
69.47575874313058

>  <Genealogy>  (58) 
NC(=O)c1cc2ccc(C(F)(F)F)cc2n1C(=O)C=CCO (3D coordinates assigned)
NC(=O)c1cc2ccc(C(F)(F)F)cc2n1C(=O)C=CCO (optimized conformer: 69.47575874313058 kcal/mol)

>  <smiles>  (58) 
NC(=O)c1cc2ccc(C(F)(F)F)cc2n1C(=O)C=CCO

>  <score_type>  (58) 
oracle

>  <origin>  (58) 
adg

>  <m_score__min__energy>  (58) 
-7.0899999999999999

>  <m_primary>  (58) 
energy

$$$$
58:0
     RDKit          3D

 33 34  0  0  0  0  0  0  0  0999 V2000
  146.5260  153.8520  134.0590 C   0  0  0  0  0  0  0  0  0  0  0  0
  146.8220  154.8910  135.1350 C   0  0  2  0  0  0  0  0  0  0  0  0
  147.7280  155.8610  134.6110 O   0  0  0  0  0  0  0  0  0  0  0  0
  147.5970  156.4290  133.3380 C   0  0  0  0  0  0  0  0  0  0  0  0
  147.9290  155.7760  132.3110 O   0  0  0  0  0  0  0  0  0  0  0  0
  147.0550  157.7510  133.2030 N   0  0  0  0  0  0  0  0  0  0  0  0
  147.6560  158.8540  132.6700 C   0  0  0  0  0  0  0  0  0  0  0  0
  149.0710  158.9610  132.2610 C   0  0  0  0  0  0  0  0  0  0  0  0
  149.8290  157.8010  131.9250 N   0  0  0  0  0  0  0  0  0  0  0  0
  149.6350  160.0880  132.2530 O   0  0  0  0  0  0  0  0  0  0  0  0
  146.7660  159.9250  132.6340 C   0  0  0  0  0  0  0  0  0  0  0  0
  145.5940  159.4450  133.1740 C   0  0  0  0  0  0  0  0  0  0  0  0
  144.3700  160.0780  133.3610 C   0  0  0  0  0  0  0  0  0  0  0  0
  143.3160  159.3280  133.9080 C   0  0  0  0  0  0  0  0  0  0  0  0
  143.5040  157.9680  134.2680 C   0  0  0  0  0  0  0  0  0  0  0  0
  142.3490  157.1560  134.7950 C   0  0  0  0  0  0  0  0  0  0  0  0
  141.5020  156.7850  133.7650 F   0  0  0  0  0  0  0  0  0  0  0  0
  141.6410  157.9120  135.7100 F   0  0  0  0  0  0  0  0  0  0  0  0
  142.8030  156.0050  135.4160 F   0  0  0  0  0  0  0  0  0  0  0  0
  144.7570  157.3550  134.0390 C   0  0  0  0  0  0  0  0  0  0  0  0
  145.7940  158.1320  133.5090 C   0  0  0  0  0  0  0  0  0  0  0  0
  147.4160  154.2240  136.3420 C   0  0  0  0  0  0  0  0  0  0  0  0
  146.9790  153.1080  136.7270 O   0  0  0  0  0  0  0  0  0  0  0  0
  148.4770  154.8160  137.0160 O   0  0  0  0  0  0  0  0  0  0  0  0
  146.2543  152.8983  134.5351 H   0  0  0  0  0  0  0  0  0  0  0  0
  145.6913  154.2002  133.4328 H   0  0  0  0  0  0  0  0  0  0  0  0
  147.4189  153.7080  133.4328 H   0  0  0  0  0  0  0  0  0  0  0  0
  145.8882  155.3888  135.4354 H   0  0  0  0  0  0  0  0  0  0  0  0
  149.3760  156.9750  131.4760 H   0  0  0  0  0  0  0  0  0  0  0  0
  146.9587  160.9393  132.2545 H   0  0  0  0  0  0  0  0  0  0  0  0
  144.2314  161.1347  133.0886 H   0  0  0  0  0  0  0  0  0  0  0  0
  142.3339  159.7999  134.0591 H   0  0  0  0  0  0  0  0  0  0  0  0
  144.9137  156.2914  134.2720 H   0  0  0  0  0  0  0  0  0  0  0  0
  1  2  1  0
  2  3  1  0
  3  4  1  0
  4  5  2  0
  4  6  1  0
  6  7  1  0
  7  8  1  0
  8  9  1  0
  8 10  2  0
  7 11  2  0
 11 12  1  0
 12 13  2  0
 13 14  1  0
 14 15  2  0
 15 16  1  0
 16 17  1  0
 16 18  1  0
 16 19  1  0
 15 20  1  0
 20 21  2  0
  2 22  1  0
 22 23  2  0
 22 24  1  0
 21  6  1  0
 21 12  1  0
  1 25  1  0
  1 26  1  0
  1 27  1  0
  2 28  1  1
  9 29  1  0
 11 30  1  0
 13 31  1  0
 14 32  1  0
 20 33  1  0
M  CHG  2   9  -1  24  -1
M  END
>  <UniqueID>  (59) 
59

>  <SMILES>  (59) 
C[C@H](OC(=O)n1c(C([NH-])=O)cc2ccc(C(F)(F)F)cc21)C(=O)[O-]

>  <Energy>  (59) 
68.36470187646634

>  <Genealogy>  (59) 
CC(OC(=O)n1c(C([NH-])=O)cc2ccc(C(F)(F)F)cc21)C(=O)[O-] (protonated)
C[C@H](OC(=O)n1c(C([NH-])=O)cc2ccc(C(F)(F)F)cc21)C(=O)[O-] (chirality)
C[C@H](OC(=O)n1c(C([NH-])=O)cc2ccc(C(F)(F)F)cc21)C(=O)[O-] (3D coordinates assigned)
C[C@H](OC(=O)n1c(C([NH-])=O)cc2ccc(C(F)(F)F)cc21)C(=O)[O-] (optimized conformer: 68.36470187646634 kcal/mol)

>  <smiles>  (59) 
CC(OC(=O)n1c(C(N)=O)cc2ccc(C(F)(F)F)cc21)C(=O)O

>  <score_type>  (59) 
oracle

>  <origin>  (59) 
adg

>  <m_score__min__energy>  (59) 
-5.9900000000000002

>  <m_primary>  (59) 
energy

$$$$
59:0
     RDKit          3D

 51 53  0  0  0  0  0  0  0  0999 V2000
  147.6380  155.1830  134.5490 C   0  0  0  0  0  0  0  0  0  0  0  0
  147.9830  155.2710  133.0580 C   0  0  0  0  0  0  0  0  0  0  0  0
  148.9060  154.1200  132.6200 C   0  0  0  0  0  0  0  0  0  0  0  0
  146.7630  155.3880  132.2310 N   0  0  0  0  0  0  0  0  0  0  0  0
  145.6770  154.4730  132.6160 C   0  0  0  0  0  0  0  0  0  0  0  0
  144.3270  155.0920  132.2570 C   0  0  0  0  0  0  0  0  0  0  0  0
  143.6160  155.5220  133.4670 N   0  0  0  0  0  0  0  0  0  0  0  0
  144.1800  155.1860  134.7770 C   0  0  0  0  0  0  0  0  0  0  0  0
  142.3470  156.2010  133.3610 C   0  0  0  0  0  0  0  0  0  0  0  0
  141.3260  155.5630  132.9900 O   0  0  0  0  0  0  0  0  0  0  0  0
  142.2260  157.5990  133.6720 N   0  0  0  0  0  0  0  0  0  0  0  0
  141.0810  158.2980  133.9020 C   0  0  0  0  0  0  0  0  0  0  0  0
  139.7260  157.7230  134.0130 C   0  0  0  0  0  0  0  0  0  0  0  0
  139.1400  156.9880  132.9370 N   0  0  0  0  0  0  0  0  0  0  0  0
  139.0870  157.8500  135.0920 O   0  0  0  0  0  0  0  0  0  0  0  0
  141.3540  159.6590  134.0250 C   0  0  0  0  0  0  0  0  0  0  0  0
  142.7180  159.7710  133.8620 C   0  0  0  0  0  0  0  0  0  0  0  0
  143.5300  160.9000  133.8600 C   0  0  0  0  0  0  0  0  0  0  0  0
  144.9020  160.7240  133.6150 C   0  0  0  0  0  0  0  0  0  0  0  0
  145.4370  159.4340  133.3550 C   0  0  0  0  0  0  0  0  0  0  0  0
  146.8840  159.2600  133.0710 C   0  0  0  0  0  0  0  0  0  0  0  0
  147.5940  159.7830  132.0050 C   0  0  0  0  0  0  0  0  0  0  0  0
  148.8920  159.3450  132.1640 C   0  0  0  0  0  0  0  0  0  0  0  0
  148.9820  158.6050  133.2460 O   0  0  0  0  0  0  0  0  0  0  0  0
  147.8010  158.5330  133.8140 C   0  0  0  0  0  0  0  0  0  0  0  0
  144.5710  158.3150  133.3610 C   0  0  0  0  0  0  0  0  0  0  0  0
  143.2170  158.5160  133.6400 C   0  0  0  0  0  0  0  0  0  0  0  0
  148.5329  155.4113  135.1465 H   0  0  0  0  0  0  0  0  0  0  0  0
  146.8448  155.9076  134.7852 H   0  0  0  0  0  0  0  0  0  0  0  0
  147.2887  154.1670  134.7852 H   0  0  0  0  0  0  0  0  0  0  0  0
  148.5564  156.1953  132.8942 H   0  0  0  0  0  0  0  0  0  0  0  0
  149.3106  153.6155  133.5098 H   0  0  0  0  0  0  0  0  0  0  0  0
  148.3329  153.3990  132.0185 H   0  0  0  0  0  0  0  0  0  0  0  0
  149.7343  154.5228  132.0185 H   0  0  0  0  0  0  0  0  0  0  0  0
  147.0240  155.1790  131.2360 H   0  0  0  0  0  0  0  0  0  0  0  0
  145.7956  153.5196  132.0803 H   0  0  0  0  0  0  0  0  0  0  0  0
  145.7185  154.2962  133.7009 H   0  0  0  0  0  0  0  0  0  0  0  0
  144.4908  155.9630  131.6055 H   0  0  0  0  0  0  0  0  0  0  0  0
  143.7181  154.3369  131.7382 H   0  0  0  0  0  0  0  0  0  0  0  0
  143.5246  155.5765  135.5694 H   0  0  0  0  0  0  0  0  0  0  0  0
  144.2597  154.0931  134.8725 H   0  0  0  0  0  0  0  0  0  0  0  0
  145.1791  155.6363  134.8725 H   0  0  0  0  0  0  0  0  0  0  0  0
  139.7060  156.6940  132.1100 H   0  0  0  0  0  0  0  0  0  0  0  0
  138.1510  156.6600  133.0060 H   0  0  0  0  0  0  0  0  0  0  0  0
  140.6349  160.4701  134.2121 H   0  0  0  0  0  0  0  0  0  0  0  0
  143.1108  161.9001  134.0446 H   0  0  0  0  0  0  0  0  0  0  0  0
  145.5712  161.5970  133.6246 H   0  0  0  0  0  0  0  0  0  0  0  0
  147.2033  160.4181  131.1963 H   0  0  0  0  0  0  0  0  0  0  0  0
  149.7265  159.5798  131.4868 H   0  0  0  0  0  0  0  0  0  0  0  0
  147.5738  157.9806  134.7377 H   0  0  0  0  0  0  0  0  0  0  0  0
  144.9564  157.3065  133.1501 H   0  0  0  0  0  0  0  0  0  0  0  0
  1  2  1  0
  2  3  1  0
  2  4  1  0
  4  5  1  0
  5  6  1  0
  6  7  1  0
  7  8  1  0
  7  9  1  0
  9 10  2  0
  9 11  1  0
 11 12  1  0
 12 13  1  0
 13 14  1  0
 13 15  2  0
 12 16  2  0
 16 17  1  0
 17 18  2  0
 18 19  1  0
 19 20  2  0
 20 21  1  0
 21 22  1  0
 22 23  2  0
 23 24  1  0
 24 25  1  0
 20 26  1  0
 26 27  2  0
 27 11  1  0
 27 17  1  0
 25 21  2  0
  1 28  1  0
  1 29  1  0
  1 30  1  0
  2 31  1  0
  3 32  1  0
  3 33  1  0
  3 34  1  0
  4 35  1  0
  5 36  1  0
  5 37  1  0
  6 38  1  0
  6 39  1  0
  8 40  1  0
  8 41  1  0
  8 42  1  0
 14 43  1  0
 14 44  1  0
 16 45  1  0
 18 46  1  0
 19 47  1  0
 22 48  1  0
 23 49  1  0
 25 50  1  0
 26 51  1  0
M  END
>  <UniqueID>  (60) 
60

>  <SMILES>  (60) 
CC(C)NCCN(C)C(=O)n1c(C(N)=O)cc2ccc(-c3ccoc3)cc21

>  <Energy>  (60) 
114.93064381428395

>  <Genealogy>  (60) 
CC(C)NCCN(C)C(=O)n1c(C(N)=O)cc2ccc(-c3ccoc3)cc21 (3D coordinates assigned)
CC(C)NCCN(C)C(=O)n1c(C(N)=O)cc2ccc(-c3ccoc3)cc21 (optimized conformer: 114.93064381428395 kcal/mol)

>  <smiles>  (60) 
CC(C)NCCN(C)C(=O)n1c(C(N)=O)cc2ccc(-c3ccoc3)cc21

>  <score_type>  (60) 
oracle

>  <origin>  (60) 
adg

>  <m_score__min__energy>  (60) 
-8.4000000000000004

>  <m_primary>  (60) 
energy

$$$$
60:0
     RDKit          3D

 48 50  0  0  0  0  0  0  0  0999 V2000
  140.1050  150.5780  132.3590 C   0  0  0  0  0  0  0  0  0  0  0  0
  140.7690  151.4570  133.3420 N   0  0  0  0  0  0  0  0  0  0  0  0
  142.0900  150.8900  133.7040 C   0  0  0  0  0  0  0  0  0  0  0  0
  143.1800  151.2870  132.6980 C   0  0  0  0  0  0  0  0  0  0  0  0
  144.0150  152.5120  133.1230 C   0  0  0  0  0  0  0  0  0  0  0  0
  143.2590  153.7890  133.1590 N   0  0  0  0  0  0  0  0  0  0  0  0
  143.9890  154.9840  133.6500 C   0  0  0  0  0  0  0  0  0  0  0  0
  143.9550  155.0820  135.1550 C   0  0  0  0  0  0  0  0  0  0  0  0
  144.9460  154.6620  135.8200 O   0  0  0  0  0  0  0  0  0  0  0  0
  142.7930  155.5760  135.8470 N   0  0  0  0  0  0  0  0  0  0  0  0
  142.1360  155.0020  136.8980 C   0  0  0  0  0  0  0  0  0  0  0  0
  142.4250  153.6860  137.4860 C   0  0  0  0  0  0  0  0  0  0  0  0
  143.7230  153.4190  138.0190 N   0  0  0  0  0  0  0  0  0  0  0  0
  141.5160  152.8220  137.6170 O   0  0  0  0  0  0  0  0  0  0  0  0
  141.0720  155.7990  137.3120 C   0  0  0  0  0  0  0  0  0  0  0  0
  141.0910  156.8880  136.4760 C   0  0  0  0  0  0  0  0  0  0  0  0
  140.2820  158.0190  136.4710 C   0  0  0  0  0  0  0  0  0  0  0  0
  140.5590  159.0230  135.5280 C   0  0  0  0  0  0  0  0  0  0  0  0
  141.6350  158.8830  134.6110 C   0  0  0  0  0  0  0  0  0  0  0  0
  141.9470  159.9920  133.6320 C   0  0  0  0  0  0  0  0  0  0  0  0
  141.4960  161.1930  134.1450 F   0  0  0  0  0  0  0  0  0  0  0  0
  143.3130  160.0780  133.4020 F   0  0  0  0  0  0  0  0  0  0  0  0
  141.3230  159.7630  132.4190 F   0  0  0  0  0  0  0  0  0  0  0  0
  142.4570  157.7330  134.6740 C   0  0  0  0  0  0  0  0  0  0  0  0
  142.1430  156.7370  135.6060 C   0  0  0  0  0  0  0  0  0  0  0  0
  141.8630  153.6940  133.6520 C   0  0  0  0  0  0  0  0  0  0  0  0
  140.9160  152.8280  132.7970 C   0  0  0  0  0  0  0  0  0  0  0  0
  139.5239  149.8087  132.8887 H   0  0  0  0  0  0  0  0  0  0  0  0
  139.4315  151.1765  131.7280 H   0  0  0  0  0  0  0  0  0  0  0  0
  140.8648  150.0938  131.7280 H   0  0  0  0  0  0  0  0  0  0  0  0
  142.3743  151.2594  134.7003 H   0  0  0  0  0  0  0  0  0  0  0  0
  142.0033  149.7934  133.6968 H   0  0  0  0  0  0  0  0  0  0  0  0
  143.8608  150.4323  132.5714 H   0  0  0  0  0  0  0  0  0  0  0  0
  142.6652  151.5627  131.7658 H   0  0  0  0  0  0  0  0  0  0  0  0
  144.4166  152.3218  134.1293 H   0  0  0  0  0  0  0  0  0  0  0  0
  144.8006  152.6345  132.3628 H   0  0  0  0  0  0  0  0  0  0  0  0
  145.0367  154.9214  133.3208 H   0  0  0  0  0  0  0  0  0  0  0  0
  143.4979  155.8779  133.2379 H   0  0  0  0  0  0  0  0  0  0  0  0
  144.5180  154.0760  137.8490 H   0  0  0  0  0  0  0  0  0  0  0  0
  143.8940  152.5650  138.5940 H   0  0  0  0  0  0  0  0  0  0  0  0
  140.3674  155.5991  138.1327 H   0  0  0  0  0  0  0  0  0  0  0  0
  139.4506  158.1244  137.1835 H   0  0  0  0  0  0  0  0  0  0  0  0
  139.9351  159.9285  135.4994 H   0  0  0  0  0  0  0  0  0  0  0  0
  143.3236  157.6241  134.0053 H   0  0  0  0  0  0  0  0  0  0  0  0
  141.8896  153.2679  134.6658 H   0  0  0  0  0  0  0  0  0  0  0  0
  141.4577  154.7158  133.6118 H   0  0  0  0  0  0  0  0  0  0  0  0
  139.9260  153.3066  132.7692 H   0  0  0  0  0  0  0  0  0  0  0  0
  141.3488  152.7470  131.7890 H   0  0  0  0  0  0  0  0  0  0  0  0
  1  2  1  0
  2  3  1  0
  3  4  1  0
  4  5  1  0
  5  6  1  0
  6  7  1  0
  7  8  1  0
  8  9  2  0
  8 10  1  0
 10 11  1  0
 11 12  1  0
 12 13  1  0
 12 14  2  0
 11 15  2  0
 15 16  1  0
 16 17  2  0
 17 18  1  0
 18 19  2  0
 19 20  1  0
 20 21  1  0
 20 22  1  0
 20 23  1  0
 19 24  1  0
 24 25  2  0
  6 26  1  0
 26 27  1  0
 27  2  1  0
 25 10  1  0
 25 16  1  0
  1 28  1  0
  1 29  1  0
  1 30  1  0
  3 31  1  0
  3 32  1  0
  4 33  1  0
  4 34  1  0
  5 35  1  0
  5 36  1  0
  7 37  1  0
  7 38  1  0
 13 39  1  0
 13 40  1  0
 15 41  1  0
 17 42  1  0
 18 43  1  0
 24 44  1  0
 26 45  1  0
 26 46  1  0
 27 47  1  0
 27 48  1  0
M  END
>  <UniqueID>  (61) 
61

>  <SMILES>  (61) 
CN1CCCN(CC(=O)n2c(C(N)=O)cc3ccc(C(F)(F)F)cc32)CC1

>  <Energy>  (61) 
103.86622614797737

>  <Genealogy>  (61) 
CN1CCCN(CC(=O)n2c(C(N)=O)cc3ccc(C(F)(F)F)cc32)CC1 (3D coordinates assigned)
CN1CCCN(CC(=O)n2c(C(N)=O)cc3ccc(C(F)(F)F)cc32)CC1 (nonaromatic ring conformer: 103.86622614797737 kcal/mol)

>  <smiles>  (61) 
CN1CCCN(CC(=O)n2c(C(N)=O)cc3ccc(C(F)(F)F)cc32)CC1

>  <score_type>  (61) 
oracle

>  <origin>  (61) 
adg

>  <m_score__min__energy>  (61) 
-5.2699999999999996

>  <m_primary>  (61) 
energy

$$$$
61:0
     RDKit          3D

 33 34  0  0  0  0  0  0  0  0999 V2000
  149.8850  151.7350  132.7120 C   0  0  0  0  0  0  0  0  0  0  0  0
  149.8740  153.1470  132.3450 N   0  0  0  0  0  0  0  0  0  0  0  0
  148.7760  154.0340  132.6280 C   0  0  0  0  0  0  0  0  0  0  0  0
  147.5050  153.4830  132.9280 C   0  0  0  0  0  0  0  0  0  0  0  0
  146.4050  154.3130  133.1980 C   0  0  0  0  0  0  0  0  0  0  0  0
  146.6040  155.6890  133.1720 C   0  0  0  0  0  0  0  0  0  0  0  0
  145.7060  156.7150  133.3620 C   0  0  0  0  0  0  0  0  0  0  0  0
  146.4460  157.8830  133.2080 C   0  0  0  0  0  0  0  0  0  0  0  0
  145.8800  159.2340  133.3940 C   0  0  0  0  0  0  0  0  0  0  0  0
  146.5450  160.3910  132.8870 N   0  0  0  0  0  0  0  0  0  0  0  0
  144.8190  159.3740  134.0590 O   0  0  0  0  0  0  0  0  0  0  0  0
  147.7470  157.5950  132.9180 N   0  0  0  0  0  0  0  0  0  0  0  0
  148.7950  158.5200  132.5830 C   0  0  0  0  0  0  0  0  0  0  0  0
  149.1960  159.3540  133.4410 O   0  0  0  0  0  0  0  0  0  0  0  0
  149.3640  158.4950  131.3070 O   0  0  0  0  0  0  0  0  0  0  0  0
  149.6990  159.6760  130.5890 C   0  0  0  0  0  0  0  0  0  0  0  0
  148.6270  160.6920  130.7910 C   0  0  0  0  0  0  0  0  0  0  0  0
  148.8640  161.7370  131.4520 O   0  0  0  0  0  0  0  0  0  0  0  0
  147.3490  160.4660  130.2960 O   0  0  0  0  0  0  0  0  0  0  0  0
  147.8280  156.2450  132.9020 C   0  0  0  0  0  0  0  0  0  0  0  0
  148.9360  155.4410  132.6060 C   0  0  0  0  0  0  0  0  0  0  0  0
  149.8857  151.6410  133.8080 H   0  0  0  0  0  0  0  0  0  0  0  0
  148.9907  151.2427  132.3024 H   0  0  0  0  0  0  0  0  0  0  0  0
  150.7869  151.2567  132.3024 H   0  0  0  0  0  0  0  0  0  0  0  0
  150.7110  153.5240  131.8450 H   0  0  0  0  0  0  0  0  0  0  0  0
  147.3786  152.3905  132.9496 H   0  0  0  0  0  0  0  0  0  0  0  0
  145.4159  153.8876  133.4232 H   0  0  0  0  0  0  0  0  0  0  0  0
  144.6327  156.6296  133.5874 H   0  0  0  0  0  0  0  0  0  0  0  0
  147.5060  160.3280  132.4830 H   0  0  0  0  0  0  0  0  0  0  0  0
  146.1110  161.3340  132.9930 H   0  0  0  0  0  0  0  0  0  0  0  0
  150.6562  160.0724  130.9586 H   0  0  0  0  0  0  0  0  0  0  0  0
  149.7917  159.4439  129.5178 H   0  0  0  0  0  0  0  0  0  0  0  0
  149.9090  155.8924  132.3619 H   0  0  0  0  0  0  0  0  0  0  0  0
  1  2  1  0
  2  3  1  0
  3  4  2  0
  4  5  1  0
  5  6  2  0
  6  7  1  0
  7  8  2  0
  8  9  1  0
  9 10  1  0
  9 11  2  0
  8 12  1  0
 12 13  1  0
 13 14  2  0
 13 15  1  0
 15 16  1  0
 16 17  1  0
 17 18  2  0
 17 19  1  0
 12 20  1  0
 20 21  2  0
 21  3  1  0
 20  6  1  0
  1 22  1  0
  1 23  1  0
  1 24  1  0
  2 25  1  0
  4 26  1  0
  5 27  1  0
  7 28  1  0
 10 29  1  0
 10 30  1  0
 16 31  1  0
 16 32  1  0
 21 33  1  0
M  CHG  1  19  -1
M  END
>  <UniqueID>  (62) 
62

>  <SMILES>  (62) 
CNc1ccc2cc(C(N)=O)n(C(=O)OCC(=O)[O-])c2c1

>  <Energy>  (62) 
67.86899709058625

>  <Genealogy>  (62) 
CNc1ccc2cc(C(N)=O)n(C(=O)OCC(=O)[O-])c2c1 (protonated)
CNc1ccc2cc(C(N)=O)n(C(=O)OCC(=O)[O-])c2c1 (3D coordinates assigned)
CNc1ccc2cc(C(N)=O)n(C(=O)OCC(=O)[O-])c2c1 (optimized conformer: 67.86899709058625 kcal/mol)

>  <smiles>  (62) 
CNc1ccc2cc(C(N)=O)n(C(=O)OCC(=O)O)c2c1

>  <score_type>  (62) 
oracle

>  <origin>  (62) 
adg

>  <m_score__min__energy>  (62) 
-6.3700000000000001

>  <m_primary>  (62) 
energy

$$$$
62:0
     RDKit          3D

 35 36  0  0  0  0  0  0  0  0999 V2000
  148.9070  158.6890  130.3210 C   0  0  0  0  0  0  0  0  0  0  0  0
  148.8600  159.6900  131.3930 N   0  0  0  0  0  0  0  0  0  0  0  0
  149.2200  161.0810  131.1020 C   0  0  0  0  0  0  0  0  0  0  0  0
  148.5600  159.3190  132.7580 C   0  0  0  0  0  0  0  0  0  0  0  0
  148.8710  160.1060  133.6930 O   0  0  0  0  0  0  0  0  0  0  0  0
  147.8920  158.0460  133.1110 C   0  0  0  0  0  0  0  0  0  0  0  0
  148.5660  156.9900  133.2490 O   0  0  0  0  0  0  0  0  0  0  0  0
  146.4610  157.9860  133.2300 N   0  0  0  0  0  0  0  0  0  0  0  0
  145.6580  156.8890  133.1210 C   0  0  0  0  0  0  0  0  0  0  0  0
  146.1090  155.5360  132.7240 C   0  0  0  0  0  0  0  0  0  0  0  0
  147.2320  155.3640  131.8590 N   0  0  0  0  0  0  0  0  0  0  0  0
  145.5150  154.5180  133.1660 O   0  0  0  0  0  0  0  0  0  0  0  0
  144.3270  157.2390  133.3460 C   0  0  0  0  0  0  0  0  0  0  0  0
  144.3420  158.5940  133.5910 C   0  0  0  0  0  0  0  0  0  0  0  0
  143.2940  159.4660  133.8670 C   0  0  0  0  0  0  0  0  0  0  0  0
  143.6020  160.8200  134.0850 C   0  0  0  0  0  0  0  0  0  0  0  0
  144.9470  161.2730  134.0470 C   0  0  0  0  0  0  0  0  0  0  0  0
  145.2610  162.7340  134.2410 C   0  0  0  0  0  0  0  0  0  0  0  0
  145.2030  163.0370  135.5890 F   0  0  0  0  0  0  0  0  0  0  0  0
  146.5280  163.0290  133.7670 F   0  0  0  0  0  0  0  0  0  0  0  0
  144.3510  163.5250  133.5620 F   0  0  0  0  0  0  0  0  0  0  0  0
  145.9810  160.3580  133.7380 C   0  0  0  0  0  0  0  0  0  0  0  0
  145.6400  159.0200  133.5140 C   0  0  0  0  0  0  0  0  0  0  0  0
  148.9543  157.6821  130.7614 H   0  0  0  0  0  0  0  0  0  0  0  0
  148.0038  158.7751  129.6990 H   0  0  0  0  0  0  0  0  0  0  0  0
  149.7981  158.8594  129.6990 H   0  0  0  0  0  0  0  0  0  0  0  0
  149.3616  161.6282  132.0457 H   0  0  0  0  0  0  0  0  0  0  0  0
  150.1538  161.1042  130.5210 H   0  0  0  0  0  0  0  0  0  0  0  0
  148.4148  161.5543  130.5210 H   0  0  0  0  0  0  0  0  0  0  0  0
  147.7130  156.1800  131.4220 H   0  0  0  0  0  0  0  0  0  0  0  0
  147.5620  154.4040  131.6160 H   0  0  0  0  0  0  0  0  0  0  0  0
  143.4510  156.5738  133.3309 H   0  0  0  0  0  0  0  0  0  0  0  0
  142.2554  159.1067  133.9133 H   0  0  0  0  0  0  0  0  0  0  0  0
  142.7922  161.5364  134.2873 H   0  0  0  0  0  0  0  0  0  0  0  0
  147.0276  160.6907  133.6754 H   0  0  0  0  0  0  0  0  0  0  0  0
  1  2  1  0
  2  3  1  0
  2  4  1  0
  4  5  2  0
  4  6  1  0
  6  7  2  0
  6  8  1  0
  8  9  1  0
  9 10  1  0
 10 11  1  0
 10 12  2  0
  9 13  2  0
 13 14  1  0
 14 15  2  0
 15 16  1  0
 16 17  2  0
 17 18  1  0
 18 19  1  0
 18 20  1  0
 18 21  1  0
 17 22  1  0
 22 23  2  0
 23  8  1  0
 23 14  1  0
  1 24  1  0
  1 25  1  0
  1 26  1  0
  3 27  1  0
  3 28  1  0
  3 29  1  0
 11 30  1  0
 11 31  1  0
 13 32  1  0
 15 33  1  0
 16 34  1  0
 22 35  1  0
M  END
>  <UniqueID>  (63) 
63

>  <SMILES>  (63) 
CN(C)C(=O)C(=O)n1c(C(N)=O)cc2ccc(C(F)(F)F)cc21

>  <Energy>  (63) 
75.13796351691747

>  <Genealogy>  (63) 
CN(C)C(=O)C(=O)n1c(C(N)=O)cc2ccc(C(F)(F)F)cc21 (3D coordinates assigned)
CN(C)C(=O)C(=O)n1c(C(N)=O)cc2ccc(C(F)(F)F)cc21 (optimized conformer: 75.13796351691747 kcal/mol)

>  <smiles>  (63) 
CN(C)C(=O)C(=O)n1c(C(N)=O)cc2ccc(C(F)(F)F)cc21

>  <score_type>  (63) 
oracle

>  <origin>  (63) 
adg

>  <m_score__min__energy>  (63) 
-6.8300000000000001

>  <m_primary>  (63) 
energy

$$$$
63:0
     RDKit          3D

 36 37  0  0  0  0  0  0  0  0999 V2000
  148.1650  154.7810  132.5990 C   0  0  0  0  0  0  0  0  0  0  0  0
  147.0100  155.2270  133.5090 C   0  0  0  0  0  0  0  0  0  0  0  0
  145.8650  155.8370  132.7940 N   0  0  1  0  0  0  0  0  0  0  0  0
  145.1600  154.8780  131.9230 C   0  0  0  0  0  0  0  0  0  0  0  0
  144.9670  156.5060  133.7140 C   0  0  0  0  0  0  0  0  0  0  0  0
  144.4610  155.8820  134.6880 O   0  0  0  0  0  0  0  0  0  0  0  0
  144.7440  157.9200  133.5990 N   0  0  0  0  0  0  0  0  0  0  0  0
  145.6710  158.9110  133.4850 C   0  0  0  0  0  0  0  0  0  0  0  0
  147.1210  158.7180  133.2750 C   0  0  0  0  0  0  0  0  0  0  0  0
  147.6030  157.8930  132.2190 N   0  0  0  0  0  0  0  0  0  0  0  0
  147.9450  159.3200  134.0140 O   0  0  0  0  0  0  0  0  0  0  0  0
  145.0550  160.1610  133.5180 C   0  0  0  0  0  0  0  0  0  0  0  0
  143.7100  159.9000  133.6480 C   0  0  0  0  0  0  0  0  0  0  0  0
  142.6300  160.7730  133.7270 C   0  0  0  0  0  0  0  0  0  0  0  0
  141.3460  160.2210  133.8700 C   0  0  0  0  0  0  0  0  0  0  0  0
  141.1640  158.8160  133.9520 C   0  0  0  0  0  0  0  0  0  0  0  0
  139.7770  158.2340  134.0630 C   0  0  0  0  0  0  0  0  0  0  0  0
  139.7700  156.9100  133.6560 F   0  0  0  0  0  0  0  0  0  0  0  0
  138.9160  158.9560  133.2600 F   0  0  0  0  0  0  0  0  0  0  0  0
  139.3280  158.2870  135.3710 F   0  0  0  0  0  0  0  0  0  0  0  0
  142.2850  157.9620  133.8420 C   0  0  0  0  0  0  0  0  0  0  0  0
  143.5500  158.5410  133.6920 C   0  0  0  0  0  0  0  0  0  0  0  0
  149.0136  154.4533  133.2175 H   0  0  0  0  0  0  0  0  0  0  0  0
  147.8306  153.9474  131.9640 H   0  0  0  0  0  0  0  0  0  0  0  0
  148.4777  155.6231  131.9640 H   0  0  0  0  0  0  0  0  0  0  0  0
  146.6435  154.3457  134.0559 H   0  0  0  0  0  0  0  0  0  0  0  0
  147.4162  156.0058  134.1711 H   0  0  0  0  0  0  0  0  0  0  0  0
  146.2690  156.5680  132.1620 H   0  0  0  0  0  0  0  0  0  0  0  0
  144.6220  154.1461  132.5434 H   0  0  0  0  0  0  0  0  0  0  0  0
  144.4425  155.4183  131.2880 H   0  0  0  0  0  0  0  0  0  0  0  0
  145.8898  154.3543  131.2880 H   0  0  0  0  0  0  0  0  0  0  0  0
  146.9470  157.4720  131.5230 H   0  0  0  0  0  0  0  0  0  0  0  0
  145.5404  161.1460  133.4538 H   0  0  0  0  0  0  0  0  0  0  0  0
  142.7767  161.8621  133.6790 H   0  0  0  0  0  0  0  0  0  0  0  0
  140.4711  160.8859  133.9190 H   0  0  0  0  0  0  0  0  0  0  0  0
  142.1658  156.8689  133.8735 H   0  0  0  0  0  0  0  0  0  0  0  0
  1  2  1  0
  2  3  1  0
  3  4  1  0
  3  5  1  0
  5  6  2  0
  5  7  1  0
  7  8  1  0
  8  9  1  0
  9 10  1  0
  9 11  2  0
  8 12  2  0
 12 13  1  0
 13 14  2  0
 14 15  1  0
 15 16  2  0
 16 17  1  0
 17 18  1  0
 17 19  1  0
 17 20  1  0
 16 21  1  0
 21 22  2  0
 22  7  1  0
 22 13  1  0
  1 23  1  0
  1 24  1  0
  1 25  1  0
  2 26  1  0
  2 27  1  0
  3 28  1  6
  4 29  1  0
  4 30  1  0
  4 31  1  0
 10 32  1  0
 12 33  1  0
 14 34  1  0
 15 35  1  0
 21 36  1  0
M  CHG  2   3   1  10  -1
M  END
>  <UniqueID>  (64) 
64

>  <SMILES>  (64) 
CC[N@@H+](C)C(=O)n1c(C([NH-])=O)cc2ccc(C(F)(F)F)cc21

>  <Energy>  (64) 
79.006525827916

>  <Genealogy>  (64) 
CC[NH+](C)C(=O)n1c(C([NH-])=O)cc2ccc(C(F)(F)F)cc21 (protonated)
CC[N@@H+](C)C(=O)n1c(C([NH-])=O)cc2ccc(C(F)(F)F)cc21 (chirality)
CC[N@@H+](C)C(=O)n1c(C([NH-])=O)cc2ccc(C(F)(F)F)cc21 (3D coordinates assigned)
CC[N@@H+](C)C(=O)n1c(C([NH-])=O)cc2ccc(C(F)(F)F)cc21 (optimized conformer: 79.006525827916 kcal/mol)

>  <smiles>  (64) 
CCN(C)C(=O)n1c(C(N)=O)cc2ccc(C(F)(F)F)cc21

>  <score_type>  (64) 
oracle

>  <origin>  (64) 
adg

>  <m_score__min__energy>  (64) 
-5.4900000000000002

>  <m_primary>  (64) 
energy

$$$$
64:0
     RDKit          3D

 42 43  0  0  0  0  0  0  0  0999 V2000
  150.0190  151.2060  133.5480 C   0  0  0  0  0  0  0  0  0  0  0  0
  150.3340  151.9470  132.3240 N   0  0  0  0  0  0  0  0  0  0  0  0
  149.1930  152.7560  131.8670 C   0  0  0  0  0  0  0  0  0  0  0  0
  149.0550  154.0650  132.6650 C   0  0  0  0  0  0  0  0  0  0  0  0
  147.5950  154.4910  132.9010 C   0  0  0  0  0  0  0  0  0  0  0  0
  147.4420  155.9860  133.0240 C   0  0  0  0  0  0  0  0  0  0  0  0
  148.5470  156.8420  132.7810 C   0  0  0  0  0  0  0  0  0  0  0  0
  148.4050  158.2360  132.8680 C   0  0  0  0  0  0  0  0  0  0  0  0
  147.1500  158.7460  133.1870 C   0  0  0  0  0  0  0  0  0  0  0  0
  146.7350  160.0490  133.3460 C   0  0  0  0  0  0  0  0  0  0  0  0
  145.3790  159.9700  133.6610 C   0  0  0  0  0  0  0  0  0  0  0  0
  144.5110  161.1510  133.8510 C   0  0  0  0  0  0  0  0  0  0  0  0
  145.0900  162.4100  134.1900 N   0  0  0  0  0  0  0  0  0  0  0  0
  143.2640  161.0680  133.6960 O   0  0  0  0  0  0  0  0  0  0  0  0
  144.9750  158.6690  133.6960 N   0  0  0  0  0  0  0  0  0  0  0  0
  143.6670  158.1620  134.0030 C   0  0  0  0  0  0  0  0  0  0  0  0
  143.5270  157.3120  134.9240 O   0  0  0  0  0  0  0  0  0  0  0  0
  142.5280  158.6180  133.2610 N   0  0  0  0  0  0  0  0  0  0  0  0
  141.1800  158.1070  133.4990 C   0  0  0  0  0  0  0  0  0  0  0  0
  140.1850  158.8800  132.6950 C   0  0  0  0  0  0  0  0  0  0  0  0
  140.5780  159.7530  131.8760 O   0  0  0  0  0  0  0  0  0  0  0  0
  138.8260  158.6610  132.8700 O   0  0  0  0  0  0  0  0  0  0  0  0
  146.0690  157.9330  133.4080 C   0  0  0  0  0  0  0  0  0  0  0  0
  146.1860  156.5410  133.3560 C   0  0  0  0  0  0  0  0  0  0  0  0
  150.2791  151.8179  134.4243 H   0  0  0  0  0  0  0  0  0  0  0  0
  148.9441  150.9732  133.5694 H   0  0  0  0  0  0  0  0  0  0  0  0
  150.5972  150.2705  133.5694 H   0  0  0  0  0  0  0  0  0  0  0  0
  151.1170  152.6020  132.5530 H   0  0  0  0  0  0  0  0  0  0  0  0
  149.3354  153.0017  130.8043 H   0  0  0  0  0  0  0  0  0  0  0  0
  148.2768  152.1671  132.0211 H   0  0  0  0  0  0  0  0  0  0  0  0
  149.5401  153.9291  133.6428 H   0  0  0  0  0  0  0  0  0  0  0  0
  149.5304  154.8580  132.0691 H   0  0  0  0  0  0  0  0  0  0  0  0
  146.9847  154.1424  132.0548 H   0  0  0  0  0  0  0  0  0  0  0  0
  147.2653  154.0423  133.8496 H   0  0  0  0  0  0  0  0  0  0  0  0
  149.5245  156.4092  132.5219 H   0  0  0  0  0  0  0  0  0  0  0  0
  149.2598  158.9049  132.6894 H   0  0  0  0  0  0  0  0  0  0  0  0
  147.3441  160.9595  133.2458 H   0  0  0  0  0  0  0  0  0  0  0  0
  145.9610  162.7430  133.7210 H   0  0  0  0  0  0  0  0  0  0  0  0
  142.6600  159.3530  132.5310 H   0  0  0  0  0  0  0  0  0  0  0  0
  141.1368  157.0469  133.2085 H   0  0  0  0  0  0  0  0  0  0  0  0
  140.9391  158.2141  134.5669 H   0  0  0  0  0  0  0  0  0  0  0  0
  145.3220  155.8941  133.5682 H   0  0  0  0  0  0  0  0  0  0  0  0
  1  2  1  0
  2  3  1  0
  3  4  1  0
  4  5  1  0
  5  6  1  0
  6  7  2  0
  7  8  1  0
  8  9  2  0
  9 10  1  0
 10 11  2  0
 11 12  1  0
 12 13  1  0
 12 14  2  0
 11 15  1  0
 15 16  1  0
 16 17  2  0
 16 18  1  0
 18 19  1  0
 19 20  1  0
 20 21  2  0
 20 22  1  0
 15 23  1  0
 23 24  2  0
 24  6  1  0
 23  9  1  0
  1 25  1  0
  1 26  1  0
  1 27  1  0
  2 28  1  0
  3 29  1  0
  3 30  1  0
  4 31  1  0
  4 32  1  0
  5 33  1  0
  5 34  1  0
  7 35  1  0
  8 36  1  0
 10 37  1  0
 13 38  1  0
 18 39  1  0
 19 40  1  0
 19 41  1  0
 24 42  1  0
M  CHG  2  13  -1  22  -1
M  END
>  <UniqueID>  (65) 
65

>  <SMILES>  (65) 
CNCCCc1ccc2cc(C([NH-])=O)n(C(=O)NCC(=O)[O-])c2c1

>  <Energy>  (65) 
72.3812197982265

>  <Genealogy>  (65) 
CNCCCc1ccc2cc(C([NH-])=O)n(C(=O)NCC(=O)[O-])c2c1 (protonated)
CNCCCc1ccc2cc(C([NH-])=O)n(C(=O)NCC(=O)[O-])c2c1 (3D coordinates assigned)
CNCCCc1ccc2cc(C([NH-])=O)n(C(=O)NCC(=O)[O-])c2c1 (optimized conformer: 72.3812197982265 kcal/mol)

>  <smiles>  (65) 
CNCCCc1ccc2cc(C(N)=O)n(C(=O)NCC(=O)O)c2c1

>  <score_type>  (65) 
oracle

>  <origin>  (65) 
adg

>  <m_score__min__energy>  (65) 
-7.29

>  <m_primary>  (65) 
energy

$$$$
65:0
     RDKit          3D

 25 26  0  0  0  0  0  0  0  0999 V2000
  147.3400  155.4400  132.0080 N   0  0  0  0  0  0  0  0  0  0  0  0
  146.3330  155.6280  133.0040 C   0  0  0  0  0  0  0  0  0  0  0  0
  145.9060  154.6300  133.6400 O   0  0  0  0  0  0  0  0  0  0  0  0
  145.8230  156.9820  133.3150 C   0  0  0  0  0  0  0  0  0  0  0  0
  144.4770  157.2740  133.5270 C   0  0  0  0  0  0  0  0  0  0  0  0
  144.4190  158.6400  133.6820 C   0  0  0  0  0  0  0  0  0  0  0  0
  143.3270  159.4660  133.9290 C   0  0  0  0  0  0  0  0  0  0  0  0
  143.5610  160.8430  134.0710 C   0  0  0  0  0  0  0  0  0  0  0  0
  144.8760  161.3660  133.9720 C   0  0  0  0  0  0  0  0  0  0  0  0
  145.1240  162.8380  134.1420 C   0  0  0  0  0  0  0  0  0  0  0  0
  145.4390  163.1090  135.4610 F   0  0  0  0  0  0  0  0  0  0  0  0
  143.9890  163.5450  133.7900 F   0  0  0  0  0  0  0  0  0  0  0  0
  145.9600  160.4960  133.7220 C   0  0  0  0  0  0  0  0  0  0  0  0
  145.6950  159.1300  133.5660 C   0  0  0  0  0  0  0  0  0  0  0  0
  146.5690  158.1230  133.3400 N   0  0  0  0  0  0  0  0  0  0  0  0
  147.9990  158.2340  133.2320 C   0  0  0  0  0  0  0  0  0  0  0  0
  148.5870  157.8860  132.1750 O   0  0  0  0  0  0  0  0  0  0  0  0
  148.7450  158.7450  134.2860 O   0  0  0  0  0  0  0  0  0  0  0  0
  147.6810  156.2350  131.4230 H   0  0  0  0  0  0  0  0  0  0  0  0
  147.7220  154.4860  131.8240 H   0  0  0  0  0  0  0  0  0  0  0  0
  143.6384  156.5630  133.5628 H   0  0  0  0  0  0  0  0  0  0  0  0
  142.3109  159.0526  134.0106 H   0  0  0  0  0  0  0  0  0  0  0  0
  142.7171  161.5225  134.2607 H   0  0  0  0  0  0  0  0  0  0  0  0
  145.9611  163.1389  133.4949 H   0  0  0  0  0  0  0  0  0  0  0  0
  146.9876  160.8821  133.6515 H   0  0  0  0  0  0  0  0  0  0  0  0
  1  2  1  0
  2  3  2  0
  2  4  1  0
  4  5  2  0
  5  6  1  0
  6  7  2  0
  7  8  1  0
  8  9  2  0
  9 10  1  0
 10 11  1  0
 10 12  1  0
  9 13  1  0
 13 14  2  0
 14 15  1  0
 15 16  1  0
 16 17  2  0
 16 18  1  0
 15  4  1  0
 14  6  1  0
  1 19  1  0
  1 20  1  0
  5 21  1  0
  7 22  1  0
  8 23  1  0
 10 24  1  0
 13 25  1  0
M  CHG  1  18  -1
M  END
>  <UniqueID>  (66) 
66

>  <SMILES>  (66) 
NC(=O)c1cc2ccc(C(F)F)cc2n1C(=O)[O-]

>  <Energy>  (66) 
64.35940271236004

>  <Genealogy>  (66) 
NC(=O)c1cc2ccc(C(F)F)cc2n1C(=O)[O-] (protonated)
NC(=O)c1cc2ccc(C(F)F)cc2n1C(=O)[O-] (3D coordinates assigned)
NC(=O)c1cc2ccc(C(F)F)cc2n1C(=O)[O-] (optimized conformer: 64.35940271236004 kcal/mol)

>  <smiles>  (66) 
NC(=O)c1cc2ccc(C(F)F)cc2n1C(=O)O

>  <score_type>  (66) 
oracle

>  <origin>  (66) 
adg

>  <m_score__min__energy>  (66) 
-5.3200000000000003

>  <m_primary>  (66) 
energy

$$$$
66:0
     RDKit          3D

 36 37  0  0  0  0  0  0  0  0999 V2000
  142.8920  160.6940  133.3420 N   0  0  0  0  0  0  0  0  0  0  0  0
  144.2490  160.8470  133.7630 C   0  0  0  0  0  0  0  0  0  0  0  0
  144.5830  161.8890  134.3860 O   0  0  0  0  0  0  0  0  0  0  0  0
  145.2610  159.8140  133.4510 C   0  0  0  0  0  0  0  0  0  0  0  0
  146.6190  160.0760  133.2710 C   0  0  0  0  0  0  0  0  0  0  0  0
  147.2090  158.8430  133.1010 C   0  0  0  0  0  0  0  0  0  0  0  0
  148.5420  158.5100  132.8800 C   0  0  0  0  0  0  0  0  0  0  0  0
  148.8630  157.1500  132.7240 C   0  0  0  0  0  0  0  0  0  0  0  0
  147.8540  156.1570  132.7890 C   0  0  0  0  0  0  0  0  0  0  0  0
  148.1990  154.7060  132.6120 C   0  0  0  0  0  0  0  0  0  0  0  0
  149.5380  154.5800  132.2950 F   0  0  0  0  0  0  0  0  0  0  0  0
  147.9400  154.0190  133.7840 F   0  0  0  0  0  0  0  0  0  0  0  0
  146.5110  156.5360  133.0160 C   0  0  0  0  0  0  0  0  0  0  0  0
  146.2240  157.8940  133.1780 C   0  0  0  0  0  0  0  0  0  0  0  0
  145.0240  158.4730  133.3890 N   0  0  0  0  0  0  0  0  0  0  0  0
  143.7630  157.7910  133.4670 C   0  0  0  0  0  0  0  0  0  0  0  0
  143.0010  157.7850  132.4630 O   0  0  0  0  0  0  0  0  0  0  0  0
  143.2890  157.2180  134.7770 C   0  0  0  0  0  0  0  0  0  0  0  0
  141.7530  157.1860  134.9040 C   0  0  0  0  0  0  0  0  0  0  0  0
  141.1300  158.5600  135.1980 C   0  0  0  0  0  0  0  0  0  0  0  0
  140.2330  159.0140  134.0880 C   0  0  0  0  0  0  0  0  0  0  0  0
  140.4860  160.0770  133.4620 O   0  0  0  0  0  0  0  0  0  0  0  0
  139.1030  158.2760  133.7620 O   0  0  0  0  0  0  0  0  0  0  0  0
  142.1950  161.4470  133.5370 H   0  0  0  0  0  0  0  0  0  0  0  0
  142.5610  159.8200  132.8780 H   0  0  0  0  0  0  0  0  0  0  0  0
  147.1137  161.0585  133.2659 H   0  0  0  0  0  0  0  0  0  0  0  0
  149.3199  159.2861  132.8290 H   0  0  0  0  0  0  0  0  0  0  0  0
  149.9079  156.8538  132.5497 H   0  0  0  0  0  0  0  0  0  0  0  0
  147.5885  154.2878  131.7982 H   0  0  0  0  0  0  0  0  0  0  0  0
  145.7123  155.7811  133.0639 H   0  0  0  0  0  0  0  0  0  0  0  0
  143.6690  156.1896  134.8670 H   0  0  0  0  0  0  0  0  0  0  0  0
  143.6702  157.8701  135.5767 H   0  0  0  0  0  0  0  0  0  0  0  0
  141.3339  156.8094  133.9593 H   0  0  0  0  0  0  0  0  0  0  0  0
  141.5139  156.5347  135.7576 H   0  0  0  0  0  0  0  0  0  0  0  0
  140.5425  158.4932  136.1256 H   0  0  0  0  0  0  0  0  0  0  0  0
  141.9462  159.2907  135.2980 H   0  0  0  0  0  0  0  0  0  0  0  0
  1  2  1  0
  2  3  2  0
  2  4  1  0
  4  5  2  0
  5  6  1  0
  6  7  2  0
  7  8  1  0
  8  9  2  0
  9 10  1  0
 10 11  1  0
 10 12  1  0
  9 13  1  0
 13 14  2  0
 14 15  1  0
 15 16  1  0
 16 17  2  0
 16 18  1  0
 18 19  1  0
 19 20  1  0
 20 21  1  0
 21 22  2  0
 21 23  1  0
 15  4  1  0
 14  6  1  0
  1 24  1  0
  1 25  1  0
  5 26  1  0
  7 27  1  0
  8 28  1  0
 10 29  1  0
 13 30  1  0
 18 31  1  0
 18 32  1  0
 19 33  1  0
 19 34  1  0
 20 35  1  0
 20 36  1  0
M  CHG  1  23  -1
M  END
>  <UniqueID>  (67) 
67

>  <SMILES>  (67) 
NC(=O)c1cc2ccc(C(F)F)cc2n1C(=O)CCCC(=O)[O-]

>  <Energy>  (67) 
72.76452336769614

>  <Genealogy>  (67) 
NC(=O)c1cc2ccc(C(F)F)cc2n1C(=O)CCCC(=O)[O-] (protonated)
NC(=O)c1cc2ccc(C(F)F)cc2n1C(=O)CCCC(=O)[O-] (3D coordinates assigned)
NC(=O)c1cc2ccc(C(F)F)cc2n1C(=O)CCCC(=O)[O-] (optimized conformer: 72.76452336769614 kcal/mol)

>  <smiles>  (67) 
NC(=O)c1cc2ccc(C(F)F)cc2n1C(=O)CCCC(=O)O

>  <score_type>  (67) 
oracle

>  <origin>  (67) 
adg

>  <m_score__min__energy>  (67) 
-7.0899999999999999

>  <m_primary>  (67) 
energy

$$$$
67:0
     RDKit          3D

 42 43  0  0  0  0  0  0  0  0999 V2000
  138.6930  159.1110  130.3420 C   0  0  0  0  0  0  0  0  0  0  0  0
  139.3890  159.1250  131.9820 S   0  0  0  0  0  0  0  0  0  0  0  0
  140.8660  158.8600  131.8950 O   0  0  0  0  0  0  0  0  0  0  0  0
  139.1710  160.4830  132.5880 O   0  0  0  0  0  0  0  0  0  0  0  0
  138.6190  157.8970  133.0340 C   0  0  0  0  0  0  0  0  0  0  0  0
  139.3450  157.7550  134.3690 C   0  0  0  0  0  0  0  0  0  0  0  0
  140.0060  156.4970  134.4290 O   0  0  0  0  0  0  0  0  0  0  0  0
  141.3330  156.3130  134.0380 C   0  0  0  0  0  0  0  0  0  0  0  0
  141.8200  155.1530  133.9560 O   0  0  0  0  0  0  0  0  0  0  0  0
  142.1340  157.4670  133.7590 N   0  0  0  0  0  0  0  0  0  0  0  0
  143.5570  157.4330  133.5780 C   0  0  0  0  0  0  0  0  0  0  0  0
  144.1500  156.3420  133.3580 O   0  0  0  0  0  0  0  0  0  0  0  0
  144.3180  158.6480  133.6700 N   0  0  0  0  0  0  0  0  0  0  0  0
  143.8590  159.9090  133.9040 C   0  0  0  0  0  0  0  0  0  0  0  0
  142.4720  160.2780  134.2570 C   0  0  0  0  0  0  0  0  0  0  0  0
  141.7190  161.1710  133.4390 N   0  0  0  0  0  0  0  0  0  0  0  0
  141.9290  159.7680  135.2720 O   0  0  0  0  0  0  0  0  0  0  0  0
  144.9050  160.8280  133.8380 C   0  0  0  0  0  0  0  0  0  0  0  0
  146.0290  160.0840  133.5570 C   0  0  0  0  0  0  0  0  0  0  0  0
  147.3470  160.4870  133.3640 C   0  0  0  0  0  0  0  0  0  0  0  0
  148.3000  159.5020  133.0540 C   0  0  0  0  0  0  0  0  0  0  0  0
  147.9190  158.1410  132.9410 C   0  0  0  0  0  0  0  0  0  0  0  0
  148.9370  157.0990  132.5720 C   0  0  0  0  0  0  0  0  0  0  0  0
  148.4790  155.7750  133.0010 C   0  0  0  0  0  0  0  0  0  0  0  0
  148.1160  154.7300  133.3420 N   0  0  0  0  0  0  0  0  0  0  0  0
  146.5700  157.7720  133.1270 C   0  0  0  0  0  0  0  0  0  0  0  0
  145.6470  158.7720  133.4590 C   0  0  0  0  0  0  0  0  0  0  0  0
  137.5953  159.0889  130.4097 H   0  0  0  0  0  0  0  0  0  0  0  0
  139.0089  160.0157  129.8019 H   0  0  0  0  0  0  0  0  0  0  0  0
  139.0450  158.2198  129.8019 H   0  0  0  0  0  0  0  0  0  0  0  0
  137.5777  158.1954  133.2255 H   0  0  0  0  0  0  0  0  0  0  0  0
  138.6650  156.9276  132.5162 H   0  0  0  0  0  0  0  0  0  0  0  0
  140.0862  158.5616  134.4687 H   0  0  0  0  0  0  0  0  0  0  0  0
  138.6133  157.8192  135.1879 H   0  0  0  0  0  0  0  0  0  0  0  0
  141.6640  158.3990  133.7830 H   0  0  0  0  0  0  0  0  0  0  0  0
  141.2860  160.8460  132.5460 H   0  0  0  0  0  0  0  0  0  0  0  0
  144.8451  161.9171  133.9803 H   0  0  0  0  0  0  0  0  0  0  0  0
  147.6342  161.5452  133.4515 H   0  0  0  0  0  0  0  0  0  0  0  0
  149.3503  159.7892  132.8977 H   0  0  0  0  0  0  0  0  0  0  0  0
  149.0792  157.0992  131.4812 H   0  0  0  0  0  0  0  0  0  0  0  0
  149.8884  157.3312  133.0730 H   0  0  0  0  0  0  0  0  0  0  0  0
  146.2511  156.7253  133.0141 H   0  0  0  0  0  0  0  0  0  0  0  0
  1  2  1  0
  2  3  2  0
  2  4  2  0
  2  5  1  0
  5  6  1  0
  6  7  1  0
  7  8  1  0
  8  9  2  0
  8 10  1  0
 10 11  1  0
 11 12  2  0
 11 13  1  0
 13 14  1  0
 14 15  1  0
 15 16  1  0
 15 17  2  0
 14 18  2  0
 18 19  1  0
 19 20  2  0
 20 21  1  0
 21 22  2  0
 22 23  1  0
 23 24  1  0
 24 25  3  0
 22 26  1  0
 26 27  2  0
 27 13  1  0
 27 19  1  0
  1 28  1  0
  1 29  1  0
  1 30  1  0
  5 31  1  0
  5 32  1  0
  6 33  1  0
  6 34  1  0
 10 35  1  0
 16 36  1  0
 18 37  1  0
 20 38  1  0
 21 39  1  0
 23 40  1  0
 23 41  1  0
 26 42  1  0
M  CHG  1  16  -1
M  END
>  <UniqueID>  (68) 
68

>  <SMILES>  (68) 
CS(=O)(=O)CCOC(=O)NC(=O)n1c(C([NH-])=O)cc2ccc(CC#N)cc21

>  <Energy>  (68) 
67.47550516366343

>  <Genealogy>  (68) 
CS(=O)(=O)CCOC(=O)NC(=O)n1c(C([NH-])=O)cc2ccc(CC#N)cc21 (protonated)
CS(=O)(=O)CCOC(=O)NC(=O)n1c(C([NH-])=O)cc2ccc(CC#N)cc21 (3D coordinates assigned)
CS(=O)(=O)CCOC(=O)NC(=O)n1c(C([NH-])=O)cc2ccc(CC#N)cc21 (optimized conformer: 67.47550516366343 kcal/mol)

>  <smiles>  (68) 
CS(=O)(=O)CCOC(=O)NC(=O)n1c(C(N)=O)cc2ccc(CC#N)cc21

>  <score_type>  (68) 
oracle

>  <origin>  (68) 
adg

>  <m_score__min__energy>  (68) 
-7.54

>  <m_primary>  (68) 
energy

$$$$
68:0
     RDKit          3D

 57 58  0  0  0  0  0  0  0  0999 V2000
  142.7400  154.9490  134.2790 C   0  0  0  0  0  0  0  0  0  0  0  0
  143.9750  154.7180  135.1510 C   0  0  0  0  0  0  0  0  0  0  0  0
  145.0300  154.1220  134.3970 O   0  0  0  0  0  0  0  0  0  0  0  0
  145.4930  154.6280  133.1720 C   0  0  0  0  0  0  0  0  0  0  0  0
  144.9390  154.2660  132.0940 O   0  0  0  0  0  0  0  0  0  0  0  0
  146.6090  155.5410  133.1480 N   0  0  0  0  0  0  0  0  0  0  0  0
  147.9290  155.2150  133.0320 C   0  0  0  0  0  0  0  0  0  0  0  0
  148.4880  153.8530  133.0990 C   0  0  0  0  0  0  0  0  0  0  0  0
  147.7610  152.7970  133.7290 N   0  0  0  0  0  0  0  0  0  0  0  0
  149.6320  153.6250  132.6260 O   0  0  0  0  0  0  0  0  0  0  0  0
  148.7180  156.3510  132.9340 C   0  0  0  0  0  0  0  0  0  0  0  0
  147.8430  157.4080  133.0180 C   0  0  0  0  0  0  0  0  0  0  0  0
  148.0990  158.7760  133.0170 C   0  0  0  0  0  0  0  0  0  0  0  0
  147.0090  159.6500  133.1600 C   0  0  0  0  0  0  0  0  0  0  0  0
  145.6920  159.1470  133.2760 C   0  0  0  0  0  0  0  0  0  0  0  0
  144.5380  160.0840  133.5210 C   0  0  0  0  0  0  0  0  0  0  0  0
  143.5290  159.4390  134.4710 C   0  0  0  0  0  0  0  0  0  0  0  0
  142.9210  158.3430  133.8320 O   0  0  0  0  0  0  0  0  0  0  0  0
  141.1890  158.4600  133.9530 Si  0  0  0  0  0  4  0  0  0  0  0  0
  140.3500  157.0860  132.9810 C   0  0  0  0  0  0  0  0  0  0  0  0
  140.6180  160.1090  133.2480 C   0  0  0  0  0  0  0  0  0  0  0  0
  140.7220  158.3360  135.7940 C   0  0  0  0  0  0  0  0  0  0  0  0
  141.6440  157.3110  136.4710 C   0  0  0  0  0  0  0  0  0  0  0  0
  140.9080  159.7130  136.4600 C   0  0  0  0  0  0  0  0  0  0  0  0
  139.2580  157.8860  135.9460 C   0  0  0  0  0  0  0  0  0  0  0  0
  145.4680  157.7510  133.2620 C   0  0  0  0  0  0  0  0  0  0  0  0
  146.5750  156.8970  133.1460 C   0  0  0  0  0  0  0  0  0  0  0  0
  141.8627  155.1131  134.9219 H   0  0  0  0  0  0  0  0  0  0  0  0
  142.8997  155.8329  133.6439 H   0  0  0  0  0  0  0  0  0  0  0  0
  142.5694  154.0672  133.6439 H   0  0  0  0  0  0  0  0  0  0  0  0
  144.3192  155.6836  135.5500 H   0  0  0  0  0  0  0  0  0  0  0  0
  143.7025  154.0370  135.9708 H   0  0  0  0  0  0  0  0  0  0  0  0
  146.8530  152.9850  134.2140 H   0  0  0  0  0  0  0  0  0  0  0  0
  148.1360  151.8200  133.7150 H   0  0  0  0  0  0  0  0  0  0  0  0
  149.8105  156.3967  132.8146 H   0  0  0  0  0  0  0  0  0  0  0  0
  149.1236  159.1609  132.9076 H   0  0  0  0  0  0  0  0  0  0  0  0
  147.1811  160.7362  133.1820 H   0  0  0  0  0  0  0  0  0  0  0  0
  144.9147  161.0156  133.9684 H   0  0  0  0  0  0  0  0  0  0  0  0
  144.0421  160.3019  132.5636 H   0  0  0  0  0  0  0  0  0  0  0  0
  144.0472  159.0940  135.3779 H   0  0  0  0  0  0  0  0  0  0  0  0
  142.7607  160.1762  134.7472 H   0  0  0  0  0  0  0  0  0  0  0  0
  139.9071  156.3606  133.6793 H   0  0  0  0  0  0  0  0  0  0  0  0
  139.5596  157.5149  132.3476 H   0  0  0  0  0  0  0  0  0  0  0  0
  141.0926  156.5788  132.3476 H   0  0  0  0  0  0  0  0  0  0  0  0
  140.3796  160.7973  134.0722 H   0  0  0  0  0  0  0  0  0  0  0  0
  141.4190  160.5406  132.6299 H   0  0  0  0  0  0  0  0  0  0  0  0
  139.7216  159.9528  132.6299 H   0  0  0  0  0  0  0  0  0  0  0  0
  141.5584  157.4062  137.5635 H   0  0  0  0  0  0  0  0  0  0  0  0
  141.3492  156.2957  136.1672 H   0  0  0  0  0  0  0  0  0  0  0  0
  142.6847  157.4970  136.1672 H   0  0  0  0  0  0  0  0  0  0  0  0
  140.8923  159.5964  137.5537 H   0  0  0  0  0  0  0  0  0  0  0  0
  141.8723  160.1426  136.1509 H   0  0  0  0  0  0  0  0  0  0  0  0
  140.0922  160.3830  136.1509 H   0  0  0  0  0  0  0  0  0  0  0  0
  139.0071  157.8089  137.0142 H   0  0  0  0  0  0  0  0  0  0  0  0
  138.5964  158.6223  135.4662 H   0  0  0  0  0  0  0  0  0  0  0  0
  139.1242  156.9052  135.4662 H   0  0  0  0  0  0  0  0  0  0  0  0
  144.4491  157.3439  133.3403 H   0  0  0  0  0  0  0  0  0  0  0  0
  1  2  1  0
  2  3  1  0
  3  4  1  0
  4  5  2  0
  4  6  1  0
  6  7  1  0
  7  8  1  0
  8  9  1  0
  8 10  2  0
  7 11  2  0
 11 12  1  0
 12 13  2  0
 13 14  1  0
 14 15  2  0
 15 16  1  0
 16 17  1  0
 17 18  1  0
 18 19  1  0
 19 20  1  0
 19 21  1  0
 19 22  1  0
 22 23  1  0
 22 24  1  0
 22 25  1  0
 15 26  1  0
 26 27  2  0
 27  6  1  0
 27 12  1  0
  1 28  1  0
  1 29  1  0
  1 30  1  0
  2 31  1  0
  2 32  1  0
  9 33  1  0
  9 34  1  0
 11 35  1  0
 13 36  1  0
 14 37  1  0
 16 38  1  0
 16 39  1  0
 17 40  1  0
 17 41  1  0
 20 42  1  0
 20 43  1  0
 20 44  1  0
 21 45  1  0
 21 46  1  0
 21 47  1  0
 23 48  1  0
 23 49  1  0
 23 50  1  0
 24 51  1  0
 24 52  1  0
 24 53  1  0
 25 54  1  0
 25 55  1  0
 25 56  1  0
 26 57  1  0
M  END
>  <UniqueID>  (69) 
69

>  <SMILES>  (69) 
CCOC(=O)n1c(C(N)=O)cc2ccc(CCO[Si](C)(C)C(C)(C)C)cc21

>  <Energy>  (69) 
72.34494875546899

>  <Genealogy>  (69) 
CCOC(=O)n1c(C(N)=O)cc2ccc(CCO[Si](C)(C)C(C)(C)C)cc21 (3D coordinates assigned)
CCOC(=O)n1c(C(N)=O)cc2ccc(CCO[Si](C)(C)C(C)(C)C)cc21 (optimized conformer: 72.34494875546899 kcal/mol)

>  <smiles>  (69) 
CCOC(=O)n1c(C(N)=O)cc2ccc(CCO[Si](C)(C)C(C)(C)C)cc21

>  <score_type>  (69) 
oracle

>  <origin>  (69) 
adg

>  <m_score__min__energy>  (69) 
-7.7999999999999998

>  <m_primary>  (69) 
energy

$$$$
69:0
     RDKit          3D

 33 34  0  0  0  0  0  0  0  0999 V2000
  145.3180  161.3970  133.8440 N   0  0  0  0  0  0  0  0  0  0  0  0
  144.5800  160.2130  133.5450 C   0  0  0  0  0  0  0  0  0  0  0  0
  143.3350  160.2850  133.3790 O   0  0  0  0  0  0  0  0  0  0  0  0
  145.2750  158.9120  133.4650 C   0  0  0  0  0  0  0  0  0  0  0  0
  144.6970  157.6890  133.8070 C   0  0  0  0  0  0  0  0  0  0  0  0
  145.6780  156.7450  133.5810 C   0  0  0  0  0  0  0  0  0  0  0  0
  145.6590  155.3640  133.7530 C   0  0  0  0  0  0  0  0  0  0  0  0
  146.8250  154.6430  133.4320 C   0  0  0  0  0  0  0  0  0  0  0  0
  147.9780  155.3120  132.9440 C   0  0  0  0  0  0  0  0  0  0  0  0
  149.2250  154.5370  132.6050 C   0  0  0  0  0  0  0  0  0  0  0  0
  149.0100  153.0310  132.7650 C   0  0  0  0  0  0  0  0  0  0  0  0
  149.9880  152.3160  132.0610 O   0  0  0  0  0  0  0  0  0  0  0  0
  147.9640  156.7160  132.8010 C   0  0  0  0  0  0  0  0  0  0  0  0
  146.7930  157.4030  133.1290 C   0  0  0  0  0  0  0  0  0  0  0  0
  146.5600  158.7290  133.0500 N   0  0  0  0  0  0  0  0  0  0  0  0
  147.5280  159.7350  132.7280 C   0  0  0  0  0  0  0  0  0  0  0  0
  148.0450  160.4290  133.6470 O   0  0  0  0  0  0  0  0  0  0  0  0
  147.9280  159.9630  131.3050 C   0  0  0  0  0  0  0  0  0  0  0  0
  149.3930  159.7190  131.1450 C   0  0  0  0  0  0  0  0  0  0  0  0
  150.0930  160.5030  130.4480 O   0  0  0  0  0  0  0  0  0  0  0  0
  150.0020  158.6670  131.8160 O   0  0  0  0  0  0  0  0  0  0  0  0
  146.2220  161.6040  133.3620 H   0  0  0  0  0  0  0  0  0  0  0  0
  143.6763  157.5143  134.1780 H   0  0  0  0  0  0  0  0  0  0  0  0
  144.7608  154.8516  134.1281 H   0  0  0  0  0  0  0  0  0  0  0  0
  146.8427  153.5507  133.5606 H   0  0  0  0  0  0  0  0  0  0  0  0
  149.5055  154.7493  131.5628 H   0  0  0  0  0  0  0  0  0  0  0  0
  150.0226  154.8471  133.2961 H   0  0  0  0  0  0  0  0  0  0  0  0
  149.0681  152.7688  133.8317 H   0  0  0  0  0  0  0  0  0  0  0  0
  148.0204  152.7692  132.3623 H   0  0  0  0  0  0  0  0  0  0  0  0
  150.7110  152.9590  131.8410 H   0  0  0  0  0  0  0  0  0  0  0  0
  148.8524  157.2553  132.4405 H   0  0  0  0  0  0  0  0  0  0  0  0
  147.3699  159.2739  130.6541 H   0  0  0  0  0  0  0  0  0  0  0  0
  147.7007  161.0026  131.0263 H   0  0  0  0  0  0  0  0  0  0  0  0
  1  2  1  0
  2  3  2  0
  2  4  1  0
  4  5  2  0
  5  6  1  0
  6  7  2  0
  7  8  1  0
  8  9  2  0
  9 10  1  0
 10 11  1  0
 11 12  1  0
  9 13  1  0
 13 14  2  0
 14 15  1  0
 15 16  1  0
 16 17  2  0
 16 18  1  0
 18 19  1  0
 19 20  2  0
 19 21  1  0
 15  4  1  0
 14  6  1  0
  1 22  1  0
  5 23  1  0
  7 24  1  0
  8 25  1  0
 10 26  1  0
 10 27  1  0
 11 28  1  0
 11 29  1  0
 12 30  1  0
 13 31  1  0
 18 32  1  0
 18 33  1  0
M  CHG  2   1  -1  21  -1
M  END
>  <UniqueID>  (70) 
70

>  <SMILES>  (70) 
[NH-]C(=O)c1cc2ccc(CCO)cc2n1C(=O)CC(=O)[O-]

>  <Energy>  (70) 
68.6957682514502

>  <Genealogy>  (70) 
[NH-]C(=O)c1cc2ccc(CCO)cc2n1C(=O)CC(=O)[O-] (protonated)
[NH-]C(=O)c1cc2ccc(CCO)cc2n1C(=O)CC(=O)[O-] (3D coordinates assigned)
[NH-]C(=O)c1cc2ccc(CCO)cc2n1C(=O)CC(=O)[O-] (optimized conformer: 68.6957682514502 kcal/mol)

>  <smiles>  (70) 
NC(=O)c1cc2ccc(CCO)cc2n1C(=O)CC(=O)O

>  <score_type>  (70) 
oracle

>  <origin>  (70) 
adg

>  <m_score__min__energy>  (70) 
-6.0800000000000001

>  <m_primary>  (70) 
energy

$$$$
70:0
     RDKit          3D

 45 47  0  0  0  0  0  0  0  0999 V2000
  143.2770  155.1460  133.7190 C   0  0  0  0  0  0  0  0  0  0  0  0
  144.0920  155.6190  134.7870 O   0  0  0  0  0  0  0  0  0  0  0  0
  145.4490  155.9080  134.6260 C   0  0  0  0  0  0  0  0  0  0  0  0
  146.2870  155.5410  135.4950 O   0  0  0  0  0  0  0  0  0  0  0  0
  145.8990  156.6610  133.4470 C   0  0  0  0  0  0  0  0  0  0  0  0
  146.2870  156.0360  132.4250 O   0  0  0  0  0  0  0  0  0  0  0  0
  145.8850  158.0970  133.4380 N   0  0  0  0  0  0  0  0  0  0  0  0
  146.9550  158.9340  133.5240 C   0  0  0  0  0  0  0  0  0  0  0  0
  148.3750  158.5260  133.5130 C   0  0  0  0  0  0  0  0  0  0  0  0
  148.8260  157.4190  132.7280 N   0  0  0  0  0  0  0  0  0  0  0  0
  149.2130  159.1920  134.1800 O   0  0  0  0  0  0  0  0  0  0  0  0
  146.5340  160.2580  133.6380 C   0  0  0  0  0  0  0  0  0  0  0  0
  145.1590  160.2050  133.6190 C   0  0  0  0  0  0  0  0  0  0  0  0
  144.2200  161.2250  133.7320 C   0  0  0  0  0  0  0  0  0  0  0  0
  142.8590  160.8720  133.7360 C   0  0  0  0  0  0  0  0  0  0  0  0
  142.4620  159.5140  133.6430 C   0  0  0  0  0  0  0  0  0  0  0  0
  141.0640  159.1600  133.6800 N   0  0  0  0  0  0  0  0  0  0  0  0
  140.1640  159.5060  132.5760 C   0  0  0  0  0  0  0  0  0  0  0  0
  139.5160  158.2270  132.0300 C   0  0  0  0  0  0  0  0  0  0  0  0
  139.0120  157.3100  133.0920 N   0  0  0  0  0  0  0  0  0  0  0  0
  139.6010  155.9650  132.9800 C   0  0  0  0  0  0  0  0  0  0  0  0
  139.1230  157.8390  134.4720 C   0  0  0  0  0  0  0  0  0  0  0  0
  140.5380  158.3540  134.7880 C   0  0  0  0  0  0  0  0  0  0  0  0
  143.4480  158.5070  133.5460 C   0  0  0  0  0  0  0  0  0  0  0  0
  144.7920  158.8900  133.5050 C   0  0  0  0  0  0  0  0  0  0  0  0
  142.3946  154.6339  134.1302 H   0  0  0  0  0  0  0  0  0  0  0  0
  142.9526  155.9962  133.1010 H   0  0  0  0  0  0  0  0  0  0  0  0
  143.8543  154.4426  133.1010 H   0  0  0  0  0  0  0  0  0  0  0  0
  148.2040  156.9610  132.0270 H   0  0  0  0  0  0  0  0  0  0  0  0
  149.8190  157.1030  132.7930 H   0  0  0  0  0  0  0  0  0  0  0  0
  147.1661  161.1541  133.7247 H   0  0  0  0  0  0  0  0  0  0  0  0
  144.5328  162.2763  133.8157 H   0  0  0  0  0  0  0  0  0  0  0  0
  142.0935  161.6583  133.8121 H   0  0  0  0  0  0  0  0  0  0  0  0
  139.3813  160.1879  132.9399 H   0  0  0  0  0  0  0  0  0  0  0  0
  140.7351  160.0001  131.7761 H   0  0  0  0  0  0  0  0  0  0  0  0
  138.6699  158.5132  131.3880 H   0  0  0  0  0  0  0  0  0  0  0  0
  140.2959  157.6819  131.4782 H   0  0  0  0  0  0  0  0  0  0  0  0
  139.7793  155.5578  133.9862 H   0  0  0  0  0  0  0  0  0  0  0  0
  138.9091  155.3059  132.4351 H   0  0  0  0  0  0  0  0  0  0  0  0
  140.5546  156.0265  132.4351 H   0  0  0  0  0  0  0  0  0  0  0  0
  138.4100  158.6681  134.5914 H   0  0  0  0  0  0  0  0  0  0  0  0
  138.9017  157.0155  135.1668 H   0  0  0  0  0  0  0  0  0  0  0  0
  140.5010  158.9725  135.6969 H   0  0  0  0  0  0  0  0  0  0  0  0
  141.2006  157.4888  134.9373 H   0  0  0  0  0  0  0  0  0  0  0  0
  143.1646  157.4450  133.5037 H   0  0  0  0  0  0  0  0  0  0  0  0
  1  2  1  0
  2  3  1  0
  3  4  2  0
  3  5  1  0
  5  6  2  0
  5  7  1  0
  7  8  1  0
  8  9  1  0
  9 10  1  0
  9 11  2  0
  8 12  2  0
 12 13  1  0
 13 14  2  0
 14 15  1  0
 15 16  2  0
 16 17  1  0
 17 18  1  0
 18 19  1  0
 19 20  1  0
 20 21  1  0
 20 22  1  0
 22 23  1  0
 16 24  1  0
 24 25  2  0
 25  7  1  0
 25 13  1  0
 23 17  1  0
  1 26  1  0
  1 27  1  0
  1 28  1  0
 10 29  1  0
 10 30  1  0
 12 31  1  0
 14 32  1  0
 15 33  1  0
 18 34  1  0
 18 35  1  0
 19 36  1  0
 19 37  1  0
 21 38  1  0
 21 39  1  0
 21 40  1  0
 22 41  1  0
 22 42  1  0
 23 43  1  0
 23 44  1  0
 24 45  1  0
M  END
>  <UniqueID>  (71) 
71

>  <SMILES>  (71) 
COC(=O)C(=O)n1c(C(N)=O)cc2ccc(N3CCN(C)CC3)cc21

>  <Energy>  (71) 
95.00702486210035

>  <Genealogy>  (71) 
COC(=O)C(=O)n1c(C(N)=O)cc2ccc(N3CCN(C)CC3)cc21 (3D coordinates assigned)
COC(=O)C(=O)n1c(C(N)=O)cc2ccc(N3CCN(C)CC3)cc21 (nonaromatic ring conformer: 95.00702486210035 kcal/mol)

>  <smiles>  (71) 
COC(=O)C(=O)n1c(C(N)=O)cc2ccc(N3CCN(C)CC3)cc21

>  <score_type>  (71) 
oracle

>  <origin>  (71) 
adg

>  <m_score__min__energy>  (71) 
-7.2000000000000002

>  <m_primary>  (71) 
energy

$$$$
71:0
     RDKit          3D

 43 45  0  0  0  0  0  0  0  0999 V2000
  148.4500  157.6860  134.4750 N   0  0  0  0  0  0  0  0  0  0  0  0
  147.7780  158.5880  133.5990 C   0  0  0  0  0  0  0  0  0  0  0  0
  148.4540  159.3520  132.8620 O   0  0  0  0  0  0  0  0  0  0  0  0
  146.3030  158.5930  133.5390 C   0  0  0  0  0  0  0  0  0  0  0  0
  145.5290  159.7430  133.6860 C   0  0  0  0  0  0  0  0  0  0  0  0
  144.2220  159.3120  133.6430 C   0  0  0  0  0  0  0  0  0  0  0  0
  143.0360  160.0310  133.7350 C   0  0  0  0  0  0  0  0  0  0  0  0
  141.8270  159.3210  133.6380 C   0  0  0  0  0  0  0  0  0  0  0  0
  141.8240  157.9180  133.4230 C   0  0  0  0  0  0  0  0  0  0  0  0
  140.5230  157.1560  133.3610 C   0  0  0  0  0  0  0  0  0  0  0  0
  139.7490  157.6620  132.3350 F   0  0  0  0  0  0  0  0  0  0  0  0
  140.7510  155.8090  133.1320 F   0  0  0  0  0  0  0  0  0  0  0  0
  139.8320  157.2820  134.5540 F   0  0  0  0  0  0  0  0  0  0  0  0
  143.0530  157.2220  133.3540 C   0  0  0  0  0  0  0  0  0  0  0  0
  144.2380  157.9530  133.4730 C   0  0  0  0  0  0  0  0  0  0  0  0
  145.5060  157.4970  133.4060 N   0  0  0  0  0  0  0  0  0  0  0  0
  145.8900  156.1360  133.1400 C   0  0  0  0  0  0  0  0  0  0  0  0
  145.3430  155.5330  132.1770 O   0  0  0  0  0  0  0  0  0  0  0  0
  146.9860  155.5330  133.8840 N   0  0  2  0  0  0  0  0  0  0  0  0
  147.4420  154.3150  133.1690 C   0  0  0  0  0  0  0  0  0  0  0  0
  148.8630  154.4330  132.6960 C   0  0  0  0  0  0  0  0  0  0  0  0
  149.4080  155.5640  132.6000 O   0  0  0  0  0  0  0  0  0  0  0  0
  149.5740  153.2940  132.3400 O   0  0  0  0  0  0  0  0  0  0  0  0
  146.7130  155.2770  135.3340 C   0  0  1  0  0  0  0  0  0  0  0  0
  145.3750  154.6220  135.6050 C   0  0  0  0  0  0  0  0  0  0  0  0
  145.6700  153.7560  136.8080 C   0  0  0  0  0  0  0  0  0  0  0  0
  147.0170  153.3550  136.7450 O   0  0  0  0  0  0  0  0  0  0  0  0
  147.7190  154.3670  136.0600 C   0  0  0  0  0  0  0  0  0  0  0  0
  149.2060  157.0590  134.1210 H   0  0  0  0  0  0  0  0  0  0  0  0
  145.8866  160.7758  133.8101 H   0  0  0  0  0  0  0  0  0  0  0  0
  143.0434  161.1215  133.8792 H   0  0  0  0  0  0  0  0  0  0  0  0
  140.8719  159.8589  133.7298 H   0  0  0  0  0  0  0  0  0  0  0  0
  143.0757  156.1317  133.2102 H   0  0  0  0  0  0  0  0  0  0  0  0
  147.7790  156.2140  133.8500 H   0  0  0  0  0  0  0  0  0  0  0  0
  147.3658  153.4548  133.8504 H   0  0  0  0  0  0  0  0  0  0  0  0
  146.8016  154.1831  132.2844 H   0  0  0  0  0  0  0  0  0  0  0  0
  146.7703  156.3065  135.7171 H   0  0  0  0  0  0  0  0  0  0  0  0
  144.6047  155.3727  135.8353 H   0  0  0  0  0  0  0  0  0  0  0  0
  144.9815  154.0586  134.7461 H   0  0  0  0  0  0  0  0  0  0  0  0
  145.4955  154.3292  137.7305 H   0  0  0  0  0  0  0  0  0  0  0  0
  145.0122  152.8744  136.8103 H   0  0  0  0  0  0  0  0  0  0  0  0
  148.3014  154.9621  136.7788 H   0  0  0  0  0  0  0  0  0  0  0  0
  148.4021  153.9124  135.3274 H   0  0  0  0  0  0  0  0  0  0  0  0
  1  2  1  0
  2  3  2  0
  2  4  1  0
  4  5  2  0
  5  6  1  0
  6  7  2  0
  7  8  1  0
  8  9  2  0
  9 10  1  0
 10 11  1  0
 10 12  1  0
 10 13  1  0
  9 14  1  0
 14 15  2  0
 15 16  1  0
 16 17  1  0
 17 18  2  0
 17 19  1  0
 19 20  1  0
 20 21  1  0
 21 22  2  0
 21 23  1  0
 19 24  1  0
 24 25  1  0
 25 26  1  0
 26 27  1  0
 27 28  1  0
 16  4  1  0
 28 24  1  0
 15  6  1  0
  1 29  1  0
  5 30  1  0
  7 31  1  0
  8 32  1  0
 14 33  1  0
 19 34  1  1
 20 35  1  0
 20 36  1  0
 24 37  1  1
 25 38  1  0
 25 39  1  0
 26 40  1  0
 26 41  1  0
 28 42  1  0
 28 43  1  0
M  CHG  3   1  -1  19   1  23  -1
M  END
>  <UniqueID>  (72) 
72

>  <SMILES>  (72) 
[NH-]C(=O)c1cc2ccc(C(F)(F)F)cc2n1C(=O)[N@H+](CC(=O)[O-])[C@H]1CCOC1

>  <Energy>  (72) 
96.49568315719014

>  <Genealogy>  (72) 
[NH-]C(=O)c1cc2ccc(C(F)(F)F)cc2n1C(=O)[NH+](CC(=O)[O-])C1CCOC1 (protonated)
[NH-]C(=O)c1cc2ccc(C(F)(F)F)cc2n1C(=O)[N@H+](CC(=O)[O-])[C@H]1CCOC1 (chirality)
[NH-]C(=O)c1cc2ccc(C(F)(F)F)cc2n1C(=O)[N@H+](CC(=O)[O-])[C@H]1CCOC1 (3D coordinates assigned)
[NH-]C(=O)c1cc2ccc(C(F)(F)F)cc2n1C(=O)[N@H+](CC(=O)[O-])[C@H]1CCOC1 (nonaromatic ring conformer: 96.49568315719014 kcal/mol)

>  <smiles>  (72) 
NC(=O)c1cc2ccc(C(F)(F)F)cc2n1C(=O)N(CC(=O)O)C1CCOC1

>  <score_type>  (72) 
oracle

>  <origin>  (72) 
adg

>  <m_score__min__energy>  (72) 
-5.9900000000000002

>  <m_primary>  (72) 
energy

$$$$
72:0
     RDKit          3D

 38 39  0  0  0  0  0  0  0  0999 V2000
  144.7220  154.6350  131.3960 C   0  0  0  0  0  0  0  0  0  0  0  0
  144.5990  153.7680  132.6650 C   0  0  0  0  0  0  0  0  0  0  0  0
  143.2120  154.0120  133.2960 C   0  0  0  0  0  0  0  0  0  0  0  0
  144.7000  152.2700  132.2760 C   0  0  0  0  0  0  0  0  0  0  0  0
  145.9610  151.7480  132.6010 O   0  0  0  0  0  0  0  0  0  0  0  0
  145.6770  154.1850  133.6610 C   0  0  0  0  0  0  0  0  0  0  0  0
  145.7320  153.6200  134.7880 O   0  0  0  0  0  0  0  0  0  0  0  0
  146.6230  155.2260  133.3690 N   0  0  0  0  0  0  0  0  0  0  0  0
  147.9430  155.0840  133.0610 C   0  0  0  0  0  0  0  0  0  0  0  0
  148.6540  153.7910  132.9350 C   0  0  0  0  0  0  0  0  0  0  0  0
  148.1640  152.6160  133.5860 N   0  0  0  0  0  0  0  0  0  0  0  0
  149.7110  153.7160  132.2570 O   0  0  0  0  0  0  0  0  0  0  0  0
  148.5280  156.3340  132.8580 C   0  0  0  0  0  0  0  0  0  0  0  0
  147.5110  157.2470  133.0350 C   0  0  0  0  0  0  0  0  0  0  0  0
  147.5210  158.6350  132.9310 C   0  0  0  0  0  0  0  0  0  0  0  0
  146.3130  159.3210  133.1470 C   0  0  0  0  0  0  0  0  0  0  0  0
  145.1240  158.6110  133.4520 C   0  0  0  0  0  0  0  0  0  0  0  0
  143.8320  159.3440  133.6710 C   0  0  0  0  0  0  0  0  0  0  0  0
  144.0720  160.7040  133.7350 F   0  0  0  0  0  0  0  0  0  0  0  0
  143.2540  158.9250  134.8560 F   0  0  0  0  0  0  0  0  0  0  0  0
  145.1520  157.2020  133.5410 C   0  0  0  0  0  0  0  0  0  0  0  0
  146.3710  156.5500  133.3350 C   0  0  0  0  0  0  0  0  0  0  0  0
  144.8712  155.6863  131.6832 H   0  0  0  0  0  0  0  0  0  0  0  0
  145.5805  154.2925  130.7997 H   0  0  0  0  0  0  0  0  0  0  0  0
  143.8021  154.5448  130.7997 H   0  0  0  0  0  0  0  0  0  0  0  0
  143.3001  153.9965  134.3924 H   0  0  0  0  0  0  0  0  0  0  0  0
  142.8292  154.9913  132.9727 H   0  0  0  0  0  0  0  0  0  0  0  0
  142.5180  153.2221  132.9727 H   0  0  0  0  0  0  0  0  0  0  0  0
  143.9269  151.7052  132.8176 H   0  0  0  0  0  0  0  0  0  0  0  0
  144.5541  152.1805  131.1894 H   0  0  0  0  0  0  0  0  0  0  0  0
  146.0560  151.8420  133.5830 H   0  0  0  0  0  0  0  0  0  0  0  0
  148.6960  151.7200  133.5130 H   0  0  0  0  0  0  0  0  0  0  0  0
  147.2570  152.6130  134.1000 H   0  0  0  0  0  0  0  0  0  0  0  0
  149.5784  156.5460  132.6094 H   0  0  0  0  0  0  0  0  0  0  0  0
  148.4458  159.1785  132.6873 H   0  0  0  0  0  0  0  0  0  0  0  0
  146.2900  160.4186  133.0788 H   0  0  0  0  0  0  0  0  0  0  0  0
  143.1507  159.1310  132.8341 H   0  0  0  0  0  0  0  0  0  0  0  0
  144.2384  156.6324  133.7665 H   0  0  0  0  0  0  0  0  0  0  0  0
  1  2  1  0
  2  3  1  0
  2  4  1  0
  4  5  1  0
  2  6  1  0
  6  7  2  0
  6  8  1  0
  8  9  1  0
  9 10  1  0
 10 11  1  0
 10 12  2  0
  9 13  2  0
 13 14  1  0
 14 15  2  0
 15 16  1  0
 16 17  2  0
 17 18  1  0
 18 19  1  0
 18 20  1  0
 17 21  1  0
 21 22  2  0
 22  8  1  0
 22 14  1  0
  1 23  1  0
  1 24  1  0
  1 25  1  0
  3 26  1  0
  3 27  1  0
  3 28  1  0
  4 29  1  0
  4 30  1  0
  5 31  1  0
 11 32  1  0
 11 33  1  0
 13 34  1  0
 15 35  1  0
 16 36  1  0
 18 37  1  0
 21 38  1  0
M  END
>  <UniqueID>  (73) 
73

>  <SMILES>  (73) 
CC(C)(CO)C(=O)n1c(C(N)=O)cc2ccc(C(F)F)cc21

>  <Energy>  (73) 
75.02534500216177

>  <Genealogy>  (73) 
CC(C)(CO)C(=O)n1c(C(N)=O)cc2ccc(C(F)F)cc21 (3D coordinates assigned)
CC(C)(CO)C(=O)n1c(C(N)=O)cc2ccc(C(F)F)cc21 (optimized conformer: 75.02534500216177 kcal/mol)

>  <smiles>  (73) 
CC(C)(CO)C(=O)n1c(C(N)=O)cc2ccc(C(F)F)cc21

>  <score_type>  (73) 
oracle

>  <origin>  (73) 
adg

>  <m_score__min__energy>  (73) 
-6.0099999999999998

>  <m_primary>  (73) 
energy

$$$$
73:0
     RDKit          3D

 42 44  0  0  0  0  0  0  0  0999 V2000
  140.1660  158.3860  135.1180 C   0  0  0  0  0  0  0  0  0  0  0  0
  140.7080  158.9380  133.8730 N   0  0  0  0  0  0  0  0  0  0  0  0
  139.8170  159.1690  132.7640 C   0  0  0  0  0  0  0  0  0  0  0  0
  139.6080  160.4740  132.2840 C   0  0  0  0  0  0  0  0  0  0  0  0
  138.7550  160.6970  131.1990 C   0  0  0  0  0  0  0  0  0  0  0  0
  138.1080  159.6240  130.5840 C   0  0  0  0  0  0  0  0  0  0  0  0
  138.3140  158.3220  131.0520 C   0  0  0  0  0  0  0  0  0  0  0  0
  139.1660  158.0940  132.1360 C   0  0  0  0  0  0  0  0  0  0  0  0
  142.0780  159.3980  133.8090 C   0  0  0  0  0  0  0  0  0  0  0  0
  142.3800  160.7860  133.7390 C   0  0  0  0  0  0  0  0  0  0  0  0
  143.7110  161.2320  133.6880 C   0  0  0  0  0  0  0  0  0  0  0  0
  144.7220  160.2770  133.7070 C   0  0  0  0  0  0  0  0  0  0  0  0
  146.0910  160.4290  133.6840 C   0  0  0  0  0  0  0  0  0  0  0  0
  146.6080  159.1330  133.7290 C   0  0  0  0  0  0  0  0  0  0  0  0
  148.0490  158.8020  133.6460 C   0  0  0  0  0  0  0  0  0  0  0  0
  148.5450  157.5550  134.1340 N   0  0  0  0  0  0  0  0  0  0  0  0
  148.8590  159.6320  133.1530 O   0  0  0  0  0  0  0  0  0  0  0  0
  145.5960  158.2240  133.7780 N   0  0  0  0  0  0  0  0  0  0  0  0
  145.6950  156.7960  133.8750 C   0  0  0  0  0  0  0  0  0  0  0  0
  145.7250  156.2480  135.0100 O   0  0  0  0  0  0  0  0  0  0  0  0
  145.8690  155.9600  132.6450 C   0  0  0  0  0  0  0  0  0  0  0  0
  146.9340  154.9380  132.8770 C   0  0  0  0  0  0  0  0  0  0  0  0
  148.1390  155.2900  132.9760 O   0  0  0  0  0  0  0  0  0  0  0  0
  146.5910  153.6000  133.0390 O   0  0  0  0  0  0  0  0  0  0  0  0
  144.4510  158.9370  133.7610 C   0  0  0  0  0  0  0  0  0  0  0  0
  143.1400  158.4610  133.8250 C   0  0  0  0  0  0  0  0  0  0  0  0
  140.6476  158.8765  135.9768 H   0  0  0  0  0  0  0  0  0  0  0  0
  139.0810  158.5629  135.1558 H   0  0  0  0  0  0  0  0  0  0  0  0
  140.3627  157.3044  135.1558 H   0  0  0  0  0  0  0  0  0  0  0  0
  140.1175  161.3226  132.7639 H   0  0  0  0  0  0  0  0  0  0  0  0
  138.5934  161.7203  130.8292 H   0  0  0  0  0  0  0  0  0  0  0  0
  137.4362  159.8022  129.7314 H   0  0  0  0  0  0  0  0  0  0  0  0
  137.8048  157.4766  130.5662 H   0  0  0  0  0  0  0  0  0  0  0  0
  139.3276  157.0683  132.4991 H   0  0  0  0  0  0  0  0  0  0  0  0
  141.5607  161.5198  133.7246 H   0  0  0  0  0  0  0  0  0  0  0  0
  143.9468  162.3051  133.6346 H   0  0  0  0  0  0  0  0  0  0  0  0
  146.6566  161.3714  133.6396 H   0  0  0  0  0  0  0  0  0  0  0  0
  147.9040  156.8140  134.4930 H   0  0  0  0  0  0  0  0  0  0  0  0
  149.5690  157.3500  134.0980 H   0  0  0  0  0  0  0  0  0  0  0  0
  144.9212  155.4535  132.4101 H   0  0  0  0  0  0  0  0  0  0  0  0
  146.1611  156.6060  131.8039 H   0  0  0  0  0  0  0  0  0  0  0  0
  142.9364  157.3818  133.8865 H   0  0  0  0  0  0  0  0  0  0  0  0
  1  2  1  0
  2  3  1  0
  3  4  2  0
  4  5  1  0
  5  6  2  0
  6  7  1  0
  7  8  2  0
  2  9  1  0
  9 10  2  0
 10 11  1  0
 11 12  2  0
 12 13  1  0
 13 14  2  0
 14 15  1  0
 15 16  1  0
 15 17  2  0
 14 18  1  0
 18 19  1  0
 19 20  2  0
 19 21  1  0
 21 22  1  0
 22 23  2  0
 22 24  1  0
 18 25  1  0
 25 26  2  0
  8  3  1  0
 26  9  1  0
 25 12  1  0
  1 27  1  0
  1 28  1  0
  1 29  1  0
  4 30  1  0
  5 31  1  0
  6 32  1  0
  7 33  1  0
  8 34  1  0
 10 35  1  0
 11 36  1  0
 13 37  1  0
 16 38  1  0
 16 39  1  0
 21 40  1  0
 21 41  1  0
 26 42  1  0
M  CHG  1  24  -1
M  END
>  <UniqueID>  (74) 
74

>  <SMILES>  (74) 
CN(c1ccccc1)c1ccc2cc(C(N)=O)n(C(=O)CC(=O)[O-])c2c1

>  <Energy>  (74) 
90.03140390639652

>  <Genealogy>  (74) 
CN(c1ccccc1)c1ccc2cc(C(N)=O)n(C(=O)CC(=O)[O-])c2c1 (protonated)
CN(c1ccccc1)c1ccc2cc(C(N)=O)n(C(=O)CC(=O)[O-])c2c1 (3D coordinates assigned)
CN(c1ccccc1)c1ccc2cc(C(N)=O)n(C(=O)CC(=O)[O-])c2c1 (optimized conformer: 90.03140390639652 kcal/mol)

>  <smiles>  (74) 
CN(c1ccccc1)c1ccc2cc(C(N)=O)n(C(=O)CC(=O)O)c2c1

>  <score_type>  (74) 
oracle

>  <origin>  (74) 
adg

>  <m_score__min__energy>  (74) 
-8.3699999999999992

>  <m_primary>  (74) 
energy

$$$$
74:0
     RDKit          3D

 49 52  0  0  0  0  0  0  0  0999 V2000
  147.4880  160.4890  133.0400 C   0  0  0  0  0  0  0  0  0  0  0  0
  146.3370  159.5420  133.0180 C   0  0  0  0  0  0  0  0  0  0  0  0
  145.0460  159.9230  132.9760 N   0  0  0  0  0  0  0  0  0  0  0  0
  144.3320  158.8080  132.9960 N   0  0  0  0  0  0  0  0  0  0  0  0
  145.2150  157.7910  133.0540 C   0  0  0  0  0  0  0  0  0  0  0  0
  144.8430  156.3640  133.0980 C   0  0  0  0  0  0  0  0  0  0  0  0
  145.8490  155.3710  133.1990 C   0  0  0  0  0  0  0  0  0  0  0  0
  145.5080  154.0080  133.2650 C   0  0  0  0  0  0  0  0  0  0  0  0
  144.1590  153.6710  133.2220 C   0  0  0  0  0  0  0  0  0  0  0  0
  143.5440  152.4420  133.3290 C   0  0  0  0  0  0  0  0  0  0  0  0
  142.1780  152.7080  133.2730 C   0  0  0  0  0  0  0  0  0  0  0  0
  141.1380  151.6840  133.4850 C   0  0  0  0  0  0  0  0  0  0  0  0
  139.9300  151.6870  132.7260 N   0  0  0  0  0  0  0  0  0  0  0  0
  141.3400  150.7630  134.3210 O   0  0  0  0  0  0  0  0  0  0  0  0
  141.9560  154.0460  133.1440 N   0  0  0  0  0  0  0  0  0  0  0  0
  140.7090  154.7460  133.2560 C   0  0  0  0  0  0  0  0  0  0  0  0
  139.6580  154.2140  132.8090 O   0  0  0  0  0  0  0  0  0  0  0  0
  140.6630  156.0830  133.7970 N   0  0  0  0  0  0  0  0  0  0  0  0
  141.3460  156.3460  135.0750 C   0  0  0  0  0  0  0  0  0  0  0  0
  140.9040  157.6710  135.7100 C   0  0  0  0  0  0  0  0  0  0  0  0
  139.4280  157.9300  135.4190 C   0  0  0  0  0  0  0  0  0  0  0  0
  139.1830  158.1040  133.9120 C   0  0  0  0  0  0  0  0  0  0  0  0
  140.0640  157.1870  133.0180 C   0  0  1  0  0  0  0  0  0  0  0  0
  141.1660  157.9810  132.2900 C   0  0  0  0  0  0  0  0  0  0  0  0
  141.6540  159.0100  133.1090 O   0  0  0  0  0  0  0  0  0  0  0  0
  143.1780  154.6190  133.1170 C   0  0  0  0  0  0  0  0  0  0  0  0
  143.4840  155.9810  133.0540 C   0  0  0  0  0  0  0  0  0  0  0  0
  146.4490  158.2370  133.0710 O   0  0  0  0  0  0  0  0  0  0  0  0
  147.7593  160.7122  134.0824 H   0  0  0  0  0  0  0  0  0  0  0  0
  148.3477  160.0332  132.5269 H   0  0  0  0  0  0  0  0  0  0  0  0
  147.2064  161.4204  132.5269 H   0  0  0  0  0  0  0  0  0  0  0  0
  146.9075  155.6692  133.2261 H   0  0  0  0  0  0  0  0  0  0  0  0
  146.2839  153.2327  133.3480 H   0  0  0  0  0  0  0  0  0  0  0  0
  144.0288  151.4604  133.4358 H   0  0  0  0  0  0  0  0  0  0  0  0
  139.8470  152.2560  131.8560 H   0  0  0  0  0  0  0  0  0  0  0  0
  139.1690  151.0090  132.9520 H   0  0  0  0  0  0  0  0  0  0  0  0
  141.1189  155.5264  135.7726 H   0  0  0  0  0  0  0  0  0  0  0  0
  142.4250  156.4137  134.8720 H   0  0  0  0  0  0  0  0  0  0  0  0
  141.0562  157.6207  136.7983 H   0  0  0  0  0  0  0  0  0  0  0  0
  141.5024  158.4898  135.2840 H   0  0  0  0  0  0  0  0  0  0  0  0
  138.8352  157.0780  135.7832 H   0  0  0  0  0  0  0  0  0  0  0  0
  139.1285  158.8565  135.9307 H   0  0  0  0  0  0  0  0  0  0  0  0
  138.1267  157.8774  133.7049 H   0  0  0  0  0  0  0  0  0  0  0  0
  139.4502  159.1418  133.6640 H   0  0  0  0  0  0  0  0  0  0  0  0
  139.3961  156.7549  132.2583 H   0  0  0  0  0  0  0  0  0  0  0  0
  141.9916  157.3012  132.0324 H   0  0  0  0  0  0  0  0  0  0  0  0
  140.7406  158.4245  131.3777 H   0  0  0  0  0  0  0  0  0  0  0  0
  142.4710  159.3640  132.6690 H   0  0  0  0  0  0  0  0  0  0  0  0
  142.6874  156.7352  132.9723 H   0  0  0  0  0  0  0  0  0  0  0  0
  1  2  1  0
  2  3  2  0
  3  4  1  0
  4  5  2  0
  5  6  1  0
  6  7  2  0
  7  8  1  0
  8  9  2  0
  9 10  1  0
 10 11  2  0
 11 12  1  0
 12 13  1  0
 12 14  2  0
 11 15  1  0
 15 16  1  0
 16 17  2  0
 16 18  1  0
 18 19  1  0
 19 20  1  0
 20 21  1  0
 21 22  1  0
 22 23  1  0
 23 24  1  0
 24 25  1  0
 15 26  1  0
 26 27  2  0
  5 28  1  0
 28  2  1  0
 27  6  1  0
 26  9  1  0
 23 18  1  0
  1 29  1  0
  1 30  1  0
  1 31  1  0
  7 32  1  0
  8 33  1  0
 10 34  1  0
 13 35  1  0
 13 36  1  0
 19 37  1  0
 19 38  1  0
 20 39  1  0
 20 40  1  0
 21 41  1  0
 21 42  1  0
 22 43  1  0
 22 44  1  0
 23 45  1  6
 24 46  1  0
 24 47  1  0
 25 48  1  0
 27 49  1  0
M  END
>  <UniqueID>  (75) 
75

>  <SMILES>  (75) 
Cc1nnc(-c2ccc3cc(C(N)=O)n(C(=O)N4CCCC[C@H]4CO)c3c2)o1

>  <Energy>  (75) 
127.79636902683472

>  <Genealogy>  (75) 
Cc1nnc(-c2ccc3cc(C(N)=O)n(C(=O)N4CCCC[C@H]4CO)c3c2)o1 (chirality)
Cc1nnc(-c2ccc3cc(C(N)=O)n(C(=O)N4CCCC[C@H]4CO)c3c2)o1 (3D coordinates assigned)
Cc1nnc(-c2ccc3cc(C(N)=O)n(C(=O)N4CCCC[C@H]4CO)c3c2)o1 (nonaromatic ring conformer: 127.79636902683472 kcal/mol)

>  <smiles>  (75) 
Cc1nnc(-c2ccc3cc(C(N)=O)n(C(=O)N4CCCCC4CO)c3c2)o1

>  <score_type>  (75) 
oracle

>  <origin>  (75) 
adg

>  <m_score__min__energy>  (75) 
-8.3800000000000008

>  <m_primary>  (75) 
energy

$$$$
75:0
     RDKit          3D

 48 49  0  0  0  0  0  0  0  0999 V2000
  142.5510  158.1000  133.3860 C   0  0  0  0  0  0  0  0  0  0  0  0
  142.0330  159.2750  134.1040 N   0  0  0  0  0  0  0  0  0  0  0  0
  142.0650  159.0200  135.5540 C   0  0  0  0  0  0  0  0  0  0  0  0
  142.8280  160.4750  133.7580 C   0  0  0  0  0  0  0  0  0  0  0  0
  144.2030  160.4490  134.4420 C   0  0  0  0  0  0  0  0  0  0  0  0
  145.2890  160.5160  133.4620 N   0  0  0  0  0  0  0  0  0  0  0  0
  146.2490  159.4680  133.2290 C   0  0  0  0  0  0  0  0  0  0  0  0
  147.5420  159.8140  132.7600 C   0  0  0  0  0  0  0  0  0  0  0  0
  148.5110  158.8230  132.5190 C   0  0  0  0  0  0  0  0  0  0  0  0
  148.1590  157.4980  132.7470 C   0  0  0  0  0  0  0  0  0  0  0  0
  148.9010  156.3450  132.6130 C   0  0  0  0  0  0  0  0  0  0  0  0
  148.0460  155.3080  132.9860 C   0  0  0  0  0  0  0  0  0  0  0  0
  148.4020  153.8710  132.9420 C   0  0  0  0  0  0  0  0  0  0  0  0
  147.4710  152.8710  133.3620 N   0  0  0  0  0  0  0  0  0  0  0  0
  149.5440  153.5150  132.5470 O   0  0  0  0  0  0  0  0  0  0  0  0
  146.8240  155.8030  133.3280 N   0  0  0  0  0  0  0  0  0  0  0  0
  145.6830  155.0680  133.7990 C   0  0  0  0  0  0  0  0  0  0  0  0
  144.7650  154.7580  132.9930 O   0  0  0  0  0  0  0  0  0  0  0  0
  145.5710  154.6750  135.2120 C   0  0  0  0  0  0  0  0  0  0  0  0
  144.6960  155.2060  135.9480 O   0  0  0  0  0  0  0  0  0  0  0  0
  146.4530  153.6840  135.7470 N   0  0  0  0  0  0  0  0  0  0  0  0
  147.6150  154.0200  136.5580 C   0  0  0  0  0  0  0  0  0  0  0  0
  147.3540  153.6680  138.0210 C   0  0  0  0  0  0  0  0  0  0  0  0
  145.9810  153.4860  138.2460 O   0  0  0  0  0  0  0  0  0  0  0  0
  146.9130  157.1430  133.1870 C   0  0  0  0  0  0  0  0  0  0  0  0
  145.9390  158.1070  133.4660 C   0  0  0  0  0  0  0  0  0  0  0  0
  142.8843  157.3440  134.1123 H   0  0  0  0  0  0  0  0  0  0  0  0
  141.7562  157.6764  132.7545 H   0  0  0  0  0  0  0  0  0  0  0  0
  143.3998  158.4010  132.7545 H   0  0  0  0  0  0  0  0  0  0  0  0
  141.9458  159.9697  136.0960 H   0  0  0  0  0  0  0  0  0  0  0  0
  141.2454  158.3381  135.8245 H   0  0  0  0  0  0  0  0  0  0  0  0
  143.0277  158.5617  135.8245 H   0  0  0  0  0  0  0  0  0  0  0  0
  142.9706  160.5084  132.6678 H   0  0  0  0  0  0  0  0  0  0  0  0
  142.2834  161.3650  134.1064 H   0  0  0  0  0  0  0  0  0  0  0  0
  144.2808  161.3103  135.1218 H   0  0  0  0  0  0  0  0  0  0  0  0
  144.2956  159.5038  134.9970 H   0  0  0  0  0  0  0  0  0  0  0  0
  145.3460  161.3800  132.8760 H   0  0  0  0  0  0  0  0  0  0  0  0
  147.7904  160.8708  132.5824 H   0  0  0  0  0  0  0  0  0  0  0  0
  149.5166  159.0887  132.1610 H   0  0  0  0  0  0  0  0  0  0  0  0
  149.9466  156.2601  132.2819 H   0  0  0  0  0  0  0  0  0  0  0  0
  146.4930  153.1140  133.6320 H   0  0  0  0  0  0  0  0  0  0  0  0
  147.7490  151.8650  133.3590 H   0  0  0  0  0  0  0  0  0  0  0  0
  148.4863  153.4536  136.1974 H   0  0  0  0  0  0  0  0  0  0  0  0
  147.8104  155.0995  136.4770 H   0  0  0  0  0  0  0  0  0  0  0  0
  147.8878  152.7391  138.2705 H   0  0  0  0  0  0  0  0  0  0  0  0
  147.7117  154.4932  138.6544 H   0  0  0  0  0  0  0  0  0  0  0  0
  145.5070  154.1100  137.6370 H   0  0  0  0  0  0  0  0  0  0  0  0
  144.9547  157.8146  133.8605 H   0  0  0  0  0  0  0  0  0  0  0  0
  1  2  1  0
  2  3  1  0
  2  4  1  0
  4  5  1  0
  5  6  1  0
  6  7  1  0
  7  8  2  0
  8  9  1  0
  9 10  2  0
 10 11  1  0
 11 12  2  0
 12 13  1  0
 13 14  1  0
 13 15  2  0
 12 16  1  0
 16 17  1  0
 17 18  2  0
 17 19  1  0
 19 20  2  0
 19 21  1  0
 21 22  1  0
 22 23  1  0
 23 24  1  0
 16 25  1  0
 25 26  2  0
 26  7  1  0
 25 10  1  0
  1 27  1  0
  1 28  1  0
  1 29  1  0
  3 30  1  0
  3 31  1  0
  3 32  1  0
  4 33  1  0
  4 34  1  0
  5 35  1  0
  5 36  1  0
  6 37  1  0
  8 38  1  0
  9 39  1  0
 11 40  1  0
 14 41  1  0
 14 42  1  0
 22 43  1  0
 22 44  1  0
 23 45  1  0
 23 46  1  0
 24 47  1  0
 26 48  1  0
M  CHG  1  21  -1
M  END
>  <UniqueID>  (76) 
76

>  <SMILES>  (76) 
CN(C)CCNc1ccc2cc(C(N)=O)n(C(=O)C(=O)[N-]CCO)c2c1

>  <Energy>  (76) 
79.27668957875429

>  <Genealogy>  (76) 
CN(C)CCNc1ccc2cc(C(N)=O)n(C(=O)C(=O)[N-]CCO)c2c1 (protonated)
CN(C)CCNc1ccc2cc(C(N)=O)n(C(=O)C(=O)[N-]CCO)c2c1 (3D coordinates assigned)
CN(C)CCNc1ccc2cc(C(N)=O)n(C(=O)C(=O)[N-]CCO)c2c1 (optimized conformer: 79.27668957875429 kcal/mol)

>  <smiles>  (76) 
CN(C)CCNc1ccc2cc(C(N)=O)n(C(=O)C(=O)NCCO)c2c1

>  <score_type>  (76) 
oracle

>  <origin>  (76) 
adg

>  <m_score__min__energy>  (76) 
-6.9000000000000004

>  <m_primary>  (76) 
energy

$$$$
76:0
     RDKit          3D

 36 37  0  0  0  0  0  0  0  0999 V2000
  148.2020  154.9310  132.6760 C   0  0  0  0  0  0  0  0  0  0  0  0
  147.8290  156.3780  132.7970 C   0  0  0  0  0  0  0  0  0  0  0  0
  148.8310  157.3760  132.7290 C   0  0  0  0  0  0  0  0  0  0  0  0
  148.5020  158.7320  132.8900 C   0  0  0  0  0  0  0  0  0  0  0  0
  147.1680  159.0570  133.1230 C   0  0  0  0  0  0  0  0  0  0  0  0
  146.5820  160.2810  133.3480 C   0  0  0  0  0  0  0  0  0  0  0  0
  145.2280  160.0120  133.5430 C   0  0  0  0  0  0  0  0  0  0  0  0
  144.2100  161.0650  133.7370 C   0  0  0  0  0  0  0  0  0  0  0  0
  142.8430  160.8310  133.4080 N   0  0  0  0  0  0  0  0  0  0  0  0
  144.5600  162.2010  134.1520 O   0  0  0  0  0  0  0  0  0  0  0  0
  144.9890  158.6730  133.4500 N   0  0  0  0  0  0  0  0  0  0  0  0
  143.7510  157.9850  133.6870 C   0  0  0  0  0  0  0  0  0  0  0  0
  143.5740  157.3660  134.7730 O   0  0  0  0  0  0  0  0  0  0  0  0
  142.7400  158.0200  132.7200 O   0  0  0  0  0  0  0  0  0  0  0  0
  141.3510  158.0930  133.0350 C   0  0  0  0  0  0  0  0  0  0  0  0
  140.6160  158.9750  132.0190 C   0  0  0  0  0  0  0  0  0  0  0  0
  139.1190  158.6540  131.9450 C   0  0  0  0  0  0  0  0  0  0  0  0
  138.3830  159.6330  131.0820 C   0  0  0  0  0  0  0  0  0  0  0  0
  137.1250  159.6830  131.1100 O   0  0  0  0  0  0  0  0  0  0  0  0
  139.0860  160.4680  130.2240 O   0  0  0  0  0  0  0  0  0  0  0  0
  146.1860  158.1020  133.1900 C   0  0  0  0  0  0  0  0  0  0  0  0
  146.4890  156.7430  133.0520 C   0  0  0  0  0  0  0  0  0  0  0  0
  148.3141  154.4960  133.6801 H   0  0  0  0  0  0  0  0  0  0  0  0
  147.4131  154.3934  132.1295 H   0  0  0  0  0  0  0  0  0  0  0  0
  149.1525  154.8418  132.1295 H   0  0  0  0  0  0  0  0  0  0  0  0
  149.8768  157.0868  132.5484 H   0  0  0  0  0  0  0  0  0  0  0  0
  149.2743  159.5132  132.8338 H   0  0  0  0  0  0  0  0  0  0  0  0
  147.0766  161.2633  133.3695 H   0  0  0  0  0  0  0  0  0  0  0  0
  142.5810  160.1760  132.6390 H   0  0  0  0  0  0  0  0  0  0  0  0
  140.9212  157.0807  133.0135 H   0  0  0  0  0  0  0  0  0  0  0  0
  141.2359  158.5324  134.0368 H   0  0  0  0  0  0  0  0  0  0  0  0
  140.7378  160.0284  132.3116 H   0  0  0  0  0  0  0  0  0  0  0  0
  141.0512  158.7804  131.0277 H   0  0  0  0  0  0  0  0  0  0  0  0
  138.9914  157.6445  131.5272 H   0  0  0  0  0  0  0  0  0  0  0  0
  138.7050  158.7156  132.9623 H   0  0  0  0  0  0  0  0  0  0  0  0
  145.7032  155.9783  133.1399 H   0  0  0  0  0  0  0  0  0  0  0  0
  1  2  1  0
  2  3  2  0
  3  4  1  0
  4  5  2  0
  5  6  1  0
  6  7  2  0
  7  8  1  0
  8  9  1  0
  8 10  2  0
  7 11  1  0
 11 12  1  0
 12 13  2  0
 12 14  1  0
 14 15  1  0
 15 16  1  0
 16 17  1  0
 17 18  1  0
 18 19  2  0
 18 20  1  0
 11 21  1  0
 21 22  2  0
 22  2  1  0
 21  5  1  0
  1 23  1  0
  1 24  1  0
  1 25  1  0
  3 26  1  0
  4 27  1  0
  6 28  1  0
  9 29  1  0
 15 30  1  0
 15 31  1  0
 16 32  1  0
 16 33  1  0
 17 34  1  0
 17 35  1  0
 22 36  1  0
M  CHG  2   9  -1  20  -1
M  END
>  <UniqueID>  (77) 
77

>  <SMILES>  (77) 
Cc1ccc2cc(C([NH-])=O)n(C(=O)OCCCC(=O)[O-])c2c1

>  <Energy>  (77) 
68.86294051997953

>  <Genealogy>  (77) 
Cc1ccc2cc(C([NH-])=O)n(C(=O)OCCCC(=O)[O-])c2c1 (protonated)
Cc1ccc2cc(C([NH-])=O)n(C(=O)OCCCC(=O)[O-])c2c1 (3D coordinates assigned)
Cc1ccc2cc(C([NH-])=O)n(C(=O)OCCCC(=O)[O-])c2c1 (optimized conformer: 68.86294051997953 kcal/mol)

>  <smiles>  (77) 
Cc1ccc2cc(C(N)=O)n(C(=O)OCCCC(=O)O)c2c1

>  <score_type>  (77) 
oracle

>  <origin>  (77) 
adg

>  <m_score__min__energy>  (77) 
-6.4800000000000004

>  <m_primary>  (77) 
energy

$$$$
77:0
     RDKit          3D

 39 40  0  0  0  0  0  0  0  0999 V2000
  139.4520  159.4520  130.6030 C   0  0  0  0  0  0  0  0  0  0  0  0
  140.3500  159.1560  131.6480 O   0  0  0  0  0  0  0  0  0  0  0  0
  139.6880  159.3010  132.8880 C   0  0  0  0  0  0  0  0  0  0  0  0
  139.9540  158.0710  133.7620 C   0  0  0  0  0  0  0  0  0  0  0  0
  141.0530  157.1610  133.1910 C   0  0  0  0  0  0  0  0  0  0  0  0
  142.3070  157.8900  133.0110 N   0  0  0  0  0  0  0  0  0  0  0  0
  143.4420  157.7040  133.8690 C   0  0  0  0  0  0  0  0  0  0  0  0
  143.3770  156.9090  134.8450 O   0  0  0  0  0  0  0  0  0  0  0  0
  144.6550  158.4280  133.6210 N   0  0  0  0  0  0  0  0  0  0  0  0
  144.8060  159.7730  133.4740 C   0  0  0  0  0  0  0  0  0  0  0  0
  143.7430  160.7860  133.6450 C   0  0  0  0  0  0  0  0  0  0  0  0
  142.4040  160.4800  133.2670 N   0  0  0  0  0  0  0  0  0  0  0  0
  144.0100  161.9300  134.1000 O   0  0  0  0  0  0  0  0  0  0  0  0
  146.1370  160.0860  133.1980 C   0  0  0  0  0  0  0  0  0  0  0  0
  146.7990  158.8790  133.1810 C   0  0  0  0  0  0  0  0  0  0  0  0
  148.1380  158.5940  132.9320 C   0  0  0  0  0  0  0  0  0  0  0  0
  148.5390  157.2470  132.9440 C   0  0  0  0  0  0  0  0  0  0  0  0
  147.6050  156.2140  133.2150 C   0  0  0  0  0  0  0  0  0  0  0  0
  148.0340  154.7700  133.1650 C   0  0  0  0  0  0  0  0  0  0  0  0
  147.0240  154.0150  132.6010 F   0  0  0  0  0  0  0  0  0  0  0  0
  149.1820  154.6290  132.4030 F   0  0  0  0  0  0  0  0  0  0  0  0
  148.2980  154.2930  134.4370 F   0  0  0  0  0  0  0  0  0  0  0  0
  146.2480  156.5440  133.4400 C   0  0  0  0  0  0  0  0  0  0  0  0
  145.8830  157.8940  133.4400 C   0  0  0  0  0  0  0  0  0  0  0  0
  138.4880  159.7697  131.0269 H   0  0  0  0  0  0  0  0  0  0  0  0
  139.8647  160.2616  129.9832 H   0  0  0  0  0  0  0  0  0  0  0  0
  139.3024  158.5556  129.9832 H   0  0  0  0  0  0  0  0  0  0  0  0
  140.0617  160.2005  133.3991 H   0  0  0  0  0  0  0  0  0  0  0  0
  138.6061  159.3976  132.7144 H   0  0  0  0  0  0  0  0  0  0  0  0
  140.2629  158.4104  134.7617 H   0  0  0  0  0  0  0  0  0  0  0  0
  139.0244  157.4841  133.7995 H   0  0  0  0  0  0  0  0  0  0  0  0
  141.2216  156.3243  133.8849 H   0  0  0  0  0  0  0  0  0  0  0  0
  140.7223  156.7921  132.2089 H   0  0  0  0  0  0  0  0  0  0  0  0
  142.3750  158.5720  132.2230 H   0  0  0  0  0  0  0  0  0  0  0  0
  142.1840  160.1240  132.3100 H   0  0  0  0  0  0  0  0  0  0  0  0
  146.5663  161.0847  133.0297 H   0  0  0  0  0  0  0  0  0  0  0  0
  148.8609  159.3986  132.7318 H   0  0  0  0  0  0  0  0  0  0  0  0
  149.5893  156.9907  132.7409 H   0  0  0  0  0  0  0  0  0  0  0  0
  145.4980  155.7577  133.6109 H   0  0  0  0  0  0  0  0  0  0  0  0
  1  2  1  0
  2  3  1  0
  3  4  1  0
  4  5  1  0
  5  6  1  0
  6  7  1  0
  7  8  2  0
  7  9  1  0
  9 10  1  0
 10 11  1  0
 11 12  1  0
 11 13  2  0
 10 14  2  0
 14 15  1  0
 15 16  2  0
 16 17  1  0
 17 18  2  0
 18 19  1  0
 19 20  1  0
 19 21  1  0
 19 22  1  0
 18 23  1  0
 23 24  2  0
 24  9  1  0
 24 15  1  0
  1 25  1  0
  1 26  1  0
  1 27  1  0
  3 28  1  0
  3 29  1  0
  4 30  1  0
  4 31  1  0
  5 32  1  0
  5 33  1  0
  6 34  1  0
 12 35  1  0
 14 36  1  0
 16 37  1  0
 17 38  1  0
 23 39  1  0
M  CHG  1  12  -1
M  END
>  <UniqueID>  (78) 
78

>  <SMILES>  (78) 
COCCCNC(=O)n1c(C([NH-])=O)cc2ccc(C(F)(F)F)cc21

>  <Energy>  (78) 
72.85132360144851

>  <Genealogy>  (78) 
COCCCNC(=O)n1c(C([NH-])=O)cc2ccc(C(F)(F)F)cc21 (protonated)
COCCCNC(=O)n1c(C([NH-])=O)cc2ccc(C(F)(F)F)cc21 (3D coordinates assigned)
COCCCNC(=O)n1c(C([NH-])=O)cc2ccc(C(F)(F)F)cc21 (optimized conformer: 72.85132360144851 kcal/mol)

>  <smiles>  (78) 
COCCCNC(=O)n1c(C(N)=O)cc2ccc(C(F)(F)F)cc21

>  <score_type>  (78) 
oracle

>  <origin>  (78) 
adg

>  <m_score__min__energy>  (78) 
-6.0700000000000003

>  <m_primary>  (78) 
energy

$$$$
78:0
     RDKit          3D

 43 44  0  0  0  0  0  0  0  0999 V2000
  139.7580  157.4900  133.7020 C   0  0  0  0  0  0  0  0  0  0  0  0
  140.9460  158.3710  133.2990 C   0  0  0  0  0  0  0  0  0  0  0  0
  140.4430  159.7200  132.7680 C   0  0  0  0  0  0  0  0  0  0  0  0
  141.9060  158.5510  134.4970 C   0  0  0  0  0  0  0  0  0  0  0  0
  143.2520  159.0770  134.0670 C   0  0  0  0  0  0  0  0  0  0  0  0
  143.5100  160.4730  134.0980 C   0  0  0  0  0  0  0  0  0  0  0  0
  144.7770  160.9750  133.7540 C   0  0  0  0  0  0  0  0  0  0  0  0
  145.7630  160.0620  133.3880 C   0  0  0  0  0  0  0  0  0  0  0  0
  147.0860  160.2670  133.0570 C   0  0  0  0  0  0  0  0  0  0  0  0
  147.6110  158.9950  132.8370 C   0  0  0  0  0  0  0  0  0  0  0  0
  149.0150  158.7330  132.4470 C   0  0  0  0  0  0  0  0  0  0  0  0
  149.4610  157.3930  132.2580 N   0  0  0  0  0  0  0  0  0  0  0  0
  149.8270  159.6830  132.2860 O   0  0  0  0  0  0  0  0  0  0  0  0
  146.6490  158.0470  133.0090 N   0  0  0  0  0  0  0  0  0  0  0  0
  146.8070  156.6220  132.9430 C   0  0  0  0  0  0  0  0  0  0  0  0
  146.9860  156.0820  131.8170 O   0  0  0  0  0  0  0  0  0  0  0  0
  146.7670  155.8130  134.1860 C   0  0  0  0  0  0  0  0  0  0  0  0
  145.8890  156.0930  135.0450 O   0  0  0  0  0  0  0  0  0  0  0  0
  147.6750  154.7150  134.4400 N   0  0  0  0  0  0  0  0  0  0  0  0
  147.7440  154.1650  135.7990 C   0  0  0  0  0  0  0  0  0  0  0  0
  148.4610  154.0960  133.3680 C   0  0  0  0  0  0  0  0  0  0  0  0
  145.5260  158.7120  133.3500 C   0  0  0  0  0  0  0  0  0  0  0  0
  144.2790  158.1820  133.6910 C   0  0  0  0  0  0  0  0  0  0  0  0
  139.6928  157.4417  134.7990 H   0  0  0  0  0  0  0  0  0  0  0  0
  138.8293  157.9195  133.2981 H   0  0  0  0  0  0  0  0  0  0  0  0
  139.8993  156.4767  133.2981 H   0  0  0  0  0  0  0  0  0  0  0  0
  141.5083  157.8797  132.4913 H   0  0  0  0  0  0  0  0  0  0  0  0
  140.1974  160.3786  133.6142 H   0  0  0  0  0  0  0  0  0  0  0  0
  141.2270  160.1880  132.1546 H   0  0  0  0  0  0  0  0  0  0  0  0
  139.5439  159.5604  132.1546 H   0  0  0  0  0  0  0  0  0  0  0  0
  141.4578  159.2607  135.2080 H   0  0  0  0  0  0  0  0  0  0  0  0
  142.0585  157.5657  134.9617 H   0  0  0  0  0  0  0  0  0  0  0  0
  142.7106  161.1682  134.3941 H   0  0  0  0  0  0  0  0  0  0  0  0
  144.9834  162.0553  133.7732 H   0  0  0  0  0  0  0  0  0  0  0  0
  147.6141  161.2291  132.9826 H   0  0  0  0  0  0  0  0  0  0  0  0
  149.0120  156.7760  131.5440 H   0  0  0  0  0  0  0  0  0  0  0  0
  147.6417  154.9804  136.5302 H   0  0  0  0  0  0  0  0  0  0  0  0
  146.9298  153.4394  135.9427 H   0  0  0  0  0  0  0  0  0  0  0  0
  148.7122  153.6630  135.9427 H   0  0  0  0  0  0  0  0  0  0  0  0
  149.2532  153.4721  133.8075 H   0  0  0  0  0  0  0  0  0  0  0  0
  147.8040  153.4702  132.7461 H   0  0  0  0  0  0  0  0  0  0  0  0
  148.9154  154.8814  132.7461 H   0  0  0  0  0  0  0  0  0  0  0  0
  144.1013  157.0967  133.6674 H   0  0  0  0  0  0  0  0  0  0  0  0
  1  2  1  0
  2  3  1  0
  2  4  1  0
  4  5  1  0
  5  6  2  0
  6  7  1  0
  7  8  2  0
  8  9  1  0
  9 10  2  0
 10 11  1  0
 11 12  1  0
 11 13  2  0
 10 14  1  0
 14 15  1  0
 15 16  2  0
 15 17  1  0
 17 18  2  0
 17 19  1  0
 19 20  1  0
 19 21  1  0
 14 22  1  0
 22 23  2  0
 23  5  1  0
 22  8  1  0
  1 24  1  0
  1 25  1  0
  1 26  1  0
  2 27  1  0
  3 28  1  0
  3 29  1  0
  3 30  1  0
  4 31  1  0
  4 32  1  0
  6 33  1  0
  7 34  1  0
  9 35  1  0
 12 36  1  0
 20 37  1  0
 20 38  1  0
 20 39  1  0
 21 40  1  0
 21 41  1  0
 21 42  1  0
 23 43  1  0
M  CHG  1  12  -1
M  END
>  <UniqueID>  (79) 
79

>  <SMILES>  (79) 
CC(C)Cc1ccc2cc(C([NH-])=O)n(C(=O)C(=O)N(C)C)c2c1

>  <Energy>  (79) 
76.39705674884372

>  <Genealogy>  (79) 
CC(C)Cc1ccc2cc(C([NH-])=O)n(C(=O)C(=O)N(C)C)c2c1 (protonated)
CC(C)Cc1ccc2cc(C([NH-])=O)n(C(=O)C(=O)N(C)C)c2c1 (3D coordinates assigned)
CC(C)Cc1ccc2cc(C([NH-])=O)n(C(=O)C(=O)N(C)C)c2c1 (optimized conformer: 76.39705674884372 kcal/mol)

>  <smiles>  (79) 
CC(C)Cc1ccc2cc(C(N)=O)n(C(=O)C(=O)N(C)C)c2c1

>  <score_type>  (79) 
oracle

>  <origin>  (79) 
adg

>  <m_score__min__energy>  (79) 
-6.96

>  <m_primary>  (79) 
energy

$$$$
79:0
     RDKit          3D

 53 55  0  0  0  0  0  0  0  0999 V2000
  145.2730  153.8900  134.9850 C   0  0  0  0  0  0  0  0  0  0  0  0
  144.5440  155.2020  134.6640 C   0  0  1  0  0  0  0  0  0  0  0  0
  145.0550  155.7620  133.4550 O   0  0  0  0  0  0  0  0  0  0  0  0
  146.2290  156.5220  133.3860 C   0  0  0  0  0  0  0  0  0  0  0  0
  147.3500  155.9540  133.2850 O   0  0  0  0  0  0  0  0  0  0  0  0
  146.1490  157.9560  133.4480 N   0  0  0  0  0  0  0  0  0  0  0  0
  147.1220  158.8480  133.1110 C   0  0  0  0  0  0  0  0  0  0  0  0
  148.5230  158.5170  132.7870 C   0  0  0  0  0  0  0  0  0  0  0  0
  148.8410  157.4830  131.8540 N   0  0  0  0  0  0  0  0  0  0  0  0
  149.4570  159.1180  133.3840 O   0  0  0  0  0  0  0  0  0  0  0  0
  146.6350  160.1510  133.1580 C   0  0  0  0  0  0  0  0  0  0  0  0
  145.3210  160.0330  133.5470 C   0  0  0  0  0  0  0  0  0  0  0  0
  144.3550  161.0150  133.7400 C   0  0  0  0  0  0  0  0  0  0  0  0
  143.0630  160.6060  134.1060 C   0  0  0  0  0  0  0  0  0  0  0  0
  142.7530  159.2300  134.2560 C   0  0  0  0  0  0  0  0  0  0  0  0
  141.4230  158.8200  134.6300 N   0  0  0  0  0  0  0  0  0  0  0  0
  141.1750  158.2440  135.9580 C   0  0  0  0  0  0  0  0  0  0  0  0
  139.8430  157.4780  135.9830 C   0  0  1  0  0  0  0  0  0  0  0  0
  138.7910  158.3460  136.2270 F   0  0  0  0  0  0  0  0  0  0  0  0
  139.6280  156.7720  134.7110 N   0  0  0  0  0  0  0  0  0  0  0  0
  139.5010  157.6880  133.5560 C   0  0  2  0  0  0  0  0  0  0  0  0
  139.9270  157.0390  132.4070 F   0  0  0  0  0  0  0  0  0  0  0  0
  140.2890  159.0050  133.7180 C   0  0  0  0  0  0  0  0  0  0  0  0
  143.7640  158.2620  134.0560 C   0  0  0  0  0  0  0  0  0  0  0  0
  145.0490  158.6990  133.7120 C   0  0  0  0  0  0  0  0  0  0  0  0
  143.0540  154.9970  134.5040 C   0  0  0  0  0  0  0  0  0  0  0  0
  142.2730  155.4130  135.4050 O   0  0  0  0  0  0  0  0  0  0  0  0
  142.5100  154.2720  133.3770 N   0  0  0  0  0  0  0  0  0  0  0  0
  143.3880  153.7080  132.3450 C   0  0  0  0  0  0  0  0  0  0  0  0
  141.0580  154.0850  133.2860 C   0  0  0  0  0  0  0  0  0  0  0  0
  145.3418  153.7662  136.0758 H   0  0  0  0  0  0  0  0  0  0  0  0
  144.7147  153.0455  134.5546 H   0  0  0  0  0  0  0  0  0  0  0  0
  146.2849  153.9180  134.5546 H   0  0  0  0  0  0  0  0  0  0  0  0
  144.7171  155.8826  135.5107 H   0  0  0  0  0  0  0  0  0  0  0  0
  149.8350  157.2920  131.6000 H   0  0  0  0  0  0  0  0  0  0  0  0
  148.0990  156.8580  131.4710 H   0  0  0  0  0  0  0  0  0  0  0  0
  147.1837  161.0773  132.9323 H   0  0  0  0  0  0  0  0  0  0  0  0
  144.5963  162.0803  133.6097 H   0  0  0  0  0  0  0  0  0  0  0  0
  142.2820  161.3612  134.2785 H   0  0  0  0  0  0  0  0  0  0  0  0
  141.9929  157.5527  136.2092 H   0  0  0  0  0  0  0  0  0  0  0  0
  141.1242  159.0617  136.6920 H   0  0  0  0  0  0  0  0  0  0  0  0
  139.8875  156.7362  136.7941 H   0  0  0  0  0  0  0  0  0  0  0  0
  140.4440  156.1340  134.5510 H   0  0  0  0  0  0  0  0  0  0  0  0
  138.4380  157.9629  133.4890 H   0  0  0  0  0  0  0  0  0  0  0  0
  140.6644  159.3248  132.7348 H   0  0  0  0  0  0  0  0  0  0  0  0
  139.6185  159.7699  134.1368 H   0  0  0  0  0  0  0  0  0  0  0  0
  143.5459  157.1897  134.1681 H   0  0  0  0  0  0  0  0  0  0  0  0
  144.2209  153.1730  132.8246 H   0  0  0  0  0  0  0  0  0  0  0  0
  142.8152  153.0085  131.7185 H   0  0  0  0  0  0  0  0  0  0  0  0
  143.7860  154.5198  131.7185 H   0  0  0  0  0  0  0  0  0  0  0  0
  140.6312  154.0300  134.2983 H   0  0  0  0  0  0  0  0  0  0  0  0
  140.6122  154.9332  132.7457 H   0  0  0  0  0  0  0  0  0  0  0  0
  140.8417  153.1516  132.7457 H   0  0  0  0  0  0  0  0  0  0  0  0
  1  2  1  0
  2  3  1  0
  3  4  1  0
  4  5  2  0
  4  6  1  0
  6  7  1  0
  7  8  1  0
  8  9  1  0
  8 10  2  0
  7 11  2  0
 11 12  1  0
 12 13  2  0
 13 14  1  0
 14 15  2  0
 15 16  1  0
 16 17  1  0
 17 18  1  0
 18 19  1  0
 18 20  1  0
 20 21  1  0
 21 22  1  0
 21 23  1  0
 15 24  1  0
 24 25  2  0
  2 26  1  0
 26 27  2  0
 26 28  1  0
 28 29  1  0
 28 30  1  0
 25  6  1  0
 25 12  1  0
 23 16  1  0
  1 31  1  0
  1 32  1  0
  1 33  1  0
  2 34  1  1
  9 35  1  0
  9 36  1  0
 11 37  1  0
 13 38  1  0
 14 39  1  0
 17 40  1  0
 17 41  1  0
 18 42  1  1
 20 43  1  0
 21 44  1  6
 23 45  1  0
 23 46  1  0
 24 47  1  0
 29 48  1  0
 29 49  1  0
 29 50  1  0
 30 51  1  0
 30 52  1  0
 30 53  1  0
M  END
>  <UniqueID>  (80) 
80

>  <SMILES>  (80) 
C[C@@H](OC(=O)n1c(C(N)=O)cc2ccc(N3CC(F)N[C@H](F)C3)cc21)C(=O)N(C)C

>  <Energy>  (80) 
96.52340573333527

>  <Genealogy>  (80) 
C[C@@H](OC(=O)n1c(C(N)=O)cc2ccc(N3CC(F)N[C@H](F)C3)cc21)C(=O)N(C)C (chirality)
C[C@@H](OC(=O)n1c(C(N)=O)cc2ccc(N3CC(F)N[C@H](F)C3)cc21)C(=O)N(C)C (3D coordinates assigned)
C[C@@H](OC(=O)n1c(C(N)=O)cc2ccc(N3CC(F)N[C@H](F)C3)cc21)C(=O)N(C)C (nonaromatic ring conformer: 96.52340573333527 kcal/mol)

>  <smiles>  (80) 
CC(OC(=O)n1c(C(N)=O)cc2ccc(N3CC(F)NC(F)C3)cc21)C(=O)N(C)C

>  <score_type>  (80) 
oracle

>  <origin>  (80) 
adg

>  <m_score__min__energy>  (80) 
-7.9000000000000004

>  <m_primary>  (80) 
energy

$$$$
80:0
     RDKit          3D

 32 33  0  0  0  0  0  0  0  0999 V2000
  146.2140  153.3630  134.1310 N   0  0  0  0  0  0  0  0  0  0  0  0
  146.7860  154.4080  134.9130 C   0  0  0  0  0  0  0  0  0  0  0  0
  146.9940  154.2190  136.1400 O   0  0  0  0  0  0  0  0  0  0  0  0
  147.1690  155.6820  134.2690 C   0  0  0  0  0  0  0  0  0  0  0  0
  146.6320  156.9160  134.6260 C   0  0  0  0  0  0  0  0  0  0  0  0
  147.1740  157.8200  133.7420 C   0  0  0  0  0  0  0  0  0  0  0  0
  147.0030  159.1970  133.6540 C   0  0  0  0  0  0  0  0  0  0  0  0
  147.7170  159.8900  132.6620 C   0  0  0  0  0  0  0  0  0  0  0  0
  148.5790  159.1970  131.7730 C   0  0  0  0  0  0  0  0  0  0  0  0
  149.3890  159.9590  130.7550 C   0  0  0  0  0  0  0  0  0  0  0  0
  150.7120  159.5530  130.7790 F   0  0  0  0  0  0  0  0  0  0  0  0
  149.3260  161.3090  131.0420 F   0  0  0  0  0  0  0  0  0  0  0  0
  148.8950  159.7450  129.4790 F   0  0  0  0  0  0  0  0  0  0  0  0
  148.7450  157.7990  131.9120 C   0  0  0  0  0  0  0  0  0  0  0  0
  148.0060  157.1340  132.8970 C   0  0  0  0  0  0  0  0  0  0  0  0
  148.0170  155.8180  133.2100 N   0  0  0  0  0  0  0  0  0  0  0  0
  148.8270  154.8010  132.5990 C   0  0  0  0  0  0  0  0  0  0  0  0
  150.0040  155.0680  132.2330 O   0  0  0  0  0  0  0  0  0  0  0  0
  148.3130  153.5110  132.4340 O   0  0  0  0  0  0  0  0  0  0  0  0
  149.1410  152.3780  132.1930 C   0  0  0  0  0  0  0  0  0  0  0  0
  149.3600  151.6100  133.4920 C   0  0  0  0  0  0  0  0  0  0  0  0
  148.8380  152.3250  134.5800 O   0  0  0  0  0  0  0  0  0  0  0  0
  146.8100  152.6070  133.7290 H   0  0  0  0  0  0  0  0  0  0  0  0
  145.9243  157.1240  135.4420 H   0  0  0  0  0  0  0  0  0  0  0  0
  146.3282  159.7285  134.3412 H   0  0  0  0  0  0  0  0  0  0  0  0
  147.6066  160.9809  132.5736 H   0  0  0  0  0  0  0  0  0  0  0  0
  149.4390  157.2473  131.2608 H   0  0  0  0  0  0  0  0  0  0  0  0
  148.6543  151.7202  131.4579 H   0  0  0  0  0  0  0  0  0  0  0  0
  150.1127  152.7157  131.8035 H   0  0  0  0  0  0  0  0  0  0  0  0
  148.8563  150.6344  133.4249 H   0  0  0  0  0  0  0  0  0  0  0  0
  150.4403  151.4697  133.6442 H   0  0  0  0  0  0  0  0  0  0  0  0
  147.9090  152.5760  134.3370 H   0  0  0  0  0  0  0  0  0  0  0  0
  1  2  1  0
  2  3  2  0
  2  4  1  0
  4  5  2  0
  5  6  1  0
  6  7  2  0
  7  8  1  0
  8  9  2  0
  9 10  1  0
 10 11  1  0
 10 12  1  0
 10 13  1  0
  9 14  1  0
 14 15  2  0
 15 16  1  0
 16 17  1  0
 17 18  2  0
 17 19  1  0
 19 20  1  0
 20 21  1  0
 21 22  1  0
 16  4  1  0
 15  6  1  0
  1 23  1  0
  5 24  1  0
  7 25  1  0
  8 26  1  0
 14 27  1  0
 20 28  1  0
 20 29  1  0
 21 30  1  0
 21 31  1  0
 22 32  1  0
M  CHG  1   1  -1
M  END
>  <UniqueID>  (81) 
81

>  <SMILES>  (81) 
[NH-]C(=O)c1cc2ccc(C(F)(F)F)cc2n1C(=O)OCCO

>  <Energy>  (81) 
66.97651590161179

>  <Genealogy>  (81) 
[NH-]C(=O)c1cc2ccc(C(F)(F)F)cc2n1C(=O)OCCO (protonated)
[NH-]C(=O)c1cc2ccc(C(F)(F)F)cc2n1C(=O)OCCO (3D coordinates assigned)
[NH-]C(=O)c1cc2ccc(C(F)(F)F)cc2n1C(=O)OCCO (optimized conformer: 66.97651590161179 kcal/mol)

>  <smiles>  (81) 
NC(=O)c1cc2ccc(C(F)(F)F)cc2n1C(=O)OCCO

>  <score_type>  (81) 
oracle

>  <origin>  (81) 
adg

>  <m_score__min__energy>  (81) 
-5.3200000000000003

>  <m_primary>  (81) 
energy

$$$$
81:0
     RDKit          3D

 68 72  0  0  0  0  0  0  0  0999 V2000
  143.9830  154.0960  139.3230 H   0  0  0  0  0  0  0  0  0  0  0  0
  143.3780  154.3930  140.1200 N   0  0  0  0  0  0  0  0  0  0  0  0
  142.7500  155.6740  140.1320 C   0  0  0  0  0  0  0  0  0  0  0  0
  142.8560  156.4060  141.1500 O   0  0  0  0  0  0  0  0  0  0  0  0
  142.0260  156.1720  138.9440 C   0  0  0  0  0  0  0  0  0  0  0  0
  141.3550  157.3920  138.9170 C   0  0  0  0  0  0  0  0  0  0  0  0
  141.2103  158.0919  139.7532 H   0  0  0  0  0  0  0  0  0  0  0  0
  140.9120  157.5360  137.6240 C   0  0  0  0  0  0  0  0  0  0  0  0
  140.1920  158.5730  137.0360 C   0  0  0  0  0  0  0  0  0  0  0  0
  139.8847  159.4522  137.6214 H   0  0  0  0  0  0  0  0  0  0  0  0
  139.8700  158.4630  135.6740 C   0  0  0  0  0  0  0  0  0  0  0  0
  139.3165  159.2738  135.1778 H   0  0  0  0  0  0  0  0  0  0  0  0
  140.2510  157.3180  134.9330 C   0  0  0  0  0  0  0  0  0  0  0  0
  139.9370  157.2150  133.4600 C   0  0  0  0  0  0  0  0  0  0  0  0
  138.8881  157.5055  133.3004 H   0  0  0  0  0  0  0  0  0  0  0  0
  140.1167  156.1754  133.1487 H   0  0  0  0  0  0  0  0  0  0  0  0
  140.8380  158.1250  132.6080 C   0  0  0  0  0  0  0  0  0  0  0  0
  140.4801  158.0924  131.5684 H   0  0  0  0  0  0  0  0  0  0  0  0
  141.8656  157.7462  132.7112 H   0  0  0  0  0  0  0  0  0  0  0  0
  140.8520  159.5590  133.0600 C   0  0  0  0  0  0  0  0  0  0  0  0
  139.7830  160.2260  132.9900 O   0  0  0  0  0  0  0  0  0  0  0  0
  142.0170  160.1360  133.5860 O   0  0  0  0  0  0  0  0  0  0  0  0
  142.9920  159.4250  134.2950 C   0  0  0  0  0  0  0  0  0  0  0  0
  142.7200  158.8870  135.4020 O   0  0  0  0  0  0  0  0  0  0  0  0
  144.3760  159.3820  133.7810 C   0  0  0  0  0  0  0  0  0  0  0  0
  145.0710  160.5980  133.7200 C   0  0  0  0  0  0  0  0  0  0  0  0
  144.5430  161.5362  133.9458 H   0  0  0  0  0  0  0  0  0  0  0  0
  146.4190  160.6350  133.3780 C   0  0  0  0  0  0  0  0  0  0  0  0
  146.9412  161.6006  133.3082 H   0  0  0  0  0  0  0  0  0  0  0  0
  147.1110  159.4480  133.1230 C   0  0  0  0  0  0  0  0  0  0  0  0
  148.4810  159.4820  132.8280 C   0  0  0  0  0  0  0  0  0  0  0  0
  149.0068  160.4467  132.7739 H   0  0  0  0  0  0  0  0  0  0  0  0
  149.1790  158.2960  132.6030 C   0  0  0  0  0  0  0  0  0  0  0  0
  150.2551  158.3281  132.3773 H   0  0  0  0  0  0  0  0  0  0  0  0
  148.5180  157.0690  132.6630 C   0  0  0  0  0  0  0  0  0  0  0  0
  149.0796  156.1384  132.4937 H   0  0  0  0  0  0  0  0  0  0  0  0
  147.1350  157.0110  132.9390 C   0  0  0  0  0  0  0  0  0  0  0  0
  146.4580  155.7800  133.0310 C   0  0  0  0  0  0  0  0  0  0  0  0
  147.1480  154.7200  133.0260 O   0  0  0  0  0  0  0  0  0  0  0  0
  145.0850  155.7290  133.2040 N   0  0  0  0  0  0  0  0  0  0  0  0
  144.4560  154.5560  133.2720 C   0  0  0  0  0  0  0  0  0  0  0  0
  144.8580  153.3930  132.4350 C   0  0  0  0  0  0  0  0  0  0  0  0
  144.7170  153.4250  131.1840 O   0  0  0  0  0  0  0  0  0  0  0  0
  145.4410  152.2680  133.0150 O   0  0  0  0  0  0  0  0  0  0  0  0
  143.2200  154.3600  134.1310 C   0  0  0  0  0  0  0  0  0  0  0  0
  143.5011  154.4046  135.1935 H   0  0  0  0  0  0  0  0  0  0  0  0
  142.4909  155.1538  133.9110 H   0  0  0  0  0  0  0  0  0  0  0  0
  142.7723  153.3796  133.9110 H   0  0  0  0  0  0  0  0  0  0  0  0
  144.3810  156.9160  133.3370 C   0  0  0  0  0  0  0  0  0  0  0  0
  143.1210  156.9130  133.2440 O   0  0  0  0  0  0  0  0  0  0  0  0
  145.0470  158.1630  133.4550 C   0  0  0  0  0  0  0  0  0  0  0  0
  146.4290  158.2060  133.1710 C   0  0  0  0  0  0  0  0  0  0  0  0
  140.9680  156.2810  135.5680 C   0  0  0  0  0  0  0  0  0  0  0  0
  141.2567  155.3763  135.0128 H   0  0  0  0  0  0  0  0  0  0  0  0
  141.3040  156.4280  136.9190 C   0  0  0  0  0  0  0  0  0  0  0  0
  141.9830  155.5720  137.7200 N   0  0  0  0  0  0  0  0  0  0  0  0
  142.4290  154.2490  137.3700 C   0  0  0  0  0  0  0  0  0  0  0  0
  143.6570  154.0280  137.1830 O   0  0  0  0  0  0  0  0  0  0  0  0
  141.5030  153.2040  137.2690 O   0  0  0  0  0  0  0  0  0  0  0  0
  141.2990  152.2190  138.2830 C   0  0  2  0  0  0  0  0  0  0  0  0
  142.2727  151.8229  138.6072 H   0  0  0  0  0  0  0  0  0  0  0  0
  140.4600  151.1090  137.7270 C   0  0  0  0  0  0  0  0  0  0  0  0
  139.5750  150.5700  138.4390 O   0  0  0  0  0  0  0  0  0  0  0  0
  140.6110  150.7110  136.4030 O   0  0  0  0  0  0  0  0  0  0  0  0
  140.5960  152.8430  139.4910 C   0  0  0  0  0  0  0  0  0  0  0  0
  141.0397  152.4491  140.4173 H   0  0  0  0  0  0  0  0  0  0  0  0
  140.7177  153.9359  139.4619 H   0  0  0  0  0  0  0  0  0  0  0  0
  139.5253  152.5925  139.4619 H   0  0  0  0  0  0  0  0  0  0  0  0
  1  2  1  0
  2  3  1  0
  3  4  2  0
  3  5  1  0
  5  6  2  0
  6  7  1  0
  6  8  1  0
  8  9  2  0
  9 10  1  0
  9 11  1  0
 11 12  1  0
 11 13  2  0
 13 14  1  0
 14 15  1  0
 14 16  1  0
 14 17  1  0
 17 18  1  0
 17 19  1  0
 17 20  1  0
 20 21  2  0
 20 22  1  0
 22 23  1  0
 23 24  2  0
 23 25  1  0
 25 26  2  0
 26 27  1  0
 26 28  1  0
 28 29  1  0
 28 30  2  0
 30 31  1  0
 31 32  1  0
 31 33  2  0
 33 34  1  0
 33 35  1  0
 35 36  1  0
 35 37  2  0
 37 38  1  0
 38 39  2  0
 38 40  1  0
 40 41  2  0
 41 42  1  0
 42 43  2  0
 42 44  1  0
 41 45  1  0
 45 46  1  0
 45 47  1  0
 45 48  1  0
 40 49  1  0
 49 50  2  0
 49 51  1  0
 51 52  2  0
 13 53  1  0
 53 54  1  0
 53 55  2  0
 55 56  1  0
 56 57  1  0
 57 58  2  0
 57 59  1  0
 59 60  1  0
 60 61  1  1
 60 62  1  0
 62 63  2  0
 62 64  1  0
 60 65  1  0
 65 66  1  0
 65 67  1  0
 65 68  1  0
 56  5  1  0
 55  8  1  0
 51 25  1  0
 52 30  1  0
 52 37  1  0
M  CHG  4   2  -1  40   1  44  -1  64  -1
M  END
>  <UniqueID>  (82) 
82

>  <SMILES>  (82) 
C/C(C(=O)[O-])=[n+]1/c(=O)c2cccc3ccc(C(=O)OC(=O)CCc4ccc5cc(C([NH-])=O)n(C(=O)O[C@@H](C)C(=O)[O-])c5c4)c(c1=O)c32

>  <Energy>  (82) 
158.5885503028144

>  <Genealogy>  (82) 
CC(C(=O)[O-])=[n+]1c(=O)c2cccc3ccc(C(=O)OC(=O)CCc4ccc5cc(C([NH-])=O)n(C(=O)OC(C)C(=O)[O-])c5c4)c(c1=O)c32 (protonated)
CC(C(=O)[O-])=[n+]1c(=O)c2cccc3ccc(C(=O)OC(=O)CCc4ccc5cc(C([NH-])=O)n(C(=O)O[C@@H](C)C(=O)[O-])c5c4)c(c1=O)c32 (chirality)
C/C(C(=O)[O-])=[n+]1/c(=O)c2cccc3ccc(C(=O)OC(=O)CCc4ccc5cc(C([NH-])=O)n(C(=O)O[C@@H](C)C(=O)[O-])c5c4)c(c1=O)c32 (cis-trans isomerization)
C/C(C(=O)[O-])=[n+]1/c(=O)c2cccc3ccc(C(=O)OC(=O)CCc4ccc5cc(C([NH-])=O)n(C(=O)O[C@@H](C)C(=O)[O-])c5c4)c(c1=O)c32 (3D coordinates assigned)
C/C(C(=O)[O-])=[n+]1/c(=O)c2cccc3ccc(C(=O)OC(=O)CCc4ccc5cc(C([NH-])=O)n(C(=O)O[C@@H](C)C(=O)[O-])c5c4)c(c1=O)c32 (optimized conformer: 158.5885503028144 kcal/mol)

>  <smiles>  (82) 
CC(C(=O)O)=[n+]1c(=O)c2cccc3ccc(C(=O)OC(=O)CCc4ccc5cc(C(N)=O)n(C(=O)OC(C)C(=O)O)c5c4)c(c1=O)c32

>  <score_type>  (82) 
oracle

>  <origin>  (82) 
adg

>  <m_score__min__energy>  (82) 
-11.4

>  <m_primary>  (82) 
energy

$$$$
82:0
     RDKit          3D

 30 31  0  0  0  0  0  0  0  0999 V2000
  149.2910  162.0030  130.3500 C   0  0  0  0  0  0  0  0  0  0  0  0
  149.1040  160.7150  131.0940 C   0  0  0  0  0  0  0  0  0  0  0  0
  150.1190  159.7270  131.0690 C   0  0  0  0  0  0  0  0  0  0  0  0
  149.9460  158.5070  131.7420 C   0  0  0  0  0  0  0  0  0  0  0  0
  148.7430  158.2940  132.4100 C   0  0  0  0  0  0  0  0  0  0  0  0
  148.3220  157.2160  133.1530 C   0  0  0  0  0  0  0  0  0  0  0  0
  147.0380  157.5460  133.5870 C   0  0  0  0  0  0  0  0  0  0  0  0
  146.1760  156.6190  134.3520 C   0  0  0  0  0  0  0  0  0  0  0  0
  144.8400  156.3510  133.9390 N   0  0  0  0  0  0  0  0  0  0  0  0
  146.6440  156.0190  135.3560 O   0  0  0  0  0  0  0  0  0  0  0  0
  146.6850  158.7830  133.1360 N   0  0  0  0  0  0  0  0  0  0  0  0
  145.4850  159.5160  133.4250 C   0  0  0  0  0  0  0  0  0  0  0  0
  145.5430  160.5760  134.1090 O   0  0  0  0  0  0  0  0  0  0  0  0
  144.2580  159.0650  132.9250 O   0  0  0  0  0  0  0  0  0  0  0  0
  143.1010  158.8840  133.7370 C   0  0  0  0  0  0  0  0  0  0  0  0
  142.3380  160.1660  133.8450 C   0  0  0  0  0  0  0  0  0  0  0  0
  142.9290  161.2700  133.7080 O   0  0  0  0  0  0  0  0  0  0  0  0
  140.9790  160.1440  134.1270 O   0  0  0  0  0  0  0  0  0  0  0  0
  147.7370  159.2270  132.4150 C   0  0  0  0  0  0  0  0  0  0  0  0
  147.8900  160.4590  131.7680 C   0  0  0  0  0  0  0  0  0  0  0  0
  149.4107  162.8274  131.0684 H   0  0  0  0  0  0  0  0  0  0  0  0
  150.1886  161.9343  129.7179 H   0  0  0  0  0  0  0  0  0  0  0  0
  148.4109  162.1924  129.7179 H   0  0  0  0  0  0  0  0  0  0  0  0
  151.0513  159.9175  130.5172 H   0  0  0  0  0  0  0  0  0  0  0  0
  150.7369  157.7425  131.7416 H   0  0  0  0  0  0  0  0  0  0  0  0
  148.8792  156.2906  133.3608 H   0  0  0  0  0  0  0  0  0  0  0  0
  144.3820  156.9240  133.1940 H   0  0  0  0  0  0  0  0  0  0  0  0
  142.4570  158.1152  133.2851 H   0  0  0  0  0  0  0  0  0  0  0  0
  143.4151  158.5682  134.7428 H   0  0  0  0  0  0  0  0  0  0  0  0
  147.0850  161.2085  131.7843 H   0  0  0  0  0  0  0  0  0  0  0  0
  1  2  1  0
  2  3  2  0
  3  4  1  0
  4  5  2  0
  5  6  1  0
  6  7  2  0
  7  8  1  0
  8  9  1  0
  8 10  2  0
  7 11  1  0
 11 12  1  0
 12 13  2  0
 12 14  1  0
 14 15  1  0
 15 16  1  0
 16 17  2  0
 16 18  1  0
 11 19  1  0
 19 20  2  0
 20  2  1  0
 19  5  1  0
  1 21  1  0
  1 22  1  0
  1 23  1  0
  3 24  1  0
  4 25  1  0
  6 26  1  0
  9 27  1  0
 15 28  1  0
 15 29  1  0
 20 30  1  0
M  CHG  2   9  -1  18  -1
M  END
>  <UniqueID>  (83) 
83

>  <SMILES>  (83) 
Cc1ccc2cc(C([NH-])=O)n(C(=O)OCC(=O)[O-])c2c1

>  <Energy>  (83) 
66.68576696341931

>  <Genealogy>  (83) 
Cc1ccc2cc(C([NH-])=O)n(C(=O)OCC(=O)[O-])c2c1 (protonated)
Cc1ccc2cc(C([NH-])=O)n(C(=O)OCC(=O)[O-])c2c1 (3D coordinates assigned)
Cc1ccc2cc(C([NH-])=O)n(C(=O)OCC(=O)[O-])c2c1 (optimized conformer: 66.68576696341931 kcal/mol)

>  <smiles>  (83) 
Cc1ccc2cc(C(N)=O)n(C(=O)OCC(=O)O)c2c1

>  <score_type>  (83) 
oracle

>  <origin>  (83) 
adg

>  <m_score__min__energy>  (83) 
-6.0899999999999999

>  <m_primary>  (83) 
energy

$$$$
83:0
     RDKit          3D

 45 47  0  0  0  0  0  0  0  0999 V2000
  141.8580  156.5340  136.3700 C   0  0  0  0  0  0  0  0  0  0  0  0
  141.1930  156.2320  135.0030 C   0  0  2  0  0  0  0  0  0  0  0  0
  142.0060  155.1270  134.2640 C   0  0  0  0  0  0  0  0  0  0  0  0
  143.4200  155.5470  133.9370 C   0  0  0  0  0  0  0  0  0  0  0  0
  144.3930  154.5750  133.5910 C   0  0  0  0  0  0  0  0  0  0  0  0
  145.7020  154.9620  133.2540 C   0  0  0  0  0  0  0  0  0  0  0  0
  146.0050  156.3200  133.2690 C   0  0  0  0  0  0  0  0  0  0  0  0
  147.1810  156.9720  132.9720 C   0  0  0  0  0  0  0  0  0  0  0  0
  146.9090  158.3270  133.1490 C   0  0  0  0  0  0  0  0  0  0  0  0
  147.9220  159.3930  133.0150 C   0  0  0  0  0  0  0  0  0  0  0  0
  147.7170  160.4550  132.0860 N   0  0  0  0  0  0  0  0  0  0  0  0
  148.9810  159.3640  133.6960 O   0  0  0  0  0  0  0  0  0  0  0  0
  145.6120  158.5050  133.5300 N   0  0  0  0  0  0  0  0  0  0  0  0
  144.9200  159.7390  133.7740 C   0  0  0  0  0  0  0  0  0  0  0  0
  145.5740  160.8120  133.8630 O   0  0  0  0  0  0  0  0  0  0  0  0
  143.4630  159.7610  133.9720 C   0  0  0  0  0  0  0  0  0  0  0  0
  142.6860  159.7470  132.9810 O   0  0  0  0  0  0  0  0  0  0  0  0
  142.9360  159.7800  135.2570 O   0  0  0  0  0  0  0  0  0  0  0  0
  145.0760  157.2690  133.6070 C   0  0  0  0  0  0  0  0  0  0  0  0
  143.7650  156.9170  133.9400 C   0  0  0  0  0  0  0  0  0  0  0  0
  141.0530  157.5070  134.2170 N   0  0  0  0  0  0  0  0  0  0  0  0
  139.8770  158.2800  134.6690 C   0  0  0  0  0  0  0  0  0  0  0  0
  138.6990  157.9070  133.7680 C   0  0  0  0  0  0  0  0  0  0  0  0
  139.3080  157.1500  132.6030 C   0  0  0  0  0  0  0  0  0  0  0  0
  140.8000  157.3490  132.7710 C   0  0  0  0  0  0  0  0  0  0  0  0
  141.1825  156.2272  137.1821 H   0  0  0  0  0  0  0  0  0  0  0  0
  142.8031  155.9768  136.4490 H   0  0  0  0  0  0  0  0  0  0  0  0
  142.0604  157.6123  136.4490 H   0  0  0  0  0  0  0  0  0  0  0  0
  140.1755  155.8367  135.1391 H   0  0  0  0  0  0  0  0  0  0  0  0
  142.0459  154.2343  134.9055 H   0  0  0  0  0  0  0  0  0  0  0  0
  141.4952  154.9279  133.3103 H   0  0  0  0  0  0  0  0  0  0  0  0
  144.1213  153.5091  133.5863 H   0  0  0  0  0  0  0  0  0  0  0  0
  146.4632  154.2142  132.9867 H   0  0  0  0  0  0  0  0  0  0  0  0
  148.1338  156.5188  132.6608 H   0  0  0  0  0  0  0  0  0  0  0  0
  146.9600  161.1580  132.2330 H   0  0  0  0  0  0  0  0  0  0  0  0
  143.0218  157.6860  134.1975 H   0  0  0  0  0  0  0  0  0  0  0  0
  141.9200  158.0830  134.3360 H   0  0  0  0  0  0  0  0  0  0  0  0
  139.6431  158.0289  135.7141 H   0  0  0  0  0  0  0  0  0  0  0  0
  140.0802  159.3594  134.6092 H   0  0  0  0  0  0  0  0  0  0  0  0
  137.9859  157.2693  134.3109 H   0  0  0  0  0  0  0  0  0  0  0  0
  138.1424  158.7948  133.4333 H   0  0  0  0  0  0  0  0  0  0  0  0
  139.0486  156.0822  132.6531 H   0  0  0  0  0  0  0  0  0  0  0  0
  138.9417  157.5083  131.6296 H   0  0  0  0  0  0  0  0  0  0  0  0
  141.3438  156.4740  132.3855 H   0  0  0  0  0  0  0  0  0  0  0  0
  141.1441  158.2323  132.2129 H   0  0  0  0  0  0  0  0  0  0  0  0
  1  2  1  0
  2  3  1  0
  3  4  1  0
  4  5  2  0
  5  6  1  0
  6  7  2  0
  7  8  1  0
  8  9  2  0
  9 10  1  0
 10 11  1  0
 10 12  2  0
  9 13  1  0
 13 14  1  0
 14 15  2  0
 14 16  1  0
 16 17  2  0
 16 18  1  0
 13 19  1  0
 19 20  2  0
  2 21  1  0
 21 22  1  0
 22 23  1  0
 23 24  1  0
 24 25  1  0
 20  4  1  0
 25 21  1  0
 19  7  1  0
  1 26  1  0
  1 27  1  0
  1 28  1  0
  2 29  1  1
  3 30  1  0
  3 31  1  0
  5 32  1  0
  6 33  1  0
  8 34  1  0
 11 35  1  0
 20 36  1  0
 21 37  1  0
 22 38  1  0
 22 39  1  0
 23 40  1  0
 23 41  1  0
 24 42  1  0
 24 43  1  0
 25 44  1  0
 25 45  1  0
M  CHG  3  11  -1  18  -1  21   1
M  END
>  <UniqueID>  (84) 
84

>  <SMILES>  (84) 
C[C@H](Cc1ccc2cc(C([NH-])=O)n(C(=O)C(=O)[O-])c2c1)[NH+]1CCCC1

>  <Energy>  (84) 
95.31224950140204

>  <Genealogy>  (84) 
CC(Cc1ccc2cc(C([NH-])=O)n(C(=O)C(=O)[O-])c2c1)[NH+]1CCCC1 (protonated)
C[C@H](Cc1ccc2cc(C([NH-])=O)n(C(=O)C(=O)[O-])c2c1)[NH+]1CCCC1 (chirality)
C[C@H](Cc1ccc2cc(C([NH-])=O)n(C(=O)C(=O)[O-])c2c1)[NH+]1CCCC1 (3D coordinates assigned)
C[C@H](Cc1ccc2cc(C([NH-])=O)n(C(=O)C(=O)[O-])c2c1)[NH+]1CCCC1 (nonaromatic ring conformer: 95.31224950140204 kcal/mol)

>  <smiles>  (84) 
CC(Cc1ccc2cc(C(N)=O)n(C(=O)C(=O)O)c2c1)N1CCCC1

>  <score_type>  (84) 
oracle

>  <origin>  (84) 
adg

>  <m_score__min__energy>  (84) 
-6.46

>  <m_primary>  (84) 
energy

$$$$
84:0
     RDKit          3D

 31 33  0  0  0  0  0  0  0  0999 V2000
  149.6000  161.2990  130.2430 C   0  0  0  0  0  0  0  0  0  0  0  0
  149.0350  160.2490  131.0780 N   0  0  0  0  0  0  0  0  0  0  0  0
  147.7420  160.1340  131.4290 C   0  0  0  0  0  0  0  0  0  0  0  0
  147.6230  159.0550  132.2890 C   0  0  0  0  0  0  0  0  0  0  0  0
  146.3890  158.5430  132.9360 C   0  0  0  0  0  0  0  0  0  0  0  0
  146.3000  157.1860  133.3460 C   0  0  0  0  0  0  0  0  0  0  0  0
  145.1330  156.6890  133.9490 C   0  0  0  0  0  0  0  0  0  0  0  0
  144.0720  157.5660  134.1400 C   0  0  0  0  0  0  0  0  0  0  0  0
  142.8240  157.3410  134.6730 C   0  0  0  0  0  0  0  0  0  0  0  0
  142.1680  158.5680  134.6060 C   0  0  0  0  0  0  0  0  0  0  0  0
  140.8160  158.7970  135.1580 C   0  0  0  0  0  0  0  0  0  0  0  0
  140.6390  159.3760  136.4490 N   0  0  0  0  0  0  0  0  0  0  0  0
  139.8050  158.4300  134.5030 O   0  0  0  0  0  0  0  0  0  0  0  0
  142.9760  159.5130  134.0460 N   0  0  0  0  0  0  0  0  0  0  0  0
  142.6400  160.8720  133.7180 C   0  0  0  0  0  0  0  0  0  0  0  0
  141.4510  161.1840  133.4440 O   0  0  0  0  0  0  0  0  0  0  0  0
  143.6180  161.8570  133.7290 O   0  0  0  0  0  0  0  0  0  0  0  0
  144.1400  158.8830  133.7700 C   0  0  0  0  0  0  0  0  0  0  0  0
  145.2830  159.4020  133.1490 C   0  0  0  0  0  0  0  0  0  0  0  0
  148.9160  158.5680  132.4200 C   0  0  0  0  0  0  0  0  0  0  0  0
  149.7560  159.3170  131.6790 N   0  0  0  0  0  0  0  0  0  0  0  0
  150.0242  162.0874  130.8822 H   0  0  0  0  0  0  0  0  0  0  0  0
  150.3923  160.8760  129.6079 H   0  0  0  0  0  0  0  0  0  0  0  0
  148.8105  161.7271  129.6079 H   0  0  0  0  0  0  0  0  0  0  0  0
  146.9213  160.7841  131.0916 H   0  0  0  0  0  0  0  0  0  0  0  0
  147.1572  156.5148  133.1890 H   0  0  0  0  0  0  0  0  0  0  0  0
  145.0609  155.6366  134.2609 H   0  0  0  0  0  0  0  0  0  0  0  0
  142.4283  156.3937  135.0681 H   0  0  0  0  0  0  0  0  0  0  0  0
  139.7140  159.3410  136.9300 H   0  0  0  0  0  0  0  0  0  0  0  0
  145.3211  160.4550  132.8332 H   0  0  0  0  0  0  0  0  0  0  0  0
  149.2098  157.7039  133.0340 H   0  0  0  0  0  0  0  0  0  0  0  0
  1  2  1  0
  2  3  1  0
  3  4  2  0
  4  5  1  0
  5  6  2  0
  6  7  1  0
  7  8  2  0
  8  9  1  0
  9 10  2  0
 10 11  1  0
 11 12  1  0
 11 13  2  0
 10 14  1  0
 14 15  1  0
 15 16  2  0
 15 17  1  0
 14 18  1  0
 18 19  2  0
  4 20  1  0
 20 21  2  0
 21  2  1  0
 19  5  1  0
 18  8  1  0
  1 22  1  0
  1 23  1  0
  1 24  1  0
  3 25  1  0
  6 26  1  0
  7 27  1  0
  9 28  1  0
 12 29  1  0
 19 30  1  0
 20 31  1  0
M  CHG  2  12  -1  17  -1
M  END
>  <UniqueID>  (85) 
85

>  <SMILES>  (85) 
Cn1cc(-c2ccc3cc(C([NH-])=O)n(C(=O)[O-])c3c2)cn1

>  <Energy>  (85) 
104.5053431333405

>  <Genealogy>  (85) 
Cn1cc(-c2ccc3cc(C([NH-])=O)n(C(=O)[O-])c3c2)cn1 (protonated)
Cn1cc(-c2ccc3cc(C([NH-])=O)n(C(=O)[O-])c3c2)cn1 (3D coordinates assigned)
Cn1cc(-c2ccc3cc(C([NH-])=O)n(C(=O)[O-])c3c2)cn1 (optimized conformer: 104.5053431333405 kcal/mol)

>  <smiles>  (85) 
Cn1cc(-c2ccc3cc(C(N)=O)n(C(=O)O)c3c2)cn1

>  <score_type>  (85) 
oracle

>  <origin>  (85) 
adg

>  <m_score__min__energy>  (85) 
-7.0999999999999996

>  <m_primary>  (85) 
energy

$$$$
85:0
     RDKit          3D

 43 45  0  0  0  0  0  0  0  0999 V2000
  137.3170  160.4700  129.9920 C   0  0  0  0  0  0  0  0  0  0  0  0
  138.1170  159.8650  131.0990 C   0  0  0  0  0  0  0  0  0  0  0  0
  138.5880  160.6080  132.0020 O   0  0  0  0  0  0  0  0  0  0  0  0
  138.3890  158.4560  131.1030 N   0  0  0  0  0  0  0  0  0  0  0  0
  139.1730  157.8220  132.1700 C   0  0  2  0  0  0  0  0  0  0  0  0
  138.4420  157.8750  133.5150 C   0  0  0  0  0  0  0  0  0  0  0  0
  139.5330  158.0270  134.5670 C   0  0  0  0  0  0  0  0  0  0  0  0
  140.7090  158.4830  133.8470 N   0  0  0  0  0  0  0  0  0  0  0  0
  141.8980  158.9540  134.5000 C   0  0  0  0  0  0  0  0  0  0  0  0
  141.8090  159.7160  135.5010 O   0  0  0  0  0  0  0  0  0  0  0  0
  143.1920  158.5610  134.0270 N   0  0  0  0  0  0  0  0  0  0  0  0
  144.2770  159.3530  133.8070 C   0  0  0  0  0  0  0  0  0  0  0  0
  144.3120  160.8250  133.9360 C   0  0  0  0  0  0  0  0  0  0  0  0
  143.1400  161.6090  133.7270 N   0  0  0  0  0  0  0  0  0  0  0  0
  145.3960  161.4020  134.2170 O   0  0  0  0  0  0  0  0  0  0  0  0
  145.3650  158.5810  133.4000 C   0  0  0  0  0  0  0  0  0  0  0  0
  144.9050  157.2820  133.3820 C   0  0  0  0  0  0  0  0  0  0  0  0
  145.5600  156.1000  133.0490 C   0  0  0  0  0  0  0  0  0  0  0  0
  144.8330  154.8990  133.1300 C   0  0  0  0  0  0  0  0  0  0  0  0
  143.4800  154.8960  133.5610 C   0  0  0  0  0  0  0  0  0  0  0  0
  142.6960  153.6100  133.5980 C   0  0  0  0  0  0  0  0  0  0  0  0
  142.4050  153.2930  134.9110 F   0  0  0  0  0  0  0  0  0  0  0  0
  143.4250  152.5780  133.0340 F   0  0  0  0  0  0  0  0  0  0  0  0
  141.5110  153.7380  132.8920 F   0  0  0  0  0  0  0  0  0  0  0  0
  142.8460  156.1220  133.8710 C   0  0  0  0  0  0  0  0  0  0  0  0
  143.5920  157.2990  133.7700 C   0  0  0  0  0  0  0  0  0  0  0  0
  140.5090  158.5290  132.4100 C   0  0  0  0  0  0  0  0  0  0  0  0
  136.5076  161.0821  130.4166 H   0  0  0  0  0  0  0  0  0  0  0  0
  137.9689  161.1031  129.3721 H   0  0  0  0  0  0  0  0  0  0  0  0
  136.8854  159.6704  129.3721 H   0  0  0  0  0  0  0  0  0  0  0  0
  137.9650  157.8710  130.3480 H   0  0  0  0  0  0  0  0  0  0  0  0
  139.3271  156.7883  131.8270 H   0  0  0  0  0  0  0  0  0  0  0  0
  137.7561  158.7344  133.5459 H   0  0  0  0  0  0  0  0  0  0  0  0
  137.8350  156.9735  133.6847 H   0  0  0  0  0  0  0  0  0  0  0  0
  139.2356  158.7671  135.3245 H   0  0  0  0  0  0  0  0  0  0  0  0
  139.7215  157.0819  135.0974 H   0  0  0  0  0  0  0  0  0  0  0  0
  142.2180  161.3100  134.1140 H   0  0  0  0  0  0  0  0  0  0  0  0
  146.3757  158.9340  133.1471 H   0  0  0  0  0  0  0  0  0  0  0  0
  146.6134  156.1051  132.7323 H   0  0  0  0  0  0  0  0  0  0  0  0
  145.3182  153.9505  132.8562 H   0  0  0  0  0  0  0  0  0  0  0  0
  141.7917  156.1480  134.1838 H   0  0  0  0  0  0  0  0  0  0  0  0
  140.4629  159.5707  132.0598 H   0  0  0  0  0  0  0  0  0  0  0  0
  141.3337  158.0478  131.8637 H   0  0  0  0  0  0  0  0  0  0  0  0
  1  2  1  0
  2  3  2  0
  2  4  1  0
  4  5  1  0
  5  6  1  0
  6  7  1  0
  7  8  1  0
  8  9  1  0
  9 10  2  0
  9 11  1  0
 11 12  1  0
 12 13  1  0
 13 14  1  0
 13 15  2  0
 12 16  2  0
 16 17  1  0
 17 18  2  0
 18 19  1  0
 19 20  2  0
 20 21  1  0
 21 22  1  0
 21 23  1  0
 21 24  1  0
 20 25  1  0
 25 26  2  0
  8 27  1  0
 27  5  1  0
 26 11  1  0
 26 17  1  0
  1 28  1  0
  1 29  1  0
  1 30  1  0
  4 31  1  0
  5 32  1  6
  6 33  1  0
  6 34  1  0
  7 35  1  0
  7 36  1  0
 14 37  1  0
 16 38  1  0
 18 39  1  0
 19 40  1  0
 25 41  1  0
 27 42  1  0
 27 43  1  0
M  CHG  1  14  -1
M  END
>  <UniqueID>  (86) 
86

>  <SMILES>  (86) 
CC(=O)N[C@@H]1CCN(C(=O)n2c(C([NH-])=O)cc3ccc(C(F)(F)F)cc32)C1

>  <Energy>  (86) 
80.72943307026327

>  <Genealogy>  (86) 
CC(=O)N[C@@H]1CCN(C(=O)n2c(C([NH-])=O)cc3ccc(C(F)(F)F)cc32)C1 (protonated)
CC(=O)N[C@@H]1CCN(C(=O)n2c(C([NH-])=O)cc3ccc(C(F)(F)F)cc32)C1 (3D coordinates assigned)
CC(=O)N[C@@H]1CCN(C(=O)n2c(C([NH-])=O)cc3ccc(C(F)(F)F)cc32)C1 (nonaromatic ring conformer: 80.72943307026327 kcal/mol)

>  <smiles>  (86) 
CC(=O)N[C@@H]1CCN(C(=O)n2c(C(N)=O)cc3ccc(C(F)(F)F)cc32)C1

>  <score_type>  (86) 
oracle

>  <origin>  (86) 
adg

>  <m_score__min__energy>  (86) 
-7.6900000000000004

>  <m_primary>  (86) 
energy

$$$$
86:0
     RDKit          3D

 39 40  0  0  0  0  0  0  0  0999 V2000
  143.3990  160.1160  134.4330 C   0  0  0  0  0  0  0  0  0  0  0  0
  142.6990  160.2040  133.1980 O   0  0  0  0  0  0  0  0  0  0  0  0
  141.3070  160.1140  133.1140 C   0  0  0  0  0  0  0  0  0  0  0  0
  140.6060  161.1560  132.9920 O   0  0  0  0  0  0  0  0  0  0  0  0
  140.6850  158.8270  133.1670 N   0  0  0  0  0  0  0  0  0  0  0  0
  139.2320  158.6750  133.0890 C   0  0  0  0  0  0  0  0  0  0  0  0
  138.8030  157.2620  133.4780 C   0  0  0  0  0  0  0  0  0  0  0  0
  139.9510  156.4740  133.7740 O   0  0  0  0  0  0  0  0  0  0  0  0
  140.1110  155.1660  133.3110 C   0  0  0  0  0  0  0  0  0  0  0  0
  139.1140  154.5040  132.9150 O   0  0  0  0  0  0  0  0  0  0  0  0
  141.4170  154.5670  133.3110 N   0  0  0  0  0  0  0  0  0  0  0  0
  142.6270  155.1910  133.3920 C   0  0  0  0  0  0  0  0  0  0  0  0
  142.8500  156.6270  133.6600 C   0  0  0  0  0  0  0  0  0  0  0  0
  143.3100  157.5030  132.6330 N   0  0  0  0  0  0  0  0  0  0  0  0
  142.5830  157.0980  134.7970 O   0  0  0  0  0  0  0  0  0  0  0  0
  143.6620  154.2660  133.2730 C   0  0  0  0  0  0  0  0  0  0  0  0
  143.0460  153.0450  133.1280 C   0  0  0  0  0  0  0  0  0  0  0  0
  143.5970  151.7790  132.9540 C   0  0  0  0  0  0  0  0  0  0  0  0
  142.7200  150.6940  132.7960 C   0  0  0  0  0  0  0  0  0  0  0  0
  141.3150  150.8870  132.8230 C   0  0  0  0  0  0  0  0  0  0  0  0
  140.3850  149.7230  132.5890 C   0  0  0  0  0  0  0  0  0  0  0  0
  140.8800  148.8920  131.5980 F   0  0  0  0  0  0  0  0  0  0  0  0
  140.2560  149.0010  133.7610 F   0  0  0  0  0  0  0  0  0  0  0  0
  139.1360  150.1700  132.1950 F   0  0  0  0  0  0  0  0  0  0  0  0
  140.7940  152.1920  132.9790 C   0  0  0  0  0  0  0  0  0  0  0  0
  141.6910  153.2530  133.1540 C   0  0  0  0  0  0  0  0  0  0  0  0
  142.6860  160.2056  135.2658 H   0  0  0  0  0  0  0  0  0  0  0  0
  143.9142  159.1460  134.4942 H   0  0  0  0  0  0  0  0  0  0  0  0
  144.1382  160.9283  134.4942 H   0  0  0  0  0  0  0  0  0  0  0  0
  141.2990  157.9870  133.2650 H   0  0  0  0  0  0  0  0  0  0  0  0
  138.7587  159.3948  133.7730 H   0  0  0  0  0  0  0  0  0  0  0  0
  138.9174  158.8614  132.0516 H   0  0  0  0  0  0  0  0  0  0  0  0
  138.1535  157.3086  134.3646 H   0  0  0  0  0  0  0  0  0  0  0  0
  138.2549  156.8053  132.6407 H   0  0  0  0  0  0  0  0  0  0  0  0
  142.7050  158.2740  132.2740 H   0  0  0  0  0  0  0  0  0  0  0  0
  144.7429  154.4692  133.2912 H   0  0  0  0  0  0  0  0  0  0  0  0
  144.6871  151.6327  132.9406 H   0  0  0  0  0  0  0  0  0  0  0  0
  143.1272  149.6827  132.6496 H   0  0  0  0  0  0  0  0  0  0  0  0
  139.7086  152.3699  132.9633 H   0  0  0  0  0  0  0  0  0  0  0  0
  1  2  1  0
  2  3  1  0
  3  4  2  0
  3  5  1  0
  5  6  1  0
  6  7  1  0
  7  8  1  0
  8  9  1  0
  9 10  2  0
  9 11  1  0
 11 12  1  0
 12 13  1  0
 13 14  1  0
 13 15  2  0
 12 16  2  0
 16 17  1  0
 17 18  2  0
 18 19  1  0
 19 20  2  0
 20 21  1  0
 21 22  1  0
 21 23  1  0
 21 24  1  0
 20 25  1  0
 25 26  2  0
 26 11  1  0
 26 17  1  0
  1 27  1  0
  1 28  1  0
  1 29  1  0
  5 30  1  0
  6 31  1  0
  6 32  1  0
  7 33  1  0
  7 34  1  0
 14 35  1  0
 16 36  1  0
 18 37  1  0
 19 38  1  0
 25 39  1  0
M  CHG  1  14  -1
M  END
>  <UniqueID>  (87) 
87

>  <SMILES>  (87) 
COC(=O)NCCOC(=O)n1c(C([NH-])=O)cc2ccc(C(F)(F)F)cc21

>  <Energy>  (87) 
69.72224635466402

>  <Genealogy>  (87) 
COC(=O)NCCOC(=O)n1c(C([NH-])=O)cc2ccc(C(F)(F)F)cc21 (protonated)
COC(=O)NCCOC(=O)n1c(C([NH-])=O)cc2ccc(C(F)(F)F)cc21 (3D coordinates assigned)
COC(=O)NCCOC(=O)n1c(C([NH-])=O)cc2ccc(C(F)(F)F)cc21 (optimized conformer: 69.72224635466402 kcal/mol)

>  <smiles>  (87) 
COC(=O)NCCOC(=O)n1c(C(N)=O)cc2ccc(C(F)(F)F)cc21

>  <score_type>  (87) 
oracle

>  <origin>  (87) 
adg

>  <m_score__min__energy>  (87) 
-5.8300000000000001

>  <m_primary>  (87) 
energy

$$$$
87:0
     RDKit          3D

 42 43  0  0  0  0  0  0  0  0999 V2000
  137.9580  160.0460  130.7030 C   0  0  0  0  0  0  0  0  0  0  0  0
  138.6340  159.8910  131.9440 O   0  0  0  0  0  0  0  0  0  0  0  0
  139.9580  159.4500  132.0310 C   0  0  0  0  0  0  0  0  0  0  0  0
  140.5370  158.9760  131.0140 O   0  0  0  0  0  0  0  0  0  0  0  0
  140.6490  159.5400  133.2850 N   0  0  0  0  0  0  0  0  0  0  0  0
  141.7480  160.3260  133.3690 O   0  0  0  0  0  0  0  0  0  0  0  0
  140.2460  158.7660  134.4620 C   0  0  0  0  0  0  0  0  0  0  0  0
  139.5120  157.4800  134.0540 C   0  0  0  0  0  0  0  0  0  0  0  0
  140.2340  156.1950  134.4910 C   0  0  0  0  0  0  0  0  0  0  0  0
  140.4360  155.2230  133.3560 C   0  0  0  0  0  0  0  0  0  0  0  0
  139.4550  154.9160  132.6270 O   0  0  0  0  0  0  0  0  0  0  0  0
  141.7150  154.6170  133.1110 N   0  0  0  0  0  0  0  0  0  0  0  0
  142.9300  155.2270  133.0180 C   0  0  0  0  0  0  0  0  0  0  0  0
  143.1480  156.6840  132.9270 C   0  0  0  0  0  0  0  0  0  0  0  0
  142.2040  157.5220  132.2600 N   0  0  0  0  0  0  0  0  0  0  0  0
  144.1550  157.2050  133.4750 O   0  0  0  0  0  0  0  0  0  0  0  0
  143.9440  154.2790  132.8940 C   0  0  0  0  0  0  0  0  0  0  0  0
  143.3060  153.0600  132.9030 C   0  0  0  0  0  0  0  0  0  0  0  0
  143.8250  151.7730  132.7980 C   0  0  0  0  0  0  0  0  0  0  0  0
  142.9260  150.6930  132.8430 C   0  0  0  0  0  0  0  0  0  0  0  0
  141.5340  150.9140  133.0070 C   0  0  0  0  0  0  0  0  0  0  0  0
  140.5750  149.7510  133.0120 C   0  0  0  0  0  0  0  0  0  0  0  0
  139.4140  150.0720  132.3280 F   0  0  0  0  0  0  0  0  0  0  0  0
  140.2530  149.4320  134.3180 F   0  0  0  0  0  0  0  0  0  0  0  0
  141.1440  148.6460  132.4040 F   0  0  0  0  0  0  0  0  0  0  0  0
  141.0440  152.2380  133.0810 C   0  0  0  0  0  0  0  0  0  0  0  0
  141.9620  153.2920  133.0300 C   0  0  0  0  0  0  0  0  0  0  0  0
  136.9012  160.2883  130.8889 H   0  0  0  0  0  0  0  0  0  0  0  0
  138.4256  160.8602  130.1300 H   0  0  0  0  0  0  0  0  0  0  0  0
  138.0241  159.1094  130.1300 H   0  0  0  0  0  0  0  0  0  0  0  0
  141.1426  158.4996  135.0409 H   0  0  0  0  0  0  0  0  0  0  0  0
  139.5633  159.3807  135.0671 H   0  0  0  0  0  0  0  0  0  0  0  0
  138.5119  157.4900  134.5120 H   0  0  0  0  0  0  0  0  0  0  0  0
  139.4684  157.4680  132.9549 H   0  0  0  0  0  0  0  0  0  0  0  0
  141.2182  156.4668  134.9003 H   0  0  0  0  0  0  0  0  0  0  0  0
  139.6020  155.6995  135.2427 H   0  0  0  0  0  0  0  0  0  0  0  0
  142.3480  158.5550  132.2320 H   0  0  0  0  0  0  0  0  0  0  0  0
  141.3810  157.1170  131.7590 H   0  0  0  0  0  0  0  0  0  0  0  0
  145.0246  154.4656  132.8074 H   0  0  0  0  0  0  0  0  0  0  0  0
  144.9061  151.6057  132.6833 H   0  0  0  0  0  0  0  0  0  0  0  0
  143.3061  149.6649  132.7500 H   0  0  0  0  0  0  0  0  0  0  0  0
  139.9659  152.4347  133.1764 H   0  0  0  0  0  0  0  0  0  0  0  0
  1  2  1  0
  2  3  1  0
  3  4  2  0
  3  5  1  0
  5  6  1  0
  5  7  1  0
  7  8  1  0
  8  9  1  0
  9 10  1  0
 10 11  2  0
 10 12  1  0
 12 13  1  0
 13 14  1  0
 14 15  1  0
 14 16  2  0
 13 17  2  0
 17 18  1  0
 18 19  2  0
 19 20  1  0
 20 21  2  0
 21 22  1  0
 22 23  1  0
 22 24  1  0
 22 25  1  0
 21 26  1  0
 26 27  2  0
 27 12  1  0
 27 18  1  0
  1 28  1  0
  1 29  1  0
  1 30  1  0
  7 31  1  0
  7 32  1  0
  8 33  1  0
  8 34  1  0
  9 35  1  0
  9 36  1  0
 15 37  1  0
 15 38  1  0
 17 39  1  0
 19 40  1  0
 20 41  1  0
 26 42  1  0
M  CHG  1   6  -1
M  END
>  <UniqueID>  (88) 
88

>  <SMILES>  (88) 
COC(=O)N([O-])CCCC(=O)n1c(C(N)=O)cc2ccc(C(F)(F)F)cc21

>  <Energy>  (88) 
74.15278596440821

>  <Genealogy>  (88) 
COC(=O)N([O-])CCCC(=O)n1c(C(N)=O)cc2ccc(C(F)(F)F)cc21 (protonated)
COC(=O)N([O-])CCCC(=O)n1c(C(N)=O)cc2ccc(C(F)(F)F)cc21 (3D coordinates assigned)
COC(=O)N([O-])CCCC(=O)n1c(C(N)=O)cc2ccc(C(F)(F)F)cc21 (optimized conformer: 74.15278596440821 kcal/mol)

>  <smiles>  (88) 
COC(=O)N(O)CCCC(=O)n1c(C(N)=O)cc2ccc(C(F)(F)F)cc21

>  <score_type>  (88) 
oracle

>  <origin>  (88) 
adg

>  <m_score__min__energy>  (88) 
-6.1399999999999997

>  <m_primary>  (88) 
energy

$$$$
88:0
     RDKit          3D

 31 33  0  0  0  0  0  0  0  0999 V2000
  148.9460  151.7370  132.1400 N   0  0  0  0  0  0  0  0  0  0  0  0
  149.2190  152.8430  132.3450 C   0  0  0  0  0  0  0  0  0  0  0  0
  149.5650  154.2440  132.6030 C   0  0  0  0  0  0  0  0  0  0  0  0
  148.3180  155.0410  132.8560 C   0  0  0  0  0  0  0  0  0  0  0  0
  147.0710  154.3830  133.0170 C   0  0  0  0  0  0  0  0  0  0  0  0
  145.8940  155.1220  133.2280 C   0  0  0  0  0  0  0  0  0  0  0  0
  145.9920  156.5110  133.2560 C   0  0  0  0  0  0  0  0  0  0  0  0
  145.0200  157.4660  133.4560 C   0  0  0  0  0  0  0  0  0  0  0  0
  145.6860  158.6900  133.3860 C   0  0  0  0  0  0  0  0  0  0  0  0
  145.0150  160.0010  133.5080 C   0  0  0  0  0  0  0  0  0  0  0  0
  145.7780  161.1620  133.8290 N   0  0  0  0  0  0  0  0  0  0  0  0
  143.7710  160.1050  133.3480 O   0  0  0  0  0  0  0  0  0  0  0  0
  147.0120  158.4960  133.1460 N   0  0  0  0  0  0  0  0  0  0  0  0
  148.0380  159.4930  133.0460 C   0  0  0  0  0  0  0  0  0  0  0  0
  148.4030  160.1160  134.0790 O   0  0  0  0  0  0  0  0  0  0  0  0
  148.6630  159.8000  131.7480 C   0  0  0  0  0  0  0  0  0  0  0  0
  149.5080  158.9620  131.0270 C   0  0  0  0  0  0  0  0  0  0  0  0
  149.9720  159.4870  129.8620 N   0  0  0  0  0  0  0  0  0  0  0  0
  149.5100  160.7380  129.6430 C   0  0  0  0  0  0  0  0  0  0  0  0
  148.5080  161.2420  130.8960 S   0  0  0  0  0  0  0  0  0  0  0  0
  147.1850  157.1590  133.0770 C   0  0  0  0  0  0  0  0  0  0  0  0
  148.3760  156.4510  132.8840 C   0  0  0  0  0  0  0  0  0  0  0  0
  150.2196  154.3014  133.4852 H   0  0  0  0  0  0  0  0  0  0  0  0
  150.0856  154.6555  131.7257 H   0  0  0  0  0  0  0  0  0  0  0  0
  147.0250  153.2847  132.9763 H   0  0  0  0  0  0  0  0  0  0  0  0
  144.9257  154.6189  133.3667 H   0  0  0  0  0  0  0  0  0  0  0  0
  143.9472  157.2993  133.6332 H   0  0  0  0  0  0  0  0  0  0  0  0
  146.6770  161.3670  133.3390 H   0  0  0  0  0  0  0  0  0  0  0  0
  149.7793  157.9536  131.3726 H   0  0  0  0  0  0  0  0  0  0  0  0
  149.7570  161.3468  128.7608 H   0  0  0  0  0  0  0  0  0  0  0  0
  149.3325  156.9792  132.7574 H   0  0  0  0  0  0  0  0  0  0  0  0
  1  2  3  0
  2  3  1  0
  3  4  1  0
  4  5  2  0
  5  6  1  0
  6  7  2  0
  7  8  1  0
  8  9  2  0
  9 10  1  0
 10 11  1  0
 10 12  2  0
  9 13  1  0
 13 14  1  0
 14 15  2  0
 14 16  1  0
 16 17  2  0
 17 18  1  0
 18 19  2  0
 19 20  1  0
 13 21  1  0
 21 22  2  0
 22  4  1  0
 21  7  1  0
 20 16  1  0
  3 23  1  0
  3 24  1  0
  5 25  1  0
  6 26  1  0
  8 27  1  0
 11 28  1  0
 17 29  1  0
 19 30  1  0
 22 31  1  0
M  CHG  1  11  -1
M  END
>  <UniqueID>  (89) 
89

>  <SMILES>  (89) 
N#CCc1ccc2cc(C([NH-])=O)n(C(=O)c3cncs3)c2c1

>  <Energy>  (89) 
100.27855725699595

>  <Genealogy>  (89) 
N#CCc1ccc2cc(C([NH-])=O)n(C(=O)c3cncs3)c2c1 (protonated)
N#CCc1ccc2cc(C([NH-])=O)n(C(=O)c3cncs3)c2c1 (3D coordinates assigned)
N#CCc1ccc2cc(C([NH-])=O)n(C(=O)c3cncs3)c2c1 (optimized conformer: 100.27855725699595 kcal/mol)

>  <smiles>  (89) 
N#CCc1ccc2cc(C(N)=O)n(C(=O)c3cncs3)c2c1

>  <score_type>  (89) 
oracle

>  <origin>  (89) 
adg

>  <m_score__min__energy>  (89) 
-7.3499999999999996

>  <m_primary>  (89) 
energy

$$$$
89:0
     RDKit          3D

 35 37  0  0  0  0  0  0  0  0999 V2000
  142.6920  155.2140  134.3310 C   0  0  0  0  0  0  0  0  0  0  0  0
  143.7070  154.5480  133.4470 C   0  0  0  0  0  0  0  0  0  0  0  0
  144.8700  155.1060  132.9290 C   0  0  0  0  0  0  0  0  0  0  0  0
  145.3660  156.4910  133.0900 C   0  0  0  0  0  0  0  0  0  0  0  0
  146.7330  156.7790  132.8540 C   0  0  0  0  0  0  0  0  0  0  0  0
  147.2230  158.0900  132.9760 C   0  0  0  0  0  0  0  0  0  0  0  0
  146.3250  159.0900  133.3310 C   0  0  0  0  0  0  0  0  0  0  0  0
  146.5250  160.4430  133.4880 C   0  0  0  0  0  0  0  0  0  0  0  0
  145.2770  160.9630  133.8270 C   0  0  0  0  0  0  0  0  0  0  0  0
  145.0580  162.3840  134.1700 C   0  0  0  0  0  0  0  0  0  0  0  0
  145.9610  163.0820  135.0230 N   0  0  0  0  0  0  0  0  0  0  0  0
  144.0850  163.0050  133.6630 O   0  0  0  0  0  0  0  0  0  0  0  0
  144.3410  159.9720  133.8690 N   0  0  0  0  0  0  0  0  0  0  0  0
  142.9280  160.1020  134.1000 C   0  0  0  0  0  0  0  0  0  0  0  0
  142.2240  160.8240  133.3460 O   0  0  0  0  0  0  0  0  0  0  0  0
  142.3220  159.4100  135.1400 O   0  0  0  0  0  0  0  0  0  0  0  0
  145.0000  158.8320  133.5680 C   0  0  0  0  0  0  0  0  0  0  0  0
  144.4820  157.5390  133.4330 C   0  0  0  0  0  0  0  0  0  0  0  0
  145.5260  154.1530  132.2360 N   0  0  0  0  0  0  0  0  0  0  0  0
  144.7590  153.0480  132.3120 C   0  0  0  0  0  0  0  0  0  0  0  0
  143.6380  153.2650  133.0300 N   0  0  0  0  0  0  0  0  0  0  0  0
  142.6180  152.2740  133.3550 C   0  0  0  0  0  0  0  0  0  0  0  0
  142.9546  155.0417  135.3852 H   0  0  0  0  0  0  0  0  0  0  0  0
  142.6817  156.2950  134.1276 H   0  0  0  0  0  0  0  0  0  0  0  0
  141.6962  154.7931  134.1276 H   0  0  0  0  0  0  0  0  0  0  0  0
  147.4188  155.9665  132.5719 H   0  0  0  0  0  0  0  0  0  0  0  0
  148.2840  158.3180  132.7962 H   0  0  0  0  0  0  0  0  0  0  0  0
  147.4687  160.9959  133.3709 H   0  0  0  0  0  0  0  0  0  0  0  0
  146.9870  163.0850  134.8320 H   0  0  0  0  0  0  0  0  0  0  0  0
  143.4111  157.3428  133.5903 H   0  0  0  0  0  0  0  0  0  0  0  0
  146.4320  154.2470  131.7240 H   0  0  0  0  0  0  0  0  0  0  0  0
  145.0158  152.0857  131.8452 H   0  0  0  0  0  0  0  0  0  0  0  0
  142.5273  152.1859  134.4477 H   0  0  0  0  0  0  0  0  0  0  0  0
  141.6529  152.5886  132.9312 H   0  0  0  0  0  0  0  0  0  0  0  0
  142.9046  151.3002  132.9312 H   0  0  0  0  0  0  0  0  0  0  0  0
  1  2  1  0
  2  3  2  0
  3  4  1  0
  4  5  2  0
  5  6  1  0
  6  7  2  0
  7  8  1  0
  8  9  2  0
  9 10  1  0
 10 11  1  0
 10 12  2  0
  9 13  1  0
 13 14  1  0
 14 15  2  0
 14 16  1  0
 13 17  1  0
 17 18  2  0
  3 19  1  0
 19 20  2  0
 20 21  1  0
 21 22  1  0
 21  2  1  0
 18  4  1  0
 17  7  1  0
  1 23  1  0
  1 24  1  0
  1 25  1  0
  5 26  1  0
  6 27  1  0
  8 28  1  0
 11 29  1  0
 18 30  1  0
 19 31  1  0
 20 32  1  0
 22 33  1  0
 22 34  1  0
 22 35  1  0
M  CHG  3  11  -1  16  -1  19   1
M  END
>  <UniqueID>  (90) 
90

>  <SMILES>  (90) 
Cc1c(-c2ccc3cc(C([NH-])=O)n(C(=O)[O-])c3c2)[nH+]cn1C

>  <Energy>  (90) 
110.76344698223745

>  <Genealogy>  (90) 
Cc1c(-c2ccc3cc(C([NH-])=O)n(C(=O)[O-])c3c2)[nH+]cn1C (protonated)
Cc1c(-c2ccc3cc(C([NH-])=O)n(C(=O)[O-])c3c2)[nH+]cn1C (3D coordinates assigned)
Cc1c(-c2ccc3cc(C([NH-])=O)n(C(=O)[O-])c3c2)[nH+]cn1C (optimized conformer: 110.76344698223745 kcal/mol)

>  <smiles>  (90) 
Cc1c(-c2ccc3cc(C(N)=O)n(C(=O)O)c3c2)ncn1C

>  <score_type>  (90) 
oracle

>  <origin>  (90) 
adg

>  <m_score__min__energy>  (90) 
-6.6799999999999997

>  <m_primary>  (90) 
energy

$$$$
90:0
     RDKit          3D

 33 35  0  0  0  0  0  0  0  0999 V2000
  139.6570  157.8120  132.7220 C   0  0  0  0  0  0  0  0  0  0  0  0
  140.1280  157.5870  134.1230 C   0  0  0  0  0  0  0  0  0  0  0  0
  139.3000  157.4880  135.1810 N   0  0  0  0  0  0  0  0  0  0  0  0
  140.0470  157.3030  136.2320 O   0  0  0  0  0  0  0  0  0  0  0  0
  141.3220  157.2760  135.9190 C   0  0  0  0  0  0  0  0  0  0  0  0
  141.4350  157.4540  134.5550 C   0  0  0  0  0  0  0  0  0  0  0  0
  142.6810  157.5110  133.7670 C   0  0  0  0  0  0  0  0  0  0  0  0
  143.0470  156.5140  133.0900 O   0  0  0  0  0  0  0  0  0  0  0  0
  143.4840  158.7010  133.7600 N   0  0  0  0  0  0  0  0  0  0  0  0
  143.0630  159.9910  133.8700 C   0  0  0  0  0  0  0  0  0  0  0  0
  141.6760  160.4290  134.1360 C   0  0  0  0  0  0  0  0  0  0  0  0
  141.0510  160.1720  135.3910 N   0  0  0  0  0  0  0  0  0  0  0  0
  141.0410  161.0620  133.2510 O   0  0  0  0  0  0  0  0  0  0  0  0
  144.1410  160.8660  133.7450 C   0  0  0  0  0  0  0  0  0  0  0  0
  145.2430  160.0630  133.5510 C   0  0  0  0  0  0  0  0  0  0  0  0
  146.5790  160.4020  133.3650 C   0  0  0  0  0  0  0  0  0  0  0  0
  147.5020  159.3590  133.1690 C   0  0  0  0  0  0  0  0  0  0  0  0
  147.0740  158.0060  133.1360 C   0  0  0  0  0  0  0  0  0  0  0  0
  148.0790  156.8950  132.9680 C   0  0  0  0  0  0  0  0  0  0  0  0
  148.4620  156.4370  134.2130 F   0  0  0  0  0  0  0  0  0  0  0  0
  149.1970  157.3470  132.2890 F   0  0  0  0  0  0  0  0  0  0  0  0
  147.5310  155.8470  132.2500 F   0  0  0  0  0  0  0  0  0  0  0  0
  145.7090  157.7040  133.3490 C   0  0  0  0  0  0  0  0  0  0  0  0
  144.8180  158.7610  133.5580 C   0  0  0  0  0  0  0  0  0  0  0  0
  138.6646  158.2861  132.7405 H   0  0  0  0  0  0  0  0  0  0  0  0
  140.3671  158.4682  132.1974 H   0  0  0  0  0  0  0  0  0  0  0  0
  139.5928  156.8473  132.1974 H   0  0  0  0  0  0  0  0  0  0  0  0
  142.1560  157.1358  136.6224 H   0  0  0  0  0  0  0  0  0  0  0  0
  140.4270  159.3460  135.5220 H   0  0  0  0  0  0  0  0  0  0  0  0
  144.1166  161.9647  133.7915 H   0  0  0  0  0  0  0  0  0  0  0  0
  146.9036  161.4530  133.3710 H   0  0  0  0  0  0  0  0  0  0  0  0
  148.5686  159.5947  133.0397 H   0  0  0  0  0  0  0  0  0  0  0  0
  145.3565  156.6620  133.3502 H   0  0  0  0  0  0  0  0  0  0  0  0
  1  2  1  0
  2  3  2  0
  3  4  1  0
  4  5  1  0
  5  6  2  0
  6  7  1  0
  7  8  2  0
  7  9  1  0
  9 10  1  0
 10 11  1  0
 11 12  1  0
 11 13  2  0
 10 14  2  0
 14 15  1  0
 15 16  2  0
 16 17  1  0
 17 18  2  0
 18 19  1  0
 19 20  1  0
 19 21  1  0
 19 22  1  0
 18 23  1  0
 23 24  2  0
  6  2  1  0
 24  9  1  0
 24 15  1  0
  1 25  1  0
  1 26  1  0
  1 27  1  0
  5 28  1  0
 12 29  1  0
 14 30  1  0
 16 31  1  0
 17 32  1  0
 23 33  1  0
M  CHG  1  12  -1
M  END
>  <UniqueID>  (91) 
91

>  <SMILES>  (91) 
Cc1nocc1C(=O)n1c(C([NH-])=O)cc2ccc(C(F)(F)F)cc21

>  <Energy>  (91) 
105.4245546784712

>  <Genealogy>  (91) 
Cc1nocc1C(=O)n1c(C([NH-])=O)cc2ccc(C(F)(F)F)cc21 (protonated)
Cc1nocc1C(=O)n1c(C([NH-])=O)cc2ccc(C(F)(F)F)cc21 (3D coordinates assigned)
Cc1nocc1C(=O)n1c(C([NH-])=O)cc2ccc(C(F)(F)F)cc21 (optimized conformer: 105.4245546784712 kcal/mol)

>  <smiles>  (91) 
Cc1nocc1C(=O)n1c(C(N)=O)cc2ccc(C(F)(F)F)cc21

>  <score_type>  (91) 
oracle

>  <origin>  (91) 
adg

>  <m_score__min__energy>  (91) 
-6.7999999999999998

>  <m_primary>  (91) 
energy

$$$$
91:0
     RDKit          3D

 32 34  0  0  0  0  0  0  0  0999 V2000
  148.6680  157.4930  131.8560 N   0  0  0  0  0  0  0  0  0  0  0  0
  148.3240  158.5320  132.7740 C   0  0  0  0  0  0  0  0  0  0  0  0
  149.2410  159.1700  133.3560 O   0  0  0  0  0  0  0  0  0  0  0  0
  146.9160  158.8240  133.1040 C   0  0  0  0  0  0  0  0  0  0  0  0
  146.3880  160.1120  133.1350 C   0  0  0  0  0  0  0  0  0  0  0  0
  145.0830  159.9600  133.5390 C   0  0  0  0  0  0  0  0  0  0  0  0
  144.0860  160.9160  133.7170 C   0  0  0  0  0  0  0  0  0  0  0  0
  142.8100  160.4710  134.0990 C   0  0  0  0  0  0  0  0  0  0  0  0
  142.5520  159.0920  134.2960 C   0  0  0  0  0  0  0  0  0  0  0  0
  141.1920  158.6480  134.6700 C   0  0  0  0  0  0  0  0  0  0  0  0
  140.7840  158.3180  135.9450 C   0  0  0  0  0  0  0  0  0  0  0  0
  139.4880  157.9530  135.9220 N   0  0  0  0  0  0  0  0  0  0  0  0
  139.1320  158.0560  134.6240 C   0  0  0  0  0  0  0  0  0  0  0  0
  140.1460  158.4630  133.8350 N   0  0  0  0  0  0  0  0  0  0  0  0
  140.0740  158.6280  132.3820 C   0  0  0  0  0  0  0  0  0  0  0  0
  140.2340  159.9570  132.0330 F   0  0  0  0  0  0  0  0  0  0  0  0
  138.8600  158.1610  131.9150 F   0  0  0  0  0  0  0  0  0  0  0  0
  143.5830  158.1510  134.0860 C   0  0  0  0  0  0  0  0  0  0  0  0
  144.8530  158.6210  133.7290 C   0  0  0  0  0  0  0  0  0  0  0  0
  145.9710  157.9070  133.4610 N   0  0  0  0  0  0  0  0  0  0  0  0
  146.0930  156.4750  133.4470 C   0  0  0  0  0  0  0  0  0  0  0  0
  146.5110  155.8830  132.4180 O   0  0  0  0  0  0  0  0  0  0  0  0
  145.7470  155.7270  134.5660 O   0  0  0  0  0  0  0  0  0  0  0  0
  147.9450  156.8360  131.4900 H   0  0  0  0  0  0  0  0  0  0  0  0
  149.6680  157.3250  131.6060 H   0  0  0  0  0  0  0  0  0  0  0  0
  146.9051  161.0511  132.8886 H   0  0  0  0  0  0  0  0  0  0  0  0
  144.2915  161.9856  133.5632 H   0  0  0  0  0  0  0  0  0  0  0  0
  142.0013  161.2018  134.2470 H   0  0  0  0  0  0  0  0  0  0  0  0
  141.4192  158.3482  136.8426 H   0  0  0  0  0  0  0  0  0  0  0  0
  138.1221  157.8317  134.2501 H   0  0  0  0  0  0  0  0  0  0  0  0
  140.8874  158.0465  131.9235 H   0  0  0  0  0  0  0  0  0  0  0  0
  143.3933  157.0735  134.2001 H   0  0  0  0  0  0  0  0  0  0  0  0
  1  2  1  0
  2  3  2  0
  2  4  1  0
  4  5  2  0
  5  6  1  0
  6  7  2  0
  7  8  1  0
  8  9  2  0
  9 10  1  0
 10 11  2  0
 11 12  1  0
 12 13  2  0
 13 14  1  0
 14 15  1  0
 15 16  1  0
 15 17  1  0
  9 18  1  0
 18 19  2  0
 19 20  1  0
 20 21  1  0
 21 22  2  0
 21 23  1  0
 20  4  1  0
 19  6  1  0
 14 10  1  0
  1 24  1  0
  1 25  1  0
  5 26  1  0
  7 27  1  0
  8 28  1  0
 11 29  1  0
 13 30  1  0
 15 31  1  0
 18 32  1  0
M  CHG  1  23  -1
M  END
>  <UniqueID>  (92) 
92

>  <SMILES>  (92) 
NC(=O)c1cc2ccc(-c3cncn3C(F)F)cc2n1C(=O)[O-]

>  <Energy>  (92) 
109.6032254974493

>  <Genealogy>  (92) 
NC(=O)c1cc2ccc(-c3cncn3C(F)F)cc2n1C(=O)[O-] (protonated)
NC(=O)c1cc2ccc(-c3cncn3C(F)F)cc2n1C(=O)[O-] (3D coordinates assigned)
NC(=O)c1cc2ccc(-c3cncn3C(F)F)cc2n1C(=O)[O-] (optimized conformer: 109.6032254974493 kcal/mol)

>  <smiles>  (92) 
NC(=O)c1cc2ccc(-c3cncn3C(F)F)cc2n1C(=O)O

>  <score_type>  (92) 
oracle

>  <origin>  (92) 
adg

>  <m_score__min__energy>  (92) 
-6.3899999999999997

>  <m_primary>  (92) 
energy

$$$$
92:0
     RDKit          3D

 47 48  0  0  0  0  0  0  0  0999 V2000
  150.3560  150.9010  132.3260 C   0  0  0  0  0  0  0  0  0  0  0  0
  149.4900  152.0660  131.8610 C   0  0  0  0  0  0  0  0  0  0  0  0
  149.4110  153.0700  132.8710 O   0  0  0  0  0  0  0  0  0  0  0  0
  148.8770  154.3450  132.6520 C   0  0  0  0  0  0  0  0  0  0  0  0
  149.6070  155.2930  132.2540 O   0  0  0  0  0  0  0  0  0  0  0  0
  147.4300  154.5860  132.9380 C   0  0  0  0  0  0  0  0  0  0  0  0
  147.1130  156.0040  132.7800 N   0  0  0  0  0  0  0  0  0  0  0  0
  145.9210  156.5790  133.3250 C   0  0  0  0  0  0  0  0  0  0  0  0
  145.0120  155.8360  133.7870 O   0  0  0  0  0  0  0  0  0  0  0  0
  145.7710  158.0050  133.3730 N   0  0  0  0  0  0  0  0  0  0  0  0
  146.7240  158.9590  133.1720 C   0  0  0  0  0  0  0  0  0  0  0  0
  148.1670  158.7150  132.9620 C   0  0  0  0  0  0  0  0  0  0  0  0
  148.6580  158.2260  131.7170 N   0  0  0  0  0  0  0  0  0  0  0  0
  148.9750  158.9060  133.9100 O   0  0  0  0  0  0  0  0  0  0  0  0
  146.1640  160.2320  133.2660 C   0  0  0  0  0  0  0  0  0  0  0  0
  144.8300  160.0270  133.5380 C   0  0  0  0  0  0  0  0  0  0  0  0
  143.8020  160.9440  133.7370 C   0  0  0  0  0  0  0  0  0  0  0  0
  142.5110  160.4440  133.9880 C   0  0  0  0  0  0  0  0  0  0  0  0
  142.2710  159.0480  134.0110 C   0  0  0  0  0  0  0  0  0  0  0  0
  140.8910  158.5160  134.2990 C   0  0  0  0  0  0  0  0  0  0  0  0
  140.2570  157.8760  133.0580 C   0  0  0  0  0  0  0  0  0  0  0  0
  139.7380  158.9140  132.1120 C   0  0  0  0  0  0  0  0  0  0  0  0
  140.4870  159.3640  131.2010 O   0  0  0  0  0  0  0  0  0  0  0  0
  138.4150  159.3490  132.2270 O   0  0  0  0  0  0  0  0  0  0  0  0
  137.6480  159.7690  131.1040 C   0  0  0  0  0  0  0  0  0  0  0  0
  143.3400  158.1480  133.8080 C   0  0  0  0  0  0  0  0  0  0  0  0
  144.6190  158.6750  133.5920 C   0  0  0  0  0  0  0  0  0  0  0  0
  150.3756  150.8747  133.4255 H   0  0  0  0  0  0  0  0  0  0  0  0
  149.9379  149.9580  131.9440 H   0  0  0  0  0  0  0  0  0  0  0  0
  151.3795  151.0296  131.9440 H   0  0  0  0  0  0  0  0  0  0  0  0
  149.9294  152.5022  130.9518 H   0  0  0  0  0  0  0  0  0  0  0  0
  148.4764  151.6925  131.6536 H   0  0  0  0  0  0  0  0  0  0  0  0
  146.8185  153.9970  132.2386 H   0  0  0  0  0  0  0  0  0  0  0  0
  147.2137  154.2833  133.9732 H   0  0  0  0  0  0  0  0  0  0  0  0
  147.7800  156.6330  132.2770 H   0  0  0  0  0  0  0  0  0  0  0  0
  148.8470  157.2080  131.5770 H   0  0  0  0  0  0  0  0  0  0  0  0
  146.6791  161.1967  133.1478 H   0  0  0  0  0  0  0  0  0  0  0  0
  143.9930  162.0266  133.6992 H   0  0  0  0  0  0  0  0  0  0  0  0
  141.6810  161.1430  134.1679 H   0  0  0  0  0  0  0  0  0  0  0  0
  140.9600  157.7590  135.0941 H   0  0  0  0  0  0  0  0  0  0  0  0
  140.2574  159.3596  134.6102 H   0  0  0  0  0  0  0  0  0  0  0  0
  141.0151  157.2686  132.5419 H   0  0  0  0  0  0  0  0  0  0  0  0
  139.4120  157.2518  133.3841 H   0  0  0  0  0  0  0  0  0  0  0  0
  136.7327  160.2702  131.4519 H   0  0  0  0  0  0  0  0  0  0  0  0
  138.2406  160.4685  130.4961 H   0  0  0  0  0  0  0  0  0  0  0  0
  137.3779  158.8929  130.4961 H   0  0  0  0  0  0  0  0  0  0  0  0
  143.1722  157.0609  133.8193 H   0  0  0  0  0  0  0  0  0  0  0  0
  1  2  1  0
  2  3  1  0
  3  4  1  0
  4  5  2  0
  4  6  1  0
  6  7  1  0
  7  8  1  0
  8  9  2  0
  8 10  1  0
 10 11  1  0
 11 12  1  0
 12 13  1  0
 12 14  2  0
 11 15  2  0
 15 16  1  0
 16 17  2  0
 17 18  1  0
 18 19  2  0
 19 20  1  0
 20 21  1  0
 21 22  1  0
 22 23  2  0
 22 24  1  0
 24 25  1  0
 19 26  1  0
 26 27  2  0
 27 10  1  0
 27 16  1  0
  1 28  1  0
  1 29  1  0
  1 30  1  0
  2 31  1  0
  2 32  1  0
  6 33  1  0
  6 34  1  0
  7 35  1  0
 13 36  1  0
 15 37  1  0
 17 38  1  0
 18 39  1  0
 20 40  1  0
 20 41  1  0
 21 42  1  0
 21 43  1  0
 25 44  1  0
 25 45  1  0
 25 46  1  0
 26 47  1  0
M  CHG  1  13  -1
M  END
>  <UniqueID>  (93) 
93

>  <SMILES>  (93) 
CCOC(=O)CNC(=O)n1c(C([NH-])=O)cc2ccc(CCC(=O)OC)cc21

>  <Energy>  (93) 
72.29798126744778

>  <Genealogy>  (93) 
CCOC(=O)CNC(=O)n1c(C([NH-])=O)cc2ccc(CCC(=O)OC)cc21 (protonated)
CCOC(=O)CNC(=O)n1c(C([NH-])=O)cc2ccc(CCC(=O)OC)cc21 (3D coordinates assigned)
CCOC(=O)CNC(=O)n1c(C([NH-])=O)cc2ccc(CCC(=O)OC)cc21 (optimized conformer: 72.29798126744778 kcal/mol)

>  <smiles>  (93) 
CCOC(=O)CNC(=O)n1c(C(N)=O)cc2ccc(CCC(=O)OC)cc21

>  <score_type>  (93) 
oracle

>  <origin>  (93) 
adg

>  <m_score__min__energy>  (93) 
-7.2300000000000004

>  <m_primary>  (93) 
energy

$$$$
93:0
     RDKit          3D

 42 43  0  0  0  0  0  0  0  0999 V2000
  149.2380  157.9040  132.1610 N   0  0  0  0  0  0  0  0  0  0  0  0
  148.5030  158.6790  133.0670 C   0  0  0  0  0  0  0  0  0  0  0  0
  149.2060  159.3300  133.9270 O   0  0  0  0  0  0  0  0  0  0  0  0
  147.0710  158.8340  133.1730 C   0  0  0  0  0  0  0  0  0  0  0  0
  146.5570  160.1390  133.3670 C   0  0  0  0  0  0  0  0  0  0  0  0
  145.2060  160.0250  133.4890 C   0  0  0  0  0  0  0  0  0  0  0  0
  144.2560  161.0020  133.6890 C   0  0  0  0  0  0  0  0  0  0  0  0
  142.9220  160.6800  133.7810 C   0  0  0  0  0  0  0  0  0  0  0  0
  142.5860  159.3530  133.6670 C   0  0  0  0  0  0  0  0  0  0  0  0
  141.1490  158.9880  133.7650 C   0  0  0  0  0  0  0  0  0  0  0  0
  140.9580  157.9430  134.8540 C   0  0  0  0  0  0  0  0  0  0  0  0
  141.4330  156.5180  134.4030 B   0  0  0  0  0  0  0  0  0  0  0  0
  141.0730  155.9890  133.0920 O   0  0  0  0  0  0  0  0  0  0  0  0
  142.4910  155.8680  135.1730 O   0  0  0  0  0  0  0  0  0  0  0  0
  143.5600  158.3730  133.4650 C   0  0  0  0  0  0  0  0  0  0  0  0
  144.9070  158.6890  133.3710 C   0  0  0  0  0  0  0  0  0  0  0  0
  146.0530  157.9600  133.1720 N   0  0  0  0  0  0  0  0  0  0  0  0
  146.0080  156.5620  133.0510 C   0  0  0  0  0  0  0  0  0  0  0  0
  147.0700  156.0290  132.5350 O   0  0  0  0  0  0  0  0  0  0  0  0
  144.9920  155.6250  133.4150 C   0  0  0  0  0  0  0  0  0  0  0  0
  144.8540  154.9900  134.4770 O   0  0  0  0  0  0  0  0  0  0  0  0
  143.9710  155.3460  132.4610 O   0  0  0  0  0  0  0  0  0  0  0  0
  143.8760  154.0790  131.8500 C   0  0  0  0  0  0  0  0  0  0  0  0
  142.9850  153.1310  132.5970 C   0  0  0  0  0  0  0  0  0  0  0  0
  142.3590  153.7760  133.6790 O   0  0  0  0  0  0  0  0  0  0  0  0
  148.9010  156.9660  131.8280 H   0  0  0  0  0  0  0  0  0  0  0  0
  150.1500  158.2380  131.7860 H   0  0  0  0  0  0  0  0  0  0  0  0
  147.1402  161.0706  133.4109 H   0  0  0  0  0  0  0  0  0  0  0  0
  144.5681  162.0532  133.7762 H   0  0  0  0  0  0  0  0  0  0  0  0
  142.1558  161.4532  133.9393 H   0  0  0  0  0  0  0  0  0  0  0  0
  140.5602  159.8840  134.0109 H   0  0  0  0  0  0  0  0  0  0  0  0
  140.8114  158.5765  132.8023 H   0  0  0  0  0  0  0  0  0  0  0  0
  141.5370  158.2449  135.7392 H   0  0  0  0  0  0  0  0  0  0  0  0
  139.8826  157.8835  135.0778 H   0  0  0  0  0  0  0  0  0  0  0  0
  141.8650  155.6220  132.6180 H   0  0  0  0  0  0  0  0  0  0  0  0
  143.1790  155.5880  134.5240 H   0  0  0  0  0  0  0  0  0  0  0  0
  143.2502  157.3211  133.3780 H   0  0  0  0  0  0  0  0  0  0  0  0
  143.4750  154.2094  130.8340 H   0  0  0  0  0  0  0  0  0  0  0  0
  144.8856  153.6424  131.8413 H   0  0  0  0  0  0  0  0  0  0  0  0
  142.2145  152.7463  131.9126 H   0  0  0  0  0  0  0  0  0  0  0  0
  143.5991  152.3062  132.9877 H   0  0  0  0  0  0  0  0  0  0  0  0
  142.7420  154.6830  133.7420 H   0  0  0  0  0  0  0  0  0  0  0  0
  1  2  1  0
  2  3  2  0
  2  4  1  0
  4  5  2  0
  5  6  1  0
  6  7  2  0
  7  8  1  0
  8  9  2  0
  9 10  1  0
 10 11  1  0
 11 12  1  0
 12 13  1  0
 12 14  1  0
  9 15  1  0
 15 16  2  0
 16 17  1  0
 17 18  1  0
 18 19  2  0
 18 20  1  0
 20 21  2  0
 20 22  1  0
 22 23  1  0
 23 24  1  0
 24 25  1  0
 17  4  1  0
 16  6  1  0
  1 26  1  0
  1 27  1  0
  5 28  1  0
  7 29  1  0
  8 30  1  0
 10 31  1  0
 10 32  1  0
 11 33  1  0
 11 34  1  0
 13 35  1  0
 14 36  1  0
 15 37  1  0
 23 38  1  0
 23 39  1  0
 24 40  1  0
 24 41  1  0
 25 42  1  0
M  END
>  <smiles>  (94) 
NC(=O)c1cc2ccc(CCB(O)O)cc2n1C(=O)C(=O)OCCO

>  <score_type>  (94) 
oracle

>  <origin>  (94) 
adg

>  <m_score__min__energy>  (94) 
-4.8200000000000003

>  <m_primary>  (94) 
energy

$$$$
94:0
     RDKit          3D

 35 37  0  0  0  0  0  0  0  0999 V2000
  142.1340  157.3540  135.3230 C   0  0  0  0  0  0  0  0  0  0  0  0
  143.2790  157.0660  134.7040 C   0  0  0  0  0  0  0  0  0  0  0  0
  143.7460  157.7960  133.5110 C   0  0  0  0  0  0  0  0  0  0  0  0
  142.9910  157.8690  132.5060 O   0  0  0  0  0  0  0  0  0  0  0  0
  145.0410  158.4160  133.4660 N   0  0  0  0  0  0  0  0  0  0  0  0
  145.3290  159.7470  133.5040 C   0  0  0  0  0  0  0  0  0  0  0  0
  144.3550  160.8370  133.7240 C   0  0  0  0  0  0  0  0  0  0  0  0
  142.9860  160.6860  133.3560 N   0  0  0  0  0  0  0  0  0  0  0  0
  144.7320  161.9100  134.2660 O   0  0  0  0  0  0  0  0  0  0  0  0
  146.6990  159.9510  133.3450 C   0  0  0  0  0  0  0  0  0  0  0  0
  147.2430  158.6940  133.2030 C   0  0  0  0  0  0  0  0  0  0  0  0
  148.5630  158.3040  133.0050 C   0  0  0  0  0  0  0  0  0  0  0  0
  148.8310  156.9310  132.8690 C   0  0  0  0  0  0  0  0  0  0  0  0
  147.7800  155.9770  132.9210 C   0  0  0  0  0  0  0  0  0  0  0  0
  148.0790  154.5320  132.7760 C   0  0  0  0  0  0  0  0  0  0  0  0
  149.3300  154.1140  132.2940 C   0  0  0  0  0  0  0  0  0  0  0  0
  149.6130  152.7550  132.1650 C   0  0  0  0  0  0  0  0  0  0  0  0
  148.6430  151.8160  132.5170 C   0  0  0  0  0  0  0  0  0  0  0  0
  148.9080  150.4920  132.3940 F   0  0  0  0  0  0  0  0  0  0  0  0
  147.4300  152.2280  132.9770 N   0  0  0  0  0  0  0  0  0  0  0  0
  147.1280  153.5490  133.1120 C   0  0  0  0  0  0  0  0  0  0  0  0
  145.8890  153.9040  133.5400 F   0  0  0  0  0  0  0  0  0  0  0  0
  146.4520  156.4150  133.1270 C   0  0  0  0  0  0  0  0  0  0  0  0
  146.2190  157.7860  133.2740 C   0  0  0  0  0  0  0  0  0  0  0  0
  141.8289  156.7799  136.2103 H   0  0  0  0  0  0  0  0  0  0  0  0
  141.4943  158.1658  134.9465 H   0  0  0  0  0  0  0  0  0  0  0  0
  143.9013  156.2498  135.0997 H   0  0  0  0  0  0  0  0  0  0  0  0
  142.7040  160.0220  132.6010 H   0  0  0  0  0  0  0  0  0  0  0  0
  147.2326  160.9129  133.3351 H   0  0  0  0  0  0  0  0  0  0  0  0
  149.3725  159.0472  132.9563 H   0  0  0  0  0  0  0  0  0  0  0  0
  149.8667  156.5913  132.7206 H   0  0  0  0  0  0  0  0  0  0  0  0
  150.0887  154.8609  132.0175 H   0  0  0  0  0  0  0  0  0  0  0  0
  150.5929  152.4258  131.7888 H   0  0  0  0  0  0  0  0  0  0  0  0
  146.7110  151.5130  133.2260 H   0  0  0  0  0  0  0  0  0  0  0  0
  145.6217  155.6947  133.1706 H   0  0  0  0  0  0  0  0  0  0  0  0
  1  2  2  0
  2  3  1  0
  3  4  2  0
  3  5  1  0
  5  6  1  0
  6  7  1  0
  7  8  1  0
  7  9  2  0
  6 10  2  0
 10 11  1  0
 11 12  2  0
 12 13  1  0
 13 14  2  0
 14 15  1  0
 15 16  2  0
 16 17  1  0
 17 18  2  0
 18 19  1  0
 18 20  1  0
 20 21  2  0
 21 22  1  0
 14 23  1  0
 23 24  2  0
 24  5  1  0
 24 11  1  0
 21 15  1  0
  1 25  1  0
  1 26  1  0
  2 27  1  0
  8 28  1  0
 10 29  1  0
 12 30  1  0
 13 31  1  0
 16 32  1  0
 17 33  1  0
 20 34  1  0
 23 35  1  0
M  CHG  2   8  -1  20   1
M  END
>  <UniqueID>  (95) 
94

>  <SMILES>  (95) 
C=CC(=O)n1c(C([NH-])=O)cc2ccc(-c3ccc(F)[nH+]c3F)cc21

>  <Energy>  (95) 
82.50499600275043

>  <Genealogy>  (95) 
C=CC(=O)n1c(C([NH-])=O)cc2ccc(-c3ccc(F)[nH+]c3F)cc21 (protonated)
C=CC(=O)n1c(C([NH-])=O)cc2ccc(-c3ccc(F)[nH+]c3F)cc21 (3D coordinates assigned)
C=CC(=O)n1c(C([NH-])=O)cc2ccc(-c3ccc(F)[nH+]c3F)cc21 (optimized conformer: 82.50499600275043 kcal/mol)

>  <smiles>  (95) 
C=CC(=O)n1c(C(N)=O)cc2ccc(-c3ccc(F)nc3F)cc21

>  <score_type>  (95) 
oracle

>  <origin>  (95) 
adg

>  <m_score__min__energy>  (95) 
-7.3799999999999999

>  <m_primary>  (95) 
energy

$$$$
95:0
     RDKit          3D

 37 38  0  0  0  0  0  0  0  0999 V2000
  148.1040  153.4060  133.7430 C   0  0  0  0  0  0  0  0  0  0  0  0
  146.9570  154.3660  134.0880 C   0  0  1  0  0  0  0  0  0  0  0  0
  146.3500  154.1010  135.4380 C   0  0  0  0  0  0  0  0  0  0  0  0
  145.2010  154.5280  135.7340 O   0  0  0  0  0  0  0  0  0  0  0  0
  147.0680  153.3740  136.3780 O   0  0  0  0  0  0  0  0  0  0  0  0
  147.3780  155.7770  133.9530 N   0  0  0  0  0  0  0  0  0  0  0  0
  147.9400  156.4730  135.1170 C   0  0  0  0  0  0  0  0  0  0  0  0
  147.1050  156.5620  132.7700 C   0  0  0  0  0  0  0  0  0  0  0  0
  147.0430  155.9950  131.6450 O   0  0  0  0  0  0  0  0  0  0  0  0
  146.8930  157.9800  132.8420 N   0  0  0  0  0  0  0  0  0  0  0  0
  147.7870  158.9770  132.5920 C   0  0  0  0  0  0  0  0  0  0  0  0
  149.1990  158.7980  132.1950 C   0  0  0  0  0  0  0  0  0  0  0  0
  149.7180  157.5080  131.8900 N   0  0  0  0  0  0  0  0  0  0  0  0
  149.9650  159.7980  132.1440 O   0  0  0  0  0  0  0  0  0  0  0  0
  147.2070  160.2220  132.8380 C   0  0  0  0  0  0  0  0  0  0  0  0
  145.9350  159.9500  133.2880 C   0  0  0  0  0  0  0  0  0  0  0  0
  144.9260  160.8120  133.7050 C   0  0  0  0  0  0  0  0  0  0  0  0
  143.7150  160.2470  134.1430 C   0  0  0  0  0  0  0  0  0  0  0  0
  143.5400  158.8400  134.1630 C   0  0  0  0  0  0  0  0  0  0  0  0
  142.2410  158.2400  134.6170 C   0  0  0  0  0  0  0  0  0  0  0  0
  141.7970  158.8970  135.7500 F   0  0  0  0  0  0  0  0  0  0  0  0
  141.2930  158.3640  133.6170 F   0  0  0  0  0  0  0  0  0  0  0  0
  144.5880  157.9980  133.7320 C   0  0  0  0  0  0  0  0  0  0  0  0
  145.7770  158.5890  133.2960 C   0  0  0  0  0  0  0  0  0  0  0  0
  148.5567  153.0271  134.6711 H   0  0  0  0  0  0  0  0  0  0  0  0
  147.7122  152.5627  133.1553 H   0  0  0  0  0  0  0  0  0  0  0  0
  148.8651  153.9402  133.1553 H   0  0  0  0  0  0  0  0  0  0  0  0
  146.1624  154.1730  133.3523 H   0  0  0  0  0  0  0  0  0  0  0  0
  147.5638  156.0071  136.0397 H   0  0  0  0  0  0  0  0  0  0  0  0
  149.0374  156.4025  135.0917 H   0  0  0  0  0  0  0  0  0  0  0  0
  147.6399  157.5310  135.0917 H   0  0  0  0  0  0  0  0  0  0  0  0
  149.0900  156.7370  131.5690 H   0  0  0  0  0  0  0  0  0  0  0  0
  147.6685  161.2111  132.7013 H   0  0  0  0  0  0  0  0  0  0  0  0
  145.0709  161.9023  133.6925 H   0  0  0  0  0  0  0  0  0  0  0  0
  142.8958  160.9027  134.4732 H   0  0  0  0  0  0  0  0  0  0  0  0
  142.3966  157.1751  134.8444 H   0  0  0  0  0  0  0  0  0  0  0  0
  144.4716  156.9042  133.7392 H   0  0  0  0  0  0  0  0  0  0  0  0
  1  2  1  0
  2  3  1  0
  3  4  2  0
  3  5  1  0
  2  6  1  0
  6  7  1  0
  6  8  1  0
  8  9  2  0
  8 10  1  0
 10 11  1  0
 11 12  1  0
 12 13  1  0
 12 14  2  0
 11 15  2  0
 15 16  1  0
 16 17  2  0
 17 18  1  0
 18 19  2  0
 19 20  1  0
 20 21  1  0
 20 22  1  0
 19 23  1  0
 23 24  2  0
 24 10  1  0
 24 16  1  0
  1 25  1  0
  1 26  1  0
  1 27  1  0
  2 28  1  6
  7 29  1  0
  7 30  1  0
  7 31  1  0
 13 32  1  0
 15 33  1  0
 17 34  1  0
 18 35  1  0
 20 36  1  0
 23 37  1  0
M  CHG  2   5  -1  13  -1
M  END
>  <UniqueID>  (96) 
95

>  <SMILES>  (96) 
C[C@@H](C(=O)[O-])N(C)C(=O)n1c(C([NH-])=O)cc2ccc(C(F)F)cc21

>  <Energy>  (96) 
75.9103380720488

>  <Genealogy>  (96) 
C[C@@H](C(=O)[O-])N(C)C(=O)n1c(C([NH-])=O)cc2ccc(C(F)F)cc21 (protonated)
C[C@@H](C(=O)[O-])N(C)C(=O)n1c(C([NH-])=O)cc2ccc(C(F)F)cc21 (3D coordinates assigned)
C[C@@H](C(=O)[O-])N(C)C(=O)n1c(C([NH-])=O)cc2ccc(C(F)F)cc21 (optimized conformer: 75.9103380720488 kcal/mol)

>  <smiles>  (96) 
C[C@@H](C(=O)O)N(C)C(=O)n1c(C(N)=O)cc2ccc(C(F)F)cc21

>  <score_type>  (96) 
oracle

>  <origin>  (96) 
adg

>  <m_score__min__energy>  (96) 
-5.8899999999999997

>  <m_primary>  (96) 
energy

$$$$
96:0
     RDKit          3D

 31 32  0  0  0  0  0  0  0  0999 V2000
  149.2270  157.4770  131.8450 N   0  0  0  0  0  0  0  0  0  0  0  0
  148.7920  158.6780  132.4830 C   0  0  0  0  0  0  0  0  0  0  0  0
  149.6040  159.6320  132.6210 O   0  0  0  0  0  0  0  0  0  0  0  0
  147.3930  158.8480  132.9240 C   0  0  0  0  0  0  0  0  0  0  0  0
  146.7260  160.0700  132.8980 C   0  0  0  0  0  0  0  0  0  0  0  0
  145.4460  159.7920  133.3200 C   0  0  0  0  0  0  0  0  0  0  0  0
  144.3630  160.6460  133.5070 C   0  0  0  0  0  0  0  0  0  0  0  0
  143.1680  160.0960  133.9980 C   0  0  0  0  0  0  0  0  0  0  0  0
  143.0710  158.7100  134.2840 C   0  0  0  0  0  0  0  0  0  0  0  0
  141.8020  158.1430  134.8710 C   0  0  0  0  0  0  0  0  0  0  0  0
  141.0510  159.1410  135.4680 F   0  0  0  0  0  0  0  0  0  0  0  0
  141.0300  157.5510  133.8870 F   0  0  0  0  0  0  0  0  0  0  0  0
  142.1270  157.1930  135.8230 F   0  0  0  0  0  0  0  0  0  0  0  0
  144.2020  157.8800  134.1060 C   0  0  0  0  0  0  0  0  0  0  0  0
  145.3750  158.4500  133.5930 C   0  0  0  0  0  0  0  0  0  0  0  0
  146.5670  157.8560  133.3580 N   0  0  0  0  0  0  0  0  0  0  0  0
  146.9090  156.4860  133.6260 C   0  0  0  0  0  0  0  0  0  0  0  0
  146.8770  156.0540  134.8110 O   0  0  0  0  0  0  0  0  0  0  0  0
  147.2720  155.6440  132.5660 O   0  0  0  0  0  0  0  0  0  0  0  0
  148.2690  154.6610  132.6220 C   0  0  0  0  0  0  0  0  0  0  0  0
  149.4490  154.9060  132.2460 O   0  0  0  0  0  0  0  0  0  0  0  0
  147.9440  153.3210  133.1960 C   0  0  0  0  0  0  0  0  0  0  0  0
  146.6430  152.9740  132.8810 F   0  0  0  0  0  0  0  0  0  0  0  0
  148.8070  152.3770  132.6720 F   0  0  0  0  0  0  0  0  0  0  0  0
  148.0810  153.3490  134.5710 F   0  0  0  0  0  0  0  0  0  0  0  0
  150.2290  157.3590  131.5770 H   0  0  0  0  0  0  0  0  0  0  0  0
  148.5440  156.7400  131.5620 H   0  0  0  0  0  0  0  0  0  0  0  0
  147.1346  161.0479  132.6033 H   0  0  0  0  0  0  0  0  0  0  0  0
  144.4409  161.7189  133.2772 H   0  0  0  0  0  0  0  0  0  0  0  0
  142.2971  160.7474  134.1628 H   0  0  0  0  0  0  0  0  0  0  0  0
  144.1620  156.8115  134.3643 H   0  0  0  0  0  0  0  0  0  0  0  0
  1  2  1  0
  2  3  2  0
  2  4  1  0
  4  5  2  0
  5  6  1  0
  6  7  2  0
  7  8  1  0
  8  9  2  0
  9 10  1  0
 10 11  1  0
 10 12  1  0
 10 13  1  0
  9 14  1  0
 14 15  2  0
 15 16  1  0
 16 17  1  0
 17 18  2  0
 17 19  1  0
 19 20  1  0
 20 21  2  0
 20 22  1  0
 22 23  1  0
 22 24  1  0
 22 25  1  0
 16  4  1  0
 15  6  1  0
  1 26  1  0
  1 27  1  0
  5 28  1  0
  7 29  1  0
  8 30  1  0
 14 31  1  0
M  END
>  <UniqueID>  (97) 
96

>  <SMILES>  (97) 
NC(=O)c1cc2ccc(C(F)(F)F)cc2n1C(=O)OC(=O)C(F)(F)F

>  <Energy>  (97) 
71.10905757629199

>  <Genealogy>  (97) 
NC(=O)c1cc2ccc(C(F)(F)F)cc2n1C(=O)OC(=O)C(F)(F)F (3D coordinates assigned)
NC(=O)c1cc2ccc(C(F)(F)F)cc2n1C(=O)OC(=O)C(F)(F)F (optimized conformer: 71.10905757629199 kcal/mol)

>  <smiles>  (97) 
NC(=O)c1cc2ccc(C(F)(F)F)cc2n1C(=O)OC(=O)C(F)(F)F

>  <score_type>  (97) 
oracle

>  <origin>  (97) 
adg

>  <m_score__min__energy>  (97) 
-6.0999999999999996

>  <m_primary>  (97) 
energy

$$$$
97:0
     RDKit          3D

 59 60  0  0  0  0  0  0  0  0999 V2000
  138.0810  158.7440  131.0640 C   0  0  0  0  0  0  0  0  0  0  0  0
  139.2830  158.9610  131.8910 N   0  0  0  0  0  0  0  0  0  0  0  0
  139.4900  160.4070  132.0810 C   0  0  0  0  0  0  0  0  0  0  0  0
  139.1570  158.2910  133.2040 C   0  0  0  0  0  0  0  0  0  0  0  0
  139.4580  156.7830  133.1190 C   0  0  0  0  0  0  0  0  0  0  0  0
  140.5030  156.2870  134.1400 C   0  0  0  0  0  0  0  0  0  0  0  0
  141.2360  155.0120  133.6890 C   0  0  0  0  0  0  0  0  0  0  0  0
  142.5170  155.3350  133.0660 N   0  0  0  0  0  0  0  0  0  0  0  0
  143.7660  154.8110  133.5500 C   0  0  0  0  0  0  0  0  0  0  0  0
  143.8100  154.1290  134.6120 O   0  0  0  0  0  0  0  0  0  0  0  0
  145.0290  155.0380  132.7740 C   0  0  0  0  0  0  0  0  0  0  0  0
  145.5250  156.4410  132.9900 C   0  0  0  0  0  0  0  0  0  0  0  0
  146.8950  156.7540  132.8060 C   0  0  0  0  0  0  0  0  0  0  0  0
  147.3590  158.0680  132.9810 C   0  0  0  0  0  0  0  0  0  0  0  0
  146.4310  159.0470  133.3240 C   0  0  0  0  0  0  0  0  0  0  0  0
  146.6090  160.3910  133.5570 C   0  0  0  0  0  0  0  0  0  0  0  0
  145.3410  160.8860  133.8560 C   0  0  0  0  0  0  0  0  0  0  0  0
  145.0600  162.3150  134.1110 C   0  0  0  0  0  0  0  0  0  0  0  0
  145.9890  163.0990  134.8590 N   0  0  0  0  0  0  0  0  0  0  0  0
  144.0220  162.8610  133.6530 O   0  0  0  0  0  0  0  0  0  0  0  0
  144.4130  159.8860  133.8120 N   0  0  0  0  0  0  0  0  0  0  0  0
  143.0090  159.9850  134.1020 C   0  0  0  0  0  0  0  0  0  0  0  0
  142.2790  160.7320  133.3950 O   0  0  0  0  0  0  0  0  0  0  0  0
  142.3820  159.1420  135.1790 C   0  0  0  0  0  0  0  0  0  0  0  0
  141.0240  159.7130  135.6160 C   0  0  0  0  0  0  0  0  0  0  0  0
  140.2110  158.7100  136.4490 C   0  0  0  0  0  0  0  0  0  0  0  0
  141.0780  157.9320  137.3950 C   0  0  0  0  0  0  0  0  0  0  0  0
  141.7570  158.5340  138.2710 O   0  0  0  0  0  0  0  0  0  0  0  0
  141.1250  156.5430  137.3170 O   0  0  0  0  0  0  0  0  0  0  0  0
  145.0980  158.7660  133.4890 C   0  0  0  0  0  0  0  0  0  0  0  0
  144.6140  157.4600  133.3500 C   0  0  0  0  0  0  0  0  0  0  0  0
  137.2100  158.5868  131.7172 H   0  0  0  0  0  0  0  0  0  0  0  0
  137.9087  159.6256  130.4290 H   0  0  0  0  0  0  0  0  0  0  0  0
  138.2279  157.8579  130.4290 H   0  0  0  0  0  0  0  0  0  0  0  0
  139.5226  160.6345  133.1567 H   0  0  0  0  0  0  0  0  0  0  0  0
  140.4401  160.7059  131.6141 H   0  0  0  0  0  0  0  0  0  0  0  0
  138.6619  160.9604  131.6141 H   0  0  0  0  0  0  0  0  0  0  0  0
  139.8645  158.7543  133.9074 H   0  0  0  0  0  0  0  0  0  0  0  0
  138.1179  158.4092  133.5450 H   0  0  0  0  0  0  0  0  0  0  0  0
  138.5204  156.2341  133.2910 H   0  0  0  0  0  0  0  0  0  0  0  0
  139.8817  156.6016  132.1202 H   0  0  0  0  0  0  0  0  0  0  0  0
  141.2474  157.0824  134.2923 H   0  0  0  0  0  0  0  0  0  0  0  0
  139.9630  156.0422  135.0665 H   0  0  0  0  0  0  0  0  0  0  0  0
  141.4139  154.3709  134.5650 H   0  0  0  0  0  0  0  0  0  0  0  0
  140.6093  154.4913  132.9500 H   0  0  0  0  0  0  0  0  0  0  0  0
  142.5130  155.8340  132.1490 H   0  0  0  0  0  0  0  0  0  0  0  0
  145.7960  154.3253  133.1113 H   0  0  0  0  0  0  0  0  0  0  0  0
  144.8245  154.8900  131.7034 H   0  0  0  0  0  0  0  0  0  0  0  0
  147.6018  155.9600  132.5233 H   0  0  0  0  0  0  0  0  0  0  0  0
  148.4228  158.3157  132.8510 H   0  0  0  0  0  0  0  0  0  0  0  0
  147.5523  160.9554  133.5160 H   0  0  0  0  0  0  0  0  0  0  0  0
  146.9950  162.8290  134.9160 H   0  0  0  0  0  0  0  0  0  0  0  0
  142.2348  158.1217  134.7951 H   0  0  0  0  0  0  0  0  0  0  0  0
  143.0531  159.1371  136.0506 H   0  0  0  0  0  0  0  0  0  0  0  0
  141.1976  160.6159  136.2199 H   0  0  0  0  0  0  0  0  0  0  0  0
  140.4471  159.9422  134.7079 H   0  0  0  0  0  0  0  0  0  0  0  0
  139.4562  159.2602  137.0299 H   0  0  0  0  0  0  0  0  0  0  0  0
  139.7386  157.9974  135.7568 H   0  0  0  0  0  0  0  0  0  0  0  0
  143.5508  157.2323  133.5168 H   0  0  0  0  0  0  0  0  0  0  0  0
  1  2  1  0
  2  3  1  0
  2  4  1  0
  4  5  1  0
  5  6  1  0
  6  7  1  0
  7  8  1  0
  8  9  1  0
  9 10  2  0
  9 11  1  0
 11 12  1  0
 12 13  2  0
 13 14  1  0
 14 15  2  0
 15 16  1  0
 16 17  2  0
 17 18  1  0
 18 19  1  0
 18 20  2  0
 17 21  1  0
 21 22  1  0
 22 23  2  0
 22 24  1  0
 24 25  1  0
 25 26  1  0
 26 27  1  0
 27 28  2  0
 27 29  1  0
 21 30  1  0
 30 31  2  0
 31 12  1  0
 30 15  1  0
  1 32  1  0
  1 33  1  0
  1 34  1  0
  3 35  1  0
  3 36  1  0
  3 37  1  0
  4 38  1  0
  4 39  1  0
  5 40  1  0
  5 41  1  0
  6 42  1  0
  6 43  1  0
  7 44  1  0
  7 45  1  0
  8 46  1  0
 11 47  1  0
 11 48  1  0
 13 49  1  0
 14 50  1  0
 16 51  1  0
 19 52  1  0
 24 53  1  0
 24 54  1  0
 25 55  1  0
 25 56  1  0
 26 57  1  0
 26 58  1  0
 31 59  1  0
M  CHG  2  19  -1  29  -1
M  END
>  <UniqueID>  (98) 
97

>  <SMILES>  (98) 
CN(C)CCCCNC(=O)Cc1ccc2cc(C([NH-])=O)n(C(=O)CCCC(=O)[O-])c2c1

>  <Energy>  (98) 
83.92711423691568

>  <Genealogy>  (98) 
CN(C)CCCCNC(=O)Cc1ccc2cc(C([NH-])=O)n(C(=O)CCCC(=O)[O-])c2c1 (protonated)
CN(C)CCCCNC(=O)Cc1ccc2cc(C([NH-])=O)n(C(=O)CCCC(=O)[O-])c2c1 (3D coordinates assigned)
CN(C)CCCCNC(=O)Cc1ccc2cc(C([NH-])=O)n(C(=O)CCCC(=O)[O-])c2c1 (optimized conformer: 83.92711423691568 kcal/mol)

>  <smiles>  (98) 
CN(C)CCCCNC(=O)Cc1ccc2cc(C(N)=O)n(C(=O)CCCC(=O)O)c2c1

>  <score_type>  (98) 
oracle

>  <origin>  (98) 
adg

>  <m_score__min__energy>  (98) 
-8.8499999999999996

>  <m_primary>  (98) 
energy

$$$$
99:0
     RDKit          3D

 45 46  0  0  0  0  0  0  0  0999 V2000
  143.4000  155.8340  134.9450 C   0  0  0  0  0  0  0  0  0  0  0  0
  143.1970  157.1330  134.7380 C   0  0  0  0  0  0  0  0  0  0  0  0
  143.6260  157.8220  133.5070 C   0  0  0  0  0  0  0  0  0  0  0  0
  142.8260  157.8940  132.5370 O   0  0  0  0  0  0  0  0  0  0  0  0
  144.9280  158.4210  133.3930 N   0  0  0  0  0  0  0  0  0  0  0  0
  145.2510  159.7380  133.5120 C   0  0  0  0  0  0  0  0  0  0  0  0
  144.2930  160.8550  133.6640 C   0  0  0  0  0  0  0  0  0  0  0  0
  142.9100  160.6820  133.3680 N   0  0  0  0  0  0  0  0  0  0  0  0
  144.7070  161.9850  134.0370 O   0  0  0  0  0  0  0  0  0  0  0  0
  146.6330  159.9090  133.4290 C   0  0  0  0  0  0  0  0  0  0  0  0
  147.1470  158.6430  133.2590 C   0  0  0  0  0  0  0  0  0  0  0  0
  148.4650  158.2190  133.1340 C   0  0  0  0  0  0  0  0  0  0  0  0
  148.7040  156.8420  132.9960 C   0  0  0  0  0  0  0  0  0  0  0  0
  147.6300  155.9090  132.9950 C   0  0  0  0  0  0  0  0  0  0  0  0
  147.8830  154.4900  132.8640 N   0  0  0  0  0  0  0  0  0  0  0  0
  146.8070  153.5350  133.1520 C   0  0  0  0  0  0  0  0  0  0  0  0
  149.2140  153.9870  132.4840 C   0  0  0  0  0  0  0  0  0  0  0  0
  149.1030  152.5910  131.8440 C   0  0  0  0  0  0  0  0  0  0  0  0
  150.2160  151.6930  132.2370 N   0  0  0  0  0  0  0  0  0  0  0  0
  150.3580  150.6120  131.2450 C   0  0  0  0  0  0  0  0  0  0  0  0
  149.9970  151.1100  133.5740 C   0  0  0  0  0  0  0  0  0  0  0  0
  146.3040  156.3870  133.1280 C   0  0  0  0  0  0  0  0  0  0  0  0
  146.0970  157.7640  133.2460 C   0  0  0  0  0  0  0  0  0  0  0  0
  143.0606  155.3666  135.8811 H   0  0  0  0  0  0  0  0  0  0  0  0
  143.9072  155.2278  134.1799 H   0  0  0  0  0  0  0  0  0  0  0  0
  142.6876  157.7174  135.5184 H   0  0  0  0  0  0  0  0  0  0  0  0
  142.6020  160.0480  132.5970 H   0  0  0  0  0  0  0  0  0  0  0  0
  147.1929  160.8541  133.4870 H   0  0  0  0  0  0  0  0  0  0  0  0
  149.2955  158.9402  133.1429 H   0  0  0  0  0  0  0  0  0  0  0  0
  149.7368  156.4795  132.8871 H   0  0  0  0  0  0  0  0  0  0  0  0
  146.6904  153.4315  134.2409 H   0  0  0  0  0  0  0  0  0  0  0  0
  145.8658  153.9005  132.7155 H   0  0  0  0  0  0  0  0  0  0  0  0
  147.0582  152.5571  132.7155 H   0  0  0  0  0  0  0  0  0  0  0  0
  149.6701  154.6805  131.7621 H   0  0  0  0  0  0  0  0  0  0  0  0
  149.8371  153.9145  133.3876 H   0  0  0  0  0  0  0  0  0  0  0  0
  148.1534  152.1336  132.1588 H   0  0  0  0  0  0  0  0  0  0  0  0
  149.1489  152.7204  130.7526 H   0  0  0  0  0  0  0  0  0  0  0  0
  151.1130  152.2330  132.2490 H   0  0  0  0  0  0  0  0  0  0  0  0
  150.4842  149.6511  131.7653 H   0  0  0  0  0  0  0  0  0  0  0  0
  149.4574  150.5721  130.6147 H   0  0  0  0  0  0  0  0  0  0  0  0
  151.2384  150.8061  130.6147 H   0  0  0  0  0  0  0  0  0  0  0  0
  150.2732  151.8451  134.3443 H   0  0  0  0  0  0  0  0  0  0  0  0
  148.9365  150.8409  133.6874 H   0  0  0  0  0  0  0  0  0  0  0  0
  150.6180  150.2092  133.6874 H   0  0  0  0  0  0  0  0  0  0  0  0
  145.4541  155.6888  133.1383 H   0  0  0  0  0  0  0  0  0  0  0  0
  1  2  2  0
  2  3  1  0
  3  4  2  0
  3  5  1  0
  5  6  1  0
  6  7  1  0
  7  8  1  0
  7  9  2  0
  6 10  2  0
 10 11  1  0
 11 12  2  0
 12 13  1  0
 13 14  2  0
 14 15  1  0
 15 16  1  0
 15 17  1  0
 17 18  1  0
 18 19  1  0
 19 20  1  0
 19 21  1  0
 14 22  1  0
 22 23  2  0
 23  5  1  0
 23 11  1  0
  1 24  1  0
  1 25  1  0
  2 26  1  0
  8 27  1  0
 10 28  1  0
 12 29  1  0
 13 30  1  0
 16 31  1  0
 16 32  1  0
 16 33  1  0
 17 34  1  0
 17 35  1  0
 18 36  1  0
 18 37  1  0
 19 38  1  0
 20 39  1  0
 20 40  1  0
 20 41  1  0
 21 42  1  0
 21 43  1  0
 21 44  1  0
 22 45  1  0
M  CHG  2   8  -1  19   1
M  END
>  <UniqueID>  (99) 
98

>  <SMILES>  (99) 
C=CC(=O)n1c(C([NH-])=O)cc2ccc(N(C)CC[NH+](C)C)cc21

>  <Energy>  (99) 
84.52456117946906

>  <Genealogy>  (99) 
C=CC(=O)n1c(C([NH-])=O)cc2ccc(N(C)CC[NH+](C)C)cc21 (protonated)
C=CC(=O)n1c(C([NH-])=O)cc2ccc(N(C)CC[NH+](C)C)cc21 (3D coordinates assigned)
C=CC(=O)n1c(C([NH-])=O)cc2ccc(N(C)CC[NH+](C)C)cc21 (optimized conformer: 84.52456117946906 kcal/mol)

>  <smiles>  (99) 
C=CC(=O)n1c(C(N)=O)cc2ccc(N(C)CCN(C)C)cc21

>  <score_type>  (99) 
oracle

>  <origin>  (99) 
adg

>  <m_score__min__energy>  (99) 
-6.29

>  <m_primary>  (99) 
energy

$$$$
