0:0
     RDKit          3D

 43 45  0  0  0  0  0  0  0  0999 V2000
  139.3700  147.8450  130.5320 C   0  0  0  0  0  0  0  0  0  0  0  0
  140.2260  149.0400  130.4480 N   0  0  0  0  0  0  0  0  0  0  0  0
  141.1810  149.1010  131.5700 C   0  0  0  0  0  0  0  0  0  0  0  0
  140.5100  150.3270  132.1640 C   0  0  0  0  0  0  0  0  0  0  0  0
  141.3210  151.5580  132.1960 N   0  0  0  0  0  0  0  0  0  0  0  0
  141.4930  152.5270  133.2580 C   0  0  0  0  0  0  0  0  0  0  0  0
  142.3090  152.2940  134.4010 C   0  0  0  0  0  0  0  0  0  0  0  0
  142.4570  153.2750  135.3960 C   0  0  0  0  0  0  0  0  0  0  0  0
  141.8000  154.4870  135.2230 C   0  0  0  0  0  0  0  0  0  0  0  0
  141.7610  155.5940  136.0380 C   0  0  0  0  0  0  0  0  0  0  0  0
  140.9560  156.5110  135.3710 C   0  0  0  0  0  0  0  0  0  0  0  0
  140.7100  157.8800  135.8610 C   0  0  0  0  0  0  0  0  0  0  0  0
  139.3830  158.3930  135.9800 N   0  0  0  0  0  0  0  0  0  0  0  0
  141.6890  158.6300  136.1260 O   0  0  0  0  0  0  0  0  0  0  0  0
  140.5020  155.9920  134.1960 N   0  0  0  0  0  0  0  0  0  0  0  0
  139.5560  156.5880  133.2900 C   0  0  0  0  0  0  0  0  0  0  0  0
  139.1100  155.9240  132.3150 O   0  0  0  0  0  0  0  0  0  0  0  0
  139.1110  157.8990  133.5120 O   0  0  0  0  0  0  0  0  0  0  0  0
  139.4930  159.0100  132.7020 C   0  0  0  0  0  0  0  0  0  0  0  0
  138.5200  159.2050  131.5420 C   0  0  0  0  0  0  0  0  0  0  0  0
  137.2990  158.6280  131.8370 F   0  0  0  0  0  0  0  0  0  0  0  0
  138.3340  160.5570  131.3200 F   0  0  0  0  0  0  0  0  0  0  0  0
  139.0350  158.6280  130.3960 F   0  0  0  0  0  0  0  0  0  0  0  0
  141.0320  154.7490  134.1190 C   0  0  0  0  0  0  0  0  0  0  0  0
  140.8490  153.7800  133.1250 C   0  0  0  0  0  0  0  0  0  0  0  0
  139.5470  150.2290  130.9970 C   0  0  0  0  0  0  0  0  0  0  0  0
  139.1913  147.5955  131.5883 H   0  0  0  0  0  0  0  0  0  0  0  0
  138.4094  148.0464  130.0352 H   0  0  0  0  0  0  0  0  0  0  0  0
  139.8697  147.0003  130.0352 H   0  0  0  0  0  0  0  0  0  0  0  0
  141.1439  148.2191  132.2264 H   0  0  0  0  0  0  0  0  0  0  0  0
  142.2587  149.1354  131.3522 H   0  0  0  0  0  0  0  0  0  0  0  0
  140.1814  150.3612  133.2132 H   0  0  0  0  0  0  0  0  0  0  0  0
  141.7360  151.8110  131.2710 H   0  0  0  0  0  0  0  0  0  0  0  0
  142.8314  151.3318  134.5068 H   0  0  0  0  0  0  0  0  0  0  0  0
  143.0753  153.0888  136.2865 H   0  0  0  0  0  0  0  0  0  0  0  0
  142.2598  155.7259  137.0095 H   0  0  0  0  0  0  0  0  0  0  0  0
  138.5630  157.8500  135.6330 H   0  0  0  0  0  0  0  0  0  0  0  0
  139.2260  159.3560  136.3530 H   0  0  0  0  0  0  0  0  0  0  0  0
  139.5014  159.9195  133.3206 H   0  0  0  0  0  0  0  0  0  0  0  0
  140.4936  158.8137  132.2894 H   0  0  0  0  0  0  0  0  0  0  0  0
  140.2131  153.9900  132.2523 H   0  0  0  0  0  0  0  0  0  0  0  0
  138.5071  150.0389  131.3012 H   0  0  0  0  0  0  0  0  0  0  0  0
  139.4029  151.1067  130.3498 H   0  0  0  0  0  0  0  0  0  0  0  0
  1  2  1  0
  2  3  1  0
  3  4  1  0
  4  5  1  0
  5  6  1  0
  6  7  2  0
  7  8  1  0
  8  9  2  0
  9 10  1  0
 10 11  2  0
 11 12  1  0
 12 13  1  0
 12 14  2  0
 11 15  1  0
 15 16  1  0
 16 17  2  0
 16 18  1  0
 18 19  1  0
 19 20  1  0
 20 21  1  0
 20 22  1  0
 20 23  1  0
 15 24  1  0
 24 25  2  0
  4 26  1  0
 26  2  1  0
 25  6  1  0
 24  9  1  0
  1 27  1  0
  1 28  1  0
  1 29  1  0
  3 30  1  0
  3 31  1  0
  4 32  1  0
  5 33  1  0
  7 34  1  0
  8 35  1  0
 10 36  1  0
 13 37  1  0
 13 38  1  0
 19 39  1  0
 19 40  1  0
 25 41  1  0
 26 42  1  0
 26 43  1  0
M  END
>  <UniqueID>  (1) 
1

>  <SMILES>  (1) 
CN1CC(Nc2ccc3cc(C(N)=O)n(C(=O)OCC(F)(F)F)c3c2)C1

>  <Energy>  (1) 
157.18462079256605

>  <Genealogy>  (1) 
CN1CC(Nc2ccc3cc(C(N)=O)n(C(=O)OCC(F)(F)F)c3c2)C1 (3D coordinates assigned)
CN1CC(Nc2ccc3cc(C(N)=O)n(C(=O)OCC(F)(F)F)c3c2)C1 (nonaromatic ring conformer: 157.18462079256605 kcal/mol)

>  <smiles>  (1) 
CN1CC(Nc2ccc3cc(C(N)=O)n(C(=O)OCC(F)(F)F)c3c2)C1

>  <score_type>  (1) 
oracle

>  <origin>  (1) 
adg

>  <m_score__min__energy>  (1) 
-7.2699999999999996

>  <m_primary>  (1) 
energy

$$$$
1:0
     RDKit          3D

 46 48  0  0  0  0  0  0  0  0999 V2000
  148.5240  161.0030  130.3840 C   0  0  0  0  0  0  0  0  0  0  0  0
  148.9920  160.1750  131.5050 N   0  0  0  0  0  0  0  0  0  0  0  0
  148.0860  160.2840  132.6750 C   0  0  0  0  0  0  0  0  0  0  0  0
  147.0880  159.1170  132.7500 C   0  0  0  0  0  0  0  0  0  0  0  0
  147.7640  157.7950  132.8060 N   0  0  0  0  0  0  0  0  0  0  0  0
  147.7310  157.1780  134.1510 C   0  0  0  0  0  0  0  0  0  0  0  0
  147.3040  155.7080  134.0710 C   0  0  0  0  0  0  0  0  0  0  0  0
  146.2670  155.4970  133.0580 N   0  0  0  0  0  0  0  0  0  0  0  0
  145.5030  154.2840  132.8890 C   0  0  0  0  0  0  0  0  0  0  0  0
  146.1910  153.0780  132.6070 C   0  0  0  0  0  0  0  0  0  0  0  0
  145.5000  151.8610  132.4910 C   0  0  0  0  0  0  0  0  0  0  0  0
  144.1200  151.8770  132.6570 C   0  0  0  0  0  0  0  0  0  0  0  0
  143.2170  150.8390  132.6520 C   0  0  0  0  0  0  0  0  0  0  0  0
  141.9790  151.4270  132.9070 C   0  0  0  0  0  0  0  0  0  0  0  0
  140.7090  150.6710  132.9180 C   0  0  0  0  0  0  0  0  0  0  0  0
  139.6460  151.0100  132.0330 N   0  0  0  0  0  0  0  0  0  0  0  0
  140.5790  149.6810  133.6870 O   0  0  0  0  0  0  0  0  0  0  0  0
  142.1130  152.7730  133.0680 N   0  0  0  0  0  0  0  0  0  0  0  0
  141.1020  153.7200  133.4520 C   0  0  0  0  0  0  0  0  0  0  0  0
  141.2300  154.3950  134.5060 O   0  0  0  0  0  0  0  0  0  0  0  0
  139.9850  153.9180  132.6490 O   0  0  0  0  0  0  0  0  0  0  0  0
  143.4290  153.0340  132.9070 C   0  0  0  0  0  0  0  0  0  0  0  0
  144.0920  154.2590  133.0320 C   0  0  0  0  0  0  0  0  0  0  0  0
  149.1290  157.8000  132.2310 C   0  0  0  0  0  0  0  0  0  0  0  0
  149.2220  158.7810  131.0580 C   0  0  0  0  0  0  0  0  0  0  0  0
  148.0182  161.8980  130.7754 H   0  0  0  0  0  0  0  0  0  0  0  0
  149.3837  161.3072  129.7689 H   0  0  0  0  0  0  0  0  0  0  0  0
  147.8199  160.4234  129.7689 H   0  0  0  0  0  0  0  0  0  0  0  0
  148.6924  160.2906  133.5927 H   0  0  0  0  0  0  0  0  0  0  0  0
  147.5089  161.2144  132.5686 H   0  0  0  0  0  0  0  0  0  0  0  0
  146.4717  159.2370  133.6532 H   0  0  0  0  0  0  0  0  0  0  0  0
  146.4750  159.1413  131.8370 H   0  0  0  0  0  0  0  0  0  0  0  0
  148.7341  157.2373  134.5986 H   0  0  0  0  0  0  0  0  0  0  0  0
  147.0007  157.7219  134.7681 H   0  0  0  0  0  0  0  0  0  0  0  0
  148.1814  155.0958  133.8152 H   0  0  0  0  0  0  0  0  0  0  0  0
  146.8910  155.4182  135.0485 H   0  0  0  0  0  0  0  0  0  0  0  0
  146.0740  156.2960  132.4120 H   0  0  0  0  0  0  0  0  0  0  0  0
  147.2831  153.0952  132.4769 H   0  0  0  0  0  0  0  0  0  0  0  0
  146.0343  150.9239  132.2754 H   0  0  0  0  0  0  0  0  0  0  0  0
  143.4271  149.7726  132.4829 H   0  0  0  0  0  0  0  0  0  0  0  0
  139.4780  152.0010  131.7490 H   0  0  0  0  0  0  0  0  0  0  0  0
  143.5314  155.1830  133.2367 H   0  0  0  0  0  0  0  0  0  0  0  0
  149.8469  158.0991  133.0090 H   0  0  0  0  0  0  0  0  0  0  0  0
  149.3606  156.7891  131.8642 H   0  0  0  0  0  0  0  0  0  0  0  0
  150.2235  158.7090  130.6087 H   0  0  0  0  0  0  0  0  0  0  0  0
  148.4470  158.5189  130.3227 H   0  0  0  0  0  0  0  0  0  0  0  0
  1  2  1  0
  2  3  1  0
  3  4  1  0
  4  5  1  0
  5  6  1  0
  6  7  1  0
  7  8  1  0
  8  9  1  0
  9 10  2  0
 10 11  1  0
 11 12  2  0
 12 13  1  0
 13 14  2  0
 14 15  1  0
 15 16  1  0
 15 17  2  0
 14 18  1  0
 18 19  1  0
 19 20  2  0
 19 21  1  0
 18 22  1  0
 22 23  2  0
  5 24  1  0
 24 25  1  0
 25  2  1  0
 23  9  1  0
 22 12  1  0
  1 26  1  0
  1 27  1  0
  1 28  1  0
  3 29  1  0
  3 30  1  0
  4 31  1  0
  4 32  1  0
  6 33  1  0
  6 34  1  0
  7 35  1  0
  7 36  1  0
  8 37  1  0
 10 38  1  0
 11 39  1  0
 13 40  1  0
 16 41  1  0
 23 42  1  0
 24 43  1  0
 24 44  1  0
 25 45  1  0
 25 46  1  0
M  CHG  2  16  -1  21  -1
M  END
>  <UniqueID>  (2) 
2

>  <SMILES>  (2) 
CN1CCN(CCNc2ccc3cc(C([NH-])=O)n(C(=O)[O-])c3c2)CC1

>  <Energy>  (2) 
98.26438383750198

>  <Genealogy>  (2) 
CN1CCN(CCNc2ccc3cc(C([NH-])=O)n(C(=O)[O-])c3c2)CC1 (protonated)
CN1CCN(CCNc2ccc3cc(C([NH-])=O)n(C(=O)[O-])c3c2)CC1 (3D coordinates assigned)
CN1CCN(CCNc2ccc3cc(C([NH-])=O)n(C(=O)[O-])c3c2)CC1 (nonaromatic ring conformer: 98.26438383750198 kcal/mol)

>  <smiles>  (2) 
CN1CCN(CCNc2ccc3cc(C(N)=O)n(C(=O)O)c3c2)CC1

>  <score_type>  (2) 
oracle

>  <origin>  (2) 
adg

>  <m_score__min__energy>  (2) 
-7.8300000000000001

>  <m_primary>  (2) 
energy

$$$$
2:0
     RDKit          3D

 43 44  0  0  0  0  0  0  0  0999 V2000
  149.9810  160.6810  131.0550 C   0  0  0  0  0  0  0  0  0  0  0  0
  149.1480  159.6590  131.8600 C   0  0  0  0  0  0  0  0  0  0  0  0
  148.6010  158.6080  130.8780 C   0  0  0  0  0  0  0  0  0  0  0  0
  149.9810  159.0090  132.7880 O   0  0  0  0  0  0  0  0  0  0  0  0
  147.9870  160.4030  132.5840 C   0  0  0  0  0  0  0  0  0  0  0  0
  146.5610  159.9290  132.2240 C   0  0  0  0  0  0  0  0  0  0  0  0
  145.6920  159.6160  133.4150 C   0  0  0  0  0  0  0  0  0  0  0  0
  145.2170  160.5460  134.1240 O   0  0  0  0  0  0  0  0  0  0  0  0
  145.2700  158.2660  133.6560 N   0  0  0  0  0  0  0  0  0  0  0  0
  146.0600  157.1620  133.7880 C   0  0  0  0  0  0  0  0  0  0  0  0
  147.5390  157.1510  133.7990 C   0  0  0  0  0  0  0  0  0  0  0  0
  148.2740  157.8320  134.8120 N   0  0  0  0  0  0  0  0  0  0  0  0
  148.1630  156.5080  132.9120 O   0  0  0  0  0  0  0  0  0  0  0  0
  145.2780  156.0220  133.9610 C   0  0  0  0  0  0  0  0  0  0  0  0
  143.9740  156.4650  133.9300 C   0  0  0  0  0  0  0  0  0  0  0  0
  142.7820  155.7550  134.0480 C   0  0  0  0  0  0  0  0  0  0  0  0
  141.5770  156.4730  133.9570 C   0  0  0  0  0  0  0  0  0  0  0  0
  141.5870  157.8730  133.7330 C   0  0  0  0  0  0  0  0  0  0  0  0
  140.2920  158.6350  133.6580 C   0  0  0  0  0  0  0  0  0  0  0  0
  139.2170  157.8920  134.3840 C   0  0  0  0  0  0  0  0  0  0  0  0
  139.1850  157.8950  135.8090 N   0  0  0  0  0  0  0  0  0  0  0  0
  138.3580  157.2320  133.7390 O   0  0  0  0  0  0  0  0  0  0  0  0
  142.8160  158.5580  133.6290 C   0  0  0  0  0  0  0  0  0  0  0  0
  143.9990  157.8220  133.7420 C   0  0  0  0  0  0  0  0  0  0  0  0
  150.5202  161.3425  131.7491 H   0  0  0  0  0  0  0  0  0  0  0  0
  150.7042  160.1467  130.4213 H   0  0  0  0  0  0  0  0  0  0  0  0
  149.3118  161.2816  130.4213 H   0  0  0  0  0  0  0  0  0  0  0  0
  148.1651  157.7705  131.4425 H   0  0  0  0  0  0  0  0  0  0  0  0
  147.8267  159.0658  130.2448 H   0  0  0  0  0  0  0  0  0  0  0  0
  149.4201  158.2365  130.2448 H   0  0  0  0  0  0  0  0  0  0  0  0
  149.4830  158.2330  133.1550 H   0  0  0  0  0  0  0  0  0  0  0  0
  148.1240  160.2704  133.6673 H   0  0  0  0  0  0  0  0  0  0  0  0
  148.0481  161.4499  132.2520 H   0  0  0  0  0  0  0  0  0  0  0  0
  146.0717  160.7221  131.6395 H   0  0  0  0  0  0  0  0  0  0  0  0
  146.6738  158.9906  131.6612 H   0  0  0  0  0  0  0  0  0  0  0  0
  149.2560  158.1450  134.6460 H   0  0  0  0  0  0  0  0  0  0  0  0
  145.6277  154.9876  134.0941 H   0  0  0  0  0  0  0  0  0  0  0  0
  142.7833  154.6666  134.2074 H   0  0  0  0  0  0  0  0  0  0  0  0
  140.6180  155.9442  134.0605 H   0  0  0  0  0  0  0  0  0  0  0  0
  140.4250  159.6250  134.1187 H   0  0  0  0  0  0  0  0  0  0  0  0
  140.0017  158.7494  132.6032 H   0  0  0  0  0  0  0  0  0  0  0  0
  138.7100  158.6620  136.3340 H   0  0  0  0  0  0  0  0  0  0  0  0
  142.8426  159.6451  133.4630 H   0  0  0  0  0  0  0  0  0  0  0  0
  1  2  1  0
  2  3  1  0
  2  4  1  0
  2  5  1  0
  5  6  1  0
  6  7  1  0
  7  8  2  0
  7  9  1  0
  9 10  1  0
 10 11  1  0
 11 12  1  0
 11 13  2  0
 10 14  2  0
 14 15  1  0
 15 16  2  0
 16 17  1  0
 17 18  2  0
 18 19  1  0
 19 20  1  0
 20 21  1  0
 20 22  2  0
 18 23  1  0
 23 24  2  0
 24  9  1  0
 24 15  1  0
  1 25  1  0
  1 26  1  0
  1 27  1  0
  3 28  1  0
  3 29  1  0
  3 30  1  0
  4 31  1  0
  5 32  1  0
  5 33  1  0
  6 34  1  0
  6 35  1  0
 12 36  1  0
 14 37  1  0
 16 38  1  0
 17 39  1  0
 19 40  1  0
 19 41  1  0
 21 42  1  0
 23 43  1  0
M  CHG  2  12  -1  21  -1
M  END
>  <UniqueID>  (3) 
3

>  <SMILES>  (3) 
CC(C)(O)CCC(=O)n1c(C([NH-])=O)cc2ccc(CC([NH-])=O)cc21

>  <Energy>  (3) 
76.97209950660974

>  <Genealogy>  (3) 
CC(C)(O)CCC(=O)n1c(C([NH-])=O)cc2ccc(CC([NH-])=O)cc21 (protonated)
CC(C)(O)CCC(=O)n1c(C([NH-])=O)cc2ccc(CC([NH-])=O)cc21 (3D coordinates assigned)
CC(C)(O)CCC(=O)n1c(C([NH-])=O)cc2ccc(CC([NH-])=O)cc21 (optimized conformer: 76.97209950660974 kcal/mol)

>  <smiles>  (3) 
CC(C)(O)CCC(=O)n1c(C(N)=O)cc2ccc(CC(N)=O)cc21

>  <score_type>  (3) 
oracle

>  <origin>  (3) 
adg

>  <m_score__min__energy>  (3) 
-7.0499999999999998

>  <m_primary>  (3) 
energy

$$$$
3:0
     RDKit          3D

 32 33  0  0  0  0  0  0  0  0999 V2000
  140.9700  160.7950  133.3490 N   0  0  0  0  0  0  0  0  0  0  0  0
  140.1120  159.8240  132.7540 C   0  0  0  0  0  0  0  0  0  0  0  0
  139.2050  160.2040  131.9670 O   0  0  0  0  0  0  0  0  0  0  0  0
  140.3090  158.3820  133.0040 C   0  0  0  0  0  0  0  0  0  0  0  0
  139.3290  157.4220  132.7590 C   0  0  0  0  0  0  0  0  0  0  0  0
  139.9260  156.2130  133.0330 C   0  0  0  0  0  0  0  0  0  0  0  0
  139.4030  154.9240  132.9760 C   0  0  0  0  0  0  0  0  0  0  0  0
  140.2380  153.8580  133.3500 C   0  0  0  0  0  0  0  0  0  0  0  0
  141.5700  154.0970  133.7700 C   0  0  0  0  0  0  0  0  0  0  0  0
  142.4380  152.9520  134.2130 C   0  0  0  0  0  0  0  0  0  0  0  0
  141.6100  151.7200  134.3900 C   0  0  0  0  0  0  0  0  0  0  0  0
  141.4160  150.9420  133.4190 O   0  0  0  0  0  0  0  0  0  0  0  0
  141.0110  151.4560  135.6150 O   0  0  0  0  0  0  0  0  0  0  0  0
  142.0620  155.4210  133.8270 C   0  0  0  0  0  0  0  0  0  0  0  0
  141.2140  156.4620  133.4300 C   0  0  0  0  0  0  0  0  0  0  0  0
  141.4640  157.7910  133.4210 N   0  0  0  0  0  0  0  0  0  0  0  0
  142.6670  158.4360  133.8670 C   0  0  0  0  0  0  0  0  0  0  0  0
  143.6730  158.4810  133.1060 O   0  0  0  0  0  0  0  0  0  0  0  0
  142.7170  158.9880  135.1540 O   0  0  0  0  0  0  0  0  0  0  0  0
  141.6380  159.0510  136.0460 C   0  0  0  0  0  0  0  0  0  0  0  0
  140.9540  160.1030  136.1710 O   0  0  0  0  0  0  0  0  0  0  0  0
  141.2520  157.8270  136.8110 C   0  0  0  0  0  0  0  0  0  0  0  0
  141.3540  158.0680  138.1700 F   0  0  0  0  0  0  0  0  0  0  0  0
  139.9460  157.4740  136.5150 F   0  0  0  0  0  0  0  0  0  0  0  0
  142.0940  156.7870  136.4690 F   0  0  0  0  0  0  0  0  0  0  0  0
  141.5910  160.5460  134.1510 H   0  0  0  0  0  0  0  0  0  0  0  0
  138.2972  157.5942  132.4188 H   0  0  0  0  0  0  0  0  0  0  0  0
  138.3682  154.7458  132.6483 H   0  0  0  0  0  0  0  0  0  0  0  0
  139.8541  152.8277  133.3165 H   0  0  0  0  0  0  0  0  0  0  0  0
  143.2105  152.7653  133.4525 H   0  0  0  0  0  0  0  0  0  0  0  0
  142.9120  153.2088  135.1718 H   0  0  0  0  0  0  0  0  0  0  0  0
  143.0849  155.6281  134.1744 H   0  0  0  0  0  0  0  0  0  0  0  0
  1  2  1  0
  2  3  2  0
  2  4  1  0
  4  5  2  0
  5  6  1  0
  6  7  2  0
  7  8  1  0
  8  9  2  0
  9 10  1  0
 10 11  1  0
 11 12  2  0
 11 13  1  0
  9 14  1  0
 14 15  2  0
 15 16  1  0
 16 17  1  0
 17 18  2  0
 17 19  1  0
 19 20  1  0
 20 21  2  0
 20 22  1  0
 22 23  1  0
 22 24  1  0
 22 25  1  0
 16  4  1  0
 15  6  1  0
  1 26  1  0
  5 27  1  0
  7 28  1  0
  8 29  1  0
 10 30  1  0
 10 31  1  0
 14 32  1  0
M  CHG  2   1  -1  13  -1
M  END
>  <UniqueID>  (4) 
4

>  <SMILES>  (4) 
[NH-]C(=O)c1cc2ccc(CC(=O)[O-])cc2n1C(=O)OC(=O)C(F)(F)F

>  <Energy>  (4) 
69.6077278308016

>  <Genealogy>  (4) 
[NH-]C(=O)c1cc2ccc(CC(=O)[O-])cc2n1C(=O)OC(=O)C(F)(F)F (protonated)
[NH-]C(=O)c1cc2ccc(CC(=O)[O-])cc2n1C(=O)OC(=O)C(F)(F)F (3D coordinates assigned)
[NH-]C(=O)c1cc2ccc(CC(=O)[O-])cc2n1C(=O)OC(=O)C(F)(F)F (optimized conformer: 69.6077278308016 kcal/mol)

>  <smiles>  (4) 
NC(=O)c1cc2ccc(CC(=O)O)cc2n1C(=O)OC(=O)C(F)(F)F

>  <score_type>  (4) 
oracle

>  <origin>  (4) 
adg

>  <m_score__min__energy>  (4) 
-6.4000000000000004

>  <m_primary>  (4) 
energy

$$$$
4:0
     RDKit          3D

 44 45  0  0  0  0  0  0  0  0999 V2000
  139.1040  149.3110  130.3780 C   0  0  0  0  0  0  0  0  0  0  0  0
  139.5140  150.3450  131.2450 O   0  0  0  0  0  0  0  0  0  0  0  0
  140.1780  149.8100  132.3750 C   0  0  0  0  0  0  0  0  0  0  0  0
  141.3170  150.7390  132.8130 C   0  0  0  0  0  0  0  0  0  0  0  0
  141.1420  152.0830  132.2470 N   0  0  0  0  0  0  0  0  0  0  0  0
  141.3660  153.0810  133.2630 C   0  0  0  0  0  0  0  0  0  0  0  0
  142.2530  152.8180  134.3380 C   0  0  0  0  0  0  0  0  0  0  0  0
  142.5090  153.7960  135.3140 C   0  0  0  0  0  0  0  0  0  0  0  0
  141.8670  155.0250  135.1890 C   0  0  0  0  0  0  0  0  0  0  0  0
  141.9620  156.1540  135.9690 C   0  0  0  0  0  0  0  0  0  0  0  0
  141.1290  157.0940  135.3640 C   0  0  0  0  0  0  0  0  0  0  0  0
  140.8740  158.4370  135.9250 C   0  0  0  0  0  0  0  0  0  0  0  0
  140.6390  159.5380  135.0510 N   0  0  0  0  0  0  0  0  0  0  0  0
  140.8990  158.6300  137.1690 O   0  0  0  0  0  0  0  0  0  0  0  0
  140.5450  156.5660  134.2500 N   0  0  0  0  0  0  0  0  0  0  0  0
  139.7020  157.2410  133.3020 C   0  0  0  0  0  0  0  0  0  0  0  0
  138.4500  157.0920  133.3550 O   0  0  0  0  0  0  0  0  0  0  0  0
  140.2750  158.0430  132.3120 O   0  0  0  0  0  0  0  0  0  0  0  0
  139.5170  158.6840  131.2920 C   0  0  1  0  0  0  0  0  0  0  0  0
  138.4480  157.8830  130.9280 F   0  0  0  0  0  0  0  0  0  0  0  0
  139.0120  159.9890  131.8120 C   0  0  0  0  0  0  0  0  0  0  0  0
  139.7840  160.7390  132.4720 O   0  0  0  0  0  0  0  0  0  0  0  0
  137.6700  160.3360  131.6200 O   0  0  0  0  0  0  0  0  0  0  0  0
  136.9910  160.1170  130.3890 C   0  0  0  0  0  0  0  0  0  0  0  0
  141.0040  155.2990  134.1590 C   0  0  0  0  0  0  0  0  0  0  0  0
  140.7440  154.3480  133.1640 C   0  0  0  0  0  0  0  0  0  0  0  0
  138.7624  148.4495  130.9706 H   0  0  0  0  0  0  0  0  0  0  0  0
  138.2800  149.6696  129.7436 H   0  0  0  0  0  0  0  0  0  0  0  0
  139.9498  149.0074  129.7436 H   0  0  0  0  0  0  0  0  0  0  0  0
  139.4594  149.7027  133.2009 H   0  0  0  0  0  0  0  0  0  0  0  0
  140.5985  148.8284  132.1111 H   0  0  0  0  0  0  0  0  0  0  0  0
  141.3237  150.8083  133.9108 H   0  0  0  0  0  0  0  0  0  0  0  0
  142.2689  150.3249  132.4492 H   0  0  0  0  0  0  0  0  0  0  0  0
  141.8190  152.2250  131.4590 H   0  0  0  0  0  0  0  0  0  0  0  0
  140.1720  152.1840  131.8620 H   0  0  0  0  0  0  0  0  0  0  0  0
  142.7462  151.8373  134.4085 H   0  0  0  0  0  0  0  0  0  0  0  0
  143.1951  153.5968  136.1504 H   0  0  0  0  0  0  0  0  0  0  0  0
  142.5672  156.2870  136.8778 H   0  0  0  0  0  0  0  0  0  0  0  0
  140.3900  159.3820  134.0490 H   0  0  0  0  0  0  0  0  0  0  0  0
  140.1523  158.8541  130.4103 H   0  0  0  0  0  0  0  0  0  0  0  0
  135.9620  159.7851  130.5918 H   0  0  0  0  0  0  0  0  0  0  0  0
  136.9673  161.0531  129.8117 H   0  0  0  0  0  0  0  0  0  0  0  0
  137.5187  159.3435  129.8117 H   0  0  0  0  0  0  0  0  0  0  0  0
  140.0718  154.5808  132.3250 H   0  0  0  0  0  0  0  0  0  0  0  0
  1  2  1  0
  2  3  1  0
  3  4  1  0
  4  5  1  0
  5  6  1  0
  6  7  2  0
  7  8  1  0
  8  9  2  0
  9 10  1  0
 10 11  2  0
 11 12  1  0
 12 13  1  0
 12 14  2  0
 11 15  1  0
 15 16  1  0
 16 17  2  0
 16 18  1  0
 18 19  1  0
 19 20  1  0
 19 21  1  0
 21 22  2  0
 21 23  1  0
 23 24  1  0
 15 25  1  0
 25 26  2  0
 26  6  1  0
 25  9  1  0
  1 27  1  0
  1 28  1  0
  1 29  1  0
  3 30  1  0
  3 31  1  0
  4 32  1  0
  4 33  1  0
  5 34  1  0
  5 35  1  0
  7 36  1  0
  8 37  1  0
 10 38  1  0
 13 39  1  0
 19 40  1  6
 24 41  1  0
 24 42  1  0
 24 43  1  0
 26 44  1  0
M  CHG  2   5   1  13  -1
M  END
>  <UniqueID>  (5) 
5

>  <SMILES>  (5) 
COCC[NH2+]c1ccc2cc(C([NH-])=O)n(C(=O)O[C@@H](F)C(=O)OC)c2c1

>  <Energy>  (5) 
77.93275366427241

>  <Genealogy>  (5) 
COCC[NH2+]c1ccc2cc(C([NH-])=O)n(C(=O)OC(F)C(=O)OC)c2c1 (protonated)
COCC[NH2+]c1ccc2cc(C([NH-])=O)n(C(=O)O[C@@H](F)C(=O)OC)c2c1 (chirality)
COCC[NH2+]c1ccc2cc(C([NH-])=O)n(C(=O)O[C@@H](F)C(=O)OC)c2c1 (3D coordinates assigned)
COCC[NH2+]c1ccc2cc(C([NH-])=O)n(C(=O)O[C@@H](F)C(=O)OC)c2c1 (optimized conformer: 77.93275366427241 kcal/mol)

>  <smiles>  (5) 
COCCNc1ccc2cc(C(N)=O)n(C(=O)OC(F)C(=O)OC)c2c1

>  <score_type>  (5) 
oracle

>  <origin>  (5) 
adg

>  <m_score__min__energy>  (5) 
-5.6100000000000003

>  <m_primary>  (5) 
energy

$$$$
5:0
     RDKit          3D

 37 39  0  0  0  0  0  0  0  0999 V2000
  139.3690  157.8540  136.7070 N   0  0  0  0  0  0  0  0  0  0  0  0
  139.7560  157.9010  135.3360 C   0  0  0  0  0  0  0  0  0  0  0  0
  138.9600  157.4740  134.4560 O   0  0  0  0  0  0  0  0  0  0  0  0
  141.0930  158.3870  134.9390 C   0  0  0  0  0  0  0  0  0  0  0  0
  141.4230  159.7380  134.8590 C   0  0  0  0  0  0  0  0  0  0  0  0
  142.7090  159.7710  134.3700 C   0  0  0  0  0  0  0  0  0  0  0  0
  143.5360  160.8560  134.1040 C   0  0  0  0  0  0  0  0  0  0  0  0
  144.8340  160.5960  133.6320 C   0  0  0  0  0  0  0  0  0  0  0  0
  145.2850  159.2630  133.4420 C   0  0  0  0  0  0  0  0  0  0  0  0
  146.6620  159.0000  132.9550 C   0  0  0  0  0  0  0  0  0  0  0  0
  147.2970  157.7770  133.2390 C   0  0  0  0  0  0  0  0  0  0  0  0
  148.5890  157.5250  132.7720 C   0  0  0  0  0  0  0  0  0  0  0  0
  149.2660  158.4890  132.0220 C   0  0  0  0  0  0  0  0  0  0  0  0
  148.6570  159.7220  131.7430 C   0  0  0  0  0  0  0  0  0  0  0  0
  149.3740  160.7500  130.9080 C   0  0  0  0  0  0  0  0  0  0  0  0
  148.4350  161.7540  130.4070 N   0  0  0  0  0  0  0  0  0  0  0  0
  147.3520  159.9680  132.2000 C   0  0  0  0  0  0  0  0  0  0  0  0
  144.4110  158.1870  133.7250 C   0  0  0  0  0  0  0  0  0  0  0  0
  143.1170  158.4770  134.1760 C   0  0  0  0  0  0  0  0  0  0  0  0
  142.1360  157.6130  134.5250 N   0  0  0  0  0  0  0  0  0  0  0  0
  142.2280  156.1790  134.5450 C   0  0  0  0  0  0  0  0  0  0  0  0
  141.4780  155.4830  133.8110 O   0  0  0  0  0  0  0  0  0  0  0  0
  143.1660  155.5480  135.3520 O   0  0  0  0  0  0  0  0  0  0  0  0
  139.1050  158.7240  137.2200 H   0  0  0  0  0  0  0  0  0  0  0  0
  140.7901  160.5962  135.1293 H   0  0  0  0  0  0  0  0  0  0  0  0
  143.1851  161.8871  134.2583 H   0  0  0  0  0  0  0  0  0  0  0  0
  145.5087  161.4352  133.4071 H   0  0  0  0  0  0  0  0  0  0  0  0
  146.7723  157.0141  133.8329 H   0  0  0  0  0  0  0  0  0  0  0  0
  149.0749  156.5639  132.9958 H   0  0  0  0  0  0  0  0  0  0  0  0
  150.2797  158.2812  131.6488 H   0  0  0  0  0  0  0  0  0  0  0  0
  150.1388  161.2460  131.5237 H   0  0  0  0  0  0  0  0  0  0  0  0
  149.8434  160.2452  130.0508 H   0  0  0  0  0  0  0  0  0  0  0  0
  148.0430  162.3060  131.2040 H   0  0  0  0  0  0  0  0  0  0  0  0
  147.6520  161.2720  129.9100 H   0  0  0  0  0  0  0  0  0  0  0  0
  148.9190  162.3940  129.7360 H   0  0  0  0  0  0  0  0  0  0  0  0
  146.8643  160.9258  131.9660 H   0  0  0  0  0  0  0  0  0  0  0  0
  144.7404  157.1457  133.5938 H   0  0  0  0  0  0  0  0  0  0  0  0
  1  2  1  0
  2  3  2  0
  2  4  1  0
  4  5  2  0
  5  6  1  0
  6  7  2  0
  7  8  1  0
  8  9  2  0
  9 10  1  0
 10 11  2  0
 11 12  1  0
 12 13  2  0
 13 14  1  0
 14 15  1  0
 15 16  1  0
 14 17  2  0
  9 18  1  0
 18 19  2  0
 19 20  1  0
 20 21  1  0
 21 22  2  0
 21 23  1  0
 20  4  1  0
 19  6  1  0
 17 10  1  0
  1 24  1  0
  5 25  1  0
  7 26  1  0
  8 27  1  0
 11 28  1  0
 12 29  1  0
 13 30  1  0
 15 31  1  0
 15 32  1  0
 16 33  1  0
 16 34  1  0
 16 35  1  0
 17 36  1  0
 18 37  1  0
M  CHG  3   1  -1  16   1  23  -1
M  END
>  <UniqueID>  (6) 
6

>  <SMILES>  (6) 
[NH-]C(=O)c1cc2ccc(-c3cccc(C[NH3+])c3)cc2n1C(=O)[O-]

>  <Energy>  (6) 
82.9552072123004

>  <Genealogy>  (6) 
[NH-]C(=O)c1cc2ccc(-c3cccc(C[NH3+])c3)cc2n1C(=O)[O-] (protonated)
[NH-]C(=O)c1cc2ccc(-c3cccc(C[NH3+])c3)cc2n1C(=O)[O-] (3D coordinates assigned)
[NH-]C(=O)c1cc2ccc(-c3cccc(C[NH3+])c3)cc2n1C(=O)[O-] (optimized conformer: 82.9552072123004 kcal/mol)

>  <smiles>  (6) 
NCc1cccc(-c2ccc3cc(C(N)=O)n(C(=O)O)c3c2)c1

>  <score_type>  (6) 
oracle

>  <origin>  (6) 
adg

>  <m_score__min__energy>  (6) 
-7.79

>  <m_primary>  (6) 
energy

$$$$
6:0
     RDKit          3D

 35 36  0  0  0  0  0  0  0  0999 V2000
  149.6600  152.5170  132.2500 C   0  0  0  0  0  0  0  0  0  0  0  0
  148.5870  153.4300  132.4410 O   0  0  0  0  0  0  0  0  0  0  0  0
  148.7820  154.8080  132.5730 C   0  0  0  0  0  0  0  0  0  0  0  0
  149.9080  155.3170  132.3140 O   0  0  0  0  0  0  0  0  0  0  0  0
  147.7020  155.6440  133.0200 N   0  0  0  0  0  0  0  0  0  0  0  0
  146.5290  155.2520  133.5950 C   0  0  0  0  0  0  0  0  0  0  0  0
  146.1930  153.8720  134.0110 C   0  0  0  0  0  0  0  0  0  0  0  0
  146.1980  152.8030  133.0640 N   0  0  0  0  0  0  0  0  0  0  0  0
  145.8690  153.6320  135.2050 O   0  0  0  0  0  0  0  0  0  0  0  0
  145.7090  156.3550  133.8300 C   0  0  0  0  0  0  0  0  0  0  0  0
  146.4230  157.4430  133.3800 C   0  0  0  0  0  0  0  0  0  0  0  0
  146.0800  158.7900  133.3620 C   0  0  0  0  0  0  0  0  0  0  0  0
  147.0000  159.6960  132.8120 C   0  0  0  0  0  0  0  0  0  0  0  0
  148.2400  159.2450  132.2840 C   0  0  0  0  0  0  0  0  0  0  0  0
  149.2290  160.2230  131.6770 C   0  0  0  0  0  0  0  0  0  0  0  0
  148.5100  161.2180  130.7520 C   0  0  0  0  0  0  0  0  0  0  0  0
  147.5640  160.5640  129.9850 F   0  0  0  0  0  0  0  0  0  0  0  0
  150.3540  159.4750  130.9460 C   0  0  0  0  0  0  0  0  0  0  0  0
  150.6610  160.1110  129.7560 F   0  0  0  0  0  0  0  0  0  0  0  0
  148.5500  157.8660  132.3230 C   0  0  0  0  0  0  0  0  0  0  0  0
  147.6210  156.9870  132.8950 C   0  0  0  0  0  0  0  0  0  0  0  0
  150.0428  152.1913  133.2284 H   0  0  0  0  0  0  0  0  0  0  0  0
  149.3016  151.6426  131.6869 H   0  0  0  0  0  0  0  0  0  0  0  0
  150.4657  153.0107  131.6869 H   0  0  0  0  0  0  0  0  0  0  0  0
  145.9210  151.8410  133.3590 H   0  0  0  0  0  0  0  0  0  0  0  0
  146.5130  152.9500  132.0800 H   0  0  0  0  0  0  0  0  0  0  0  0
  144.7050  156.3558  134.2794 H   0  0  0  0  0  0  0  0  0  0  0  0
  145.1171  159.1352  133.7664 H   0  0  0  0  0  0  0  0  0  0  0  0
  146.7582  160.7689  132.7893 H   0  0  0  0  0  0  0  0  0  0  0  0
  149.6926  160.8028  132.4887 H   0  0  0  0  0  0  0  0  0  0  0  0
  148.0136  161.9869  131.3622 H   0  0  0  0  0  0  0  0  0  0  0  0
  149.2499  161.6849  130.0853 H   0  0  0  0  0  0  0  0  0  0  0  0
  151.2486  159.4508  131.5856 H   0  0  0  0  0  0  0  0  0  0  0  0
  150.0185  158.4505  130.7273 H   0  0  0  0  0  0  0  0  0  0  0  0
  149.4997  157.4916  131.9132 H   0  0  0  0  0  0  0  0  0  0  0  0
  1  2  1  0
  2  3  1  0
  3  4  2  0
  3  5  1  0
  5  6  1  0
  6  7  1  0
  7  8  1  0
  7  9  2  0
  6 10  2  0
 10 11  1  0
 11 12  2  0
 12 13  1  0
 13 14  2  0
 14 15  1  0
 15 16  1  0
 16 17  1  0
 15 18  1  0
 18 19  1  0
 14 20  1  0
 20 21  2  0
 21  5  1  0
 21 11  1  0
  1 22  1  0
  1 23  1  0
  1 24  1  0
  8 25  1  0
  8 26  1  0
 10 27  1  0
 12 28  1  0
 13 29  1  0
 15 30  1  0
 16 31  1  0
 16 32  1  0
 18 33  1  0
 18 34  1  0
 20 35  1  0
M  END
>  <UniqueID>  (7) 
7

>  <SMILES>  (7) 
COC(=O)n1c(C(N)=O)cc2ccc(C(CF)CF)cc21

>  <Energy>  (7) 
68.88755545084395

>  <Genealogy>  (7) 
COC(=O)n1c(C(N)=O)cc2ccc(C(CF)CF)cc21 (3D coordinates assigned)
COC(=O)n1c(C(N)=O)cc2ccc(C(CF)CF)cc21 (optimized conformer: 68.88755545084395 kcal/mol)

>  <smiles>  (7) 
COC(=O)n1c(C(N)=O)cc2ccc(C(CF)CF)cc21

>  <score_type>  (7) 
oracle

>  <origin>  (7) 
adg

>  <m_score__min__energy>  (7) 
-5.71

>  <m_primary>  (7) 
energy

$$$$
7:0
     RDKit          3D

 56 58  0  0  0  0  0  0  0  0999 V2000
  145.0590  154.7570  132.2430 C   0  0  0  0  0  0  0  0  0  0  0  0
  145.9300  154.8400  133.4720 C   0  0  0  0  0  0  0  0  0  0  0  0
  147.3590  155.2850  133.2980 C   0  0  0  0  0  0  0  0  0  0  0  0
  145.4780  154.4900  134.6980 C   0  0  0  0  0  0  0  0  0  0  0  0
  144.0640  154.0560  134.9910 C   0  0  0  0  0  0  0  0  0  0  0  0
  143.3770  155.0380  135.9360 C   0  0  0  0  0  0  0  0  0  0  0  0
  142.1960  155.5370  135.3190 O   0  0  0  0  0  0  0  0  0  0  0  0
  142.2200  156.3180  134.1590 C   0  0  0  0  0  0  0  0  0  0  0  0
  142.2150  155.7690  133.0240 O   0  0  0  0  0  0  0  0  0  0  0  0
  142.2700  157.7480  134.2660 N   0  0  0  0  0  0  0  0  0  0  0  0
  141.3190  158.5760  134.7850 C   0  0  0  0  0  0  0  0  0  0  0  0
  139.9540  158.1830  135.1920 C   0  0  0  0  0  0  0  0  0  0  0  0
  139.5860  158.1220  136.5680 N   0  0  0  0  0  0  0  0  0  0  0  0
  139.1130  157.8490  134.3130 O   0  0  0  0  0  0  0  0  0  0  0  0
  141.7790  159.8900  134.8140 C   0  0  0  0  0  0  0  0  0  0  0  0
  143.0480  159.8440  134.2840 C   0  0  0  0  0  0  0  0  0  0  0  0
  143.9730  160.8650  134.0890 C   0  0  0  0  0  0  0  0  0  0  0  0
  145.2250  160.5250  133.5520 C   0  0  0  0  0  0  0  0  0  0  0  0
  145.5370  159.1820  133.2240 C   0  0  0  0  0  0  0  0  0  0  0  0
  146.9140  158.8570  132.6660 C   0  0  2  0  0  0  0  0  0  0  0  0
  147.9360  158.4320  133.7270 C   0  0  0  0  0  0  0  0  0  0  0  0
  148.7710  159.6790  133.4380 C   0  0  0  0  0  0  0  0  0  0  0  0
  147.7710  160.0970  132.3510 C   0  0  1  0  0  0  0  0  0  0  0  0
  148.3120  160.1730  130.9640 N   0  0  0  0  0  0  0  0  0  0  0  0
  148.9080  161.4960  130.7190 C   0  0  0  0  0  0  0  0  0  0  0  0
  149.2440  159.0980  130.5570 C   0  0  0  0  0  0  0  0  0  0  0  0
  144.5670  158.1710  133.4420 C   0  0  0  0  0  0  0  0  0  0  0  0
  143.3210  158.5420  133.9620 C   0  0  0  0  0  0  0  0  0  0  0  0
  144.0063  154.6567  132.5458 H   0  0  0  0  0  0  0  0  0  0  0  0
  145.1826  155.6710  131.6436 H   0  0  0  0  0  0  0  0  0  0  0  0
  145.3530  153.8828  131.6436 H   0  0  0  0  0  0  0  0  0  0  0  0
  147.8211  155.4289  134.2858 H   0  0  0  0  0  0  0  0  0  0  0  0
  147.9166  154.5180  132.7406 H   0  0  0  0  0  0  0  0  0  0  0  0
  147.3825  156.2330  132.7406 H   0  0  0  0  0  0  0  0  0  0  0  0
  146.1890  154.5243  135.5366 H   0  0  0  0  0  0  0  0  0  0  0  0
  143.4993  154.0086  134.0482 H   0  0  0  0  0  0  0  0  0  0  0  0
  144.0927  153.0672  135.4721 H   0  0  0  0  0  0  0  0  0  0  0  0
  143.1133  154.5238  136.8720 H   0  0  0  0  0  0  0  0  0  0  0  0
  144.0577  155.8731  136.1579 H   0  0  0  0  0  0  0  0  0  0  0  0
  139.4510  158.9930  137.1270 H   0  0  0  0  0  0  0  0  0  0  0  0
  141.2420  160.7765  135.1824 H   0  0  0  0  0  0  0  0  0  0  0  0
  143.7309  161.9064  134.3476 H   0  0  0  0  0  0  0  0  0  0  0  0
  145.9745  161.3123  133.3835 H   0  0  0  0  0  0  0  0  0  0  0  0
  146.6166  158.1627  131.8663 H   0  0  0  0  0  0  0  0  0  0  0  0
  147.5301  158.3921  134.7486 H   0  0  0  0  0  0  0  0  0  0  0  0
  148.3977  157.4346  133.6821 H   0  0  0  0  0  0  0  0  0  0  0  0
  148.8363  160.3813  134.2821 H   0  0  0  0  0  0  0  0  0  0  0  0
  149.8422  159.5898  133.2043 H   0  0  0  0  0  0  0  0  0  0  0  0
  147.3230  161.1015  132.3683 H   0  0  0  0  0  0  0  0  0  0  0  0
  149.1274  161.9831  131.6806 H   0  0  0  0  0  0  0  0  0  0  0  0
  149.8399  161.3780  130.1466 H   0  0  0  0  0  0  0  0  0  0  0  0
  148.2022  162.1158  130.1466 H   0  0  0  0  0  0  0  0  0  0  0  0
  149.6618  158.6161  131.4533 H   0  0  0  0  0  0  0  0  0  0  0  0
  148.7029  158.3511  129.9576 H   0  0  0  0  0  0  0  0  0  0  0  0
  150.0601  159.5277  129.9576 H   0  0  0  0  0  0  0  0  0  0  0  0
  144.7883  157.1192  133.2079 H   0  0  0  0  0  0  0  0  0  0  0  0
  1  2  1  0
  2  3  1  0
  2  4  2  3
  4  5  1  0
  5  6  1  0
  6  7  1  0
  7  8  1  0
  8  9  2  0
  8 10  1  0
 10 11  1  0
 11 12  1  0
 12 13  1  0
 12 14  2  0
 11 15  2  0
 15 16  1  0
 16 17  2  0
 17 18  1  0
 18 19  2  0
 19 20  1  0
 20 21  1  0
 21 22  1  0
 22 23  1  0
 23 24  1  0
 24 25  1  0
 24 26  1  0
 19 27  1  0
 27 28  2  0
 28 10  1  0
 28 16  1  0
 23 20  1  0
  1 29  1  0
  1 30  1  0
  1 31  1  0
  3 32  1  0
  3 33  1  0
  3 34  1  0
  4 35  1  0
  5 36  1  0
  5 37  1  0
  6 38  1  0
  6 39  1  0
 13 40  1  0
 15 41  1  0
 17 42  1  0
 18 43  1  0
 20 44  1  6
 21 45  1  0
 21 46  1  0
 22 47  1  0
 22 48  1  0
 23 49  1  1
 25 50  1  0
 25 51  1  0
 25 52  1  0
 26 53  1  0
 26 54  1  0
 26 55  1  0
 27 56  1  0
M  CHG  1  13  -1
M  END
>  <UniqueID>  (8) 
8

>  <SMILES>  (8) 
CC(C)=CCCOC(=O)n1c(C([NH-])=O)cc2ccc([C@@H]3CC[C@H]3N(C)C)cc21

>  <Energy>  (8) 
158.8039169727527

>  <Genealogy>  (8) 
CC(C)=CCCOC(=O)n1c(C([NH-])=O)cc2ccc([C@@H]3CC[C@H]3N(C)C)cc21 (protonated)
CC(C)=CCCOC(=O)n1c(C([NH-])=O)cc2ccc([C@@H]3CC[C@H]3N(C)C)cc21 (3D coordinates assigned)
CC(C)=CCCOC(=O)n1c(C([NH-])=O)cc2ccc([C@@H]3CC[C@H]3N(C)C)cc21 (nonaromatic ring conformer: 158.8039169727527 kcal/mol)

>  <smiles>  (8) 
CC(C)=CCCOC(=O)n1c(C(N)=O)cc2ccc([C@@H]3CC[C@H]3N(C)C)cc21

>  <score_type>  (8) 
oracle

>  <origin>  (8) 
adg

>  <m_score__min__energy>  (8) 
-8.7699999999999996

>  <m_primary>  (8) 
energy

$$$$
8:0
     RDKit          3D

 35 37  0  0  0  0  0  0  0  0999 V2000
  147.7660  160.8320  132.7620 N   0  0  0  0  0  0  0  0  0  0  0  0
  147.3490  159.6980  133.5160 C   0  0  0  0  0  0  0  0  0  0  0  0
  148.2110  159.0160  134.1310 O   0  0  0  0  0  0  0  0  0  0  0  0
  145.9320  159.2770  133.5380 C   0  0  0  0  0  0  0  0  0  0  0  0
  145.5230  157.9590  133.3470 C   0  0  0  0  0  0  0  0  0  0  0  0
  144.1490  157.9990  133.3480 C   0  0  0  0  0  0  0  0  0  0  0  0
  143.2230  156.9700  133.2010 C   0  0  0  0  0  0  0  0  0  0  0  0
  141.8590  157.2960  133.2680 C   0  0  0  0  0  0  0  0  0  0  0  0
  141.4470  158.6330  133.4920 C   0  0  0  0  0  0  0  0  0  0  0  0
  139.9810  158.9780  133.5410 C   0  0  0  0  0  0  0  0  0  0  0  0
  139.4210  159.2250  132.1270 C   0  0  1  0  0  0  0  0  0  0  0  0
  138.0260  158.6990  131.9280 C   0  0  0  0  0  0  0  0  0  0  0  0
  137.4560  159.6510  130.8930 C   0  0  0  0  0  0  0  0  0  0  0  0
  138.1920  160.8550  130.9000 O   0  0  0  0  0  0  0  0  0  0  0  0
  139.2530  160.7020  131.8140 C   0  0  0  0  0  0  0  0  0  0  0  0
  142.4150  159.6520  133.6290 C   0  0  0  0  0  0  0  0  0  0  0  0
  143.7670  159.3020  133.5390 C   0  0  0  0  0  0  0  0  0  0  0  0
  144.8520  160.1000  133.6600 N   0  0  0  0  0  0  0  0  0  0  0  0
  144.8430  161.5070  133.9500 C   0  0  0  0  0  0  0  0  0  0  0  0
  145.8470  162.0550  134.4770 O   0  0  0  0  0  0  0  0  0  0  0  0
  143.7160  162.2730  133.6740 O   0  0  0  0  0  0  0  0  0  0  0  0
  147.3630  161.7770  132.9430 H   0  0  0  0  0  0  0  0  0  0  0  0
  146.1639  157.0738  133.2219 H   0  0  0  0  0  0  0  0  0  0  0  0
  143.5501  155.9326  133.0373 H   0  0  0  0  0  0  0  0  0  0  0  0
  141.1033  156.5062  133.1455 H   0  0  0  0  0  0  0  0  0  0  0  0
  139.4314  158.1455  134.0045 H   0  0  0  0  0  0  0  0  0  0  0  0
  139.8585  159.8985  134.1307 H   0  0  0  0  0  0  0  0  0  0  0  0
  140.1614  158.7177  131.4911 H   0  0  0  0  0  0  0  0  0  0  0  0
  138.0415  157.6658  131.5508 H   0  0  0  0  0  0  0  0  0  0  0  0
  137.4374  158.6597  132.8564 H   0  0  0  0  0  0  0  0  0  0  0  0
  137.5194  159.1891  129.8967 H   0  0  0  0  0  0  0  0  0  0  0  0
  136.4042  159.8648  131.1339 H   0  0  0  0  0  0  0  0  0  0  0  0
  140.1809  161.0941  131.3721 H   0  0  0  0  0  0  0  0  0  0  0  0
  139.0331  161.2570  132.7379 H   0  0  0  0  0  0  0  0  0  0  0  0
  142.1136  160.6956  133.8023 H   0  0  0  0  0  0  0  0  0  0  0  0
  1  2  1  0
  2  3  2  0
  2  4  1  0
  4  5  2  0
  5  6  1  0
  6  7  2  0
  7  8  1  0
  8  9  2  0
  9 10  1  0
 10 11  1  0
 11 12  1  0
 12 13  1  0
 13 14  1  0
 14 15  1  0
  9 16  1  0
 16 17  2  0
 17 18  1  0
 18 19  1  0
 19 20  2  0
 19 21  1  0
 18  4  1  0
 17  6  1  0
 15 11  1  0
  1 22  1  0
  5 23  1  0
  7 24  1  0
  8 25  1  0
 10 26  1  0
 10 27  1  0
 11 28  1  6
 12 29  1  0
 12 30  1  0
 13 31  1  0
 13 32  1  0
 15 33  1  0
 15 34  1  0
 16 35  1  0
M  CHG  2   1  -1  21  -1
M  END
>  <UniqueID>  (9) 
9

>  <SMILES>  (9) 
[NH-]C(=O)c1cc2ccc(C[C@H]3CCOC3)cc2n1C(=O)[O-]

>  <Energy>  (9) 
74.41984552083633

>  <Genealogy>  (9) 
[NH-]C(=O)c1cc2ccc(CC3CCOC3)cc2n1C(=O)[O-] (protonated)
[NH-]C(=O)c1cc2ccc(C[C@H]3CCOC3)cc2n1C(=O)[O-] (chirality)
[NH-]C(=O)c1cc2ccc(C[C@H]3CCOC3)cc2n1C(=O)[O-] (3D coordinates assigned)
[NH-]C(=O)c1cc2ccc(C[C@H]3CCOC3)cc2n1C(=O)[O-] (nonaromatic ring conformer: 74.41984552083633 kcal/mol)

>  <smiles>  (9) 
NC(=O)c1cc2ccc(CC3CCOC3)cc2n1C(=O)O

>  <score_type>  (9) 
oracle

>  <origin>  (9) 
adg

>  <m_score__min__energy>  (9) 
-7.4299999999999997

>  <m_primary>  (9) 
energy

$$$$
9:0
     RDKit          3D

 63 65  0  0  0  0  0  0  0  0999 V2000
  139.2090  158.3540  132.2520 C   0  0  0  0  0  0  0  0  0  0  0  0
  139.6040  158.2120  133.6650 N   0  0  0  0  0  0  0  0  0  0  0  0
  139.5790  156.7860  134.0810 C   0  0  0  0  0  0  0  0  0  0  0  0
  139.4740  155.8960  132.8800 C   0  0  0  0  0  0  0  0  0  0  0  0
  139.4760  154.6830  133.0200 O   0  0  0  0  0  0  0  0  0  0  0  0
  140.9200  158.8580  133.9100 C   0  0  0  0  0  0  0  0  0  0  0  0
  141.8090  157.9580  134.7790 C   0  0  0  0  0  0  0  0  0  0  0  0
  142.7160  157.1650  133.9360 N   0  0  0  0  0  0  0  0  0  0  0  0
  143.1000  157.6540  132.6080 C   0  0  0  0  0  0  0  0  0  0  0  0
  143.1550  155.8630  134.3650 C   0  0  0  0  0  0  0  0  0  0  0  0
  142.6080  155.2960  135.3500 O   0  0  0  0  0  0  0  0  0  0  0  0
  144.2030  155.1790  133.6640 N   0  0  0  0  0  0  0  0  0  0  0  0
  144.1720  153.9290  133.1310 C   0  0  0  0  0  0  0  0  0  0  0  0
  142.9830  153.0420  133.1220 C   0  0  0  0  0  0  0  0  0  0  0  0
  141.6760  153.5490  133.4090 N   0  0  0  0  0  0  0  0  0  0  0  0
  143.1150  151.8190  132.8510 O   0  0  0  0  0  0  0  0  0  0  0  0
  145.4290  153.5930  132.6220 C   0  0  0  0  0  0  0  0  0  0  0  0
  146.2290  154.6860  132.8750 C   0  0  0  0  0  0  0  0  0  0  0  0
  147.5840  154.8900  132.6230 C   0  0  0  0  0  0  0  0  0  0  0  0
  148.1540  156.1080  133.0350 C   0  0  0  0  0  0  0  0  0  0  0  0
  147.3650  157.0950  133.6770 C   0  0  0  0  0  0  0  0  0  0  0  0
  147.9930  158.3790  134.1520 C   0  0  0  0  0  0  0  0  0  0  0  0
  147.6470  159.5370  133.2480 C   0  0  0  0  0  0  0  0  0  0  0  0
  146.5880  160.1890  133.4560 O   0  0  0  0  0  0  0  0  0  0  0  0
  148.4680  159.8650  132.1080 N   0  0  0  0  0  0  0  0  0  0  0  0
  149.3670  158.8660  131.5090 C   0  0  0  0  0  0  0  0  0  0  0  0
  149.4130  159.0470  129.9880 C   0  0  0  0  0  0  0  0  0  0  0  0
  149.8720  160.4630  129.5840 C   0  0  0  0  0  0  0  0  0  0  0  0
  149.2490  160.8230  128.4020 F   0  0  0  0  0  0  0  0  0  0  0  0
  149.5960  161.5310  130.6600 C   0  0  0  0  0  0  0  0  0  0  0  0
  148.3610  161.2050  131.5090 C   0  0  0  0  0  0  0  0  0  0  0  0
  145.9970  156.8470  133.9270 C   0  0  0  0  0  0  0  0  0  0  0  0
  145.4610  155.6290  133.5060 C   0  0  0  0  0  0  0  0  0  0  0  0
  138.1752  158.7256  132.1958 H   0  0  0  0  0  0  0  0  0  0  0  0
  139.8823  159.0664  131.7528 H   0  0  0  0  0  0  0  0  0  0  0  0
  139.2747  157.3760  131.7528 H   0  0  0  0  0  0  0  0  0  0  0  0
  140.5045  156.5510  134.6271 H   0  0  0  0  0  0  0  0  0  0  0  0
  138.7062  156.6174  134.7289 H   0  0  0  0  0  0  0  0  0  0  0  0
  139.3953  156.3345  131.8743 H   0  0  0  0  0  0  0  0  0  0  0  0
  141.4195  159.0380  132.9466 H   0  0  0  0  0  0  0  0  0  0  0  0
  140.7558  159.8097  134.4366 H   0  0  0  0  0  0  0  0  0  0  0  0
  142.4029  158.5848  135.4605 H   0  0  0  0  0  0  0  0  0  0  0  0
  141.1687  157.2741  135.3555 H   0  0  0  0  0  0  0  0  0  0  0  0
  143.7761  158.5150  132.7157 H   0  0  0  0  0  0  0  0  0  0  0  0
  143.6124  156.8522  132.0561 H   0  0  0  0  0  0  0  0  0  0  0  0
  142.1996  157.9616  132.0561 H   0  0  0  0  0  0  0  0  0  0  0  0
  140.8570  152.9020  133.4200 H   0  0  0  0  0  0  0  0  0  0  0  0
  141.5070  154.5550  133.6200 H   0  0  0  0  0  0  0  0  0  0  0  0
  145.7185  152.6553  132.1250 H   0  0  0  0  0  0  0  0  0  0  0  0
  148.1889  154.1227  132.1178 H   0  0  0  0  0  0  0  0  0  0  0  0
  149.2230  156.2965  132.8572 H   0  0  0  0  0  0  0  0  0  0  0  0
  147.6311  158.5987  135.1672 H   0  0  0  0  0  0  0  0  0  0  0  0
  149.0854  158.2507  134.1423 H   0  0  0  0  0  0  0  0  0  0  0  0
  150.3788  158.9926  131.9216 H   0  0  0  0  0  0  0  0  0  0  0  0
  148.9926  157.8581  131.7414 H   0  0  0  0  0  0  0  0  0  0  0  0
  150.1144  158.3129  129.5648 H   0  0  0  0  0  0  0  0  0  0  0  0
  148.3949  158.8979  129.5990 H   0  0  0  0  0  0  0  0  0  0  0  0
  150.9641  160.4216  129.4591 H   0  0  0  0  0  0  0  0  0  0  0  0
  150.4715  161.5986  131.3225 H   0  0  0  0  0  0  0  0  0  0  0  0
  149.4045  162.4833  130.1438 H   0  0  0  0  0  0  0  0  0  0  0  0
  148.2700  161.9512  132.3121 H   0  0  0  0  0  0  0  0  0  0  0  0
  147.4743  161.2269  130.8584 H   0  0  0  0  0  0  0  0  0  0  0  0
  145.3716  157.5930  134.4392 H   0  0  0  0  0  0  0  0  0  0  0  0
  1  2  1  0
  2  3  1  0
  3  4  1  0
  4  5  2  0
  2  6  1  0
  6  7  1  0
  7  8  1  0
  8  9  1  0
  8 10  1  0
 10 11  2  0
 10 12  1  0
 12 13  1  0
 13 14  1  0
 14 15  1  0
 14 16  2  0
 13 17  2  0
 17 18  1  0
 18 19  2  0
 19 20  1  0
 20 21  2  0
 21 22  1  0
 22 23  1  0
 23 24  2  0
 23 25  1  0
 25 26  1  0
 26 27  1  0
 27 28  1  0
 28 29  1  0
 28 30  1  0
 30 31  1  0
 21 32  1  0
 32 33  2  0
 33 12  1  0
 33 18  1  0
 31 25  1  0
  1 34  1  0
  1 35  1  0
  1 36  1  0
  3 37  1  0
  3 38  1  0
  4 39  1  0
  6 40  1  0
  6 41  1  0
  7 42  1  0
  7 43  1  0
  9 44  1  0
  9 45  1  0
  9 46  1  0
 15 47  1  0
 15 48  1  0
 17 49  1  0
 19 50  1  0
 20 51  1  0
 22 52  1  0
 22 53  1  0
 26 54  1  0
 26 55  1  0
 27 56  1  0
 27 57  1  0
 28 58  1  0
 30 59  1  0
 30 60  1  0
 31 61  1  0
 31 62  1  0
 32 63  1  0
M  END
>  <UniqueID>  (10) 
10

>  <SMILES>  (10) 
CN(CC=O)CCN(C)C(=O)n1c(C(N)=O)cc2ccc(CC(=O)N3CCC(F)CC3)cc21

>  <Energy>  (10) 
102.6731026240779

>  <Genealogy>  (10) 
CN(CC=O)CCN(C)C(=O)n1c(C(N)=O)cc2ccc(CC(=O)N3CCC(F)CC3)cc21 (3D coordinates assigned)
CN(CC=O)CCN(C)C(=O)n1c(C(N)=O)cc2ccc(CC(=O)N3CCC(F)CC3)cc21 (nonaromatic ring conformer: 102.6731026240779 kcal/mol)

>  <smiles>  (10) 
CN(CC=O)CCN(C)C(=O)n1c(C(N)=O)cc2ccc(CC(=O)N3CCC(F)CC3)cc21

>  <score_type>  (10) 
oracle

>  <origin>  (10) 
adg

>  <m_score__min__energy>  (10) 
-9.2899999999999991

>  <m_primary>  (10) 
energy

$$$$
10:0
     RDKit          3D

 38 40  0  0  0  0  0  0  0  0999 V2000
  141.8420  160.3870  133.1720 N   0  0  0  0  0  0  0  0  0  0  0  0
  141.6890  159.4210  134.2110 C   0  0  0  0  0  0  0  0  0  0  0  0
  141.3300  159.8010  135.3570 O   0  0  0  0  0  0  0  0  0  0  0  0
  142.0030  157.9970  133.9760 C   0  0  0  0  0  0  0  0  0  0  0  0
  143.2810  157.5370  133.6700 C   0  0  0  0  0  0  0  0  0  0  0  0
  143.1380  156.1890  133.4360 C   0  0  0  0  0  0  0  0  0  0  0  0
  144.0920  155.2300  133.1020 C   0  0  0  0  0  0  0  0  0  0  0  0
  143.6640  153.9010  132.9510 C   0  0  0  0  0  0  0  0  0  0  0  0
  142.3050  153.5600  133.1420 C   0  0  0  0  0  0  0  0  0  0  0  0
  141.8820  152.1930  132.9970 C   0  0  0  0  0  0  0  0  0  0  0  0
  141.5170  151.0500  132.8770 C   0  0  0  0  0  0  0  0  0  0  0  0
  141.0630  149.6560  132.7230 C   0  0  0  0  0  0  0  0  0  0  0  0
  139.5480  149.5600  132.9610 C   0  0  0  0  0  0  0  0  0  0  0  0
  138.7320  150.2670  131.8520 C   0  0  0  0  0  0  0  0  0  0  0  0
  139.4290  150.3370  130.5520 N   0  0  0  0  0  0  0  0  0  0  0  0
  140.2850  149.1690  130.3160 C   0  0  0  0  0  0  0  0  0  0  0  0
  141.4440  149.0990  131.3310 C   0  0  0  0  0  0  0  0  0  0  0  0
  141.3640  154.5520  133.4810 C   0  0  0  0  0  0  0  0  0  0  0  0
  141.8130  155.8720  133.6090 C   0  0  0  0  0  0  0  0  0  0  0  0
  141.1030  156.9730  133.9430 N   0  0  0  0  0  0  0  0  0  0  0  0
  139.7100  157.0170  134.2940 C   0  0  0  0  0  0  0  0  0  0  0  0
  139.3460  157.5070  135.3950 O   0  0  0  0  0  0  0  0  0  0  0  0
  138.7490  156.5430  133.4090 O   0  0  0  0  0  0  0  0  0  0  0  0
  142.1130  160.0980  132.2070 H   0  0  0  0  0  0  0  0  0  0  0  0
  144.2086  158.1266  133.6249 H   0  0  0  0  0  0  0  0  0  0  0  0
  145.1476  155.5053  132.9610 H   0  0  0  0  0  0  0  0  0  0  0  0
  144.3907  153.1201  132.6824 H   0  0  0  0  0  0  0  0  0  0  0  0
  141.5720  149.0392  133.4783 H   0  0  0  0  0  0  0  0  0  0  0  0
  139.2611  148.4984  132.9887 H   0  0  0  0  0  0  0  0  0  0  0  0
  139.3251  150.0621  133.9140 H   0  0  0  0  0  0  0  0  0  0  0  0
  137.7896  149.7175  131.7111 H   0  0  0  0  0  0  0  0  0  0  0  0
  138.5696  151.3028  132.1847 H   0  0  0  0  0  0  0  0  0  0  0  0
  140.0210  151.2010  130.5210 H   0  0  0  0  0  0  0  0  0  0  0  0
  139.6767  148.2569  130.4056 H   0  0  0  0  0  0  0  0  0  0  0  0
  140.7160  149.2569  129.3078 H   0  0  0  0  0  0  0  0  0  0  0  0
  141.7470  148.0477  131.4451 H   0  0  0  0  0  0  0  0  0  0  0  0
  142.2619  149.7220  130.9399 H   0  0  0  0  0  0  0  0  0  0  0  0
  140.3060  154.2967  133.6407 H   0  0  0  0  0  0  0  0  0  0  0  0
  1  2  1  0
  2  3  2  0
  2  4  1  0
  4  5  2  0
  5  6  1  0
  6  7  2  0
  7  8  1  0
  8  9  2  0
  9 10  1  0
 10 11  3  0
 11 12  1  0
 12 13  1  0
 13 14  1  0
 14 15  1  0
 15 16  1  0
 16 17  1  0
  9 18  1  0
 18 19  2  0
 19 20  1  0
 20 21  1  0
 21 22  2  0
 21 23  1  0
 20  4  1  0
 19  6  1  0
 17 12  1  0
  1 24  1  0
  5 25  1  0
  7 26  1  0
  8 27  1  0
 12 28  1  0
 13 29  1  0
 13 30  1  0
 14 31  1  0
 14 32  1  0
 15 33  1  0
 16 34  1  0
 16 35  1  0
 17 36  1  0
 17 37  1  0
 18 38  1  0
M  CHG  2   1  -1  23  -1
M  END
>  <UniqueID>  (11) 
11

>  <SMILES>  (11) 
[NH-]C(=O)c1cc2ccc(C#CC3CCNCC3)cc2n1C(=O)[O-]

>  <Energy>  (11) 
80.24298231071381

>  <Genealogy>  (11) 
[NH-]C(=O)c1cc2ccc(C#CC3CCNCC3)cc2n1C(=O)[O-] (protonated)
[NH-]C(=O)c1cc2ccc(C#CC3CCNCC3)cc2n1C(=O)[O-] (3D coordinates assigned)
[NH-]C(=O)c1cc2ccc(C#CC3CCNCC3)cc2n1C(=O)[O-] (nonaromatic ring conformer: 80.24298231071381 kcal/mol)

>  <smiles>  (11) 
NC(=O)c1cc2ccc(C#CC3CCNCC3)cc2n1C(=O)O

>  <score_type>  (11) 
oracle

>  <origin>  (11) 
adg

>  <m_score__min__energy>  (11) 
-7.9400000000000004

>  <m_primary>  (11) 
energy

$$$$
11:0
     RDKit          3D

 47 49  0  0  0  0  0  0  0  0999 V2000
  147.6080  154.8910  132.5550 N   0  0  0  0  0  0  0  0  0  0  0  0
  146.6860  155.0240  133.6390 C   0  0  0  0  0  0  0  0  0  0  0  0
  147.0870  155.5190  134.7250 O   0  0  0  0  0  0  0  0  0  0  0  0
  145.2710  154.6230  133.4810 C   0  0  0  0  0  0  0  0  0  0  0  0
  144.1910  155.4320  133.8290 C   0  0  0  0  0  0  0  0  0  0  0  0
  143.0730  154.6580  133.6210 C   0  0  0  0  0  0  0  0  0  0  0  0
  141.7290  154.9630  133.8030 C   0  0  0  0  0  0  0  0  0  0  0  0
  140.7790  153.9780  133.4860 C   0  0  0  0  0  0  0  0  0  0  0  0
  141.1850  152.7130  132.9800 C   0  0  0  0  0  0  0  0  0  0  0  0
  140.2310  151.6880  132.6390 N   0  0  0  0  0  0  0  0  0  0  0  0
  140.5420  150.5190  131.8020 C   0  0  1  0  0  0  0  0  0  0  0  0
  141.0250  149.3290  132.6330 C   0  0  0  0  0  0  0  0  0  0  0  0
  140.6050  148.0720  131.8680 C   0  0  0  0  0  0  0  0  0  0  0  0
  139.7250  148.5490  130.7030 C   0  0  1  0  0  0  0  0  0  0  0  0
  138.6190  147.7090  130.4720 O   0  0  0  0  0  0  0  0  0  0  0  0
  139.3270  149.9900  131.0350 C   0  0  1  0  0  0  0  0  0  0  0  0
  138.1800  150.0120  131.8500 O   0  0  0  0  0  0  0  0  0  0  0  0
  142.5630  152.4430  132.8190 C   0  0  0  0  0  0  0  0  0  0  0  0
  143.4880  153.4350  133.1620 C   0  0  0  0  0  0  0  0  0  0  0  0
  144.8360  153.3980  133.0690 N   0  0  0  0  0  0  0  0  0  0  0  0
  145.6260  152.3030  132.5770 C   0  0  0  0  0  0  0  0  0  0  0  0
  145.0920  151.1770  132.3810 O   0  0  0  0  0  0  0  0  0  0  0  0
  146.9910  152.4850  132.3360 O   0  0  0  0  0  0  0  0  0  0  0  0
  147.9600  151.4710  132.5840 C   0  0  0  0  0  0  0  0  0  0  0  0
  149.3580  152.0720  132.5120 C   0  0  0  0  0  0  0  0  0  0  0  0
  149.3120  153.3010  131.8430 O   0  0  0  0  0  0  0  0  0  0  0  0
  148.5950  155.2140  132.6640 H   0  0  0  0  0  0  0  0  0  0  0  0
  147.3280  154.4360  131.6580 H   0  0  0  0  0  0  0  0  0  0  0  0
  144.2252  156.4695  134.1928 H   0  0  0  0  0  0  0  0  0  0  0  0
  141.4185  155.9470  134.1841 H   0  0  0  0  0  0  0  0  0  0  0  0
  139.7090  154.1878  133.6309 H   0  0  0  0  0  0  0  0  0  0  0  0
  139.2600  151.8020  133.0090 H   0  0  0  0  0  0  0  0  0  0  0  0
  141.3171  150.8887  131.1145 H   0  0  0  0  0  0  0  0  0  0  0  0
  142.1190  149.3602  132.7429 H   0  0  0  0  0  0  0  0  0  0  0  0
  140.5916  149.3452  133.6439 H   0  0  0  0  0  0  0  0  0  0  0  0
  141.4916  147.5456  131.4847 H   0  0  0  0  0  0  0  0  0  0  0  0
  140.0610  147.3716  132.5187 H   0  0  0  0  0  0  0  0  0  0  0  0
  140.2783  148.5094  129.7531 H   0  0  0  0  0  0  0  0  0  0  0  0
  137.8650  148.0210  131.0370 H   0  0  0  0  0  0  0  0  0  0  0  0
  139.0812  150.5879  130.1450 H   0  0  0  0  0  0  0  0  0  0  0  0
  137.9430  149.0670  132.0370 H   0  0  0  0  0  0  0  0  0  0  0  0
  142.9019  151.4710  132.4312 H   0  0  0  0  0  0  0  0  0  0  0  0
  147.7959  151.0446  133.5846 H   0  0  0  0  0  0  0  0  0  0  0  0
  147.8630  150.6796  131.8262 H   0  0  0  0  0  0  0  0  0  0  0  0
  149.7426  152.2252  133.5311 H   0  0  0  0  0  0  0  0  0  0  0  0
  150.0208  151.3853  131.9650 H   0  0  0  0  0  0  0  0  0  0  0  0
  148.4020  153.3680  131.4540 H   0  0  0  0  0  0  0  0  0  0  0  0
  1  2  1  0
  2  3  2  0
  2  4  1  0
  4  5  2  0
  5  6  1  0
  6  7  2  0
  7  8  1  0
  8  9  2  0
  9 10  1  0
 10 11  1  0
 11 12  1  0
 12 13  1  0
 13 14  1  0
 14 15  1  0
 14 16  1  0
 16 17  1  0
  9 18  1  0
 18 19  2  0
 19 20  1  0
 20 21  1  0
 21 22  2  0
 21 23  1  0
 23 24  1  0
 24 25  1  0
 25 26  1  0
 20  4  1  0
 19  6  1  0
 16 11  1  0
  1 27  1  0
  1 28  1  0
  5 29  1  0
  7 30  1  0
  8 31  1  0
 10 32  1  0
 11 33  1  6
 12 34  1  0
 12 35  1  0
 13 36  1  0
 13 37  1  0
 14 38  1  6
 15 39  1  0
 16 40  1  6
 17 41  1  0
 18 42  1  0
 24 43  1  0
 24 44  1  0
 25 45  1  0
 25 46  1  0
 26 47  1  0
M  END
>  <UniqueID>  (12) 
12

>  <SMILES>  (12) 
NC(=O)c1cc2ccc(N[C@H]3CC[C@@H](O)C3O)cc2n1C(=O)OCCO

>  <Energy>  (12) 
87.02330396227946

>  <Genealogy>  (12) 
NC(=O)c1cc2ccc(N[C@H]3CC[C@@H](O)C3O)cc2n1C(=O)OCCO (chirality)
NC(=O)c1cc2ccc(N[C@H]3CC[C@@H](O)C3O)cc2n1C(=O)OCCO (3D coordinates assigned)
NC(=O)c1cc2ccc(N[C@H]3CC[C@@H](O)C3O)cc2n1C(=O)OCCO (nonaromatic ring conformer: 87.02330396227946 kcal/mol)

>  <smiles>  (12) 
NC(=O)c1cc2ccc(NC3CCC(O)C3O)cc2n1C(=O)OCCO

>  <score_type>  (12) 
oracle

>  <origin>  (12) 
adg

>  <m_score__min__energy>  (12) 
-7.71

>  <m_primary>  (12) 
energy

$$$$
12:0
     RDKit          3D

 28 29  0  0  0  0  0  0  0  0999 V2000
  141.6910  158.6920  134.9090 C   0  0  0  0  0  0  0  0  0  0  0  0
  143.1070  158.5660  134.8580 O   0  0  0  0  0  0  0  0  0  0  0  0
  143.8130  158.4800  133.6540 C   0  0  0  0  0  0  0  0  0  0  0  0
  143.3070  157.8900  132.6610 O   0  0  0  0  0  0  0  0  0  0  0  0
  145.1310  159.0420  133.5590 N   0  0  0  0  0  0  0  0  0  0  0  0
  145.4820  160.3590  133.5590 C   0  0  0  0  0  0  0  0  0  0  0  0
  144.5790  161.5000  133.8210 C   0  0  0  0  0  0  0  0  0  0  0  0
  143.1650  161.3540  133.7230 N   0  0  0  0  0  0  0  0  0  0  0  0
  145.0610  162.6070  134.1830 O   0  0  0  0  0  0  0  0  0  0  0  0
  146.8530  160.5000  133.3570 C   0  0  0  0  0  0  0  0  0  0  0  0
  147.3380  159.2180  133.2420 C   0  0  0  0  0  0  0  0  0  0  0  0
  148.6390  158.7690  133.0330 C   0  0  0  0  0  0  0  0  0  0  0  0
  148.8490  157.3840  132.9330 C   0  0  0  0  0  0  0  0  0  0  0  0
  147.7610  156.4760  133.0160 C   0  0  0  0  0  0  0  0  0  0  0  0
  148.0050  154.9910  132.9440 C   0  0  0  0  0  0  0  0  0  0  0  0
  149.1610  154.7180  132.2330 F   0  0  0  0  0  0  0  0  0  0  0  0
  146.9500  154.3520  132.3140 F   0  0  0  0  0  0  0  0  0  0  0  0
  148.1350  154.4880  134.2240 F   0  0  0  0  0  0  0  0  0  0  0  0
  146.4570  156.9730  133.2520 C   0  0  0  0  0  0  0  0  0  0  0  0
  146.2800  158.3570  133.3660 C   0  0  0  0  0  0  0  0  0  0  0  0
  141.3630  158.7212  135.9586 H   0  0  0  0  0  0  0  0  0  0  0  0
  141.3871  159.6207  134.4039 H   0  0  0  0  0  0  0  0  0  0  0  0
  141.2279  157.8315  134.4039 H   0  0  0  0  0  0  0  0  0  0  0  0
  142.7170  160.4110  133.7660 H   0  0  0  0  0  0  0  0  0  0  0  0
  147.4260  161.4373  133.3013 H   0  0  0  0  0  0  0  0  0  0  0  0
  149.4766  159.4771  132.9488 H   0  0  0  0  0  0  0  0  0  0  0  0
  149.8689  156.9981  132.7886 H   0  0  0  0  0  0  0  0  0  0  0  0
  145.6018  156.2872  133.3438 H   0  0  0  0  0  0  0  0  0  0  0  0
  1  2  1  0
  2  3  1  0
  3  4  2  0
  3  5  1  0
  5  6  1  0
  6  7  1  0
  7  8  1  0
  7  9  2  0
  6 10  2  0
 10 11  1  0
 11 12  2  0
 12 13  1  0
 13 14  2  0
 14 15  1  0
 15 16  1  0
 15 17  1  0
 15 18  1  0
 14 19  1  0
 19 20  2  0
 20  5  1  0
 20 11  1  0
  1 21  1  0
  1 22  1  0
  1 23  1  0
  8 24  1  0
 10 25  1  0
 12 26  1  0
 13 27  1  0
 19 28  1  0
M  CHG  1   8  -1
M  END
>  <UniqueID>  (13) 
13

>  <SMILES>  (13) 
COC(=O)n1c(C([NH-])=O)cc2ccc(C(F)(F)F)cc21

>  <Energy>  (13) 
66.37600689780204

>  <Genealogy>  (13) 
COC(=O)n1c(C([NH-])=O)cc2ccc(C(F)(F)F)cc21 (protonated)
COC(=O)n1c(C([NH-])=O)cc2ccc(C(F)(F)F)cc21 (3D coordinates assigned)
COC(=O)n1c(C([NH-])=O)cc2ccc(C(F)(F)F)cc21 (optimized conformer: 66.37600689780204 kcal/mol)

>  <smiles>  (13) 
COC(=O)n1c(C(N)=O)cc2ccc(C(F)(F)F)cc21

>  <score_type>  (13) 
oracle

>  <origin>  (13) 
adg

>  <m_score__min__energy>  (13) 
-5.1299999999999999

>  <m_primary>  (13) 
energy

$$$$
13:0
     RDKit          3D

 50 51  0  0  0  0  0  0  0  0999 V2000
  137.3000  160.1070  130.7070 C   0  0  0  0  0  0  0  0  0  0  0  0
  138.1010  158.6860  131.5220 S   0  0  0  0  0  0  0  0  0  0  0  0
  139.8170  159.3110  131.3600 C   0  0  0  0  0  0  0  0  0  0  0  0
  140.3780  159.7420  132.7180 C   0  0  0  0  0  0  0  0  0  0  0  0
  141.1670  158.6160  133.4030 C   0  0  0  0  0  0  0  0  0  0  0  0
  140.3530  157.9290  134.4660 C   0  0  0  0  0  0  0  0  0  0  0  0
  139.1270  158.2010  134.5760 O   0  0  0  0  0  0  0  0  0  0  0  0
  140.9480  156.9850  135.3700 N   0  0  0  0  0  0  0  0  0  0  0  0
  141.3460  157.2120  136.6530 C   0  0  0  0  0  0  0  0  0  0  0  0
  141.1660  158.4750  137.3990 C   0  0  0  0  0  0  0  0  0  0  0  0
  140.4280  159.5450  136.8130 N   0  0  0  0  0  0  0  0  0  0  0  0
  141.6730  158.6280  138.5420 O   0  0  0  0  0  0  0  0  0  0  0  0
  141.9100  156.0610  137.2010 C   0  0  0  0  0  0  0  0  0  0  0  0
  141.8450  155.1140  136.2040 C   0  0  0  0  0  0  0  0  0  0  0  0
  142.2770  153.7910  136.1960 C   0  0  0  0  0  0  0  0  0  0  0  0
  142.1090  153.0510  135.0140 C   0  0  0  0  0  0  0  0  0  0  0  0
  141.5200  153.6430  133.8680 C   0  0  0  0  0  0  0  0  0  0  0  0
  141.3920  152.8540  132.5950 C   0  0  0  0  0  0  0  0  0  0  0  0
  141.8720  151.4380  132.7920 C   0  0  0  0  0  0  0  0  0  0  0  0
  143.0730  151.2240  132.8690 O   0  0  0  0  0  0  0  0  0  0  0  0
  140.8920  150.2940  132.9760 C   0  0  0  0  0  0  0  0  0  0  0  0
  140.2430  149.8480  131.7230 N   0  0  0  0  0  0  0  0  0  0  0  0
  140.6930  148.5140  131.2950 C   0  0  0  0  0  0  0  0  0  0  0  0
  138.7740  149.9190  131.7780 C   0  0  0  0  0  0  0  0  0  0  0  0
  141.0960  154.9890  133.9140 C   0  0  0  0  0  0  0  0  0  0  0  0
  141.2630  155.6970  135.1080 C   0  0  0  0  0  0  0  0  0  0  0  0
  136.9113  160.7965  131.4709 H   0  0  0  0  0  0  0  0  0  0  0  0
  138.0351  160.6319  130.0792 H   0  0  0  0  0  0  0  0  0  0  0  0
  136.4703  159.7498  130.0792 H   0  0  0  0  0  0  0  0  0  0  0  0
  140.4519  158.5139  130.9458 H   0  0  0  0  0  0  0  0  0  0  0  0
  139.8085  160.1853  130.6925 H   0  0  0  0  0  0  0  0  0  0  0  0
  141.0464  160.6027  132.5683 H   0  0  0  0  0  0  0  0  0  0  0  0
  139.5290  160.0030  133.3670 H   0  0  0  0  0  0  0  0  0  0  0  0
  141.4605  157.8749  132.6449 H   0  0  0  0  0  0  0  0  0  0  0  0
  142.0504  159.0614  133.8838 H   0  0  0  0  0  0  0  0  0  0  0  0
  139.4930  159.3780  136.3780 H   0  0  0  0  0  0  0  0  0  0  0  0
  142.3197  155.9361  138.2142 H   0  0  0  0  0  0  0  0  0  0  0  0
  142.7358  153.3389  137.0877 H   0  0  0  0  0  0  0  0  0  0  0  0
  142.4376  152.0019  134.9770 H   0  0  0  0  0  0  0  0  0  0  0  0
  140.3365  152.8373  132.2857 H   0  0  0  0  0  0  0  0  0  0  0  0
  142.0104  153.3314  131.8206 H   0  0  0  0  0  0  0  0  0  0  0  0
  141.4348  149.4399  133.4071 H   0  0  0  0  0  0  0  0  0  0  0  0
  140.0918  150.6640  133.6338 H   0  0  0  0  0  0  0  0  0  0  0  0
  140.9015  147.8958  132.1806 H   0  0  0  0  0  0  0  0  0  0  0  0
  139.9059  148.0374  130.6922 H   0  0  0  0  0  0  0  0  0  0  0  0
  141.6079  148.6116  130.6922 H   0  0  0  0  0  0  0  0  0  0  0  0
  138.4467  149.9348  132.8281 H   0  0  0  0  0  0  0  0  0  0  0  0
  138.4320  150.8347  131.2735 H   0  0  0  0  0  0  0  0  0  0  0  0
  138.3453  149.0405  131.2735 H   0  0  0  0  0  0  0  0  0  0  0  0
  140.6455  155.4686  133.0325 H   0  0  0  0  0  0  0  0  0  0  0  0
  1  2  1  0
  2  3  1  0
  3  4  1  0
  4  5  1  0
  5  6  1  0
  6  7  2  0
  6  8  1  0
  8  9  1  0
  9 10  1  0
 10 11  1  0
 10 12  2  0
  9 13  2  0
 13 14  1  0
 14 15  2  0
 15 16  1  0
 16 17  2  0
 17 18  1  0
 18 19  1  0
 19 20  2  0
 19 21  1  0
 21 22  1  0
 22 23  1  0
 22 24  1  0
 17 25  1  0
 25 26  2  0
 26  8  1  0
 26 14  1  0
  1 27  1  0
  1 28  1  0
  1 29  1  0
  3 30  1  0
  3 31  1  0
  4 32  1  0
  4 33  1  0
  5 34  1  0
  5 35  1  0
 11 36  1  0
 13 37  1  0
 15 38  1  0
 16 39  1  0
 18 40  1  0
 18 41  1  0
 21 42  1  0
 21 43  1  0
 23 44  1  0
 23 45  1  0
 23 46  1  0
 24 47  1  0
 24 48  1  0
 24 49  1  0
 25 50  1  0
M  CHG  1  11  -1
M  END
>  <UniqueID>  (14) 
14

>  <SMILES>  (14) 
CSCCCC(=O)n1c(C([NH-])=O)cc2ccc(CC(=O)CN(C)C)cc21

>  <Energy>  (14) 
80.12601887869913

>  <Genealogy>  (14) 
CSCCCC(=O)n1c(C([NH-])=O)cc2ccc(CC(=O)CN(C)C)cc21 (protonated)
CSCCCC(=O)n1c(C([NH-])=O)cc2ccc(CC(=O)CN(C)C)cc21 (3D coordinates assigned)
CSCCCC(=O)n1c(C([NH-])=O)cc2ccc(CC(=O)CN(C)C)cc21 (optimized conformer: 80.12601887869913 kcal/mol)

>  <smiles>  (14) 
CSCCCC(=O)n1c(C(N)=O)cc2ccc(CC(=O)CN(C)C)cc21

>  <score_type>  (14) 
oracle

>  <origin>  (14) 
adg

>  <m_score__min__energy>  (14) 
-7.9800000000000004

>  <m_primary>  (14) 
energy

$$$$
14:0
     RDKit          3D

 39 40  0  0  0  0  0  0  0  0999 V2000
  138.6500  158.2470  132.1000 C   0  0  0  0  0  0  0  0  0  0  0  0
  138.3470  157.5480  133.3390 N   0  0  0  0  0  0  0  0  0  0  0  0
  139.2090  157.5840  134.4790 C   0  0  0  0  0  0  0  0  0  0  0  0
  138.7430  157.8620  135.6170 O   0  0  0  0  0  0  0  0  0  0  0  0
  140.6110  157.3150  134.3260 N   0  0  0  0  0  0  0  0  0  0  0  0
  141.6540  158.1730  134.5150 C   0  0  0  0  0  0  0  0  0  0  0  0
  141.5640  159.5450  135.0580 C   0  0  0  0  0  0  0  0  0  0  0  0
  140.8540  159.8120  136.2650 N   0  0  0  0  0  0  0  0  0  0  0  0
  142.1580  160.4890  134.4710 O   0  0  0  0  0  0  0  0  0  0  0  0
  142.8600  157.5530  134.1940 C   0  0  0  0  0  0  0  0  0  0  0  0
  142.5230  156.2770  133.8070 C   0  0  0  0  0  0  0  0  0  0  0  0
  143.3290  155.2300  133.3750 C   0  0  0  0  0  0  0  0  0  0  0  0
  142.7060  154.0240  133.0110 C   0  0  0  0  0  0  0  0  0  0  0  0
  141.2960  153.8850  133.0730 C   0  0  0  0  0  0  0  0  0  0  0  0
  140.7010  152.6310  132.6810 N   0  0  0  0  0  0  0  0  0  0  0  0
  141.2530  151.3140  133.0230 C   0  0  1  0  0  0  0  0  0  0  0  0
  141.3570  151.1490  134.5410 C   0  0  0  0  0  0  0  0  0  0  0  0
  140.3940  150.2220  132.4530 C   0  0  0  0  0  0  0  0  0  0  0  0
  140.6070  149.0190  132.7700 O   0  0  0  0  0  0  0  0  0  0  0  0
  139.3820  150.5500  131.5470 O   0  0  0  0  0  0  0  0  0  0  0  0
  138.7390  149.5780  130.7310 C   0  0  0  0  0  0  0  0  0  0  0  0
  140.5100  154.9790  133.5140 C   0  0  0  0  0  0  0  0  0  0  0  0
  141.1600  156.1580  133.8940 C   0  0  0  0  0  0  0  0  0  0  0  0
  139.0777  159.2338  132.3309 H   0  0  0  0  0  0  0  0  0  0  0  0
  139.3748  157.6607  131.5161 H   0  0  0  0  0  0  0  0  0  0  0  0
  137.7266  158.3751  131.5161 H   0  0  0  0  0  0  0  0  0  0  0  0
  139.8340  159.6060  136.3450 H   0  0  0  0  0  0  0  0  0  0  0  0
  143.8679  157.9912  134.2403 H   0  0  0  0  0  0  0  0  0  0  0  0
  144.4219  155.3421  133.3197 H   0  0  0  0  0  0  0  0  0  0  0  0
  143.3204  153.1763  132.6734 H   0  0  0  0  0  0  0  0  0  0  0  0
  139.8200  152.6680  132.1180 H   0  0  0  0  0  0  0  0  0  0  0  0
  142.2610  151.2430  132.5884 H   0  0  0  0  0  0  0  0  0  0  0  0
  140.8334  151.9797  135.0368 H   0  0  0  0  0  0  0  0  0  0  0  0
  140.8963  150.1955  134.8386 H   0  0  0  0  0  0  0  0  0  0  0  0
  142.4160  151.1533  134.8386 H   0  0  0  0  0  0  0  0  0  0  0  0
  138.2451  148.8314  131.3703 H   0  0  0  0  0  0  0  0  0  0  0  0
  137.9883  150.0711  130.0959 H   0  0  0  0  0  0  0  0  0  0  0  0
  139.4864  149.0800  130.0959 H   0  0  0  0  0  0  0  0  0  0  0  0
  139.4135  154.9026  133.5565 H   0  0  0  0  0  0  0  0  0  0  0  0
  1  2  1  0
  2  3  1  0
  3  4  2  0
  3  5  1  0
  5  6  1  0
  6  7  1  0
  7  8  1  0
  7  9  2  0
  6 10  2  0
 10 11  1  0
 11 12  2  0
 12 13  1  0
 13 14  2  0
 14 15  1  0
 15 16  1  0
 16 17  1  0
 16 18  1  0
 18 19  2  0
 18 20  1  0
 20 21  1  0
 14 22  1  0
 22 23  2  0
 23  5  1  0
 23 11  1  0
  1 24  1  0
  1 25  1  0
  1 26  1  0
  8 27  1  0
 10 28  1  0
 12 29  1  0
 13 30  1  0
 15 31  1  0
 16 32  1  6
 17 33  1  0
 17 34  1  0
 17 35  1  0
 21 36  1  0
 21 37  1  0
 21 38  1  0
 22 39  1  0
M  CHG  2   2  -1   8  -1
M  END
>  <UniqueID>  (15) 
15

>  <SMILES>  (15) 
C[N-]C(=O)n1c(C([NH-])=O)cc2ccc(N[C@@H](C)C(=O)OC)cc21

>  <Energy>  (15) 
70.06723466362764

>  <Genealogy>  (15) 
C[N-]C(=O)n1c(C([NH-])=O)cc2ccc(NC(C)C(=O)OC)cc21 (protonated)
C[N-]C(=O)n1c(C([NH-])=O)cc2ccc(N[C@@H](C)C(=O)OC)cc21 (chirality)
C[N-]C(=O)n1c(C([NH-])=O)cc2ccc(N[C@@H](C)C(=O)OC)cc21 (3D coordinates assigned)
C[N-]C(=O)n1c(C([NH-])=O)cc2ccc(N[C@@H](C)C(=O)OC)cc21 (optimized conformer: 70.06723466362764 kcal/mol)

>  <smiles>  (15) 
CNC(=O)n1c(C(N)=O)cc2ccc(NC(C)C(=O)OC)cc21

>  <score_type>  (15) 
oracle

>  <origin>  (15) 
adg

>  <m_score__min__energy>  (15) 
-6.9400000000000004

>  <m_primary>  (15) 
energy

$$$$
15:0
     RDKit          3D

 45 47  0  0  0  0  0  0  0  0999 V2000
  149.6260  161.3670  129.9270 C   0  0  0  0  0  0  0  0  0  0  0  0
  149.7470  160.8480  131.2960 N   0  0  0  0  0  0  0  0  0  0  0  0
  148.8030  159.7570  131.6200 C   0  0  1  0  0  0  0  0  0  0  0  0
  149.5440  158.4150  131.8460 C   0  0  0  0  0  0  0  0  0  0  0  0
  148.8490  157.5030  132.8710 C   0  0  0  0  0  0  0  0  0  0  0  0
  147.3210  157.6090  132.7900 C   0  0  0  0  0  0  0  0  0  0  0  0
  146.8710  159.0010  132.9590 N   0  0  0  0  0  0  0  0  0  0  0  0
  145.5200  159.2720  133.3940 C   0  0  0  0  0  0  0  0  0  0  0  0
  145.0990  160.6060  133.6450 C   0  0  0  0  0  0  0  0  0  0  0  0
  143.7930  160.8790  134.0830 C   0  0  0  0  0  0  0  0  0  0  0  0
  142.9250  159.8060  134.2540 C   0  0  0  0  0  0  0  0  0  0  0  0
  141.6200  159.7860  134.6880 C   0  0  0  0  0  0  0  0  0  0  0  0
  141.2480  158.4430  134.6790 C   0  0  0  0  0  0  0  0  0  0  0  0
  139.8830  157.9740  134.9990 C   0  0  0  0  0  0  0  0  0  0  0  0
  139.1840  157.1440  134.0740 N   0  0  0  0  0  0  0  0  0  0  0  0
  139.3420  158.2650  136.0980 O   0  0  0  0  0  0  0  0  0  0  0  0
  142.2850  157.6630  134.2610 N   0  0  0  0  0  0  0  0  0  0  0  0
  142.3290  156.2290  134.1850 C   0  0  0  0  0  0  0  0  0  0  0  0
  141.6180  155.6210  133.3380 O   0  0  0  0  0  0  0  0  0  0  0  0
  143.1790  155.5140  135.0340 O   0  0  0  0  0  0  0  0  0  0  0  0
  142.8270  155.1850  136.3720 C   0  0  0  0  0  0  0  0  0  0  0  0
  143.3030  158.5140  134.0030 C   0  0  0  0  0  0  0  0  0  0  0  0
  144.6050  158.2100  133.5850 C   0  0  0  0  0  0  0  0  0  0  0  0
  147.8260  160.1040  132.7650 C   0  0  0  0  0  0  0  0  0  0  0  0
  149.3764  162.4378  129.9615 H   0  0  0  0  0  0  0  0  0  0  0  0
  150.5802  161.2298  129.3972 H   0  0  0  0  0  0  0  0  0  0  0  0
  148.8308  160.8220  129.3972 H   0  0  0  0  0  0  0  0  0  0  0  0
  150.7240  160.4890  131.4140 H   0  0  0  0  0  0  0  0  0  0  0  0
  148.1618  159.6293  130.7353 H   0  0  0  0  0  0  0  0  0  0  0  0
  149.6012  157.8814  130.8858 H   0  0  0  0  0  0  0  0  0  0  0  0
  150.5402  158.6555  132.2457 H   0  0  0  0  0  0  0  0  0  0  0  0
  149.1437  156.4611  132.6769 H   0  0  0  0  0  0  0  0  0  0  0  0
  149.1593  157.8231  133.8766 H   0  0  0  0  0  0  0  0  0  0  0  0
  146.9880  157.2416  131.8081 H   0  0  0  0  0  0  0  0  0  0  0  0
  146.8878  157.0035  133.5998 H   0  0  0  0  0  0  0  0  0  0  0  0
  145.8054  161.4356  133.4942 H   0  0  0  0  0  0  0  0  0  0  0  0
  143.4666  161.9099  134.2846 H   0  0  0  0  0  0  0  0  0  0  0  0
  141.0013  160.6473  134.9802 H   0  0  0  0  0  0  0  0  0  0  0  0
  139.6980  156.5970  133.3480 H   0  0  0  0  0  0  0  0  0  0  0  0
  143.4491  155.7665  137.0683 H   0  0  0  0  0  0  0  0  0  0  0  0
  141.7665  155.4232  136.5413 H   0  0  0  0  0  0  0  0  0  0  0  0
  142.9931  154.1109  136.5413 H   0  0  0  0  0  0  0  0  0  0  0  0
  144.9095  157.1677  133.4090 H   0  0  0  0  0  0  0  0  0  0  0  0
  147.2763  161.0220  132.5100 H   0  0  0  0  0  0  0  0  0  0  0  0
  148.3956  160.2579  133.6934 H   0  0  0  0  0  0  0  0  0  0  0  0
  1  2  1  0
  2  3  1  0
  3  4  1  0
  4  5  1  0
  5  6  1  0
  6  7  1  0
  7  8  1  0
  8  9  2  0
  9 10  1  0
 10 11  2  0
 11 12  1  0
 12 13  2  0
 13 14  1  0
 14 15  1  0
 14 16  2  0
 13 17  1  0
 17 18  1  0
 18 19  2  0
 18 20  1  0
 20 21  1  0
 17 22  1  0
 22 23  2  0
  7 24  1  0
 24  3  1  0
 23  8  1  0
 22 11  1  0
  1 25  1  0
  1 26  1  0
  1 27  1  0
  2 28  1  0
  3 29  1  6
  4 30  1  0
  4 31  1  0
  5 32  1  0
  5 33  1  0
  6 34  1  0
  6 35  1  0
  9 36  1  0
 10 37  1  0
 12 38  1  0
 15 39  1  0
 21 40  1  0
 21 41  1  0
 21 42  1  0
 23 43  1  0
 24 44  1  0
 24 45  1  0
M  CHG  1  15  -1
M  END
>  <UniqueID>  (16) 
16

>  <SMILES>  (16) 
CN[C@H]1CCCN(c2ccc3cc(C([NH-])=O)n(C(=O)OC)c3c2)C1

>  <Energy>  (16) 
90.74436616509551

>  <Genealogy>  (16) 
CNC1CCCN(c2ccc3cc(C([NH-])=O)n(C(=O)OC)c3c2)C1 (protonated)
CN[C@H]1CCCN(c2ccc3cc(C([NH-])=O)n(C(=O)OC)c3c2)C1 (chirality)
CN[C@H]1CCCN(c2ccc3cc(C([NH-])=O)n(C(=O)OC)c3c2)C1 (3D coordinates assigned)
CN[C@H]1CCCN(c2ccc3cc(C([NH-])=O)n(C(=O)OC)c3c2)C1 (nonaromatic ring conformer: 90.74436616509551 kcal/mol)

>  <smiles>  (16) 
CNC1CCCN(c2ccc3cc(C(N)=O)n(C(=O)OC)c3c2)C1

>  <score_type>  (16) 
oracle

>  <origin>  (16) 
adg

>  <m_score__min__energy>  (16) 
-8.1199999999999992

>  <m_primary>  (16) 
energy

$$$$
16:0
     RDKit          3D

 41 42  0  0  0  0  0  0  0  0999 V2000
  142.5070  149.9570  132.2320 C   0  0  0  0  0  0  0  0  0  0  0  0
  141.1520  150.3910  132.5910 N   0  0  0  0  0  0  0  0  0  0  0  0
  140.0430  149.4310  132.4820 C   0  0  0  0  0  0  0  0  0  0  0  0
  139.1530  149.7610  131.2840 C   0  0  0  0  0  0  0  0  0  0  0  0
  139.8350  150.6060  130.3990 O   0  0  0  0  0  0  0  0  0  0  0  0
  140.9740  151.7280  133.1170 C   0  0  0  0  0  0  0  0  0  0  0  0
  140.0880  152.4760  132.6200 O   0  0  0  0  0  0  0  0  0  0  0  0
  141.8020  152.2750  134.2540 C   0  0  0  0  0  0  0  0  0  0  0  0
  142.3370  153.6470  133.9370 C   0  0  0  0  0  0  0  0  0  0  0  0
  143.6570  153.7980  133.4400 C   0  0  0  0  0  0  0  0  0  0  0  0
  144.1750  155.0730  133.1550 C   0  0  0  0  0  0  0  0  0  0  0  0
  143.3530  156.1740  133.3750 C   0  0  0  0  0  0  0  0  0  0  0  0
  143.5950  157.5160  133.1850 C   0  0  0  0  0  0  0  0  0  0  0  0
  142.4210  158.1620  133.5710 C   0  0  0  0  0  0  0  0  0  0  0  0
  142.2610  159.6300  133.6080 C   0  0  0  0  0  0  0  0  0  0  0  0
  140.9830  160.1980  133.8820 N   0  0  0  0  0  0  0  0  0  0  0  0
  143.2380  160.3900  133.3780 O   0  0  0  0  0  0  0  0  0  0  0  0
  141.4900  157.2520  133.9720 N   0  0  0  0  0  0  0  0  0  0  0  0
  140.1470  157.4950  134.4140 C   0  0  0  0  0  0  0  0  0  0  0  0
  139.9410  157.9130  135.5850 O   0  0  0  0  0  0  0  0  0  0  0  0
  138.9850  157.1530  133.5370 C   0  0  0  0  0  0  0  0  0  0  0  0
  138.9780  158.2270  132.1180 Cl  0  0  0  0  0  0  0  0  0  0  0  0
  142.0760  156.0430  133.8520 C   0  0  0  0  0  0  0  0  0  0  0  0
  141.5270  154.7890  134.1280 C   0  0  0  0  0  0  0  0  0  0  0  0
  143.0872  149.7712  133.1479 H   0  0  0  0  0  0  0  0  0  0  0  0
  142.4508  149.0319  131.6395 H   0  0  0  0  0  0  0  0  0  0  0  0
  142.9987  150.7426  131.6395 H   0  0  0  0  0  0  0  0  0  0  0  0
  140.4540  148.4183  132.3574 H   0  0  0  0  0  0  0  0  0  0  0  0
  139.4362  149.4889  133.3977 H   0  0  0  0  0  0  0  0  0  0  0  0
  138.8827  148.8303  130.7637 H   0  0  0  0  0  0  0  0  0  0  0  0
  138.2434  150.2678  131.6386 H   0  0  0  0  0  0  0  0  0  0  0  0
  139.9340  151.4740  130.8690 H   0  0  0  0  0  0  0  0  0  0  0  0
  141.1752  152.3354  135.1559 H   0  0  0  0  0  0  0  0  0  0  0  0
  142.6558  151.6003  134.4150 H   0  0  0  0  0  0  0  0  0  0  0  0
  144.2818  152.9077  133.2759 H   0  0  0  0  0  0  0  0  0  0  0  0
  145.1980  155.1967  132.7701 H   0  0  0  0  0  0  0  0  0  0  0  0
  144.5185  157.9801  132.8086 H   0  0  0  0  0  0  0  0  0  0  0  0
  140.3810  159.8220  134.6480 H   0  0  0  0  0  0  0  0  0  0  0  0
  139.0707  156.1077  133.2055 H   0  0  0  0  0  0  0  0  0  0  0  0
  138.0492  157.2829  134.1003 H   0  0  0  0  0  0  0  0  0  0  0  0
  140.4909  154.6927  134.4848 H   0  0  0  0  0  0  0  0  0  0  0  0
  1  2  1  0
  2  3  1  0
  3  4  1  0
  4  5  1  0
  2  6  1  0
  6  7  2  0
  6  8  1  0
  8  9  1  0
  9 10  2  0
 10 11  1  0
 11 12  2  0
 12 13  1  0
 13 14  2  0
 14 15  1  0
 15 16  1  0
 15 17  2  0
 14 18  1  0
 18 19  1  0
 19 20  2  0
 19 21  1  0
 21 22  1  0
 18 23  1  0
 23 24  2  0
 24  9  1  0
 23 12  1  0
  1 25  1  0
  1 26  1  0
  1 27  1  0
  3 28  1  0
  3 29  1  0
  4 30  1  0
  4 31  1  0
  5 32  1  0
  8 33  1  0
  8 34  1  0
 10 35  1  0
 11 36  1  0
 13 37  1  0
 16 38  1  0
 21 39  1  0
 21 40  1  0
 24 41  1  0
M  CHG  1  16  -1
M  END
>  <UniqueID>  (17) 
17

>  <SMILES>  (17) 
CN(CCO)C(=O)Cc1ccc2cc(C([NH-])=O)n(C(=O)CCl)c2c1

>  <Energy>  (17) 
73.65361562065858

>  <Genealogy>  (17) 
CN(CCO)C(=O)Cc1ccc2cc(C([NH-])=O)n(C(=O)CCl)c2c1 (protonated)
CN(CCO)C(=O)Cc1ccc2cc(C([NH-])=O)n(C(=O)CCl)c2c1 (3D coordinates assigned)
CN(CCO)C(=O)Cc1ccc2cc(C([NH-])=O)n(C(=O)CCl)c2c1 (optimized conformer: 73.65361562065858 kcal/mol)

>  <smiles>  (17) 
CN(CCO)C(=O)Cc1ccc2cc(C(N)=O)n(C(=O)CCl)c2c1

>  <score_type>  (17) 
oracle

>  <origin>  (17) 
adg

>  <m_score__min__energy>  (17) 
-6.8600000000000003

>  <m_primary>  (17) 
energy

$$$$
17:0
     RDKit          3D

 43 44  0  0  0  0  0  0  0  0999 V2000
  149.9600  150.8430  131.5000 C   0  0  0  0  0  0  0  0  0  0  0  0
  149.8080  151.5450  132.6210 C   0  0  0  0  0  0  0  0  0  0  0  0
  149.0900  152.8280  132.6510 C   0  0  0  0  0  0  0  0  0  0  0  0
  149.6730  153.8650  132.2330 O   0  0  0  0  0  0  0  0  0  0  0  0
  147.7780  152.8850  133.1420 O   0  0  0  0  0  0  0  0  0  0  0  0
  146.6490  152.3600  132.4970 C   0  0  0  0  0  0  0  0  0  0  0  0
  146.7320  151.3020  131.8160 O   0  0  0  0  0  0  0  0  0  0  0  0
  145.3850  153.0320  132.6260 N   0  0  0  0  0  0  0  0  0  0  0  0
  145.1650  154.3780  132.6270 C   0  0  0  0  0  0  0  0  0  0  0  0
  146.2070  155.4240  132.6730 C   0  0  0  0  0  0  0  0  0  0  0  0
  147.4440  155.2680  131.9790 N   0  0  0  0  0  0  0  0  0  0  0  0
  146.0230  156.4490  133.3830 O   0  0  0  0  0  0  0  0  0  0  0  0
  143.8020  154.6570  132.6270 C   0  0  0  0  0  0  0  0  0  0  0  0
  143.1810  153.4290  132.6420 C   0  0  0  0  0  0  0  0  0  0  0  0
  141.8250  153.1160  132.6430 C   0  0  0  0  0  0  0  0  0  0  0  0
  141.4630  151.7590  132.6310 C   0  0  0  0  0  0  0  0  0  0  0  0
  142.4560  150.7470  132.5970 C   0  0  0  0  0  0  0  0  0  0  0  0
  142.0550  149.2960  132.6150 C   0  0  0  0  0  0  0  0  0  0  0  0
  140.5580  149.1620  132.9600 C   0  0  0  0  0  0  0  0  0  0  0  0
  139.6900  148.8430  131.8040 N   0  0  0  0  0  0  0  0  0  0  0  0
  138.7470  149.9240  131.4770 C   0  0  0  0  0  0  0  0  0  0  0  0
  140.4470  148.4180  130.6160 C   0  0  0  0  0  0  0  0  0  0  0  0
  143.8220  151.1040  132.6030 C   0  0  0  0  0  0  0  0  0  0  0  0
  144.1570  152.4640  132.6380 C   0  0  0  0  0  0  0  0  0  0  0  0
  150.5040  149.8871  131.5191 H   0  0  0  0  0  0  0  0  0  0  0  0
  149.5416  151.2189  130.5547 H   0  0  0  0  0  0  0  0  0  0  0  0
  150.2338  151.1521  133.5561 H   0  0  0  0  0  0  0  0  0  0  0  0
  148.1470  156.0390  131.9780 H   0  0  0  0  0  0  0  0  0  0  0  0
  147.6950  154.3630  131.5230 H   0  0  0  0  0  0  0  0  0  0  0  0
  143.3232  155.6473  132.6171 H   0  0  0  0  0  0  0  0  0  0  0  0
  141.0605  153.9068  132.6529 H   0  0  0  0  0  0  0  0  0  0  0  0
  140.3995  151.4786  132.6481 H   0  0  0  0  0  0  0  0  0  0  0  0
  142.2405  148.8553  131.6243 H   0  0  0  0  0  0  0  0  0  0  0  0
  142.6478  148.7690  133.3772 H   0  0  0  0  0  0  0  0  0  0  0  0
  140.4471  148.3603  133.7050 H   0  0  0  0  0  0  0  0  0  0  0  0
  140.2332  150.1438  133.3349 H   0  0  0  0  0  0  0  0  0  0  0  0
  138.3605  150.3671  132.4067 H   0  0  0  0  0  0  0  0  0  0  0  0
  139.2646  150.6970  130.8899 H   0  0  0  0  0  0  0  0  0  0  0  0
  137.9109  149.5161  130.8899 H   0  0  0  0  0  0  0  0  0  0  0  0
  141.3658  147.9022  130.9319 H   0  0  0  0  0  0  0  0  0  0  0  0
  139.8309  147.7339  130.0140 H   0  0  0  0  0  0  0  0  0  0  0  0
  140.7103  149.3002  130.0140 H   0  0  0  0  0  0  0  0  0  0  0  0
  144.6053  150.3321  132.5807 H   0  0  0  0  0  0  0  0  0  0  0  0
  1  2  2  0
  2  3  1  0
  3  4  2  0
  3  5  1  0
  5  6  1  0
  6  7  2  0
  6  8  1  0
  8  9  1  0
  9 10  1  0
 10 11  1  0
 10 12  2  0
  9 13  2  0
 13 14  1  0
 14 15  2  0
 15 16  1  0
 16 17  2  0
 17 18  1  0
 18 19  1  0
 19 20  1  0
 20 21  1  0
 20 22  1  0
 17 23  1  0
 23 24  2  0
 24  8  1  0
 24 14  1  0
  1 25  1  0
  1 26  1  0
  2 27  1  0
 11 28  1  0
 11 29  1  0
 13 30  1  0
 15 31  1  0
 16 32  1  0
 18 33  1  0
 18 34  1  0
 19 35  1  0
 19 36  1  0
 21 37  1  0
 21 38  1  0
 21 39  1  0
 22 40  1  0
 22 41  1  0
 22 42  1  0
 23 43  1  0
M  END
>  <UniqueID>  (18) 
18

>  <SMILES>  (18) 
C=CC(=O)OC(=O)n1c(C(N)=O)cc2ccc(CCN(C)C)cc21

>  <Energy>  (18) 
80.99533231879707

>  <Genealogy>  (18) 
C=CC(=O)OC(=O)n1c(C(N)=O)cc2ccc(CCN(C)C)cc21 (3D coordinates assigned)
C=CC(=O)OC(=O)n1c(C(N)=O)cc2ccc(CCN(C)C)cc21 (optimized conformer: 80.99533231879707 kcal/mol)

>  <smiles>  (18) 
C=CC(=O)OC(=O)n1c(C(N)=O)cc2ccc(CCN(C)C)cc21

>  <score_type>  (18) 
oracle

>  <origin>  (18) 
adg

>  <m_score__min__energy>  (18) 
-7.6100000000000003

>  <m_primary>  (18) 
energy

$$$$
18:0
     RDKit          3D

 43 44  0  0  0  0  0  0  0  0999 V2000
  139.5340  155.9850  132.9690 C   0  0  0  0  0  0  0  0  0  0  0  0
  140.6170  154.9860  133.3620 C   0  0  0  0  0  0  0  0  0  0  0  0
  141.8910  155.6230  133.4230 O   0  0  0  0  0  0  0  0  0  0  0  0
  142.2820  156.4680  134.4680 C   0  0  0  0  0  0  0  0  0  0  0  0
  142.4140  156.0160  135.6390 O   0  0  0  0  0  0  0  0  0  0  0  0
  142.5660  157.8490  134.1980 N   0  0  0  0  0  0  0  0  0  0  0  0
  141.7340  158.9200  134.3450 C   0  0  0  0  0  0  0  0  0  0  0  0
  140.2920  158.8630  134.6620 C   0  0  0  0  0  0  0  0  0  0  0  0
  139.8430  158.6070  135.9900 N   0  0  0  0  0  0  0  0  0  0  0  0
  139.4450  158.9950  133.7390 O   0  0  0  0  0  0  0  0  0  0  0  0
  142.4140  160.1060  134.0760 C   0  0  0  0  0  0  0  0  0  0  0  0
  143.6950  159.7260  133.7470 C   0  0  0  0  0  0  0  0  0  0  0  0
  144.8020  160.5030  133.4150 C   0  0  0  0  0  0  0  0  0  0  0  0
  146.0170  159.8440  133.1660 C   0  0  0  0  0  0  0  0  0  0  0  0
  146.1040  158.4320  133.2500 C   0  0  0  0  0  0  0  0  0  0  0  0
  147.4220  157.7400  133.0420 C   0  0  0  0  0  0  0  0  0  0  0  0
  148.5150  158.7530  132.9270 C   0  0  0  0  0  0  0  0  0  0  0  0
  148.8560  159.4210  133.9400 O   0  0  0  0  0  0  0  0  0  0  0  0
  149.2040  158.9030  131.6790 N   0  0  0  0  0  0  0  0  0  0  0  0
  149.6070  160.1680  131.0600 C   0  0  0  0  0  0  0  0  0  0  0  0
  150.0060  159.9650  129.5950 C   0  0  0  0  0  0  0  0  0  0  0  0
  148.5090  161.2250  131.2100 C   0  0  0  0  0  0  0  0  0  0  0  0
  144.9620  157.6780  133.5980 C   0  0  0  0  0  0  0  0  0  0  0  0
  143.7600  158.3590  133.8270 C   0  0  0  0  0  0  0  0  0  0  0  0
  139.0771  156.4064  133.8766 H   0  0  0  0  0  0  0  0  0  0  0  0
  139.9808  156.7948  132.3735 H   0  0  0  0  0  0  0  0  0  0  0  0
  138.7629  155.4744  132.3735 H   0  0  0  0  0  0  0  0  0  0  0  0
  140.3772  154.5627  134.3486 H   0  0  0  0  0  0  0  0  0  0  0  0
  140.6555  154.1894  132.6044 H   0  0  0  0  0  0  0  0  0  0  0  0
  139.4460  159.3720  136.5800 H   0  0  0  0  0  0  0  0  0  0  0  0
  142.0121  161.1291  134.1178 H   0  0  0  0  0  0  0  0  0  0  0  0
  144.7271  161.5985  133.3498 H   0  0  0  0  0  0  0  0  0  0  0  0
  146.9102  160.4298  132.9031 H   0  0  0  0  0  0  0  0  0  0  0  0
  147.6259  157.0787  133.8971 H   0  0  0  0  0  0  0  0  0  0  0  0
  147.3781  157.1474  132.1163 H   0  0  0  0  0  0  0  0  0  0  0  0
  150.4964  160.5399  131.5898 H   0  0  0  0  0  0  0  0  0  0  0  0
  150.9855  159.4667  129.5474 H   0  0  0  0  0  0  0  0  0  0  0  0
  149.2522  159.3408  129.0928 H   0  0  0  0  0  0  0  0  0  0  0  0
  150.0668  160.9418  129.0928 H   0  0  0  0  0  0  0  0  0  0  0  0
  148.3193  161.4076  132.2780 H   0  0  0  0  0  0  0  0  0  0  0  0
  148.8324  162.1604  130.7299 H   0  0  0  0  0  0  0  0  0  0  0  0
  147.5866  160.8663  130.7299 H   0  0  0  0  0  0  0  0  0  0  0  0
  145.0152  156.5829  133.6870 H   0  0  0  0  0  0  0  0  0  0  0  0
  1  2  1  0
  2  3  1  0
  3  4  1  0
  4  5  2  0
  4  6  1  0
  6  7  1  0
  7  8  1  0
  8  9  1  0
  8 10  2  0
  7 11  2  0
 11 12  1  0
 12 13  2  0
 13 14  1  0
 14 15  2  0
 15 16  1  0
 16 17  1  0
 17 18  2  0
 17 19  1  0
 19 20  1  0
 20 21  1  0
 20 22  1  0
 15 23  1  0
 23 24  2  0
 24  6  1  0
 24 12  1  0
  1 25  1  0
  1 26  1  0
  1 27  1  0
  2 28  1  0
  2 29  1  0
  9 30  1  0
 11 31  1  0
 13 32  1  0
 14 33  1  0
 16 34  1  0
 16 35  1  0
 20 36  1  0
 21 37  1  0
 21 38  1  0
 21 39  1  0
 22 40  1  0
 22 41  1  0
 22 42  1  0
 23 43  1  0
M  CHG  2   9  -1  19  -1
M  END
>  <UniqueID>  (19) 
19

>  <SMILES>  (19) 
CCOC(=O)n1c(C([NH-])=O)cc2ccc(CC(=O)[N-]C(C)C)cc21

>  <Energy>  (19) 
70.70396279284411

>  <Genealogy>  (19) 
CCOC(=O)n1c(C([NH-])=O)cc2ccc(CC(=O)[N-]C(C)C)cc21 (protonated)
CCOC(=O)n1c(C([NH-])=O)cc2ccc(CC(=O)[N-]C(C)C)cc21 (3D coordinates assigned)
CCOC(=O)n1c(C([NH-])=O)cc2ccc(CC(=O)[N-]C(C)C)cc21 (optimized conformer: 70.70396279284411 kcal/mol)

>  <smiles>  (19) 
CCOC(=O)n1c(C(N)=O)cc2ccc(CC(=O)NC(C)C)cc21

>  <score_type>  (19) 
oracle

>  <origin>  (19) 
adg

>  <m_score__min__energy>  (19) 
-6.7999999999999998

>  <m_primary>  (19) 
energy

$$$$
19:0
     RDKit          3D

 37 39  0  0  0  0  0  0  0  0999 V2000
  149.3980  158.9700  133.3550 N   0  0  0  0  0  0  0  0  0  0  0  0
  148.3170  159.6640  132.7320 C   0  0  0  0  0  0  0  0  0  0  0  0
  148.5520  160.4240  131.7560 O   0  0  0  0  0  0  0  0  0  0  0  0
  146.9210  159.4550  133.1680 C   0  0  0  0  0  0  0  0  0  0  0  0
  145.9980  160.4870  133.2970 C   0  0  0  0  0  0  0  0  0  0  0  0
  144.8180  159.8760  133.6580 C   0  0  0  0  0  0  0  0  0  0  0  0
  143.5740  160.4340  133.9390 C   0  0  0  0  0  0  0  0  0  0  0  0
  142.5410  159.5690  134.3330 C   0  0  0  0  0  0  0  0  0  0  0  0
  142.7670  158.1760  134.4450 C   0  0  0  0  0  0  0  0  0  0  0  0
  141.6640  157.2620  134.9130 C   0  0  0  0  0  0  0  0  0  0  0  0
  140.2810  157.7540  134.4620 C   0  0  0  0  0  0  0  0  0  0  0  0
  139.9930  157.4160  132.9940 C   0  0  0  0  0  0  0  0  0  0  0  0
  139.5220  158.6310  132.2620 C   0  0  0  0  0  0  0  0  0  0  0  0
  139.6170  159.8850  132.7560 N   0  0  0  0  0  0  0  0  0  0  0  0
  139.1750  160.8140  131.8660 C   0  0  0  0  0  0  0  0  0  0  0  0
  138.7360  160.3050  130.6500 C   0  0  0  0  0  0  0  0  0  0  0  0
  138.9130  158.6330  130.6940 S   0  0  0  0  0  0  0  0  0  0  0  0
  144.0460  157.6470  134.1580 C   0  0  0  0  0  0  0  0  0  0  0  0
  145.0540  158.5280  133.7470 C   0  0  0  0  0  0  0  0  0  0  0  0
  146.3450  158.2520  133.4520 N   0  0  0  0  0  0  0  0  0  0  0  0
  146.9930  156.9710  133.5430 C   0  0  0  0  0  0  0  0  0  0  0  0
  147.7900  156.7280  134.4860 O   0  0  0  0  0  0  0  0  0  0  0  0
  146.7440  155.9880  132.5940 O   0  0  0  0  0  0  0  0  0  0  0  0
  150.3810  159.1590  133.0590 H   0  0  0  0  0  0  0  0  0  0  0  0
  149.2220  158.2100  134.0490 H   0  0  0  0  0  0  0  0  0  0  0  0
  146.1731  161.5621  133.1434 H   0  0  0  0  0  0  0  0  0  0  0  0
  143.4059  161.5178  133.8550 H   0  0  0  0  0  0  0  0  0  0  0  0
  141.5448  159.9781  134.5572 H   0  0  0  0  0  0  0  0  0  0  0  0
  141.8359  156.2571  134.4999 H   0  0  0  0  0  0  0  0  0  0  0  0
  141.6780  157.2470  136.0128 H   0  0  0  0  0  0  0  0  0  0  0  0
  139.5140  157.2790  135.0914 H   0  0  0  0  0  0  0  0  0  0  0  0
  140.2635  158.8490  134.5648 H   0  0  0  0  0  0  0  0  0  0  0  0
  140.9130  157.0419  132.5210 H   0  0  0  0  0  0  0  0  0  0  0  0
  139.2070  156.6475  132.9525 H   0  0  0  0  0  0  0  0  0  0  0  0
  139.1658  161.8904  132.0926 H   0  0  0  0  0  0  0  0  0  0  0  0
  138.3421  160.8920  129.8072 H   0  0  0  0  0  0  0  0  0  0  0  0
  144.2447  156.5695  134.2551 H   0  0  0  0  0  0  0  0  0  0  0  0
  1  2  1  0
  2  3  2  0
  2  4  1  0
  4  5  2  0
  5  6  1  0
  6  7  2  0
  7  8  1  0
  8  9  2  0
  9 10  1  0
 10 11  1  0
 11 12  1  0
 12 13  1  0
 13 14  2  0
 14 15  1  0
 15 16  2  0
 16 17  1  0
  9 18  1  0
 18 19  2  0
 19 20  1  0
 20 21  1  0
 21 22  2  0
 21 23  1  0
 20  4  1  0
 19  6  1  0
 17 13  1  0
  1 24  1  0
  1 25  1  0
  5 26  1  0
  7 27  1  0
  8 28  1  0
 10 29  1  0
 10 30  1  0
 11 31  1  0
 11 32  1  0
 12 33  1  0
 12 34  1  0
 15 35  1  0
 16 36  1  0
 18 37  1  0
M  CHG  1  23  -1
M  END
>  <UniqueID>  (20) 
20

>  <SMILES>  (20) 
NC(=O)c1cc2ccc(CCCc3nccs3)cc2n1C(=O)[O-]

>  <Energy>  (20) 
103.03238775123005

>  <Genealogy>  (20) 
NC(=O)c1cc2ccc(CCCc3nccs3)cc2n1C(=O)[O-] (protonated)
NC(=O)c1cc2ccc(CCCc3nccs3)cc2n1C(=O)[O-] (3D coordinates assigned)
NC(=O)c1cc2ccc(CCCc3nccs3)cc2n1C(=O)[O-] (optimized conformer: 103.03238775123005 kcal/mol)

>  <smiles>  (20) 
NC(=O)c1cc2ccc(CCCc3nccs3)cc2n1C(=O)O

>  <score_type>  (20) 
oracle

>  <origin>  (20) 
adg

>  <m_score__min__energy>  (20) 
-7.7599999999999998

>  <m_primary>  (20) 
energy

$$$$
20:0
     RDKit          3D

 66 69  0  0  0  0  0  0  0  0999 V2000
  139.1330  157.6200  132.4990 C   0  0  0  0  0  0  0  0  0  0  0  0
  140.1420  157.2960  133.6050 C   0  0  0  0  0  0  0  0  0  0  0  0
  139.9920  158.2730  134.7710 C   0  0  0  0  0  0  0  0  0  0  0  0
  139.9360  155.9730  134.0960 O   0  0  0  0  0  0  0  0  0  0  0  0
  140.2170  154.8150  133.3580 C   0  0  0  0  0  0  0  0  0  0  0  0
  139.3410  154.3030  132.6100 O   0  0  0  0  0  0  0  0  0  0  0  0
  141.6000  154.2090  133.4010 C   0  0  2  0  0  0  0  0  0  0  0  0
  142.7110  155.2740  133.3360 C   0  0  0  0  0  0  0  0  0  0  0  0
  141.7880  153.1370  132.3980 N   0  0  0  0  0  0  0  0  0  0  0  0
  142.3580  151.5950  133.0610 P   0  0  2  0  0  0  0  0  0  0  0  0
  141.5810  151.2220  134.3040 O   0  0  0  0  0  0  0  0  0  0  0  0
  144.0100  151.7700  133.4640 O   0  0  0  0  0  0  0  0  0  0  0  0
  144.7480  152.1580  132.3240 C   0  0  0  0  0  0  0  0  0  0  0  0
  145.7490  153.1610  132.6720 N   0  0  0  0  0  0  0  0  0  0  0  0
  147.0480  152.9140  132.7400 N   0  0  0  0  0  0  0  0  0  0  0  0
  147.6420  154.0990  132.9800 C   0  0  0  0  0  0  0  0  0  0  0  0
  146.6480  155.0620  133.0230 C   0  0  0  0  0  0  0  0  0  0  0  0
  146.8030  156.5290  133.1280 C   0  0  0  0  0  0  0  0  0  0  0  0
  148.0390  157.1600  132.8320 C   0  0  0  0  0  0  0  0  0  0  0  0
  148.1720  158.5560  132.9310 C   0  0  0  0  0  0  0  0  0  0  0  0
  147.0570  159.2940  133.3170 C   0  0  0  0  0  0  0  0  0  0  0  0
  146.9070  160.6520  133.4850 C   0  0  0  0  0  0  0  0  0  0  0  0
  145.5840  160.8270  133.8820 C   0  0  0  0  0  0  0  0  0  0  0  0
  144.9780  162.1530  134.1030 C   0  0  0  0  0  0  0  0  0  0  0  0
  143.6960  162.4770  133.5630 N   0  0  0  0  0  0  0  0  0  0  0  0
  145.5770  162.9940  134.8210 O   0  0  0  0  0  0  0  0  0  0  0  0
  144.9320  159.6320  133.9340 N   0  0  0  0  0  0  0  0  0  0  0  0
  143.5240  159.3980  134.1080 C   0  0  0  0  0  0  0  0  0  0  0  0
  143.1220  158.6020  134.9980 O   0  0  0  0  0  0  0  0  0  0  0  0
  142.5920  160.0880  133.3520 O   0  0  0  0  0  0  0  0  0  0  0  0
  145.8530  158.7030  133.5900 C   0  0  0  0  0  0  0  0  0  0  0  0
  145.6940  157.3150  133.5140 C   0  0  0  0  0  0  0  0  0  0  0  0
  145.4680  154.4450  132.8310 N   0  0  0  0  0  0  0  0  0  0  0  0
  142.1550  150.3620  131.8700 O   0  0  0  0  0  0  0  0  0  0  0  0
  140.9210  149.8090  131.4960 C   0  0  0  0  0  0  0  0  0  0  0  0
  139.6820  150.3820  131.8520 C   0  0  0  0  0  0  0  0  0  0  0  0
  138.4870  149.7590  131.4800 C   0  0  0  0  0  0  0  0  0  0  0  0
  138.5110  148.5690  130.7460 C   0  0  0  0  0  0  0  0  0  0  0  0
  139.7330  148.0080  130.3710 C   0  0  0  0  0  0  0  0  0  0  0  0
  140.9320  148.6300  130.7380 C   0  0  0  0  0  0  0  0  0  0  0  0
  138.1785  157.9265  132.9518 H   0  0  0  0  0  0  0  0  0  0  0  0
  139.5225  158.4382  131.8755 H   0  0  0  0  0  0  0  0  0  0  0  0
  138.9734  156.7279  131.8755 H   0  0  0  0  0  0  0  0  0  0  0  0
  141.1504  157.3822  133.1742 H   0  0  0  0  0  0  0  0  0  0  0  0
  140.0761  157.7254  135.7213 H   0  0  0  0  0  0  0  0  0  0  0  0
  140.7837  159.0346  134.7154 H   0  0  0  0  0  0  0  0  0  0  0  0
  139.0083  158.7620  134.7154 H   0  0  0  0  0  0  0  0  0  0  0  0
  141.6885  153.7249  134.3848 H   0  0  0  0  0  0  0  0  0  0  0  0
  143.0070  155.5578  134.3567 H   0  0  0  0  0  0  0  0  0  0  0  0
  143.5812  154.8640  132.8024 H   0  0  0  0  0  0  0  0  0  0  0  0
  142.3381  156.1607  132.8024 H   0  0  0  0  0  0  0  0  0  0  0  0
  140.8920  152.9650  131.8870 H   0  0  0  0  0  0  0  0  0  0  0  0
  145.2525  151.2756  131.9034 H   0  0  0  0  0  0  0  0  0  0  0  0
  144.0562  152.5911  131.5865 H   0  0  0  0  0  0  0  0  0  0  0  0
  148.7199  154.2703  133.1168 H   0  0  0  0  0  0  0  0  0  0  0  0
  148.9012  156.5511  132.5222 H   0  0  0  0  0  0  0  0  0  0  0  0
  149.1293  159.0505  132.7098 H   0  0  0  0  0  0  0  0  0  0  0  0
  147.6688  161.4316  133.3373 H   0  0  0  0  0  0  0  0  0  0  0  0
  143.0790  161.7260  133.1850 H   0  0  0  0  0  0  0  0  0  0  0  0
  143.2900  163.4270  133.7050 H   0  0  0  0  0  0  0  0  0  0  0  0
  144.7272  156.8461  133.7495 H   0  0  0  0  0  0  0  0  0  0  0  0
  139.6561  151.3214  132.4238 H   0  0  0  0  0  0  0  0  0  0  0  0
  137.5238  150.2068  131.7659 H   0  0  0  0  0  0  0  0  0  0  0  0
  137.5688  148.0759  130.4647 H   0  0  0  0  0  0  0  0  0  0  0  0
  139.7537  147.0763  129.7866 H   0  0  0  0  0  0  0  0  0  0  0  0
  141.8914  148.1897  130.4288 H   0  0  0  0  0  0  0  0  0  0  0  0
  1  2  1  0
  2  3  1  0
  2  4  1  0
  4  5  1  0
  5  6  2  0
  5  7  1  0
  7  8  1  0
  7  9  1  0
  9 10  1  0
 10 11  2  0
 10 12  1  1
 12 13  1  0
 13 14  1  0
 14 15  1  0
 15 16  2  0
 16 17  1  0
 17 18  1  0
 18 19  2  0
 19 20  1  0
 20 21  2  0
 21 22  1  0
 22 23  2  0
 23 24  1  0
 24 25  1  0
 24 26  2  0
 23 27  1  0
 27 28  1  0
 28 29  2  0
 28 30  1  0
 27 31  1  0
 31 32  2  0
 17 33  2  0
 10 34  1  0
 34 35  1  0
 35 36  2  0
 36 37  1  0
 37 38  2  0
 38 39  1  0
 39 40  2  0
 33 14  1  0
 40 35  1  0
 32 18  1  0
 31 21  1  0
  1 41  1  0
  1 42  1  0
  1 43  1  0
  2 44  1  0
  3 45  1  0
  3 46  1  0
  3 47  1  0
  7 48  1  1
  8 49  1  0
  8 50  1  0
  8 51  1  0
  9 52  1  0
 13 53  1  0
 13 54  1  0
 16 55  1  0
 19 56  1  0
 20 57  1  0
 22 58  1  0
 25 59  1  0
 25 60  1  0
 32 61  1  0
 36 62  1  0
 37 63  1  0
 38 64  1  0
 39 65  1  0
 40 66  1  0
M  CHG  1  30  -1
M  END
>  <UniqueID>  (21) 
21

>  <SMILES>  (21) 
CC(C)OC(=O)[C@H](C)N[P@](=O)(OCn1ncc(-c2ccc3cc(C(N)=O)n(C(=O)[O-])c3c2)n1)Oc1ccccc1

>  <Energy>  (21) 
140.6215792648015

>  <Genealogy>  (21) 
CC(C)OC(=O)C(C)NP(=O)(OCn1ncc(-c2ccc3cc(C(N)=O)n(C(=O)[O-])c3c2)n1)Oc1ccccc1 (protonated)
CC(C)OC(=O)[C@H](C)N[P@](=O)(OCn1ncc(-c2ccc3cc(C(N)=O)n(C(=O)[O-])c3c2)n1)Oc1ccccc1 (chirality)
CC(C)OC(=O)[C@H](C)N[P@](=O)(OCn1ncc(-c2ccc3cc(C(N)=O)n(C(=O)[O-])c3c2)n1)Oc1ccccc1 (3D coordinates assigned)
CC(C)OC(=O)[C@H](C)N[P@](=O)(OCn1ncc(-c2ccc3cc(C(N)=O)n(C(=O)[O-])c3c2)n1)Oc1ccccc1 (optimized conformer: 140.6215792648015 kcal/mol)

>  <smiles>  (21) 
CC(C)OC(=O)C(C)NP(=O)(OCn1ncc(-c2ccc3cc(C(N)=O)n(C(=O)O)c3c2)n1)Oc1ccccc1

>  <score_type>  (21) 
oracle

>  <origin>  (21) 
adg

>  <m_score__min__energy>  (21) 
-10.66

>  <m_primary>  (21) 
energy

$$$$
21:0
     RDKit          3D

 52 53  0  0  0  0  0  0  0  0999 V2000
  141.7051  150.2095  133.6013 H   0  0  0  0  0  0  0  0  0  0  0  0
  141.0350  150.7310  132.9020 C   0  0  0  0  0  0  0  0  0  0  0  0
  141.2840  152.0060  132.5760 C   0  0  0  0  0  0  0  0  0  0  0  0
  140.6027  152.5311  131.8903 H   0  0  0  0  0  0  0  0  0  0  0  0
  142.4770  152.7320  133.1300 C   0  0  0  0  0  0  0  0  0  0  0  0
  142.5103  152.5926  134.2206 H   0  0  0  0  0  0  0  0  0  0  0  0
  143.3869  152.3239  132.6657 H   0  0  0  0  0  0  0  0  0  0  0  0
  142.3980  154.1260  132.8380 O   0  0  0  0  0  0  0  0  0  0  0  0
  141.8430  155.0650  133.7160 C   0  0  0  0  0  0  0  0  0  0  0  0
  141.1750  154.6840  134.7160 O   0  0  0  0  0  0  0  0  0  0  0  0
  142.0300  156.4680  133.4720 N   0  0  0  0  0  0  0  0  0  0  0  0
  141.0720  157.4020  133.2180 C   0  0  0  0  0  0  0  0  0  0  0  0
  139.6410  157.1280  132.9770 C   0  0  0  0  0  0  0  0  0  0  0  0
  138.8710  158.0790  132.6780 O   0  0  0  0  0  0  0  0  0  0  0  0
  139.1260  155.7960  133.0150 N   0  0  0  0  0  0  0  0  0  0  0  0
  138.1040  155.6260  132.8820 H   0  0  0  0  0  0  0  0  0  0  0  0
  139.7630  154.9710  133.0850 H   0  0  0  0  0  0  0  0  0  0  0  0
  141.6310  158.6750  133.1560 C   0  0  0  0  0  0  0  0  0  0  0  0
  141.1074  159.6256  132.9766 H   0  0  0  0  0  0  0  0  0  0  0  0
  142.9790  158.4910  133.3670 C   0  0  0  0  0  0  0  0  0  0  0  0
  144.0150  159.4210  133.4150 C   0  0  0  0  0  0  0  0  0  0  0  0
  143.8234  160.4917  133.2511 H   0  0  0  0  0  0  0  0  0  0  0  0
  145.3120  158.9500  133.6790 C   0  0  0  0  0  0  0  0  0  0  0  0
  146.1541  159.6571  133.7075 H   0  0  0  0  0  0  0  0  0  0  0  0
  145.5440  157.5700  133.9090 C   0  0  0  0  0  0  0  0  0  0  0  0
  146.9370  157.0660  134.1680 C   0  0  0  0  0  0  0  0  0  0  0  0
  147.0630  156.8859  135.2458 H   0  0  0  0  0  0  0  0  0  0  0  0
  147.0884  156.1308  133.6089 H   0  0  0  0  0  0  0  0  0  0  0  0
  147.9730  158.0980  133.7030 C   0  0  0  0  0  0  0  0  0  0  0  0
  147.5561  159.1051  133.8513 H   0  0  0  0  0  0  0  0  0  0  0  0
  148.8851  157.9407  134.2974 H   0  0  0  0  0  0  0  0  0  0  0  0
  148.3550  157.9380  132.2200 C   0  0  0  0  0  0  0  0  0  0  0  0
  148.4451  156.8651  131.9948 H   0  0  0  0  0  0  0  0  0  0  0  0
  147.5654  158.4174  131.6228 H   0  0  0  0  0  0  0  0  0  0  0  0
  149.6800  158.6250  131.8660 C   0  0  0  0  0  0  0  0  0  0  0  0
  150.4573  158.3053  132.5756 H   0  0  0  0  0  0  0  0  0  0  0  0
  149.9711  158.3440  130.8431 H   0  0  0  0  0  0  0  0  0  0  0  0
  149.5300  160.0240  131.9370 O   0  0  0  0  0  0  0  0  0  0  0  0
  149.1960  160.6310  130.3890 S   0  0  0  0  0  0  0  0  0  0  0  0
  149.9750  159.8870  129.3390 O   0  0  0  0  0  0  0  0  0  0  0  0
  147.7290  160.4610  130.1130 O   0  0  0  0  0  0  0  0  0  0  0  0
  149.5960  162.3640  130.3250 C   0  0  0  0  0  0  0  0  0  0  0  0
  149.6868  162.7574  131.3482 H   0  0  0  0  0  0  0  0  0  0  0  0
  150.5493  162.5009  129.7936 H   0  0  0  0  0  0  0  0  0  0  0  0
  148.7991  162.9049  129.7936 H   0  0  0  0  0  0  0  0  0  0  0  0
  144.4700  156.6570  133.8430 C   0  0  0  0  0  0  0  0  0  0  0  0
  144.6335  155.5825  134.0126 H   0  0  0  0  0  0  0  0  0  0  0  0
  143.1930  157.1500  133.5570 C   0  0  0  0  0  0  0  0  0  0  0  0
  139.8590  150.0060  132.3290 C   0  0  0  0  0  0  0  0  0  0  0  0
  139.2325  149.6198  133.1465 H   0  0  0  0  0  0  0  0  0  0  0  0
  139.2685  150.6970  131.7095 H   0  0  0  0  0  0  0  0  0  0  0  0
  140.2111  149.1680  131.7095 H   0  0  0  0  0  0  0  0  0  0  0  0
  1  2  1  0
  2  3  2  0
  3  4  1  0
  3  5  1  0
  5  6  1  0
  5  7  1  0
  5  8  1  0
  8  9  1  0
  9 10  2  0
  9 11  1  0
 11 12  1  0
 12 13  1  0
 13 14  2  0
 13 15  1  0
 15 16  1  0
 15 17  1  0
 12 18  2  0
 18 19  1  0
 18 20  1  0
 20 21  2  0
 21 22  1  0
 21 23  1  0
 23 24  1  0
 23 25  2  0
 25 26  1  0
 26 27  1  0
 26 28  1  0
 26 29  1  0
 29 30  1  0
 29 31  1  0
 29 32  1  0
 32 33  1  0
 32 34  1  0
 32 35  1  0
 35 36  1  0
 35 37  1  0
 35 38  1  0
 38 39  1  0
 39 40  2  0
 39 41  2  0
 39 42  1  0
 42 43  1  0
 42 44  1  0
 42 45  1  0
 25 46  1  0
 46 47  1  0
 46 48  2  0
  2 49  1  0
 49 50  1  0
 49 51  1  0
 49 52  1  0
 48 11  1  0
 48 20  1  0
M  END
>  <UniqueID>  (22) 
22

>  <SMILES>  (22) 
C/C=C/COC(=O)n1c(C(N)=O)cc2ccc(CCCCOS(C)(=O)=O)cc21

>  <Energy>  (22) 
74.20876825349026

>  <Genealogy>  (22) 
C/C=C/COC(=O)n1c(C(N)=O)cc2ccc(CCCCOS(C)(=O)=O)cc21 (cis-trans isomerization)
C/C=C/COC(=O)n1c(C(N)=O)cc2ccc(CCCCOS(C)(=O)=O)cc21 (3D coordinates assigned)
C/C=C/COC(=O)n1c(C(N)=O)cc2ccc(CCCCOS(C)(=O)=O)cc21 (optimized conformer: 74.20876825349026 kcal/mol)

>  <smiles>  (22) 
C/C=C/COC(=O)n1c(C(N)=O)cc2ccc(CCCCOS(C)(=O)=O)cc21

>  <score_type>  (22) 
oracle

>  <origin>  (22) 
adg

>  <m_score__min__energy>  (22) 
-8.5299999999999994

>  <m_primary>  (22) 
energy

$$$$
22:0
     RDKit          3D

 43 44  0  0  0  0  0  0  0  0999 V2000
  141.3760  155.9280  132.6440 H   0  0  0  0  0  0  0  0  0  0  0  0
  141.5790  155.1770  133.3410 N   0  0  0  0  0  0  0  0  0  0  0  0
  142.6500  155.3090  134.2720 C   0  0  0  0  0  0  0  0  0  0  0  0
  142.5490  154.7700  135.4070 O   0  0  0  0  0  0  0  0  0  0  0  0
  143.8450  156.1150  133.9480 C   0  0  0  0  0  0  0  0  0  0  0  0
  145.1470  155.6290  134.0500 C   0  0  0  0  0  0  0  0  0  0  0  0
  145.4593  154.6078  134.3140 H   0  0  0  0  0  0  0  0  0  0  0  0
  145.9590  156.6990  133.7500 C   0  0  0  0  0  0  0  0  0  0  0  0
  147.3470  156.7800  133.6950 C   0  0  0  0  0  0  0  0  0  0  0  0
  147.9756  155.9084  133.9299 H   0  0  0  0  0  0  0  0  0  0  0  0
  147.9210  158.0100  133.3300 C   0  0  0  0  0  0  0  0  0  0  0  0
  149.0157  158.1104  133.2908 H   0  0  0  0  0  0  0  0  0  0  0  0
  147.1020  159.1220  133.0120 C   0  0  0  0  0  0  0  0  0  0  0  0
  147.7280  160.4390  132.6420 C   0  0  0  0  0  0  0  0  0  0  0  0
  148.3409  160.7962  133.4827 H   0  0  0  0  0  0  0  0  0  0  0  0
  146.9280  161.1603  132.4190 H   0  0  0  0  0  0  0  0  0  0  0  0
  148.6110  160.2890  131.4070 C   0  0  0  0  0  0  0  0  0  0  0  0
  149.6509  160.1124  131.7190 H   0  0  0  0  0  0  0  0  0  0  0  0
  148.2590  159.4378  130.8057 H   0  0  0  0  0  0  0  0  0  0  0  0
  148.5598  161.2087  130.8057 H   0  0  0  0  0  0  0  0  0  0  0  0
  145.6960  159.0050  133.0890 C   0  0  0  0  0  0  0  0  0  0  0  0
  145.0449  159.8593  132.8517 H   0  0  0  0  0  0  0  0  0  0  0  0
  145.1530  157.7740  133.4750 C   0  0  0  0  0  0  0  0  0  0  0  0
  143.8510  157.4300  133.5900 N   0  0  0  0  0  0  0  0  0  0  0  0
  142.7210  158.2620  133.2880 C   0  0  0  0  0  0  0  0  0  0  0  0
  141.9780  157.9820  132.3080 O   0  0  0  0  0  0  0  0  0  0  0  0
  142.4400  159.3710  134.0940 O   0  0  0  0  0  0  0  0  0  0  0  0
  141.6190  159.3080  135.2570 C   0  0  0  0  0  0  0  0  0  0  0  0
  142.2542  159.3760  136.1525 H   0  0  0  0  0  0  0  0  0  0  0  0
  140.9050  160.1444  135.2339 H   0  0  0  0  0  0  0  0  0  0  0  0
  140.8390  157.9930  135.2920 C   0  0  0  0  0  0  0  0  0  0  0  0
  141.4011  157.2244  134.7412 H   0  0  0  0  0  0  0  0  0  0  0  0
  140.7048  157.6880  136.3403 H   0  0  0  0  0  0  0  0  0  0  0  0
  139.5550  158.1550  134.6920 O   0  0  0  0  0  0  0  0  0  0  0  0
  139.2990  157.8950  133.3410 C   0  0  0  0  0  0  0  0  0  0  0  0
  139.3420  156.7140  132.8970 O   0  0  0  0  0  0  0  0  0  0  0  0
  138.9730  159.0200  132.4510 C   0  0  0  0  0  0  0  0  0  0  0  0
  139.5703  159.9411  132.5209 H   0  0  0  0  0  0  0  0  0  0  0  0
  137.9760  158.9640  131.5590 C   0  0  0  0  0  0  0  0  0  0  0  0
  137.3779  158.0435  131.4891 H   0  0  0  0  0  0  0  0  0  0  0  0
  137.6520  160.0900  130.6690 C   0  0  0  0  0  0  0  0  0  0  0  0
  136.4600  160.3590  130.3630 O   0  0  0  0  0  0  0  0  0  0  0  0
  138.6800  160.8710  130.1560 O   0  0  0  0  0  0  0  0  0  0  0  0
  1  2  1  0
  2  3  1  0
  3  4  2  0
  3  5  1  0
  5  6  2  0
  6  7  1  0
  6  8  1  0
  8  9  2  0
  9 10  1  0
  9 11  1  0
 11 12  1  0
 11 13  2  0
 13 14  1  0
 14 15  1  0
 14 16  1  0
 14 17  1  0
 17 18  1  0
 17 19  1  0
 17 20  1  0
 13 21  1  0
 21 22  1  0
 21 23  2  0
 23 24  1  0
 24 25  1  0
 25 26  2  0
 25 27  1  0
 27 28  1  0
 28 29  1  0
 28 30  1  0
 28 31  1  0
 31 32  1  0
 31 33  1  0
 31 34  1  0
 34 35  1  0
 35 36  2  0
 35 37  1  0
 37 38  1  0
 37 39  2  0
 39 40  1  0
 39 41  1  0
 41 42  2  0
 41 43  1  0
 24  5  1  0
 23  8  1  0
M  CHG  2   2  -1  43  -1
M  END
>  <UniqueID>  (23) 
23

>  <SMILES>  (23) 
CCc1ccc2cc(C([NH-])=O)n(C(=O)OCCOC(=O)/C=C/C(=O)[O-])c2c1

>  <Energy>  (23) 
72.19903814754932

>  <Genealogy>  (23) 
CCc1ccc2cc(C([NH-])=O)n(C(=O)OCCOC(=O)/C=C/C(=O)[O-])c2c1 (protonated)
CCc1ccc2cc(C([NH-])=O)n(C(=O)OCCOC(=O)/C=C/C(=O)[O-])c2c1 (cis-trans isomerization)
CCc1ccc2cc(C([NH-])=O)n(C(=O)OCCOC(=O)/C=C/C(=O)[O-])c2c1 (3D coordinates assigned)
CCc1ccc2cc(C([NH-])=O)n(C(=O)OCCOC(=O)/C=C/C(=O)[O-])c2c1 (optimized conformer: 72.19903814754932 kcal/mol)

>  <smiles>  (23) 
CCc1ccc2cc(C(N)=O)n(C(=O)OCCOC(=O)/C=C/C(=O)O)c2c1

>  <score_type>  (23) 
oracle

>  <origin>  (23) 
adg

>  <m_score__min__energy>  (23) 
-7.1100000000000003

>  <m_primary>  (23) 
energy

$$$$
23:0
     RDKit          3D

 43 44  0  0  0  0  0  0  0  0999 V2000
  138.8700  158.1570  135.6380 N   0  0  0  0  0  0  0  0  0  0  0  0
  140.1760  157.8820  136.1450 C   0  0  0  0  0  0  0  0  0  0  0  0
  140.6320  158.5830  137.0880 O   0  0  0  0  0  0  0  0  0  0  0  0
  140.9740  156.7520  135.6300 C   0  0  0  0  0  0  0  0  0  0  0  0
  142.0980  156.2520  136.2800 C   0  0  0  0  0  0  0  0  0  0  0  0
  142.5080  155.1790  135.5220 C   0  0  0  0  0  0  0  0  0  0  0  0
  143.5850  154.3170  135.7040 C   0  0  0  0  0  0  0  0  0  0  0  0
  143.7930  153.3120  134.7450 C   0  0  0  0  0  0  0  0  0  0  0  0
  142.9380  153.2000  133.6210 C   0  0  0  0  0  0  0  0  0  0  0  0
  143.1610  152.1060  132.6140 C   0  0  0  0  0  0  0  0  0  0  0  0
  142.2850  150.9260  132.9310 C   0  0  0  0  0  0  0  0  0  0  0  0
  141.4060  151.0400  133.7710 O   0  0  0  0  0  0  0  0  0  0  0  0
  142.4910  149.6000  132.2480 C   0  0  0  0  0  0  0  0  0  0  0  0
  141.3200  148.6540  132.5330 C   0  0  0  0  0  0  0  0  0  0  0  0
  140.4710  148.4360  131.2720 C   0  0  0  0  0  0  0  0  0  0  0  0
  139.7710  149.7220  130.8010 C   0  0  0  0  0  0  0  0  0  0  0  0
  138.7720  150.2630  131.8300 C   0  0  0  0  0  0  0  0  0  0  0  0
  139.1310  151.5630  132.2130 O   0  0  0  0  0  0  0  0  0  0  0  0
  141.8490  154.0870  133.4740 C   0  0  0  0  0  0  0  0  0  0  0  0
  141.6510  155.0650  134.4570 C   0  0  0  0  0  0  0  0  0  0  0  0
  140.7020  156.0280  134.5080 N   0  0  0  0  0  0  0  0  0  0  0  0
  139.6970  156.2980  133.5140 C   0  0  0  0  0  0  0  0  0  0  0  0
  139.4870  157.4790  133.1290 O   0  0  0  0  0  0  0  0  0  0  0  0
  138.9490  155.2630  132.9690 O   0  0  0  0  0  0  0  0  0  0  0  0
  138.3350  158.9840  135.9880 H   0  0  0  0  0  0  0  0  0  0  0  0
  138.3960  157.4980  134.9820 H   0  0  0  0  0  0  0  0  0  0  0  0
  142.5602  156.6330  137.2026 H   0  0  0  0  0  0  0  0  0  0  0  0
  144.2529  154.4194  136.5720 H   0  0  0  0  0  0  0  0  0  0  0  0
  144.6272  152.6056  134.8678 H   0  0  0  0  0  0  0  0  0  0  0  0
  142.9167  152.4810  131.6092 H   0  0  0  0  0  0  0  0  0  0  0  0
  144.2147  151.7924  132.6503 H   0  0  0  0  0  0  0  0  0  0  0  0
  142.5684  149.7615  131.1627 H   0  0  0  0  0  0  0  0  0  0  0  0
  143.4147  149.1442  132.6339 H   0  0  0  0  0  0  0  0  0  0  0  0
  141.7145  147.6852  132.8733 H   0  0  0  0  0  0  0  0  0  0  0  0
  140.6853  149.1052  133.3099 H   0  0  0  0  0  0  0  0  0  0  0  0
  141.1253  148.0751  130.4648 H   0  0  0  0  0  0  0  0  0  0  0  0
  139.6894  147.7025  131.5191 H   0  0  0  0  0  0  0  0  0  0  0  0
  140.5354  150.4907  130.6149 H   0  0  0  0  0  0  0  0  0  0  0  0
  139.2081  149.4784  129.8879 H   0  0  0  0  0  0  0  0  0  0  0  0
  137.7656  150.2793  131.3863 H   0  0  0  0  0  0  0  0  0  0  0  0
  138.7799  149.6115  132.7163 H   0  0  0  0  0  0  0  0  0  0  0  0
  139.4020  151.5140  133.1670 H   0  0  0  0  0  0  0  0  0  0  0  0
  141.1733  154.0118  132.6093 H   0  0  0  0  0  0  0  0  0  0  0  0
  1  2  1  0
  2  3  2  0
  2  4  1  0
  4  5  2  0
  5  6  1  0
  6  7  2  0
  7  8  1  0
  8  9  2  0
  9 10  1  0
 10 11  1  0
 11 12  2  0
 11 13  1  0
 13 14  1  0
 14 15  1  0
 15 16  1  0
 16 17  1  0
 17 18  1  0
  9 19  1  0
 19 20  2  0
 20 21  1  0
 21 22  1  0
 22 23  2  0
 22 24  1  0
 21  4  1  0
 20  6  1  0
  1 25  1  0
  1 26  1  0
  5 27  1  0
  7 28  1  0
  8 29  1  0
 10 30  1  0
 10 31  1  0
 13 32  1  0
 13 33  1  0
 14 34  1  0
 14 35  1  0
 15 36  1  0
 15 37  1  0
 16 38  1  0
 16 39  1  0
 17 40  1  0
 17 41  1  0
 18 42  1  0
 19 43  1  0
M  CHG  1  24  -1
M  END
>  <UniqueID>  (24) 
24

>  <SMILES>  (24) 
NC(=O)c1cc2ccc(CC(=O)CCCCCO)cc2n1C(=O)[O-]

>  <Energy>  (24) 
71.50135775344872

>  <Genealogy>  (24) 
NC(=O)c1cc2ccc(CC(=O)CCCCCO)cc2n1C(=O)[O-] (protonated)
NC(=O)c1cc2ccc(CC(=O)CCCCCO)cc2n1C(=O)[O-] (3D coordinates assigned)
NC(=O)c1cc2ccc(CC(=O)CCCCCO)cc2n1C(=O)[O-] (optimized conformer: 71.50135775344872 kcal/mol)

>  <smiles>  (24) 
NC(=O)c1cc2ccc(CC(=O)CCCCCO)cc2n1C(=O)O

>  <score_type>  (24) 
oracle

>  <origin>  (24) 
adg

>  <m_score__min__energy>  (24) 
-7.1299999999999999

>  <m_primary>  (24) 
energy

$$$$
24:0
     RDKit          3D

 41 43  0  0  0  0  0  0  0  0999 V2000
  139.4710  158.2630  135.0650 C   0  0  0  0  0  0  0  0  0  0  0  0
  139.4310  157.4880  133.7420 C   0  0  2  0  0  0  0  0  0  0  0  0
  138.2650  156.6950  133.7540 O   0  0  0  0  0  0  0  0  0  0  0  0
  140.6770  156.6060  133.6520 C   0  0  0  0  0  0  0  0  0  0  0  0
  140.8270  155.8770  132.6820 O   0  0  0  0  0  0  0  0  0  0  0  0
  141.7880  156.6650  134.6730 C   0  0  0  0  0  0  0  0  0  0  0  0
  142.8450  157.6480  134.2480 C   0  0  0  0  0  0  0  0  0  0  0  0
  142.5040  158.9980  133.9880 C   0  0  0  0  0  0  0  0  0  0  0  0
  143.4780  159.9110  133.5510 C   0  0  0  0  0  0  0  0  0  0  0  0
  144.7820  159.4500  133.3960 C   0  0  0  0  0  0  0  0  0  0  0  0
  145.9050  160.1130  132.9590 C   0  0  0  0  0  0  0  0  0  0  0  0
  146.9260  159.1680  132.9950 C   0  0  0  0  0  0  0  0  0  0  0  0
  148.3310  159.4810  132.6680 C   0  0  0  0  0  0  0  0  0  0  0  0
  149.3990  158.6440  133.1160 N   0  0  0  0  0  0  0  0  0  0  0  0
  148.5980  160.5360  132.0340 O   0  0  0  0  0  0  0  0  0  0  0  0
  146.4540  157.9620  133.4220 N   0  0  0  0  0  0  0  0  0  0  0  0
  147.1710  156.7180  133.4950 C   0  0  0  0  0  0  0  0  0  0  0  0
  147.8180  156.4160  134.5330 O   0  0  0  0  0  0  0  0  0  0  0  0
  147.1540  155.8310  132.4260 O   0  0  0  0  0  0  0  0  0  0  0  0
  145.1360  158.1530  133.6660 C   0  0  0  0  0  0  0  0  0  0  0  0
  144.1800  157.2170  134.0800 C   0  0  0  0  0  0  0  0  0  0  0  0
  139.3590  158.4850  132.5950 C   0  0  0  0  0  0  0  0  0  0  0  0
  138.7490  158.2510  131.3640 C   0  0  0  0  0  0  0  0  0  0  0  0
  138.7250  159.3720  130.5250 C   0  0  0  0  0  0  0  0  0  0  0  0
  139.2940  160.5060  131.0900 C   0  0  0  0  0  0  0  0  0  0  0  0
  139.8170  160.1100  132.6360 S   0  0  0  0  0  0  0  0  0  0  0  0
  139.4345  157.5549  135.9060 H   0  0  0  0  0  0  0  0  0  0  0  0
  140.4006  158.8487  135.1189 H   0  0  0  0  0  0  0  0  0  0  0  0
  138.6067  158.9412  135.1189 H   0  0  0  0  0  0  0  0  0  0  0  0
  138.3310  156.0370  133.0120 H   0  0  0  0  0  0  0  0  0  0  0  0
  141.3722  156.9775  135.6423 H   0  0  0  0  0  0  0  0  0  0  0  0
  142.2445  155.6679  134.7590 H   0  0  0  0  0  0  0  0  0  0  0  0
  141.4664  159.3347  134.1297 H   0  0  0  0  0  0  0  0  0  0  0  0
  143.2180  160.9583  133.3378 H   0  0  0  0  0  0  0  0  0  0  0  0
  145.9801  161.1653  132.6476 H   0  0  0  0  0  0  0  0  0  0  0  0
  149.2260  157.8620  133.7830 H   0  0  0  0  0  0  0  0  0  0  0  0
  150.3850  158.8730  132.8620 H   0  0  0  0  0  0  0  0  0  0  0  0
  144.4619  156.1708  134.2699 H   0  0  0  0  0  0  0  0  0  0  0  0
  138.3259  157.2767  131.0781 H   0  0  0  0  0  0  0  0  0  0  0  0
  138.2954  159.3559  129.5125 H   0  0  0  0  0  0  0  0  0  0  0  0
  139.3860  161.4910  130.6091 H   0  0  0  0  0  0  0  0  0  0  0  0
  1  2  1  0
  2  3  1  1
  2  4  1  0
  4  5  2  0
  4  6  1  0
  6  7  1  0
  7  8  2  0
  8  9  1  0
  9 10  2  0
 10 11  1  0
 11 12  2  0
 12 13  1  0
 13 14  1  0
 13 15  2  0
 12 16  1  0
 16 17  1  0
 17 18  2  0
 17 19  1  0
 16 20  1  0
 20 21  2  0
  2 22  1  0
 22 23  2  0
 23 24  1  0
 24 25  2  0
 25 26  1  0
 21  7  1  0
 26 22  1  0
 20 10  1  0
  1 27  1  0
  1 28  1  0
  1 29  1  0
  3 30  1  0
  6 31  1  0
  6 32  1  0
  8 33  1  0
  9 34  1  0
 11 35  1  0
 14 36  1  0
 14 37  1  0
 21 38  1  0
 23 39  1  0
 24 40  1  0
 25 41  1  0
M  CHG  1  19  -1
M  END
>  <UniqueID>  (25) 
25

>  <SMILES>  (25) 
C[C@](O)(C(=O)Cc1ccc2cc(C(N)=O)n(C(=O)[O-])c2c1)c1cccs1

>  <Energy>  (25) 
108.76223984546341

>  <Genealogy>  (25) 
C[C@](O)(C(=O)Cc1ccc2cc(C(N)=O)n(C(=O)[O-])c2c1)c1cccs1 (protonated)
C[C@](O)(C(=O)Cc1ccc2cc(C(N)=O)n(C(=O)[O-])c2c1)c1cccs1 (3D coordinates assigned)
C[C@](O)(C(=O)Cc1ccc2cc(C(N)=O)n(C(=O)[O-])c2c1)c1cccs1 (optimized conformer: 108.76223984546341 kcal/mol)

>  <smiles>  (25) 
C[C@](O)(C(=O)Cc1ccc2cc(C(N)=O)n(C(=O)O)c2c1)c1cccs1

>  <score_type>  (25) 
oracle

>  <origin>  (25) 
adg

>  <m_score__min__energy>  (25) 
-8.4399999999999995

>  <m_primary>  (25) 
energy

$$$$
25:0
     RDKit          3D

 38 39  0  0  0  0  0  0  0  0999 V2000
  146.5800  153.8730  133.5010 C   0  0  0  0  0  0  0  0  0  0  0  0
  146.4320  154.7040  134.7060 N   0  0  1  0  0  0  0  0  0  0  0  0
  146.9120  153.9740  135.8120 C   0  0  0  0  0  0  0  0  0  0  0  0
  147.3050  153.3740  136.7210 N   0  0  0  0  0  0  0  0  0  0  0  0
  147.1880  155.9750  134.6080 C   0  0  0  0  0  0  0  0  0  0  0  0
  146.3370  157.1540  134.1090 C   0  0  0  0  0  0  0  0  0  0  0  0
  144.9670  156.9890  134.4750 O   0  0  0  0  0  0  0  0  0  0  0  0
  143.8900  157.3450  133.6540 C   0  0  0  0  0  0  0  0  0  0  0  0
  144.0100  158.2680  132.8050 O   0  0  0  0  0  0  0  0  0  0  0  0
  142.6330  156.6660  133.8000 N   0  0  0  0  0  0  0  0  0  0  0  0
  142.4080  155.4100  134.2810 C   0  0  0  0  0  0  0  0  0  0  0  0
  143.4190  154.5160  134.8840 C   0  0  0  0  0  0  0  0  0  0  0  0
  144.0380  154.8750  136.1180 N   0  0  0  0  0  0  0  0  0  0  0  0
  143.7730  153.4560  134.3040 O   0  0  0  0  0  0  0  0  0  0  0  0
  141.0530  155.0950  134.2060 C   0  0  0  0  0  0  0  0  0  0  0  0
  140.4480  156.2070  133.6680 C   0  0  0  0  0  0  0  0  0  0  0  0
  139.1110  156.4360  133.3560 C   0  0  0  0  0  0  0  0  0  0  0  0
  138.7720  157.6700  132.7780 C   0  0  0  0  0  0  0  0  0  0  0  0
  139.7640  158.6540  132.5310 C   0  0  0  0  0  0  0  0  0  0  0  0
  139.3960  159.9490  131.8530 C   0  0  0  0  0  0  0  0  0  0  0  0
  139.8780  159.9360  130.5570 F   0  0  0  0  0  0  0  0  0  0  0  0
  139.9440  161.0260  132.5280 F   0  0  0  0  0  0  0  0  0  0  0  0
  138.0220  160.1120  131.8220 F   0  0  0  0  0  0  0  0  0  0  0  0
  141.1150  158.3720  132.8410 C   0  0  0  0  0  0  0  0  0  0  0  0
  141.4220  157.1420  133.4340 C   0  0  0  0  0  0  0  0  0  0  0  0
  146.7658  152.8296  133.7957 H   0  0  0  0  0  0  0  0  0  0  0  0
  145.6582  153.9266  132.9032 H   0  0  0  0  0  0  0  0  0  0  0  0
  147.4267  154.2415  132.9032 H   0  0  0  0  0  0  0  0  0  0  0  0
  145.4180  154.8940  134.8790 H   0  0  0  0  0  0  0  0  0  0  0  0
  147.5803  156.2252  135.6048 H   0  0  0  0  0  0  0  0  0  0  0  0
  147.9910  155.8196  133.8725 H   0  0  0  0  0  0  0  0  0  0  0  0
  146.7180  158.0856  134.5529 H   0  0  0  0  0  0  0  0  0  0  0  0
  146.4036  157.1937  133.0117 H   0  0  0  0  0  0  0  0  0  0  0  0
  144.8090  155.5770  136.1480 H   0  0  0  0  0  0  0  0  0  0  0  0
  140.5693  154.1557  134.5122 H   0  0  0  0  0  0  0  0  0  0  0  0
  138.3435  155.6738  133.5561 H   0  0  0  0  0  0  0  0  0  0  0  0
  137.7244  157.8764  132.5134 H   0  0  0  0  0  0  0  0  0  0  0  0
  141.9068  159.1032  132.6209 H   0  0  0  0  0  0  0  0  0  0  0  0
  1  2  1  0
  2  3  1  0
  3  4  3  0
  2  5  1  0
  5  6  1  0
  6  7  1  0
  7  8  1  0
  8  9  2  0
  8 10  1  0
 10 11  1  0
 11 12  1  0
 12 13  1  0
 12 14  2  0
 11 15  2  0
 15 16  1  0
 16 17  2  0
 17 18  1  0
 18 19  2  0
 19 20  1  0
 20 21  1  0
 20 22  1  0
 20 23  1  0
 19 24  1  0
 24 25  2  0
 25 10  1  0
 25 16  1  0
  1 26  1  0
  1 27  1  0
  1 28  1  0
  2 29  1  1
  5 30  1  0
  5 31  1  0
  6 32  1  0
  6 33  1  0
 13 34  1  0
 15 35  1  0
 17 36  1  0
 18 37  1  0
 24 38  1  0
M  CHG  2   2   1  13  -1
M  END
>  <UniqueID>  (26) 
26

>  <SMILES>  (26) 
C[N@@H+](C#N)CCOC(=O)n1c(C([NH-])=O)cc2ccc(C(F)(F)F)cc21

>  <Energy>  (26) 
76.61512526978836

>  <Genealogy>  (26) 
C[NH+](C#N)CCOC(=O)n1c(C([NH-])=O)cc2ccc(C(F)(F)F)cc21 (protonated)
C[N@@H+](C#N)CCOC(=O)n1c(C([NH-])=O)cc2ccc(C(F)(F)F)cc21 (chirality)
C[N@@H+](C#N)CCOC(=O)n1c(C([NH-])=O)cc2ccc(C(F)(F)F)cc21 (3D coordinates assigned)
C[N@@H+](C#N)CCOC(=O)n1c(C([NH-])=O)cc2ccc(C(F)(F)F)cc21 (optimized conformer: 76.61512526978836 kcal/mol)

>  <smiles>  (26) 
CN(C#N)CCOC(=O)n1c(C(N)=O)cc2ccc(C(F)(F)F)cc21

>  <score_type>  (26) 
oracle

>  <origin>  (26) 
adg

>  <m_score__min__energy>  (26) 
-5.25

>  <m_primary>  (26) 
energy

$$$$
26:0
     RDKit          3D

 49 51  0  0  0  0  0  0  0  0999 V2000
  141.3360  157.7760  132.6030 C   0  0  0  0  0  0  0  0  0  0  0  0
  139.8950  158.0960  133.0420 C   0  0  0  0  0  0  0  0  0  0  0  0
  139.1260  156.8010  133.3640 C   0  0  0  0  0  0  0  0  0  0  0  0
  139.1800  158.8270  131.8950 C   0  0  0  0  0  0  0  0  0  0  0  0
  139.8950  158.9790  134.1740 O   0  0  0  0  0  0  0  0  0  0  0  0
  140.2420  158.6400  135.4900 C   0  0  0  0  0  0  0  0  0  0  0  0
  139.5190  157.8730  136.1830 O   0  0  0  0  0  0  0  0  0  0  0  0
  141.4680  159.2350  136.0920 C   0  0  0  0  0  0  0  0  0  0  0  0
  142.5810  158.9630  135.2480 O   0  0  0  0  0  0  0  0  0  0  0  0
  143.0230  159.8570  134.2690 C   0  0  0  0  0  0  0  0  0  0  0  0
  142.2160  160.6670  133.7360 O   0  0  0  0  0  0  0  0  0  0  0  0
  144.4080  159.8690  133.8880 N   0  0  0  0  0  0  0  0  0  0  0  0
  145.2720  160.9240  133.8990 C   0  0  0  0  0  0  0  0  0  0  0  0
  144.9190  162.3370  134.1520 C   0  0  0  0  0  0  0  0  0  0  0  0
  143.9410  163.0030  133.3610 N   0  0  0  0  0  0  0  0  0  0  0  0
  145.5210  162.9770  135.0550 O   0  0  0  0  0  0  0  0  0  0  0  0
  146.5560  160.5050  133.5580 C   0  0  0  0  0  0  0  0  0  0  0  0
  146.4500  159.1520  133.3300 C   0  0  0  0  0  0  0  0  0  0  0  0
  147.4280  158.2260  132.9800 C   0  0  0  0  0  0  0  0  0  0  0  0
  147.0430  156.8820  132.8420 C   0  0  0  0  0  0  0  0  0  0  0  0
  145.6960  156.4860  133.0580 C   0  0  0  0  0  0  0  0  0  0  0  0
  145.3020  155.0630  132.9130 C   0  0  0  0  0  0  0  0  0  0  0  0
  144.0540  154.7070  132.3820 C   0  0  0  0  0  0  0  0  0  0  0  0
  143.7150  153.3990  132.2530 N   0  0  0  0  0  0  0  0  0  0  0  0
  144.5660  152.4140  132.6380 C   0  0  0  0  0  0  0  0  0  0  0  0
  145.7800  152.7290  133.1590 N   0  0  0  0  0  0  0  0  0  0  0  0
  146.1630  154.0260  133.3020 C   0  0  0  0  0  0  0  0  0  0  0  0
  144.7330  157.4600  133.4150 C   0  0  0  0  0  0  0  0  0  0  0  0
  145.1440  158.7930  133.5310 C   0  0  0  0  0  0  0  0  0  0  0  0
  141.9677  157.6357  133.4925 H   0  0  0  0  0  0  0  0  0  0  0  0
  141.3401  156.8551  132.0014 H   0  0  0  0  0  0  0  0  0  0  0  0
  141.7295  158.6086  132.0014 H   0  0  0  0  0  0  0  0  0  0  0  0
  139.0536  156.6791  134.4548 H   0  0  0  0  0  0  0  0  0  0  0  0
  138.1153  156.8581  132.9336 H   0  0  0  0  0  0  0  0  0  0  0  0
  139.6598  155.9409  132.9336 H   0  0  0  0  0  0  0  0  0  0  0  0
  138.4681  159.5548  132.3114 H   0  0  0  0  0  0  0  0  0  0  0  0
  139.9221  159.3527  131.2762 H   0  0  0  0  0  0  0  0  0  0  0  0
  138.6380  158.0967  131.2762 H   0  0  0  0  0  0  0  0  0  0  0  0
  141.3386  160.3228  136.1916 H   0  0  0  0  0  0  0  0  0  0  0  0
  141.6418  158.7980  137.0864 H   0  0  0  0  0  0  0  0  0  0  0  0
  143.0930  162.5000  133.0180 H   0  0  0  0  0  0  0  0  0  0  0  0
  147.4623  161.1242  133.4862 H   0  0  0  0  0  0  0  0  0  0  0  0
  148.4704  158.5368  132.8164 H   0  0  0  0  0  0  0  0  0  0  0  0
  147.7934  156.1275  132.5634 H   0  0  0  0  0  0  0  0  0  0  0  0
  143.3476  155.4900  132.0691 H   0  0  0  0  0  0  0  0  0  0  0  0
  144.2721  151.3597  132.5279 H   0  0  0  0  0  0  0  0  0  0  0  0
  146.4290  151.9640  133.4540 H   0  0  0  0  0  0  0  0  0  0  0  0
  147.1509  154.2627  133.7240 H   0  0  0  0  0  0  0  0  0  0  0  0
  143.6860  157.1760  133.5970 H   0  0  0  0  0  0  0  0  0  0  0  0
  1  2  1  0
  2  3  1  0
  2  4  1  0
  2  5  1  0
  5  6  1  0
  6  7  2  0
  6  8  1  0
  8  9  1  0
  9 10  1  0
 10 11  2  0
 10 12  1  0
 12 13  1  0
 13 14  1  0
 14 15  1  0
 14 16  2  0
 13 17  2  0
 17 18  1  0
 18 19  2  0
 19 20  1  0
 20 21  2  0
 21 22  1  0
 22 23  2  0
 23 24  1  0
 24 25  2  0
 25 26  1  0
 26 27  2  0
 21 28  1  0
 28 29  2  0
 29 12  1  0
 29 18  1  0
 27 22  1  0
  1 30  1  0
  1 31  1  0
  1 32  1  0
  3 33  1  0
  3 34  1  0
  3 35  1  0
  4 36  1  0
  4 37  1  0
  4 38  1  0
  8 39  1  0
  8 40  1  0
 15 41  1  0
 17 42  1  0
 19 43  1  0
 20 44  1  0
 23 45  1  0
 25 46  1  0
 26 47  1  0
 27 48  1  0
 28 49  1  0
M  CHG  2  15  -1  26   1
M  END
>  <UniqueID>  (27) 
27

>  <SMILES>  (27) 
CC(C)(C)OC(=O)COC(=O)n1c(C([NH-])=O)cc2ccc(-c3cnc[nH+]c3)cc21

>  <Energy>  (27) 
86.39551849478065

>  <Genealogy>  (27) 
CC(C)(C)OC(=O)COC(=O)n1c(C([NH-])=O)cc2ccc(-c3cnc[nH+]c3)cc21 (protonated)
CC(C)(C)OC(=O)COC(=O)n1c(C([NH-])=O)cc2ccc(-c3cnc[nH+]c3)cc21 (3D coordinates assigned)
CC(C)(C)OC(=O)COC(=O)n1c(C([NH-])=O)cc2ccc(-c3cnc[nH+]c3)cc21 (optimized conformer: 86.39551849478065 kcal/mol)

>  <smiles>  (27) 
CC(C)(C)OC(=O)COC(=O)n1c(C(N)=O)cc2ccc(-c3cncnc3)cc21

>  <score_type>  (27) 
oracle

>  <origin>  (27) 
adg

>  <m_score__min__energy>  (27) 
-7.7999999999999998

>  <m_primary>  (27) 
energy

$$$$
27:0
     RDKit          3D

 36 37  0  0  0  0  0  0  0  0999 V2000
  149.5780  162.2910  129.9770 C   0  0  0  0  0  0  0  0  0  0  0  0
  148.9780  161.1380  130.7130 C   0  0  0  0  0  0  0  0  0  0  0  0
  147.7660  160.8450  130.5300 O   0  0  0  0  0  0  0  0  0  0  0  0
  149.7700  160.4010  131.6540 N   0  0  0  0  0  0  0  0  0  0  0  0
  149.2540  159.2450  132.3860 C   0  0  0  0  0  0  0  0  0  0  0  0
  148.3240  159.6880  133.5230 C   0  0  0  0  0  0  0  0  0  0  0  0
  146.9760  159.9650  133.0240 N   0  0  0  0  0  0  0  0  0  0  0  0
  145.8420  159.0920  133.1900 C   0  0  0  0  0  0  0  0  0  0  0  0
  146.0610  157.6950  133.2770 C   0  0  0  0  0  0  0  0  0  0  0  0
  144.9860  156.8030  133.4260 C   0  0  0  0  0  0  0  0  0  0  0  0
  143.7030  157.3340  133.4900 C   0  0  0  0  0  0  0  0  0  0  0  0
  142.4880  156.6990  133.6060 C   0  0  0  0  0  0  0  0  0  0  0  0
  141.5380  157.7180  133.6070 C   0  0  0  0  0  0  0  0  0  0  0  0
  140.0930  157.4780  133.8030 C   0  0  0  0  0  0  0  0  0  0  0  0
  139.3970  156.5130  133.0170 N   0  0  0  0  0  0  0  0  0  0  0  0
  139.4530  158.1690  134.6390 O   0  0  0  0  0  0  0  0  0  0  0  0
  142.1400  158.9340  133.4870 N   0  0  0  0  0  0  0  0  0  0  0  0
  141.5080  160.2180  133.3570 C   0  0  0  0  0  0  0  0  0  0  0  0
  142.0380  161.2430  133.8610 O   0  0  0  0  0  0  0  0  0  0  0  0
  140.3190  160.3450  132.6490 O   0  0  0  0  0  0  0  0  0  0  0  0
  143.4670  158.6820  133.4200 C   0  0  0  0  0  0  0  0  0  0  0  0
  144.5170  159.5920  133.2490 C   0  0  0  0  0  0  0  0  0  0  0  0
  149.9612  163.0273  130.6988 H   0  0  0  0  0  0  0  0  0  0  0  0
  150.4041  161.9328  129.3451 H   0  0  0  0  0  0  0  0  0  0  0  0
  148.8106  162.7620  129.3451 H   0  0  0  0  0  0  0  0  0  0  0  0
  150.7430  160.7240  131.8580 H   0  0  0  0  0  0  0  0  0  0  0  0
  148.6937  158.6005  131.6927 H   0  0  0  0  0  0  0  0  0  0  0  0
  150.1028  158.6960  132.8197 H   0  0  0  0  0  0  0  0  0  0  0  0
  148.2709  158.8879  134.2760 H   0  0  0  0  0  0  0  0  0  0  0  0
  148.7287  160.6099  133.9661 H   0  0  0  0  0  0  0  0  0  0  0  0
  146.8410  160.8570  132.4950 H   0  0  0  0  0  0  0  0  0  0  0  0
  147.0876  157.3031  133.2271 H   0  0  0  0  0  0  0  0  0  0  0  0
  145.1543  155.7178  133.4900 H   0  0  0  0  0  0  0  0  0  0  0  0
  142.3055  155.6169  133.6818 H   0  0  0  0  0  0  0  0  0  0  0  0
  138.3560  156.5220  132.9550 H   0  0  0  0  0  0  0  0  0  0  0  0
  144.3183  160.6704  133.1624 H   0  0  0  0  0  0  0  0  0  0  0  0
  1  2  1  0
  2  3  2  0
  2  4  1  0
  4  5  1  0
  5  6  1  0
  6  7  1  0
  7  8  1  0
  8  9  2  0
  9 10  1  0
 10 11  2  0
 11 12  1  0
 12 13  2  0
 13 14  1  0
 14 15  1  0
 14 16  2  0
 13 17  1  0
 17 18  1  0
 18 19  2  0
 18 20  1  0
 17 21  1  0
 21 22  2  0
 22  8  1  0
 21 11  1  0
  1 23  1  0
  1 24  1  0
  1 25  1  0
  4 26  1  0
  5 27  1  0
  5 28  1  0
  6 29  1  0
  6 30  1  0
  7 31  1  0
  9 32  1  0
 10 33  1  0
 12 34  1  0
 15 35  1  0
 22 36  1  0
M  CHG  2  15  -1  20  -1
M  END
>  <UniqueID>  (28) 
28

>  <SMILES>  (28) 
CC(=O)NCCNc1ccc2cc(C([NH-])=O)n(C(=O)[O-])c2c1

>  <Energy>  (28) 
69.66799722091271

>  <Genealogy>  (28) 
CC(=O)NCCNc1ccc2cc(C([NH-])=O)n(C(=O)[O-])c2c1 (protonated)
CC(=O)NCCNc1ccc2cc(C([NH-])=O)n(C(=O)[O-])c2c1 (3D coordinates assigned)
CC(=O)NCCNc1ccc2cc(C([NH-])=O)n(C(=O)[O-])c2c1 (optimized conformer: 69.66799722091271 kcal/mol)

>  <smiles>  (28) 
CC(=O)NCCNc1ccc2cc(C(N)=O)n(C(=O)O)c2c1

>  <score_type>  (28) 
oracle

>  <origin>  (28) 
adg

>  <m_score__min__energy>  (28) 
-7.0800000000000001

>  <m_primary>  (28) 
energy

$$$$
28:0
     RDKit          3D

 38 40  0  0  0  0  0  0  0  0999 V2000
  143.1990  161.4050  133.7010 N   0  0  0  0  0  0  0  0  0  0  0  0
  144.6060  161.5510  133.8830 C   0  0  0  0  0  0  0  0  0  0  0  0
  145.0670  162.6580  134.2660 O   0  0  0  0  0  0  0  0  0  0  0  0
  145.4990  160.3930  133.6640 C   0  0  0  0  0  0  0  0  0  0  0  0
  146.8730  160.5120  133.4620 C   0  0  0  0  0  0  0  0  0  0  0  0
  147.3170  159.2350  133.2110 C   0  0  0  0  0  0  0  0  0  0  0  0
  148.6020  158.7710  132.9440 C   0  0  0  0  0  0  0  0  0  0  0  0
  148.7750  157.3920  132.7420 C   0  0  0  0  0  0  0  0  0  0  0  0
  147.6730  156.5060  132.8300 C   0  0  0  0  0  0  0  0  0  0  0  0
  147.8670  155.0320  132.5890 C   0  0  0  0  0  0  0  0  0  0  0  0
  146.6970  154.2300  133.2080 C   0  0  0  0  0  0  0  0  0  0  0  0
  145.7130  153.6520  132.2580 N   0  0  2  0  0  0  0  0  0  0  0  0
  144.9130  154.6340  131.5110 C   0  0  0  0  0  0  0  0  0  0  0  0
  143.6050  154.1010  132.0840 C   0  0  2  0  0  0  0  0  0  0  0  0
  142.9960  155.0060  132.9630 O   0  0  0  0  0  0  0  0  0  0  0  0
  144.4750  153.0930  132.8220 C   0  0  0  0  0  0  0  0  0  0  0  0
  146.3810  157.0140  133.0920 C   0  0  0  0  0  0  0  0  0  0  0  0
  146.2340  158.3950  133.2690 C   0  0  0  0  0  0  0  0  0  0  0  0
  145.1100  159.0910  133.5490 N   0  0  0  0  0  0  0  0  0  0  0  0
  143.7960  158.5400  133.7430 C   0  0  0  0  0  0  0  0  0  0  0  0
  143.2190  158.6490  134.8560 O   0  0  0  0  0  0  0  0  0  0  0  0
  143.1610  157.8610  132.7120 O   0  0  0  0  0  0  0  0  0  0  0  0
  142.7370  160.4760  133.8100 H   0  0  0  0  0  0  0  0  0  0  0  0
  147.4746  161.4323  133.4961 H   0  0  0  0  0  0  0  0  0  0  0  0
  149.4555  159.4630  132.8928 H   0  0  0  0  0  0  0  0  0  0  0  0
  149.7755  156.9961  132.5133 H   0  0  0  0  0  0  0  0  0  0  0  0
  147.9042  154.8428  131.5060 H   0  0  0  0  0  0  0  0  0  0  0  0
  148.8089  154.7127  133.0589 H   0  0  0  0  0  0  0  0  0  0  0  0
  147.1298  153.4005  133.7864 H   0  0  0  0  0  0  0  0  0  0  0  0
  146.1300  154.9582  133.8066 H   0  0  0  0  0  0  0  0  0  0  0  0
  146.1730  152.9710  131.6050 H   0  0  0  0  0  0  0  0  0  0  0  0
  145.1231  155.6767  131.7916 H   0  0  0  0  0  0  0  0  0  0  0  0
  145.0309  154.7007  130.4194 H   0  0  0  0  0  0  0  0  0  0  0  0
  142.7513  153.8148  131.4522 H   0  0  0  0  0  0  0  0  0  0  0  0
  142.7150  155.7760  132.4040 H   0  0  0  0  0  0  0  0  0  0  0  0
  144.4135  153.1783  133.9170 H   0  0  0  0  0  0  0  0  0  0  0  0
  144.2694  152.0193  132.7001 H   0  0  0  0  0  0  0  0  0  0  0  0
  145.5127  156.3417  133.1553 H   0  0  0  0  0  0  0  0  0  0  0  0
  1  2  1  0
  2  3  2  0
  2  4  1  0
  4  5  2  0
  5  6  1  0
  6  7  2  0
  7  8  1  0
  8  9  2  0
  9 10  1  0
 10 11  1  0
 11 12  1  0
 12 13  1  0
 13 14  1  0
 14 15  1  0
 14 16  1  0
  9 17  1  0
 17 18  2  0
 18 19  1  0
 19 20  1  0
 20 21  2  0
 20 22  1  0
 19  4  1  0
 18  6  1  0
 16 12  1  0
  1 23  1  0
  5 24  1  0
  7 25  1  0
  8 26  1  0
 10 27  1  0
 10 28  1  0
 11 29  1  0
 11 30  1  0
 12 31  1  6
 13 32  1  0
 13 33  1  0
 14 34  1  6
 15 35  1  0
 16 36  1  0
 16 37  1  0
 17 38  1  0
M  CHG  3   1  -1  12   1  22  -1
M  END
>  <UniqueID>  (29) 
29

>  <SMILES>  (29) 
[NH-]C(=O)c1cc2ccc(CC[NH+]3CC(O)C3)cc2n1C(=O)[O-]

>  <Energy>  (29) 
154.93632528166268

>  <Genealogy>  (29) 
[NH-]C(=O)c1cc2ccc(CC[NH+]3CC(O)C3)cc2n1C(=O)[O-] (protonated)
[NH-]C(=O)c1cc2ccc(CC[NH+]3CC(O)C3)cc2n1C(=O)[O-] (3D coordinates assigned)
[NH-]C(=O)c1cc2ccc(CC[NH+]3CC(O)C3)cc2n1C(=O)[O-] (nonaromatic ring conformer: 154.93632528166268 kcal/mol)

>  <smiles>  (29) 
NC(=O)c1cc2ccc(CCN3CC(O)C3)cc2n1C(=O)O

>  <score_type>  (29) 
oracle

>  <origin>  (29) 
adg

>  <m_score__min__energy>  (29) 
-5.9100000000000001

>  <m_primary>  (29) 
energy

$$$$
29:0
     RDKit          3D

 34 35  0  0  0  0  0  0  0  0999 V2000
  138.2440  160.4030  130.8720 C   0  0  0  0  0  0  0  0  0  0  0  0
  138.3470  159.3290  131.8000 O   0  0  0  0  0  0  0  0  0  0  0  0
  139.5570  158.6830  132.0700 C   0  0  0  0  0  0  0  0  0  0  0  0
  140.5870  158.9350  131.3870 O   0  0  0  0  0  0  0  0  0  0  0  0
  139.6370  157.7150  133.2100 C   0  0  0  0  0  0  0  0  0  0  0  0
  140.2610  158.3590  134.4540 C   0  0  0  0  0  0  0  0  0  0  0  0
  141.6070  158.9660  134.1520 C   0  0  0  0  0  0  0  0  0  0  0  0
  141.7330  160.3680  133.9910 C   0  0  0  0  0  0  0  0  0  0  0  0
  142.9870  160.9490  133.7370 C   0  0  0  0  0  0  0  0  0  0  0  0
  144.0930  160.1080  133.6680 C   0  0  0  0  0  0  0  0  0  0  0  0
  145.4150  160.4040  133.4230 C   0  0  0  0  0  0  0  0  0  0  0  0
  146.0820  159.1820  133.4720 C   0  0  0  0  0  0  0  0  0  0  0  0
  147.5510  159.0420  133.3590 C   0  0  0  0  0  0  0  0  0  0  0  0
  148.2470  158.0350  134.0970 N   0  0  0  0  0  0  0  0  0  0  0  0
  148.2000  159.7920  132.5830 O   0  0  0  0  0  0  0  0  0  0  0  0
  145.2080  158.1690  133.7330 N   0  0  0  0  0  0  0  0  0  0  0  0
  145.4950  156.7620  133.8010 C   0  0  0  0  0  0  0  0  0  0  0  0
  146.2090  156.3010  134.7300 O   0  0  0  0  0  0  0  0  0  0  0  0
  144.9740  155.8920  132.8510 O   0  0  0  0  0  0  0  0  0  0  0  0
  143.9940  158.7530  133.8490 C   0  0  0  0  0  0  0  0  0  0  0  0
  142.7540  158.1450  134.0810 C   0  0  0  0  0  0  0  0  0  0  0  0
  138.1529  161.3529  131.4192 H   0  0  0  0  0  0  0  0  0  0  0  0
  139.1438  160.4289  130.2398 H   0  0  0  0  0  0  0  0  0  0  0  0
  137.3557  160.2574  130.2398 H   0  0  0  0  0  0  0  0  0  0  0  0
  138.6222  157.3701  133.4574 H   0  0  0  0  0  0  0  0  0  0  0  0
  140.2738  156.8725  132.9023 H   0  0  0  0  0  0  0  0  0  0  0  0
  139.5887  159.1480  134.8222 H   0  0  0  0  0  0  0  0  0  0  0  0
  140.4011  157.5746  135.2124 H   0  0  0  0  0  0  0  0  0  0  0  0
  140.8411  161.0075  134.0655 H   0  0  0  0  0  0  0  0  0  0  0  0
  143.0909  162.0351  133.5971 H   0  0  0  0  0  0  0  0  0  0  0  0
  145.8518  161.3949  133.2297 H   0  0  0  0  0  0  0  0  0  0  0  0
  149.2780  157.9190  133.9800 H   0  0  0  0  0  0  0  0  0  0  0  0
  147.7520  157.4310  134.7900 H   0  0  0  0  0  0  0  0  0  0  0  0
  142.6753  157.0548  134.2049 H   0  0  0  0  0  0  0  0  0  0  0  0
  1  2  1  0
  2  3  1  0
  3  4  2  0
  3  5  1  0
  5  6  1  0
  6  7  1  0
  7  8  2  0
  8  9  1  0
  9 10  2  0
 10 11  1  0
 11 12  2  0
 12 13  1  0
 13 14  1  0
 13 15  2  0
 12 16  1  0
 16 17  1  0
 17 18  2  0
 17 19  1  0
 16 20  1  0
 20 21  2  0
 21  7  1  0
 20 10  1  0
  1 22  1  0
  1 23  1  0
  1 24  1  0
  5 25  1  0
  5 26  1  0
  6 27  1  0
  6 28  1  0
  8 29  1  0
  9 30  1  0
 11 31  1  0
 14 32  1  0
 14 33  1  0
 21 34  1  0
M  CHG  1  19  -1
M  END
>  <UniqueID>  (30) 
30

>  <SMILES>  (30) 
COC(=O)CCc1ccc2cc(C(N)=O)n(C(=O)[O-])c2c1

>  <Energy>  (30) 
66.90973034940775

>  <Genealogy>  (30) 
COC(=O)CCc1ccc2cc(C(N)=O)n(C(=O)[O-])c2c1 (protonated)
COC(=O)CCc1ccc2cc(C(N)=O)n(C(=O)[O-])c2c1 (3D coordinates assigned)
COC(=O)CCc1ccc2cc(C(N)=O)n(C(=O)[O-])c2c1 (optimized conformer: 66.90973034940775 kcal/mol)

>  <smiles>  (30) 
COC(=O)CCc1ccc2cc(C(N)=O)n(C(=O)O)c2c1

>  <score_type>  (30) 
oracle

>  <origin>  (30) 
adg

>  <m_score__min__energy>  (30) 
-6.0899999999999999

>  <m_primary>  (30) 
energy

$$$$
30:0
     RDKit          3D

 37 38  0  0  0  0  0  0  0  0999 V2000
  147.9030  153.9520  133.5590 C   0  0  0  0  0  0  0  0  0  0  0  0
  147.7550  155.0890  134.5560 C   0  0  0  0  0  0  0  0  0  0  0  0
  146.7860  156.0170  134.0800 O   0  0  0  0  0  0  0  0  0  0  0  0
  146.9720  156.7770  132.9220 C   0  0  0  0  0  0  0  0  0  0  0  0
  147.2080  156.2090  131.8200 O   0  0  0  0  0  0  0  0  0  0  0  0
  146.8750  158.2080  132.9850 N   0  0  0  0  0  0  0  0  0  0  0  0
  147.8720  159.1180  132.7920 C   0  0  0  0  0  0  0  0  0  0  0  0
  149.2330  158.8240  132.3010 C   0  0  0  0  0  0  0  0  0  0  0  0
  149.7110  157.4840  132.2230 N   0  0  0  0  0  0  0  0  0  0  0  0
  149.9680  159.7650  131.8960 O   0  0  0  0  0  0  0  0  0  0  0  0
  147.4100  160.4090  133.0440 C   0  0  0  0  0  0  0  0  0  0  0  0
  146.0880  160.2620  133.3920 C   0  0  0  0  0  0  0  0  0  0  0  0
  145.1440  161.2220  133.7470 C   0  0  0  0  0  0  0  0  0  0  0  0
  143.8530  160.7840  134.0830 C   0  0  0  0  0  0  0  0  0  0  0  0
  143.5360  159.4030  134.0760 C   0  0  0  0  0  0  0  0  0  0  0  0
  142.1400  158.9480  134.4040 C   0  0  0  0  0  0  0  0  0  0  0  0
  141.1740  159.5520  133.4380 C   0  0  0  0  0  0  0  0  0  0  0  0
  140.9990  160.8010  133.4260 O   0  0  0  0  0  0  0  0  0  0  0  0
  140.4390  158.7170  132.5900 O   0  0  0  0  0  0  0  0  0  0  0  0
  139.0170  158.7470  132.5140 C   0  0  0  0  0  0  0  0  0  0  0  0
  138.3890  159.7990  130.7600 I   0  0  0  0  0  0  0  0  0  0  0  0
  144.5160  158.4580  133.7000 C   0  0  0  0  0  0  0  0  0  0  0  0
  145.7890  158.9250  133.3510 C   0  0  0  0  0  0  0  0  0  0  0  0
  148.0265  153.0028  134.1010 H   0  0  0  0  0  0  0  0  0  0  0  0
  147.0042  153.8991  132.9271 H   0  0  0  0  0  0  0  0  0  0  0  0
  148.7854  154.1309  132.9271 H   0  0  0  0  0  0  0  0  0  0  0  0
  147.4300  154.6854  135.5263 H   0  0  0  0  0  0  0  0  0  0  0  0
  148.7223  155.5991  134.6754 H   0  0  0  0  0  0  0  0  0  0  0  0
  149.1070  156.7170  131.8520 H   0  0  0  0  0  0  0  0  0  0  0  0
  147.9818  161.3464  132.9784 H   0  0  0  0  0  0  0  0  0  0  0  0
  145.4018  162.2912  133.7637 H   0  0  0  0  0  0  0  0  0  0  0  0
  143.0810  161.5193  134.3540 H   0  0  0  0  0  0  0  0  0  0  0  0
  142.0874  157.8513  134.3364 H   0  0  0  0  0  0  0  0  0  0  0  0
  141.8828  159.2677  135.4246 H   0  0  0  0  0  0  0  0  0  0  0  0
  138.6338  157.7166  132.4758 H   0  0  0  0  0  0  0  0  0  0  0  0
  138.6221  159.2633  133.4014 H   0  0  0  0  0  0  0  0  0  0  0  0
  144.2851  157.3827  133.6818 H   0  0  0  0  0  0  0  0  0  0  0  0
  1  2  1  0
  2  3  1  0
  3  4  1  0
  4  5  2  0
  4  6  1  0
  6  7  1  0
  7  8  1  0
  8  9  1  0
  8 10  2  0
  7 11  2  0
 11 12  1  0
 12 13  2  0
 13 14  1  0
 14 15  2  0
 15 16  1  0
 16 17  1  0
 17 18  2  0
 17 19  1  0
 19 20  1  0
 20 21  1  0
 15 22  1  0
 22 23  2  0
 23  6  1  0
 23 12  1  0
  1 24  1  0
  1 25  1  0
  1 26  1  0
  2 27  1  0
  2 28  1  0
  9 29  1  0
 11 30  1  0
 13 31  1  0
 14 32  1  0
 16 33  1  0
 16 34  1  0
 20 35  1  0
 20 36  1  0
 22 37  1  0
M  CHG  1   9  -1
M  END
>  <UniqueID>  (31) 
31

>  <SMILES>  (31) 
CCOC(=O)n1c(C([NH-])=O)cc2ccc(CC(=O)OCI)cc21

>  <Energy>  (31) 
66.93499630850704

>  <Genealogy>  (31) 
CCOC(=O)n1c(C([NH-])=O)cc2ccc(CC(=O)OCI)cc21 (protonated)
CCOC(=O)n1c(C([NH-])=O)cc2ccc(CC(=O)OCI)cc21 (3D coordinates assigned)
CCOC(=O)n1c(C([NH-])=O)cc2ccc(CC(=O)OCI)cc21 (optimized conformer: 66.93499630850704 kcal/mol)

>  <smiles>  (31) 
CCOC(=O)n1c(C(N)=O)cc2ccc(CC(=O)OCI)cc21

>  <score_type>  (31) 
oracle

>  <origin>  (31) 
adg

>  <m_score__min__energy>  (31) 
-6.9000000000000004

>  <m_primary>  (31) 
energy

$$$$
31:0
     RDKit          3D

 50 52  0  0  0  0  0  0  0  0999 V2000
  139.1040  147.2740  130.3460 C   0  0  0  0  0  0  0  0  0  0  0  0
  139.4900  148.6860  130.4910 N   0  0  0  0  0  0  0  0  0  0  0  0
  140.9690  148.8440  130.5490 C   0  0  0  0  0  0  0  0  0  0  0  0
  141.4840  149.5320  131.8250 C   0  0  0  0  0  0  0  0  0  0  0  0
  140.7000  150.7430  132.1070 N   0  0  0  0  0  0  0  0  0  0  0  0
  141.3010  151.9160  132.6920 C   0  0  0  0  0  0  0  0  0  0  0  0
  140.7020  153.0250  132.6120 O   0  0  0  0  0  0  0  0  0  0  0  0
  142.6570  151.8570  133.3550 C   0  0  0  0  0  0  0  0  0  0  0  0
  143.7000  152.7210  132.6290 C   0  0  0  0  0  0  0  0  0  0  0  0
  145.1390  152.3340  133.0010 C   0  0  0  0  0  0  0  0  0  0  0  0
  146.0710  153.5180  132.9500 C   0  0  0  0  0  0  0  0  0  0  0  0
  147.4670  153.3140  132.8250 C   0  0  0  0  0  0  0  0  0  0  0  0
  148.3520  154.4040  132.8190 C   0  0  0  0  0  0  0  0  0  0  0  0
  147.8140  155.6810  132.9380 C   0  0  0  0  0  0  0  0  0  0  0  0
  148.4460  156.9010  133.0080 C   0  0  0  0  0  0  0  0  0  0  0  0
  147.4240  157.8360  133.1560 C   0  0  0  0  0  0  0  0  0  0  0  0
  147.6610  159.2930  133.2150 C   0  0  0  0  0  0  0  0  0  0  0  0
  146.6810  160.2210  132.7510 N   0  0  0  0  0  0  0  0  0  0  0  0
  148.7710  159.7230  133.6260 O   0  0  0  0  0  0  0  0  0  0  0  0
  146.2080  157.2210  133.1910 N   0  0  0  0  0  0  0  0  0  0  0  0
  144.9330  157.8260  133.4660 C   0  0  0  0  0  0  0  0  0  0  0  0
  144.2560  157.4620  134.4620 O   0  0  0  0  0  0  0  0  0  0  0  0
  144.4320  158.8150  132.6270 O   0  0  0  0  0  0  0  0  0  0  0  0
  146.4640  155.8990  133.0520 C   0  0  0  0  0  0  0  0  0  0  0  0
  145.5620  154.8290  133.0770 C   0  0  0  0  0  0  0  0  0  0  0  0
  139.2510  150.7250  131.8750 C   0  0  0  0  0  0  0  0  0  0  0  0
  138.7610  149.2990  131.6190 C   0  0  0  0  0  0  0  0  0  0  0  0
  138.9808  146.8234  131.3419 H   0  0  0  0  0  0  0  0  0  0  0  0
  138.1549  147.2082  129.7938 H   0  0  0  0  0  0  0  0  0  0  0  0
  139.8876  146.7345  129.7938 H   0  0  0  0  0  0  0  0  0  0  0  0
  141.4246  147.8446  130.4890 H   0  0  0  0  0  0  0  0  0  0  0  0
  141.2491  149.4936  129.7066 H   0  0  0  0  0  0  0  0  0  0  0  0
  141.3945  148.8368  132.6728 H   0  0  0  0  0  0  0  0  0  0  0  0
  142.5366  149.8151  131.6774 H   0  0  0  0  0  0  0  0  0  0  0  0
  142.5602  152.2151  134.3906 H   0  0  0  0  0  0  0  0  0  0  0  0
  143.0027  150.8133  133.3211 H   0  0  0  0  0  0  0  0  0  0  0  0
  143.5694  152.5959  131.5440 H   0  0  0  0  0  0  0  0  0  0  0  0
  143.5429  153.7658  132.9350 H   0  0  0  0  0  0  0  0  0  0  0  0
  145.1439  151.9213  134.0206 H   0  0  0  0  0  0  0  0  0  0  0  0
  145.4917  151.5910  132.2706 H   0  0  0  0  0  0  0  0  0  0  0  0
  147.8617  152.2915  132.7317 H   0  0  0  0  0  0  0  0  0  0  0  0
  149.4373  154.2527  132.7231 H   0  0  0  0  0  0  0  0  0  0  0  0
  149.5273  157.0964  132.9578 H   0  0  0  0  0  0  0  0  0  0  0  0
  146.8590  161.2480  132.8150 H   0  0  0  0  0  0  0  0  0  0  0  0
  145.8230  159.8960  132.2540 H   0  0  0  0  0  0  0  0  0  0  0  0
  144.4824  155.0052  133.1928 H   0  0  0  0  0  0  0  0  0  0  0  0
  138.7387  151.1291  132.7606 H   0  0  0  0  0  0  0  0  0  0  0  0
  139.0273  151.3394  130.9904 H   0  0  0  0  0  0  0  0  0  0  0  0
  138.9232  148.6946  132.5236 H   0  0  0  0  0  0  0  0  0  0  0  0
  137.6907  149.3349  131.3678 H   0  0  0  0  0  0  0  0  0  0  0  0
  1  2  1  0
  2  3  1  0
  3  4  1  0
  4  5  1  0
  5  6  1  0
  6  7  2  0
  6  8  1  0
  8  9  1  0
  9 10  1  0
 10 11  1  0
 11 12  2  0
 12 13  1  0
 13 14  2  0
 14 15  1  0
 15 16  2  0
 16 17  1  0
 17 18  1  0
 17 19  2  0
 16 20  1  0
 20 21  1  0
 21 22  2  0
 21 23  1  0
 20 24  1  0
 24 25  2  0
  5 26  1  0
 26 27  1  0
 27  2  1  0
 25 11  1  0
 24 14  1  0
  1 28  1  0
  1 29  1  0
  1 30  1  0
  3 31  1  0
  3 32  1  0
  4 33  1  0
  4 34  1  0
  8 35  1  0
  8 36  1  0
  9 37  1  0
  9 38  1  0
 10 39  1  0
 10 40  1  0
 12 41  1  0
 13 42  1  0
 15 43  1  0
 18 44  1  0
 18 45  1  0
 25 46  1  0
 26 47  1  0
 26 48  1  0
 27 49  1  0
 27 50  1  0
M  CHG  1  23  -1
M  END
>  <UniqueID>  (32) 
32

>  <SMILES>  (32) 
CN1CCN(C(=O)CCCc2ccc3cc(C(N)=O)n(C(=O)[O-])c3c2)CC1

>  <Energy>  (32) 
93.33567027201504

>  <Genealogy>  (32) 
CN1CCN(C(=O)CCCc2ccc3cc(C(N)=O)n(C(=O)[O-])c3c2)CC1 (protonated)
CN1CCN(C(=O)CCCc2ccc3cc(C(N)=O)n(C(=O)[O-])c3c2)CC1 (3D coordinates assigned)
CN1CCN(C(=O)CCCc2ccc3cc(C(N)=O)n(C(=O)[O-])c3c2)CC1 (nonaromatic ring conformer: 93.33567027201504 kcal/mol)

>  <smiles>  (32) 
CN1CCN(C(=O)CCCc2ccc3cc(C(N)=O)n(C(=O)O)c3c2)CC1

>  <score_type>  (32) 
oracle

>  <origin>  (32) 
adg

>  <m_score__min__energy>  (32) 
-8.7599999999999998

>  <m_primary>  (32) 
energy

$$$$
32:0
     RDKit          3D

 52 53  0  0  0  0  0  0  0  0999 V2000
  147.8630  160.1000  132.9580 C   0  0  0  0  0  0  0  0  0  0  0  0
  146.6950  160.6440  133.5600 O   0  0  0  0  0  0  0  0  0  0  0  0
  145.4210  160.1120  133.3430 C   0  0  0  0  0  0  0  0  0  0  0  0
  144.3980  160.8490  133.3850 O   0  0  0  0  0  0  0  0  0  0  0  0
  145.2770  158.6580  133.0390 C   0  0  0  0  0  0  0  0  0  0  0  0
  143.9160  158.3760  132.7420 O   0  0  0  0  0  0  0  0  0  0  0  0
  142.9060  158.4070  133.7060 C   0  0  0  0  0  0  0  0  0  0  0  0
  143.1450  158.8390  134.8680 O   0  0  0  0  0  0  0  0  0  0  0  0
  141.5940  157.9260  133.3760 N   0  0  0  0  0  0  0  0  0  0  0  0
  140.4740  158.6550  133.1080 C   0  0  0  0  0  0  0  0  0  0  0  0
  140.4010  160.1250  132.9780 C   0  0  0  0  0  0  0  0  0  0  0  0
  141.3700  160.9660  133.5980 N   0  0  0  0  0  0  0  0  0  0  0  0
  139.4980  160.6450  132.2690 O   0  0  0  0  0  0  0  0  0  0  0  0
  139.3900  157.8120  132.8700 C   0  0  0  0  0  0  0  0  0  0  0  0
  139.8870  156.5340  132.9870 C   0  0  0  0  0  0  0  0  0  0  0  0
  139.2530  155.3060  132.8240 C   0  0  0  0  0  0  0  0  0  0  0  0
  140.0190  154.1410  132.9950 C   0  0  0  0  0  0  0  0  0  0  0  0
  141.3900  154.2250  133.3450 C   0  0  0  0  0  0  0  0  0  0  0  0
  142.2160  152.9740  133.4590 C   0  0  0  0  0  0  0  0  0  0  0  0
  141.3300  151.7790  133.3070 C   0  0  0  0  0  0  0  0  0  0  0  0
  141.0620  151.0710  134.3150 O   0  0  0  0  0  0  0  0  0  0  0  0
  140.7390  151.4830  132.0340 N   0  0  0  0  0  0  0  0  0  0  0  0
  139.5100  150.7050  131.8970 C   0  0  0  0  0  0  0  0  0  0  0  0
  139.4720  149.9910  130.5390 C   0  0  0  0  0  0  0  0  0  0  0  0
  140.1630  148.6820  130.5840 N   0  0  0  0  0  0  0  0  0  0  0  0
  140.7470  148.4700  131.9180 C   0  0  0  0  0  0  0  0  0  0  0  0
  139.2370  147.5790  130.2790 C   0  0  0  0  0  0  0  0  0  0  0  0
  142.0010  155.4890  133.4970 C   0  0  0  0  0  0  0  0  0  0  0  0
  141.2190  156.6310  133.2970 C   0  0  0  0  0  0  0  0  0  0  0  0
  148.5621  159.7744  133.7424 H   0  0  0  0  0  0  0  0  0  0  0  0
  147.5860  159.2383  132.3330 H   0  0  0  0  0  0  0  0  0  0  0  0
  148.3444  160.8666  132.3330 H   0  0  0  0  0  0  0  0  0  0  0  0
  145.9040  158.3992  132.1730 H   0  0  0  0  0  0  0  0  0  0  0  0
  145.5964  158.0649  133.9086 H   0  0  0  0  0  0  0  0  0  0  0  0
  142.3040  160.5920  133.8810 H   0  0  0  0  0  0  0  0  0  0  0  0
  138.3558  158.1060  132.6377 H   0  0  0  0  0  0  0  0  0  0  0  0
  138.1845  155.2493  132.5690 H   0  0  0  0  0  0  0  0  0  0  0  0
  139.5510  153.1553  132.8561 H   0  0  0  0  0  0  0  0  0  0  0  0
  142.9815  152.9663  132.6691 H   0  0  0  0  0  0  0  0  0  0  0  0
  142.7062  152.9455  134.4433 H   0  0  0  0  0  0  0  0  0  0  0  0
  141.0880  151.9940  131.1910 H   0  0  0  0  0  0  0  0  0  0  0  0
  139.4649  149.9556  132.7010 H   0  0  0  0  0  0  0  0  0  0  0  0
  138.6492  151.3866  131.9638 H   0  0  0  0  0  0  0  0  0  0  0  0
  138.4226  149.8295  130.2513 H   0  0  0  0  0  0  0  0  0  0  0  0
  139.9910  150.6255  129.8055 H   0  0  0  0  0  0  0  0  0  0  0  0
  140.0088  148.7380  132.6882 H   0  0  0  0  0  0  0  0  0  0  0  0
  141.0279  147.4125  132.0315 H   0  0  0  0  0  0  0  0  0  0  0  0
  141.6408  149.1010  132.0315 H   0  0  0  0  0  0  0  0  0  0  0  0
  138.8682  147.1397  131.2176 H   0  0  0  0  0  0  0  0  0  0  0  0
  138.3876  147.9640  129.6957 H   0  0  0  0  0  0  0  0  0  0  0  0
  139.7633  146.8091  129.6957 H   0  0  0  0  0  0  0  0  0  0  0  0
  143.0644  155.5731  133.7657 H   0  0  0  0  0  0  0  0  0  0  0  0
  1  2  1  0
  2  3  1  0
  3  4  2  0
  3  5  1  0
  5  6  1  0
  6  7  1  0
  7  8  2  0
  7  9  1  0
  9 10  1  0
 10 11  1  0
 11 12  1  0
 11 13  2  0
 10 14  2  0
 14 15  1  0
 15 16  2  0
 16 17  1  0
 17 18  2  0
 18 19  1  0
 19 20  1  0
 20 21  2  0
 20 22  1  0
 22 23  1  0
 23 24  1  0
 24 25  1  0
 25 26  1  0
 25 27  1  0
 18 28  1  0
 28 29  2  0
 29  9  1  0
 29 15  1  0
  1 30  1  0
  1 31  1  0
  1 32  1  0
  5 33  1  0
  5 34  1  0
 12 35  1  0
 14 36  1  0
 16 37  1  0
 17 38  1  0
 19 39  1  0
 19 40  1  0
 22 41  1  0
 23 42  1  0
 23 43  1  0
 24 44  1  0
 24 45  1  0
 26 46  1  0
 26 47  1  0
 26 48  1  0
 27 49  1  0
 27 50  1  0
 27 51  1  0
 28 52  1  0
M  CHG  1  12  -1
M  END
>  <UniqueID>  (33) 
33

>  <SMILES>  (33) 
COC(=O)COC(=O)n1c(C([NH-])=O)cc2ccc(CC(=O)NCCN(C)C)cc21

>  <Energy>  (33) 
73.72551637806478

>  <Genealogy>  (33) 
COC(=O)COC(=O)n1c(C([NH-])=O)cc2ccc(CC(=O)NCCN(C)C)cc21 (protonated)
COC(=O)COC(=O)n1c(C([NH-])=O)cc2ccc(CC(=O)NCCN(C)C)cc21 (3D coordinates assigned)
COC(=O)COC(=O)n1c(C([NH-])=O)cc2ccc(CC(=O)NCCN(C)C)cc21 (optimized conformer: 73.72551637806478 kcal/mol)

>  <smiles>  (33) 
COC(=O)COC(=O)n1c(C(N)=O)cc2ccc(CC(=O)NCCN(C)C)cc21

>  <score_type>  (33) 
oracle

>  <origin>  (33) 
adg

>  <m_score__min__energy>  (33) 
-7.2699999999999996

>  <m_primary>  (33) 
energy

$$$$
33:0
     RDKit          3D

 35 36  0  0  0  0  0  0  0  0999 V2000
  146.3650  155.3200  134.9900 C   0  0  0  0  0  0  0  0  0  0  0  0
  147.3240  155.7650  134.1800 C   0  0  0  0  0  0  0  0  0  0  0  0
  147.0450  156.5870  132.9870 C   0  0  0  0  0  0  0  0  0  0  0  0
  146.9950  156.0260  131.8590 O   0  0  0  0  0  0  0  0  0  0  0  0
  146.8190  158.0030  133.0800 N   0  0  0  0  0  0  0  0  0  0  0  0
  147.6850  159.0040  132.7630 C   0  0  0  0  0  0  0  0  0  0  0  0
  149.0890  158.8260  132.3360 C   0  0  0  0  0  0  0  0  0  0  0  0
  149.6280  157.5130  132.1970 N   0  0  0  0  0  0  0  0  0  0  0  0
  149.8160  159.8210  132.0790 O   0  0  0  0  0  0  0  0  0  0  0  0
  147.0780  160.2460  132.9390 C   0  0  0  0  0  0  0  0  0  0  0  0
  145.8000  159.9690  133.3730 C   0  0  0  0  0  0  0  0  0  0  0  0
  144.7570  160.8290  133.7010 C   0  0  0  0  0  0  0  0  0  0  0  0
  143.5390  160.2600  134.1120 C   0  0  0  0  0  0  0  0  0  0  0  0
  143.3840  158.8520  134.1760 C   0  0  0  0  0  0  0  0  0  0  0  0
  142.0790  158.2520  134.6400 C   0  0  0  0  0  0  0  0  0  0  0  0
  140.9620  158.3150  133.5790 C   0  0  1  0  0  0  0  0  0  0  0  0
  141.5000  158.1110  132.2300 N   0  0  0  0  0  0  0  0  0  0  0  0
  139.8340  157.3600  133.8880 C   0  0  0  0  0  0  0  0  0  0  0  0
  139.0910  157.5400  134.8890 O   0  0  0  0  0  0  0  0  0  0  0  0
  139.5760  156.3000  133.0290 O   0  0  0  0  0  0  0  0  0  0  0  0
  144.4640  158.0130  133.8270 C   0  0  0  0  0  0  0  0  0  0  0  0
  145.6690  158.6080  133.4430 C   0  0  0  0  0  0  0  0  0  0  0  0
  146.6254  154.7099  135.8675 H   0  0  0  0  0  0  0  0  0  0  0  0
  145.3125  155.5625  134.7815 H   0  0  0  0  0  0  0  0  0  0  0  0
  148.3687  155.5087  134.4103 H   0  0  0  0  0  0  0  0  0  0  0  0
  149.0490  156.7350  131.8100 H   0  0  0  0  0  0  0  0  0  0  0  0
  147.5242  161.2367  132.7678 H   0  0  0  0  0  0  0  0  0  0  0  0
  144.8814  161.9203  133.6407 H   0  0  0  0  0  0  0  0  0  0  0  0
  142.6979  160.9135  134.3867 H   0  0  0  0  0  0  0  0  0  0  0  0
  142.2534  157.1975  134.8999 H   0  0  0  0  0  0  0  0  0  0  0  0
  141.7395  158.8434  135.5031 H   0  0  0  0  0  0  0  0  0  0  0  0
  140.5331  159.3274  133.6127 H   0  0  0  0  0  0  0  0  0  0  0  0
  142.5370  158.2440  132.2310 H   0  0  0  0  0  0  0  0  0  0  0  0
  141.3190  157.1200  131.9470 H   0  0  0  0  0  0  0  0  0  0  0  0
  144.3600  156.9183  133.8565 H   0  0  0  0  0  0  0  0  0  0  0  0
  1  2  2  0
  2  3  1  0
  3  4  2  0
  3  5  1  0
  5  6  1  0
  6  7  1  0
  7  8  1  0
  7  9  2  0
  6 10  2  0
 10 11  1  0
 11 12  2  0
 12 13  1  0
 13 14  2  0
 14 15  1  0
 15 16  1  0
 16 17  1  0
 16 18  1  0
 18 19  2  0
 18 20  1  0
 14 21  1  0
 21 22  2  0
 22  5  1  0
 22 11  1  0
  1 23  1  0
  1 24  1  0
  2 25  1  0
  8 26  1  0
 10 27  1  0
 12 28  1  0
 13 29  1  0
 15 30  1  0
 15 31  1  0
 16 32  1  6
 17 33  1  0
 17 34  1  0
 21 35  1  0
M  CHG  2   8  -1  20  -1
M  END
>  <UniqueID>  (34) 
34

>  <SMILES>  (34) 
C=CC(=O)n1c(C([NH-])=O)cc2ccc(C[C@@H](N)C(=O)[O-])cc21

>  <Energy>  (34) 
71.52980775428905

>  <Genealogy>  (34) 
C=CC(=O)n1c(C([NH-])=O)cc2ccc(CC(N)C(=O)[O-])cc21 (protonated)
C=CC(=O)n1c(C([NH-])=O)cc2ccc(C[C@@H](N)C(=O)[O-])cc21 (chirality)
C=CC(=O)n1c(C([NH-])=O)cc2ccc(C[C@@H](N)C(=O)[O-])cc21 (3D coordinates assigned)
C=CC(=O)n1c(C([NH-])=O)cc2ccc(C[C@@H](N)C(=O)[O-])cc21 (optimized conformer: 71.52980775428905 kcal/mol)

>  <smiles>  (34) 
C=CC(=O)n1c(C(N)=O)cc2ccc(CC(N)C(=O)O)cc21

>  <score_type>  (34) 
oracle

>  <origin>  (34) 
adg

>  <m_score__min__energy>  (34) 
-6.8499999999999996

>  <m_primary>  (34) 
energy

$$$$
34:0
     RDKit          3D

 59 60  0  0  0  0  0  0  0  0999 V2000
  151.3150  149.2260  129.2370 C   0  0  0  0  0  0  0  0  0  0  0  0
  150.7160  149.5650  130.4670 O   0  0  0  0  0  0  0  0  0  0  0  0
  149.9900  150.7750  130.3490 C   0  0  0  0  0  0  0  0  0  0  0  0
  149.2430  151.0690  131.6540 C   0  0  0  0  0  0  0  0  0  0  0  0
  149.8670  152.2490  132.3970 C   0  0  0  0  0  0  0  0  0  0  0  0
  149.1020  152.5210  133.5590 O   0  0  0  0  0  0  0  0  0  0  0  0
  147.8370  153.0620  133.2240 C   0  0  0  0  0  0  0  0  0  0  0  0
  147.6990  154.4690  133.8220 C   0  0  0  0  0  0  0  0  0  0  0  0
  148.3400  155.5520  132.9440 C   0  0  0  0  0  0  0  0  0  0  0  0
  147.7050  156.9010  133.1640 C   0  0  0  0  0  0  0  0  0  0  0  0
  148.5170  158.0620  133.2370 C   0  0  0  0  0  0  0  0  0  0  0  0
  147.9380  159.3330  133.3840 C   0  0  0  0  0  0  0  0  0  0  0  0
  146.5520  159.4120  133.4720 C   0  0  0  0  0  0  0  0  0  0  0  0
  145.7320  160.5140  133.5660 C   0  0  0  0  0  0  0  0  0  0  0  0
  144.4340  160.0070  133.5860 C   0  0  0  0  0  0  0  0  0  0  0  0
  143.2310  160.8490  133.7370 C   0  0  0  0  0  0  0  0  0  0  0  0
  141.9550  160.2610  133.9640 N   0  0  0  0  0  0  0  0  0  0  0  0
  143.3380  162.1030  133.7250 O   0  0  0  0  0  0  0  0  0  0  0  0
  144.4520  158.6470  133.5050 N   0  0  0  0  0  0  0  0  0  0  0  0
  143.3270  157.7640  133.3840 C   0  0  0  0  0  0  0  0  0  0  0  0
  142.8840  157.4620  132.2420 O   0  0  0  0  0  0  0  0  0  0  0  0
  142.6980  157.2820  134.5380 O   0  0  0  0  0  0  0  0  0  0  0  0
  141.5860  156.3880  134.5120 C   0  0  0  0  0  0  0  0  0  0  0  0
  140.3360  157.0740  133.9460 C   0  0  0  0  0  0  0  0  0  0  0  0
  139.4710  157.6810  135.0490 C   0  0  0  0  0  0  0  0  0  0  0  0
  139.9310  158.9850  135.3200 O   0  0  0  0  0  0  0  0  0  0  0  0
  140.8420  158.9400  136.7600 P   0  0  1  0  0  0  0  0  0  0  0  0
  140.4380  160.1020  137.6390 O   0  0  0  0  0  0  0  0  0  0  0  0
  140.5250  157.4900  137.5750 O   0  0  0  0  0  0  0  0  0  0  0  0
  142.4980  159.0450  136.4240 O   0  0  0  0  0  0  0  0  0  0  0  0
  145.7540  158.2970  133.4320 C   0  0  0  0  0  0  0  0  0  0  0  0
  146.3010  157.0210  133.2570 C   0  0  0  0  0  0  0  0  0  0  0  0
  152.2585  148.6920  129.4235 H   0  0  0  0  0  0  0  0  0  0  0  0
  150.6346  148.5790  128.6638 H   0  0  0  0  0  0  0  0  0  0  0  0
  151.5194  150.1423  128.6638 H   0  0  0  0  0  0  0  0  0  0  0  0
  150.6873  151.5985  130.1352 H   0  0  0  0  0  0  0  0  0  0  0  0
  149.2616  150.6799  129.5302 H   0  0  0  0  0  0  0  0  0  0  0  0
  148.1945  151.3063  131.4210 H   0  0  0  0  0  0  0  0  0  0  0  0
  149.3069  150.1799  132.2985 H   0  0  0  0  0  0  0  0  0  0  0  0
  150.8988  151.9991  132.6851 H   0  0  0  0  0  0  0  0  0  0  0  0
  149.8781  153.1344  131.7444 H   0  0  0  0  0  0  0  0  0  0  0  0
  147.7425  153.1194  132.1296 H   0  0  0  0  0  0  0  0  0  0  0  0
  147.0458  152.4150  133.6307 H   0  0  0  0  0  0  0  0  0  0  0  0
  146.6295  154.6982  133.9388 H   0  0  0  0  0  0  0  0  0  0  0  0
  148.2239  154.4717  134.7887 H   0  0  0  0  0  0  0  0  0  0  0  0
  149.4108  155.6190  133.1865 H   0  0  0  0  0  0  0  0  0  0  0  0
  148.1892  155.2714  131.8911 H   0  0  0  0  0  0  0  0  0  0  0  0
  149.6112  157.9657  133.1779 H   0  0  0  0  0  0  0  0  0  0  0  0
  148.5614  160.2382  133.4282 H   0  0  0  0  0  0  0  0  0  0  0  0
  146.0365  161.5699  133.6149 H   0  0  0  0  0  0  0  0  0  0  0  0
  141.8700  159.3200  134.4080 H   0  0  0  0  0  0  0  0  0  0  0  0
  141.8365  155.5220  133.8817 H   0  0  0  0  0  0  0  0  0  0  0  0
  141.3716  156.0685  135.5425 H   0  0  0  0  0  0  0  0  0  0  0  0
  140.6495  157.8739  133.2591 H   0  0  0  0  0  0  0  0  0  0  0  0
  139.7374  156.3140  133.4225 H   0  0  0  0  0  0  0  0  0  0  0  0
  138.4228  157.7200  134.7177 H   0  0  0  0  0  0  0  0  0  0  0  0
  139.5368  157.0647  135.9578 H   0  0  0  0  0  0  0  0  0  0  0  0
  142.5520  159.2310  135.4500 H   0  0  0  0  0  0  0  0  0  0  0  0
  145.6538  156.1338  133.1935 H   0  0  0  0  0  0  0  0  0  0  0  0
  1  2  1  0
  2  3  1  0
  3  4  1  0
  4  5  1  0
  5  6  1  0
  6  7  1  0
  7  8  1  0
  8  9  1  0
  9 10  1  0
 10 11  2  0
 11 12  1  0
 12 13  2  0
 13 14  1  0
 14 15  2  0
 15 16  1  0
 16 17  1  0
 16 18  2  0
 15 19  1  0
 19 20  1  0
 20 21  2  0
 20 22  1  0
 22 23  1  0
 23 24  1  0
 24 25  1  0
 25 26  1  0
 26 27  1  0
 27 28  2  0
 27 29  1  1
 27 30  1  0
 19 31  1  0
 31 32  2  0
 32 10  1  0
 31 13  1  0
  1 33  1  0
  1 34  1  0
  1 35  1  0
  3 36  1  0
  3 37  1  0
  4 38  1  0
  4 39  1  0
  5 40  1  0
  5 41  1  0
  7 42  1  0
  7 43  1  0
  8 44  1  0
  8 45  1  0
  9 46  1  0
  9 47  1  0
 11 48  1  0
 12 49  1  0
 14 50  1  0
 17 51  1  0
 23 52  1  0
 23 53  1  0
 24 54  1  0
 24 55  1  0
 25 56  1  0
 25 57  1  0
 30 58  1  0
 32 59  1  0
M  CHG  2  17  -1  29  -1
M  END
>  <UniqueID>  (35) 
35

>  <SMILES>  (35) 
COCCCOCCCc1ccc2cc(C([NH-])=O)n(C(=O)OCCCO[P@@](=O)([O-])O)c2c1

>  <Energy>  (35) 
84.69357529682325

>  <Genealogy>  (35) 
COCCCOCCCc1ccc2cc(C([NH-])=O)n(C(=O)OCCCOP(=O)([O-])O)c2c1 (protonated)
COCCCOCCCc1ccc2cc(C([NH-])=O)n(C(=O)OCCCO[P@@](=O)([O-])O)c2c1 (chirality)
COCCCOCCCc1ccc2cc(C([NH-])=O)n(C(=O)OCCCO[P@@](=O)([O-])O)c2c1 (3D coordinates assigned)
COCCCOCCCc1ccc2cc(C([NH-])=O)n(C(=O)OCCCO[P@@](=O)([O-])O)c2c1 (optimized conformer: 84.69357529682325 kcal/mol)

>  <smiles>  (35) 
COCCCOCCCc1ccc2cc(C(N)=O)n(C(=O)OCCCOP(=O)(O)O)c2c1

>  <score_type>  (35) 
oracle

>  <origin>  (35) 
adg

>  <m_score__min__energy>  (35) 
-7.6799999999999997

>  <m_primary>  (35) 
energy

$$$$
35:0
     RDKit          3D

 49 51  0  0  0  0  0  0  0  0999 V2000
  148.0990  150.0130  132.5980 C   0  0  0  0  0  0  0  0  0  0  0  0
  149.0950  151.0870  132.5130 N   0  0  0  0  0  0  0  0  0  0  0  0
  150.4990  150.7590  132.2380 C   0  0  0  0  0  0  0  0  0  0  0  0
  148.6710  152.4570  132.7030 C   0  0  0  0  0  0  0  0  0  0  0  0
  149.5260  153.4720  132.3980 N   0  0  0  0  0  0  0  0  0  0  0  0
  149.1750  154.7730  132.5570 C   0  0  0  0  0  0  0  0  0  0  0  0
  147.9060  155.1040  133.0500 C   0  0  0  0  0  0  0  0  0  0  0  0
  147.4980  156.5200  133.2350 C   0  0  0  0  0  0  0  0  0  0  0  0
  148.4740  157.5290  133.4480 C   0  0  0  0  0  0  0  0  0  0  0  0
  148.0960  158.8700  133.6260 C   0  0  0  0  0  0  0  0  0  0  0  0
  146.7410  159.1780  133.5780 C   0  0  0  0  0  0  0  0  0  0  0  0
  146.1020  160.3870  133.7320 C   0  0  0  0  0  0  0  0  0  0  0  0
  144.7460  160.1100  133.5870 C   0  0  0  0  0  0  0  0  0  0  0  0
  143.7010  161.1560  133.5820 C   0  0  0  0  0  0  0  0  0  0  0  0
  142.3340  160.8270  133.3550 N   0  0  0  0  0  0  0  0  0  0  0  0
  144.0290  162.3640  133.7280 O   0  0  0  0  0  0  0  0  0  0  0  0
  144.5500  158.7790  133.3630 N   0  0  0  0  0  0  0  0  0  0  0  0
  143.3040  158.0760  133.2300 C   0  0  0  0  0  0  0  0  0  0  0  0
  143.1000  157.3380  132.2280 O   0  0  0  0  0  0  0  0  0  0  0  0
  142.3100  158.2400  134.1990 O   0  0  0  0  0  0  0  0  0  0  0  0
  141.3430  157.2390  134.4920 C   0  0  0  0  0  0  0  0  0  0  0  0
  140.1720  157.3460  133.5170 C   0  0  0  0  0  0  0  0  0  0  0  0
  139.9990  158.7710  132.9890 C   0  0  0  0  0  0  0  0  0  0  0  0
  140.7980  158.9450  131.8520 O   0  0  0  0  0  0  0  0  0  0  0  0
  145.7830  158.2240  133.3560 C   0  0  0  0  0  0  0  0  0  0  0  0
  146.1290  156.8760  133.1990 C   0  0  0  0  0  0  0  0  0  0  0  0
  147.0360  154.0490  133.3590 C   0  0  0  0  0  0  0  0  0  0  0  0
  147.4270  152.7590  133.1830 N   0  0  0  0  0  0  0  0  0  0  0  0
  147.8910  149.7887  133.6546 H   0  0  0  0  0  0  0  0  0  0  0  0
  147.1711  150.3333  132.1016 H   0  0  0  0  0  0  0  0  0  0  0  0
  148.4882  149.1119  132.1016 H   0  0  0  0  0  0  0  0  0  0  0  0
  151.0389  150.6329  133.1880 H   0  0  0  0  0  0  0  0  0  0  0  0
  150.5508  149.8246  131.6599 H   0  0  0  0  0  0  0  0  0  0  0  0
  150.9594  151.5738  131.6599 H   0  0  0  0  0  0  0  0  0  0  0  0
  149.8882  155.5695  132.2983 H   0  0  0  0  0  0  0  0  0  0  0  0
  149.5395  157.2571  133.4739 H   0  0  0  0  0  0  0  0  0  0  0  0
  148.8492  159.6529  133.7982 H   0  0  0  0  0  0  0  0  0  0  0  0
  146.5651  161.3653  133.9282 H   0  0  0  0  0  0  0  0  0  0  0  0
  142.0680  159.9460  132.8600 H   0  0  0  0  0  0  0  0  0  0  0  0
  141.8063  156.2457  134.3980 H   0  0  0  0  0  0  0  0  0  0  0  0
  140.9738  157.3815  135.5184 H   0  0  0  0  0  0  0  0  0  0  0  0
  140.3537  156.6714  132.6674 H   0  0  0  0  0  0  0  0  0  0  0  0
  139.2537  157.0674  134.0547 H   0  0  0  0  0  0  0  0  0  0  0  0
  138.9443  158.9396  132.7259 H   0  0  0  0  0  0  0  0  0  0  0  0
  140.3014  159.4899  133.7647 H   0  0  0  0  0  0  0  0  0  0  0  0
  141.7320  159.0150  132.1810 H   0  0  0  0  0  0  0  0  0  0  0  0
  145.3531  156.1104  133.0509 H   0  0  0  0  0  0  0  0  0  0  0  0
  146.0298  154.2666  133.7466 H   0  0  0  0  0  0  0  0  0  0  0  0
  146.7430  152.0100  133.4250 H   0  0  0  0  0  0  0  0  0  0  0  0
  1  2  1  0
  2  3  1  0
  2  4  1  0
  4  5  2  0
  5  6  1  0
  6  7  2  0
  7  8  1  0
  8  9  2  0
  9 10  1  0
 10 11  2  0
 11 12  1  0
 12 13  2  0
 13 14  1  0
 14 15  1  0
 14 16  2  0
 13 17  1  0
 17 18  1  0
 18 19  2  0
 18 20  1  0
 20 21  1  0
 21 22  1  0
 22 23  1  0
 23 24  1  0
 17 25  1  0
 25 26  2  0
  7 27  1  0
 27 28  2  0
 28  4  1  0
 26  8  1  0
 25 11  1  0
  1 29  1  0
  1 30  1  0
  1 31  1  0
  3 32  1  0
  3 33  1  0
  3 34  1  0
  6 35  1  0
  9 36  1  0
 10 37  1  0
 12 38  1  0
 15 39  1  0
 21 40  1  0
 21 41  1  0
 22 42  1  0
 22 43  1  0
 23 44  1  0
 23 45  1  0
 24 46  1  0
 26 47  1  0
 27 48  1  0
 28 49  1  0
M  CHG  2  15  -1  28   1
M  END
>  <UniqueID>  (36) 
36

>  <SMILES>  (36) 
CN(C)c1ncc(-c2ccc3cc(C([NH-])=O)n(C(=O)OCCCO)c3c2)c[nH+]1

>  <Energy>  (36) 
86.99746270211176

>  <Genealogy>  (36) 
CN(C)c1ncc(-c2ccc3cc(C([NH-])=O)n(C(=O)OCCCO)c3c2)c[nH+]1 (protonated)
CN(C)c1ncc(-c2ccc3cc(C([NH-])=O)n(C(=O)OCCCO)c3c2)c[nH+]1 (3D coordinates assigned)
CN(C)c1ncc(-c2ccc3cc(C([NH-])=O)n(C(=O)OCCCO)c3c2)c[nH+]1 (optimized conformer: 86.99746270211176 kcal/mol)

>  <smiles>  (36) 
CN(C)c1ncc(-c2ccc3cc(C(N)=O)n(C(=O)OCCCO)c3c2)cn1

>  <score_type>  (36) 
oracle

>  <origin>  (36) 
adg

>  <m_score__min__energy>  (36) 
-7.5300000000000002

>  <m_primary>  (36) 
energy

$$$$
36:0
     RDKit          3D

 42 45  0  0  0  0  0  0  0  0999 V2000
  142.9280  161.1780  133.7320 N   0  0  0  0  0  0  0  0  0  0  0  0
  144.3280  161.4470  133.7400 C   0  0  0  0  0  0  0  0  0  0  0  0
  144.7280  162.6310  133.8910 O   0  0  0  0  0  0  0  0  0  0  0  0
  145.2910  160.3320  133.6120 C   0  0  0  0  0  0  0  0  0  0  0  0
  146.6510  160.5160  133.3720 C   0  0  0  0  0  0  0  0  0  0  0  0
  147.1700  159.2500  133.2280 C   0  0  0  0  0  0  0  0  0  0  0  0
  148.4770  158.8420  132.9820 C   0  0  0  0  0  0  0  0  0  0  0  0
  148.7340  157.4630  132.9050 C   0  0  0  0  0  0  0  0  0  0  0  0
  147.6880  156.5190  133.0820 C   0  0  0  0  0  0  0  0  0  0  0  0
  147.9490  155.0630  133.0150 C   0  0  0  0  0  0  0  0  0  0  0  0
  147.1100  154.0290  133.4020 C   0  0  0  0  0  0  0  0  0  0  0  0
  147.7450  152.8690  133.1680 N   0  0  0  0  0  0  0  0  0  0  0  0
  148.9330  153.2320  132.6530 C   0  0  0  0  0  0  0  0  0  0  0  0
  149.9390  152.3050  132.2540 N   0  0  0  0  0  0  0  0  0  0  0  0
  149.0640  154.5340  132.5580 O   0  0  0  0  0  0  0  0  0  0  0  0
  146.3740  156.9750  133.3310 C   0  0  0  0  0  0  0  0  0  0  0  0
  146.1450  158.3560  133.3840 C   0  0  0  0  0  0  0  0  0  0  0  0
  144.9840  159.0040  133.6250 N   0  0  0  0  0  0  0  0  0  0  0  0
  143.7100  158.3960  133.8890 C   0  0  0  0  0  0  0  0  0  0  0  0
  143.2200  158.4440  135.0490 O   0  0  0  0  0  0  0  0  0  0  0  0
  143.0400  157.7210  132.8620 O   0  0  0  0  0  0  0  0  0  0  0  0
  141.8830  156.9120  133.0640 C   0  0  0  0  0  0  0  0  0  0  0  0
  140.6120  157.7710  132.9740 C   0  0  0  0  0  0  0  0  0  0  0  0
  140.8180  159.1830  132.4700 C   0  0  0  0  0  0  0  0  0  0  0  0
  140.4580  159.7500  133.7080 O   0  0  0  0  0  0  0  0  0  0  0  0
  140.2580  158.4740  134.2650 C   0  0  0  0  0  0  0  0  0  0  0  0
  142.5650  160.2180  133.9270 H   0  0  0  0  0  0  0  0  0  0  0  0
  147.1943  161.4705  133.3107 H   0  0  0  0  0  0  0  0  0  0  0  0
  149.2849  159.5770  132.8517 H   0  0  0  0  0  0  0  0  0  0  0  0
  149.7567  157.1106  132.7054 H   0  0  0  0  0  0  0  0  0  0  0  0
  146.1012  154.1395  133.8263 H   0  0  0  0  0  0  0  0  0  0  0  0
  147.3920  151.9020  133.3460 H   0  0  0  0  0  0  0  0  0  0  0  0
  150.8550  152.6450  131.8840 H   0  0  0  0  0  0  0  0  0  0  0  0
  149.7660  151.2790  132.3310 H   0  0  0  0  0  0  0  0  0  0  0  0
  145.5497  156.2619  133.4798 H   0  0  0  0  0  0  0  0  0  0  0  0
  141.8478  156.1292  132.2920 H   0  0  0  0  0  0  0  0  0  0  0  0
  141.9359  156.4531  134.0623 H   0  0  0  0  0  0  0  0  0  0  0  0
  139.9722  157.0347  132.4656 H   0  0  0  0  0  0  0  0  0  0  0  0
  141.8563  159.3961  132.1759 H   0  0  0  0  0  0  0  0  0  0  0  0
  140.2874  159.5065  131.5624 H   0  0  0  0  0  0  0  0  0  0  0  0
  140.9467  158.2444  135.0914 H   0  0  0  0  0  0  0  0  0  0  0  0
  139.2938  158.2494  134.7445 H   0  0  0  0  0  0  0  0  0  0  0  0
  1  2  1  0
  2  3  2  0
  2  4  1  0
  4  5  2  0
  5  6  1  0
  6  7  2  0
  7  8  1  0
  8  9  2  0
  9 10  1  0
 10 11  2  0
 11 12  1  0
 12 13  2  0
 13 14  1  0
 13 15  1  0
  9 16  1  0
 16 17  2  0
 17 18  1  0
 18 19  1  0
 19 20  2  0
 19 21  1  0
 21 22  1  0
 22 23  1  0
 23 24  1  0
 24 25  1  0
 25 26  1  0
 18  4  1  0
 26 23  1  0
 17  6  1  0
 15 10  1  0
  1 27  1  0
  5 28  1  0
  7 29  1  0
  8 30  1  0
 11 31  1  0
 12 32  1  0
 14 33  1  0
 14 34  1  0
 16 35  1  0
 22 36  1  0
 22 37  1  0
 23 38  1  0
 24 39  1  0
 24 40  1  0
 26 41  1  0
 26 42  1  0
M  CHG  2   1  -1  12   1
M  END
>  <UniqueID>  (37) 
37

>  <SMILES>  (37) 
[NH-]C(=O)c1cc2ccc(-c3c[nH+]c(N)o3)cc2n1C(=O)OCC1COC1

>  <Energy>  (37) 
176.32048186584998

>  <Genealogy>  (37) 
[NH-]C(=O)c1cc2ccc(-c3c[nH+]c(N)o3)cc2n1C(=O)OCC1COC1 (protonated)
[NH-]C(=O)c1cc2ccc(-c3c[nH+]c(N)o3)cc2n1C(=O)OCC1COC1 (3D coordinates assigned)
[NH-]C(=O)c1cc2ccc(-c3c[nH+]c(N)o3)cc2n1C(=O)OCC1COC1 (nonaromatic ring conformer: 176.32048186584998 kcal/mol)

>  <smiles>  (37) 
NC(=O)c1cc2ccc(-c3cnc(N)o3)cc2n1C(=O)OCC1COC1

>  <score_type>  (37) 
oracle

>  <origin>  (37) 
adg

>  <m_score__min__energy>  (37) 
-7.7300000000000004

>  <m_primary>  (37) 
energy

$$$$
37:0
     RDKit          3D

 42 43  0  0  0  0  0  0  0  0999 V2000
  146.6420  154.3710  133.0080 C   0  0  0  0  0  0  0  0  0  0  0  0
  148.1120  154.3390  132.6250 C   0  0  0  0  0  0  0  0  0  0  0  0
  148.7730  155.4680  133.1830 O   0  0  0  0  0  0  0  0  0  0  0  0
  148.0900  156.6140  133.6070 C   0  0  0  0  0  0  0  0  0  0  0  0
  147.8580  156.7940  134.8360 O   0  0  0  0  0  0  0  0  0  0  0  0
  147.6840  157.6710  132.6090 C   0  0  0  0  0  0  0  0  0  0  0  0
  148.7820  158.6760  132.3880 C   0  0  0  0  0  0  0  0  0  0  0  0
  149.2290  159.3560  133.3540 O   0  0  0  0  0  0  0  0  0  0  0  0
  149.2640  158.8840  131.0930 O   0  0  0  0  0  0  0  0  0  0  0  0
  149.9010  160.0950  130.6960 C   0  0  0  0  0  0  0  0  0  0  0  0
  148.8950  161.2330  130.7320 C   0  0  0  0  0  0  0  0  0  0  0  0
  146.4090  158.3860  133.0130 C   0  0  0  0  0  0  0  0  0  0  0  0
  146.3510  159.8030  132.9790 C   0  0  0  0  0  0  0  0  0  0  0  0
  145.1850  160.4830  133.3660 C   0  0  0  0  0  0  0  0  0  0  0  0
  144.0920  159.7260  133.7740 C   0  0  0  0  0  0  0  0  0  0  0  0
  142.8530  160.1290  134.2180 C   0  0  0  0  0  0  0  0  0  0  0  0
  142.1600  158.9530  134.4970 C   0  0  0  0  0  0  0  0  0  0  0  0
  140.7450  158.9270  134.9210 C   0  0  0  0  0  0  0  0  0  0  0  0
  140.3910  158.9090  136.3020 N   0  0  0  0  0  0  0  0  0  0  0  0
  139.8340  158.8720  134.0520 O   0  0  0  0  0  0  0  0  0  0  0  0
  142.9430  157.8650  134.2450 N   0  0  0  0  0  0  0  0  0  0  0  0
  142.6330  156.4810  134.4750 C   0  0  0  0  0  0  0  0  0  0  0  0
  143.4040  155.7630  135.1650 O   0  0  0  0  0  0  0  0  0  0  0  0
  141.4940  155.9150  133.9170 O   0  0  0  0  0  0  0  0  0  0  0  0
  144.1210  158.3560  133.8000 C   0  0  0  0  0  0  0  0  0  0  0  0
  145.2770  157.6530  133.4450 C   0  0  0  0  0  0  0  0  0  0  0  0
  146.5486  154.3730  134.1040 H   0  0  0  0  0  0  0  0  0  0  0  0
  146.1761  155.2795  132.5986 H   0  0  0  0  0  0  0  0  0  0  0  0
  146.1370  153.4836  132.5986 H   0  0  0  0  0  0  0  0  0  0  0  0
  148.5714  153.4173  133.0115 H   0  0  0  0  0  0  0  0  0  0  0  0
  148.2056  154.3644  131.5293 H   0  0  0  0  0  0  0  0  0  0  0  0
  147.4930  157.1401  131.6647 H   0  0  0  0  0  0  0  0  0  0  0  0
  150.7294  160.3163  131.3850 H   0  0  0  0  0  0  0  0  0  0  0  0
  150.2928  159.9848  129.6741 H   0  0  0  0  0  0  0  0  0  0  0  0
  148.6685  161.4892  131.7775 H   0  0  0  0  0  0  0  0  0  0  0  0
  149.3170  162.1117  130.2223 H   0  0  0  0  0  0  0  0  0  0  0  0
  147.9712  160.9220  130.2223 H   0  0  0  0  0  0  0  0  0  0  0  0
  147.2292  160.3754  132.6458 H   0  0  0  0  0  0  0  0  0  0  0  0
  145.1375  161.5818  133.3470 H   0  0  0  0  0  0  0  0  0  0  0  0
  142.4876  161.1606  134.3290 H   0  0  0  0  0  0  0  0  0  0  0  0
  139.8320  159.6820  136.7230 H   0  0  0  0  0  0  0  0  0  0  0  0
  145.3061  156.5548  133.5002 H   0  0  0  0  0  0  0  0  0  0  0  0
  1  2  1  0
  2  3  1  0
  3  4  1  0
  4  5  2  0
  4  6  1  0
  6  7  1  0
  7  8  2  0
  7  9  1  0
  9 10  1  0
 10 11  1  0
  6 12  1  0
 12 13  2  0
 13 14  1  0
 14 15  2  0
 15 16  1  0
 16 17  2  0
 17 18  1  0
 18 19  1  0
 18 20  2  0
 17 21  1  0
 21 22  1  0
 22 23  2  0
 22 24  1  0
 21 25  1  0
 25 26  2  0
 26 12  1  0
 25 15  1  0
  1 27  1  0
  1 28  1  0
  1 29  1  0
  2 30  1  0
  2 31  1  0
  6 32  1  0
 10 33  1  0
 10 34  1  0
 11 35  1  0
 11 36  1  0
 11 37  1  0
 13 38  1  0
 14 39  1  0
 16 40  1  0
 19 41  1  0
 26 42  1  0
M  CHG  2  19  -1  24  -1
M  END
>  <UniqueID>  (38) 
38

>  <SMILES>  (38) 
CCOC(=O)C(C(=O)OCC)c1ccc2cc(C([NH-])=O)n(C(=O)[O-])c2c1

>  <Energy>  (38) 
72.06182265281139

>  <Genealogy>  (38) 
CCOC(=O)C(C(=O)OCC)c1ccc2cc(C([NH-])=O)n(C(=O)[O-])c2c1 (protonated)
CCOC(=O)C(C(=O)OCC)c1ccc2cc(C([NH-])=O)n(C(=O)[O-])c2c1 (3D coordinates assigned)
CCOC(=O)C(C(=O)OCC)c1ccc2cc(C([NH-])=O)n(C(=O)[O-])c2c1 (optimized conformer: 72.06182265281139 kcal/mol)

>  <smiles>  (38) 
CCOC(=O)C(C(=O)OCC)c1ccc2cc(C(N)=O)n(C(=O)O)c2c1

>  <score_type>  (38) 
oracle

>  <origin>  (38) 
adg

>  <m_score__min__energy>  (38) 
-6.6799999999999997

>  <m_primary>  (38) 
energy

$$$$
38:0
     RDKit          3D

 46 48  0  0  0  0  0  0  0  0999 V2000
  140.5960  156.9290  134.9350 H   0  0  0  0  0  0  0  0  0  0  0  0
  140.9830  155.9580  134.9260 N   0  0  0  0  0  0  0  0  0  0  0  0
  141.7150  155.4730  133.8020 C   0  0  0  0  0  0  0  0  0  0  0  0
  141.1500  154.7010  132.9830 O   0  0  0  0  0  0  0  0  0  0  0  0
  143.1350  155.8520  133.6320 C   0  0  0  0  0  0  0  0  0  0  0  0
  144.1000  155.0010  133.0960 C   0  0  0  0  0  0  0  0  0  0  0  0
  143.9660  153.9552  132.7824 H   0  0  0  0  0  0  0  0  0  0  0  0
  145.2560  155.7460  133.0420 C   0  0  0  0  0  0  0  0  0  0  0  0
  146.5320  155.3920  132.6170 C   0  0  0  0  0  0  0  0  0  0  0  0
  146.7381  154.3879  132.2178 H   0  0  0  0  0  0  0  0  0  0  0  0
  147.5500  156.3560  132.7130 C   0  0  0  0  0  0  0  0  0  0  0  0
  148.5699  156.1058  132.3855 H   0  0  0  0  0  0  0  0  0  0  0  0
  147.2750  157.6480  133.2280 C   0  0  0  0  0  0  0  0  0  0  0  0
  148.3840  158.6530  133.3800 C   0  0  0  0  0  0  0  0  0  0  0  0
  148.6236  158.7684  134.4474 H   0  0  0  0  0  0  0  0  0  0  0  0
  149.2657  158.2943  132.8288 H   0  0  0  0  0  0  0  0  0  0  0  0
  147.9640  160.0080  132.8100 C   0  0  0  0  0  0  0  0  0  0  0  0
  146.8950  159.9785  132.5525 H   0  0  0  0  0  0  0  0  0  0  0  0
  148.1466  160.7875  133.5643 H   0  0  0  0  0  0  0  0  0  0  0  0
  148.7400  160.3120  131.6130 N   0  0  0  0  0  0  0  0  0  0  0  0
  148.8140  161.5170  131.0670 N   0  0  0  0  0  0  0  0  0  0  0  0
  149.5670  161.4090  129.9560 C   0  0  0  0  0  0  0  0  0  0  0  0
  149.8228  162.2388  129.2807 H   0  0  0  0  0  0  0  0  0  0  0  0
  149.9700  160.0960  129.7930 C   0  0  0  0  0  0  0  0  0  0  0  0
  150.5919  159.6794  128.9870 H   0  0  0  0  0  0  0  0  0  0  0  0
  149.4200  159.4250  130.8640 C   0  0  0  0  0  0  0  0  0  0  0  0
  149.5198  158.3492  131.0708 H   0  0  0  0  0  0  0  0  0  0  0  0
  145.9690  157.9680  133.6590 C   0  0  0  0  0  0  0  0  0  0  0  0
  145.7408  158.9578  134.0813 H   0  0  0  0  0  0  0  0  0  0  0  0
  144.9720  156.9930  133.5350 C   0  0  0  0  0  0  0  0  0  0  0  0
  143.6750  157.0740  133.9010 N   0  0  0  0  0  0  0  0  0  0  0  0
  143.0380  158.2070  134.5070 C   0  0  0  0  0  0  0  0  0  0  0  0
  142.4200  158.0650  135.5980 O   0  0  0  0  0  0  0  0  0  0  0  0
  143.0840  159.4550  133.8760 O   0  0  0  0  0  0  0  0  0  0  0  0
  141.9360  160.1100  133.3440 C   0  0  0  0  0  0  0  0  0  0  0  0
  141.8895  161.1372  133.7346 H   0  0  0  0  0  0  0  0  0  0  0  0
  142.0090  160.1300  132.2466 H   0  0  0  0  0  0  0  0  0  0  0  0
  140.6890  159.3700  133.7410 C   0  0  0  0  0  0  0  0  0  0  0  0
  140.3022  159.4832  134.7645 H   0  0  0  0  0  0  0  0  0  0  0  0
  140.0360  158.5760  132.8810 C   0  0  0  0  0  0  0  0  0  0  0  0
  140.4466  158.4209  131.8724 H   0  0  0  0  0  0  0  0  0  0  0  0
  138.7550  157.8940  133.2670 C   0  0  0  0  0  0  0  0  0  0  0  0
  138.3988  158.3051  134.2231 H   0  0  0  0  0  0  0  0  0  0  0  0
  138.0062  158.0672  132.4801 H   0  0  0  0  0  0  0  0  0  0  0  0
  138.9610  156.5130  133.4050 O   0  0  0  0  0  0  0  0  0  0  0  0
  139.8930  156.3920  133.7220 H   0  0  0  0  0  0  0  0  0  0  0  0
  1  2  1  0
  2  3  1  0
  3  4  2  0
  3  5  1  0
  5  6  2  0
  6  7  1  0
  6  8  1  0
  8  9  2  0
  9 10  1  0
  9 11  1  0
 11 12  1  0
 11 13  2  0
 13 14  1  0
 14 15  1  0
 14 16  1  0
 14 17  1  0
 17 18  1  0
 17 19  1  0
 17 20  1  0
 20 21  1  0
 21 22  2  0
 22 23  1  0
 22 24  1  0
 24 25  1  0
 24 26  2  0
 26 27  1  0
 13 28  1  0
 28 29  1  0
 28 30  2  0
 30 31  1  0
 31 32  1  0
 32 33  2  0
 32 34  1  0
 34 35  1  0
 35 36  1  0
 35 37  1  0
 35 38  1  0
 38 39  1  0
 38 40  2  0
 40 41  1  0
 40 42  1  0
 42 43  1  0
 42 44  1  0
 42 45  1  0
 45 46  1  0
 31  5  1  0
 30  8  1  0
 26 20  1  0
M  CHG  1   2  -1
M  END
>  <UniqueID>  (39) 
39

>  <SMILES>  (39) 
[NH-]C(=O)c1cc2ccc(CCn3cccn3)cc2n1C(=O)OC/C=C/CO

>  <Energy>  (39) 
106.85313089599343

>  <Genealogy>  (39) 
[NH-]C(=O)c1cc2ccc(CCn3cccn3)cc2n1C(=O)OC/C=C/CO (protonated)
[NH-]C(=O)c1cc2ccc(CCn3cccn3)cc2n1C(=O)OC/C=C/CO (cis-trans isomerization)
[NH-]C(=O)c1cc2ccc(CCn3cccn3)cc2n1C(=O)OC/C=C/CO (3D coordinates assigned)
[NH-]C(=O)c1cc2ccc(CCn3cccn3)cc2n1C(=O)OC/C=C/CO (optimized conformer: 106.85313089599343 kcal/mol)

>  <smiles>  (39) 
NC(=O)c1cc2ccc(CCn3cccn3)cc2n1C(=O)OC/C=C/CO

>  <score_type>  (39) 
oracle

>  <origin>  (39) 
adg

>  <m_score__min__energy>  (39) 
-7.7599999999999998

>  <m_primary>  (39) 
energy

$$$$
39:0
     RDKit          3D

 45 46  0  0  0  0  0  0  0  0999 V2000
  149.9947  159.1752  132.1552 H   0  0  0  0  0  0  0  0  0  0  0  0
  149.0560  158.8420  132.6220 C   0  0  0  0  0  0  0  0  0  0  0  0
  149.0681  158.0269  133.3605 H   0  0  0  0  0  0  0  0  0  0  0  0
  147.8980  159.4290  132.2910 C   0  0  0  0  0  0  0  0  0  0  0  0
  147.8270  160.4860  131.3680 O   0  0  0  0  0  0  0  0  0  0  0  0
  148.9230  160.9720  130.6010 C   0  0  0  0  0  0  0  0  0  0  0  0
  149.7163  161.3238  131.2770 H   0  0  0  0  0  0  0  0  0  0  0  0
  149.3140  160.1629  129.9666 H   0  0  0  0  0  0  0  0  0  0  0  0
  148.5858  161.8050  129.9666 H   0  0  0  0  0  0  0  0  0  0  0  0
  146.6210  158.9670  132.9340 C   0  0  0  0  0  0  0  0  0  0  0  0
  146.3590  157.9725  132.5437 H   0  0  0  0  0  0  0  0  0  0  0  0
  146.7687  158.9218  134.0231 H   0  0  0  0  0  0  0  0  0  0  0  0
  145.5260  159.9040  132.6430 N   0  0  0  0  0  0  0  0  0  0  0  0
  145.8490  160.5280  131.8670 H   0  0  0  0  0  0  0  0  0  0  0  0
  145.2310  160.7540  133.8040 C   0  0  0  0  0  0  0  0  0  0  0  0
  145.9459  160.5308  134.6097 H   0  0  0  0  0  0  0  0  0  0  0  0
  145.3182  161.8102  133.5092 H   0  0  0  0  0  0  0  0  0  0  0  0
  143.8370  160.4930  134.2910 C   0  0  0  0  0  0  0  0  0  0  0  0
  143.5603  160.7653  135.3202 H   0  0  0  0  0  0  0  0  0  0  0  0
  142.9270  159.9330  133.4880 C   0  0  0  0  0  0  0  0  0  0  0  0
  143.2194  159.6698  132.4608 H   0  0  0  0  0  0  0  0  0  0  0  0
  141.5460  159.6540  133.9250 C   0  0  0  0  0  0  0  0  0  0  0  0
  140.9520  160.5000  134.6460 O   0  0  0  0  0  0  0  0  0  0  0  0
  140.8640  158.4470  133.5460 N   0  0  0  0  0  0  0  0  0  0  0  0
  139.7440  158.3380  132.7780 C   0  0  0  0  0  0  0  0  0  0  0  0
  138.9380  159.4760  132.2800 C   0  0  0  0  0  0  0  0  0  0  0  0
  137.7710  159.2810  131.8480 O   0  0  0  0  0  0  0  0  0  0  0  0
  139.4690  160.8030  132.2660 N   0  0  0  0  0  0  0  0  0  0  0  0
  138.9000  161.5890  131.8790 H   0  0  0  0  0  0  0  0  0  0  0  0
  140.4030  161.0240  132.6750 H   0  0  0  0  0  0  0  0  0  0  0  0
  139.4280  156.9940  132.5720 C   0  0  0  0  0  0  0  0  0  0  0  0
  138.5798  156.5885  132.0009 H   0  0  0  0  0  0  0  0  0  0  0  0
  140.4040  156.2830  133.2360 C   0  0  0  0  0  0  0  0  0  0  0  0
  140.5880  154.9080  133.3550 C   0  0  0  0  0  0  0  0  0  0  0  0
  139.8849  154.1991  132.8933 H   0  0  0  0  0  0  0  0  0  0  0  0
  141.7010  154.4550  134.0840 C   0  0  0  0  0  0  0  0  0  0  0  0
  141.8722  153.3746  134.2001 H   0  0  0  0  0  0  0  0  0  0  0  0
  142.6050  155.3750  134.6710 C   0  0  0  0  0  0  0  0  0  0  0  0
  143.7910  154.8680  135.4400 C   0  0  0  0  0  0  0  0  0  0  0  0
  143.5434  154.8485  136.5116 H   0  0  0  0  0  0  0  0  0  0  0  0
  144.8740  155.7030  135.2310 F   0  0  0  0  0  0  0  0  0  0  0  0
  144.1100  153.5920  135.0170 F   0  0  0  0  0  0  0  0  0  0  0  0
  142.3860  156.7630  134.5250 C   0  0  0  0  0  0  0  0  0  0  0  0
  143.0818  157.4935  134.9635 H   0  0  0  0  0  0  0  0  0  0  0  0
  141.2610  157.1840  133.8080 C   0  0  0  0  0  0  0  0  0  0  0  0
  1  2  1  0
  2  3  1  0
  2  4  2  0
  4  5  1  0
  5  6  1  0
  6  7  1  0
  6  8  1  0
  6  9  1  0
  4 10  1  0
 10 11  1  0
 10 12  1  0
 10 13  1  0
 13 14  1  0
 13 15  1  0
 15 16  1  0
 15 17  1  0
 15 18  1  0
 18 19  1  0
 18 20  2  0
 20 21  1  0
 20 22  1  0
 22 23  2  0
 22 24  1  0
 24 25  1  0
 25 26  1  0
 26 27  2  0
 26 28  1  0
 28 29  1  0
 28 30  1  0
 25 31  2  0
 31 32  1  0
 31 33  1  0
 33 34  2  0
 34 35  1  0
 34 36  1  0
 36 37  1  0
 36 38  2  0
 38 39  1  0
 39 40  1  0
 39 41  1  0
 39 42  1  0
 38 43  1  0
 43 44  1  0
 43 45  2  0
 45 24  1  0
 45 33  1  0
M  END
>  <UniqueID>  (40) 
40

>  <SMILES>  (40) 
C=C(CNC/C=C/C(=O)n1c(C(N)=O)cc2ccc(C(F)F)cc21)OC

>  <Energy>  (40) 
77.62141581245686

>  <Genealogy>  (40) 
C=C(CNC/C=C/C(=O)n1c(C(N)=O)cc2ccc(C(F)F)cc21)OC (cis-trans isomerization)
C=C(CNC/C=C/C(=O)n1c(C(N)=O)cc2ccc(C(F)F)cc21)OC (3D coordinates assigned)
C=C(CNC/C=C/C(=O)n1c(C(N)=O)cc2ccc(C(F)F)cc21)OC (optimized conformer: 77.62141581245686 kcal/mol)

>  <smiles>  (40) 
C=C(CNCC=CC(=O)n1c(C(N)=O)cc2ccc(C(F)F)cc21)OC

>  <score_type>  (40) 
oracle

>  <origin>  (40) 
adg

>  <m_score__min__energy>  (40) 
-7.46

>  <m_primary>  (40) 
energy

$$$$
40:0
     RDKit          3D

 36 38  0  0  0  0  0  0  0  0999 V2000
  138.7330  158.4250  131.5800 C   0  0  0  0  0  0  0  0  0  0  0  0
  139.2770  158.1480  132.7680 C   0  0  0  0  0  0  0  0  0  0  0  0
  139.2400  156.7680  133.3520 C   0  0  0  0  0  0  0  0  0  0  0  0
  140.2560  155.9480  132.8280 O   0  0  0  0  0  0  0  0  0  0  0  0
  140.2210  154.5480  132.9640 C   0  0  0  0  0  0  0  0  0  0  0  0
  139.0700  154.0550  132.9750 O   0  0  0  0  0  0  0  0  0  0  0  0
  141.4270  153.8200  133.0760 N   0  0  0  0  0  0  0  0  0  0  0  0
  142.6030  154.2840  133.5170 C   0  0  0  0  0  0  0  0  0  0  0  0
  143.0010  155.5910  133.9910 C   0  0  0  0  0  0  0  0  0  0  0  0
  142.9530  156.7180  133.0850 N   0  0  0  0  0  0  0  0  0  0  0  0
  143.3980  155.8680  135.1440 O   0  0  0  0  0  0  0  0  0  0  0  0
  143.5000  153.2100  133.4500 C   0  0  0  0  0  0  0  0  0  0  0  0
  142.8540  152.0990  132.9660 C   0  0  0  0  0  0  0  0  0  0  0  0
  143.2980  150.8130  132.7200 C   0  0  0  0  0  0  0  0  0  0  0  0
  142.4240  149.8850  132.2270 C   0  0  0  0  0  0  0  0  0  0  0  0
  141.1140  150.2390  131.9820 C   0  0  0  0  0  0  0  0  0  0  0  0
  140.1740  149.2630  131.4570 C   0  0  0  0  0  0  0  0  0  0  0  0
  138.9240  149.4710  131.0400 N   0  0  0  0  0  0  0  0  0  0  0  0
  138.4200  148.2900  130.6380 C   0  0  0  0  0  0  0  0  0  0  0  0
  139.3740  147.3320  130.8090 N   0  0  0  0  0  0  0  0  0  0  0  0
  140.4460  147.9540  131.3140 N   0  0  0  0  0  0  0  0  0  0  0  0
  140.6930  151.5470  132.2400 C   0  0  0  0  0  0  0  0  0  0  0  0
  141.5540  152.5030  132.7380 C   0  0  0  0  0  0  0  0  0  0  0  0
  138.7775  159.4487  131.1800 H   0  0  0  0  0  0  0  0  0  0  0  0
  138.2405  157.6294  131.0017 H   0  0  0  0  0  0  0  0  0  0  0  0
  139.7657  158.9550  133.3336 H   0  0  0  0  0  0  0  0  0  0  0  0
  139.3681  156.8399  134.4421 H   0  0  0  0  0  0  0  0  0  0  0  0
  138.2709  156.3155  133.0950 H   0  0  0  0  0  0  0  0  0  0  0  0
  143.6110  157.5090  133.1590 H   0  0  0  0  0  0  0  0  0  0  0  0
  142.2150  156.7230  132.3260 H   0  0  0  0  0  0  0  0  0  0  0  0
  144.5601  153.2505  133.7407 H   0  0  0  0  0  0  0  0  0  0  0  0
  144.3446  150.5393  132.9191 H   0  0  0  0  0  0  0  0  0  0  0  0
  142.7647  148.8585  132.0262 H   0  0  0  0  0  0  0  0  0  0  0  0
  137.4084  148.1255  130.2386 H   0  0  0  0  0  0  0  0  0  0  0  0
  141.3220  147.4560  131.5420 H   0  0  0  0  0  0  0  0  0  0  0  0
  139.6466  151.8214  132.0405 H   0  0  0  0  0  0  0  0  0  0  0  0
  1  2  2  0
  2  3  1  0
  3  4  1  0
  4  5  1  0
  5  6  2  0
  5  7  1  0
  7  8  1  0
  8  9  1  0
  9 10  1  0
  9 11  2  0
  8 12  2  0
 12 13  1  0
 13 14  2  0
 14 15  1  0
 15 16  2  0
 16 17  1  0
 17 18  2  0
 18 19  1  0
 19 20  2  0
 20 21  1  0
 16 22  1  0
 22 23  2  0
 23  7  1  0
 23 13  1  0
 21 17  1  0
  1 24  1  0
  1 25  1  0
  2 26  1  0
  3 27  1  0
  3 28  1  0
 10 29  1  0
 10 30  1  0
 12 31  1  0
 14 32  1  0
 15 33  1  0
 19 34  1  0
 21 35  1  0
 22 36  1  0
M  END
>  <smiles>  (41) 
C=CCOC(=O)n1c(C(N)=O)cc2ccc(-c3ncn[nH]3)cc21

>  <score_type>  (41) 
oracle

>  <origin>  (41) 
adg

>  <m_score__min__energy>  (41) 
-7.3099999999999996

>  <m_primary>  (41) 
energy

$$$$
41:0
     RDKit          3D

 47 48  0  0  0  0  0  0  0  0999 V2000
  142.2590  153.0690  137.3320 H   0  0  0  0  0  0  0  0  0  0  0  0
  141.5530  153.0460  138.1010 N   0  0  0  0  0  0  0  0  0  0  0  0
  140.7630  154.1930  138.4060 C   0  0  0  0  0  0  0  0  0  0  0  0
  139.8230  154.0900  139.2390 O   0  0  0  0  0  0  0  0  0  0  0  0
  140.9950  155.4810  137.7210 C   0  0  0  0  0  0  0  0  0  0  0  0
  140.6160  156.7120  138.2530 C   0  0  0  0  0  0  0  0  0  0  0  0
  140.1698  156.9023  139.2403 H   0  0  0  0  0  0  0  0  0  0  0  0
  140.9180  157.6390  137.2820 C   0  0  0  0  0  0  0  0  0  0  0  0
  140.7630  159.0230  137.2860 C   0  0  0  0  0  0  0  0  0  0  0  0
  140.3162  159.5413  138.1472 H   0  0  0  0  0  0  0  0  0  0  0  0
  141.1950  159.7360  136.1560 C   0  0  0  0  0  0  0  0  0  0  0  0
  141.0907  160.8307  136.1306 H   0  0  0  0  0  0  0  0  0  0  0  0
  141.7640  159.0600  135.0480 C   0  0  0  0  0  0  0  0  0  0  0  0
  142.2660  159.8410  133.8620 C   0  0  0  0  0  0  0  0  0  0  0  0
  142.3501  160.9000  134.1475 H   0  0  0  0  0  0  0  0  0  0  0  0
  141.5482  159.6980  133.0409 H   0  0  0  0  0  0  0  0  0  0  0  0
  143.6160  159.3610  133.3790 C   0  0  0  0  0  0  0  0  0  0  0  0
  143.7100  158.2410  132.8040 O   0  0  0  0  0  0  0  0  0  0  0  0
  144.7990  160.1700  133.5530 N   0  0  0  0  0  0  0  0  0  0  0  0
  146.0880  159.6650  133.0680 C   0  0  0  0  0  0  0  0  0  0  0  0
  146.7295  159.4137  133.9255 H   0  0  0  0  0  0  0  0  0  0  0  0
  145.9229  158.7650  132.4574 H   0  0  0  0  0  0  0  0  0  0  0  0
  146.5782  160.4376  132.4574 H   0  0  0  0  0  0  0  0  0  0  0  0
  144.7210  161.4850  134.2010 C   0  0  0  0  0  0  0  0  0  0  0  0
  144.7286  161.3565  135.2934 H   0  0  0  0  0  0  0  0  0  0  0  0
  145.5845  162.0951  133.8976 H   0  0  0  0  0  0  0  0  0  0  0  0
  143.7914  161.9887  133.8976 H   0  0  0  0  0  0  0  0  0  0  0  0
  141.9160  157.6550  135.0850 C   0  0  0  0  0  0  0  0  0  0  0  0
  142.3792  157.1154  134.2458 H   0  0  0  0  0  0  0  0  0  0  0  0
  141.4620  156.9680  136.2170 C   0  0  0  0  0  0  0  0  0  0  0  0
  141.5220  155.6420  136.4730 N   0  0  0  0  0  0  0  0  0  0  0  0
  142.1020  154.6410  135.6250 C   0  0  0  0  0  0  0  0  0  0  0  0
  143.2830  154.2460  135.8350 O   0  0  0  0  0  0  0  0  0  0  0  0
  141.3660  154.1280  134.5520 O   0  0  0  0  0  0  0  0  0  0  0  0
  141.1330  154.8480  133.3430 C   0  0  0  0  0  0  0  0  0  0  0  0
  141.9086  155.6191  133.2255 H   0  0  0  0  0  0  0  0  0  0  0  0
  141.1667  154.1450  132.4976 H   0  0  0  0  0  0  0  0  0  0  0  0
  139.7570  155.5180  133.3760 C   0  0  0  0  0  0  0  0  0  0  0  0
  139.0204  154.8476  132.9092 H   0  0  0  0  0  0  0  0  0  0  0  0
  139.4916  155.7163  134.4249 H   0  0  0  0  0  0  0  0  0  0  0  0
  139.7700  156.8240  132.6340 C   0  0  0  0  0  0  0  0  0  0  0  0
  140.4784  156.9647  131.8043 H   0  0  0  0  0  0  0  0  0  0  0  0
  138.9380  157.8200  132.9610 C   0  0  0  0  0  0  0  0  0  0  0  0
  138.2241  157.6661  133.7836 H   0  0  0  0  0  0  0  0  0  0  0  0
  138.9440  159.1130  132.2600 C   0  0  0  0  0  0  0  0  0  0  0  0
  139.6220  160.0840  132.6890 O   0  0  0  0  0  0  0  0  0  0  0  0
  138.1900  159.2650  131.1030 O   0  0  0  0  0  0  0  0  0  0  0  0
  1  2  1  0
  2  3  1  0
  3  4  2  0
  3  5  1  0
  5  6  2  0
  6  7  1  0
  6  8  1  0
  8  9  2  0
  9 10  1  0
  9 11  1  0
 11 12  1  0
 11 13  2  0
 13 14  1  0
 14 15  1  0
 14 16  1  0
 14 17  1  0
 17 18  2  0
 17 19  1  0
 19 20  1  0
 20 21  1  0
 20 22  1  0
 20 23  1  0
 19 24  1  0
 24 25  1  0
 24 26  1  0
 24 27  1  0
 13 28  1  0
 28 29  1  0
 28 30  2  0
 30 31  1  0
 31 32  1  0
 32 33  2  0
 32 34  1  0
 34 35  1  0
 35 36  1  0
 35 37  1  0
 35 38  1  0
 38 39  1  0
 38 40  1  0
 38 41  1  0
 41 42  1  0
 41 43  2  0
 43 44  1  0
 43 45  1  0
 45 46  2  0
 45 47  1  0
 31  5  1  0
 30  8  1  0
M  CHG  2   2  -1  47  -1
M  END
>  <UniqueID>  (42) 
41

>  <SMILES>  (42) 
CN(C)C(=O)Cc1ccc2cc(C([NH-])=O)n(C(=O)OCC/C=C/C(=O)[O-])c2c1

>  <Energy>  (42) 
76.8873937947777

>  <Genealogy>  (42) 
CN(C)C(=O)Cc1ccc2cc(C([NH-])=O)n(C(=O)OCC/C=C/C(=O)[O-])c2c1 (protonated)
CN(C)C(=O)Cc1ccc2cc(C([NH-])=O)n(C(=O)OCC/C=C/C(=O)[O-])c2c1 (cis-trans isomerization)
CN(C)C(=O)Cc1ccc2cc(C([NH-])=O)n(C(=O)OCC/C=C/C(=O)[O-])c2c1 (3D coordinates assigned)
CN(C)C(=O)Cc1ccc2cc(C([NH-])=O)n(C(=O)OCC/C=C/C(=O)[O-])c2c1 (optimized conformer: 76.8873937947777 kcal/mol)

>  <smiles>  (42) 
CN(C)C(=O)Cc1ccc2cc(C(N)=O)n(C(=O)OCC/C=C/C(=O)O)c2c1

>  <score_type>  (42) 
oracle

>  <origin>  (42) 
adg

>  <m_score__min__energy>  (42) 
-7.5599999999999996

>  <m_primary>  (42) 
energy

$$$$
42:0
     RDKit          3D

 47 49  0  0  0  0  0  0  0  0999 V2000
  144.0050  154.5390  132.3080 C   0  0  0  0  0  0  0  0  0  0  0  0
  143.9950  155.8500  132.5410 C   0  0  0  0  0  0  0  0  0  0  0  0
  143.5310  156.4320  133.8140 C   0  0  0  0  0  0  0  0  0  0  0  0
  143.3650  155.6700  134.8020 O   0  0  0  0  0  0  0  0  0  0  0  0
  143.2740  157.8390  133.9540 N   0  0  0  0  0  0  0  0  0  0  0  0
  142.1390  158.4360  134.4120 C   0  0  0  0  0  0  0  0  0  0  0  0
  140.8790  157.7470  134.7610 C   0  0  0  0  0  0  0  0  0  0  0  0
  140.5720  156.4630  134.2210 N   0  0  0  0  0  0  0  0  0  0  0  0
  140.0500  158.3090  135.5310 O   0  0  0  0  0  0  0  0  0  0  0  0
  142.3190  159.8150  134.5090 C   0  0  0  0  0  0  0  0  0  0  0  0
  143.6140  160.0440  134.1070 C   0  0  0  0  0  0  0  0  0  0  0  0
  144.3460  161.2270  134.0750 C   0  0  0  0  0  0  0  0  0  0  0  0
  145.7080  161.1480  133.7380 C   0  0  0  0  0  0  0  0  0  0  0  0
  146.3140  159.8950  133.4660 C   0  0  0  0  0  0  0  0  0  0  0  0
  147.8070  159.7990  133.2880 C   0  0  0  0  0  0  0  0  0  0  0  0
  148.2420  158.9370  132.1180 C   0  0  0  0  0  0  0  0  0  0  0  0
  148.2220  159.4430  130.9610 O   0  0  0  0  0  0  0  0  0  0  0  0
  148.7530  157.6020  132.2760 N   0  0  0  0  0  0  0  0  0  0  0  0
  148.2150  156.6090  133.1580 C   0  0  0  0  0  0  0  0  0  0  0  0
  148.0470  156.9150  134.5130 C   0  0  0  0  0  0  0  0  0  0  0  0
  147.4350  155.9990  135.3730 C   0  0  0  0  0  0  0  0  0  0  0  0
  147.0070  154.7470  134.8920 C   0  0  0  0  0  0  0  0  0  0  0  0
  146.3020  153.7980  135.7830 C   0  0  0  0  0  0  0  0  0  0  0  0
  145.0580  153.6200  135.6600 O   0  0  0  0  0  0  0  0  0  0  0  0
  147.0200  153.0850  136.7510 O   0  0  0  0  0  0  0  0  0  0  0  0
  148.3640  153.4010  137.0970 C   0  0  0  0  0  0  0  0  0  0  0  0
  147.2370  154.4200  133.5430 C   0  0  0  0  0  0  0  0  0  0  0  0
  147.8390  155.3440  132.6830 C   0  0  0  0  0  0  0  0  0  0  0  0
  145.5250  158.7240  133.4580 C   0  0  0  0  0  0  0  0  0  0  0  0
  144.1710  158.8330  133.7860 C   0  0  0  0  0  0  0  0  0  0  0  0
  144.3612  154.1550  131.3407 H   0  0  0  0  0  0  0  0  0  0  0  0
  143.6571  153.8400  133.0828 H   0  0  0  0  0  0  0  0  0  0  0  0
  144.3480  156.5280  131.7499 H   0  0  0  0  0  0  0  0  0  0  0  0
  141.2480  155.6710  134.3100 H   0  0  0  0  0  0  0  0  0  0  0  0
  141.5813  160.5619  134.8376 H   0  0  0  0  0  0  0  0  0  0  0  0
  143.8736  162.1932  134.3061 H   0  0  0  0  0  0  0  0  0  0  0  0
  146.3100  162.0671  133.6847 H   0  0  0  0  0  0  0  0  0  0  0  0
  148.2015  160.8141  133.1334 H   0  0  0  0  0  0  0  0  0  0  0  0
  148.2024  159.3204  134.1961 H   0  0  0  0  0  0  0  0  0  0  0  0
  148.3984  157.8815  134.9033 H   0  0  0  0  0  0  0  0  0  0  0  0
  147.2869  156.2577  136.4318 H   0  0  0  0  0  0  0  0  0  0  0  0
  148.4648  153.4247  138.1921 H   0  0  0  0  0  0  0  0  0  0  0  0
  149.0385  152.6370  136.6831 H   0  0  0  0  0  0  0  0  0  0  0  0
  148.6274  154.3856  136.6831 H   0  0  0  0  0  0  0  0  0  0  0  0
  146.9414  153.4312  133.1623 H   0  0  0  0  0  0  0  0  0  0  0  0
  148.0182  155.0779  131.6308 H   0  0  0  0  0  0  0  0  0  0  0  0
  145.9655  157.7497  133.1998 H   0  0  0  0  0  0  0  0  0  0  0  0
  1  2  2  0
  2  3  1  0
  3  4  2  0
  3  5  1  0
  5  6  1  0
  6  7  1  0
  7  8  1  0
  7  9  2  0
  6 10  2  0
 10 11  1  0
 11 12  2  0
 12 13  1  0
 13 14  2  0
 14 15  1  0
 15 16  1  0
 16 17  2  0
 16 18  1  0
 18 19  1  0
 19 20  2  0
 20 21  1  0
 21 22  2  0
 22 23  1  0
 23 24  2  0
 23 25  1  0
 25 26  1  0
 22 27  1  0
 27 28  2  0
 14 29  1  0
 29 30  2  0
 30  5  1  0
 30 11  1  0
 28 19  1  0
  1 31  1  0
  1 32  1  0
  2 33  1  0
  8 34  1  0
 10 35  1  0
 12 36  1  0
 13 37  1  0
 15 38  1  0
 15 39  1  0
 20 40  1  0
 21 41  1  0
 26 42  1  0
 26 43  1  0
 26 44  1  0
 27 45  1  0
 28 46  1  0
 29 47  1  0
M  CHG  2   8  -1  18  -1
M  END
>  <UniqueID>  (43) 
42

>  <SMILES>  (43) 
C=CC(=O)n1c(C([NH-])=O)cc2ccc(CC(=O)[N-]c3ccc(C(=O)OC)cc3)cc21

>  <Energy>  (43) 
88.58048034524052

>  <Genealogy>  (43) 
C=CC(=O)n1c(C([NH-])=O)cc2ccc(CC(=O)[N-]c3ccc(C(=O)OC)cc3)cc21 (protonated)
C=CC(=O)n1c(C([NH-])=O)cc2ccc(CC(=O)[N-]c3ccc(C(=O)OC)cc3)cc21 (3D coordinates assigned)
C=CC(=O)n1c(C([NH-])=O)cc2ccc(CC(=O)[N-]c3ccc(C(=O)OC)cc3)cc21 (optimized conformer: 88.58048034524052 kcal/mol)

>  <smiles>  (43) 
C=CC(=O)n1c(C(N)=O)cc2ccc(CC(=O)Nc3ccc(C(=O)OC)cc3)cc21

>  <score_type>  (43) 
oracle

>  <origin>  (43) 
adg

>  <m_score__min__energy>  (43) 
-8.3599999999999994

>  <m_primary>  (43) 
energy

$$$$
43:0
     RDKit          3D

 36 37  0  0  0  0  0  0  0  0999 V2000
  150.4940  149.8160  130.6950 C   0  0  0  0  0  0  0  0  0  0  0  0
  149.3940  150.4770  131.9310 S   0  0  0  0  0  0  0  0  0  0  0  0
  148.2570  151.1660  131.2340 O   0  0  0  0  0  0  0  0  0  0  0  0
  148.8380  149.3560  132.7680 O   0  0  0  0  0  0  0  0  0  0  0  0
  150.1810  151.6080  132.9180 O   0  0  0  0  0  0  0  0  0  0  0  0
  149.2300  152.5160  133.4240 C   0  0  0  0  0  0  0  0  0  0  0  0
  149.2450  153.7930  132.5830 C   0  0  0  0  0  0  0  0  0  0  0  0
  148.0280  154.6370  132.8590 C   0  0  0  0  0  0  0  0  0  0  0  0
  146.7520  154.0290  132.9640 C   0  0  0  0  0  0  0  0  0  0  0  0
  145.6070  154.8070  133.1980 C   0  0  0  0  0  0  0  0  0  0  0  0
  145.7630  156.1860  133.2990 C   0  0  0  0  0  0  0  0  0  0  0  0
  144.8300  157.1660  133.5460 C   0  0  0  0  0  0  0  0  0  0  0  0
  145.5440  158.3620  133.5420 C   0  0  0  0  0  0  0  0  0  0  0  0
  144.9110  159.6860  133.7090 C   0  0  0  0  0  0  0  0  0  0  0  0
  145.5400  160.8730  133.2280 N   0  0  0  0  0  0  0  0  0  0  0  0
  143.7680  159.7620  134.2350 O   0  0  0  0  0  0  0  0  0  0  0  0
  146.8680  158.1330  133.3150 N   0  0  0  0  0  0  0  0  0  0  0  0
  147.9380  159.0920  133.3380 C   0  0  0  0  0  0  0  0  0  0  0  0
  148.8350  159.0150  134.2220 O   0  0  0  0  0  0  0  0  0  0  0  0
  147.9880  160.1060  132.3840 O   0  0  0  0  0  0  0  0  0  0  0  0
  149.2280  160.0150  130.7400 I   0  0  0  0  0  0  0  0  0  0  0  0
  146.9870  156.7940  133.1660 C   0  0  0  0  0  0  0  0  0  0  0  0
  148.1480  156.0400  132.9600 C   0  0  0  0  0  0  0  0  0  0  0  0
  151.3370  149.3094  131.1876 H   0  0  0  0  0  0  0  0  0  0  0  0
  149.9494  149.0954  130.0672 H   0  0  0  0  0  0  0  0  0  0  0  0
  150.8747  150.6351  130.0672 H   0  0  0  0  0  0  0  0  0  0  0  0
  148.2296  152.0607  133.3811 H   0  0  0  0  0  0  0  0  0  0  0  0
  149.4772  152.7617  134.4673 H   0  0  0  0  0  0  0  0  0  0  0  0
  150.1474  154.3730  132.8262 H   0  0  0  0  0  0  0  0  0  0  0  0
  149.2419  153.5117  131.5196 H   0  0  0  0  0  0  0  0  0  0  0  0
  146.6580  152.9379  132.8613 H   0  0  0  0  0  0  0  0  0  0  0  0
  144.6160  154.3403  133.2985 H   0  0  0  0  0  0  0  0  0  0  0  0
  143.7506  157.0335  133.7114 H   0  0  0  0  0  0  0  0  0  0  0  0
  146.4000  160.8260  132.6370 H   0  0  0  0  0  0  0  0  0  0  0  0
  145.0970  161.8050  133.3900 H   0  0  0  0  0  0  0  0  0  0  0  0
  149.1301  156.5287  132.8788 H   0  0  0  0  0  0  0  0  0  0  0  0
  1  2  1  0
  2  3  2  0
  2  4  2  0
  2  5  1  0
  5  6  1  0
  6  7  1  0
  7  8  1  0
  8  9  2  0
  9 10  1  0
 10 11  2  0
 11 12  1  0
 12 13  2  0
 13 14  1  0
 14 15  1  0
 14 16  2  0
 13 17  1  0
 17 18  1  0
 18 19  2  0
 18 20  1  0
 20 21  1  0
 17 22  1  0
 22 23  2  0
 23  8  1  0
 22 11  1  0
  1 24  1  0
  1 25  1  0
  1 26  1  0
  6 27  1  0
  6 28  1  0
  7 29  1  0
  7 30  1  0
  9 31  1  0
 10 32  1  0
 12 33  1  0
 15 34  1  0
 15 35  1  0
 23 36  1  0
M  END
>  <UniqueID>  (44) 
43

>  <SMILES>  (44) 
CS(=O)(=O)OCCc1ccc2cc(C(N)=O)n(C(=O)OI)c2c1

>  <Energy>  (44) 
69.95413164825953

>  <Genealogy>  (44) 
CS(=O)(=O)OCCc1ccc2cc(C(N)=O)n(C(=O)OI)c2c1 (3D coordinates assigned)
CS(=O)(=O)OCCc1ccc2cc(C(N)=O)n(C(=O)OI)c2c1 (optimized conformer: 69.95413164825953 kcal/mol)

>  <smiles>  (44) 
CS(=O)(=O)OCCc1ccc2cc(C(N)=O)n(C(=O)OI)c2c1

>  <score_type>  (44) 
oracle

>  <origin>  (44) 
adg

>  <m_score__min__energy>  (44) 
-8.2100000000000009

>  <m_primary>  (44) 
energy

$$$$
44:0
     RDKit          3D

 49 51  0  0  0  0  0  0  0  0999 V2000
  140.9230  151.8330  132.8130 C   0  0  0  0  0  0  0  0  0  0  0  0
  141.8280  152.9070  133.4440 C   0  0  0  0  0  0  0  0  0  0  0  0
  141.7950  152.8090  134.9820 C   0  0  0  0  0  0  0  0  0  0  0  0
  143.2700  152.6860  132.9650 C   0  0  0  0  0  0  0  0  0  0  0  0
  141.4340  154.2170  133.0130 O   0  0  0  0  0  0  0  0  0  0  0  0
  140.1610  154.7920  133.1540 C   0  0  0  0  0  0  0  0  0  0  0  0
  139.1170  154.1060  132.9860 O   0  0  0  0  0  0  0  0  0  0  0  0
  140.0520  156.1780  133.4990 N   0  0  0  0  0  0  0  0  0  0  0  0
  139.4700  157.1700  132.6130 C   0  0  0  0  0  0  0  0  0  0  0  0
  139.5010  158.4810  133.3890 C   0  0  0  0  0  0  0  0  0  0  0  0
  140.4630  158.2630  134.5720 C   0  0  2  0  0  0  0  0  0  0  0  0
  139.9100  158.8070  135.7220 F   0  0  0  0  0  0  0  0  0  0  0  0
  141.8250  158.8910  134.2840 C   0  0  0  0  0  0  0  0  0  0  0  0
  141.9370  160.2870  134.0380 C   0  0  0  0  0  0  0  0  0  0  0  0
  143.1790  160.8690  133.7300 C   0  0  0  0  0  0  0  0  0  0  0  0
  144.2930  160.0390  133.6690 C   0  0  0  0  0  0  0  0  0  0  0  0
  145.6010  160.3330  133.3610 C   0  0  0  0  0  0  0  0  0  0  0  0
  146.2780  159.1180  133.4340 C   0  0  0  0  0  0  0  0  0  0  0  0
  147.7370  158.9890  133.2480 C   0  0  0  0  0  0  0  0  0  0  0  0
  148.5100  158.1090  134.0640 N   0  0  0  0  0  0  0  0  0  0  0  0
  148.3180  159.7090  132.3940 O   0  0  0  0  0  0  0  0  0  0  0  0
  145.4210  158.1100  133.7580 N   0  0  0  0  0  0  0  0  0  0  0  0
  145.6990  156.7010  133.8100 C   0  0  0  0  0  0  0  0  0  0  0  0
  146.4760  156.2390  134.6860 O   0  0  0  0  0  0  0  0  0  0  0  0
  144.9220  155.5920  132.6920 Cl  0  0  0  0  0  0  0  0  0  0  0  0
  144.2100  158.6920  133.9040 C   0  0  0  0  0  0  0  0  0  0  0  0
  142.9870  158.0810  134.1930 C   0  0  0  0  0  0  0  0  0  0  0  0
  140.5560  156.7380  134.7400 C   0  0  0  0  0  0  0  0  0  0  0  0
  140.4336  151.2522  133.6087 H   0  0  0  0  0  0  0  0  0  0  0  0
  140.1576  152.3185  132.1897 H   0  0  0  0  0  0  0  0  0  0  0  0
  141.5312  151.1610  132.1897 H   0  0  0  0  0  0  0  0  0  0  0  0
  142.1174  153.7663  135.4174 H   0  0  0  0  0  0  0  0  0  0  0  0
  140.7708  152.5821  135.3131 H   0  0  0  0  0  0  0  0  0  0  0  0
  142.4732  152.0087  135.3131 H   0  0  0  0  0  0  0  0  0  0  0  0
  143.9341  152.5842  133.8359 H   0  0  0  0  0  0  0  0  0  0  0  0
  143.3184  151.7700  132.3579 H   0  0  0  0  0  0  0  0  0  0  0  0
  143.5905  153.5455  132.3579 H   0  0  0  0  0  0  0  0  0  0  0  0
  140.0629  157.2558  131.6904 H   0  0  0  0  0  0  0  0  0  0  0  0
  138.4470  156.8982  132.3138 H   0  0  0  0  0  0  0  0  0  0  0  0
  139.8669  159.2951  132.7461 H   0  0  0  0  0  0  0  0  0  0  0  0
  138.4964  158.7617  133.7382 H   0  0  0  0  0  0  0  0  0  0  0  0
  141.0392  160.9204  134.0894 H   0  0  0  0  0  0  0  0  0  0  0  0
  143.2670  161.9494  133.5427 H   0  0  0  0  0  0  0  0  0  0  0  0
  146.0224  161.3177  133.1104 H   0  0  0  0  0  0  0  0  0  0  0  0
  148.0870  157.6210  134.8840 H   0  0  0  0  0  0  0  0  0  0  0  0
  149.5360  158.0030  133.8950 H   0  0  0  0  0  0  0  0  0  0  0  0
  142.9260  156.9935  134.3469 H   0  0  0  0  0  0  0  0  0  0  0  0
  141.6000  156.4325  134.9033 H   0  0  0  0  0  0  0  0  0  0  0  0
  139.9793  156.3879  135.6088 H   0  0  0  0  0  0  0  0  0  0  0  0
  1  2  1  0
  2  3  1  0
  2  4  1  0
  2  5  1  0
  5  6  1  0
  6  7  2  0
  6  8  1  0
  8  9  1  0
  9 10  1  0
 10 11  1  0
 11 12  1  1
 11 13  1  0
 13 14  2  0
 14 15  1  0
 15 16  2  0
 16 17  1  0
 17 18  2  0
 18 19  1  0
 19 20  1  0
 19 21  2  0
 18 22  1  0
 22 23  1  0
 23 24  2  0
 23 25  1  0
 22 26  1  0
 26 27  2  0
 11 28  1  0
 28  8  1  0
 27 13  1  0
 26 16  1  0
  1 29  1  0
  1 30  1  0
  1 31  1  0
  3 32  1  0
  3 33  1  0
  3 34  1  0
  4 35  1  0
  4 36  1  0
  4 37  1  0
  9 38  1  0
  9 39  1  0
 10 40  1  0
 10 41  1  0
 14 42  1  0
 15 43  1  0
 17 44  1  0
 20 45  1  0
 20 46  1  0
 27 47  1  0
 28 48  1  0
 28 49  1  0
M  END
>  <UniqueID>  (45) 
44

>  <SMILES>  (45) 
CC(C)(C)OC(=O)N1CC[C@](F)(c2ccc3cc(C(N)=O)n(C(=O)Cl)c3c2)C1

>  <Energy>  (45) 
87.78721615070617

>  <Genealogy>  (45) 
CC(C)(C)OC(=O)N1CC[C@](F)(c2ccc3cc(C(N)=O)n(C(=O)Cl)c3c2)C1 (chirality)
CC(C)(C)OC(=O)N1CC[C@](F)(c2ccc3cc(C(N)=O)n(C(=O)Cl)c3c2)C1 (3D coordinates assigned)
CC(C)(C)OC(=O)N1CC[C@](F)(c2ccc3cc(C(N)=O)n(C(=O)Cl)c3c2)C1 (nonaromatic ring conformer: 87.78721615070617 kcal/mol)

>  <smiles>  (45) 
CC(C)(C)OC(=O)N1CCC(F)(c2ccc3cc(C(N)=O)n(C(=O)Cl)c3c2)C1

>  <score_type>  (45) 
oracle

>  <origin>  (45) 
adg

>  <m_score__min__energy>  (45) 
-8.5800000000000001

>  <m_primary>  (45) 
energy

$$$$
45:0
     RDKit          3D

 41 42  0  0  0  0  0  0  0  0999 V2000
  149.2470  159.1780  132.0270 C   0  0  0  0  0  0  0  0  0  0  0  0
  148.0670  158.3950  132.3950 N   0  0  0  0  0  0  0  0  0  0  0  0
  148.4410  157.3090  133.3090 C   0  0  0  0  0  0  0  0  0  0  0  0
  147.5110  156.0980  133.1250 C   0  0  0  0  0  0  0  0  0  0  0  0
  146.2140  156.4520  132.5210 N   0  0  0  0  0  0  0  0  0  0  0  0
  145.1230  156.2690  133.4490 C   0  0  0  0  0  0  0  0  0  0  0  0
  144.8930  155.0010  134.0440 C   0  0  0  0  0  0  0  0  0  0  0  0
  143.8550  154.8210  134.9730 C   0  0  0  0  0  0  0  0  0  0  0  0
  143.0590  155.9190  135.2820 C   0  0  0  0  0  0  0  0  0  0  0  0
  142.0090  156.0300  136.1640 C   0  0  0  0  0  0  0  0  0  0  0  0
  141.5930  157.3570  136.0800 C   0  0  0  0  0  0  0  0  0  0  0  0
  140.4220  157.8890  136.8060 C   0  0  0  0  0  0  0  0  0  0  0  0
  140.3070  159.2800  137.0940 N   0  0  0  0  0  0  0  0  0  0  0  0
  139.4850  157.1130  137.1340 O   0  0  0  0  0  0  0  0  0  0  0  0
  142.3650  158.0430  135.1880 N   0  0  0  0  0  0  0  0  0  0  0  0
  142.3170  159.4430  134.8770 C   0  0  0  0  0  0  0  0  0  0  0  0
  141.2110  159.9950  134.6240 O   0  0  0  0  0  0  0  0  0  0  0  0
  143.4980  160.1960  134.8810 O   0  0  0  0  0  0  0  0  0  0  0  0
  144.0180  160.8430  133.7230 C   0  0  0  0  0  0  0  0  0  0  0  0
  145.3480  160.2630  133.3560 C   0  0  0  0  0  0  0  0  0  0  0  0
  146.3700  160.5520  134.0320 O   0  0  0  0  0  0  0  0  0  0  0  0
  145.4540  159.3810  132.2880 O   0  0  0  0  0  0  0  0  0  0  0  0
  143.2540  157.1470  134.7060 C   0  0  0  0  0  0  0  0  0  0  0  0
  144.2920  157.3620  133.7920 C   0  0  0  0  0  0  0  0  0  0  0  0
  149.7600  159.5184  132.9385 H   0  0  0  0  0  0  0  0  0  0  0  0
  149.9306  158.5537  131.4329 H   0  0  0  0  0  0  0  0  0  0  0  0
  148.9374  160.0505  131.4329 H   0  0  0  0  0  0  0  0  0  0  0  0
  147.4100  159.0340  132.9010 H   0  0  0  0  0  0  0  0  0  0  0  0
  149.4771  157.0033  133.1015 H   0  0  0  0  0  0  0  0  0  0  0  0
  148.3494  157.6708  134.3438 H   0  0  0  0  0  0  0  0  0  0  0  0
  148.0126  155.3670  132.4738 H   0  0  0  0  0  0  0  0  0  0  0  0
  147.3062  155.6867  134.1244 H   0  0  0  0  0  0  0  0  0  0  0  0
  146.0550  155.8960  131.6490 H   0  0  0  0  0  0  0  0  0  0  0  0
  146.2450  157.4590  132.2360 H   0  0  0  0  0  0  0  0  0  0  0  0
  145.5351  154.1495  133.7745 H   0  0  0  0  0  0  0  0  0  0  0  0
  143.6771  153.8419  135.4417 H   0  0  0  0  0  0  0  0  0  0  0  0
  141.5872  155.2385  136.8008 H   0  0  0  0  0  0  0  0  0  0  0  0
  139.9010  159.9420  136.3960 H   0  0  0  0  0  0  0  0  0  0  0  0
  143.3185  160.7048  132.8854 H   0  0  0  0  0  0  0  0  0  0  0  0
  144.1424  161.9146  133.9378 H   0  0  0  0  0  0  0  0  0  0  0  0
  144.4578  158.3561  133.3512 H   0  0  0  0  0  0  0  0  0  0  0  0
  1  2  1  0
  2  3  1  0
  3  4  1  0
  4  5  1  0
  5  6  1  0
  6  7  2  0
  7  8  1  0
  8  9  2  0
  9 10  1  0
 10 11  2  0
 11 12  1  0
 12 13  1  0
 12 14  2  0
 11 15  1  0
 15 16  1  0
 16 17  2  0
 16 18  1  0
 18 19  1  0
 19 20  1  0
 20 21  2  0
 20 22  1  0
 15 23  1  0
 23 24  2  0
 24  6  1  0
 23  9  1  0
  1 25  1  0
  1 26  1  0
  1 27  1  0
  2 28  1  0
  3 29  1  0
  3 30  1  0
  4 31  1  0
  4 32  1  0
  5 33  1  0
  5 34  1  0
  7 35  1  0
  8 36  1  0
 10 37  1  0
 13 38  1  0
 19 39  1  0
 19 40  1  0
 24 41  1  0
M  CHG  3   5   1  13  -1  22  -1
M  END
>  <UniqueID>  (46) 
45

>  <SMILES>  (46) 
CNCC[NH2+]c1ccc2cc(C([NH-])=O)n(C(=O)OCC(=O)[O-])c2c1

>  <Energy>  (46) 
75.33934890673049

>  <Genealogy>  (46) 
CNCC[NH2+]c1ccc2cc(C([NH-])=O)n(C(=O)OCC(=O)[O-])c2c1 (protonated)
CNCC[NH2+]c1ccc2cc(C([NH-])=O)n(C(=O)OCC(=O)[O-])c2c1 (3D coordinates assigned)
CNCC[NH2+]c1ccc2cc(C([NH-])=O)n(C(=O)OCC(=O)[O-])c2c1 (optimized conformer: 75.33934890673049 kcal/mol)

>  <smiles>  (46) 
CNCCNc1ccc2cc(C(N)=O)n(C(=O)OCC(=O)O)c2c1

>  <score_type>  (46) 
oracle

>  <origin>  (46) 
adg

>  <m_score__min__energy>  (46) 
-5.8200000000000003

>  <m_primary>  (46) 
energy

$$$$
46:0
     RDKit          3D

 36 37  0  0  0  0  0  0  0  0999 V2000
  143.0480  155.6900  134.4260 C   0  0  0  0  0  0  0  0  0  0  0  0
  142.6190  156.3770  133.3670 C   0  0  0  0  0  0  0  0  0  0  0  0
  142.9410  157.7240  133.1450 O   0  0  0  0  0  0  0  0  0  0  0  0
  143.5250  158.5870  134.0830 C   0  0  0  0  0  0  0  0  0  0  0  0
  142.9140  158.8920  135.1430 O   0  0  0  0  0  0  0  0  0  0  0  0
  144.8420  159.1050  133.8420 N   0  0  0  0  0  0  0  0  0  0  0  0
  145.2170  160.4040  133.6620 C   0  0  0  0  0  0  0  0  0  0  0  0
  144.3470  161.5890  133.8160 C   0  0  0  0  0  0  0  0  0  0  0  0
  142.9340  161.4510  133.6910 N   0  0  0  0  0  0  0  0  0  0  0  0
  144.8390  162.7290  134.0220 O   0  0  0  0  0  0  0  0  0  0  0  0
  146.5800  160.4830  133.3850 C   0  0  0  0  0  0  0  0  0  0  0  0
  147.0330  159.1840  133.4070 C   0  0  0  0  0  0  0  0  0  0  0  0
  148.3070  158.6770  133.1830 C   0  0  0  0  0  0  0  0  0  0  0  0
  148.4830  157.2840  133.2400 C   0  0  0  0  0  0  0  0  0  0  0  0
  147.3880  156.4150  133.5110 C   0  0  0  0  0  0  0  0  0  0  0  0
  147.5790  154.9780  133.5510 N   0  0  0  0  0  0  0  0  0  0  0  0
  148.5660  154.3370  132.6730 C   0  0  0  0  0  0  0  0  0  0  0  0
  146.7760  154.1260  134.4430 C   0  0  0  0  0  0  0  0  0  0  0  0
  147.3200  154.1520  135.8380 C   0  0  0  0  0  0  0  0  0  0  0  0
  148.0550  155.1010  136.2160 O   0  0  0  0  0  0  0  0  0  0  0  0
  146.9860  153.1430  136.7340 O   0  0  0  0  0  0  0  0  0  0  0  0
  146.1070  156.9820  133.7290 C   0  0  0  0  0  0  0  0  0  0  0  0
  145.9670  158.3730  133.6850 C   0  0  0  0  0  0  0  0  0  0  0  0
  142.7637  154.6345  134.5489 H   0  0  0  0  0  0  0  0  0  0  0  0
  143.6863  156.1787  135.1769 H   0  0  0  0  0  0  0  0  0  0  0  0
  141.9820  155.8628  132.6322 H   0  0  0  0  0  0  0  0  0  0  0  0
  142.4730  160.5190  133.7960 H   0  0  0  0  0  0  0  0  0  0  0  0
  147.1691  161.3913  133.1900 H   0  0  0  0  0  0  0  0  0  0  0  0
  149.1529  159.3463  132.9674 H   0  0  0  0  0  0  0  0  0  0  0  0
  149.4832  156.8578  133.0725 H   0  0  0  0  0  0  0  0  0  0  0  0
  149.3326  153.8392  133.2850 H   0  0  0  0  0  0  0  0  0  0  0  0
  148.0632  153.5926  132.0381 H   0  0  0  0  0  0  0  0  0  0  0  0
  149.0416  155.0991  132.0381 H   0  0  0  0  0  0  0  0  0  0  0  0
  145.7389  154.4924  134.4538 H   0  0  0  0  0  0  0  0  0  0  0  0
  146.8138  153.0919  134.0698 H   0  0  0  0  0  0  0  0  0  0  0  0
  145.2376  156.3386  133.9294 H   0  0  0  0  0  0  0  0  0  0  0  0
  1  2  2  0
  2  3  1  0
  3  4  1  0
  4  5  2  0
  4  6  1  0
  6  7  1  0
  7  8  1  0
  8  9  1  0
  8 10  2  0
  7 11  2  0
 11 12  1  0
 12 13  2  0
 13 14  1  0
 14 15  2  0
 15 16  1  0
 16 17  1  0
 16 18  1  0
 18 19  1  0
 19 20  2  0
 19 21  1  0
 15 22  1  0
 22 23  2  0
 23  6  1  0
 23 12  1  0
  1 24  1  0
  1 25  1  0
  2 26  1  0
  9 27  1  0
 11 28  1  0
 13 29  1  0
 14 30  1  0
 17 31  1  0
 17 32  1  0
 17 33  1  0
 18 34  1  0
 18 35  1  0
 22 36  1  0
M  CHG  2   9  -1  21  -1
M  END
>  <UniqueID>  (47) 
46

>  <SMILES>  (47) 
C=COC(=O)n1c(C([NH-])=O)cc2ccc(N(C)CC(=O)[O-])cc21

>  <Energy>  (47) 
79.40752485067479

>  <Genealogy>  (47) 
C=COC(=O)n1c(C([NH-])=O)cc2ccc(N(C)CC(=O)[O-])cc21 (protonated)
C=COC(=O)n1c(C([NH-])=O)cc2ccc(N(C)CC(=O)[O-])cc21 (3D coordinates assigned)
C=COC(=O)n1c(C([NH-])=O)cc2ccc(N(C)CC(=O)[O-])cc21 (optimized conformer: 79.40752485067479 kcal/mol)

>  <smiles>  (47) 
C=COC(=O)n1c(C(N)=O)cc2ccc(N(C)CC(=O)O)cc21

>  <score_type>  (47) 
oracle

>  <origin>  (47) 
adg

>  <m_score__min__energy>  (47) 
-6.25

>  <m_primary>  (47) 
energy

$$$$
47:0
     RDKit          3D

 36 38  0  0  0  0  0  0  0  0999 V2000
  139.5230  158.1450  136.4880 N   0  0  0  0  0  0  0  0  0  0  0  0
  139.9150  158.2110  135.1190 C   0  0  0  0  0  0  0  0  0  0  0  0
  139.0880  157.8880  134.2260 O   0  0  0  0  0  0  0  0  0  0  0  0
  141.2910  158.5940  134.7410 C   0  0  0  0  0  0  0  0  0  0  0  0
  141.6830  159.9120  134.5200 C   0  0  0  0  0  0  0  0  0  0  0  0
  142.9910  159.8370  134.0990 C   0  0  0  0  0  0  0  0  0  0  0  0
  143.8760  160.8510  133.7420 C   0  0  0  0  0  0  0  0  0  0  0  0
  145.1800  160.4850  133.3670 C   0  0  0  0  0  0  0  0  0  0  0  0
  145.5780  159.1250  133.3740 C   0  0  0  0  0  0  0  0  0  0  0  0
  146.9660  158.7450  132.9440 C   0  0  0  0  0  0  0  0  0  0  0  0
  147.1690  157.2760  133.1260 C   0  0  0  0  0  0  0  0  0  0  0  0
  147.7970  156.4840  132.2340 N   0  0  0  0  0  0  0  0  0  0  0  0
  147.7920  155.2630  132.7930 C   0  0  0  0  0  0  0  0  0  0  0  0
  147.1630  155.3650  134.0170 C   0  0  0  0  0  0  0  0  0  0  0  0
  146.9040  154.2520  134.9810 C   0  0  0  0  0  0  0  0  0  0  0  0
  145.7640  154.5860  135.8280 N   0  0  0  0  0  0  0  0  0  0  0  0
  146.7900  156.6100  134.1960 O   0  0  0  0  0  0  0  0  0  0  0  0
  144.6490  158.1230  133.7320 C   0  0  0  0  0  0  0  0  0  0  0  0
  143.3510  158.5140  134.0820 C   0  0  0  0  0  0  0  0  0  0  0  0
  142.3170  157.7370  134.4750 N   0  0  0  0  0  0  0  0  0  0  0  0
  142.3440  156.3120  134.6670 C   0  0  0  0  0  0  0  0  0  0  0  0
  141.3530  155.6080  134.3420 O   0  0  0  0  0  0  0  0  0  0  0  0
  143.4760  155.6970  135.1860 O   0  0  0  0  0  0  0  0  0  0  0  0
  139.4770  159.0070  137.0760 H   0  0  0  0  0  0  0  0  0  0  0  0
  141.0762  160.8197  134.6536 H   0  0  0  0  0  0  0  0  0  0  0  0
  143.5641  161.9058  133.7532 H   0  0  0  0  0  0  0  0  0  0  0  0
  145.8984  161.2614  133.0653 H   0  0  0  0  0  0  0  0  0  0  0  0
  147.1034  159.0038  131.8837 H   0  0  0  0  0  0  0  0  0  0  0  0
  147.6980  159.2911  133.5572 H   0  0  0  0  0  0  0  0  0  0  0  0
  148.2030  156.7570  131.3110 H   0  0  0  0  0  0  0  0  0  0  0  0
  148.2134  154.3466  132.3542 H   0  0  0  0  0  0  0  0  0  0  0  0
  146.6864  153.3292  134.4232 H   0  0  0  0  0  0  0  0  0  0  0  0
  147.7932  154.1036  135.6113 H   0  0  0  0  0  0  0  0  0  0  0  0
  144.9280  154.0890  135.4430 H   0  0  0  0  0  0  0  0  0  0  0  0
  145.5720  155.6100  135.7280 H   0  0  0  0  0  0  0  0  0  0  0  0
  144.9382  157.0617  133.7357 H   0  0  0  0  0  0  0  0  0  0  0  0
  1  2  1  0
  2  3  2  0
  2  4  1  0
  4  5  2  0
  5  6  1  0
  6  7  2  0
  7  8  1  0
  8  9  2  0
  9 10  1  0
 10 11  1  0
 11 12  2  0
 12 13  1  0
 13 14  2  0
 14 15  1  0
 15 16  1  0
 14 17  1  0
  9 18  1  0
 18 19  2  0
 19 20  1  0
 20 21  1  0
 21 22  2  0
 21 23  1  0
 20  4  1  0
 19  6  1  0
 17 11  1  0
  1 24  1  0
  5 25  1  0
  7 26  1  0
  8 27  1  0
 10 28  1  0
 10 29  1  0
 12 30  1  0
 13 31  1  0
 15 32  1  0
 15 33  1  0
 16 34  1  0
 16 35  1  0
 18 36  1  0
M  CHG  3   1  -1  12   1  23  -1
M  END
>  <UniqueID>  (48) 
47

>  <SMILES>  (48) 
[NH-]C(=O)c1cc2ccc(Cc3[nH+]cc(CN)o3)cc2n1C(=O)[O-]

>  <Energy>  (48) 
104.19384655201993

>  <Genealogy>  (48) 
[NH-]C(=O)c1cc2ccc(Cc3[nH+]cc(CN)o3)cc2n1C(=O)[O-] (protonated)
[NH-]C(=O)c1cc2ccc(Cc3[nH+]cc(CN)o3)cc2n1C(=O)[O-] (3D coordinates assigned)
[NH-]C(=O)c1cc2ccc(Cc3[nH+]cc(CN)o3)cc2n1C(=O)[O-] (optimized conformer: 104.19384655201993 kcal/mol)

>  <smiles>  (48) 
NCc1cnc(Cc2ccc3cc(C(N)=O)n(C(=O)O)c3c2)o1

>  <score_type>  (48) 
oracle

>  <origin>  (48) 
adg

>  <m_score__min__energy>  (48) 
-6.7300000000000004

>  <m_primary>  (48) 
energy

$$$$
48:0
     RDKit          3D

 45 47  0  0  0  0  0  0  0  0999 V2000
  149.4020  158.7500  133.1650 N   0  0  0  0  0  0  0  0  0  0  0  0
  148.2510  159.5220  132.8200 C   0  0  0  0  0  0  0  0  0  0  0  0
  148.4030  160.6730  132.3320 O   0  0  0  0  0  0  0  0  0  0  0  0
  146.8880  159.0230  133.0910 C   0  0  0  0  0  0  0  0  0  0  0  0
  145.7430  159.7940  132.9130 C   0  0  0  0  0  0  0  0  0  0  0  0
  144.7020  158.9990  133.3350 C   0  0  0  0  0  0  0  0  0  0  0  0
  143.3360  159.2630  133.3730 C   0  0  0  0  0  0  0  0  0  0  0  0
  142.4810  158.2460  133.8290 C   0  0  0  0  0  0  0  0  0  0  0  0
  143.0010  156.9890  134.2240 C   0  0  0  0  0  0  0  0  0  0  0  0
  142.0780  155.9150  134.7350 C   0  0  0  0  0  0  0  0  0  0  0  0
  142.1870  155.7980  136.2320 C   0  0  0  0  0  0  0  0  0  0  0  0
  143.2460  155.4330  136.7230 O   0  0  0  0  0  0  0  0  0  0  0  0
  140.9930  156.0980  137.1330 C   0  0  1  0  0  0  0  0  0  0  0  0
  140.8360  155.0020  138.1820 C   0  0  0  0  0  0  0  0  0  0  0  0
  141.5940  155.5160  139.3980 C   0  0  2  0  0  0  0  0  0  0  0  0
  140.8420  155.3370  140.5490 F   0  0  0  0  0  0  0  0  0  0  0  0
  141.8430  157.0020  139.1360 C   0  0  0  0  0  0  0  0  0  0  0  0
  141.1290  157.3490  137.9010 N   0  0  0  0  0  0  0  0  0  0  0  0
  141.7210  158.4800  137.1510 C   0  0  0  0  0  0  0  0  0  0  0  0
  140.6380  159.4160  136.6100 C   0  0  0  0  0  0  0  0  0  0  0  0
  141.1150  160.1140  135.5140 F   0  0  0  0  0  0  0  0  0  0  0  0
  139.5160  158.6970  136.2400 F   0  0  0  0  0  0  0  0  0  0  0  0
  140.2780  160.3180  137.5970 F   0  0  0  0  0  0  0  0  0  0  0  0
  144.3930  156.7590  134.1760 C   0  0  0  0  0  0  0  0  0  0  0  0
  145.2260  157.7960  133.7360 C   0  0  0  0  0  0  0  0  0  0  0  0
  146.5710  157.7940  133.5900 N   0  0  0  0  0  0  0  0  0  0  0  0
  147.4640  156.6850  133.7980 C   0  0  0  0  0  0  0  0  0  0  0  0
  147.5180  156.1100  134.9160 O   0  0  0  0  0  0  0  0  0  0  0  0
  148.2700  156.2280  132.7610 O   0  0  0  0  0  0  0  0  0  0  0  0
  149.3120  157.8710  133.7210 H   0  0  0  0  0  0  0  0  0  0  0  0
  150.3570  159.1160  132.9570 H   0  0  0  0  0  0  0  0  0  0  0  0
  145.6830  160.8194  132.5193 H   0  0  0  0  0  0  0  0  0  0  0  0
  142.9381  160.2382  133.0557 H   0  0  0  0  0  0  0  0  0  0  0  0
  141.3973  158.4275  133.8798 H   0  0  0  0  0  0  0  0  0  0  0  0
  141.0422  156.1690  134.4658 H   0  0  0  0  0  0  0  0  0  0  0  0
  142.3620  154.9544  134.2804 H   0  0  0  0  0  0  0  0  0  0  0  0
  140.1363  156.1720  136.4470 H   0  0  0  0  0  0  0  0  0  0  0  0
  139.7743  154.8468  138.4243 H   0  0  0  0  0  0  0  0  0  0  0  0
  141.2216  154.0333  137.8313 H   0  0  0  0  0  0  0  0  0  0  0  0
  142.5384  154.9726  139.5486 H   0  0  0  0  0  0  0  0  0  0  0  0
  141.4599  157.6022  139.9745 H   0  0  0  0  0  0  0  0  0  0  0  0
  142.9192  157.2067  139.0363 H   0  0  0  0  0  0  0  0  0  0  0  0
  142.3827  159.0476  137.8218 H   0  0  0  0  0  0  0  0  0  0  0  0
  142.2861  158.0738  136.2991 H   0  0  0  0  0  0  0  0  0  0  0  0
  144.8138  155.7883  134.4770 H   0  0  0  0  0  0  0  0  0  0  0  0
  1  2  1  0
  2  3  2  0
  2  4  1  0
  4  5  2  0
  5  6  1  0
  6  7  2  0
  7  8  1  0
  8  9  2  0
  9 10  1  0
 10 11  1  0
 11 12  2  0
 11 13  1  0
 13 14  1  0
 14 15  1  0
 15 16  1  0
 15 17  1  0
 17 18  1  0
 18 19  1  0
 19 20  1  0
 20 21  1  0
 20 22  1  0
 20 23  1  0
  9 24  1  0
 24 25  2  0
 25 26  1  0
 26 27  1  0
 27 28  2  0
 27 29  1  0
 26  4  1  0
 25  6  1  0
 18 13  1  0
  1 30  1  0
  1 31  1  0
  5 32  1  0
  7 33  1  0
  8 34  1  0
 10 35  1  0
 10 36  1  0
 13 37  1  6
 14 38  1  0
 14 39  1  0
 15 40  1  1
 17 41  1  0
 17 42  1  0
 19 43  1  0
 19 44  1  0
 24 45  1  0
M  CHG  1  29  -1
M  END
>  <UniqueID>  (49) 
48

>  <SMILES>  (49) 
NC(=O)c1cc2ccc(CC(=O)[C@H]3C[C@H](F)CN3CC(F)(F)F)cc2n1C(=O)[O-]

>  <Energy>  (49) 
88.09674685734466

>  <Genealogy>  (49) 
NC(=O)c1cc2ccc(CC(=O)C3CC(F)CN3CC(F)(F)F)cc2n1C(=O)[O-] (protonated)
NC(=O)c1cc2ccc(CC(=O)[C@H]3C[C@H](F)CN3CC(F)(F)F)cc2n1C(=O)[O-] (chirality)
NC(=O)c1cc2ccc(CC(=O)[C@H]3C[C@H](F)CN3CC(F)(F)F)cc2n1C(=O)[O-] (3D coordinates assigned)
NC(=O)c1cc2ccc(CC(=O)[C@H]3C[C@H](F)CN3CC(F)(F)F)cc2n1C(=O)[O-] (nonaromatic ring conformer: 88.09674685734466 kcal/mol)

>  <smiles>  (49) 
NC(=O)c1cc2ccc(CC(=O)C3CC(F)CN3CC(F)(F)F)cc2n1C(=O)O

>  <score_type>  (49) 
oracle

>  <origin>  (49) 
adg

>  <m_score__min__energy>  (49) 
-7.79

>  <m_primary>  (49) 
energy

$$$$
49:0
     RDKit          3D

 36 38  0  0  0  0  0  0  0  0999 V2000
  139.9610  159.4030  132.6630 N   0  0  0  0  0  0  0  0  0  0  0  0
  140.6690  158.7910  133.7390 C   0  0  0  0  0  0  0  0  0  0  0  0
  140.0300  158.3770  134.7410 O   0  0  0  0  0  0  0  0  0  0  0  0
  142.1430  158.6910  133.6860 C   0  0  0  0  0  0  0  0  0  0  0  0
  142.8280  157.4800  133.6340 C   0  0  0  0  0  0  0  0  0  0  0  0
  144.1550  157.8180  133.5040 C   0  0  0  0  0  0  0  0  0  0  0  0
  145.2800  157.0060  133.4170 C   0  0  0  0  0  0  0  0  0  0  0  0
  146.5350  157.6260  133.3160 C   0  0  0  0  0  0  0  0  0  0  0  0
  146.6560  159.0430  133.3110 C   0  0  0  0  0  0  0  0  0  0  0  0
  148.0440  159.6670  133.2110 C   0  0  0  0  0  0  0  0  0  0  0  0
  149.1720  158.6390  132.9520 C   0  0  0  0  0  0  0  0  0  0  0  0
  149.3690  158.2650  131.4770 C   0  0  0  0  0  0  0  0  0  0  0  0
  149.3550  159.4860  130.6010 C   0  0  0  0  0  0  0  0  0  0  0  0
  150.1600  159.5870  129.6860 O   0  0  0  0  0  0  0  0  0  0  0  0
  148.2910  160.5300  130.7810 C   0  0  0  0  0  0  0  0  0  0  0  0
  148.1110  160.8860  132.2620 C   0  0  0  0  0  0  0  0  0  0  0  0
  145.4810  159.8300  133.4040 C   0  0  0  0  0  0  0  0  0  0  0  0
  144.2420  159.1840  133.4850 C   0  0  0  0  0  0  0  0  0  0  0  0
  143.0130  159.7380  133.5980 N   0  0  0  0  0  0  0  0  0  0  0  0
  142.7120  161.1400  133.6840 C   0  0  0  0  0  0  0  0  0  0  0  0
  143.6420  161.9890  133.7300 O   0  0  0  0  0  0  0  0  0  0  0  0
  141.3940  161.5740  133.7430 O   0  0  0  0  0  0  0  0  0  0  0  0
  140.1080  160.4090  132.4260 H   0  0  0  0  0  0  0  0  0  0  0  0
  142.3993  156.4683  133.6858 H   0  0  0  0  0  0  0  0  0  0  0  0
  145.1892  155.9098  133.4271 H   0  0  0  0  0  0  0  0  0  0  0  0
  147.4401  157.0056  133.2394 H   0  0  0  0  0  0  0  0  0  0  0  0
  148.2382  160.0676  134.2169 H   0  0  0  0  0  0  0  0  0  0  0  0
  150.1152  159.0627  133.3275 H   0  0  0  0  0  0  0  0  0  0  0  0
  148.8771  157.7152  133.4712 H   0  0  0  0  0  0  0  0  0  0  0  0
  150.3355  157.7523  131.3627 H   0  0  0  0  0  0  0  0  0  0  0  0
  148.5426  157.6067  131.1708 H   0  0  0  0  0  0  0  0  0  0  0  0
  148.5786  161.4353  130.2264 H   0  0  0  0  0  0  0  0  0  0  0  0
  147.3402  160.1288  130.4003 H   0  0  0  0  0  0  0  0  0  0  0  0
  148.9595  161.5148  132.5698 H   0  0  0  0  0  0  0  0  0  0  0  0
  147.1422  161.4003  132.3446 H   0  0  0  0  0  0  0  0  0  0  0  0
  145.5417  160.9283  133.4124 H   0  0  0  0  0  0  0  0  0  0  0  0
  1  2  1  0
  2  3  2  0
  2  4  1  0
  4  5  2  0
  5  6  1  0
  6  7  2  0
  7  8  1  0
  8  9  2  0
  9 10  1  0
 10 11  1  0
 11 12  1  0
 12 13  1  0
 13 14  2  0
 13 15  1  0
 15 16  1  0
  9 17  1  0
 17 18  2  0
 18 19  1  0
 19 20  1  0
 20 21  2  0
 20 22  1  0
 19  4  1  0
 18  6  1  0
 16 10  1  0
  1 23  1  0
  5 24  1  0
  7 25  1  0
  8 26  1  0
 10 27  1  0
 11 28  1  0
 11 29  1  0
 12 30  1  0
 12 31  1  0
 15 32  1  0
 15 33  1  0
 16 34  1  0
 16 35  1  0
 17 36  1  0
M  CHG  2   1  -1  22  -1
M  END
>  <UniqueID>  (50) 
49

>  <SMILES>  (50) 
[NH-]C(=O)c1cc2ccc(C3CCC(=O)CC3)cc2n1C(=O)[O-]

>  <Energy>  (50) 
79.13927731123859

>  <Genealogy>  (50) 
[NH-]C(=O)c1cc2ccc(C3CCC(=O)CC3)cc2n1C(=O)[O-] (protonated)
[NH-]C(=O)c1cc2ccc(C3CCC(=O)CC3)cc2n1C(=O)[O-] (3D coordinates assigned)
[NH-]C(=O)c1cc2ccc(C3CCC(=O)CC3)cc2n1C(=O)[O-] (nonaromatic ring conformer: 79.13927731123859 kcal/mol)

>  <smiles>  (50) 
NC(=O)c1cc2ccc(C3CCC(=O)CC3)cc2n1C(=O)O

>  <score_type>  (50) 
oracle

>  <origin>  (50) 
adg

>  <m_score__min__energy>  (50) 
-7.6600000000000001

>  <m_primary>  (50) 
energy

$$$$
50:0
     RDKit          3D

 44 45  0  0  0  0  0  0  0  0999 V2000
  148.8910  161.8950  130.7590 C   0  0  0  0  0  0  0  0  0  0  0  0
  148.4580  160.5740  131.0680 O   0  0  0  0  0  0  0  0  0  0  0  0
  149.1570  159.4350  130.6560 C   0  0  0  0  0  0  0  0  0  0  0  0
  149.6220  159.3510  129.4860 O   0  0  0  0  0  0  0  0  0  0  0  0
  149.3790  158.3140  131.6220 C   0  0  0  0  0  0  0  0  0  0  0  0
  148.4920  158.4620  132.8240 C   0  0  0  0  0  0  0  0  0  0  0  0
  148.6820  159.4260  133.6160 O   0  0  0  0  0  0  0  0  0  0  0  0
  147.4170  157.5380  133.0710 N   0  0  0  0  0  0  0  0  0  0  0  0
  146.1360  157.8200  133.4450 C   0  0  0  0  0  0  0  0  0  0  0  0
  145.5280  159.1620  133.4990 C   0  0  0  0  0  0  0  0  0  0  0  0
  146.1950  160.2990  132.9490 N   0  0  0  0  0  0  0  0  0  0  0  0
  144.3730  159.3030  133.9920 O   0  0  0  0  0  0  0  0  0  0  0  0
  145.4330  156.6500  133.7160 C   0  0  0  0  0  0  0  0  0  0  0  0
  146.3210  155.6270  133.4740 C   0  0  0  0  0  0  0  0  0  0  0  0
  146.1580  154.2500  133.5890 C   0  0  0  0  0  0  0  0  0  0  0  0
  147.2600  153.4280  133.2970 C   0  0  0  0  0  0  0  0  0  0  0  0
  148.4960  153.9940  132.8940 C   0  0  0  0  0  0  0  0  0  0  0  0
  149.6810  153.1070  132.6200 C   0  0  0  0  0  0  0  0  0  0  0  0
  149.2540  151.6810  132.4600 C   0  0  0  0  0  0  0  0  0  0  0  0
  148.5300  151.3470  131.4810 O   0  0  0  0  0  0  0  0  0  0  0  0
  149.6300  150.7400  133.4250 O   0  0  0  0  0  0  0  0  0  0  0  0
  149.8470  151.0630  134.7990 C   0  0  0  0  0  0  0  0  0  0  0  0
  149.2320  150.0090  135.7240 C   0  0  0  0  0  0  0  0  0  0  0  0
  148.5530  149.0340  134.9810 O   0  0  0  0  0  0  0  0  0  0  0  0
  148.6290  155.3970  132.8010 C   0  0  0  0  0  0  0  0  0  0  0  0
  147.5110  156.1900  133.0840 C   0  0  0  0  0  0  0  0  0  0  0  0
  149.0726  162.4490  131.6918 H   0  0  0  0  0  0  0  0  0  0  0  0
  149.8209  161.8485  130.1733 H   0  0  0  0  0  0  0  0  0  0  0  0
  148.1140  162.4080  130.1733 H   0  0  0  0  0  0  0  0  0  0  0  0
  149.1549  157.3592  131.1239 H   0  0  0  0  0  0  0  0  0  0  0  0
  150.4278  158.3366  131.9530 H   0  0  0  0  0  0  0  0  0  0  0  0
  145.7660  161.2470  133.0320 H   0  0  0  0  0  0  0  0  0  0  0  0
  147.0690  160.1940  132.3860 H   0  0  0  0  0  0  0  0  0  0  0  0
  144.3894  156.5617  134.0522 H   0  0  0  0  0  0  0  0  0  0  0  0
  145.1953  153.8176  133.8992 H   0  0  0  0  0  0  0  0  0  0  0  0
  147.1627  152.3356  133.3819 H   0  0  0  0  0  0  0  0  0  0  0  0
  150.1751  153.4411  131.6957 H   0  0  0  0  0  0  0  0  0  0  0  0
  150.3745  153.1733  133.4713 H   0  0  0  0  0  0  0  0  0  0  0  0
  150.9294  151.1169  134.9875 H   0  0  0  0  0  0  0  0  0  0  0  0
  149.3661  152.0300  135.0077 H   0  0  0  0  0  0  0  0  0  0  0  0
  150.0322  149.5277  136.3055 H   0  0  0  0  0  0  0  0  0  0  0  0
  148.5159  150.5034  136.3969 H   0  0  0  0  0  0  0  0  0  0  0  0
  148.0630  149.5140  134.2610 H   0  0  0  0  0  0  0  0  0  0  0  0
  149.5870  155.8548  132.5134 H   0  0  0  0  0  0  0  0  0  0  0  0
  1  2  1  0
  2  3  1  0
  3  4  2  0
  3  5  1  0
  5  6  1  0
  6  7  2  0
  6  8  1  0
  8  9  1  0
  9 10  1  0
 10 11  1  0
 10 12  2  0
  9 13  2  0
 13 14  1  0
 14 15  2  0
 15 16  1  0
 16 17  2  0
 17 18  1  0
 18 19  1  0
 19 20  2  0
 19 21  1  0
 21 22  1  0
 22 23  1  0
 23 24  1  0
 17 25  1  0
 25 26  2  0
 26  8  1  0
 26 14  1  0
  1 27  1  0
  1 28  1  0
  1 29  1  0
  5 30  1  0
  5 31  1  0
 11 32  1  0
 11 33  1  0
 13 34  1  0
 15 35  1  0
 16 36  1  0
 18 37  1  0
 18 38  1  0
 22 39  1  0
 22 40  1  0
 23 41  1  0
 23 42  1  0
 24 43  1  0
 25 44  1  0
M  END
>  <UniqueID>  (51) 
50

>  <SMILES>  (51) 
COC(=O)CC(=O)n1c(C(N)=O)cc2ccc(CC(=O)OCCO)cc21

>  <Energy>  (51) 
75.14521555055029

>  <Genealogy>  (51) 
COC(=O)CC(=O)n1c(C(N)=O)cc2ccc(CC(=O)OCCO)cc21 (3D coordinates assigned)
COC(=O)CC(=O)n1c(C(N)=O)cc2ccc(CC(=O)OCCO)cc21 (optimized conformer: 75.14521555055029 kcal/mol)

>  <smiles>  (51) 
COC(=O)CC(=O)n1c(C(N)=O)cc2ccc(CC(=O)OCCO)cc21

>  <score_type>  (51) 
oracle

>  <origin>  (51) 
adg

>  <m_score__min__energy>  (51) 
-6.6500000000000004

>  <m_primary>  (51) 
energy

$$$$
51:0
     RDKit          3D

 45 46  0  0  0  0  0  0  0  0999 V2000
  141.3590  159.9510  133.3570 C   0  0  0  0  0  0  0  0  0  0  0  0
  140.9060  158.9410  132.4840 O   0  0  0  0  0  0  0  0  0  0  0  0
  139.5040  158.7860  132.5920 C   0  0  0  0  0  0  0  0  0  0  0  0
  139.1110  157.3050  132.6150 C   0  0  0  0  0  0  0  0  0  0  0  0
  140.2440  156.4850  132.8960 O   0  0  0  0  0  0  0  0  0  0  0  0
  140.1860  155.0900  132.9980 C   0  0  0  0  0  0  0  0  0  0  0  0
  139.0730  154.4950  132.9740 O   0  0  0  0  0  0  0  0  0  0  0  0
  141.4000  154.3350  133.1330 N   0  0  0  0  0  0  0  0  0  0  0  0
  142.6630  154.8240  133.2850 C   0  0  0  0  0  0  0  0  0  0  0  0
  143.0220  156.2390  133.5130 C   0  0  0  0  0  0  0  0  0  0  0  0
  142.6500  157.2560  132.5820 N   0  0  0  0  0  0  0  0  0  0  0  0
  143.6180  156.5620  134.5740 O   0  0  0  0  0  0  0  0  0  0  0  0
  143.5990  153.7940  133.2430 C   0  0  0  0  0  0  0  0  0  0  0  0
  142.8640  152.6430  133.0710 C   0  0  0  0  0  0  0  0  0  0  0  0
  143.2860  151.3220  132.9510 C   0  0  0  0  0  0  0  0  0  0  0  0
  142.3100  150.3350  132.7430 C   0  0  0  0  0  0  0  0  0  0  0  0
  140.9400  150.6850  132.6420 C   0  0  0  0  0  0  0  0  0  0  0  0
  139.8980  149.6140  132.4390 C   0  0  0  0  0  0  0  0  0  0  0  0
  140.2790  148.6610  131.3000 C   0  0  0  0  0  0  0  0  0  0  0  0
  139.5150  148.9680  130.0490 C   0  0  0  0  0  0  0  0  0  0  0  0
  139.4660  150.1540  129.6200 O   0  0  0  0  0  0  0  0  0  0  0  0
  138.8300  147.9430  129.3920 O   0  0  0  0  0  0  0  0  0  0  0  0
  139.1150  146.5680  129.6130 C   0  0  0  0  0  0  0  0  0  0  0  0
  140.5470  152.0350  132.7750 C   0  0  0  0  0  0  0  0  0  0  0  0
  141.5400  152.9960  133.0040 C   0  0  0  0  0  0  0  0  0  0  0  0
  141.2140  159.6277  134.3984 H   0  0  0  0  0  0  0  0  0  0  0  0
  142.4277  160.1391  133.1769 H   0  0  0  0  0  0  0  0  0  0  0  0
  140.7887  160.8742  133.1769 H   0  0  0  0  0  0  0  0  0  0  0  0
  139.1607  159.2629  133.5219 H   0  0  0  0  0  0  0  0  0  0  0  0
  139.0327  159.2582  131.7174 H   0  0  0  0  0  0  0  0  0  0  0  0
  138.3490  157.1460  133.3923 H   0  0  0  0  0  0  0  0  0  0  0  0
  138.7130  157.0302  131.6270 H   0  0  0  0  0  0  0  0  0  0  0  0
  142.9490  158.2430  132.7380 H   0  0  0  0  0  0  0  0  0  0  0  0
  142.0130  157.0480  131.7820 H   0  0  0  0  0  0  0  0  0  0  0  0
  144.6921  153.8814  133.3289 H   0  0  0  0  0  0  0  0  0  0  0  0
  144.3522  151.0595  133.0172 H   0  0  0  0  0  0  0  0  0  0  0  0
  142.6109  149.2804  132.6576 H   0  0  0  0  0  0  0  0  0  0  0  0
  139.7957  149.0353  133.3689 H   0  0  0  0  0  0  0  0  0  0  0  0
  138.9497  150.1041  132.1734 H   0  0  0  0  0  0  0  0  0  0  0  0
  141.3552  148.7609  131.0952 H   0  0  0  0  0  0  0  0  0  0  0  0
  140.0333  147.6350  131.6115 H   0  0  0  0  0  0  0  0  0  0  0  0
  139.1558  146.3712  130.6945 H   0  0  0  0  0  0  0  0  0  0  0  0
  138.3254  145.9521  129.1578 H   0  0  0  0  0  0  0  0  0  0  0  0
  140.0843  146.3167  129.1578 H   0  0  0  0  0  0  0  0  0  0  0  0
  139.4883  152.3243  132.7007 H   0  0  0  0  0  0  0  0  0  0  0  0
  1  2  1  0
  2  3  1  0
  3  4  1  0
  4  5  1  0
  5  6  1  0
  6  7  2  0
  6  8  1  0
  8  9  1  0
  9 10  1  0
 10 11  1  0
 10 12  2  0
  9 13  2  0
 13 14  1  0
 14 15  2  0
 15 16  1  0
 16 17  2  0
 17 18  1  0
 18 19  1  0
 19 20  1  0
 20 21  2  0
 20 22  1  0
 22 23  1  0
 17 24  1  0
 24 25  2  0
 25  8  1  0
 25 14  1  0
  1 26  1  0
  1 27  1  0
  1 28  1  0
  3 29  1  0
  3 30  1  0
  4 31  1  0
  4 32  1  0
 11 33  1  0
 11 34  1  0
 13 35  1  0
 15 36  1  0
 16 37  1  0
 18 38  1  0
 18 39  1  0
 19 40  1  0
 19 41  1  0
 23 42  1  0
 23 43  1  0
 23 44  1  0
 24 45  1  0
M  END
>  <UniqueID>  (52) 
51

>  <SMILES>  (52) 
COCCOC(=O)n1c(C(N)=O)cc2ccc(CCC(=O)OC)cc21

>  <Energy>  (52) 
76.84861523352302

>  <Genealogy>  (52) 
COCCOC(=O)n1c(C(N)=O)cc2ccc(CCC(=O)OC)cc21 (3D coordinates assigned)
COCCOC(=O)n1c(C(N)=O)cc2ccc(CCC(=O)OC)cc21 (optimized conformer: 76.84861523352302 kcal/mol)

>  <smiles>  (52) 
COCCOC(=O)n1c(C(N)=O)cc2ccc(CCC(=O)OC)cc21

>  <score_type>  (52) 
oracle

>  <origin>  (52) 
adg

>  <m_score__min__energy>  (52) 
-6.6699999999999999

>  <m_primary>  (52) 
energy

$$$$
52:0
     RDKit          3D

 46 48  0  0  0  0  0  0  0  0999 V2000
  138.7210  160.5680  131.0850 C   0  0  0  0  0  0  0  0  0  0  0  0
  139.5420  159.3300  130.7430 C   0  0  0  0  0  0  0  0  0  0  0  0
  140.3960  158.9810  131.8300 O   0  0  0  0  0  0  0  0  0  0  0  0
  139.9300  158.4270  133.0310 C   0  0  0  0  0  0  0  0  0  0  0  0
  138.6900  158.3560  133.2550 O   0  0  0  0  0  0  0  0  0  0  0  0
  140.9080  157.9100  134.0710 C   0  0  0  0  0  0  0  0  0  0  0  0
  140.9090  156.3660  133.9670 C   0  0  0  0  0  0  0  0  0  0  0  0
  140.4460  158.2970  135.4920 C   0  0  0  0  0  0  0  0  0  0  0  0
  142.2900  158.5370  133.8260 C   0  0  0  0  0  0  0  0  0  0  0  0
  142.4360  159.9520  133.9160 C   0  0  0  0  0  0  0  0  0  0  0  0
  143.6860  160.5680  133.7470 C   0  0  0  0  0  0  0  0  0  0  0  0
  144.7840  159.7570  133.4970 C   0  0  0  0  0  0  0  0  0  0  0  0
  146.1090  160.0910  133.3260 C   0  0  0  0  0  0  0  0  0  0  0  0
  146.7720  158.8830  133.1320 C   0  0  0  0  0  0  0  0  0  0  0  0
  148.2140  158.7840  132.8270 C   0  0  0  0  0  0  0  0  0  0  0  0
  148.6700  157.8580  131.8450 N   0  0  0  0  0  0  0  0  0  0  0  0
  149.0540  159.4860  133.4500 O   0  0  0  0  0  0  0  0  0  0  0  0
  145.8920  157.8420  133.1870 N   0  0  0  0  0  0  0  0  0  0  0  0
  146.1920  156.4390  133.1040 C   0  0  0  0  0  0  0  0  0  0  0  0
  145.3490  155.6500  132.6000 O   0  0  0  0  0  0  0  0  0  0  0  0
  147.3940  155.9590  133.6400 O   0  0  0  0  0  0  0  0  0  0  0  0
  148.1110  154.8500  133.1710 C   0  0  0  0  0  0  0  0  0  0  0  0
  147.7170  153.5240  133.1760 C   0  0  0  0  0  0  0  0  0  0  0  0
  148.7730  152.8710  132.5810 C   0  0  0  0  0  0  0  0  0  0  0  0
  149.6890  153.7580  132.2630 O   0  0  0  0  0  0  0  0  0  0  0  0
  149.3230  154.9600  132.6000 N   0  0  0  0  0  0  0  0  0  0  0  0
  144.6790  158.3950  133.4090 C   0  0  0  0  0  0  0  0  0  0  0  0
  143.4510  157.7500  133.5920 C   0  0  0  0  0  0  0  0  0  0  0  0
  138.6521  160.6719  132.1779 H   0  0  0  0  0  0  0  0  0  0  0  0
  139.2077  161.4591  130.6619 H   0  0  0  0  0  0  0  0  0  0  0  0
  137.7107  160.4663  130.6619 H   0  0  0  0  0  0  0  0  0  0  0  0
  138.8619  158.4913  130.5333 H   0  0  0  0  0  0  0  0  0  0  0  0
  140.1609  159.5465  129.8598 H   0  0  0  0  0  0  0  0  0  0  0  0
  140.9093  155.9305  134.9771 H   0  0  0  0  0  0  0  0  0  0  0  0
  140.0111  156.0344  133.4250 H   0  0  0  0  0  0  0  0  0  0  0  0
  141.8074  156.0356  133.4250 H   0  0  0  0  0  0  0  0  0  0  0  0
  141.0682  157.7758  136.2345 H   0  0  0  0  0  0  0  0  0  0  0  0
  140.5470  159.3840  135.6271 H   0  0  0  0  0  0  0  0  0  0  0  0
  139.3936  158.0070  135.6271 H   0  0  0  0  0  0  0  0  0  0  0  0
  141.5520  160.5734  134.1219 H   0  0  0  0  0  0  0  0  0  0  0  0
  143.7920  161.6610  133.8108 H   0  0  0  0  0  0  0  0  0  0  0  0
  146.5497  161.0988  133.3398 H   0  0  0  0  0  0  0  0  0  0  0  0
  148.4810  156.8360  131.9430 H   0  0  0  0  0  0  0  0  0  0  0  0
  146.7818  153.0934  133.5634 H   0  0  0  0  0  0  0  0  0  0  0  0
  148.8389  151.7877  132.4017 H   0  0  0  0  0  0  0  0  0  0  0  0
  143.3848  156.6526  133.5555 H   0  0  0  0  0  0  0  0  0  0  0  0
  1  2  1  0
  2  3  1  0
  3  4  1  0
  4  5  2  0
  4  6  1  0
  6  7  1  0
  6  8  1  0
  6  9  1  0
  9 10  2  0
 10 11  1  0
 11 12  2  0
 12 13  1  0
 13 14  2  0
 14 15  1  0
 15 16  1  0
 15 17  2  0
 14 18  1  0
 18 19  1  0
 19 20  2  0
 19 21  1  0
 21 22  1  0
 22 23  1  0
 23 24  2  0
 24 25  1  0
 25 26  1  0
 18 27  1  0
 27 28  2  0
 28  9  1  0
 27 12  1  0
 26 22  2  0
  1 29  1  0
  1 30  1  0
  1 31  1  0
  2 32  1  0
  2 33  1  0
  7 34  1  0
  7 35  1  0
  7 36  1  0
  8 37  1  0
  8 38  1  0
  8 39  1  0
 10 40  1  0
 11 41  1  0
 13 42  1  0
 16 43  1  0
 23 44  1  0
 24 45  1  0
 28 46  1  0
M  CHG  1  16  -1
M  END
>  <UniqueID>  (53) 
52

>  <SMILES>  (53) 
CCOC(=O)C(C)(C)c1ccc2cc(C([NH-])=O)n(C(=O)Oc3ccon3)c2c1

>  <Energy>  (53) 
118.33264622928766

>  <Genealogy>  (53) 
CCOC(=O)C(C)(C)c1ccc2cc(C([NH-])=O)n(C(=O)Oc3ccon3)c2c1 (protonated)
CCOC(=O)C(C)(C)c1ccc2cc(C([NH-])=O)n(C(=O)Oc3ccon3)c2c1 (3D coordinates assigned)
CCOC(=O)C(C)(C)c1ccc2cc(C([NH-])=O)n(C(=O)Oc3ccon3)c2c1 (optimized conformer: 118.33264622928766 kcal/mol)

>  <smiles>  (53) 
CCOC(=O)C(C)(C)c1ccc2cc(C(N)=O)n(C(=O)Oc3ccon3)c2c1

>  <score_type>  (53) 
oracle

>  <origin>  (53) 
adg

>  <m_score__min__energy>  (53) 
-7.7699999999999996

>  <m_primary>  (53) 
energy

$$$$
53:0
     RDKit          3D

 39 40  0  0  0  0  0  0  0  0999 V2000
  141.8980  152.8290  136.8160 C   0  0  0  0  0  0  0  0  0  0  0  0
  141.1690  152.1750  137.9940 C   0  0  1  0  0  0  0  0  0  0  0  0
  140.2580  153.1270  138.6290 N   0  0  0  0  0  0  0  0  0  0  0  0
  140.6130  154.0680  139.6510 C   0  0  0  0  0  0  0  0  0  0  0  0
  140.9350  153.6770  140.8040 O   0  0  0  0  0  0  0  0  0  0  0  0
  140.5630  155.5360  139.3500 C   0  0  0  0  0  0  0  0  0  0  0  0
  141.7510  155.9780  138.4840 C   0  0  0  0  0  0  0  0  0  0  0  0
  141.3250  156.9240  137.3890 C   0  0  0  0  0  0  0  0  0  0  0  0
  141.3270  158.3210  137.6210 C   0  0  0  0  0  0  0  0  0  0  0  0
  140.9710  159.2140  136.5980 C   0  0  0  0  0  0  0  0  0  0  0  0
  140.6320  158.6850  135.3560 C   0  0  0  0  0  0  0  0  0  0  0  0
  140.2290  159.3220  134.2060 C   0  0  0  0  0  0  0  0  0  0  0  0
  140.0160  158.3050  133.2800 C   0  0  0  0  0  0  0  0  0  0  0  0
  139.6270  158.5530  131.8770 C   0  0  0  0  0  0  0  0  0  0  0  0
  138.4920  157.9050  131.3000 N   0  0  0  0  0  0  0  0  0  0  0  0
  140.3370  159.3070  131.1610 O   0  0  0  0  0  0  0  0  0  0  0  0
  140.2630  157.0850  133.8340 N   0  0  0  0  0  0  0  0  0  0  0  0
  140.0430  155.7930  133.2410 C   0  0  0  0  0  0  0  0  0  0  0  0
  138.9780  155.5570  132.6100 O   0  0  0  0  0  0  0  0  0  0  0  0
  140.9960  154.7900  133.3580 O   0  0  0  0  0  0  0  0  0  0  0  0
  140.6440  157.3350  135.1080 C   0  0  0  0  0  0  0  0  0  0  0  0
  140.9760  156.4220  136.1160 C   0  0  0  0  0  0  0  0  0  0  0  0
  140.4380  150.9190  137.6010 C   0  0  0  0  0  0  0  0  0  0  0  0
  139.6300  150.3920  138.4080 O   0  0  0  0  0  0  0  0  0  0  0  0
  140.6090  150.3540  136.3420 O   0  0  0  0  0  0  0  0  0  0  0  0
  142.6661  153.5181  137.1970 H   0  0  0  0  0  0  0  0  0  0  0  0
  142.3754  152.0507  136.2025 H   0  0  0  0  0  0  0  0  0  0  0  0
  141.1759  153.3878  136.2025 H   0  0  0  0  0  0  0  0  0  0  0  0
  141.9400  151.8783  138.7203 H   0  0  0  0  0  0  0  0  0  0  0  0
  139.6286  155.7585  138.8139 H   0  0  0  0  0  0  0  0  0  0  0  0
  140.6103  156.0836  140.3029 H   0  0  0  0  0  0  0  0  0  0  0  0
  142.4894  156.4834  139.1238 H   0  0  0  0  0  0  0  0  0  0  0  0
  142.1827  155.0825  138.0132 H   0  0  0  0  0  0  0  0  0  0  0  0
  141.6097  158.7094  138.6105 H   0  0  0  0  0  0  0  0  0  0  0  0
  140.9603  160.3000  136.7728 H   0  0  0  0  0  0  0  0  0  0  0  0
  140.1021  160.4036  134.0511 H   0  0  0  0  0  0  0  0  0  0  0  0
  137.9940  157.1410  131.8070 H   0  0  0  0  0  0  0  0  0  0  0  0
  138.1920  158.1400  130.3270 H   0  0  0  0  0  0  0  0  0  0  0  0
  140.9653  155.3395  135.9211 H   0  0  0  0  0  0  0  0  0  0  0  0
  1  2  1  0
  2  3  1  0
  3  4  1  0
  4  5  2  0
  4  6  1  0
  6  7  1  0
  7  8  1  0
  8  9  2  0
  9 10  1  0
 10 11  2  0
 11 12  1  0
 12 13  2  0
 13 14  1  0
 14 15  1  0
 14 16  2  0
 13 17  1  0
 17 18  1  0
 18 19  2  0
 18 20  1  0
 17 21  1  0
 21 22  2  0
  2 23  1  0
 23 24  2  0
 23 25  1  0
 22  8  1  0
 21 11  1  0
  1 26  1  0
  1 27  1  0
  1 28  1  0
  2 29  1  1
  6 30  1  0
  6 31  1  0
  7 32  1  0
  7 33  1  0
  9 34  1  0
 10 35  1  0
 12 36  1  0
 15 37  1  0
 15 38  1  0
 22 39  1  0
M  CHG  3   3  -1  20  -1  25  -1
M  END
>  <UniqueID>  (54) 
53

>  <SMILES>  (54) 
C[C@@H]([N-]C(=O)CCc1ccc2cc(C(N)=O)n(C(=O)[O-])c2c1)C(=O)[O-]

>  <Energy>  (54) 
70.49550326396583

>  <Genealogy>  (54) 
CC([N-]C(=O)CCc1ccc2cc(C(N)=O)n(C(=O)[O-])c2c1)C(=O)[O-] (protonated)
C[C@@H]([N-]C(=O)CCc1ccc2cc(C(N)=O)n(C(=O)[O-])c2c1)C(=O)[O-] (chirality)
C[C@@H]([N-]C(=O)CCc1ccc2cc(C(N)=O)n(C(=O)[O-])c2c1)C(=O)[O-] (3D coordinates assigned)
C[C@@H]([N-]C(=O)CCc1ccc2cc(C(N)=O)n(C(=O)[O-])c2c1)C(=O)[O-] (optimized conformer: 70.49550326396583 kcal/mol)

>  <smiles>  (54) 
CC(NC(=O)CCc1ccc2cc(C(N)=O)n(C(=O)O)c2c1)C(=O)O

>  <score_type>  (54) 
oracle

>  <origin>  (54) 
adg

>  <m_score__min__energy>  (54) 
-7.7800000000000002

>  <m_primary>  (54) 
energy

$$$$
54:0
     RDKit          3D

 39 40  0  0  0  0  0  0  0  0999 V2000
  147.9120  154.2760  133.5240 C   0  0  0  0  0  0  0  0  0  0  0  0
  147.4350  155.6390  133.7730 N   0  0  0  0  0  0  0  0  0  0  0  0
  147.3020  156.1440  135.1430 C   0  0  0  0  0  0  0  0  0  0  0  0
  147.0550  156.4710  132.6610 C   0  0  0  0  0  0  0  0  0  0  0  0
  146.9800  155.9850  131.5000 O   0  0  0  0  0  0  0  0  0  0  0  0
  146.7300  157.8540  132.8580 N   0  0  0  0  0  0  0  0  0  0  0  0
  147.5410  158.9360  132.7040 C   0  0  0  0  0  0  0  0  0  0  0  0
  148.9470  158.9050  132.2450 C   0  0  0  0  0  0  0  0  0  0  0  0
  149.5680  157.6800  131.8660 N   0  0  0  0  0  0  0  0  0  0  0  0
  149.6070  159.9760  132.1780 O   0  0  0  0  0  0  0  0  0  0  0  0
  146.8490  160.1070  133.0080 C   0  0  0  0  0  0  0  0  0  0  0  0
  145.5760  159.7010  133.3500 C   0  0  0  0  0  0  0  0  0  0  0  0
  144.4660  160.4460  133.7360 C   0  0  0  0  0  0  0  0  0  0  0  0
  143.2800  159.7540  134.0310 C   0  0  0  0  0  0  0  0  0  0  0  0
  143.2260  158.3390  133.9430 C   0  0  0  0  0  0  0  0  0  0  0  0
  141.9390  157.6130  134.2390 C   0  0  0  0  0  0  0  0  0  0  0  0
  141.0400  157.5090  132.9970 C   0  0  0  0  0  0  0  0  0  0  0  0
  139.5860  157.1930  133.3530 C   0  0  0  0  0  0  0  0  0  0  0  0
  139.2840  155.8840  132.9560 O   0  0  0  0  0  0  0  0  0  0  0  0
  144.3720  157.6180  133.5420 C   0  0  0  0  0  0  0  0  0  0  0  0
  145.5340  158.3360  133.2480 C   0  0  0  0  0  0  0  0  0  0  0  0
  148.0896  153.7686  134.4837 H   0  0  0  0  0  0  0  0  0  0  0  0
  147.1545  153.7214  132.9507 H   0  0  0  0  0  0  0  0  0  0  0  0
  148.8500  154.3148  132.9507 H   0  0  0  0  0  0  0  0  0  0  0  0
  147.5155  155.3332  135.8550 H   0  0  0  0  0  0  0  0  0  0  0  0
  148.0139  156.9676  135.3009 H   0  0  0  0  0  0  0  0  0  0  0  0
  146.2768  156.5101  135.3009 H   0  0  0  0  0  0  0  0  0  0  0  0
  149.0040  156.8830  131.4950 H   0  0  0  0  0  0  0  0  0  0  0  0
  147.2359  161.1363  132.9809 H   0  0  0  0  0  0  0  0  0  0  0  0
  144.5158  161.5425  133.8078 H   0  0  0  0  0  0  0  0  0  0  0  0
  142.3835  160.3150  134.3335 H   0  0  0  0  0  0  0  0  0  0  0  0
  142.1762  156.5986  134.5921 H   0  0  0  0  0  0  0  0  0  0  0  0
  141.3950  158.1833  135.0063 H   0  0  0  0  0  0  0  0  0  0  0  0
  141.0712  158.4670  132.4574 H   0  0  0  0  0  0  0  0  0  0  0  0
  141.4199  156.6838  132.3767 H   0  0  0  0  0  0  0  0  0  0  0  0
  139.4451  157.2887  134.4397 H   0  0  0  0  0  0  0  0  0  0  0  0
  138.9191  157.8975  132.8343 H   0  0  0  0  0  0  0  0  0  0  0  0
  138.3260  155.8900  132.6950 H   0  0  0  0  0  0  0  0  0  0  0  0
  144.3505  156.5210  133.4633 H   0  0  0  0  0  0  0  0  0  0  0  0
  1  2  1  0
  2  3  1  0
  2  4  1  0
  4  5  2  0
  4  6  1  0
  6  7  1  0
  7  8  1  0
  8  9  1  0
  8 10  2  0
  7 11  2  0
 11 12  1  0
 12 13  2  0
 13 14  1  0
 14 15  2  0
 15 16  1  0
 16 17  1  0
 17 18  1  0
 18 19  1  0
 15 20  1  0
 20 21  2  0
 21  6  1  0
 21 12  1  0
  1 22  1  0
  1 23  1  0
  1 24  1  0
  3 25  1  0
  3 26  1  0
  3 27  1  0
  9 28  1  0
 11 29  1  0
 13 30  1  0
 14 31  1  0
 16 32  1  0
 16 33  1  0
 17 34  1  0
 17 35  1  0
 18 36  1  0
 18 37  1  0
 19 38  1  0
 20 39  1  0
M  CHG  1   9  -1
M  END
>  <UniqueID>  (55) 
54

>  <SMILES>  (55) 
CN(C)C(=O)n1c(C([NH-])=O)cc2ccc(CCCO)cc21

>  <Energy>  (55) 
70.60196280717062

>  <Genealogy>  (55) 
CN(C)C(=O)n1c(C([NH-])=O)cc2ccc(CCCO)cc21 (protonated)
CN(C)C(=O)n1c(C([NH-])=O)cc2ccc(CCCO)cc21 (3D coordinates assigned)
CN(C)C(=O)n1c(C([NH-])=O)cc2ccc(CCCO)cc21 (optimized conformer: 70.60196280717062 kcal/mol)

>  <smiles>  (55) 
CN(C)C(=O)n1c(C(N)=O)cc2ccc(CCCO)cc21

>  <score_type>  (55) 
oracle

>  <origin>  (55) 
adg

>  <m_score__min__energy>  (55) 
-6.5899999999999999

>  <m_primary>  (55) 
energy

$$$$
55:0
     RDKit          3D

 56 57  0  0  0  0  0  0  0  0999 V2000
  139.7660  147.8110  130.4060 C   0  0  0  0  0  0  0  0  0  0  0  0
  140.3570  148.0280  131.7300 N   0  0  0  0  0  0  0  0  0  0  0  0
  139.9670  149.3080  132.3640 C   0  0  1  0  0  0  0  0  0  0  0  0
  140.0030  149.2420  133.7700 O   0  0  0  0  0  0  0  0  0  0  0  0
  140.8530  150.4530  131.8410 C   0  0  0  0  0  0  0  0  0  0  0  0
  142.3070  150.3510  132.3070 C   0  0  0  0  0  0  0  0  0  0  0  0
  142.4080  150.6560  133.7310 N   0  0  0  0  0  0  0  0  0  0  0  0
  142.0200  151.8860  134.3730 C   0  0  0  0  0  0  0  0  0  0  0  0
  141.0310  151.8700  135.1450 O   0  0  0  0  0  0  0  0  0  0  0  0
  142.7580  153.1830  134.1450 C   0  0  0  0  0  0  0  0  0  0  0  0
  141.7890  154.2740  133.7660 C   0  0  0  0  0  0  0  0  0  0  0  0
  140.4770  153.9360  133.3460 C   0  0  0  0  0  0  0  0  0  0  0  0
  139.5730  154.9360  132.9430 C   0  0  0  0  0  0  0  0  0  0  0  0
  140.0090  156.2530  132.9670 C   0  0  0  0  0  0  0  0  0  0  0  0
  139.3430  157.4140  132.6500 C   0  0  0  0  0  0  0  0  0  0  0  0
  140.2580  158.4420  132.8800 C   0  0  0  0  0  0  0  0  0  0  0  0
  139.9160  159.8770  132.7620 C   0  0  0  0  0  0  0  0  0  0  0  0
  138.7060  160.2650  132.1030 N   0  0  0  0  0  0  0  0  0  0  0  0
  140.6840  160.7670  133.2100 O   0  0  0  0  0  0  0  0  0  0  0  0
  141.4490  157.9320  133.3140 N   0  0  0  0  0  0  0  0  0  0  0  0
  142.6000  158.6510  133.7940 C   0  0  0  0  0  0  0  0  0  0  0  0
  143.4960  159.0140  132.9760 O   0  0  0  0  0  0  0  0  0  0  0  0
  142.7260  159.0280  135.2430 C   0  0  0  0  0  0  0  0  0  0  0  0
  141.3490  159.4020  135.8450 C   0  0  0  0  0  0  0  0  0  0  0  0
  140.7320  158.3440  136.6860 N   0  0  0  0  0  0  0  0  0  0  0  0
  141.6550  157.2210  136.9600 C   0  0  0  0  0  0  0  0  0  0  0  0
  139.4450  157.8640  136.1510 C   0  0  0  0  0  0  0  0  0  0  0  0
  141.2740  156.5950  133.3730 C   0  0  0  0  0  0  0  0  0  0  0  0
  142.1970  155.6270  133.7770 C   0  0  0  0  0  0  0  0  0  0  0  0
  138.7390  147.4339  130.5202 H   0  0  0  0  0  0  0  0  0  0  0  0
  139.7482  148.7613  129.8522 H   0  0  0  0  0  0  0  0  0  0  0  0
  140.3674  147.0750  129.8522 H   0  0  0  0  0  0  0  0  0  0  0  0
  141.3960  148.0120  131.6120 H   0  0  0  0  0  0  0  0  0  0  0  0
  138.9223  149.5104  132.0853 H   0  0  0  0  0  0  0  0  0  0  0  0
  140.3420  150.1130  134.0980 H   0  0  0  0  0  0  0  0  0  0  0  0
  140.8361  150.4338  130.7413 H   0  0  0  0  0  0  0  0  0  0  0  0
  140.4456  151.3919  132.2441 H   0  0  0  0  0  0  0  0  0  0  0  0
  142.6740  149.3295  132.1283 H   0  0  0  0  0  0  0  0  0  0  0  0
  142.9138  151.0749  131.7433 H   0  0  0  0  0  0  0  0  0  0  0  0
  143.2840  153.4688  135.0678 H   0  0  0  0  0  0  0  0  0  0  0  0
  143.4811  153.0455  133.3276 H   0  0  0  0  0  0  0  0  0  0  0  0
  140.1632  152.8818  133.3352 H   0  0  0  0  0  0  0  0  0  0  0  0
  138.5529  154.6818  132.6192 H   0  0  0  0  0  0  0  0  0  0  0  0
  138.3078  157.5115  132.2910 H   0  0  0  0  0  0  0  0  0  0  0  0
  138.3560  161.2480  132.1660 H   0  0  0  0  0  0  0  0  0  0  0  0
  143.1422  158.1761  135.8007 H   0  0  0  0  0  0  0  0  0  0  0  0
  143.3892  159.9023  135.3195 H   0  0  0  0  0  0  0  0  0  0  0  0
  141.4789  160.3009  136.4656 H   0  0  0  0  0  0  0  0  0  0  0  0
  140.6697  159.5585  134.9941 H   0  0  0  0  0  0  0  0  0  0  0  0
  141.7618  157.0910  138.0471 H   0  0  0  0  0  0  0  0  0  0  0  0
  141.2509  156.2981  136.5184 H   0  0  0  0  0  0  0  0  0  0  0  0
  142.6386  157.4387  136.5184 H   0  0  0  0  0  0  0  0  0  0  0  0
  138.7722  157.6131  136.9843 H   0  0  0  0  0  0  0  0  0  0  0  0
  138.9874  158.6519  135.5347 H   0  0  0  0  0  0  0  0  0  0  0  0
  139.6151  156.9688  135.5347 H   0  0  0  0  0  0  0  0  0  0  0  0
  143.2116  155.9098  134.0943 H   0  0  0  0  0  0  0  0  0  0  0  0
  1  2  1  0
  2  3  1  0
  3  4  1  0
  3  5  1  0
  5  6  1  0
  6  7  1  0
  7  8  1  0
  8  9  2  0
  8 10  1  0
 10 11  1  0
 11 12  2  0
 12 13  1  0
 13 14  2  0
 14 15  1  0
 15 16  2  0
 16 17  1  0
 17 18  1  0
 17 19  2  0
 16 20  1  0
 20 21  1  0
 21 22  2  0
 21 23  1  0
 23 24  1  0
 24 25  1  0
 25 26  1  0
 25 27  1  0
 20 28  1  0
 28 29  2  0
 29 11  1  0
 28 14  1  0
  1 30  1  0
  1 31  1  0
  1 32  1  0
  2 33  1  0
  3 34  1  1
  4 35  1  0
  5 36  1  0
  5 37  1  0
  6 38  1  0
  6 39  1  0
 10 40  1  0
 10 41  1  0
 12 42  1  0
 13 43  1  0
 15 44  1  0
 18 45  1  0
 23 46  1  0
 23 47  1  0
 24 48  1  0
 24 49  1  0
 26 50  1  0
 26 51  1  0
 26 52  1  0
 27 53  1  0
 27 54  1  0
 27 55  1  0
 29 56  1  0
M  CHG  2   7  -1  18  -1
M  END
>  <UniqueID>  (56) 
55

>  <SMILES>  (56) 
CN[C@@H](O)CC[N-]C(=O)Cc1ccc2cc(C([NH-])=O)n(C(=O)CCN(C)C)c2c1

>  <Energy>  (56) 
96.29182635083966

>  <Genealogy>  (56) 
CNC(O)CC[N-]C(=O)Cc1ccc2cc(C([NH-])=O)n(C(=O)CCN(C)C)c2c1 (protonated)
CN[C@@H](O)CC[N-]C(=O)Cc1ccc2cc(C([NH-])=O)n(C(=O)CCN(C)C)c2c1 (chirality)
CN[C@@H](O)CC[N-]C(=O)Cc1ccc2cc(C([NH-])=O)n(C(=O)CCN(C)C)c2c1 (3D coordinates assigned)
CN[C@@H](O)CC[N-]C(=O)Cc1ccc2cc(C([NH-])=O)n(C(=O)CCN(C)C)c2c1 (optimized conformer: 96.29182635083966 kcal/mol)

>  <smiles>  (56) 
CNC(O)CCNC(=O)Cc1ccc2cc(C(N)=O)n(C(=O)CCN(C)C)c2c1

>  <score_type>  (56) 
oracle

>  <origin>  (56) 
adg

>  <m_score__min__energy>  (56) 
-7.9400000000000004

>  <m_primary>  (56) 
energy

$$$$
56:0
     RDKit          3D

 60 61  0  0  0  0  0  0  0  0999 V2000
  142.9830  162.8100  133.0510 H   0  0  0  0  0  0  0  0  0  0  0  0
  143.9240  163.0730  133.4160 N   0  0  0  0  0  0  0  0  0  0  0  0
  144.7240  162.1240  134.1170 C   0  0  0  0  0  0  0  0  0  0  0  0
  145.5810  162.5400  134.9420 O   0  0  0  0  0  0  0  0  0  0  0  0
  144.5670  160.6660  133.8990 C   0  0  0  0  0  0  0  0  0  0  0  0
  145.6470  159.8150  133.6830 C   0  0  0  0  0  0  0  0  0  0  0  0
  146.7101  160.0916  133.6245 H   0  0  0  0  0  0  0  0  0  0  0  0
  145.1080  158.5570  133.5580 C   0  0  0  0  0  0  0  0  0  0  0  0
  145.7350  157.3360  133.3200 C   0  0  0  0  0  0  0  0  0  0  0  0
  146.8285  157.2695  133.2206 H   0  0  0  0  0  0  0  0  0  0  0  0
  144.9270  156.1930  133.2110 C   0  0  0  0  0  0  0  0  0  0  0  0
  145.3931  155.2112  133.0409 H   0  0  0  0  0  0  0  0  0  0  0  0
  143.5150  156.2910  133.3180 C   0  0  0  0  0  0  0  0  0  0  0  0
  142.6580  155.0600  133.1720 C   0  0  0  0  0  0  0  0  0  0  0  0
  143.2355  154.1791  133.4892 H   0  0  0  0  0  0  0  0  0  0  0  0
  142.3580  154.9627  132.1182 H   0  0  0  0  0  0  0  0  0  0  0  0
  141.4120  155.1680  134.0220 C   0  0  0  0  0  0  0  0  0  0  0  0
  141.3690  154.6800  135.2280 N   0  0  0  0  0  0  0  0  0  0  0  0
  142.4550  154.0860  135.8310 O   0  0  0  0  0  0  0  0  0  0  0  0
  143.2250  154.8050  136.7780 C   0  0  0  0  0  0  0  0  0  0  0  0
  142.9176  154.5179  137.7944 H   0  0  0  0  0  0  0  0  0  0  0  0
  144.2907  154.5712  136.6375 H   0  0  0  0  0  0  0  0  0  0  0  0
  143.0647  155.8841  136.6375 H   0  0  0  0  0  0  0  0  0  0  0  0
  140.1930  155.7860  133.4680 C   0  0  0  0  0  0  0  0  0  0  0  0
  139.5030  155.1550  132.6180 O   0  0  0  0  0  0  0  0  0  0  0  0
  139.8020  157.0660  133.8830 O   0  0  0  0  0  0  0  0  0  0  0  0
  138.9320  157.8860  133.1070 C   0  0  0  0  0  0  0  0  0  0  0  0
  138.3658  158.5514  133.7753 H   0  0  0  0  0  0  0  0  0  0  0  0
  138.2375  157.2452  132.5440 H   0  0  0  0  0  0  0  0  0  0  0  0
  139.7320  158.7120  132.1440 C   0  0  0  0  0  0  0  0  0  0  0  0
  140.8303  158.6943  132.2029 H   0  0  0  0  0  0  0  0  0  0  0  0
  139.1390  159.4690  131.2160 C   0  0  0  0  0  0  0  0  0  0  0  0
  139.7484  160.0657  130.5214 H   0  0  0  0  0  0  0  0  0  0  0  0
  138.0415  159.4953  131.1468 H   0  0  0  0  0  0  0  0  0  0  0  0
  142.9170  157.5510  133.5460 C   0  0  0  0  0  0  0  0  0  0  0  0
  141.8233  157.6521  133.6066 H   0  0  0  0  0  0  0  0  0  0  0  0
  143.7490  158.6680  133.6930 C   0  0  0  0  0  0  0  0  0  0  0  0
  143.3990  159.9550  133.9180 N   0  0  0  0  0  0  0  0  0  0  0  0
  142.0640  160.4460  134.1360 C   0  0  0  0  0  0  0  0  0  0  0  0
  141.5410  161.2350  133.3060 O   0  0  0  0  0  0  0  0  0  0  0  0
  141.2730  160.0140  135.3420 C   0  0  0  0  0  0  0  0  0  0  0  0
  141.0299  160.9031  135.9424 H   0  0  0  0  0  0  0  0  0  0  0  0
  140.3634  159.5093  134.9843 H   0  0  0  0  0  0  0  0  0  0  0  0
  142.0470  159.0190  136.2230 C   0  0  0  0  0  0  0  0  0  0  0  0
  142.1526  158.0733  135.6712 H   0  0  0  0  0  0  0  0  0  0  0  0
  143.0206  159.4767  136.4524 H   0  0  0  0  0  0  0  0  0  0  0  0
  141.3540  158.7260  137.5660 C   0  0  0  0  0  0  0  0  0  0  0  0
  142.1140  158.7457  138.3610 H   0  0  0  0  0  0  0  0  0  0  0  0
  140.5822  159.4973  137.7055 H   0  0  0  0  0  0  0  0  0  0  0  0
  140.6540  157.3860  137.6070 C   0  0  0  0  0  0  0  0  0  0  0  0
  139.7600  157.1350  136.7510 O   0  0  0  0  0  0  0  0  0  0  0  0
  140.9380  156.4160  138.6440 N   0  0  0  0  0  0  0  0  0  0  0  0
  141.8620  156.7290  139.7380 C   0  0  0  0  0  0  0  0  0  0  0  0
  141.3600  156.5590  140.7019 H   0  0  0  0  0  0  0  0  0  0  0  0
  142.7479  156.0808  139.6666 H   0  0  0  0  0  0  0  0  0  0  0  0
  142.1715  157.7821  139.6666 H   0  0  0  0  0  0  0  0  0  0  0  0
  140.2610  155.1130  138.6080 C   0  0  0  0  0  0  0  0  0  0  0  0
  140.0803  154.7652  139.6358 H   0  0  0  0  0  0  0  0  0  0  0  0
  139.3009  155.2131  138.0806 H   0  0  0  0  0  0  0  0  0  0  0  0
  140.8948  154.3849  138.0806 H   0  0  0  0  0  0  0  0  0  0  0  0
  1  2  1  0
  2  3  1  0
  3  4  2  0
  3  5  1  0
  5  6  2  0
  6  7  1  0
  6  8  1  0
  8  9  2  0
  9 10  1  0
  9 11  1  0
 11 12  1  0
 11 13  2  0
 13 14  1  0
 14 15  1  0
 14 16  1  0
 14 17  1  0
 17 18  2  0
 18 19  1  0
 19 20  1  0
 20 21  1  0
 20 22  1  0
 20 23  1  0
 17 24  1  0
 24 25  2  0
 24 26  1  0
 26 27  1  0
 27 28  1  0
 27 29  1  0
 27 30  1  0
 30 31  1  0
 30 32  2  0
 32 33  1  0
 32 34  1  0
 13 35  1  0
 35 36  1  0
 35 37  2  0
 37 38  1  0
 38 39  1  0
 39 40  2  0
 39 41  1  0
 41 42  1  0
 41 43  1  0
 41 44  1  0
 44 45  1  0
 44 46  1  0
 44 47  1  0
 47 48  1  0
 47 49  1  0
 47 50  1  0
 50 51  2  0
 50 52  1  0
 52 53  1  0
 53 54  1  0
 53 55  1  0
 53 56  1  0
 52 57  1  0
 57 58  1  0
 57 59  1  0
 57 60  1  0
 38  5  1  0
 37  8  1  0
M  CHG  1   2  -1
M  END
>  <UniqueID>  (57) 
56

>  <SMILES>  (57) 
C=CCOC(=O)/C(Cc1ccc2cc(C([NH-])=O)n(C(=O)CCCC(=O)N(C)C)c2c1)=N/OC

>  <Energy>  (57) 
78.49873593922575

>  <Genealogy>  (57) 
C=CCOC(=O)/C(Cc1ccc2cc(C([NH-])=O)n(C(=O)CCCC(=O)N(C)C)c2c1)=N/OC (protonated)
C=CCOC(=O)/C(Cc1ccc2cc(C([NH-])=O)n(C(=O)CCCC(=O)N(C)C)c2c1)=N/OC (cis-trans isomerization)
C=CCOC(=O)/C(Cc1ccc2cc(C([NH-])=O)n(C(=O)CCCC(=O)N(C)C)c2c1)=N/OC (3D coordinates assigned)
C=CCOC(=O)/C(Cc1ccc2cc(C([NH-])=O)n(C(=O)CCCC(=O)N(C)C)c2c1)=N/OC (optimized conformer: 78.49873593922575 kcal/mol)

>  <smiles>  (57) 
C=CCOC(=O)/C(Cc1ccc2cc(C(N)=O)n(C(=O)CCCC(=O)N(C)C)c2c1)=N/OC

>  <score_type>  (57) 
oracle

>  <origin>  (57) 
adg

>  <m_score__min__energy>  (57) 
-8.9700000000000006

>  <m_primary>  (57) 
energy

$$$$
57:0
     RDKit          3D

 34 35  0  0  0  0  0  0  0  0999 V2000
  149.6370  160.9210  130.8580 C   0  0  0  0  0  0  0  0  0  0  0  0
  148.9160  160.1280  131.4110 C   0  0  0  0  0  0  0  0  0  0  0  0
  148.0570  159.1810  132.0720 C   0  0  0  0  0  0  0  0  0  0  0  0
  146.8480  159.6180  132.6620 C   0  0  0  0  0  0  0  0  0  0  0  0
  146.0090  158.7050  133.3210 C   0  0  0  0  0  0  0  0  0  0  0  0
  146.4020  157.3700  133.3630 C   0  0  0  0  0  0  0  0  0  0  0  0
  145.7910  156.2870  133.9540 C   0  0  0  0  0  0  0  0  0  0  0  0
  146.6290  155.2030  133.6940 C   0  0  0  0  0  0  0  0  0  0  0  0
  146.3130  153.8080  134.0710 C   0  0  0  0  0  0  0  0  0  0  0  0
  146.3580  152.7610  133.1000 N   0  0  0  0  0  0  0  0  0  0  0  0
  146.0310  153.5240  135.2650 O   0  0  0  0  0  0  0  0  0  0  0  0
  147.7150  155.6030  132.9720 N   0  0  0  0  0  0  0  0  0  0  0  0
  148.8340  154.8050  132.5520 C   0  0  0  0  0  0  0  0  0  0  0  0
  149.9790  155.3250  132.4580 O   0  0  0  0  0  0  0  0  0  0  0  0
  148.6420  153.4540  132.2390 O   0  0  0  0  0  0  0  0  0  0  0  0
  149.6090  152.4370  132.5010 C   0  0  0  0  0  0  0  0  0  0  0  0
  149.5710  151.3770  131.3970 C   0  0  0  0  0  0  0  0  0  0  0  0
  149.3050  151.8050  133.8590 C   0  0  0  0  0  0  0  0  0  0  0  0
  147.5610  156.9310  132.7780 C   0  0  0  0  0  0  0  0  0  0  0  0
  148.4270  157.8220  132.1320 C   0  0  0  0  0  0  0  0  0  0  0  0
  150.2946  161.6443  130.3536 H   0  0  0  0  0  0  0  0  0  0  0  0
  146.5635  160.6790  132.6043 H   0  0  0  0  0  0  0  0  0  0  0  0
  145.0700  159.0345  133.7897 H   0  0  0  0  0  0  0  0  0  0  0  0
  144.8434  156.2785  134.5125 H   0  0  0  0  0  0  0  0  0  0  0  0
  146.1720  151.7730  133.3850 H   0  0  0  0  0  0  0  0  0  0  0  0
  146.5330  152.9630  132.0910 H   0  0  0  0  0  0  0  0  0  0  0  0
  150.6169  152.8772  132.5191 H   0  0  0  0  0  0  0  0  0  0  0  0
  149.5351  150.3758  131.8511 H   0  0  0  0  0  0  0  0  0  0  0  0
  148.6777  151.5290  130.7733 H   0  0  0  0  0  0  0  0  0  0  0  0
  150.4729  151.4646  130.7733 H   0  0  0  0  0  0  0  0  0  0  0  0
  149.6315  152.4838  134.6607 H   0  0  0  0  0  0  0  0  0  0  0  0
  148.2230  151.6275  133.9468 H   0  0  0  0  0  0  0  0  0  0  0  0
  149.8417  150.8489  133.9468 H   0  0  0  0  0  0  0  0  0  0  0  0
  149.3687  157.4716  131.6843 H   0  0  0  0  0  0  0  0  0  0  0  0
  1  2  3  0
  2  3  1  0
  3  4  2  0
  4  5  1  0
  5  6  2  0
  6  7  1  0
  7  8  2  0
  8  9  1  0
  9 10  1  0
  9 11  2  0
  8 12  1  0
 12 13  1  0
 13 14  2  0
 13 15  1  0
 15 16  1  0
 16 17  1  0
 16 18  1  0
 12 19  1  0
 19 20  2  0
 20  3  1  0
 19  6  1  0
  1 21  1  0
  4 22  1  0
  5 23  1  0
  7 24  1  0
 10 25  1  0
 10 26  1  0
 16 27  1  0
 17 28  1  0
 17 29  1  0
 17 30  1  0
 18 31  1  0
 18 32  1  0
 18 33  1  0
 20 34  1  0
M  END
>  <UniqueID>  (58) 
57

>  <SMILES>  (58) 
C#Cc1ccc2cc(C(N)=O)n(C(=O)OC(C)C)c2c1

>  <Energy>  (58) 
64.64774323417093

>  <Genealogy>  (58) 
C#Cc1ccc2cc(C(N)=O)n(C(=O)OC(C)C)c2c1 (3D coordinates assigned)
C#Cc1ccc2cc(C(N)=O)n(C(=O)OC(C)C)c2c1 (optimized conformer: 64.64774323417093 kcal/mol)

>  <smiles>  (58) 
C#Cc1ccc2cc(C(N)=O)n(C(=O)OC(C)C)c2c1

>  <score_type>  (58) 
oracle

>  <origin>  (58) 
adg

>  <m_score__min__energy>  (58) 
-7.21

>  <m_primary>  (58) 
energy

$$$$
58:0
     RDKit          3D

 67 69  0  0  0  0  0  0  0  0999 V2000
  139.9000  150.7170  132.2270 C   0  0  0  0  0  0  0  0  0  0  0  0
  140.8160  150.4150  133.2720 O   0  0  0  0  0  0  0  0  0  0  0  0
  141.3730  151.3990  134.0950 C   0  0  0  0  0  0  0  0  0  0  0  0
  141.1070  151.4300  135.3290 O   0  0  0  0  0  0  0  0  0  0  0  0
  142.2720  152.4020  133.5160 C   0  0  0  0  0  0  0  0  0  0  0  0
  141.9330  153.6700  133.0760 C   0  0  0  0  0  0  0  0  0  0  0  0
  143.0420  154.2660  132.6060 N   0  0  0  0  0  0  0  0  0  0  0  0
  144.0630  153.4300  132.7340 N   0  0  0  0  0  0  0  0  0  0  0  0
  145.4260  153.7140  132.2900 C   0  0  0  0  0  0  0  0  0  0  0  0
  146.4160  153.6260  133.4560 C   0  0  0  0  0  0  0  0  0  0  0  0
  147.6570  154.5000  133.2250 C   0  0  0  0  0  0  0  0  0  0  0  0
  147.2880  155.9590  133.2700 C   0  0  0  0  0  0  0  0  0  0  0  0
  148.3040  156.9480  133.3060 C   0  0  0  0  0  0  0  0  0  0  0  0
  147.9730  158.3120  133.3790 C   0  0  0  0  0  0  0  0  0  0  0  0
  146.6250  158.6540  133.4310 C   0  0  0  0  0  0  0  0  0  0  0  0
  146.0290  159.8940  133.4820 C   0  0  0  0  0  0  0  0  0  0  0  0
  144.6590  159.6430  133.5080 C   0  0  0  0  0  0  0  0  0  0  0  0
  143.6380  160.7050  133.6230 C   0  0  0  0  0  0  0  0  0  0  0  0
  142.2810  160.4590  133.2580 N   0  0  0  0  0  0  0  0  0  0  0  0
  143.9570  161.8310  134.0900 O   0  0  0  0  0  0  0  0  0  0  0  0
  144.4150  158.3010  133.4750 N   0  0  0  0  0  0  0  0  0  0  0  0
  143.1360  157.6530  133.3720 C   0  0  0  0  0  0  0  0  0  0  0  0
  142.6590  157.3980  132.2330 O   0  0  0  0  0  0  0  0  0  0  0  0
  142.3730  157.2490  134.6020 C   0  0  0  0  0  0  0  0  0  0  0  0
  141.1140  158.0010  134.7010 N   0  0  0  0  0  0  0  0  0  0  0  0
  141.0090  159.1270  135.6320 C   0  0  0  0  0  0  0  0  0  0  0  0
  140.0160  157.7250  133.8100 C   0  0  0  0  0  0  0  0  0  0  0  0
  139.8300  156.5520  133.3860 O   0  0  0  0  0  0  0  0  0  0  0  0
  139.1670  158.7720  133.4150 O   0  0  0  0  0  0  0  0  0  0  0  0
  139.0990  159.3670  132.1100 C   0  0  0  0  0  0  0  0  0  0  0  0
  137.7590  158.9470  131.4880 C   0  0  0  0  0  0  0  0  0  0  0  0
  139.1380  160.9040  132.2210 C   0  0  0  0  0  0  0  0  0  0  0  0
  140.2460  158.8560  131.2140 C   0  0  0  0  0  0  0  0  0  0  0  0
  145.6300  157.7090  133.4250 C   0  0  0  0  0  0  0  0  0  0  0  0
  145.9310  156.3450  133.3290 C   0  0  0  0  0  0  0  0  0  0  0  0
  143.6300  152.2780  133.2830 C   0  0  0  0  0  0  0  0  0  0  0  0
  138.9400  151.0335  132.6610 H   0  0  0  0  0  0  0  0  0  0  0  0
  140.3069  151.5285  131.6059 H   0  0  0  0  0  0  0  0  0  0  0  0
  139.7445  149.8226  131.6059 H   0  0  0  0  0  0  0  0  0  0  0  0
  140.9271  154.1141  133.1060 H   0  0  0  0  0  0  0  0  0  0  0  0
  143.1010  155.2260  132.1980 H   0  0  0  0  0  0  0  0  0  0  0  0
  145.7125  152.9829  131.5196 H   0  0  0  0  0  0  0  0  0  0  0  0
  145.4551  154.7358  131.8836 H   0  0  0  0  0  0  0  0  0  0  0  0
  145.9125  153.9602  134.3752 H   0  0  0  0  0  0  0  0  0  0  0  0
  146.7480  152.5808  133.5412 H   0  0  0  0  0  0  0  0  0  0  0  0
  148.3993  154.2897  134.0090 H   0  0  0  0  0  0  0  0  0  0  0  0
  148.0767  154.2688  132.2349 H   0  0  0  0  0  0  0  0  0  0  0  0
  149.3609  156.6446  133.2765 H   0  0  0  0  0  0  0  0  0  0  0  0
  148.7552  159.0853  133.3945 H   0  0  0  0  0  0  0  0  0  0  0  0
  146.5282  160.8741  133.4987 H   0  0  0  0  0  0  0  0  0  0  0  0
  142.0280  159.6600  132.6360 H   0  0  0  0  0  0  0  0  0  0  0  0
  142.1484  156.1734  134.5509 H   0  0  0  0  0  0  0  0  0  0  0  0
  142.9872  157.4682  135.4879 H   0  0  0  0  0  0  0  0  0  0  0  0
  141.0439  158.7525  136.6657 H   0  0  0  0  0  0  0  0  0  0  0  0
  141.8464  159.8204  135.4647 H   0  0  0  0  0  0  0  0  0  0  0  0
  140.0579  159.6536  135.4647 H   0  0  0  0  0  0  0  0  0  0  0  0
  137.0383  158.7211  132.2878 H   0  0  0  0  0  0  0  0  0  0  0  0
  137.3709  159.7666  130.8654 H   0  0  0  0  0  0  0  0  0  0  0  0
  137.9081  158.0525  130.8654 H   0  0  0  0  0  0  0  0  0  0  0  0
  139.1454  161.1950  133.2818 H   0  0  0  0  0  0  0  0  0  0  0  0
  140.0461  161.2841  131.7302 H   0  0  0  0  0  0  0  0  0  0  0  0
  138.2504  161.3297  131.7302 H   0  0  0  0  0  0  0  0  0  0  0  0
  141.0689  158.4894  131.8452 H   0  0  0  0  0  0  0  0  0  0  0  0
  139.8780  158.0367  130.5789 H   0  0  0  0  0  0  0  0  0  0  0  0
  140.6090  159.6775  130.5789 H   0  0  0  0  0  0  0  0  0  0  0  0
  145.1296  155.5921  133.3002 H   0  0  0  0  0  0  0  0  0  0  0  0
  144.2472  151.3953  133.5064 H   0  0  0  0  0  0  0  0  0  0  0  0
  1  2  1  0
  2  3  1  0
  3  4  2  0
  3  5  1  0
  5  6  1  0
  6  7  2  0
  7  8  1  0
  8  9  1  0
  9 10  1  0
 10 11  1  0
 11 12  1  0
 12 13  2  0
 13 14  1  0
 14 15  2  0
 15 16  1  0
 16 17  2  0
 17 18  1  0
 18 19  1  0
 18 20  2  0
 17 21  1  0
 21 22  1  0
 22 23  2  0
 22 24  1  0
 24 25  1  0
 25 26  1  0
 25 27  1  0
 27 28  2  0
 27 29  1  0
 29 30  1  0
 30 31  1  0
 30 32  1  0
 30 33  1  0
 21 34  1  0
 34 35  2  0
  8 36  1  0
 36  5  2  0
 35 12  1  0
 34 15  1  0
  1 37  1  0
  1 38  1  0
  1 39  1  0
  6 40  1  0
  7 41  1  0
  9 42  1  0
  9 43  1  0
 10 44  1  0
 10 45  1  0
 11 46  1  0
 11 47  1  0
 13 48  1  0
 14 49  1  0
 16 50  1  0
 19 51  1  0
 24 52  1  0
 24 53  1  0
 26 54  1  0
 26 55  1  0
 26 56  1  0
 31 57  1  0
 31 58  1  0
 31 59  1  0
 32 60  1  0
 32 61  1  0
 32 62  1  0
 33 63  1  0
 33 64  1  0
 33 65  1  0
 35 66  1  0
 36 67  1  0
M  CHG  2   7   1  19  -1
M  END
>  <UniqueID>  (59) 
58

>  <SMILES>  (59) 
COC(=O)c1c[nH+]n(CCCc2ccc3cc(C([NH-])=O)n(C(=O)CN(C)C(=O)OC(C)(C)C)c3c2)c1

>  <Energy>  (59) 
121.37481104660047

>  <Genealogy>  (59) 
COC(=O)c1c[nH+]n(CCCc2ccc3cc(C([NH-])=O)n(C(=O)CN(C)C(=O)OC(C)(C)C)c3c2)c1 (protonated)
COC(=O)c1c[nH+]n(CCCc2ccc3cc(C([NH-])=O)n(C(=O)CN(C)C(=O)OC(C)(C)C)c3c2)c1 (3D coordinates assigned)
COC(=O)c1c[nH+]n(CCCc2ccc3cc(C([NH-])=O)n(C(=O)CN(C)C(=O)OC(C)(C)C)c3c2)c1 (optimized conformer: 121.37481104660047 kcal/mol)

>  <smiles>  (59) 
COC(=O)c1cnn(CCCc2ccc3cc(C(N)=O)n(C(=O)CN(C)C(=O)OC(C)(C)C)c3c2)c1

>  <score_type>  (59) 
oracle

>  <origin>  (59) 
adg

>  <m_score__min__energy>  (59) 
-8.8900000000000006

>  <m_primary>  (59) 
energy

$$$$
59:0
     RDKit          3D

 43 44  0  0  0  0  0  0  0  0999 V2000
  143.8890  153.3600  137.5270 C   0  0  0  0  0  0  0  0  0  0  0  0
  144.4020  154.0530  136.3520 N   0  0  0  0  0  0  0  0  0  0  0  0
  145.7880  154.0020  135.9920 C   0  0  0  0  0  0  0  0  0  0  0  0
  146.6090  153.3700  136.7110 O   0  0  0  0  0  0  0  0  0  0  0  0
  146.2800  154.7430  134.7860 C   0  0  0  0  0  0  0  0  0  0  0  0
  147.6700  154.2540  134.3850 C   0  0  0  0  0  0  0  0  0  0  0  0
  148.3610  155.3050  133.7440 O   0  0  0  0  0  0  0  0  0  0  0  0
  148.0970  156.5390  134.3850 C   0  0  0  0  0  0  0  0  0  0  0  0
  148.0750  157.6920  133.3760 C   0  0  0  0  0  0  0  0  0  0  0  0
  146.7980  157.7370  132.6590 N   0  0  0  0  0  0  0  0  0  0  0  0
  145.5650  158.2540  133.1970 C   0  0  0  0  0  0  0  0  0  0  0  0
  145.3340  159.6510  133.1540 C   0  0  0  0  0  0  0  0  0  0  0  0
  144.1520  160.2050  133.6700 C   0  0  0  0  0  0  0  0  0  0  0  0
  143.2070  159.3380  134.2090 C   0  0  0  0  0  0  0  0  0  0  0  0
  141.9890  159.6080  134.7880 C   0  0  0  0  0  0  0  0  0  0  0  0
  141.4690  158.3680  135.1470 C   0  0  0  0  0  0  0  0  0  0  0  0
  140.1200  158.1900  135.7250 C   0  0  0  0  0  0  0  0  0  0  0  0
  139.9360  158.2820  137.1360 N   0  0  0  0  0  0  0  0  0  0  0  0
  139.1200  157.9990  134.9840 O   0  0  0  0  0  0  0  0  0  0  0  0
  142.3340  157.3680  134.8110 N   0  0  0  0  0  0  0  0  0  0  0  0
  142.1950  155.9620  135.0760 C   0  0  0  0  0  0  0  0  0  0  0  0
  141.8540  155.5610  136.2200 O   0  0  0  0  0  0  0  0  0  0  0  0
  142.4090  155.0320  134.0660 O   0  0  0  0  0  0  0  0  0  0  0  0
  143.3940  157.9800  134.2350 C   0  0  0  0  0  0  0  0  0  0  0  0
  144.5730  157.4040  133.7460 C   0  0  0  0  0  0  0  0  0  0  0  0
  144.2574  153.8577  138.4362 H   0  0  0  0  0  0  0  0  0  0  0  0
  142.7893  153.3840  137.5158 H   0  0  0  0  0  0  0  0  0  0  0  0
  144.2331  152.3153  137.5158 H   0  0  0  0  0  0  0  0  0  0  0  0
  143.7380  154.6020  135.7610 H   0  0  0  0  0  0  0  0  0  0  0  0
  145.5836  154.5773  133.9508 H   0  0  0  0  0  0  0  0  0  0  0  0
  146.3369  155.8148  135.0270 H   0  0  0  0  0  0  0  0  0  0  0  0
  148.2241  153.9420  135.2826 H   0  0  0  0  0  0  0  0  0  0  0  0
  147.5790  153.3978  133.7004 H   0  0  0  0  0  0  0  0  0  0  0  0
  147.1194  156.4815  134.8860 H   0  0  0  0  0  0  0  0  0  0  0  0
  148.8960  156.7304  135.1164 H   0  0  0  0  0  0  0  0  0  0  0  0
  148.2206  158.6417  133.9116 H   0  0  0  0  0  0  0  0  0  0  0  0
  148.8821  157.5343  132.6455 H   0  0  0  0  0  0  0  0  0  0  0  0
  146.8080  157.4310  131.6600 H   0  0  0  0  0  0  0  0  0  0  0  0
  146.0927  160.3119  132.7094 H   0  0  0  0  0  0  0  0  0  0  0  0
  143.9783  161.2910  133.6488 H   0  0  0  0  0  0  0  0  0  0  0  0
  141.5247  160.5942  134.9358 H   0  0  0  0  0  0  0  0  0  0  0  0
  139.5170  159.1350  137.5690 H   0  0  0  0  0  0  0  0  0  0  0  0
  144.7257  156.3154  133.7872 H   0  0  0  0  0  0  0  0  0  0  0  0
  1  2  1  0
  2  3  1  0
  3  4  2  0
  3  5  1  0
  5  6  1  0
  6  7  1  0
  7  8  1  0
  8  9  1  0
  9 10  1  0
 10 11  1  0
 11 12  2  0
 12 13  1  0
 13 14  2  0
 14 15  1  0
 15 16  2  0
 16 17  1  0
 17 18  1  0
 17 19  2  0
 16 20  1  0
 20 21  1  0
 21 22  2  0
 21 23  1  0
 20 24  1  0
 24 25  2  0
 25 11  1  0
 24 14  1  0
  1 26  1  0
  1 27  1  0
  1 28  1  0
  2 29  1  0
  5 30  1  0
  5 31  1  0
  6 32  1  0
  6 33  1  0
  8 34  1  0
  8 35  1  0
  9 36  1  0
  9 37  1  0
 10 38  1  0
 12 39  1  0
 13 40  1  0
 15 41  1  0
 18 42  1  0
 25 43  1  0
M  CHG  2  18  -1  23  -1
M  END
>  <UniqueID>  (60) 
59

>  <SMILES>  (60) 
CNC(=O)CCOCCNc1ccc2cc(C([NH-])=O)n(C(=O)[O-])c2c1

>  <Energy>  (60) 
74.000933741412

>  <Genealogy>  (60) 
CNC(=O)CCOCCNc1ccc2cc(C([NH-])=O)n(C(=O)[O-])c2c1 (protonated)
CNC(=O)CCOCCNc1ccc2cc(C([NH-])=O)n(C(=O)[O-])c2c1 (3D coordinates assigned)
CNC(=O)CCOCCNc1ccc2cc(C([NH-])=O)n(C(=O)[O-])c2c1 (optimized conformer: 74.000933741412 kcal/mol)

>  <smiles>  (60) 
CNC(=O)CCOCCNc1ccc2cc(C(N)=O)n(C(=O)O)c2c1

>  <score_type>  (60) 
oracle

>  <origin>  (60) 
adg

>  <m_score__min__energy>  (60) 
-6.4699999999999998

>  <m_primary>  (60) 
energy

$$$$
60:0
     RDKit          3D

 50 52  0  0  0  0  0  0  0  0999 V2000
  149.6340  150.5950  132.1590 C   0  0  0  0  0  0  0  0  0  0  0  0
  148.2450  150.8990  132.5110 N   0  0  0  0  0  0  0  0  0  0  0  0
  148.0930  152.2750  133.0190 C   0  0  2  0  0  0  0  0  0  0  0  0
  146.6140  152.7550  132.9780 C   0  0  0  0  0  0  0  0  0  0  0  0
  146.4650  154.2810  132.8050 C   0  0  0  0  0  0  0  0  0  0  0  0
  147.6450  155.0390  133.4380 C   0  0  2  0  0  0  0  0  0  0  0  0
  147.4230  156.5400  133.4120 C   0  0  0  0  0  0  0  0  0  0  0  0
  148.5080  157.4330  133.2060 C   0  0  0  0  0  0  0  0  0  0  0  0
  148.3010  158.8220  133.1720 C   0  0  0  0  0  0  0  0  0  0  0  0
  147.0060  159.2930  133.3570 C   0  0  0  0  0  0  0  0  0  0  0  0
  146.5230  160.5810  133.3500 C   0  0  0  0  0  0  0  0  0  0  0  0
  145.1540  160.4650  133.5780 C   0  0  0  0  0  0  0  0  0  0  0  0
  144.2540  161.6270  133.7330 C   0  0  0  0  0  0  0  0  0  0  0  0
  142.8410  161.4400  133.6900 N   0  0  0  0  0  0  0  0  0  0  0  0
  144.7170  162.7900  133.8680 O   0  0  0  0  0  0  0  0  0  0  0  0
  144.8020  159.1540  133.7140 N   0  0  0  0  0  0  0  0  0  0  0  0
  143.4870  158.6080  133.9040 C   0  0  0  0  0  0  0  0  0  0  0  0
  142.6220  158.7190  132.9940 O   0  0  0  0  0  0  0  0  0  0  0  0
  143.1850  157.9260  135.0890 O   0  0  0  0  0  0  0  0  0  0  0  0
  141.8980  157.3850  135.3870 C   0  0  0  0  0  0  0  0  0  0  0  0
  140.9140  158.4920  135.7650 C   0  0  0  0  0  0  0  0  0  0  0  0
  141.5250  159.7510  135.6830 O   0  0  0  0  0  0  0  0  0  0  0  0
  145.9480  158.4500  133.5780 C   0  0  0  0  0  0  0  0  0  0  0  0
  146.1200  157.0610  133.5980 C   0  0  0  0  0  0  0  0  0  0  0  0
  148.9900  154.6540  132.7700 C   0  0  0  0  0  0  0  0  0  0  0  0
  149.0010  153.2160  132.2100 C   0  0  0  0  0  0  0  0  0  0  0  0
  150.2251  150.4656  133.0776 H   0  0  0  0  0  0  0  0  0  0  0  0
  149.6679  149.6682  131.5675 H   0  0  0  0  0  0  0  0  0  0  0  0
  150.0520  151.4229  131.5675 H   0  0  0  0  0  0  0  0  0  0  0  0
  147.9250  150.2150  133.2360 H   0  0  0  0  0  0  0  0  0  0  0  0
  148.3962  152.2898  134.0763 H   0  0  0  0  0  0  0  0  0  0  0  0
  146.1271  152.4625  133.9200 H   0  0  0  0  0  0  0  0  0  0  0  0
  146.1458  152.2835  132.1014 H   0  0  0  0  0  0  0  0  0  0  0  0
  145.5315  154.6058  133.2877 H   0  0  0  0  0  0  0  0  0  0  0  0
  146.4485  154.5060  131.7284 H   0  0  0  0  0  0  0  0  0  0  0  0
  147.7010  154.7342  134.4935 H   0  0  0  0  0  0  0  0  0  0  0  0
  149.5234  157.0319  133.0713 H   0  0  0  0  0  0  0  0  0  0  0  0
  149.1379  159.5158  133.0041 H   0  0  0  0  0  0  0  0  0  0  0  0
  147.0968  161.5069  133.1967 H   0  0  0  0  0  0  0  0  0  0  0  0
  142.4170  160.5040  133.8750 H   0  0  0  0  0  0  0  0  0  0  0  0
  141.5180  156.8521  134.5029 H   0  0  0  0  0  0  0  0  0  0  0  0
  141.9955  156.6961  136.2390 H   0  0  0  0  0  0  0  0  0  0  0  0
  140.0561  158.4621  135.0772 H   0  0  0  0  0  0  0  0  0  0  0  0
  140.5807  158.3288  136.8005 H   0  0  0  0  0  0  0  0  0  0  0  0
  142.0360  159.7670  134.8330 H   0  0  0  0  0  0  0  0  0  0  0  0
  145.2626  156.3899  133.7546 H   0  0  0  0  0  0  0  0  0  0  0  0
  149.7906  154.7436  133.5190 H   0  0  0  0  0  0  0  0  0  0  0  0
  149.1404  155.3367  131.9207 H   0  0  0  0  0  0  0  0  0  0  0  0
  150.0307  152.8303  132.2423 H   0  0  0  0  0  0  0  0  0  0  0  0
  148.6208  153.2506  131.1784 H   0  0  0  0  0  0  0  0  0  0  0  0
  1  2  1  0
  2  3  1  0
  3  4  1  0
  4  5  1  0
  5  6  1  0
  6  7  1  0
  7  8  2  0
  8  9  1  0
  9 10  2  0
 10 11  1  0
 11 12  2  0
 12 13  1  0
 13 14  1  0
 13 15  2  0
 12 16  1  0
 16 17  1  0
 17 18  2  0
 17 19  1  0
 19 20  1  0
 20 21  1  0
 21 22  1  0
 16 23  1  0
 23 24  2  0
  6 25  1  0
 25 26  1  0
 26  3  1  0
 24  7  1  0
 23 10  1  0
  1 27  1  0
  1 28  1  0
  1 29  1  0
  2 30  1  0
  3 31  1  1
  4 32  1  0
  4 33  1  0
  5 34  1  0
  5 35  1  0
  6 36  1  1
  8 37  1  0
  9 38  1  0
 11 39  1  0
 14 40  1  0
 20 41  1  0
 20 42  1  0
 21 43  1  0
 21 44  1  0
 22 45  1  0
 24 46  1  0
 25 47  1  0
 25 48  1  0
 26 49  1  0
 26 50  1  0
M  CHG  1  14  -1
M  END
>  <UniqueID>  (61) 
60

>  <SMILES>  (61) 
CNC1CCC(c2ccc3cc(C([NH-])=O)n(C(=O)OCCO)c3c2)CC1

>  <Energy>  (61) 
90.13665699154811

>  <Genealogy>  (61) 
CNC1CCC(c2ccc3cc(C([NH-])=O)n(C(=O)OCCO)c3c2)CC1 (protonated)
CNC1CCC(c2ccc3cc(C([NH-])=O)n(C(=O)OCCO)c3c2)CC1 (3D coordinates assigned)
CNC1CCC(c2ccc3cc(C([NH-])=O)n(C(=O)OCCO)c3c2)CC1 (nonaromatic ring conformer: 90.13665699154811 kcal/mol)

>  <smiles>  (61) 
CNC1CCC(c2ccc3cc(C(N)=O)n(C(=O)OCCO)c3c2)CC1

>  <score_type>  (61) 
oracle

>  <origin>  (61) 
adg

>  <m_score__min__energy>  (61) 
-8.1300000000000008

>  <m_primary>  (61) 
energy

$$$$
61:0
     RDKit          3D

 33 35  0  0  0  0  0  0  0  0999 V2000
  147.1630  160.6800  133.4210 N   0  0  0  0  0  0  0  0  0  0  0  0
  146.6910  159.3650  133.7180 C   0  0  0  0  0  0  0  0  0  0  0  0
  147.5170  158.4740  134.0520 O   0  0  0  0  0  0  0  0  0  0  0  0
  145.2630  159.0160  133.5810 C   0  0  0  0  0  0  0  0  0  0  0  0
  144.8110  157.7160  133.3760 C   0  0  0  0  0  0  0  0  0  0  0  0
  143.4460  157.8230  133.2400 C   0  0  0  0  0  0  0  0  0  0  0  0
  142.4890  156.8340  133.0390 C   0  0  0  0  0  0  0  0  0  0  0  0
  141.1410  157.2240  132.9820 C   0  0  0  0  0  0  0  0  0  0  0  0
  140.7770  158.5850  133.1270 C   0  0  0  0  0  0  0  0  0  0  0  0
  139.3250  158.9810  133.1180 C   0  0  0  0  0  0  0  0  0  0  0  0
  138.7980  159.0680  131.6800 C   0  0  0  0  0  0  0  0  0  0  0  0
  138.6430  157.8800  130.9550 O   0  0  0  0  0  0  0  0  0  0  0  0
  137.6930  160.0770  131.4220 C   0  0  0  0  0  0  0  0  0  0  0  0
  139.0900  160.3120  130.8550 C   0  0  0  0  0  0  0  0  0  0  0  0
  141.7760  159.5610  133.3410 C   0  0  0  0  0  0  0  0  0  0  0  0
  143.1140  159.1480  133.3720 C   0  0  0  0  0  0  0  0  0  0  0  0
  144.2200  159.8950  133.5860 N   0  0  0  0  0  0  0  0  0  0  0  0
  144.2640  161.3010  133.8810 C   0  0  0  0  0  0  0  0  0  0  0  0
  145.1760  161.7690  134.6130 O   0  0  0  0  0  0  0  0  0  0  0  0
  143.3010  162.1600  133.3650 O   0  0  0  0  0  0  0  0  0  0  0  0
  148.1690  160.9200  133.5600 H   0  0  0  0  0  0  0  0  0  0  0  0
  146.5360  161.3910  132.9820 H   0  0  0  0  0  0  0  0  0  0  0  0
  145.4160  156.7984  133.3321 H   0  0  0  0  0  0  0  0  0  0  0  0
  142.7790  155.7787  132.9281 H   0  0  0  0  0  0  0  0  0  0  0  0
  140.3606  156.4652  132.8232 H   0  0  0  0  0  0  0  0  0  0  0  0
  138.7421  158.2303  133.6718 H   0  0  0  0  0  0  0  0  0  0  0  0
  139.2236  159.9679  133.5932 H   0  0  0  0  0  0  0  0  0  0  0  0
  137.9410  158.0670  130.2800 H   0  0  0  0  0  0  0  0  0  0  0  0
  136.8616  159.8221  130.7484 H   0  0  0  0  0  0  0  0  0  0  0  0
  137.0029  160.6541  132.0550 H   0  0  0  0  0  0  0  0  0  0  0  0
  139.2666  160.2260  129.7727 H   0  0  0  0  0  0  0  0  0  0  0  0
  139.8258  161.1279  130.9093 H   0  0  0  0  0  0  0  0  0  0  0  0
  141.5095  160.6192  133.4799 H   0  0  0  0  0  0  0  0  0  0  0  0
  1  2  1  0
  2  3  2  0
  2  4  1  0
  4  5  2  0
  5  6  1  0
  6  7  2  0
  7  8  1  0
  8  9  2  0
  9 10  1  0
 10 11  1  0
 11 12  1  0
 11 13  1  0
 13 14  1  0
  9 15  1  0
 15 16  2  0
 16 17  1  0
 17 18  1  0
 18 19  2  0
 18 20  1  0
 17  4  1  0
 16  6  1  0
 14 11  1  0
  1 21  1  0
  1 22  1  0
  5 23  1  0
  7 24  1  0
  8 25  1  0
 10 26  1  0
 10 27  1  0
 12 28  1  0
 13 29  1  0
 13 30  1  0
 14 31  1  0
 14 32  1  0
 15 33  1  0
M  CHG  1  20  -1
M  END
>  <UniqueID>  (62) 
61

>  <SMILES>  (62) 
NC(=O)c1cc2ccc(CC3(O)CC3)cc2n1C(=O)[O-]

>  <Energy>  (62) 
339.8173227334887

>  <Genealogy>  (62) 
NC(=O)c1cc2ccc(CC3(O)CC3)cc2n1C(=O)[O-] (protonated)
NC(=O)c1cc2ccc(CC3(O)CC3)cc2n1C(=O)[O-] (3D coordinates assigned)
NC(=O)c1cc2ccc(CC3(O)CC3)cc2n1C(=O)[O-] (nonaromatic ring conformer: 339.8173227334887 kcal/mol)

>  <smiles>  (62) 
NC(=O)c1cc2ccc(CC3(O)CC3)cc2n1C(=O)O

>  <score_type>  (62) 
oracle

>  <origin>  (62) 
adg

>  <m_score__min__energy>  (62) 
-7.1600000000000001

>  <m_primary>  (62) 
energy

$$$$
62:0
     RDKit          3D

 29 31  0  0  0  0  0  0  0  0999 V2000
  141.3050  160.0840  135.3530 N   0  0  0  0  0  0  0  0  0  0  0  0
  141.9660  160.4900  134.1570 C   0  0  0  0  0  0  0  0  0  0  0  0
  141.3700  161.2600  133.3560 O   0  0  0  0  0  0  0  0  0  0  0  0
  143.3460  160.0500  133.8590 C   0  0  0  0  0  0  0  0  0  0  0  0
  144.4330  160.9180  133.7760 C   0  0  0  0  0  0  0  0  0  0  0  0
  145.5240  160.1140  133.5330 C   0  0  0  0  0  0  0  0  0  0  0  0
  146.8620  160.4500  133.3410 C   0  0  0  0  0  0  0  0  0  0  0  0
  147.7700  159.4110  133.0740 C   0  0  0  0  0  0  0  0  0  0  0  0
  147.3270  158.0660  132.9970 C   0  0  0  0  0  0  0  0  0  0  0  0
  148.2970  156.9600  132.6960 C   0  0  0  0  0  0  0  0  0  0  0  0
  148.4690  156.1730  133.8190 F   0  0  0  0  0  0  0  0  0  0  0  0
  149.5150  157.4960  132.3220 F   0  0  0  0  0  0  0  0  0  0  0  0
  145.9600  157.7650  133.1920 C   0  0  0  0  0  0  0  0  0  0  0  0
  145.0840  158.8180  133.4750 C   0  0  0  0  0  0  0  0  0  0  0  0
  143.7500  158.7610  133.6790 N   0  0  0  0  0  0  0  0  0  0  0  0
  142.9320  157.5840  133.6210 C   0  0  0  0  0  0  0  0  0  0  0  0
  143.1850  156.6890  132.7710 O   0  0  0  0  0  0  0  0  0  0  0  0
  141.8000  157.4120  134.5420 C   0  0  0  0  0  0  0  0  0  0  0  0
  141.9390  157.2070  135.8680 N   0  0  0  0  0  0  0  0  0  0  0  0
  140.6550  157.1020  136.2600 C   0  0  0  0  0  0  0  0  0  0  0  0
  139.8360  157.2300  135.2450 O   0  0  0  0  0  0  0  0  0  0  0  0
  140.5110  157.4240  134.1540 N   0  0  0  0  0  0  0  0  0  0  0  0
  140.9380  159.1130  135.4620 H   0  0  0  0  0  0  0  0  0  0  0  0
  144.4218  162.0128  133.8821 H   0  0  0  0  0  0  0  0  0  0  0  0
  147.1976  161.4961  133.3966 H   0  0  0  0  0  0  0  0  0  0  0  0
  148.8346  159.6433  132.9233 H   0  0  0  0  0  0  0  0  0  0  0  0
  147.8991  156.3461  131.8745 H   0  0  0  0  0  0  0  0  0  0  0  0
  145.5946  156.7298  133.1230 H   0  0  0  0  0  0  0  0  0  0  0  0
  140.3349  156.9309  137.2984 H   0  0  0  0  0  0  0  0  0  0  0  0
  1  2  1  0
  2  3  2  0
  2  4  1  0
  4  5  2  0
  5  6  1  0
  6  7  2  0
  7  8  1  0
  8  9  2  0
  9 10  1  0
 10 11  1  0
 10 12  1  0
  9 13  1  0
 13 14  2  0
 14 15  1  0
 15 16  1  0
 16 17  2  0
 16 18  1  0
 18 19  1  0
 19 20  2  0
 20 21  1  0
 21 22  1  0
 15  4  1  0
 22 18  2  0
 14  6  1  0
  1 23  1  0
  5 24  1  0
  7 25  1  0
  8 26  1  0
 10 27  1  0
 13 28  1  0
 20 29  1  0
M  CHG  1   1  -1
M  END
>  <UniqueID>  (63) 
62

>  <SMILES>  (63) 
[NH-]C(=O)c1cc2ccc(C(F)F)cc2n1C(=O)c1ncon1

>  <Energy>  (63) 
103.18291974955224

>  <Genealogy>  (63) 
[NH-]C(=O)c1cc2ccc(C(F)F)cc2n1C(=O)c1ncon1 (protonated)
[NH-]C(=O)c1cc2ccc(C(F)F)cc2n1C(=O)c1ncon1 (3D coordinates assigned)
[NH-]C(=O)c1cc2ccc(C(F)F)cc2n1C(=O)c1ncon1 (optimized conformer: 103.18291974955224 kcal/mol)

>  <smiles>  (63) 
NC(=O)c1cc2ccc(C(F)F)cc2n1C(=O)c1ncon1

>  <score_type>  (63) 
oracle

>  <origin>  (63) 
adg

>  <m_score__min__energy>  (63) 
-6.3300000000000001

>  <m_primary>  (63) 
energy

$$$$
63:0
     RDKit          3D

 30 31  0  0  0  0  0  0  0  0999 V2000
  148.4960  160.8460  131.0870 C   0  0  0  0  0  0  0  0  0  0  0  0
  149.0120  159.5330  130.9070 O   0  0  0  0  0  0  0  0  0  0  0  0
  149.3650  158.7090  131.9800 C   0  0  0  0  0  0  0  0  0  0  0  0
  150.3240  157.8980  131.8750 O   0  0  0  0  0  0  0  0  0  0  0  0
  148.6180  158.8050  133.2420 C   0  0  0  0  0  0  0  0  0  0  0  0
  149.2180  159.1590  134.2930 O   0  0  0  0  0  0  0  0  0  0  0  0
  147.2150  158.5000  133.2940 N   0  0  0  0  0  0  0  0  0  0  0  0
  146.6290  157.2740  133.2020 C   0  0  0  0  0  0  0  0  0  0  0  0
  147.3300  156.0020  132.9250 C   0  0  0  0  0  0  0  0  0  0  0  0
  148.7260  155.8860  133.1950 N   0  0  0  0  0  0  0  0  0  0  0  0
  146.7050  155.0080  132.4690 O   0  0  0  0  0  0  0  0  0  0  0  0
  145.2480  157.3810  133.3590 C   0  0  0  0  0  0  0  0  0  0  0  0
  145.0080  158.7220  133.5570 C   0  0  0  0  0  0  0  0  0  0  0  0
  143.8120  159.3920  133.8000 C   0  0  0  0  0  0  0  0  0  0  0  0
  143.8660  160.7800  134.0080 C   0  0  0  0  0  0  0  0  0  0  0  0
  145.1030  161.4750  133.9630 C   0  0  0  0  0  0  0  0  0  0  0  0
  145.1540  162.9550  134.2490 C   0  0  0  0  0  0  0  0  0  0  0  0
  146.3160  163.5100  133.7410 F   0  0  0  0  0  0  0  0  0  0  0  0
  145.1220  163.1900  135.6130 F   0  0  0  0  0  0  0  0  0  0  0  0
  144.0640  163.5690  133.6600 F   0  0  0  0  0  0  0  0  0  0  0  0
  146.2980  160.7530  133.7400 C   0  0  0  0  0  0  0  0  0  0  0  0
  146.2110  159.3750  133.5170 C   0  0  0  0  0  0  0  0  0  0  0  0
  148.4110  161.0623  132.1622 H   0  0  0  0  0  0  0  0  0  0  0  0
  149.1749  161.5741  130.6190 H   0  0  0  0  0  0  0  0  0  0  0  0
  147.5031  160.9171  130.6190 H   0  0  0  0  0  0  0  0  0  0  0  0
  149.3030  156.7310  133.4040 H   0  0  0  0  0  0  0  0  0  0  0  0
  144.5080  156.5676  133.3307 H   0  0  0  0  0  0  0  0  0  0  0  0
  142.8546  158.8511  133.8282 H   0  0  0  0  0  0  0  0  0  0  0  0
  142.9380  161.3356  134.2083 H   0  0  0  0  0  0  0  0  0  0  0  0
  147.2727  161.2628  133.7419 H   0  0  0  0  0  0  0  0  0  0  0  0
  1  2  1  0
  2  3  1  0
  3  4  2  0
  3  5  1  0
  5  6  2  0
  5  7  1  0
  7  8  1  0
  8  9  1  0
  9 10  1  0
  9 11  2  0
  8 12  2  0
 12 13  1  0
 13 14  2  0
 14 15  1  0
 15 16  2  0
 16 17  1  0
 17 18  1  0
 17 19  1  0
 17 20  1  0
 16 21  1  0
 21 22  2  0
 22  7  1  0
 22 13  1  0
  1 23  1  0
  1 24  1  0
  1 25  1  0
 10 26  1  0
 12 27  1  0
 14 28  1  0
 15 29  1  0
 21 30  1  0
M  CHG  1  10  -1
M  END
>  <UniqueID>  (64) 
63

>  <SMILES>  (64) 
COC(=O)C(=O)n1c(C([NH-])=O)cc2ccc(C(F)(F)F)cc21

>  <Energy>  (64) 
67.59419208868043

>  <Genealogy>  (64) 
COC(=O)C(=O)n1c(C([NH-])=O)cc2ccc(C(F)(F)F)cc21 (protonated)
COC(=O)C(=O)n1c(C([NH-])=O)cc2ccc(C(F)(F)F)cc21 (3D coordinates assigned)
COC(=O)C(=O)n1c(C([NH-])=O)cc2ccc(C(F)(F)F)cc21 (optimized conformer: 67.59419208868043 kcal/mol)

>  <smiles>  (64) 
COC(=O)C(=O)n1c(C(N)=O)cc2ccc(C(F)(F)F)cc21

>  <score_type>  (64) 
oracle

>  <origin>  (64) 
adg

>  <m_score__min__energy>  (64) 
-5.4000000000000004

>  <m_primary>  (64) 
energy

$$$$
64:0
     RDKit          3D

 35 36  0  0  0  0  0  0  0  0999 V2000
  142.5540  160.4830  133.1790 N   0  0  0  0  0  0  0  0  0  0  0  0
  143.9040  160.6990  133.5830 C   0  0  0  0  0  0  0  0  0  0  0  0
  144.2420  161.8290  134.0250 O   0  0  0  0  0  0  0  0  0  0  0  0
  144.8950  159.6100  133.4510 C   0  0  0  0  0  0  0  0  0  0  0  0
  146.2440  159.8220  133.1750 C   0  0  0  0  0  0  0  0  0  0  0  0
  146.8220  158.5720  133.1970 C   0  0  0  0  0  0  0  0  0  0  0  0
  148.1380  158.1890  132.9590 C   0  0  0  0  0  0  0  0  0  0  0  0
  148.4450  156.8180  133.0070 C   0  0  0  0  0  0  0  0  0  0  0  0
  147.4400  155.8590  133.2990 C   0  0  0  0  0  0  0  0  0  0  0  0
  147.7670  154.3880  133.2860 C   0  0  0  0  0  0  0  0  0  0  0  0
  148.9110  154.1830  132.5380 F   0  0  0  0  0  0  0  0  0  0  0  0
  146.7290  153.6610  132.7310 F   0  0  0  0  0  0  0  0  0  0  0  0
  147.9800  153.9240  134.5730 F   0  0  0  0  0  0  0  0  0  0  0  0
  146.1090  156.2880  133.5100 C   0  0  0  0  0  0  0  0  0  0  0  0
  145.8380  157.6610  133.4760 C   0  0  0  0  0  0  0  0  0  0  0  0
  144.6500  158.2830  133.6360 N   0  0  0  0  0  0  0  0  0  0  0  0
  143.3870  157.6460  133.8870 C   0  0  0  0  0  0  0  0  0  0  0  0
  143.2670  156.8670  134.8710 O   0  0  0  0  0  0  0  0  0  0  0  0
  142.2700  157.9060  133.0260 N   0  0  0  0  0  0  0  0  0  0  0  0
  140.9000  157.5080  133.3620 C   0  0  1  0  0  0  0  0  0  0  0  0
  139.8970  158.2910  132.5020 C   0  0  0  0  0  0  0  0  0  0  0  0
  140.5560  158.9580  131.4590 O   0  0  0  0  0  0  0  0  0  0  0  0
  140.7320  156.0300  133.1520 C   0  0  0  0  0  0  0  0  0  0  0  0
  141.7000  155.2430  133.3360 O   0  0  0  0  0  0  0  0  0  0  0  0
  139.5040  155.5200  132.7500 O   0  0  0  0  0  0  0  0  0  0  0  0
  142.3320  160.0800  132.2420 H   0  0  0  0  0  0  0  0  0  0  0  0
  146.7418  160.7835  132.9808 H   0  0  0  0  0  0  0  0  0  0  0  0
  148.9149  158.9363  132.7399 H   0  0  0  0  0  0  0  0  0  0  0  0
  149.4757  156.4846  132.8161 H   0  0  0  0  0  0  0  0  0  0  0  0
  145.3057  155.5600  133.6964 H   0  0  0  0  0  0  0  0  0  0  0  0
  142.4220  158.5240  132.1960 H   0  0  0  0  0  0  0  0  0  0  0  0
  140.7066  157.7386  134.4200 H   0  0  0  0  0  0  0  0  0  0  0  0
  139.1623  157.5916  132.0766 H   0  0  0  0  0  0  0  0  0  0  0  0
  139.3918  159.0350  133.1354 H   0  0  0  0  0  0  0  0  0  0  0  0
  141.3650  159.3770  131.8560 H   0  0  0  0  0  0  0  0  0  0  0  0
  1  2  1  0
  2  3  2  0
  2  4  1  0
  4  5  2  0
  5  6  1  0
  6  7  2  0
  7  8  1  0
  8  9  2  0
  9 10  1  0
 10 11  1  0
 10 12  1  0
 10 13  1  0
  9 14  1  0
 14 15  2  0
 15 16  1  0
 16 17  1  0
 17 18  2  0
 17 19  1  0
 19 20  1  0
 20 21  1  0
 21 22  1  0
 20 23  1  0
 23 24  2  0
 23 25  1  0
 16  4  1  0
 15  6  1  0
  1 26  1  0
  5 27  1  0
  7 28  1  0
  8 29  1  0
 14 30  1  0
 19 31  1  0
 20 32  1  1
 21 33  1  0
 21 34  1  0
 22 35  1  0
M  CHG  2   1  -1  25  -1
M  END
>  <UniqueID>  (65) 
64

>  <SMILES>  (65) 
[NH-]C(=O)c1cc2ccc(C(F)(F)F)cc2n1C(=O)N[C@@H](CO)C(=O)[O-]

>  <Energy>  (65) 
71.11314109812153

>  <Genealogy>  (65) 
[NH-]C(=O)c1cc2ccc(C(F)(F)F)cc2n1C(=O)N[C@@H](CO)C(=O)[O-] (protonated)
[NH-]C(=O)c1cc2ccc(C(F)(F)F)cc2n1C(=O)N[C@@H](CO)C(=O)[O-] (3D coordinates assigned)
[NH-]C(=O)c1cc2ccc(C(F)(F)F)cc2n1C(=O)N[C@@H](CO)C(=O)[O-] (optimized conformer: 71.11314109812153 kcal/mol)

>  <smiles>  (65) 
NC(=O)c1cc2ccc(C(F)(F)F)cc2n1C(=O)N[C@@H](CO)C(=O)O

>  <score_type>  (65) 
oracle

>  <origin>  (65) 
adg

>  <m_score__min__energy>  (65) 
-6.0300000000000002

>  <m_primary>  (65) 
energy

$$$$
65:0
     RDKit          3D

 49 51  0  0  0  0  0  0  0  0999 V2000
  144.3630  154.4830  130.9420 C   0  0  0  0  0  0  0  0  0  0  0  0
  144.6190  155.1030  132.1960 O   0  0  0  0  0  0  0  0  0  0  0  0
  145.7760  154.8540  132.9410 C   0  0  0  0  0  0  0  0  0  0  0  0
  145.7860  153.9570  133.8280 O   0  0  0  0  0  0  0  0  0  0  0  0
  147.0000  155.6960  132.7330 C   0  0  0  0  0  0  0  0  0  0  0  0
  147.0840  156.8120  133.7350 C   0  0  0  0  0  0  0  0  0  0  0  0
  147.8070  156.6700  134.7590 O   0  0  0  0  0  0  0  0  0  0  0  0
  146.3030  158.0080  133.5790 N   0  0  0  0  0  0  0  0  0  0  0  0
  146.7340  159.2220  133.1310 C   0  0  0  0  0  0  0  0  0  0  0  0
  148.1410  159.5940  132.8660 C   0  0  0  0  0  0  0  0  0  0  0  0
  149.1680  159.1730  133.7600 N   0  0  0  0  0  0  0  0  0  0  0  0
  148.4480  160.2620  131.8430 O   0  0  0  0  0  0  0  0  0  0  0  0
  145.6660  160.1060  133.0010 C   0  0  0  0  0  0  0  0  0  0  0  0
  144.5540  159.3910  133.3820 C   0  0  0  0  0  0  0  0  0  0  0  0
  143.2150  159.7700  133.4150 C   0  0  0  0  0  0  0  0  0  0  0  0
  142.2680  158.8100  133.8070 C   0  0  0  0  0  0  0  0  0  0  0  0
  142.6730  157.4970  134.1550 C   0  0  0  0  0  0  0  0  0  0  0  0
  141.6490  156.4620  134.5530 C   0  0  0  0  0  0  0  0  0  0  0  0
  141.7970  155.1460  133.7580 C   0  0  0  0  0  0  0  0  0  0  0  0
  142.7150  154.1660  134.3900 N   0  0  1  0  0  0  0  0  0  0  0  0
  142.9570  154.5360  135.7990 C   0  0  0  0  0  0  0  0  0  0  0  0
  142.2750  152.7580  134.1520 C   0  0  0  0  0  0  0  0  0  0  0  0
  142.9620  152.0230  133.0040 C   0  0  0  0  0  0  0  0  0  0  0  0
  141.4930  152.4030  132.8820 C   0  0  0  0  0  0  0  0  0  0  0  0
  144.0410  157.1530  134.1160 C   0  0  0  0  0  0  0  0  0  0  0  0
  144.9650  158.1300  133.7280 C   0  0  0  0  0  0  0  0  0  0  0  0
  143.9480  153.4779  131.1078 H   0  0  0  0  0  0  0  0  0  0  0  0
  143.6413  155.0886  130.3741 H   0  0  0  0  0  0  0  0  0  0  0  0
  145.3017  154.4030  130.3741 H   0  0  0  0  0  0  0  0  0  0  0  0
  147.8916  155.0595  132.8328 H   0  0  0  0  0  0  0  0  0  0  0  0
  146.9434  156.1408  131.7285 H   0  0  0  0  0  0  0  0  0  0  0  0
  149.2210  158.1840  134.0890 H   0  0  0  0  0  0  0  0  0  0  0  0
  145.7034  161.1528  132.6653 H   0  0  0  0  0  0  0  0  0  0  0  0
  142.9080  160.7905  133.1423 H   0  0  0  0  0  0  0  0  0  0  0  0
  141.2022  159.0794  133.8444 H   0  0  0  0  0  0  0  0  0  0  0  0
  141.7679  156.2421  135.6242 H   0  0  0  0  0  0  0  0  0  0  0  0
  140.6537  156.8751  134.3325 H   0  0  0  0  0  0  0  0  0  0  0  0
  140.8038  154.6822  133.6665 H   0  0  0  0  0  0  0  0  0  0  0  0
  142.2301  155.4079  132.7814 H   0  0  0  0  0  0  0  0  0  0  0  0
  143.6460  154.2570  133.9200 H   0  0  0  0  0  0  0  0  0  0  0  0
  142.4754  153.7997  136.4593 H   0  0  0  0  0  0  0  0  0  0  0  0
  144.0396  154.5503  135.9936 H   0  0  0  0  0  0  0  0  0  0  0  0
  142.5363  155.5336  135.9936 H   0  0  0  0  0  0  0  0  0  0  0  0
  142.0982  152.5851  135.2238 H   0  0  0  0  0  0  0  0  0  0  0  0
  143.7157  152.5415  132.3932 H   0  0  0  0  0  0  0  0  0  0  0  0
  143.5308  151.0859  132.9131 H   0  0  0  0  0  0  0  0  0  0  0  0
  141.1861  153.1967  132.1850 H   0  0  0  0  0  0  0  0  0  0  0  0
  140.5629  151.8560  132.6683 H   0  0  0  0  0  0  0  0  0  0  0  0
  144.3738  156.1395  134.3846 H   0  0  0  0  0  0  0  0  0  0  0  0
  1  2  1  0
  2  3  1  0
  3  4  2  0
  3  5  1  0
  5  6  1  0
  6  7  2  0
  6  8  1  0
  8  9  1  0
  9 10  1  0
 10 11  1  0
 10 12  2  0
  9 13  2  0
 13 14  1  0
 14 15  2  0
 15 16  1  0
 16 17  2  0
 17 18  1  0
 18 19  1  0
 19 20  1  0
 20 21  1  0
 20 22  1  0
 22 23  1  0
 23 24  1  0
 17 25  1  0
 25 26  2  0
 26  8  1  0
 26 14  1  0
 24 22  1  0
  1 27  1  0
  1 28  1  0
  1 29  1  0
  5 30  1  0
  5 31  1  0
 11 32  1  0
 13 33  1  0
 15 34  1  0
 16 35  1  0
 18 36  1  0
 18 37  1  0
 19 38  1  0
 19 39  1  0
 20 40  1  6
 21 41  1  0
 21 42  1  0
 21 43  1  0
 22 44  1  0
 23 45  1  0
 23 46  1  0
 24 47  1  0
 24 48  1  0
 25 49  1  0
M  CHG  2  11  -1  20   1
M  END
>  <UniqueID>  (66) 
65

>  <SMILES>  (66) 
COC(=O)CC(=O)n1c(C([NH-])=O)cc2ccc(CC[N@@H+](C)C3CC3)cc21

>  <Energy>  (66) 
359.1707589191462

>  <Genealogy>  (66) 
COC(=O)CC(=O)n1c(C([NH-])=O)cc2ccc(CC[NH+](C)C3CC3)cc21 (protonated)
COC(=O)CC(=O)n1c(C([NH-])=O)cc2ccc(CC[N@@H+](C)C3CC3)cc21 (chirality)
COC(=O)CC(=O)n1c(C([NH-])=O)cc2ccc(CC[N@@H+](C)C3CC3)cc21 (3D coordinates assigned)
COC(=O)CC(=O)n1c(C([NH-])=O)cc2ccc(CC[N@@H+](C)C3CC3)cc21 (nonaromatic ring conformer: 359.1707589191462 kcal/mol)

>  <smiles>  (66) 
COC(=O)CC(=O)n1c(C(N)=O)cc2ccc(CCN(C)C3CC3)cc21

>  <score_type>  (66) 
oracle

>  <origin>  (66) 
adg

>  <m_score__min__energy>  (66) 
-6.8300000000000001

>  <m_primary>  (66) 
energy

$$$$
66:0
     RDKit          3D

 57 59  0  0  0  0  0  0  0  0999 V2000
  148.8320  150.6920  131.9710 C   0  0  0  0  0  0  0  0  0  0  0  0
  148.5050  151.7760  132.9120 N   0  0  0  0  0  0  0  0  0  0  0  0
  149.5960  152.7830  132.9790 C   0  0  0  0  0  0  0  0  0  0  0  0
  149.2290  154.1340  132.3470 C   0  0  0  0  0  0  0  0  0  0  0  0
  147.9730  154.6360  132.9200 N   0  0  0  0  0  0  0  0  0  0  0  0
  147.7240  156.0560  133.0250 C   0  0  0  0  0  0  0  0  0  0  0  0
  148.7950  156.9820  132.9140 C   0  0  0  0  0  0  0  0  0  0  0  0
  148.5650  158.3640  133.0050 C   0  0  0  0  0  0  0  0  0  0  0  0
  147.2610  158.7960  133.2170 C   0  0  0  0  0  0  0  0  0  0  0  0
  146.7570  160.0730  133.3210 C   0  0  0  0  0  0  0  0  0  0  0  0
  145.3880  159.9140  133.5230 C   0  0  0  0  0  0  0  0  0  0  0  0
  144.4660  161.0410  133.7800 C   0  0  0  0  0  0  0  0  0  0  0  0
  143.0530  160.8640  133.7090 N   0  0  0  0  0  0  0  0  0  0  0  0
  144.9310  162.1630  134.1140 O   0  0  0  0  0  0  0  0  0  0  0  0
  145.0560  158.5920  133.5300 N   0  0  0  0  0  0  0  0  0  0  0  0
  143.7470  158.0120  133.6270 C   0  0  0  0  0  0  0  0  0  0  0  0
  143.2400  157.4350  132.6280 O   0  0  0  0  0  0  0  0  0  0  0  0
  143.0490  158.0730  134.8400 O   0  0  0  0  0  0  0  0  0  0  0  0
  142.2120  157.0210  135.3160 C   0  0  0  0  0  0  0  0  0  0  0  0
  140.7630  157.5040  135.4300 C   0  0  0  0  0  0  0  0  0  0  0  0
  140.6050  158.9150  134.8230 C   0  0  0  0  0  0  0  0  0  0  0  0
  140.8410  158.9850  133.3600 N   0  0  0  0  0  0  0  0  0  0  0  0
  140.2750  160.2020  132.7510 C   0  0  0  0  0  0  0  0  0  0  0  0
  140.3740  157.7780  132.6520 C   0  0  0  0  0  0  0  0  0  0  0  0
  146.2150  157.9210  133.3450 C   0  0  0  0  0  0  0  0  0  0  0  0
  146.4110  156.5400  133.2410 C   0  0  0  0  0  0  0  0  0  0  0  0
  146.9380  153.6710  133.3120 C   0  0  0  0  0  0  0  0  0  0  0  0
  147.1660  152.3300  132.6080 C   0  0  0  0  0  0  0  0  0  0  0  0
  149.1049  149.7874  132.5342 H   0  0  0  0  0  0  0  0  0  0  0  0
  147.9578  150.4800  131.3378 H   0  0  0  0  0  0  0  0  0  0  0  0
  149.6776  150.9987  131.3378 H   0  0  0  0  0  0  0  0  0  0  0  0
  149.8487  152.9514  134.0363 H   0  0  0  0  0  0  0  0  0  0  0  0
  150.4424  152.3787  132.4044 H   0  0  0  0  0  0  0  0  0  0  0  0
  150.0334  154.8580  132.5438 H   0  0  0  0  0  0  0  0  0  0  0  0
  149.1016  154.0009  131.2625 H   0  0  0  0  0  0  0  0  0  0  0  0
  149.8184  156.6115  132.7546 H   0  0  0  0  0  0  0  0  0  0  0  0
  149.3919  159.0833  132.9114 H   0  0  0  0  0  0  0  0  0  0  0  0
  147.3165  161.0180  133.2580 H   0  0  0  0  0  0  0  0  0  0  0  0
  142.6250  159.9160  133.8030 H   0  0  0  0  0  0  0  0  0  0  0  0
  142.2583  156.1750  134.6145 H   0  0  0  0  0  0  0  0  0  0  0  0
  142.5633  156.7065  136.3098 H   0  0  0  0  0  0  0  0  0  0  0  0
  140.1065  156.8045  134.8918 H   0  0  0  0  0  0  0  0  0  0  0  0
  140.4884  157.5457  136.4943 H   0  0  0  0  0  0  0  0  0  0  0  0
  139.5806  159.2623  135.0228 H   0  0  0  0  0  0  0  0  0  0  0  0
  141.3726  159.5463  135.2944 H   0  0  0  0  0  0  0  0  0  0  0  0
  141.8800  159.0320  133.2270 H   0  0  0  0  0  0  0  0  0  0  0  0
  139.9535  160.8933  133.5439 H   0  0  0  0  0  0  0  0  0  0  0  0
  141.0389  160.6892  132.1273 H   0  0  0  0  0  0  0  0  0  0  0  0
  139.4102  159.9317  132.1273 H   0  0  0  0  0  0  0  0  0  0  0  0
  140.0783  157.0138  133.3859 H   0  0  0  0  0  0  0  0  0  0  0  0
  139.5101  158.0342  132.0211 H   0  0  0  0  0  0  0  0  0  0  0  0
  141.1854  157.3860  132.0211 H   0  0  0  0  0  0  0  0  0  0  0  0
  145.5629  155.8445  133.3252 H   0  0  0  0  0  0  0  0  0  0  0  0
  146.9766  153.5201  134.4009 H   0  0  0  0  0  0  0  0  0  0  0  0
  145.9533  154.0649  133.0202 H   0  0  0  0  0  0  0  0  0  0  0  0
  146.3995  151.6158  132.9434 H   0  0  0  0  0  0  0  0  0  0  0  0
  147.1003  152.4955  131.5225 H   0  0  0  0  0  0  0  0  0  0  0  0
  1  2  1  0
  2  3  1  0
  3  4  1  0
  4  5  1  0
  5  6  1  0
  6  7  2  0
  7  8  1  0
  8  9  2  0
  9 10  1  0
 10 11  2  0
 11 12  1  0
 12 13  1  0
 12 14  2  0
 11 15  1  0
 15 16  1  0
 16 17  2  0
 16 18  1  0
 18 19  1  0
 19 20  1  0
 20 21  1  0
 21 22  1  0
 22 23  1  0
 22 24  1  0
 15 25  1  0
 25 26  2  0
  5 27  1  0
 27 28  1  0
 28  2  1  0
 26  6  1  0
 25  9  1  0
  1 29  1  0
  1 30  1  0
  1 31  1  0
  3 32  1  0
  3 33  1  0
  4 34  1  0
  4 35  1  0
  7 36  1  0
  8 37  1  0
 10 38  1  0
 13 39  1  0
 19 40  1  0
 19 41  1  0
 20 42  1  0
 20 43  1  0
 21 44  1  0
 21 45  1  0
 22 46  1  0
 23 47  1  0
 23 48  1  0
 23 49  1  0
 24 50  1  0
 24 51  1  0
 24 52  1  0
 26 53  1  0
 27 54  1  0
 27 55  1  0
 28 56  1  0
 28 57  1  0
M  CHG  2  13  -1  22   1
M  END
>  <UniqueID>  (67) 
66

>  <SMILES>  (67) 
CN1CCN(c2ccc3cc(C([NH-])=O)n(C(=O)OCCC[NH+](C)C)c3c2)CC1

>  <Energy>  (67) 
103.73654016806935

>  <Genealogy>  (67) 
CN1CCN(c2ccc3cc(C([NH-])=O)n(C(=O)OCCC[NH+](C)C)c3c2)CC1 (protonated)
CN1CCN(c2ccc3cc(C([NH-])=O)n(C(=O)OCCC[NH+](C)C)c3c2)CC1 (3D coordinates assigned)
CN1CCN(c2ccc3cc(C([NH-])=O)n(C(=O)OCCC[NH+](C)C)c3c2)CC1 (nonaromatic ring conformer: 103.73654016806935 kcal/mol)

>  <smiles>  (67) 
CN(C)CCCOC(=O)n1c(C(N)=O)cc2ccc(N3CCN(C)CC3)cc21

>  <score_type>  (67) 
oracle

>  <origin>  (67) 
adg

>  <m_score__min__energy>  (67) 
-6.6299999999999999

>  <m_primary>  (67) 
energy

$$$$
67:0
     RDKit          3D

 54 55  0  0  0  0  0  0  0  0999 V2000
  143.8110  155.3230  132.8030 C   0  0  0  0  0  0  0  0  0  0  0  0
  144.9600  156.1570  132.7070 O   0  0  0  0  0  0  0  0  0  0  0  0
  145.4330  156.9150  133.7810 C   0  0  0  0  0  0  0  0  0  0  0  0
  145.8110  156.3450  134.8420 O   0  0  0  0  0  0  0  0  0  0  0  0
  145.4860  158.3480  133.6800 N   0  0  0  0  0  0  0  0  0  0  0  0
  146.5970  159.1390  133.6860 C   0  0  0  0  0  0  0  0  0  0  0  0
  147.9950  158.6690  133.6330 C   0  0  0  0  0  0  0  0  0  0  0  0
  148.4570  157.6250  134.4900 N   0  0  0  0  0  0  0  0  0  0  0  0
  148.7800  159.1590  132.7780 O   0  0  0  0  0  0  0  0  0  0  0  0
  146.2410  160.4850  133.6990 C   0  0  0  0  0  0  0  0  0  0  0  0
  144.8660  160.4980  133.6870 C   0  0  0  0  0  0  0  0  0  0  0  0
  143.9820  161.5710  133.7090 C   0  0  0  0  0  0  0  0  0  0  0  0
  142.6060  161.2940  133.7310 C   0  0  0  0  0  0  0  0  0  0  0  0
  142.1350  159.9520  133.7390 C   0  0  0  0  0  0  0  0  0  0  0  0
  140.7300  159.6450  133.7720 N   0  0  0  0  0  0  0  0  0  0  0  0
  139.9490  159.3320  132.5730 C   0  0  0  0  0  0  0  0  0  0  0  0
  139.0420  158.1130  132.7930 C   0  0  0  0  0  0  0  0  0  0  0  0
  139.6000  157.2160  133.8170 N   0  0  0  0  0  0  0  0  0  0  0  0
  140.3460  156.0180  133.4270 C   0  0  0  0  0  0  0  0  0  0  0  0
  139.4640  157.5250  135.2160 C   0  0  0  0  0  0  0  0  0  0  0  0
  138.7330  158.4850  135.5810 O   0  0  0  0  0  0  0  0  0  0  0  0
  140.1540  156.7510  136.1630 O   0  0  0  0  0  0  0  0  0  0  0  0
  141.3930  157.0930  136.8020 C   0  0  0  0  0  0  0  0  0  0  0  0
  142.5180  156.4180  136.0030 C   0  0  0  0  0  0  0  0  0  0  0  0
  141.6130  158.6180  136.7790 C   0  0  0  0  0  0  0  0  0  0  0  0
  141.4230  156.5620  138.2490 C   0  0  0  0  0  0  0  0  0  0  0  0
  143.0680  158.8900  133.7220 C   0  0  0  0  0  0  0  0  0  0  0  0
  144.4330  159.1960  133.6770 C   0  0  0  0  0  0  0  0  0  0  0  0
  143.5716  155.1492  133.8625 H   0  0  0  0  0  0  0  0  0  0  0  0
  142.9590  155.8144  132.3104 H   0  0  0  0  0  0  0  0  0  0  0  0
  144.0142  154.3607  132.3104 H   0  0  0  0  0  0  0  0  0  0  0  0
  147.7940  157.0830  135.0870 H   0  0  0  0  0  0  0  0  0  0  0  0
  149.4600  157.3350  134.4680 H   0  0  0  0  0  0  0  0  0  0  0  0
  146.9161  161.3533  133.7154 H   0  0  0  0  0  0  0  0  0  0  0  0
  144.3504  162.6075  133.7092 H   0  0  0  0  0  0  0  0  0  0  0  0
  141.8841  162.1239  133.7422 H   0  0  0  0  0  0  0  0  0  0  0  0
  140.2510  159.6400  134.7010 H   0  0  0  0  0  0  0  0  0  0  0  0
  139.3243  160.2004  132.3168 H   0  0  0  0  0  0  0  0  0  0  0  0
  140.6489  159.0980  131.7573 H   0  0  0  0  0  0  0  0  0  0  0  0
  138.0497  158.4577  133.1194 H   0  0  0  0  0  0  0  0  0  0  0  0
  138.9663  157.5583  131.8461 H   0  0  0  0  0  0  0  0  0  0  0  0
  140.6788  155.4835  134.3290 H   0  0  0  0  0  0  0  0  0  0  0  0
  139.6974  155.3605  132.8295 H   0  0  0  0  0  0  0  0  0  0  0  0
  141.2222  156.3100  132.8295 H   0  0  0  0  0  0  0  0  0  0  0  0
  143.2491  155.9793  136.6980 H   0  0  0  0  0  0  0  0  0  0  0  0
  142.0932  155.6255  135.3694 H   0  0  0  0  0  0  0  0  0  0  0  0
  143.0174  157.1658  135.3694 H   0  0  0  0  0  0  0  0  0  0  0  0
  141.6676  158.9962  137.8105 H   0  0  0  0  0  0  0  0  0  0  0  0
  142.5532  158.8450  136.2550 H   0  0  0  0  0  0  0  0  0  0  0  0
  140.7753  159.1015  136.2550 H   0  0  0  0  0  0  0  0  0  0  0  0
  141.3752  157.4076  138.9509 H   0  0  0  0  0  0  0  0  0  0  0  0
  140.5609  155.8991  138.4143 H   0  0  0  0  0  0  0  0  0  0  0  0
  142.3543  156.0004  138.4143 H   0  0  0  0  0  0  0  0  0  0  0  0
  142.7279  157.8441  133.7437 H   0  0  0  0  0  0  0  0  0  0  0  0
  1  2  1  0
  2  3  1  0
  3  4  2  0
  3  5  1  0
  5  6  1  0
  6  7  1  0
  7  8  1  0
  7  9  2  0
  6 10  2  0
 10 11  1  0
 11 12  2  0
 12 13  1  0
 13 14  2  0
 14 15  1  0
 15 16  1  0
 16 17  1  0
 17 18  1  0
 18 19  1  0
 18 20  1  0
 20 21  2  0
 20 22  1  0
 22 23  1  0
 23 24  1  0
 23 25  1  0
 23 26  1  0
 14 27  1  0
 27 28  2  0
 28  5  1  0
 28 11  1  0
  1 29  1  0
  1 30  1  0
  1 31  1  0
  8 32  1  0
  8 33  1  0
 10 34  1  0
 12 35  1  0
 13 36  1  0
 15 37  1  0
 16 38  1  0
 16 39  1  0
 17 40  1  0
 17 41  1  0
 19 42  1  0
 19 43  1  0
 19 44  1  0
 24 45  1  0
 24 46  1  0
 24 47  1  0
 25 48  1  0
 25 49  1  0
 25 50  1  0
 26 51  1  0
 26 52  1  0
 26 53  1  0
 27 54  1  0
M  END
>  <UniqueID>  (68) 
67

>  <SMILES>  (68) 
COC(=O)n1c(C(N)=O)cc2ccc(NCCN(C)C(=O)OC(C)(C)C)cc21

>  <Energy>  (68) 
80.59743765787651

>  <Genealogy>  (68) 
COC(=O)n1c(C(N)=O)cc2ccc(NCCN(C)C(=O)OC(C)(C)C)cc21 (3D coordinates assigned)
COC(=O)n1c(C(N)=O)cc2ccc(NCCN(C)C(=O)OC(C)(C)C)cc21 (optimized conformer: 80.59743765787651 kcal/mol)

>  <smiles>  (68) 
COC(=O)n1c(C(N)=O)cc2ccc(NCCN(C)C(=O)OC(C)(C)C)cc21

>  <score_type>  (68) 
oracle

>  <origin>  (68) 
adg

>  <m_score__min__energy>  (68) 
-6.8600000000000003

>  <m_primary>  (68) 
energy

$$$$
68:0
     RDKit          3D

 46 47  0  0  0  0  0  0  0  0999 V2000
  146.5970  154.1110  136.2740 C   0  0  0  0  0  0  0  0  0  0  0  0
  146.6220  155.2080  135.2060 C   0  0  0  0  0  0  0  0  0  0  0  0
  147.6630  154.9190  134.1200 C   0  0  0  0  0  0  0  0  0  0  0  0
  145.2860  155.3990  134.6170 N   0  0  0  0  0  0  0  0  0  0  0  0
  144.0900  154.7480  135.1600 C   0  0  0  0  0  0  0  0  0  0  0  0
  145.1540  156.1840  133.4250 C   0  0  0  0  0  0  0  0  0  0  0  0
  145.2040  155.6250  132.2990 O   0  0  0  0  0  0  0  0  0  0  0  0
  145.0280  157.6100  133.5130 N   0  0  0  0  0  0  0  0  0  0  0  0
  145.9440  158.5480  133.1530 C   0  0  0  0  0  0  0  0  0  0  0  0
  147.3500  158.2840  132.7870 C   0  0  0  0  0  0  0  0  0  0  0  0
  147.6890  157.2750  131.8350 N   0  0  0  0  0  0  0  0  0  0  0  0
  148.2700  158.9300  133.3530 O   0  0  0  0  0  0  0  0  0  0  0  0
  145.3850  159.8230  133.1990 C   0  0  0  0  0  0  0  0  0  0  0  0
  144.0850  159.6320  133.6120 C   0  0  0  0  0  0  0  0  0  0  0  0
  143.0630  160.5530  133.8130 C   0  0  0  0  0  0  0  0  0  0  0  0
  141.8030  160.0660  134.2070 C   0  0  0  0  0  0  0  0  0  0  0  0
  141.5850  158.6730  134.3970 C   0  0  0  0  0  0  0  0  0  0  0  0
  140.2840  158.1770  134.7900 N   0  0  0  0  0  0  0  0  0  0  0  0
  139.2580  157.9420  133.7650 C   0  0  0  0  0  0  0  0  0  0  0  0
  139.9770  157.8860  136.1990 C   0  0  0  0  0  0  0  0  0  0  0  0
  140.9890  158.5240  137.0990 C   0  0  0  0  0  0  0  0  0  0  0  0
  140.9270  159.7180  137.3430 O   0  0  0  0  0  0  0  0  0  0  0  0
  142.6580  157.7730  134.1880 C   0  0  0  0  0  0  0  0  0  0  0  0
  143.8950  158.2870  133.7920 C   0  0  0  0  0  0  0  0  0  0  0  0
  146.6075  154.5715  137.2729 H   0  0  0  0  0  0  0  0  0  0  0  0
  145.6849  153.5072  136.1582 H   0  0  0  0  0  0  0  0  0  0  0  0
  147.4807  153.4663  136.1582 H   0  0  0  0  0  0  0  0  0  0  0  0
  146.9167  156.1441  135.7028 H   0  0  0  0  0  0  0  0  0  0  0  0
  148.6206  154.6532  134.5915 H   0  0  0  0  0  0  0  0  0  0  0  0
  147.3177  154.0828  133.4943 H   0  0  0  0  0  0  0  0  0  0  0  0
  147.7982  155.8136  133.4943 H   0  0  0  0  0  0  0  0  0  0  0  0
  144.1283  154.7688  136.2591 H   0  0  0  0  0  0  0  0  0  0  0  0
  143.1928  155.2822  134.8142 H   0  0  0  0  0  0  0  0  0  0  0  0
  144.0515  153.7045  134.8142 H   0  0  0  0  0  0  0  0  0  0  0  0
  146.9730  156.6070  131.4760 H   0  0  0  0  0  0  0  0  0  0  0  0
  148.6830  157.1380  131.5470 H   0  0  0  0  0  0  0  0  0  0  0  0
  145.8761  160.7772  132.9575 H   0  0  0  0  0  0  0  0  0  0  0  0
  143.2343  161.6299  133.6684 H   0  0  0  0  0  0  0  0  0  0  0  0
  140.9753  160.7719  134.3703 H   0  0  0  0  0  0  0  0  0  0  0  0
  138.2967  157.7218  134.2522 H   0  0  0  0  0  0  0  0  0  0  0  0
  139.1540  158.8396  133.1377 H   0  0  0  0  0  0  0  0  0  0  0  0
  139.5551  157.0886  133.1377 H   0  0  0  0  0  0  0  0  0  0  0  0
  138.9786  158.2795  136.4406 H   0  0  0  0  0  0  0  0  0  0  0  0
  140.0025  156.7968  136.3509 H   0  0  0  0  0  0  0  0  0  0  0  0
  141.7908  157.9147  137.5416 H   0  0  0  0  0  0  0  0  0  0  0  0
  142.5203  156.6915  134.3344 H   0  0  0  0  0  0  0  0  0  0  0  0
  1  2  1  0
  2  3  1  0
  2  4  1  0
  4  5  1  0
  4  6  1  0
  6  7  2  0
  6  8  1  0
  8  9  1  0
  9 10  1  0
 10 11  1  0
 10 12  2  0
  9 13  2  0
 13 14  1  0
 14 15  2  0
 15 16  1  0
 16 17  2  0
 17 18  1  0
 18 19  1  0
 18 20  1  0
 20 21  1  0
 21 22  2  0
 17 23  1  0
 23 24  2  0
 24  8  1  0
 24 14  1  0
  1 25  1  0
  1 26  1  0
  1 27  1  0
  2 28  1  0
  3 29  1  0
  3 30  1  0
  3 31  1  0
  5 32  1  0
  5 33  1  0
  5 34  1  0
 11 35  1  0
 11 36  1  0
 13 37  1  0
 15 38  1  0
 16 39  1  0
 19 40  1  0
 19 41  1  0
 19 42  1  0
 20 43  1  0
 20 44  1  0
 21 45  1  0
 23 46  1  0
M  END
>  <UniqueID>  (69) 
68

>  <SMILES>  (69) 
CC(C)N(C)C(=O)n1c(C(N)=O)cc2ccc(N(C)CC=O)cc21

>  <Energy>  (69) 
89.3575242993175

>  <Genealogy>  (69) 
CC(C)N(C)C(=O)n1c(C(N)=O)cc2ccc(N(C)CC=O)cc21 (3D coordinates assigned)
CC(C)N(C)C(=O)n1c(C(N)=O)cc2ccc(N(C)CC=O)cc21 (optimized conformer: 89.3575242993175 kcal/mol)

>  <smiles>  (69) 
CC(C)N(C)C(=O)n1c(C(N)=O)cc2ccc(N(C)CC=O)cc21

>  <score_type>  (69) 
oracle

>  <origin>  (69) 
adg

>  <m_score__min__energy>  (69) 
-6.5800000000000001

>  <m_primary>  (69) 
energy

$$$$
69:0
     RDKit          3D

 39 40  0  0  0  0  0  0  0  0999 V2000
  146.3130  150.7780  131.1490 H   0  0  0  0  0  0  0  0  0  0  0  0
  146.8360  151.0520  131.9460 O   0  0  0  0  0  0  0  0  0  0  0  0
  147.7010  149.9870  132.2280 C   0  0  0  0  0  0  0  0  0  0  0  0
  147.4035  149.1102  131.6341 H   0  0  0  0  0  0  0  0  0  0  0  0
  147.6423  149.7513  133.3008 H   0  0  0  0  0  0  0  0  0  0  0  0
  149.1440  150.3700  131.8780 C   0  0  0  0  0  0  0  0  0  0  0  0
  149.1518  150.8343  130.8808 H   0  0  0  0  0  0  0  0  0  0  0  0
  149.7456  149.4495  131.9060 H   0  0  0  0  0  0  0  0  0  0  0  0
  149.7620  151.3550  132.8820 C   0  0  0  0  0  0  0  0  0  0  0  0
  150.8242  151.1031  133.0175 H   0  0  0  0  0  0  0  0  0  0  0  0
  149.2063  151.2673  133.8273 H   0  0  0  0  0  0  0  0  0  0  0  0
  149.6580  152.7790  132.4160 C   0  0  0  0  0  0  0  0  0  0  0  0
  150.0816  153.0645  131.4418 H   0  0  0  0  0  0  0  0  0  0  0  0
  149.0570  153.7030  133.1710 C   0  0  0  0  0  0  0  0  0  0  0  0
  148.6017  153.3940  134.1235 H   0  0  0  0  0  0  0  0  0  0  0  0
  148.9810  155.1230  132.7750 C   0  0  0  0  0  0  0  0  0  0  0  0
  149.9860  155.6580  132.2370 O   0  0  0  0  0  0  0  0  0  0  0  0
  147.7940  155.9070  132.9900 N   0  0  0  0  0  0  0  0  0  0  0  0
  146.6730  155.5330  133.6660 C   0  0  0  0  0  0  0  0  0  0  0  0
  146.3930  154.1810  134.1890 C   0  0  0  0  0  0  0  0  0  0  0  0
  146.1870  154.0260  135.4240 O   0  0  0  0  0  0  0  0  0  0  0  0
  146.3000  153.0510  133.3210 N   0  0  0  0  0  0  0  0  0  0  0  0
  146.1580  152.0960  133.7190 H   0  0  0  0  0  0  0  0  0  0  0  0
  146.2680  153.1660  132.2850 H   0  0  0  0  0  0  0  0  0  0  0  0
  145.7970  156.6080  133.7960 C   0  0  0  0  0  0  0  0  0  0  0  0
  144.8159  156.6130  134.2935 H   0  0  0  0  0  0  0  0  0  0  0  0
  146.4210  157.6630  133.1690 C   0  0  0  0  0  0  0  0  0  0  0  0
  146.0030  158.9790  133.0000 C   0  0  0  0  0  0  0  0  0  0  0  0
  145.0263  159.3163  133.3773 H   0  0  0  0  0  0  0  0  0  0  0  0
  146.8660  159.8640  132.3330 C   0  0  0  0  0  0  0  0  0  0  0  0
  146.5525  160.9048  132.1644 H   0  0  0  0  0  0  0  0  0  0  0  0
  148.1370  159.4320  131.8740 C   0  0  0  0  0  0  0  0  0  0  0  0
  149.0240  160.3950  131.1260 C   0  0  0  0  0  0  0  0  0  0  0  0
  149.0090  160.1400  129.7650 F   0  0  0  0  0  0  0  0  0  0  0  0
  148.5800  161.6860  131.3450 F   0  0  0  0  0  0  0  0  0  0  0  0
  150.3270  160.2840  131.5750 F   0  0  0  0  0  0  0  0  0  0  0  0
  148.5230  158.0840  132.0610 C   0  0  0  0  0  0  0  0  0  0  0  0
  149.5023  157.7252  131.7114 H   0  0  0  0  0  0  0  0  0  0  0  0
  147.6300  157.2180  132.7010 C   0  0  0  0  0  0  0  0  0  0  0  0
  1  2  1  0
  2  3  1  0
  3  4  1  0
  3  5  1  0
  3  6  1  0
  6  7  1  0
  6  8  1  0
  6  9  1  0
  9 10  1  0
  9 11  1  0
  9 12  1  0
 12 13  1  0
 12 14  2  0
 14 15  1  0
 14 16  1  0
 16 17  2  0
 16 18  1  0
 18 19  1  0
 19 20  1  0
 20 21  2  0
 20 22  1  0
 22 23  1  0
 22 24  1  0
 19 25  2  0
 25 26  1  0
 25 27  1  0
 27 28  2  0
 28 29  1  0
 28 30  1  0
 30 31  1  0
 30 32  2  0
 32 33  1  0
 33 34  1  0
 33 35  1  0
 33 36  1  0
 32 37  1  0
 37 38  1  0
 37 39  2  0
 39 18  1  0
 39 27  1  0
M  END
>  <UniqueID>  (70) 
69

>  <SMILES>  (70) 
NC(=O)c1cc2ccc(C(F)(F)F)cc2n1C(=O)/C=C/CCCO

>  <Energy>  (70) 
71.88991504520017

>  <Genealogy>  (70) 
NC(=O)c1cc2ccc(C(F)(F)F)cc2n1C(=O)/C=C/CCCO (cis-trans isomerization)
NC(=O)c1cc2ccc(C(F)(F)F)cc2n1C(=O)/C=C/CCCO (3D coordinates assigned)
NC(=O)c1cc2ccc(C(F)(F)F)cc2n1C(=O)/C=C/CCCO (optimized conformer: 71.88991504520017 kcal/mol)

>  <smiles>  (70) 
NC(=O)c1cc2ccc(C(F)(F)F)cc2n1C(=O)/C=C/CCCO

>  <score_type>  (70) 
oracle

>  <origin>  (70) 
adg

>  <m_score__min__energy>  (70) 
-7.6299999999999999

>  <m_primary>  (70) 
energy

$$$$
70:0
     RDKit          3D

 53 54  0  0  0  0  0  0  0  0999 V2000
  149.0220  157.3120  131.8650 N   0  0  0  0  0  0  0  0  0  0  0  0
  148.8490  158.5650  132.5290 C   0  0  0  0  0  0  0  0  0  0  0  0
  149.8250  159.3580  132.6160 O   0  0  0  0  0  0  0  0  0  0  0  0
  147.5270  158.9860  133.0350 C   0  0  0  0  0  0  0  0  0  0  0  0
  147.1260  160.3170  133.1030 C   0  0  0  0  0  0  0  0  0  0  0  0
  145.8140  160.2810  133.5130 C   0  0  0  0  0  0  0  0  0  0  0  0
  144.9160  161.3230  133.7230 C   0  0  0  0  0  0  0  0  0  0  0  0
  143.6140  160.9970  134.1380 C   0  0  0  0  0  0  0  0  0  0  0  0
  143.2440  159.6470  134.3550 C   0  0  0  0  0  0  0  0  0  0  0  0
  141.8290  159.3090  134.7430 C   0  0  0  0  0  0  0  0  0  0  0  0
  140.8870  159.5540  133.5910 C   0  0  0  0  0  0  0  0  0  0  0  0
  140.9420  160.6640  132.9910 O   0  0  0  0  0  0  0  0  0  0  0  0
  139.9460  158.5530  133.1430 N   0  0  0  0  0  0  0  0  0  0  0  0
  140.2250  157.1140  133.2830 C   0  0  0  0  0  0  0  0  0  0  0  0
  141.7000  156.8000  133.0060 C   0  0  0  0  0  0  0  0  0  0  0  0
  142.2770  157.7900  132.1970 O   0  0  0  0  0  0  0  0  0  0  0  0
  138.7550  158.9770  132.3910 C   0  0  0  0  0  0  0  0  0  0  0  0
  139.1530  159.5640  131.0390 C   0  0  0  0  0  0  0  0  0  0  0  0
  140.3750  159.0130  130.6320 O   0  0  0  0  0  0  0  0  0  0  0  0
  144.1820  158.6160  134.1320 C   0  0  0  0  0  0  0  0  0  0  0  0
  145.4650  158.9660  133.6930 C   0  0  0  0  0  0  0  0  0  0  0  0
  146.5120  158.1550  133.4090 N   0  0  0  0  0  0  0  0  0  0  0  0
  146.5740  156.7280  133.5730 C   0  0  0  0  0  0  0  0  0  0  0  0
  146.6740  156.2260  134.7270 O   0  0  0  0  0  0  0  0  0  0  0  0
  146.5110  155.8960  132.4500 O   0  0  0  0  0  0  0  0  0  0  0  0
  145.8990  154.6110  132.4780 C   0  0  0  0  0  0  0  0  0  0  0  0
  144.4100  154.7530  132.1580 C   0  0  0  0  0  0  0  0  0  0  0  0
  143.5390  153.9270  133.1070 C   0  0  0  0  0  0  0  0  0  0  0  0
  144.0870  152.6680  133.2870 F   0  0  0  0  0  0  0  0  0  0  0  0
  142.2750  153.7900  132.5640 F   0  0  0  0  0  0  0  0  0  0  0  0
  143.4310  154.5570  134.3350 F   0  0  0  0  0  0  0  0  0  0  0  0
  148.2050  156.7040  131.6410 H   0  0  0  0  0  0  0  0  0  0  0  0
  149.9630  157.0310  131.5130 H   0  0  0  0  0  0  0  0  0  0  0  0
  147.7300  161.2081  132.8769 H   0  0  0  0  0  0  0  0  0  0  0  0
  145.2164  162.3699  133.5688 H   0  0  0  0  0  0  0  0  0  0  0  0
  142.8756  161.7969  134.2958 H   0  0  0  0  0  0  0  0  0  0  0  0
  141.7774  158.2490  135.0324 H   0  0  0  0  0  0  0  0  0  0  0  0
  141.5309  159.9499  135.5859 H   0  0  0  0  0  0  0  0  0  0  0  0
  139.9787  156.7999  134.3080 H   0  0  0  0  0  0  0  0  0  0  0  0
  139.6118  156.5698  132.5497 H   0  0  0  0  0  0  0  0  0  0  0  0
  142.2440  156.7524  133.9609 H   0  0  0  0  0  0  0  0  0  0  0  0
  141.7624  155.8354  132.4810 H   0  0  0  0  0  0  0  0  0  0  0  0
  141.7350  157.8270  131.3680 H   0  0  0  0  0  0  0  0  0  0  0  0
  138.1013  158.1073  132.2290 H   0  0  0  0  0  0  0  0  0  0  0  0
  138.2262  159.7483  132.9703 H   0  0  0  0  0  0  0  0  0  0  0  0
  138.3784  159.3281  130.2945 H   0  0  0  0  0  0  0  0  0  0  0  0
  139.2549  160.6556  131.1290 H   0  0  0  0  0  0  0  0  0  0  0  0
  141.0490  159.3380  131.2810 H   0  0  0  0  0  0  0  0  0  0  0  0
  143.9117  157.5629  134.2991 H   0  0  0  0  0  0  0  0  0  0  0  0
  146.3753  153.9608  131.7294 H   0  0  0  0  0  0  0  0  0  0  0  0
  146.0204  154.1668  133.4770 H   0  0  0  0  0  0  0  0  0  0  0  0
  144.1269  155.8122  132.2473 H   0  0  0  0  0  0  0  0  0  0  0  0
  144.2451  154.3822  131.1356 H   0  0  0  0  0  0  0  0  0  0  0  0
  1  2  1  0
  2  3  2  0
  2  4  1  0
  4  5  2  0
  5  6  1  0
  6  7  2  0
  7  8  1  0
  8  9  2  0
  9 10  1  0
 10 11  1  0
 11 12  2  0
 11 13  1  0
 13 14  1  0
 14 15  1  0
 15 16  1  0
 13 17  1  0
 17 18  1  0
 18 19  1  0
  9 20  1  0
 20 21  2  0
 21 22  1  0
 22 23  1  0
 23 24  2  0
 23 25  1  0
 25 26  1  0
 26 27  1  0
 27 28  1  0
 28 29  1  0
 28 30  1  0
 28 31  1  0
 22  4  1  0
 21  6  1  0
  1 32  1  0
  1 33  1  0
  5 34  1  0
  7 35  1  0
  8 36  1  0
 10 37  1  0
 10 38  1  0
 14 39  1  0
 14 40  1  0
 15 41  1  0
 15 42  1  0
 16 43  1  0
 17 44  1  0
 17 45  1  0
 18 46  1  0
 18 47  1  0
 19 48  1  0
 20 49  1  0
 26 50  1  0
 26 51  1  0
 27 52  1  0
 27 53  1  0
M  END
>  <UniqueID>  (71) 
70

>  <SMILES>  (71) 
NC(=O)c1cc2ccc(CC(=O)N(CCO)CCO)cc2n1C(=O)OCCC(F)(F)F

>  <Energy>  (71) 
79.8897131053152

>  <Genealogy>  (71) 
NC(=O)c1cc2ccc(CC(=O)N(CCO)CCO)cc2n1C(=O)OCCC(F)(F)F (3D coordinates assigned)
NC(=O)c1cc2ccc(CC(=O)N(CCO)CCO)cc2n1C(=O)OCCC(F)(F)F (optimized conformer: 79.8897131053152 kcal/mol)

>  <smiles>  (71) 
NC(=O)c1cc2ccc(CC(=O)N(CCO)CCO)cc2n1C(=O)OCCC(F)(F)F

>  <score_type>  (71) 
oracle

>  <origin>  (71) 
adg

>  <m_score__min__energy>  (71) 
-6.3899999999999997

>  <m_primary>  (71) 
energy

$$$$
71:0
     RDKit          3D

 42 43  0  0  0  0  0  0  0  0999 V2000
  138.0420  160.2430  130.4220 C   0  0  0  0  0  0  0  0  0  0  0  0
  138.7430  159.7520  131.6190 N   0  0  0  0  0  0  0  0  0  0  0  0
  140.1150  159.3600  131.2550 C   0  0  0  0  0  0  0  0  0  0  0  0
  138.0050  158.6150  132.2130 C   0  0  0  0  0  0  0  0  0  0  0  0
  138.9750  157.5370  132.7090 C   0  0  0  0  0  0  0  0  0  0  0  0
  138.7580  157.2730  134.0930 O   0  0  0  0  0  0  0  0  0  0  0  0
  139.4410  157.9360  135.1200 C   0  0  0  0  0  0  0  0  0  0  0  0
  139.4370  157.4810  136.2970 O   0  0  0  0  0  0  0  0  0  0  0  0
  140.2280  159.1640  134.8010 C   0  0  0  0  0  0  0  0  0  0  0  0
  141.6230  158.7800  134.3930 C   0  0  0  0  0  0  0  0  0  0  0  0
  141.9290  157.4270  134.1000 C   0  0  0  0  0  0  0  0  0  0  0  0
  143.2350  157.0500  133.7490 C   0  0  0  0  0  0  0  0  0  0  0  0
  144.2140  158.0380  133.7210 C   0  0  0  0  0  0  0  0  0  0  0  0
  145.5460  157.9510  133.3900 C   0  0  0  0  0  0  0  0  0  0  0  0
  146.0450  159.2430  133.5300 C   0  0  0  0  0  0  0  0  0  0  0  0
  147.4660  159.5900  133.3280 C   0  0  0  0  0  0  0  0  0  0  0  0
  147.8480  160.8430  132.7610 N   0  0  0  0  0  0  0  0  0  0  0  0
  148.3590  158.7890  133.7160 O   0  0  0  0  0  0  0  0  0  0  0  0
  145.0600  160.1020  133.9190 N   0  0  0  0  0  0  0  0  0  0  0  0
  145.1510  161.5290  134.0610 C   0  0  0  0  0  0  0  0  0  0  0  0
  146.2130  162.0600  134.4790 O   0  0  0  0  0  0  0  0  0  0  0  0
  144.0700  162.3400  133.7360 O   0  0  0  0  0  0  0  0  0  0  0  0
  143.9430  159.3460  134.0340 C   0  0  0  0  0  0  0  0  0  0  0  0
  142.6450  159.7530  134.3640 C   0  0  0  0  0  0  0  0  0  0  0  0
  137.1763  160.8493  130.7269 H   0  0  0  0  0  0  0  0  0  0  0  0
  138.7281  160.8590  129.8221 H   0  0  0  0  0  0  0  0  0  0  0  0
  137.6976  159.3877  129.8221 H   0  0  0  0  0  0  0  0  0  0  0  0
  140.7031  159.1920  132.1693 H   0  0  0  0  0  0  0  0  0  0  0  0
  140.0866  158.4340  130.6619 H   0  0  0  0  0  0  0  0  0  0  0  0
  140.5801  160.1612  130.6619 H   0  0  0  0  0  0  0  0  0  0  0  0
  137.4048  158.9777  133.0604 H   0  0  0  0  0  0  0  0  0  0  0  0
  137.3536  158.1762  131.4429 H   0  0  0  0  0  0  0  0  0  0  0  0
  138.8149  156.6129  132.1341 H   0  0  0  0  0  0  0  0  0  0  0  0
  140.0064  157.8937  132.5709 H   0  0  0  0  0  0  0  0  0  0  0  0
  139.7419  159.7058  133.9763 H   0  0  0  0  0  0  0  0  0  0  0  0
  140.2732  159.8091  135.6908 H   0  0  0  0  0  0  0  0  0  0  0  0
  141.1362  156.6660  134.1481 H   0  0  0  0  0  0  0  0  0  0  0  0
  143.4768  156.0053  133.5036 H   0  0  0  0  0  0  0  0  0  0  0  0
  146.0992  157.0520  133.0806 H   0  0  0  0  0  0  0  0  0  0  0  0
  148.8560  161.0550  132.5910 H   0  0  0  0  0  0  0  0  0  0  0  0
  147.1430  161.5940  132.5880 H   0  0  0  0  0  0  0  0  0  0  0  0
  142.4267  160.8060  134.5952 H   0  0  0  0  0  0  0  0  0  0  0  0
  1  2  1  0
  2  3  1  0
  2  4  1  0
  4  5  1  0
  5  6  1  0
  6  7  1  0
  7  8  2  0
  7  9  1  0
  9 10  1  0
 10 11  2  0
 11 12  1  0
 12 13  2  0
 13 14  1  0
 14 15  2  0
 15 16  1  0
 16 17  1  0
 16 18  2  0
 15 19  1  0
 19 20  1  0
 20 21  2  0
 20 22  1  0
 19 23  1  0
 23 24  2  0
 24 10  1  0
 23 13  1  0
  1 25  1  0
  1 26  1  0
  1 27  1  0
  3 28  1  0
  3 29  1  0
  3 30  1  0
  4 31  1  0
  4 32  1  0
  5 33  1  0
  5 34  1  0
  9 35  1  0
  9 36  1  0
 11 37  1  0
 12 38  1  0
 14 39  1  0
 17 40  1  0
 17 41  1  0
 24 42  1  0
M  CHG  1  22  -1
M  END
>  <UniqueID>  (72) 
71

>  <SMILES>  (72) 
CN(C)CCOC(=O)Cc1ccc2cc(C(N)=O)n(C(=O)[O-])c2c1

>  <Energy>  (72) 
77.2533845837961

>  <Genealogy>  (72) 
CN(C)CCOC(=O)Cc1ccc2cc(C(N)=O)n(C(=O)[O-])c2c1 (protonated)
CN(C)CCOC(=O)Cc1ccc2cc(C(N)=O)n(C(=O)[O-])c2c1 (3D coordinates assigned)
CN(C)CCOC(=O)Cc1ccc2cc(C(N)=O)n(C(=O)[O-])c2c1 (optimized conformer: 77.2533845837961 kcal/mol)

>  <smiles>  (72) 
CN(C)CCOC(=O)Cc1ccc2cc(C(N)=O)n(C(=O)O)c2c1

>  <score_type>  (72) 
oracle

>  <origin>  (72) 
adg

>  <m_score__min__energy>  (72) 
-6.7999999999999998

>  <m_primary>  (72) 
energy

$$$$
72:0
     RDKit          3D

 47 48  0  0  0  0  0  0  0  0999 V2000
  149.5650  151.7060  131.5250 C   0  0  0  0  0  0  0  0  0  0  0  0
  149.1290  152.9680  131.9810 O   0  0  0  0  0  0  0  0  0  0  0  0
  148.4330  152.8370  133.2080 C   0  0  0  0  0  0  0  0  0  0  0  0
  147.5530  154.0650  133.4640 C   0  0  0  0  0  0  0  0  0  0  0  0
  147.7550  155.0910  132.4380 N   0  0  0  0  0  0  0  0  0  0  0  0
  147.6430  156.5020  132.7000 C   0  0  0  0  0  0  0  0  0  0  0  0
  148.7800  157.3560  132.6840 C   0  0  0  0  0  0  0  0  0  0  0  0
  148.6500  158.7290  132.9490 C   0  0  0  0  0  0  0  0  0  0  0  0
  147.3790  159.2260  133.2180 C   0  0  0  0  0  0  0  0  0  0  0  0
  146.9760  160.5020  133.5340 C   0  0  0  0  0  0  0  0  0  0  0  0
  145.5970  160.4220  133.7150 C   0  0  0  0  0  0  0  0  0  0  0  0
  144.7470  161.5950  134.0090 C   0  0  0  0  0  0  0  0  0  0  0  0
  143.3570  161.5950  133.6890 N   0  0  0  0  0  0  0  0  0  0  0  0
  145.2610  162.6280  134.5150 O   0  0  0  0  0  0  0  0  0  0  0  0
  145.1640  159.1440  133.5150 N   0  0  0  0  0  0  0  0  0  0  0  0
  143.8330  158.6290  133.6830 C   0  0  0  0  0  0  0  0  0  0  0  0
  143.2830  157.9990  132.7410 O   0  0  0  0  0  0  0  0  0  0  0  0
  143.0730  158.9180  134.8620 N   0  0  0  0  0  0  0  0  0  0  0  0
  141.6810  158.5290  135.1140 C   0  0  0  0  0  0  0  0  0  0  0  0
  141.1420  159.2950  136.3380 C   0  0  0  0  0  0  0  0  0  0  0  0
  141.6790  157.0250  135.4340 C   0  0  0  0  0  0  0  0  0  0  0  0
  140.7870  158.7710  133.8740 C   0  0  0  0  0  0  0  0  0  0  0  0
  141.2090  159.8950  133.1510 O   0  0  0  0  0  0  0  0  0  0  0  0
  146.2690  158.4230  133.2210 C   0  0  0  0  0  0  0  0  0  0  0  0
  146.3710  157.0480  132.9830 C   0  0  0  0  0  0  0  0  0  0  0  0
  149.7878  151.0612  132.3879 H   0  0  0  0  0  0  0  0  0  0  0  0
  148.7747  151.2431  130.9158 H   0  0  0  0  0  0  0  0  0  0  0  0
  150.4725  151.8297  130.9158 H   0  0  0  0  0  0  0  0  0  0  0  0
  147.7983  151.9394  133.1693 H   0  0  0  0  0  0  0  0  0  0  0  0
  149.1661  152.7505  134.0235 H   0  0  0  0  0  0  0  0  0  0  0  0
  146.4973  153.7562  133.4582 H   0  0  0  0  0  0  0  0  0  0  0  0
  147.8297  154.4918  134.4394 H   0  0  0  0  0  0  0  0  0  0  0  0
  147.9980  154.7910  131.4650 H   0  0  0  0  0  0  0  0  0  0  0  0
  149.7723  156.9365  132.4616 H   0  0  0  0  0  0  0  0  0  0  0  0
  149.5277  159.3921  132.9440 H   0  0  0  0  0  0  0  0  0  0  0  0
  147.6089  161.3971  133.6247 H   0  0  0  0  0  0  0  0  0  0  0  0
  142.7230  160.8470  134.0490 H   0  0  0  0  0  0  0  0  0  0  0  0
  141.4877  158.8037  137.2594 H   0  0  0  0  0  0  0  0  0  0  0  0
  141.5113  160.3309  136.3141 H   0  0  0  0  0  0  0  0  0  0  0  0
  140.0423  159.2972  136.3141 H   0  0  0  0  0  0  0  0  0  0  0  0
  141.6788  156.8822  136.5247 H   0  0  0  0  0  0  0  0  0  0  0  0
  140.7802  156.5596  135.0031 H   0  0  0  0  0  0  0  0  0  0  0  0
  142.5765  156.5572  135.0031 H   0  0  0  0  0  0  0  0  0  0  0  0
  140.8339  157.8871  133.2210 H   0  0  0  0  0  0  0  0  0  0  0  0
  139.7574  158.9475  134.2186 H   0  0  0  0  0  0  0  0  0  0  0  0
  142.2000  159.8470  133.1170 H   0  0  0  0  0  0  0  0  0  0  0  0
  145.4790  156.4052  133.0156 H   0  0  0  0  0  0  0  0  0  0  0  0
  1  2  1  0
  2  3  1  0
  3  4  1  0
  4  5  1  0
  5  6  1  0
  6  7  2  0
  7  8  1  0
  8  9  2  0
  9 10  1  0
 10 11  2  0
 11 12  1  0
 12 13  1  0
 12 14  2  0
 11 15  1  0
 15 16  1  0
 16 17  2  0
 16 18  1  0
 18 19  1  0
 19 20  1  0
 19 21  1  0
 19 22  1  0
 22 23  1  0
 15 24  1  0
 24 25  2  0
 25  6  1  0
 24  9  1  0
  1 26  1  0
  1 27  1  0
  1 28  1  0
  3 29  1  0
  3 30  1  0
  4 31  1  0
  4 32  1  0
  5 33  1  0
  7 34  1  0
  8 35  1  0
 10 36  1  0
 13 37  1  0
 20 38  1  0
 20 39  1  0
 20 40  1  0
 21 41  1  0
 21 42  1  0
 21 43  1  0
 22 44  1  0
 22 45  1  0
 23 46  1  0
 25 47  1  0
M  CHG  2  13  -1  18  -1
M  END
>  <UniqueID>  (73) 
72

>  <SMILES>  (73) 
COCCNc1ccc2cc(C([NH-])=O)n(C(=O)[N-]C(C)(C)CO)c2c1

>  <Energy>  (73) 
86.91654737449333

>  <Genealogy>  (73) 
COCCNc1ccc2cc(C([NH-])=O)n(C(=O)[N-]C(C)(C)CO)c2c1 (protonated)
COCCNc1ccc2cc(C([NH-])=O)n(C(=O)[N-]C(C)(C)CO)c2c1 (3D coordinates assigned)
COCCNc1ccc2cc(C([NH-])=O)n(C(=O)[N-]C(C)(C)CO)c2c1 (optimized conformer: 86.91654737449333 kcal/mol)

>  <smiles>  (73) 
COCCNc1ccc2cc(C(N)=O)n(C(=O)NC(C)(C)CO)c2c1

>  <score_type>  (73) 
oracle

>  <origin>  (73) 
adg

>  <m_score__min__energy>  (73) 
-6.8200000000000003

>  <m_primary>  (73) 
energy

$$$$
73:0
     RDKit          3D

 58 60  0  0  0  0  0  0  0  0999 V2000
  141.0000  159.3030  137.1110 C   0  0  0  0  0  0  0  0  0  0  0  0
  141.2210  158.1570  136.1730 C   0  0  0  0  0  0  0  0  0  0  0  0
  142.0450  157.2600  136.5010 O   0  0  0  0  0  0  0  0  0  0  0  0
  140.5460  158.0990  134.8500 C   0  0  0  0  0  0  0  0  0  0  0  0
  139.2520  157.5450  134.7640 C   0  0  0  0  0  0  0  0  0  0  0  0
  138.5560  157.5420  133.5550 C   0  0  0  0  0  0  0  0  0  0  0  0
  139.1340  158.0900  132.4120 C   0  0  0  0  0  0  0  0  0  0  0  0
  140.4190  158.6310  132.4700 C   0  0  0  0  0  0  0  0  0  0  0  0
  141.1420  158.6330  133.6750 C   0  0  0  0  0  0  0  0  0  0  0  0
  142.5320  159.1430  133.6560 C   0  0  0  0  0  0  0  0  0  0  0  0
  142.7810  160.5320  133.7960 C   0  0  0  0  0  0  0  0  0  0  0  0
  144.0930  161.0320  133.7560 C   0  0  0  0  0  0  0  0  0  0  0  0
  145.1320  160.1240  133.5720 C   0  0  0  0  0  0  0  0  0  0  0  0
  146.4860  160.3390  133.4650 C   0  0  0  0  0  0  0  0  0  0  0  0
  147.0460  159.0780  133.2730 C   0  0  0  0  0  0  0  0  0  0  0  0
  148.5030  158.8400  133.1960 C   0  0  0  0  0  0  0  0  0  0  0  0
  149.1080  158.3680  131.9960 N   0  0  0  0  0  0  0  0  0  0  0  0
  149.2170  159.0110  134.2210 O   0  0  0  0  0  0  0  0  0  0  0  0
  146.0760  158.1220  133.2500 N   0  0  0  0  0  0  0  0  0  0  0  0
  146.2240  156.7170  132.9920 C   0  0  0  0  0  0  0  0  0  0  0  0
  147.0700  156.3180  132.1470 O   0  0  0  0  0  0  0  0  0  0  0  0
  145.4140  155.7990  133.6660 O   0  0  0  0  0  0  0  0  0  0  0  0
  144.4570  154.9830  132.9970 C   0  0  0  0  0  0  0  0  0  0  0  0
  143.1950  154.8780  133.8400 C   0  0  0  0  0  0  0  0  0  0  0  0
  142.0630  154.7350  132.9870 O   0  0  0  0  0  0  0  0  0  0  0  0
  141.0400  153.8120  133.2330 C   0  0  0  0  0  0  0  0  0  0  0  0
  139.8420  154.2060  133.3050 O   0  0  0  0  0  0  0  0  0  0  0  0
  141.3680  152.3350  133.3370 C   0  0  0  0  0  0  0  0  0  0  0  0
  142.7390  152.0890  132.6860 C   0  0  0  0  0  0  0  0  0  0  0  0
  141.4180  151.9110  134.8190 C   0  0  0  0  0  0  0  0  0  0  0  0
  140.2950  151.4940  132.6150 C   0  0  0  0  0  0  0  0  0  0  0  0
  144.9090  158.7780  133.4400 C   0  0  0  0  0  0  0  0  0  0  0  0
  143.6120  158.2530  133.4590 C   0  0  0  0  0  0  0  0  0  0  0  0
  141.0689  158.9457  138.1491 H   0  0  0  0  0  0  0  0  0  0  0  0
  141.7663  160.0727  136.9365 H   0  0  0  0  0  0  0  0  0  0  0  0
  140.0025  159.7325  136.9365 H   0  0  0  0  0  0  0  0  0  0  0  0
  138.7861  157.1102  135.6606 H   0  0  0  0  0  0  0  0  0  0  0  0
  137.5476  157.1056  133.5040 H   0  0  0  0  0  0  0  0  0  0  0  0
  138.5772  158.0962  131.4634 H   0  0  0  0  0  0  0  0  0  0  0  0
  140.8705  159.0602  131.5634 H   0  0  0  0  0  0  0  0  0  0  0  0
  141.9383  161.2248  133.9373 H   0  0  0  0  0  0  0  0  0  0  0  0
  144.2933  162.1079  133.8666 H   0  0  0  0  0  0  0  0  0  0  0  0
  147.0146  161.3021  133.5194 H   0  0  0  0  0  0  0  0  0  0  0  0
  148.7750  157.4920  131.5350 H   0  0  0  0  0  0  0  0  0  0  0  0
  144.2103  155.4319  132.0235 H   0  0  0  0  0  0  0  0  0  0  0  0
  144.8779  153.9783  132.8441 H   0  0  0  0  0  0  0  0  0  0  0  0
  143.2682  154.0023  134.5017 H   0  0  0  0  0  0  0  0  0  0  0  0
  143.0834  155.7887  134.4468 H   0  0  0  0  0  0  0  0  0  0  0  0
  143.4982  151.9528  133.4703 H   0  0  0  0  0  0  0  0  0  0  0  0
  142.6912  151.1851  132.0610 H   0  0  0  0  0  0  0  0  0  0  0  0
  143.0085  152.9531  132.0610 H   0  0  0  0  0  0  0  0  0  0  0  0
  141.3132  152.7999  135.4584 H   0  0  0  0  0  0  0  0  0  0  0  0
  140.5963  151.2101  135.0278 H   0  0  0  0  0  0  0  0  0  0  0  0
  142.3802  151.4205  135.0278 H   0  0  0  0  0  0  0  0  0  0  0  0
  139.6580  150.9947  133.3599 H   0  0  0  0  0  0  0  0  0  0  0  0
  139.6769  152.1507  131.9851 H   0  0  0  0  0  0  0  0  0  0  0  0
  140.7850  150.7369  131.9851 H   0  0  0  0  0  0  0  0  0  0  0  0
  143.4376  157.1753  133.3241 H   0  0  0  0  0  0  0  0  0  0  0  0
  1  2  1  0
  2  3  2  0
  2  4  1  0
  4  5  2  0
  5  6  1  0
  6  7  2  0
  7  8  1  0
  8  9  2  0
  9 10  1  0
 10 11  2  0
 11 12  1  0
 12 13  2  0
 13 14  1  0
 14 15  2  0
 15 16  1  0
 16 17  1  0
 16 18  2  0
 15 19  1  0
 19 20  1  0
 20 21  2  0
 20 22  1  0
 22 23  1  0
 23 24  1  0
 24 25  1  0
 25 26  1  0
 26 27  2  0
 26 28  1  0
 28 29  1  0
 28 30  1  0
 28 31  1  0
 19 32  1  0
 32 33  2  0
  9  4  1  0
 33 10  1  0
 32 13  1  0
  1 34  1  0
  1 35  1  0
  1 36  1  0
  5 37  1  0
  6 38  1  0
  7 39  1  0
  8 40  1  0
 11 41  1  0
 12 42  1  0
 14 43  1  0
 17 44  1  0
 23 45  1  0
 23 46  1  0
 24 47  1  0
 24 48  1  0
 29 49  1  0
 29 50  1  0
 29 51  1  0
 30 52  1  0
 30 53  1  0
 30 54  1  0
 31 55  1  0
 31 56  1  0
 31 57  1  0
 33 58  1  0
M  CHG  1  17  -1
M  END
>  <UniqueID>  (74) 
73

>  <SMILES>  (74) 
CC(=O)c1ccccc1-c1ccc2cc(C([NH-])=O)n(C(=O)OCCOC(=O)C(C)(C)C)c2c1

>  <Energy>  (74) 
95.09381153453687

>  <Genealogy>  (74) 
CC(=O)c1ccccc1-c1ccc2cc(C([NH-])=O)n(C(=O)OCCOC(=O)C(C)(C)C)c2c1 (protonated)
CC(=O)c1ccccc1-c1ccc2cc(C([NH-])=O)n(C(=O)OCCOC(=O)C(C)(C)C)c2c1 (3D coordinates assigned)
CC(=O)c1ccccc1-c1ccc2cc(C([NH-])=O)n(C(=O)OCCOC(=O)C(C)(C)C)c2c1 (optimized conformer: 95.09381153453687 kcal/mol)

>  <smiles>  (74) 
CC(=O)c1ccccc1-c1ccc2cc(C(N)=O)n(C(=O)OCCOC(=O)C(C)(C)C)c2c1

>  <score_type>  (74) 
oracle

>  <origin>  (74) 
adg

>  <m_score__min__energy>  (74) 
-9.4199999999999999

>  <m_primary>  (74) 
energy

$$$$
74:0
     RDKit          3D

 34 35  0  0  0  0  0  0  0  0999 V2000
  149.8350  157.8040  131.8570 N   0  0  0  0  0  0  0  0  0  0  0  0
  149.2850  159.0900  132.1270 C   0  0  0  0  0  0  0  0  0  0  0  0
  149.9580  160.1190  131.8510 O   0  0  0  0  0  0  0  0  0  0  0  0
  147.9170  159.2340  132.6690 C   0  0  0  0  0  0  0  0  0  0  0  0
  147.3480  160.4650  132.9910 C   0  0  0  0  0  0  0  0  0  0  0  0
  146.0540  160.1830  133.3610 C   0  0  0  0  0  0  0  0  0  0  0  0
  145.0360  161.0370  133.7760 C   0  0  0  0  0  0  0  0  0  0  0  0
  143.7960  160.4680  134.1150 C   0  0  0  0  0  0  0  0  0  0  0  0
  143.6050  159.0650  134.0510 C   0  0  0  0  0  0  0  0  0  0  0  0
  142.2680  158.4690  134.3940 C   0  0  0  0  0  0  0  0  0  0  0  0
  141.2460  159.5500  134.5360 C   0  0  0  0  0  0  0  0  0  0  0  0
  140.9320  159.9810  135.6770 O   0  0  0  0  0  0  0  0  0  0  0  0
  140.6750  160.1200  133.4040 O   0  0  0  0  0  0  0  0  0  0  0  0
  144.6590  158.2310  133.6170 C   0  0  0  0  0  0  0  0  0  0  0  0
  145.8760  158.8270  133.2650 C   0  0  0  0  0  0  0  0  0  0  0  0
  147.0120  158.2290  132.8430 N   0  0  0  0  0  0  0  0  0  0  0  0
  147.2200  156.8160  132.6910 C   0  0  0  0  0  0  0  0  0  0  0  0
  147.1120  156.2810  131.5530 O   0  0  0  0  0  0  0  0  0  0  0  0
  147.5690  156.0450  133.8020 O   0  0  0  0  0  0  0  0  0  0  0  0
  147.5540  154.6210  133.7890 C   0  0  0  0  0  0  0  0  0  0  0  0
  148.5860  154.1020  132.7930 C   0  0  0  0  0  0  0  0  0  0  0  0
  149.5730  155.0710  132.5600 O   0  0  0  0  0  0  0  0  0  0  0  0
  149.2190  156.9950  131.6190 H   0  0  0  0  0  0  0  0  0  0  0  0
  147.8315  161.4525  132.9565 H   0  0  0  0  0  0  0  0  0  0  0  0
  145.1969  162.1235  133.8368 H   0  0  0  0  0  0  0  0  0  0  0  0
  142.9668  161.1172  134.4327 H   0  0  0  0  0  0  0  0  0  0  0  0
  141.9604  157.7802  133.5934 H   0  0  0  0  0  0  0  0  0  0  0  0
  142.3501  157.9234  135.3456 H   0  0  0  0  0  0  0  0  0  0  0  0
  144.5270  157.1406  133.5571 H   0  0  0  0  0  0  0  0  0  0  0  0
  147.7948  154.2442  134.7940 H   0  0  0  0  0  0  0  0  0  0  0  0
  146.5544  154.2712  133.4914 H   0  0  0  0  0  0  0  0  0  0  0  0
  149.0576  153.1951  133.1995 H   0  0  0  0  0  0  0  0  0  0  0  0
  148.0806  153.8728  131.8433 H   0  0  0  0  0  0  0  0  0  0  0  0
  149.1030  155.8900  132.2540 H   0  0  0  0  0  0  0  0  0  0  0  0
  1  2  1  0
  2  3  2  0
  2  4  1  0
  4  5  2  0
  5  6  1  0
  6  7  2  0
  7  8  1  0
  8  9  2  0
  9 10  1  0
 10 11  1  0
 11 12  2  0
 11 13  1  0
  9 14  1  0
 14 15  2  0
 15 16  1  0
 16 17  1  0
 17 18  2  0
 17 19  1  0
 19 20  1  0
 20 21  1  0
 21 22  1  0
 16  4  1  0
 15  6  1  0
  1 23  1  0
  5 24  1  0
  7 25  1  0
  8 26  1  0
 10 27  1  0
 10 28  1  0
 14 29  1  0
 20 30  1  0
 20 31  1  0
 21 32  1  0
 21 33  1  0
 22 34  1  0
M  CHG  2   1  -1  13  -1
M  END
>  <UniqueID>  (75) 
74

>  <SMILES>  (75) 
[NH-]C(=O)c1cc2ccc(CC(=O)[O-])cc2n1C(=O)OCCO

>  <Energy>  (75) 
67.06276082883073

>  <Genealogy>  (75) 
[NH-]C(=O)c1cc2ccc(CC(=O)[O-])cc2n1C(=O)OCCO (protonated)
[NH-]C(=O)c1cc2ccc(CC(=O)[O-])cc2n1C(=O)OCCO (3D coordinates assigned)
[NH-]C(=O)c1cc2ccc(CC(=O)[O-])cc2n1C(=O)OCCO (optimized conformer: 67.06276082883073 kcal/mol)

>  <smiles>  (75) 
NC(=O)c1cc2ccc(CC(=O)O)cc2n1C(=O)OCCO

>  <score_type>  (75) 
oracle

>  <origin>  (75) 
adg

>  <m_score__min__energy>  (75) 
-5.8300000000000001

>  <m_primary>  (75) 
energy

$$$$
75:0
     RDKit          3D

 58 60  0  0  0  0  0  0  0  0999 V2000
  142.0450  152.6350  136.6490 C   0  0  0  0  0  0  0  0  0  0  0  0
  141.8730  153.5310  137.9010 C   0  0  0  0  0  0  0  0  0  0  0  0
  140.6190  153.0080  138.6500 C   0  0  0  0  0  0  0  0  0  0  0  0
  143.1350  153.3580  138.7870 C   0  0  0  0  0  0  0  0  0  0  0  0
  144.2750  153.0670  138.0200 O   0  0  0  0  0  0  0  0  0  0  0  0
  141.7080  155.0230  137.5280 C   0  0  0  0  0  0  0  0  0  0  0  0
  141.2040  155.9510  138.4900 C   0  0  0  0  0  0  0  0  0  0  0  0
  141.0930  157.3200  138.2000 C   0  0  0  0  0  0  0  0  0  0  0  0
  141.5040  157.7570  136.9500 C   0  0  0  0  0  0  0  0  0  0  0  0
  141.5480  159.0300  136.4260 C   0  0  0  0  0  0  0  0  0  0  0  0
  142.0880  158.8830  135.1510 C   0  0  0  0  0  0  0  0  0  0  0  0
  142.2580  159.9990  134.2000 C   0  0  0  0  0  0  0  0  0  0  0  0
  143.4080  160.0760  133.3630 N   0  0  0  0  0  0  0  0  0  0  0  0
  141.3580  160.8750  134.0940 O   0  0  0  0  0  0  0  0  0  0  0  0
  142.3740  157.5750  134.9020 N   0  0  0  0  0  0  0  0  0  0  0  0
  143.0770  157.0220  133.7770 C   0  0  0  0  0  0  0  0  0  0  0  0
  142.7440  157.3780  132.6110 O   0  0  0  0  0  0  0  0  0  0  0  0
  144.0260  155.9450  133.9750 N   0  0  2  0  0  0  0  0  0  0  0  0
  145.3630  156.4940  134.3240 C   0  0  0  0  0  0  0  0  0  0  0  0
  146.3640  155.4200  134.7950 C   0  0  0  0  0  0  0  0  0  0  0  0
  145.7390  154.3940  135.6920 C   0  0  0  0  0  0  0  0  0  0  0  0
  144.4980  154.1850  135.6480 O   0  0  0  0  0  0  0  0  0  0  0  0
  146.5270  153.6760  136.5850 O   0  0  0  0  0  0  0  0  0  0  0  0
  144.0610  155.0870  132.7530 C   0  0  0  0  0  0  0  0  0  0  0  0
  143.2650  153.8150  132.9270 C   0  0  0  0  0  0  0  0  0  0  0  0
  143.8880  152.5580  132.8440 C   0  0  0  0  0  0  0  0  0  0  0  0
  143.1400  151.3870  133.0010 C   0  0  0  0  0  0  0  0  0  0  0  0
  141.7640  151.4620  133.2310 C   0  0  0  0  0  0  0  0  0  0  0  0
  141.1310  152.7050  133.2900 C   0  0  0  0  0  0  0  0  0  0  0  0
  141.8760  153.8780  133.1350 C   0  0  0  0  0  0  0  0  0  0  0  0
  142.0060  156.9000  136.0120 C   0  0  0  0  0  0  0  0  0  0  0  0
  142.1370  155.5320  136.2690 C   0  0  0  0  0  0  0  0  0  0  0  0
  142.2437  151.5998  136.9635 H   0  0  0  0  0  0  0  0  0  0  0  0
  141.1247  152.6652  136.0473 H   0  0  0  0  0  0  0  0  0  0  0  0
  142.8887  153.0038  136.0473 H   0  0  0  0  0  0  0  0  0  0  0  0
  140.7847  153.0771  139.7352 H   0  0  0  0  0  0  0  0  0  0  0  0
  139.7459  153.6170  138.3729 H   0  0  0  0  0  0  0  0  0  0  0  0
  140.4373  151.9591  138.3729 H   0  0  0  0  0  0  0  0  0  0  0  0
  143.3093  154.2902  139.3443 H   0  0  0  0  0  0  0  0  0  0  0  0
  142.9592  152.5151  139.4715 H   0  0  0  0  0  0  0  0  0  0  0  0
  144.7030  153.9330  137.7930 H   0  0  0  0  0  0  0  0  0  0  0  0
  140.8959  155.5846  139.4804 H   0  0  0  0  0  0  0  0  0  0  0  0
  140.6917  158.0253  138.9426 H   0  0  0  0  0  0  0  0  0  0  0  0
  141.2255  159.9632  136.9110 H   0  0  0  0  0  0  0  0  0  0  0  0
  143.5590  159.3840  132.5950 H   0  0  0  0  0  0  0  0  0  0  0  0
  143.6820  155.3960  134.7960 H   0  0  0  0  0  0  0  0  0  0  0  0
  145.7783  156.9913  133.4350 H   0  0  0  0  0  0  0  0  0  0  0  0
  145.2181  157.1915  135.1621 H   0  0  0  0  0  0  0  0  0  0  0  0
  146.7739  154.9102  133.9106 H   0  0  0  0  0  0  0  0  0  0  0  0
  147.1484  155.9304  135.3732 H   0  0  0  0  0  0  0  0  0  0  0  0
  143.6419  155.6548  131.9092 H   0  0  0  0  0  0  0  0  0  0  0  0
  145.1083  154.8075  132.5660 H   0  0  0  0  0  0  0  0  0  0  0  0
  144.9697  152.4950  132.6545 H   0  0  0  0  0  0  0  0  0  0  0  0
  143.6352  150.4064  132.9434 H   0  0  0  0  0  0  0  0  0  0  0  0
  141.1786  150.5405  133.3658 H   0  0  0  0  0  0  0  0  0  0  0  0
  140.0455  152.7616  133.4585 H   0  0  0  0  0  0  0  0  0  0  0  0
  141.3727  154.8552  133.1760 H   0  0  0  0  0  0  0  0  0  0  0  0
  142.5646  154.8595  135.5108 H   0  0  0  0  0  0  0  0  0  0  0  0
  1  2  1  0
  2  3  1  0
  2  4  1  0
  4  5  1  0
  2  6  1  0
  6  7  2  0
  7  8  1  0
  8  9  2  0
  9 10  1  0
 10 11  2  0
 11 12  1  0
 12 13  1  0
 12 14  2  0
 11 15  1  0
 15 16  1  0
 16 17  2  0
 16 18  1  0
 18 19  1  0
 19 20  1  0
 20 21  1  0
 21 22  2  0
 21 23  1  0
 18 24  1  0
 24 25  1  0
 25 26  2  0
 26 27  1  0
 27 28  2  0
 28 29  1  0
 29 30  2  0
 15 31  1  0
 31 32  2  0
 32  6  1  0
 31  9  1  0
 30 25  1  0
  1 33  1  0
  1 34  1  0
  1 35  1  0
  3 36  1  0
  3 37  1  0
  3 38  1  0
  4 39  1  0
  4 40  1  0
  5 41  1  0
  7 42  1  0
  8 43  1  0
 10 44  1  0
 13 45  1  0
 18 46  1  1
 19 47  1  0
 19 48  1  0
 20 49  1  0
 20 50  1  0
 24 51  1  0
 24 52  1  0
 26 53  1  0
 27 54  1  0
 28 55  1  0
 29 56  1  0
 30 57  1  0
 32 58  1  0
M  CHG  3  13  -1  18   1  23  -1
M  END
>  <UniqueID>  (76) 
75

>  <SMILES>  (76) 
CC(C)(CO)c1ccc2cc(C([NH-])=O)n(C(=O)[N@H+](CCC(=O)[O-])Cc3ccccc3)c2c1

>  <Energy>  (76) 
106.35391039546887

>  <Genealogy>  (76) 
CC(C)(CO)c1ccc2cc(C([NH-])=O)n(C(=O)[NH+](CCC(=O)[O-])Cc3ccccc3)c2c1 (protonated)
CC(C)(CO)c1ccc2cc(C([NH-])=O)n(C(=O)[N@H+](CCC(=O)[O-])Cc3ccccc3)c2c1 (chirality)
CC(C)(CO)c1ccc2cc(C([NH-])=O)n(C(=O)[N@H+](CCC(=O)[O-])Cc3ccccc3)c2c1 (3D coordinates assigned)
CC(C)(CO)c1ccc2cc(C([NH-])=O)n(C(=O)[N@H+](CCC(=O)[O-])Cc3ccccc3)c2c1 (optimized conformer: 106.35391039546887 kcal/mol)

>  <smiles>  (76) 
CC(C)(CO)c1ccc2cc(C(N)=O)n(C(=O)N(CCC(=O)O)Cc3ccccc3)c2c1

>  <score_type>  (76) 
oracle

>  <origin>  (76) 
adg

>  <m_score__min__energy>  (76) 
-8.3399999999999999

>  <m_primary>  (76) 
energy

$$$$
76:0
     RDKit          3D

 25 26  0  0  0  0  0  0  0  0999 V2000
  140.6020  158.9820  136.4910 N   0  0  0  0  0  0  0  0  0  0  0  0
  140.8970  158.6990  135.1250 C   0  0  0  0  0  0  0  0  0  0  0  0
  139.9490  158.5440  134.3100 O   0  0  0  0  0  0  0  0  0  0  0  0
  142.2920  158.6470  134.6440 C   0  0  0  0  0  0  0  0  0  0  0  0
  143.0990  157.5170  134.7570 C   0  0  0  0  0  0  0  0  0  0  0  0
  144.2720  157.8390  134.1150 C   0  0  0  0  0  0  0  0  0  0  0  0
  145.4290  157.0860  133.9330 C   0  0  0  0  0  0  0  0  0  0  0  0
  146.5040  157.6850  133.2540 C   0  0  0  0  0  0  0  0  0  0  0  0
  146.4020  159.0130  132.7820 C   0  0  0  0  0  0  0  0  0  0  0  0
  147.5140  159.6190  132.0990 C   0  0  0  0  0  0  0  0  0  0  0  0
  148.4450  160.1270  131.5260 C   0  0  0  0  0  0  0  0  0  0  0  0
  149.5550  160.7300  130.8430 C   0  0  0  0  0  0  0  0  0  0  0  0
  149.6050  161.9800  130.7090 O   0  0  0  0  0  0  0  0  0  0  0  0
  150.5710  159.9350  130.3330 O   0  0  0  0  0  0  0  0  0  0  0  0
  145.2160  159.7490  132.9820 C   0  0  0  0  0  0  0  0  0  0  0  0
  144.1540  159.1230  133.6460 C   0  0  0  0  0  0  0  0  0  0  0  0
  142.9440  159.6350  133.9650 N   0  0  0  0  0  0  0  0  0  0  0  0
  142.4950  160.9790  133.7250 C   0  0  0  0  0  0  0  0  0  0  0  0
  141.2800  161.2100  133.4900 O   0  0  0  0  0  0  0  0  0  0  0  0
  143.4010  162.0320  133.7210 O   0  0  0  0  0  0  0  0  0  0  0  0
  139.8610  159.6700  136.7490 H   0  0  0  0  0  0  0  0  0  0  0  0
  142.8506  156.5679  135.2545 H   0  0  0  0  0  0  0  0  0  0  0  0
  145.4995  156.0546  134.3089 H   0  0  0  0  0  0  0  0  0  0  0  0
  147.4309  157.1162  133.0889 H   0  0  0  0  0  0  0  0  0  0  0  0
  145.1276  160.7861  132.6263 H   0  0  0  0  0  0  0  0  0  0  0  0
  1  2  1  0
  2  3  2  0
  2  4  1  0
  4  5  2  0
  5  6  1  0
  6  7  2  0
  7  8  1  0
  8  9  2  0
  9 10  1  0
 10 11  3  0
 11 12  1  0
 12 13  2  0
 12 14  1  0
  9 15  1  0
 15 16  2  0
 16 17  1  0
 17 18  1  0
 18 19  2  0
 18 20  1  0
 17  4  1  0
 16  6  1  0
  1 21  1  0
  5 22  1  0
  7 23  1  0
  8 24  1  0
 15 25  1  0
M  CHG  3   1  -1  14  -1  20  -1
M  END
>  <UniqueID>  (77) 
76

>  <SMILES>  (77) 
[NH-]C(=O)c1cc2ccc(C#CC(=O)[O-])cc2n1C(=O)[O-]

>  <Energy>  (77) 
61.463347319208886

>  <Genealogy>  (77) 
[NH-]C(=O)c1cc2ccc(C#CC(=O)[O-])cc2n1C(=O)[O-] (protonated)
[NH-]C(=O)c1cc2ccc(C#CC(=O)[O-])cc2n1C(=O)[O-] (3D coordinates assigned)
[NH-]C(=O)c1cc2ccc(C#CC(=O)[O-])cc2n1C(=O)[O-] (optimized conformer: 61.463347319208886 kcal/mol)

>  <smiles>  (77) 
NC(=O)c1cc2ccc(C#CC(=O)O)cc2n1C(=O)O

>  <score_type>  (77) 
oracle

>  <origin>  (77) 
adg

>  <m_score__min__energy>  (77) 
-6.6799999999999997

>  <m_primary>  (77) 
energy

$$$$
77:0
     RDKit          3D

 61 62  0  0  0  0  0  0  0  0999 V2000
  148.0940  153.0050  137.4980 C   0  0  0  0  0  0  0  0  0  0  0  0
  146.8840  153.3130  136.7490 N   0  0  0  0  0  0  0  0  0  0  0  0
  146.7190  154.4340  135.8680 C   0  0  0  0  0  0  0  0  0  0  0  0
  147.7450  155.0330  135.4490 O   0  0  0  0  0  0  0  0  0  0  0  0
  145.3640  154.9160  135.4180 C   0  0  0  0  0  0  0  0  0  0  0  0
  144.4530  153.7540  135.0040 C   0  0  0  0  0  0  0  0  0  0  0  0
  143.0370  153.9440  135.4750 C   0  0  0  0  0  0  0  0  0  0  0  0
  142.7900  153.9560  136.7120 O   0  0  0  0  0  0  0  0  0  0  0  0
  141.9630  154.1170  134.5360 N   0  0  0  0  0  0  0  0  0  0  0  0
  141.3630  153.1720  133.7570 C   0  0  0  0  0  0  0  0  0  0  0  0
  141.6410  151.7210  133.7810 C   0  0  0  0  0  0  0  0  0  0  0  0
  142.3390  151.0910  132.7110 N   0  0  0  0  0  0  0  0  0  0  0  0
  141.2990  151.0380  134.7830 O   0  0  0  0  0  0  0  0  0  0  0  0
  140.3460  153.7410  132.9920 C   0  0  0  0  0  0  0  0  0  0  0  0
  140.3240  155.0700  133.3470 C   0  0  0  0  0  0  0  0  0  0  0  0
  139.4730  156.0900  132.9380 C   0  0  0  0  0  0  0  0  0  0  0  0
  139.6620  157.3670  133.4920 C   0  0  0  0  0  0  0  0  0  0  0  0
  140.7180  157.6080  134.4070 C   0  0  0  0  0  0  0  0  0  0  0  0
  140.9330  158.9920  134.9660 C   0  0  0  0  0  0  0  0  0  0  0  0
  142.4200  159.3520  135.1370 C   0  0  0  0  0  0  0  0  0  0  0  0
  143.1910  159.4320  133.8060 C   0  0  0  0  0  0  0  0  0  0  0  0
  144.6030  159.8380  133.9890 N   0  0  0  0  0  0  0  0  0  0  0  0
  144.7210  161.3010  134.0890 C   0  0  0  0  0  0  0  0  0  0  0  0
  145.5790  159.2550  133.0290 C   0  0  0  0  0  0  0  0  0  0  0  0
  146.9470  159.9670  132.9300 C   0  0  0  0  0  0  0  0  0  0  0  0
  148.0560  159.1360  133.4450 N   0  0  0  0  0  0  0  0  0  0  0  0
  149.1390  159.0660  132.4490 C   0  0  0  0  0  0  0  0  0  0  0  0
  147.5950  157.7730  133.7630 C   0  0  0  0  0  0  0  0  0  0  0  0
  141.5530  156.5410  134.8110 C   0  0  0  0  0  0  0  0  0  0  0  0
  141.3150  155.2730  134.2720 C   0  0  0  0  0  0  0  0  0  0  0  0
  147.8817  153.0590  138.5760 H   0  0  0  0  0  0  0  0  0  0  0  0
  148.4357  151.9912  137.2420 H   0  0  0  0  0  0  0  0  0  0  0  0
  148.8788  153.7320  137.2420 H   0  0  0  0  0  0  0  0  0  0  0  0
  144.8885  155.4636  136.2450 H   0  0  0  0  0  0  0  0  0  0  0  0
  145.5067  155.5664  134.5424 H   0  0  0  0  0  0  0  0  0  0  0  0
  144.4537  153.6774  133.9067 H   0  0  0  0  0  0  0  0  0  0  0  0
  144.8431  152.8374  135.4705 H   0  0  0  0  0  0  0  0  0  0  0  0
  142.4800  151.5790  131.7980 H   0  0  0  0  0  0  0  0  0  0  0  0
  139.6989  153.2351  132.2603 H   0  0  0  0  0  0  0  0  0  0  0  0
  138.6761  155.9030  132.2032 H   0  0  0  0  0  0  0  0  0  0  0  0
  138.9845  158.1876  133.2134 H   0  0  0  0  0  0  0  0  0  0  0  0
  140.4731  159.7207  134.2822 H   0  0  0  0  0  0  0  0  0  0  0  0
  140.4735  159.0163  135.9651 H   0  0  0  0  0  0  0  0  0  0  0  0
  142.4861  160.3297  135.6367 H   0  0  0  0  0  0  0  0  0  0  0  0
  142.8810  158.5480  135.7295 H   0  0  0  0  0  0  0  0  0  0  0  0
  143.1684  158.4426  133.3258 H   0  0  0  0  0  0  0  0  0  0  0  0
  142.7027  160.1964  133.1838 H   0  0  0  0  0  0  0  0  0  0  0  0
  144.7447  161.5954  135.1486 H   0  0  0  0  0  0  0  0  0  0  0  0
  145.6485  161.6286  133.5966 H   0  0  0  0  0  0  0  0  0  0  0  0
  143.8580  161.7730  133.5966 H   0  0  0  0  0  0  0  0  0  0  0  0
  145.7639  158.2131  133.3295 H   0  0  0  0  0  0  0  0  0  0  0  0
  145.1174  159.3649  132.0366 H   0  0  0  0  0  0  0  0  0  0  0  0
  147.1452  160.2051  131.8745 H   0  0  0  0  0  0  0  0  0  0  0  0
  146.8961  160.8763  133.5469 H   0  0  0  0  0  0  0  0  0  0  0  0
  150.1084  159.0033  132.9652 H   0  0  0  0  0  0  0  0  0  0  0  0
  149.0008  158.1749  131.8190 H   0  0  0  0  0  0  0  0  0  0  0  0
  149.1166  159.9675  131.8190 H   0  0  0  0  0  0  0  0  0  0  0  0
  147.5520  157.6458  134.8548 H   0  0  0  0  0  0  0  0  0  0  0  0
  146.5936  157.6156  133.3358 H   0  0  0  0  0  0  0  0  0  0  0  0
  148.2952  157.0401  133.3358 H   0  0  0  0  0  0  0  0  0  0  0  0
  142.3687  156.7042  135.5307 H   0  0  0  0  0  0  0  0  0  0  0  0
  1  2  1  0
  2  3  1  0
  3  4  2  0
  3  5  1  0
  5  6  1  0
  6  7  1  0
  7  8  2  0
  7  9  1  0
  9 10  1  0
 10 11  1  0
 11 12  1  0
 11 13  2  0
 10 14  2  0
 14 15  1  0
 15 16  2  0
 16 17  1  0
 17 18  2  0
 18 19  1  0
 19 20  1  0
 20 21  1  0
 21 22  1  0
 22 23  1  0
 22 24  1  0
 24 25  1  0
 25 26  1  0
 26 27  1  0
 26 28  1  0
 18 29  1  0
 29 30  2  0
 30  9  1  0
 30 15  1  0
  1 31  1  0
  1 32  1  0
  1 33  1  0
  5 34  1  0
  5 35  1  0
  6 36  1  0
  6 37  1  0
 12 38  1  0
 14 39  1  0
 16 40  1  0
 17 41  1  0
 19 42  1  0
 19 43  1  0
 20 44  1  0
 20 45  1  0
 21 46  1  0
 21 47  1  0
 23 48  1  0
 23 49  1  0
 23 50  1  0
 24 51  1  0
 24 52  1  0
 25 53  1  0
 25 54  1  0
 27 55  1  0
 27 56  1  0
 27 57  1  0
 28 58  1  0
 28 59  1  0
 28 60  1  0
 29 61  1  0
M  CHG  2   2  -1  12  -1
M  END
>  <UniqueID>  (78) 
77

>  <SMILES>  (78) 
C[N-]C(=O)CCC(=O)n1c(C([NH-])=O)cc2ccc(CCCN(C)CCN(C)C)cc21

>  <Energy>  (78) 
94.9122175238333

>  <Genealogy>  (78) 
C[N-]C(=O)CCC(=O)n1c(C([NH-])=O)cc2ccc(CCCN(C)CCN(C)C)cc21 (protonated)
C[N-]C(=O)CCC(=O)n1c(C([NH-])=O)cc2ccc(CCCN(C)CCN(C)C)cc21 (3D coordinates assigned)
C[N-]C(=O)CCC(=O)n1c(C([NH-])=O)cc2ccc(CCCN(C)CCN(C)C)cc21 (optimized conformer: 94.9122175238333 kcal/mol)

>  <smiles>  (78) 
CNC(=O)CCC(=O)n1c(C(N)=O)cc2ccc(CCCN(C)CCN(C)C)cc21

>  <score_type>  (78) 
oracle

>  <origin>  (78) 
adg

>  <m_score__min__energy>  (78) 
-8.2400000000000002

>  <m_primary>  (78) 
energy

$$$$
78:0
     RDKit          3D

 44 46  0  0  0  0  0  0  0  0999 V2000
  139.4830  157.8530  135.2410 C   0  0  0  0  0  0  0  0  0  0  0  0
  140.5740  158.0550  136.2880 C   0  0  0  0  0  0  0  0  0  0  0  0
  141.5140  159.2150  135.9430 C   0  0  0  0  0  0  0  0  0  0  0  0
  142.7220  158.7400  135.3510 O   0  0  0  0  0  0  0  0  0  0  0  0
  143.1170  159.0310  134.0400 C   0  0  0  0  0  0  0  0  0  0  0  0
  142.2550  159.1790  133.1320 O   0  0  0  0  0  0  0  0  0  0  0  0
  144.5130  159.1930  133.7370 N   0  0  0  0  0  0  0  0  0  0  0  0
  145.2570  160.3350  133.7880 C   0  0  0  0  0  0  0  0  0  0  0  0
  144.7420  161.6970  134.0410 C   0  0  0  0  0  0  0  0  0  0  0  0
  143.3910  162.0170  133.7150 N   0  0  0  0  0  0  0  0  0  0  0  0
  145.4710  162.5740  134.5740 O   0  0  0  0  0  0  0  0  0  0  0  0
  146.5890  160.0630  133.4850 C   0  0  0  0  0  0  0  0  0  0  0  0
  146.6400  158.7110  133.2380 C   0  0  0  0  0  0  0  0  0  0  0  0
  147.7230  157.9020  132.9050 C   0  0  0  0  0  0  0  0  0  0  0  0
  147.4910  156.5260  132.7410 C   0  0  0  0  0  0  0  0  0  0  0  0
  146.1920  155.9880  132.9100 C   0  0  0  0  0  0  0  0  0  0  0  0
  145.9670  154.5060  132.7800 C   0  0  0  0  0  0  0  0  0  0  0  0
  144.5830  154.2100  132.1770 C   0  0  0  0  0  0  0  0  0  0  0  0
  144.3410  154.5920  130.7800 N   0  0  0  0  0  0  0  0  0  0  0  0
  143.3710  154.2730  133.0970 C   0  0  0  0  0  0  0  0  0  0  0  0
  143.9040  152.9200  132.6240 C   0  0  0  0  0  0  0  0  0  0  0  0
  145.1180  156.8400  133.2540 C   0  0  0  0  0  0  0  0  0  0  0  0
  145.3730  158.2080  133.3950 C   0  0  0  0  0  0  0  0  0  0  0  0
  138.5209  157.6749  135.7436 H   0  0  0  0  0  0  0  0  0  0  0  0
  139.4072  158.7524  134.6122 H   0  0  0  0  0  0  0  0  0  0  0  0
  139.7342  156.9861  134.6122 H   0  0  0  0  0  0  0  0  0  0  0  0
  140.0978  158.2637  137.2573 H   0  0  0  0  0  0  0  0  0  0  0  0
  141.1774  157.1359  136.3221 H   0  0  0  0  0  0  0  0  0  0  0  0
  141.0083  159.8887  135.2357 H   0  0  0  0  0  0  0  0  0  0  0  0
  141.7665  159.7475  136.8718 H   0  0  0  0  0  0  0  0  0  0  0  0
  142.7030  161.2670  133.4820 H   0  0  0  0  0  0  0  0  0  0  0  0
  147.4238  160.7784  133.4505 H   0  0  0  0  0  0  0  0  0  0  0  0
  148.7292  158.3269  132.7743 H   0  0  0  0  0  0  0  0  0  0  0  0
  148.3264  155.8602  132.4788 H   0  0  0  0  0  0  0  0  0  0  0  0
  146.7427  154.0802  132.1266 H   0  0  0  0  0  0  0  0  0  0  0  0
  146.0170  154.0544  133.7818 H   0  0  0  0  0  0  0  0  0  0  0  0
  144.3480  153.7350  130.1830 H   0  0  0  0  0  0  0  0  0  0  0  0
  143.4060  155.0540  130.7070 H   0  0  0  0  0  0  0  0  0  0  0  0
  145.0690  155.2500  130.4170 H   0  0  0  0  0  0  0  0  0  0  0  0
  143.4929  154.5755  134.1475 H   0  0  0  0  0  0  0  0  0  0  0  0
  142.3950  154.7793  133.0646 H   0  0  0  0  0  0  0  0  0  0  0  0
  144.4099  152.2490  133.3338 H   0  0  0  0  0  0  0  0  0  0  0  0
  143.4714  152.0490  132.1100 H   0  0  0  0  0  0  0  0  0  0  0  0
  144.1060  156.4369  133.4071 H   0  0  0  0  0  0  0  0  0  0  0  0
  1  2  1  0
  2  3  1  0
  3  4  1  0
  4  5  1  0
  5  6  2  0
  5  7  1  0
  7  8  1  0
  8  9  1  0
  9 10  1  0
  9 11  2  0
  8 12  2  0
 12 13  1  0
 13 14  2  0
 14 15  1  0
 15 16  2  0
 16 17  1  0
 17 18  1  0
 18 19  1  0
 18 20  1  0
 20 21  1  0
 16 22  1  0
 22 23  2  0
 23  7  1  0
 23 13  1  0
 21 18  1  0
  1 24  1  0
  1 25  1  0
  1 26  1  0
  2 27  1  0
  2 28  1  0
  3 29  1  0
  3 30  1  0
 10 31  1  0
 12 32  1  0
 14 33  1  0
 15 34  1  0
 17 35  1  0
 17 36  1  0
 19 37  1  0
 19 38  1  0
 19 39  1  0
 20 40  1  0
 20 41  1  0
 21 42  1  0
 21 43  1  0
 22 44  1  0
M  CHG  2  10  -1  19   1
M  END
>  <UniqueID>  (79) 
78

>  <SMILES>  (79) 
CCCOC(=O)n1c(C([NH-])=O)cc2ccc(CC3([NH3+])CC3)cc21

>  <Energy>  (79) 
344.8629274992043

>  <Genealogy>  (79) 
CCCOC(=O)n1c(C([NH-])=O)cc2ccc(CC3([NH3+])CC3)cc21 (protonated)
CCCOC(=O)n1c(C([NH-])=O)cc2ccc(CC3([NH3+])CC3)cc21 (3D coordinates assigned)
CCCOC(=O)n1c(C([NH-])=O)cc2ccc(CC3([NH3+])CC3)cc21 (nonaromatic ring conformer: 344.8629274992043 kcal/mol)

>  <smiles>  (79) 
CCCOC(=O)n1c(C(N)=O)cc2ccc(CC3(N)CC3)cc21

>  <score_type>  (79) 
oracle

>  <origin>  (79) 
adg

>  <m_score__min__energy>  (79) 
-7.5999999999999996

>  <m_primary>  (79) 
energy

$$$$
79:0
     RDKit          3D

 56 57  0  0  0  0  0  0  0  0999 V2000
  137.6240  159.8050  131.0950 C   0  0  0  0  0  0  0  0  0  0  0  0
  138.7380  158.9040  131.6370 C   0  0  0  0  0  0  0  0  0  0  0  0
  140.1150  159.3350  131.1230 C   0  0  0  0  0  0  0  0  0  0  0  0
  138.7090  158.8520  133.1000 N   0  0  0  0  0  0  0  0  0  0  0  0
  138.9510  157.6910  133.9040 C   0  0  0  0  0  0  0  0  0  0  0  0
  138.9380  156.5560  133.3590 O   0  0  0  0  0  0  0  0  0  0  0  0
  139.2040  157.8150  135.2720 O   0  0  0  0  0  0  0  0  0  0  0  0
  140.2970  158.5670  135.7910 C   0  0  0  0  0  0  0  0  0  0  0  0
  141.5140  157.6570  135.9630 C   0  0  0  0  0  0  0  0  0  0  0  0
  142.0610  157.1930  134.6090 C   0  0  0  0  0  0  0  0  0  0  0  0
  143.2310  158.0400  134.1910 C   0  0  0  0  0  0  0  0  0  0  0  0
  143.1220  159.4530  134.1900 C   0  0  0  0  0  0  0  0  0  0  0  0
  144.2070  160.2530  133.7940 C   0  0  0  0  0  0  0  0  0  0  0  0
  145.3740  159.6150  133.3870 C   0  0  0  0  0  0  0  0  0  0  0  0
  146.5790  160.1450  132.9850 C   0  0  0  0  0  0  0  0  0  0  0  0
  147.3920  159.0480  132.7100 C   0  0  0  0  0  0  0  0  0  0  0  0
  148.7650  159.1650  132.1770 C   0  0  0  0  0  0  0  0  0  0  0  0
  149.2410  158.2750  131.1720 N   0  0  0  0  0  0  0  0  0  0  0  0
  149.5140  160.0930  132.5840 O   0  0  0  0  0  0  0  0  0  0  0  0
  146.7180  157.8840  132.9380 N   0  0  0  0  0  0  0  0  0  0  0  0
  147.2340  156.5470  132.8760 C   0  0  0  0  0  0  0  0  0  0  0  0
  148.4510  156.3350  133.1280 O   0  0  0  0  0  0  0  0  0  0  0  0
  146.3790  155.4960  132.5090 O   0  0  0  0  0  0  0  0  0  0  0  0
  146.2150  154.2500  133.2030 C   0  0  0  0  0  0  0  0  0  0  0  0
  145.0370  153.4520  132.6140 C   0  0  0  0  0  0  0  0  0  0  0  0
  147.5100  153.4480  133.0020 C   0  0  0  0  0  0  0  0  0  0  0  0
  146.0080  154.4900  134.7100 C   0  0  0  0  0  0  0  0  0  0  0  0
  145.4850  158.2500  133.3510 C   0  0  0  0  0  0  0  0  0  0  0  0
  144.4270  157.4270  133.7580 C   0  0  0  0  0  0  0  0  0  0  0  0
  137.0720  160.2514  131.9353 H   0  0  0  0  0  0  0  0  0  0  0  0
  138.0648  160.6036  130.4803 H   0  0  0  0  0  0  0  0  0  0  0  0
  136.9352  159.2069  130.4803 H   0  0  0  0  0  0  0  0  0  0  0  0
  138.5528  157.8876  131.2595 H   0  0  0  0  0  0  0  0  0  0  0  0
  140.7768  159.5421  131.9769 H   0  0  0  0  0  0  0  0  0  0  0  0
  140.5469  158.5291  130.5115 H   0  0  0  0  0  0  0  0  0  0  0  0
  140.0103  160.2433  130.5115 H   0  0  0  0  0  0  0  0  0  0  0  0
  140.5447  159.3808  135.0936 H   0  0  0  0  0  0  0  0  0  0  0  0
  140.0173  158.9893  136.7674 H   0  0  0  0  0  0  0  0  0  0  0  0
  142.3014  158.2094  136.4968 H   0  0  0  0  0  0  0  0  0  0  0  0
  141.2045  156.7692  136.5339 H   0  0  0  0  0  0  0  0  0  0  0  0
  142.3845  156.1448  134.6901 H   0  0  0  0  0  0  0  0  0  0  0  0
  141.2665  157.2894  133.8543 H   0  0  0  0  0  0  0  0  0  0  0  0
  142.1799  159.9275  134.5019 H   0  0  0  0  0  0  0  0  0  0  0  0
  144.1357  161.3506  133.8055 H   0  0  0  0  0  0  0  0  0  0  0  0
  146.8438  161.2092  132.8991 H   0  0  0  0  0  0  0  0  0  0  0  0
  149.1420  157.2420  131.2760 H   0  0  0  0  0  0  0  0  0  0  0  0
  144.4281  153.0395  133.4320 H   0  0  0  0  0  0  0  0  0  0  0  0
  144.4170  154.1168  131.9946 H   0  0  0  0  0  0  0  0  0  0  0  0
  145.4244  152.6296  131.9946 H   0  0  0  0  0  0  0  0  0  0  0  0
  147.9344  153.1852  133.9822 H   0  0  0  0  0  0  0  0  0  0  0  0
  147.2885  152.5287  132.4399 H   0  0  0  0  0  0  0  0  0  0  0  0
  148.2343  154.0559  132.4399 H   0  0  0  0  0  0  0  0  0  0  0  0
  146.6216  153.7786  135.2823 H   0  0  0  0  0  0  0  0  0  0  0  0
  146.3074  155.5180  134.9621 H   0  0  0  0  0  0  0  0  0  0  0  0
  144.9472  154.3448  134.9621 H   0  0  0  0  0  0  0  0  0  0  0  0
  144.5254  156.3315  133.7407 H   0  0  0  0  0  0  0  0  0  0  0  0
  1  2  1  0
  2  3  1  0
  2  4  1  0
  4  5  1  0
  5  6  2  0
  5  7  1  0
  7  8  1  0
  8  9  1  0
  9 10  1  0
 10 11  1  0
 11 12  2  0
 12 13  1  0
 13 14  2  0
 14 15  1  0
 15 16  2  0
 16 17  1  0
 17 18  1  0
 17 19  2  0
 16 20  1  0
 20 21  1  0
 21 22  2  0
 21 23  1  0
 23 24  1  0
 24 25  1  0
 24 26  1  0
 24 27  1  0
 20 28  1  0
 28 29  2  0
 29 11  1  0
 28 14  1  0
  1 30  1  0
  1 31  1  0
  1 32  1  0
  2 33  1  0
  3 34  1  0
  3 35  1  0
  3 36  1  0
  8 37  1  0
  8 38  1  0
  9 39  1  0
  9 40  1  0
 10 41  1  0
 10 42  1  0
 12 43  1  0
 13 44  1  0
 15 45  1  0
 18 46  1  0
 25 47  1  0
 25 48  1  0
 25 49  1  0
 26 50  1  0
 26 51  1  0
 26 52  1  0
 27 53  1  0
 27 54  1  0
 27 55  1  0
 29 56  1  0
M  CHG  2   4  -1  18  -1
M  END
>  <UniqueID>  (80) 
79

>  <SMILES>  (80) 
CC(C)[N-]C(=O)OCCCc1ccc2cc(C([NH-])=O)n(C(=O)OC(C)(C)C)c2c1

>  <Energy>  (80) 
76.12747605532026

>  <Genealogy>  (80) 
CC(C)[N-]C(=O)OCCCc1ccc2cc(C([NH-])=O)n(C(=O)OC(C)(C)C)c2c1 (protonated)
CC(C)[N-]C(=O)OCCCc1ccc2cc(C([NH-])=O)n(C(=O)OC(C)(C)C)c2c1 (3D coordinates assigned)
CC(C)[N-]C(=O)OCCCc1ccc2cc(C([NH-])=O)n(C(=O)OC(C)(C)C)c2c1 (optimized conformer: 76.12747605532026 kcal/mol)

>  <smiles>  (80) 
CC(C)NC(=O)OCCCc1ccc2cc(C(N)=O)n(C(=O)OC(C)(C)C)c2c1

>  <score_type>  (80) 
oracle

>  <origin>  (80) 
adg

>  <m_score__min__energy>  (80) 
-8.1500000000000004

>  <m_primary>  (80) 
energy

$$$$
80:0
     RDKit          3D

 43 45  0  0  0  0  0  0  0  0999 V2000
  138.6190  157.1680  133.4680 N   0  0  0  0  0  0  0  0  0  0  0  0
  139.4590  156.0380  133.2320 C   0  0  0  0  0  0  0  0  0  0  0  0
  138.9370  154.9480  132.8740 O   0  0  0  0  0  0  0  0  0  0  0  0
  140.9210  156.1260  133.4360 C   0  0  0  0  0  0  0  0  0  0  0  0
  141.7330  155.0240  133.6980 C   0  0  0  0  0  0  0  0  0  0  0  0
  143.0210  155.5070  133.6730 C   0  0  0  0  0  0  0  0  0  0  0  0
  144.2320  154.8460  133.8690 C   0  0  0  0  0  0  0  0  0  0  0  0
  145.4140  155.6030  133.7990 C   0  0  0  0  0  0  0  0  0  0  0  0
  145.3620  156.9910  133.5350 C   0  0  0  0  0  0  0  0  0  0  0  0
  146.5690  157.7540  133.4820 N   0  0  0  0  0  0  0  0  0  0  0  0
  148.0170  157.4920  133.3650 C   0  0  0  0  0  0  0  0  0  0  0  0
  148.4360  158.9310  133.3870 C   0  0  0  0  0  0  0  0  0  0  0  0
  149.1670  159.2980  134.5350 O   0  0  0  0  0  0  0  0  0  0  0  0
  146.9620  159.1770  133.4980 C   0  0  0  0  0  0  0  0  0  0  0  0
  144.1210  157.6270  133.3320 C   0  0  0  0  0  0  0  0  0  0  0  0
  142.9610  156.8500  133.4050 C   0  0  0  0  0  0  0  0  0  0  0  0
  141.6770  157.2500  133.2730 N   0  0  0  0  0  0  0  0  0  0  0  0
  141.2280  158.5980  133.0510 C   0  0  0  0  0  0  0  0  0  0  0  0
  140.3510  158.8260  132.1750 O   0  0  0  0  0  0  0  0  0  0  0  0
  141.7940  159.7510  133.8390 C   0  0  0  0  0  0  0  0  0  0  0  0
  141.1830  159.8580  135.2480 C   0  0  0  0  0  0  0  0  0  0  0  0
  141.4370  158.6190  136.1220 C   0  0  0  0  0  0  0  0  0  0  0  0
  140.1870  157.8470  136.4000 C   0  0  0  0  0  0  0  0  0  0  0  0
  139.0960  158.1950  135.8760 O   0  0  0  0  0  0  0  0  0  0  0  0
  140.2280  156.7310  137.2260 O   0  0  0  0  0  0  0  0  0  0  0  0
  137.5830  157.0840  133.3570 H   0  0  0  0  0  0  0  0  0  0  0  0
  139.0200  158.0990  133.7140 H   0  0  0  0  0  0  0  0  0  0  0  0
  141.4124  153.9885  133.8850 H   0  0  0  0  0  0  0  0  0  0  0  0
  144.2618  153.7653  134.0722 H   0  0  0  0  0  0  0  0  0  0  0  0
  146.3866  155.1121  133.9507 H   0  0  0  0  0  0  0  0  0  0  0  0
  148.4158  156.9198  134.2156 H   0  0  0  0  0  0  0  0  0  0  0  0
  148.3506  156.8841  132.5111 H   0  0  0  0  0  0  0  0  0  0  0  0
  149.0826  159.3960  132.6282 H   0  0  0  0  0  0  0  0  0  0  0  0
  149.6010  158.4900  134.9190 H   0  0  0  0  0  0  0  0  0  0  0  0
  146.6847  159.6844  134.4338 H   0  0  0  0  0  0  0  0  0  0  0  0
  146.5037  159.8337  132.7438 H   0  0  0  0  0  0  0  0  0  0  0  0
  144.0664  158.7054  133.1218 H   0  0  0  0  0  0  0  0  0  0  0  0
  142.8810  159.6127  133.9354 H   0  0  0  0  0  0  0  0  0  0  0  0
  141.5508  160.6773  133.2978 H   0  0  0  0  0  0  0  0  0  0  0  0
  141.6185  160.7341  135.7508 H   0  0  0  0  0  0  0  0  0  0  0  0
  140.0939  159.9478  135.1225 H   0  0  0  0  0  0  0  0  0  0  0  0
  142.1494  157.9612  135.6026 H   0  0  0  0  0  0  0  0  0  0  0  0
  141.8358  158.9669  137.0863 H   0  0  0  0  0  0  0  0  0  0  0  0
  1  2  1  0
  2  3  2  0
  2  4  1  0
  4  5  2  0
  5  6  1  0
  6  7  2  0
  7  8  1  0
  8  9  2  0
  9 10  1  0
 10 11  1  0
 11 12  1  0
 12 13  1  0
 12 14  1  0
  9 15  1  0
 15 16  2  0
 16 17  1  0
 17 18  1  0
 18 19  2  0
 18 20  1  0
 20 21  1  0
 21 22  1  0
 22 23  1  0
 23 24  2  0
 23 25  1  0
 17  4  1  0
 16  6  1  0
 14 10  1  0
  1 26  1  0
  1 27  1  0
  5 28  1  0
  7 29  1  0
  8 30  1  0
 11 31  1  0
 11 32  1  0
 12 33  1  0
 13 34  1  0
 14 35  1  0
 14 36  1  0
 15 37  1  0
 20 38  1  0
 20 39  1  0
 21 40  1  0
 21 41  1  0
 22 42  1  0
 22 43  1  0
M  CHG  1  25  -1
M  END
>  <UniqueID>  (81) 
80

>  <SMILES>  (81) 
NC(=O)c1cc2ccc(N3CC(O)C3)cc2n1C(=O)CCCC(=O)[O-]

>  <Energy>  (81) 
125.06747279054696

>  <Genealogy>  (81) 
NC(=O)c1cc2ccc(N3CC(O)C3)cc2n1C(=O)CCCC(=O)[O-] (protonated)
NC(=O)c1cc2ccc(N3CC(O)C3)cc2n1C(=O)CCCC(=O)[O-] (3D coordinates assigned)
NC(=O)c1cc2ccc(N3CC(O)C3)cc2n1C(=O)CCCC(=O)[O-] (nonaromatic ring conformer: 125.06747279054696 kcal/mol)

>  <smiles>  (81) 
NC(=O)c1cc2ccc(N3CC(O)C3)cc2n1C(=O)CCCC(=O)O

>  <score_type>  (81) 
oracle

>  <origin>  (81) 
adg

>  <m_score__min__energy>  (81) 
-7.5800000000000001

>  <m_primary>  (81) 
energy

$$$$
81:0
     RDKit          3D

 40 41  0  0  0  0  0  0  0  0999 V2000
  145.5670  153.5070  133.0150 C   0  0  0  0  0  0  0  0  0  0  0  0
  146.9720  154.0330  133.3430 C   0  0  1  0  0  0  0  0  0  0  0  0
  148.0000  152.8850  133.3570 C   0  0  0  0  0  0  0  0  0  0  0  0
  148.8150  152.9000  132.1180 N   0  0  0  0  0  0  0  0  0  0  0  0
  149.9830  153.7870  132.2520 C   0  0  0  0  0  0  0  0  0  0  0  0
  149.2580  151.5450  131.7520 C   0  0  0  0  0  0  0  0  0  0  0  0
  147.3640  155.0730  132.3810 N   0  0  0  0  0  0  0  0  0  0  0  0
  147.3800  156.4880  132.6610 C   0  0  0  0  0  0  0  0  0  0  0  0
  148.6160  157.1790  132.6200 C   0  0  0  0  0  0  0  0  0  0  0  0
  148.6890  158.5520  132.9020 C   0  0  0  0  0  0  0  0  0  0  0  0
  147.5080  159.2150  133.2140 C   0  0  0  0  0  0  0  0  0  0  0  0
  147.2970  160.5310  133.5540 C   0  0  0  0  0  0  0  0  0  0  0  0
  145.9260  160.6410  133.7730 C   0  0  0  0  0  0  0  0  0  0  0  0
  145.2520  161.9200  134.0800 C   0  0  0  0  0  0  0  0  0  0  0  0
  145.9190  162.9430  134.8130 N   0  0  0  0  0  0  0  0  0  0  0  0
  144.0530  162.0920  133.7320 O   0  0  0  0  0  0  0  0  0  0  0  0
  145.3130  159.4380  133.5840 N   0  0  0  0  0  0  0  0  0  0  0  0
  143.9310  159.1130  133.8050 C   0  0  0  0  0  0  0  0  0  0  0  0
  143.3120  158.3790  132.9910 O   0  0  0  0  0  0  0  0  0  0  0  0
  143.2720  159.5850  134.9340 O   0  0  0  0  0  0  0  0  0  0  0  0
  146.2960  158.5750  133.2390 C   0  0  0  0  0  0  0  0  0  0  0  0
  146.1970  157.2030  132.9780 C   0  0  0  0  0  0  0  0  0  0  0  0
  145.0241  153.3037  133.9498 H   0  0  0  0  0  0  0  0  0  0  0  0
  145.0204  154.2614  132.4301 H   0  0  0  0  0  0  0  0  0  0  0  0
  145.6502  152.5791  132.4301 H   0  0  0  0  0  0  0  0  0  0  0  0
  146.9499  154.4779  134.3488 H   0  0  0  0  0  0  0  0  0  0  0  0
  148.6625  153.0034  134.2271 H   0  0  0  0  0  0  0  0  0  0  0  0
  147.4619  151.9274  133.4164 H   0  0  0  0  0  0  0  0  0  0  0  0
  150.1986  153.9508  133.3182 H   0  0  0  0  0  0  0  0  0  0  0  0
  150.8546  153.3211  131.7690 H   0  0  0  0  0  0  0  0  0  0  0  0
  149.7682  154.7516  131.7690 H   0  0  0  0  0  0  0  0  0  0  0  0
  149.4485  150.9623  132.6653 H   0  0  0  0  0  0  0  0  0  0  0  0
  148.4746  151.0509  131.1586 H   0  0  0  0  0  0  0  0  0  0  0  0
  150.1820  151.6091  131.1586 H   0  0  0  0  0  0  0  0  0  0  0  0
  147.6720  154.7680  131.4290 H   0  0  0  0  0  0  0  0  0  0  0  0
  149.5340  156.6303  132.3628 H   0  0  0  0  0  0  0  0  0  0  0  0
  149.6502  159.0863  132.8769 H   0  0  0  0  0  0  0  0  0  0  0  0
  148.0512  161.3276  133.6356 H   0  0  0  0  0  0  0  0  0  0  0  0
  146.9620  162.9760  134.8620 H   0  0  0  0  0  0  0  0  0  0  0  0
  145.2240  156.6914  133.0179 H   0  0  0  0  0  0  0  0  0  0  0  0
  1  2  1  0
  2  3  1  0
  3  4  1  0
  4  5  1  0
  4  6  1  0
  2  7  1  0
  7  8  1  0
  8  9  2  0
  9 10  1  0
 10 11  2  0
 11 12  1  0
 12 13  2  0
 13 14  1  0
 14 15  1  0
 14 16  2  0
 13 17  1  0
 17 18  1  0
 18 19  2  0
 18 20  1  0
 17 21  1  0
 21 22  2  0
 22  8  1  0
 21 11  1  0
  1 23  1  0
  1 24  1  0
  1 25  1  0
  2 26  1  1
  3 27  1  0
  3 28  1  0
  5 29  1  0
  5 30  1  0
  5 31  1  0
  6 32  1  0
  6 33  1  0
  6 34  1  0
  7 35  1  0
  9 36  1  0
 10 37  1  0
 12 38  1  0
 15 39  1  0
 22 40  1  0
M  CHG  2  15  -1  20  -1
M  END
>  <UniqueID>  (82) 
81

>  <SMILES>  (82) 
C[C@@H](CN(C)C)Nc1ccc2cc(C([NH-])=O)n(C(=O)[O-])c2c1

>  <Energy>  (82) 
78.2187775763725

>  <Genealogy>  (82) 
C[C@@H](CN(C)C)Nc1ccc2cc(C([NH-])=O)n(C(=O)[O-])c2c1 (protonated)
C[C@@H](CN(C)C)Nc1ccc2cc(C([NH-])=O)n(C(=O)[O-])c2c1 (3D coordinates assigned)
C[C@@H](CN(C)C)Nc1ccc2cc(C([NH-])=O)n(C(=O)[O-])c2c1 (optimized conformer: 78.2187775763725 kcal/mol)

>  <smiles>  (82) 
C[C@@H](CN(C)C)Nc1ccc2cc(C(N)=O)n(C(=O)O)c2c1

>  <score_type>  (82) 
oracle

>  <origin>  (82) 
adg

>  <m_score__min__energy>  (82) 
-6.9000000000000004

>  <m_primary>  (82) 
energy

$$$$
82:0
     RDKit          3D

 49 51  0  0  0  0  0  0  0  0999 V2000
  146.4470  153.1080  137.5820 C   0  0  0  0  0  0  0  0  0  0  0  0
  146.5370  153.7360  136.2560 N   0  0  0  0  0  0  0  0  0  0  0  0
  145.2870  154.4570  135.9640 C   0  0  0  0  0  0  0  0  0  0  0  0
  145.3200  154.9700  134.5250 C   0  0  0  0  0  0  0  0  0  0  0  0
  146.5490  155.7220  134.2560 N   0  0  0  0  0  0  0  0  0  0  0  0
  146.5700  156.5240  133.0670 C   0  0  0  0  0  0  0  0  0  0  0  0
  146.5720  155.9690  131.9340 O   0  0  0  0  0  0  0  0  0  0  0  0
  146.4350  157.9460  133.1550 N   0  0  0  0  0  0  0  0  0  0  0  0
  147.3870  158.9020  132.9600 C   0  0  0  0  0  0  0  0  0  0  0  0
  148.7790  158.6660  132.5220 C   0  0  0  0  0  0  0  0  0  0  0  0
  149.1590  157.4600  131.8570 N   0  0  0  0  0  0  0  0  0  0  0  0
  149.6340  159.5860  132.6620 O   0  0  0  0  0  0  0  0  0  0  0  0
  146.8540  160.1720  133.1980 C   0  0  0  0  0  0  0  0  0  0  0  0
  145.5290  159.9590  133.5080 C   0  0  0  0  0  0  0  0  0  0  0  0
  144.5190  160.8640  133.8230 C   0  0  0  0  0  0  0  0  0  0  0  0
  143.2350  160.3530  134.0740 C   0  0  0  0  0  0  0  0  0  0  0  0
  142.9890  158.9560  134.0370 C   0  0  0  0  0  0  0  0  0  0  0  0
  141.5990  158.4240  134.2650 C   0  0  0  0  0  0  0  0  0  0  0  0
  141.1740  157.4420  133.1630 C   0  0  0  0  0  0  0  0  0  0  0  0
  139.4030  157.1480  133.1530 S   0  0  0  0  0  0  0  0  0  0  0  0
  139.1100  155.4470  133.0290 N   0  0  0  0  0  0  0  0  0  0  0  0
  138.7620  157.8500  131.9860 O   0  0  0  0  0  0  0  0  0  0  0  0
  138.7950  157.6510  134.4330 O   0  0  0  0  0  0  0  0  0  0  0  0
  144.0410  158.0700  133.7250 C   0  0  0  0  0  0  0  0  0  0  0  0
  145.3000  158.6100  133.4600 C   0  0  0  0  0  0  0  0  0  0  0  0
  147.8340  155.2500  134.7990 C   0  0  0  0  0  0  0  0  0  0  0  0
  147.6680  154.6820  136.2120 C   0  0  0  0  0  0  0  0  0  0  0  0
  146.5573  153.8774  138.3603 H   0  0  0  0  0  0  0  0  0  0  0  0
  145.4691  152.6157  137.6890 H   0  0  0  0  0  0  0  0  0  0  0  0
  147.2473  152.3609  137.6890 H   0  0  0  0  0  0  0  0  0  0  0  0
  144.4325  153.7761  136.0912 H   0  0  0  0  0  0  0  0  0  0  0  0
  145.1838  155.3071  136.6544 H   0  0  0  0  0  0  0  0  0  0  0  0
  145.2667  154.1128  133.8377 H   0  0  0  0  0  0  0  0  0  0  0  0
  144.4620  155.6421  134.3761 H   0  0  0  0  0  0  0  0  0  0  0  0
  150.1700  157.2860  131.6370 H   0  0  0  0  0  0  0  0  0  0  0  0
  148.4450  156.8010  131.4810 H   0  0  0  0  0  0  0  0  0  0  0  0
  147.3807  161.1364  133.1483 H   0  0  0  0  0  0  0  0  0  0  0  0
  144.7201  161.9443  133.8737 H   0  0  0  0  0  0  0  0  0  0  0  0
  142.4102  161.0441  134.3020 H   0  0  0  0  0  0  0  0  0  0  0  0
  141.5715  157.9046  135.2342 H   0  0  0  0  0  0  0  0  0  0  0  0
  140.9017  159.2747  134.2512 H   0  0  0  0  0  0  0  0  0  0  0  0
  141.4686  157.8566  132.1877 H   0  0  0  0  0  0  0  0  0  0  0  0
  141.6721  156.4812  133.3600 H   0  0  0  0  0  0  0  0  0  0  0  0
  138.1460  155.3310  132.6390 H   0  0  0  0  0  0  0  0  0  0  0  0
  143.8736  156.9833  133.6915 H   0  0  0  0  0  0  0  0  0  0  0  0
  148.2333  154.4636  134.1416 H   0  0  0  0  0  0  0  0  0  0  0  0
  148.5244  156.1049  134.8481 H   0  0  0  0  0  0  0  0  0  0  0  0
  148.5904  154.1580  136.5027 H   0  0  0  0  0  0  0  0  0  0  0  0
  147.4682  155.5098  136.9083 H   0  0  0  0  0  0  0  0  0  0  0  0
  1  2  1  0
  2  3  1  0
  3  4  1  0
  4  5  1  0
  5  6  1  0
  6  7  2  0
  6  8  1  0
  8  9  1  0
  9 10  1  0
 10 11  1  0
 10 12  2  0
  9 13  2  0
 13 14  1  0
 14 15  2  0
 15 16  1  0
 16 17  2  0
 17 18  1  0
 18 19  1  0
 19 20  1  0
 20 21  1  0
 20 22  2  0
 20 23  2  0
 17 24  1  0
 24 25  2  0
  5 26  1  0
 26 27  1  0
 27  2  1  0
 25  8  1  0
 25 14  1  0
  1 28  1  0
  1 29  1  0
  1 30  1  0
  3 31  1  0
  3 32  1  0
  4 33  1  0
  4 34  1  0
 11 35  1  0
 11 36  1  0
 13 37  1  0
 15 38  1  0
 16 39  1  0
 18 40  1  0
 18 41  1  0
 19 42  1  0
 19 43  1  0
 21 44  1  0
 24 45  1  0
 26 46  1  0
 26 47  1  0
 27 48  1  0
 27 49  1  0
M  CHG  1  21  -1
M  END
>  <UniqueID>  (83) 
82

>  <SMILES>  (83) 
CN1CCN(C(=O)n2c(C(N)=O)cc3ccc(CCS([NH-])(=O)=O)cc32)CC1

>  <Energy>  (83) 
91.00172019688276

>  <Genealogy>  (83) 
CN1CCN(C(=O)n2c(C(N)=O)cc3ccc(CCS([NH-])(=O)=O)cc32)CC1 (protonated)
CN1CCN(C(=O)n2c(C(N)=O)cc3ccc(CCS([NH-])(=O)=O)cc32)CC1 (3D coordinates assigned)
CN1CCN(C(=O)n2c(C(N)=O)cc3ccc(CCS([NH-])(=O)=O)cc32)CC1 (nonaromatic ring conformer: 91.00172019688276 kcal/mol)

>  <smiles>  (83) 
CN1CCN(C(=O)n2c(C(N)=O)cc3ccc(CCS(N)(=O)=O)cc32)CC1

>  <score_type>  (83) 
oracle

>  <origin>  (83) 
adg

>  <m_score__min__energy>  (83) 
-8.6999999999999993

>  <m_primary>  (83) 
energy

$$$$
83:0
     RDKit          3D

 56 57  0  0  0  0  0  0  0  0999 V2000
  140.4460  158.9690  136.8750 C   0  0  0  0  0  0  0  0  0  0  0  0
  141.7550  158.9960  136.6090 C   0  0  0  0  0  0  0  0  0  0  0  0
  142.2730  159.4710  135.2840 C   0  0  0  0  0  0  0  0  0  0  0  0
  143.2200  158.5340  134.7840 O   0  0  0  0  0  0  0  0  0  0  0  0
  144.0590  158.8080  133.7000 C   0  0  0  0  0  0  0  0  0  0  0  0
  143.9700  159.9120  133.0950 O   0  0  0  0  0  0  0  0  0  0  0  0
  145.0450  157.8430  133.2940 N   0  0  0  0  0  0  0  0  0  0  0  0
  146.3980  158.0030  133.2670 C   0  0  0  0  0  0  0  0  0  0  0  0
  147.1210  159.2770  133.4530 C   0  0  0  0  0  0  0  0  0  0  0  0
  146.6330  160.4910  132.8820 N   0  0  0  0  0  0  0  0  0  0  0  0
  148.2110  159.2840  134.0840 O   0  0  0  0  0  0  0  0  0  0  0  0
  147.0350  156.7930  133.0100 C   0  0  0  0  0  0  0  0  0  0  0  0
  146.0210  155.8760  132.8620 C   0  0  0  0  0  0  0  0  0  0  0  0
  146.0860  154.5020  132.6470 C   0  0  0  0  0  0  0  0  0  0  0  0
  144.8820  153.7820  132.6170 C   0  0  0  0  0  0  0  0  0  0  0  0
  143.6410  154.4430  132.7920 C   0  0  0  0  0  0  0  0  0  0  0  0
  142.3580  153.6550  132.8100 C   0  0  0  0  0  0  0  0  0  0  0  0
  141.6400  153.7750  134.1600 C   0  0  0  0  0  0  0  0  0  0  0  0
  141.0680  155.1160  134.3450 N   0  0  0  0  0  0  0  0  0  0  0  0
  141.3390  155.8550  135.5810 C   0  0  0  0  0  0  0  0  0  0  0  0
  140.2090  155.6970  133.3460 C   0  0  0  0  0  0  0  0  0  0  0  0
  139.1600  155.0900  132.9940 O   0  0  0  0  0  0  0  0  0  0  0  0
  140.5480  156.9300  132.7660 O   0  0  0  0  0  0  0  0  0  0  0  0
  139.7250  158.1050  132.7140 C   0  0  0  0  0  0  0  0  0  0  0  0
  138.9270  158.1580  134.0250 C   0  0  0  0  0  0  0  0  0  0  0  0
  140.5860  159.3780  132.6050 C   0  0  0  0  0  0  0  0  0  0  0  0
  138.7380  158.0180  131.5340 C   0  0  0  0  0  0  0  0  0  0  0  0
  143.6140  155.8360  133.0140 C   0  0  0  0  0  0  0  0  0  0  0  0
  144.8290  156.5330  133.0330 C   0  0  0  0  0  0  0  0  0  0  0  0
  140.0910  158.6163  137.8546 H   0  0  0  0  0  0  0  0  0  0  0  0
  139.7233  159.2995  136.1145 H   0  0  0  0  0  0  0  0  0  0  0  0
  142.4677  158.6629  137.3778 H   0  0  0  0  0  0  0  0  0  0  0  0
  141.4373  159.5625  134.5746 H   0  0  0  0  0  0  0  0  0  0  0  0
  142.7561  160.4514  135.4081 H   0  0  0  0  0  0  0  0  0  0  0  0
  145.8210  160.4880  132.2260 H   0  0  0  0  0  0  0  0  0  0  0  0
  147.1290  161.3930  133.0620 H   0  0  0  0  0  0  0  0  0  0  0  0
  148.1173  156.6094  132.9402 H   0  0  0  0  0  0  0  0  0  0  0  0
  147.0523  153.9960  132.5049 H   0  0  0  0  0  0  0  0  0  0  0  0
  144.9018  152.6940  132.4561 H   0  0  0  0  0  0  0  0  0  0  0  0
  141.6951  154.0342  132.0183 H   0  0  0  0  0  0  0  0  0  0  0  0
  142.6028  152.5956  132.6437 H   0  0  0  0  0  0  0  0  0  0  0  0
  140.8304  153.0315  134.2023 H   0  0  0  0  0  0  0  0  0  0  0  0
  142.3741  153.5981  134.9598 H   0  0  0  0  0  0  0  0  0  0  0  0
  141.1056  155.2186  136.4473 H   0  0  0  0  0  0  0  0  0  0  0  0
  142.4006  156.1413  135.6117 H   0  0  0  0  0  0  0  0  0  0  0  0
  140.7142  156.7598  135.6117 H   0  0  0  0  0  0  0  0  0  0  0  0
  139.6199  158.1120  134.8781 H   0  0  0  0  0  0  0  0  0  0  0  0
  138.3543  159.0962  134.0680 H   0  0  0  0  0  0  0  0  0  0  0  0
  138.2352  157.3038  134.0680 H   0  0  0  0  0  0  0  0  0  0  0  0
  140.8320  159.7417  133.6135 H   0  0  0  0  0  0  0  0  0  0  0  0
  141.5143  159.1474  132.0618 H   0  0  0  0  0  0  0  0  0  0  0  0
  140.0264  160.1538  132.0618 H   0  0  0  0  0  0  0  0  0  0  0  0
  137.7120  157.9276  131.9201 H   0  0  0  0  0  0  0  0  0  0  0  0
  138.8199  158.9268  130.9197 H   0  0  0  0  0  0  0  0  0  0  0  0
  138.9776  157.1375  130.9197 H   0  0  0  0  0  0  0  0  0  0  0  0
  142.6608  156.3627  133.1686 H   0  0  0  0  0  0  0  0  0  0  0  0
  1  2  2  0
  2  3  1  0
  3  4  1  0
  4  5  1  0
  5  6  2  0
  5  7  1  0
  7  8  1  0
  8  9  1  0
  9 10  1  0
  9 11  2  0
  8 12  2  0
 12 13  1  0
 13 14  2  0
 14 15  1  0
 15 16  2  0
 16 17  1  0
 17 18  1  0
 18 19  1  0
 19 20  1  0
 19 21  1  0
 21 22  2  0
 21 23  1  0
 23 24  1  0
 24 25  1  0
 24 26  1  0
 24 27  1  0
 16 28  1  0
 28 29  2  0
 29  7  1  0
 29 13  1  0
  1 30  1  0
  1 31  1  0
  2 32  1  0
  3 33  1  0
  3 34  1  0
 10 35  1  0
 10 36  1  0
 12 37  1  0
 14 38  1  0
 15 39  1  0
 17 40  1  0
 17 41  1  0
 18 42  1  0
 18 43  1  0
 20 44  1  0
 20 45  1  0
 20 46  1  0
 25 47  1  0
 25 48  1  0
 25 49  1  0
 26 50  1  0
 26 51  1  0
 26 52  1  0
 27 53  1  0
 27 54  1  0
 27 55  1  0
 28 56  1  0
M  END
>  <UniqueID>  (84) 
83

>  <SMILES>  (84) 
C=CCOC(=O)n1c(C(N)=O)cc2ccc(CCN(C)C(=O)OC(C)(C)C)cc21

>  <Energy>  (84) 
74.25627977198904

>  <Genealogy>  (84) 
C=CCOC(=O)n1c(C(N)=O)cc2ccc(CCN(C)C(=O)OC(C)(C)C)cc21 (3D coordinates assigned)
C=CCOC(=O)n1c(C(N)=O)cc2ccc(CCN(C)C(=O)OC(C)(C)C)cc21 (optimized conformer: 74.25627977198904 kcal/mol)

>  <smiles>  (84) 
C=CCOC(=O)n1c(C(N)=O)cc2ccc(CCN(C)C(=O)OC(C)(C)C)cc21

>  <score_type>  (84) 
oracle

>  <origin>  (84) 
adg

>  <m_score__min__energy>  (84) 
-8.1999999999999993

>  <m_primary>  (84) 
energy

$$$$
84:0
     RDKit          3D

 50 51  0  0  0  0  0  0  0  0999 V2000
  144.4990  154.1170  131.4660 C   0  0  0  0  0  0  0  0  0  0  0  0
  144.1870  153.3830  132.7880 C   0  0  0  0  0  0  0  0  0  0  0  0
  145.0730  153.9790  133.9040 C   0  0  0  0  0  0  0  0  0  0  0  0
  144.5390  151.8900  132.6050 C   0  0  0  0  0  0  0  0  0  0  0  0
  142.6690  153.5520  133.1160 C   0  0  2  0  0  0  0  0  0  0  0  0
  142.3630  154.9370  133.2920 O   0  0  0  0  0  0  0  0  0  0  0  0
  141.2130  155.4030  133.9400 C   0  0  0  0  0  0  0  0  0  0  0  0
  140.0800  154.9340  133.6450 O   0  0  0  0  0  0  0  0  0  0  0  0
  141.3280  156.4210  134.9460 N   0  0  0  0  0  0  0  0  0  0  0  0
  141.3240  157.7720  134.7700 C   0  0  0  0  0  0  0  0  0  0  0  0
  141.3460  158.4740  133.4710 C   0  0  0  0  0  0  0  0  0  0  0  0
  141.5570  157.7640  132.2490 N   0  0  0  0  0  0  0  0  0  0  0  0
  141.2330  159.7290  133.4430 O   0  0  0  0  0  0  0  0  0  0  0  0
  141.3530  158.4300  135.9960 C   0  0  0  0  0  0  0  0  0  0  0  0
  141.3880  157.4310  136.9430 C   0  0  0  0  0  0  0  0  0  0  0  0
  141.4220  157.5140  138.3310 C   0  0  0  0  0  0  0  0  0  0  0  0
  141.4240  156.3150  139.0640 C   0  0  0  0  0  0  0  0  0  0  0  0
  141.3750  155.0640  138.4000 C   0  0  0  0  0  0  0  0  0  0  0  0
  141.3880  153.7810  139.1920 C   0  0  0  0  0  0  0  0  0  0  0  0
  140.5000  152.7030  138.5530 C   0  0  0  0  0  0  0  0  0  0  0  0
  141.3130  151.5240  138.0080 C   0  0  0  0  0  0  0  0  0  0  0  0
  140.7930  151.1080  136.7740 O   0  0  0  0  0  0  0  0  0  0  0  0
  141.3420  155.0190  136.9890 C   0  0  0  0  0  0  0  0  0  0  0  0
  141.3700  156.2280  136.2840 C   0  0  0  0  0  0  0  0  0  0  0  0
  142.2420  152.7830  134.3410 C   0  0  0  0  0  0  0  0  0  0  0  0
  141.3230  151.9260  134.2620 O   0  0  0  0  0  0  0  0  0  0  0  0
  142.8690  153.0030  135.5620 O   0  0  0  0  0  0  0  0  0  0  0  0
  144.9205  155.1086  131.6878 H   0  0  0  0  0  0  0  0  0  0  0  0
  145.2260  153.5314  130.8842 H   0  0  0  0  0  0  0  0  0  0  0  0
  143.5728  154.2340  130.8842 H   0  0  0  0  0  0  0  0  0  0  0  0
  144.6616  153.7022  134.8859 H   0  0  0  0  0  0  0  0  0  0  0  0
  146.0955  153.5844  133.8105 H   0  0  0  0  0  0  0  0  0  0  0  0
  145.0929  155.0748  133.8105 H   0  0  0  0  0  0  0  0  0  0  0  0
  144.6507  151.4161  133.5913 H   0  0  0  0  0  0  0  0  0  0  0  0
  143.7343  151.3893  132.0467 H   0  0  0  0  0  0  0  0  0  0  0  0
  145.4826  151.8015  132.0467 H   0  0  0  0  0  0  0  0  0  0  0  0
  142.1109  153.1392  132.2627 H   0  0  0  0  0  0  0  0  0  0  0  0
  141.5280  158.2720  131.3370 H   0  0  0  0  0  0  0  0  0  0  0  0
  141.8270  156.7560  132.2510 H   0  0  0  0  0  0  0  0  0  0  0  0
  141.3488  159.5160  136.1711 H   0  0  0  0  0  0  0  0  0  0  0  0
  141.4466  158.4890  138.8397 H   0  0  0  0  0  0  0  0  0  0  0  0
  141.4639  156.3478  140.1628 H   0  0  0  0  0  0  0  0  0  0  0  0
  142.4207  153.4059  139.2439 H   0  0  0  0  0  0  0  0  0  0  0  0
  140.9928  153.9966  140.1957 H   0  0  0  0  0  0  0  0  0  0  0  0
  139.7985  152.3273  139.3125 H   0  0  0  0  0  0  0  0  0  0  0  0
  139.9692  153.1639  137.7069 H   0  0  0  0  0  0  0  0  0  0  0  0
  142.3598  151.8347  137.8753 H   0  0  0  0  0  0  0  0  0  0  0  0
  141.2574  150.6886  138.7215 H   0  0  0  0  0  0  0  0  0  0  0  0
  141.2900  151.6070  136.0740 H   0  0  0  0  0  0  0  0  0  0  0  0
  141.2954  154.0574  136.4569 H   0  0  0  0  0  0  0  0  0  0  0  0
  1  2  1  0
  2  3  1  0
  2  4  1  0
  2  5  1  0
  5  6  1  0
  6  7  1  0
  7  8  2  0
  7  9  1  0
  9 10  1  0
 10 11  1  0
 11 12  1  0
 11 13  2  0
 10 14  2  0
 14 15  1  0
 15 16  2  0
 16 17  1  0
 17 18  2  0
 18 19  1  0
 19 20  1  0
 20 21  1  0
 21 22  1  0
 18 23  1  0
 23 24  2  0
  5 25  1  0
 25 26  2  0
 25 27  1  0
 24  9  1  0
 24 15  1  0
  1 28  1  0
  1 29  1  0
  1 30  1  0
  3 31  1  0
  3 32  1  0
  3 33  1  0
  4 34  1  0
  4 35  1  0
  4 36  1  0
  5 37  1  6
 12 38  1  0
 12 39  1  0
 14 40  1  0
 16 41  1  0
 17 42  1  0
 19 43  1  0
 19 44  1  0
 20 45  1  0
 20 46  1  0
 21 47  1  0
 21 48  1  0
 22 49  1  0
 23 50  1  0
M  CHG  1  27  -1
M  END
>  <UniqueID>  (85) 
84

>  <SMILES>  (85) 
CC(C)(C)[C@H](OC(=O)n1c(C(N)=O)cc2ccc(CCCO)cc21)C(=O)[O-]

>  <Energy>  (85) 
77.69284962385184

>  <Genealogy>  (85) 
CC(C)(C)C(OC(=O)n1c(C(N)=O)cc2ccc(CCCO)cc21)C(=O)[O-] (protonated)
CC(C)(C)[C@H](OC(=O)n1c(C(N)=O)cc2ccc(CCCO)cc21)C(=O)[O-] (chirality)
CC(C)(C)[C@H](OC(=O)n1c(C(N)=O)cc2ccc(CCCO)cc21)C(=O)[O-] (3D coordinates assigned)
CC(C)(C)[C@H](OC(=O)n1c(C(N)=O)cc2ccc(CCCO)cc21)C(=O)[O-] (optimized conformer: 77.69284962385184 kcal/mol)

>  <smiles>  (85) 
CC(C)(C)C(OC(=O)n1c(C(N)=O)cc2ccc(CCCO)cc21)C(=O)O

>  <score_type>  (85) 
oracle

>  <origin>  (85) 
adg

>  <m_score__min__energy>  (85) 
-7.8600000000000003

>  <m_primary>  (85) 
energy

$$$$
85:0
     RDKit          3D

 44 45  0  0  0  0  0  0  0  0999 V2000
  145.3130  153.6900  136.8850 C   0  0  0  0  0  0  0  0  0  0  0  0
  146.5920  153.5600  136.3030 O   0  0  0  0  0  0  0  0  0  0  0  0
  146.8100  154.5890  135.3570 C   0  0  0  0  0  0  0  0  0  0  0  0
  145.7600  154.5160  134.2450 C   0  0  0  0  0  0  0  0  0  0  0  0
  144.6870  155.4160  134.5140 O   0  0  0  0  0  0  0  0  0  0  0  0
  143.9580  156.0640  133.5100 C   0  0  0  0  0  0  0  0  0  0  0  0
  143.7100  155.4760  132.4220 O   0  0  0  0  0  0  0  0  0  0  0  0
  143.5160  157.4150  133.7090 N   0  0  0  0  0  0  0  0  0  0  0  0
  142.2750  157.8430  134.0760 C   0  0  0  0  0  0  0  0  0  0  0  0
  141.0680  156.9990  134.1930 C   0  0  0  0  0  0  0  0  0  0  0  0
  140.7990  156.0040  133.2070 N   0  0  0  0  0  0  0  0  0  0  0  0
  140.2870  157.1230  135.1730 O   0  0  0  0  0  0  0  0  0  0  0  0
  142.2700  159.2240  134.2610 C   0  0  0  0  0  0  0  0  0  0  0  0
  143.5570  159.6330  133.9940 C   0  0  0  0  0  0  0  0  0  0  0  0
  144.1230  160.9020  134.0450 C   0  0  0  0  0  0  0  0  0  0  0  0
  145.4930  161.0250  133.7580 C   0  0  0  0  0  0  0  0  0  0  0  0
  146.2730  159.8850  133.4350 C   0  0  0  0  0  0  0  0  0  0  0  0
  147.7520  160.0390  133.1450 C   0  0  2  0  0  0  0  0  0  0  0  0
  147.9930  160.3720  131.6680 C   0  0  0  0  0  0  0  0  0  0  0  0
  148.5030  158.8020  133.5610 C   0  0  0  0  0  0  0  0  0  0  0  0
  148.8610  158.6680  134.7630 O   0  0  0  0  0  0  0  0  0  0  0  0
  148.7540  157.7870  132.6300 O   0  0  0  0  0  0  0  0  0  0  0  0
  148.3660  156.4360  132.8450 C   0  0  0  0  0  0  0  0  0  0  0  0
  145.6560  158.6120  133.3870 C   0  0  0  0  0  0  0  0  0  0  0  0
  144.2880  158.5220  133.6620 C   0  0  0  0  0  0  0  0  0  0  0  0
  145.4062  153.6805  137.9810 H   0  0  0  0  0  0  0  0  0  0  0  0
  144.8587  154.6389  136.5638 H   0  0  0  0  0  0  0  0  0  0  0  0
  144.6771  152.8519  136.5638 H   0  0  0  0  0  0  0  0  0  0  0  0
  146.7401  155.5651  135.8593 H   0  0  0  0  0  0  0  0  0  0  0  0
  147.8098  154.4647  134.9154 H   0  0  0  0  0  0  0  0  0  0  0  0
  146.2277  154.7859  133.2867 H   0  0  0  0  0  0  0  0  0  0  0  0
  145.3625  153.4915  134.1966 H   0  0  0  0  0  0  0  0  0  0  0  0
  141.5610  155.6370  132.5930 H   0  0  0  0  0  0  0  0  0  0  0  0
  141.4183  159.8538  134.5575 H   0  0  0  0  0  0  0  0  0  0  0  0
  143.5166  161.7830  134.3022 H   0  0  0  0  0  0  0  0  0  0  0  0
  145.9665  162.0175  133.7841 H   0  0  0  0  0  0  0  0  0  0  0  0
  148.1349  160.8830  133.7376 H   0  0  0  0  0  0  0  0  0  0  0  0
  148.6364  161.2610  131.5928 H   0  0  0  0  0  0  0  0  0  0  0  0
  148.4853  159.5204  131.1757 H   0  0  0  0  0  0  0  0  0  0  0  0
  147.0302  160.5735  131.1757 H   0  0  0  0  0  0  0  0  0  0  0  0
  148.3092  156.2384  133.9256 H   0  0  0  0  0  0  0  0  0  0  0  0
  147.3811  156.2602  132.3879 H   0  0  0  0  0  0  0  0  0  0  0  0
  149.1076  155.7644  132.3879 H   0  0  0  0  0  0  0  0  0  0  0  0
  146.2398  157.7133  133.1388 H   0  0  0  0  0  0  0  0  0  0  0  0
  1  2  1  0
  2  3  1  0
  3  4  1  0
  4  5  1  0
  5  6  1  0
  6  7  2  0
  6  8  1  0
  8  9  1  0
  9 10  1  0
 10 11  1  0
 10 12  2  0
  9 13  2  0
 13 14  1  0
 14 15  2  0
 15 16  1  0
 16 17  2  0
 17 18  1  0
 18 19  1  0
 18 20  1  0
 20 21  2  0
 20 22  1  0
 22 23  1  0
 17 24  1  0
 24 25  2  0
 25  8  1  0
 25 14  1  0
  1 26  1  0
  1 27  1  0
  1 28  1  0
  3 29  1  0
  3 30  1  0
  4 31  1  0
  4 32  1  0
 11 33  1  0
 13 34  1  0
 15 35  1  0
 16 36  1  0
 18 37  1  1
 19 38  1  0
 19 39  1  0
 19 40  1  0
 23 41  1  0
 23 42  1  0
 23 43  1  0
 24 44  1  0
M  CHG  1  11  -1
M  END
>  <UniqueID>  (86) 
85

>  <SMILES>  (86) 
COCCOC(=O)n1c(C([NH-])=O)cc2ccc([C@H](C)C(=O)OC)cc21

>  <Energy>  (86) 
76.59359808999369

>  <Genealogy>  (86) 
COCCOC(=O)n1c(C([NH-])=O)cc2ccc(C(C)C(=O)OC)cc21 (protonated)
COCCOC(=O)n1c(C([NH-])=O)cc2ccc([C@H](C)C(=O)OC)cc21 (chirality)
COCCOC(=O)n1c(C([NH-])=O)cc2ccc([C@H](C)C(=O)OC)cc21 (3D coordinates assigned)
COCCOC(=O)n1c(C([NH-])=O)cc2ccc([C@H](C)C(=O)OC)cc21 (optimized conformer: 76.59359808999369 kcal/mol)

>  <smiles>  (86) 
COCCOC(=O)n1c(C(N)=O)cc2ccc(C(C)C(=O)OC)cc21

>  <score_type>  (86) 
oracle

>  <origin>  (86) 
adg

>  <m_score__min__energy>  (86) 
-5.9199999999999999

>  <m_primary>  (86) 
energy

$$$$
86:0
     RDKit          3D

 42 43  0  0  0  0  0  0  0  0999 V2000
  138.8360  158.1950  134.8320 N   0  0  0  0  0  0  0  0  0  0  0  0
  140.0110  158.1110  135.6340 C   0  0  0  0  0  0  0  0  0  0  0  0
  139.9080  157.7980  136.8490 O   0  0  0  0  0  0  0  0  0  0  0  0
  141.3270  158.4340  135.0440 C   0  0  0  0  0  0  0  0  0  0  0  0
  141.7960  159.7350  134.8770 C   0  0  0  0  0  0  0  0  0  0  0  0
  143.0750  159.6030  134.3890 C   0  0  0  0  0  0  0  0  0  0  0  0
  144.0000  160.5780  134.0280 C   0  0  0  0  0  0  0  0  0  0  0  0
  145.2400  160.1550  133.5220 C   0  0  0  0  0  0  0  0  0  0  0  0
  145.5320  158.7740  133.3880 C   0  0  0  0  0  0  0  0  0  0  0  0
  146.8410  158.3340  132.7960 C   0  0  0  0  0  0  0  0  0  0  0  0
  147.8270  159.4560  132.8530 C   0  0  0  0  0  0  0  0  0  0  0  0
  148.7170  159.4590  133.7470 O   0  0  0  0  0  0  0  0  0  0  0  0
  147.7700  160.4640  131.8810 O   0  0  0  0  0  0  0  0  0  0  0  0
  148.8130  160.7980  131.0070 C   0  0  0  0  0  0  0  0  0  0  0  0
  149.0660  162.0000  130.7220 O   0  0  0  0  0  0  0  0  0  0  0  0
  149.6800  159.7120  130.4540 C   0  0  0  0  0  0  0  0  0  0  0  0
  150.3500  159.0720  131.4810 F   0  0  0  0  0  0  0  0  0  0  0  0
  148.8930  158.7970  129.7830 F   0  0  0  0  0  0  0  0  0  0  0  0
  150.6050  160.2480  129.5780 F   0  0  0  0  0  0  0  0  0  0  0  0
  144.5630  157.8130  133.7530 C   0  0  0  0  0  0  0  0  0  0  0  0
  143.3440  158.2640  134.2720 C   0  0  0  0  0  0  0  0  0  0  0  0
  142.2780  157.5320  134.6660 N   0  0  0  0  0  0  0  0  0  0  0  0
  142.1720  156.1000  134.6280 C   0  0  0  0  0  0  0  0  0  0  0  0
  141.9890  155.5110  133.5270 O   0  0  0  0  0  0  0  0  0  0  0  0
  142.2980  155.3640  135.8110 O   0  0  0  0  0  0  0  0  0  0  0  0
  141.9520  153.9840  135.9180 C   0  0  0  0  0  0  0  0  0  0  0  0
  142.4510  153.4110  137.2450 C   0  0  0  0  0  0  0  0  0  0  0  0
  141.3790  152.0500  137.8010 P   0  0  0  0  0  0  0  0  0  0  0  0
  140.1720  152.6210  138.5080 O   0  0  0  0  0  0  0  0  0  0  0  0
  142.2330  151.0530  138.8680 O   0  0  0  0  0  0  0  0  0  0  0  0
  140.8710  151.1450  136.4680 O   0  0  0  0  0  0  0  0  0  0  0  0
  137.9490  158.5880  135.2190 H   0  0  0  0  0  0  0  0  0  0  0  0
  141.2574  160.6701  135.0903 H   0  0  0  0  0  0  0  0  0  0  0  0
  143.7670  161.6476  134.1357 H   0  0  0  0  0  0  0  0  0  0  0  0
  145.9916  160.9020  133.2269 H   0  0  0  0  0  0  0  0  0  0  0  0
  147.2297  157.4774  133.3661 H   0  0  0  0  0  0  0  0  0  0  0  0
  146.6845  158.0419  131.7471 H   0  0  0  0  0  0  0  0  0  0  0  0
  144.7615  156.7378  133.6324 H   0  0  0  0  0  0  0  0  0  0  0  0
  140.8582  153.8795  135.8665 H   0  0  0  0  0  0  0  0  0  0  0  0
  142.4236  153.4326  135.0912 H   0  0  0  0  0  0  0  0  0  0  0  0
  143.4754  153.0328  137.1127 H   0  0  0  0  0  0  0  0  0  0  0  0
  142.4334  154.2076  138.0033 H   0  0  0  0  0  0  0  0  0  0  0  0
  1  2  1  0
  2  3  2  0
  2  4  1  0
  4  5  2  0
  5  6  1  0
  6  7  2  0
  7  8  1  0
  8  9  2  0
  9 10  1  0
 10 11  1  0
 11 12  2  0
 11 13  1  0
 13 14  1  0
 14 15  2  0
 14 16  1  0
 16 17  1  0
 16 18  1  0
 16 19  1  0
  9 20  1  0
 20 21  2  0
 21 22  1  0
 22 23  1  0
 23 24  2  0
 23 25  1  0
 25 26  1  0
 26 27  1  0
 27 28  1  0
 28 29  2  0
 28 30  1  0
 28 31  1  0
 22  4  1  0
 21  6  1  0
  1 32  1  0
  5 33  1  0
  7 34  1  0
  8 35  1  0
 10 36  1  0
 10 37  1  0
 20 38  1  0
 26 39  1  0
 26 40  1  0
 27 41  1  0
 27 42  1  0
M  CHG  3   1  -1  30  -1  31  -1
M  END
>  <UniqueID>  (87) 
86

>  <SMILES>  (87) 
[NH-]C(=O)c1cc2ccc(CC(=O)OC(=O)C(F)(F)F)cc2n1C(=O)OCCP(=O)([O-])[O-]

>  <Energy>  (87) 
70.86324796328914

>  <Genealogy>  (87) 
[NH-]C(=O)c1cc2ccc(CC(=O)OC(=O)C(F)(F)F)cc2n1C(=O)OCCP(=O)([O-])[O-] (protonated)
[NH-]C(=O)c1cc2ccc(CC(=O)OC(=O)C(F)(F)F)cc2n1C(=O)OCCP(=O)([O-])[O-] (3D coordinates assigned)
[NH-]C(=O)c1cc2ccc(CC(=O)OC(=O)C(F)(F)F)cc2n1C(=O)OCCP(=O)([O-])[O-] (optimized conformer: 70.86324796328914 kcal/mol)

>  <smiles>  (87) 
NC(=O)c1cc2ccc(CC(=O)OC(=O)C(F)(F)F)cc2n1C(=O)OCCP(=O)(O)O

>  <score_type>  (87) 
oracle

>  <origin>  (87) 
adg

>  <m_score__min__energy>  (87) 
-7.0800000000000001

>  <m_primary>  (87) 
energy

$$$$
87:0
     RDKit          3D

 48 50  0  0  0  0  0  0  0  0999 V2000
  139.4640  150.2770  132.1290 C   0  0  0  0  0  0  0  0  0  0  0  0
  140.8700  150.0590  132.4890 N   0  0  0  0  0  0  0  0  0  0  0  0
  141.3630  148.6950  132.7190 C   0  0  0  0  0  0  0  0  0  0  0  0
  141.7940  151.1680  132.5920 C   0  0  0  0  0  0  0  0  0  0  0  0
  143.0190  150.9390  132.7930 O   0  0  0  0  0  0  0  0  0  0  0  0
  141.3520  152.5960  132.3690 C   0  0  0  0  0  0  0  0  0  0  0  0
  141.6160  153.4530  133.5780 C   0  0  0  0  0  0  0  0  0  0  0  0
  142.3790  152.9540  134.6640 C   0  0  0  0  0  0  0  0  0  0  0  0
  142.6080  153.7490  135.8010 C   0  0  0  0  0  0  0  0  0  0  0  0
  142.0740  155.0360  135.8170 C   0  0  0  0  0  0  0  0  0  0  0  0
  142.0980  155.9930  136.8040 C   0  0  0  0  0  0  0  0  0  0  0  0
  141.3750  157.0690  136.2920 C   0  0  0  0  0  0  0  0  0  0  0  0
  141.1450  158.3270  137.0310 C   0  0  0  0  0  0  0  0  0  0  0  0
  139.8540  158.9330  137.0850 N   0  0  0  0  0  0  0  0  0  0  0  0
  142.1170  158.8990  137.5940 O   0  0  0  0  0  0  0  0  0  0  0  0
  140.9200  156.7860  135.0390 N   0  0  0  0  0  0  0  0  0  0  0  0
  140.0470  157.5910  134.2290 C   0  0  0  0  0  0  0  0  0  0  0  0
  138.8340  157.7030  134.5520 O   0  0  0  0  0  0  0  0  0  0  0  0
  140.5920  158.4000  133.0810 C   0  0  0  0  0  0  0  0  0  0  0  0
  142.0040  158.8750  133.3330 C   0  0  0  0  0  0  0  0  0  0  0  0
  142.2500  160.1990  133.7470 C   0  0  0  0  0  0  0  0  0  0  0  0
  143.5580  160.6350  133.9840 C   0  0  0  0  0  0  0  0  0  0  0  0
  144.6330  159.7640  133.7900 C   0  0  0  0  0  0  0  0  0  0  0  0
  144.4040  158.4560  133.3480 C   0  0  0  0  0  0  0  0  0  0  0  0
  143.0970  158.0150  133.1140 C   0  0  0  0  0  0  0  0  0  0  0  0
  141.3470  155.5350  134.7680 C   0  0  0  0  0  0  0  0  0  0  0  0
  141.0720  154.7530  133.6450 C   0  0  0  0  0  0  0  0  0  0  0  0
  138.8614  150.3704  133.0445 H   0  0  0  0  0  0  0  0  0  0  0  0
  139.3760  151.1995  131.5364 H   0  0  0  0  0  0  0  0  0  0  0  0
  139.1008  149.4244  131.5364 H   0  0  0  0  0  0  0  0  0  0  0  0
  141.4309  148.5072  133.8007 H   0  0  0  0  0  0  0  0  0  0  0  0
  140.6691  147.9727  132.2643 H   0  0  0  0  0  0  0  0  0  0  0  0
  142.3584  148.5833  132.2643 H   0  0  0  0  0  0  0  0  0  0  0  0
  141.9019  153.0100  131.5110 H   0  0  0  0  0  0  0  0  0  0  0  0
  140.2687  152.5950  132.1779 H   0  0  0  0  0  0  0  0  0  0  0  0
  142.7951  151.9368  134.6167 H   0  0  0  0  0  0  0  0  0  0  0  0
  143.1909  153.3666  136.6519 H   0  0  0  0  0  0  0  0  0  0  0  0
  142.5843  155.9241  137.7882 H   0  0  0  0  0  0  0  0  0  0  0  0
  139.0790  158.6150  136.4630 H   0  0  0  0  0  0  0  0  0  0  0  0
  139.7000  159.7810  137.6750 H   0  0  0  0  0  0  0  0  0  0  0  0
  140.5850  157.7769  132.1745 H   0  0  0  0  0  0  0  0  0  0  0  0
  139.9543  159.2885  132.9630 H   0  0  0  0  0  0  0  0  0  0  0  0
  141.4086  160.8941  133.8847 H   0  0  0  0  0  0  0  0  0  0  0  0
  143.7404  161.6652  134.3236 H   0  0  0  0  0  0  0  0  0  0  0  0
  145.6600  160.1065  133.9848 H   0  0  0  0  0  0  0  0  0  0  0  0
  145.2518  157.7745  133.1846 H   0  0  0  0  0  0  0  0  0  0  0  0
  142.9222  156.9895  132.7565 H   0  0  0  0  0  0  0  0  0  0  0  0
  140.4445  155.1420  132.8296 H   0  0  0  0  0  0  0  0  0  0  0  0
  1  2  1  0
  2  3  1  0
  2  4  1  0
  4  5  2  0
  4  6  1  0
  6  7  1  0
  7  8  2  0
  8  9  1  0
  9 10  2  0
 10 11  1  0
 11 12  2  0
 12 13  1  0
 13 14  1  0
 13 15  2  0
 12 16  1  0
 16 17  1  0
 17 18  2  0
 17 19  1  0
 19 20  1  0
 20 21  2  0
 21 22  1  0
 22 23  2  0
 23 24  1  0
 24 25  2  0
 16 26  1  0
 26 27  2  0
 27  7  1  0
 26 10  1  0
 25 20  1  0
  1 28  1  0
  1 29  1  0
  1 30  1  0
  3 31  1  0
  3 32  1  0
  3 33  1  0
  6 34  1  0
  6 35  1  0
  8 36  1  0
  9 37  1  0
 11 38  1  0
 14 39  1  0
 14 40  1  0
 19 41  1  0
 19 42  1  0
 21 43  1  0
 22 44  1  0
 23 45  1  0
 24 46  1  0
 25 47  1  0
 27 48  1  0
M  END
>  <UniqueID>  (88) 
87

>  <SMILES>  (88) 
CN(C)C(=O)Cc1ccc2cc(C(N)=O)n(C(=O)Cc3ccccc3)c2c1

>  <Energy>  (88) 
87.15657710951056

>  <Genealogy>  (88) 
CN(C)C(=O)Cc1ccc2cc(C(N)=O)n(C(=O)Cc3ccccc3)c2c1 (3D coordinates assigned)
CN(C)C(=O)Cc1ccc2cc(C(N)=O)n(C(=O)Cc3ccccc3)c2c1 (optimized conformer: 87.15657710951056 kcal/mol)

>  <smiles>  (88) 
CN(C)C(=O)Cc1ccc2cc(C(N)=O)n(C(=O)Cc3ccccc3)c2c1

>  <score_type>  (88) 
oracle

>  <origin>  (88) 
adg

>  <m_score__min__energy>  (88) 
-9.2799999999999994

>  <m_primary>  (88) 
energy

$$$$
88:0
     RDKit          3D

 40 41  0  0  0  0  0  0  0  0999 V2000
  145.7680  151.8410  131.9670 N   0  0  0  0  0  0  0  0  0  0  0  0
  145.0030  152.7970  132.7010 C   0  0  0  0  0  0  0  0  0  0  0  0
  143.8540  152.4850  133.1120 O   0  0  0  0  0  0  0  0  0  0  0  0
  145.5080  154.1660  132.9340 C   0  0  0  0  0  0  0  0  0  0  0  0
  144.6830  155.2840  133.0090 C   0  0  0  0  0  0  0  0  0  0  0  0
  145.5360  156.3540  133.1620 C   0  0  0  0  0  0  0  0  0  0  0  0
  145.2530  157.7100  133.2950 C   0  0  0  0  0  0  0  0  0  0  0  0
  146.3310  158.5930  133.4710 C   0  0  0  0  0  0  0  0  0  0  0  0
  147.6600  158.1070  133.5310 C   0  0  0  0  0  0  0  0  0  0  0  0
  148.8080  159.0650  133.6990 C   0  0  0  0  0  0  0  0  0  0  0  0
  149.6000  159.1880  132.3920 C   0  0  0  0  0  0  0  0  0  0  0  0
  149.0590  160.3120  131.5030 C   0  0  0  0  0  0  0  0  0  0  0  0
  149.9860  160.6530  130.5070 O   0  0  0  0  0  0  0  0  0  0  0  0
  147.9100  156.7240  133.3830 C   0  0  0  0  0  0  0  0  0  0  0  0
  146.8190  155.8690  133.1860 C   0  0  0  0  0  0  0  0  0  0  0  0
  146.8180  154.5230  133.0490 N   0  0  0  0  0  0  0  0  0  0  0  0
  147.9590  153.6540  133.1260 C   0  0  0  0  0  0  0  0  0  0  0  0
  148.4690  153.3850  134.2490 O   0  0  0  0  0  0  0  0  0  0  0  0
  148.5030  153.1130  131.9560 O   0  0  0  0  0  0  0  0  0  0  0  0
  149.6230  152.2300  131.9440 C   0  0  0  0  0  0  0  0  0  0  0  0
  149.1700  150.7850  132.1530 C   0  0  0  0  0  0  0  0  0  0  0  0
  147.8560  150.7540  132.6410 O   0  0  0  0  0  0  0  0  0  0  0  0
  145.4140  150.8660  131.8490 H   0  0  0  0  0  0  0  0  0  0  0  0
  146.6410  152.1170  131.4670 H   0  0  0  0  0  0  0  0  0  0  0  0
  143.5845  155.3079  132.9572 H   0  0  0  0  0  0  0  0  0  0  0  0
  144.2172  158.0789  133.2633 H   0  0  0  0  0  0  0  0  0  0  0  0
  146.1412  159.6726  133.5631 H   0  0  0  0  0  0  0  0  0  0  0  0
  148.4162  160.0539  133.9794 H   0  0  0  0  0  0  0  0  0  0  0  0
  149.4764  158.6851  134.4857 H   0  0  0  0  0  0  0  0  0  0  0  0
  150.6526  159.3991  132.6319 H   0  0  0  0  0  0  0  0  0  0  0  0
  149.5023  158.2402  131.8424 H   0  0  0  0  0  0  0  0  0  0  0  0
  148.1258  159.9769  131.0268 H   0  0  0  0  0  0  0  0  0  0  0  0
  148.8746  161.1973  132.1293 H   0  0  0  0  0  0  0  0  0  0  0  0
  150.7010  161.1790  130.9520 H   0  0  0  0  0  0  0  0  0  0  0  0
  148.9360  156.3292  133.4216 H   0  0  0  0  0  0  0  0  0  0  0  0
  150.1373  152.3112  130.9750 H   0  0  0  0  0  0  0  0  0  0  0  0
  150.3046  152.5100  132.7607 H   0  0  0  0  0  0  0  0  0  0  0  0
  149.2138  150.2484  131.1938 H   0  0  0  0  0  0  0  0  0  0  0  0
  149.8354  150.3031  132.8844 H   0  0  0  0  0  0  0  0  0  0  0  0
  147.7750  151.5010  133.2890 H   0  0  0  0  0  0  0  0  0  0  0  0
  1  2  1  0
  2  3  2  0
  2  4  1  0
  4  5  2  0
  5  6  1  0
  6  7  2  0
  7  8  1  0
  8  9  2  0
  9 10  1  0
 10 11  1  0
 11 12  1  0
 12 13  1  0
  9 14  1  0
 14 15  2  0
 15 16  1  0
 16 17  1  0
 17 18  2  0
 17 19  1  0
 19 20  1  0
 20 21  1  0
 21 22  1  0
 16  4  1  0
 15  6  1  0
  1 23  1  0
  1 24  1  0
  5 25  1  0
  7 26  1  0
  8 27  1  0
 10 28  1  0
 10 29  1  0
 11 30  1  0
 11 31  1  0
 12 32  1  0
 12 33  1  0
 13 34  1  0
 14 35  1  0
 20 36  1  0
 20 37  1  0
 21 38  1  0
 21 39  1  0
 22 40  1  0
M  END
>  <UniqueID>  (89) 
88

>  <SMILES>  (89) 
NC(=O)c1cc2ccc(CCCO)cc2n1C(=O)OCCO

>  <Energy>  (89) 
70.58653485252056

>  <Genealogy>  (89) 
NC(=O)c1cc2ccc(CCCO)cc2n1C(=O)OCCO (3D coordinates assigned)
NC(=O)c1cc2ccc(CCCO)cc2n1C(=O)OCCO (optimized conformer: 70.58653485252056 kcal/mol)

>  <smiles>  (89) 
NC(=O)c1cc2ccc(CCCO)cc2n1C(=O)OCCO

>  <score_type>  (89) 
oracle

>  <origin>  (89) 
adg

>  <m_score__min__energy>  (89) 
-6.5099999999999998

>  <m_primary>  (89) 
energy

$$$$
89:0
     RDKit          3D

 50 51  0  0  0  0  0  0  0  0999 V2000
  141.3280  159.0010  137.4440 C   0  0  0  0  0  0  0  0  0  0  0  0
  140.9110  157.7660  136.7970 N   0  0  0  0  0  0  0  0  0  0  0  0
  140.1230  157.7440  135.6040 C   0  0  0  0  0  0  0  0  0  0  0  0
  138.9530  158.2190  135.6020 O   0  0  0  0  0  0  0  0  0  0  0  0
  140.7040  157.1960  134.3400 C   0  0  0  0  0  0  0  0  0  0  0  0
  142.0060  157.8810  134.0300 C   0  0  0  0  0  0  0  0  0  0  0  0
  142.0230  159.2490  133.6610 C   0  0  0  0  0  0  0  0  0  0  0  0
  143.2370  159.9020  133.3860 C   0  0  0  0  0  0  0  0  0  0  0  0
  144.4130  159.1650  133.4980 C   0  0  0  0  0  0  0  0  0  0  0  0
  145.7210  159.5430  133.2910 C   0  0  0  0  0  0  0  0  0  0  0  0
  146.4820  158.4070  133.5620 C   0  0  0  0  0  0  0  0  0  0  0  0
  147.9600  158.3830  133.5910 C   0  0  0  0  0  0  0  0  0  0  0  0
  148.6780  157.1980  133.2410 N   0  0  0  0  0  0  0  0  0  0  0  0
  148.6020  159.4220  133.8990 O   0  0  0  0  0  0  0  0  0  0  0  0
  145.6730  157.3670  133.9090 N   0  0  0  0  0  0  0  0  0  0  0  0
  146.0520  156.0150  134.2160 C   0  0  0  0  0  0  0  0  0  0  0  0
  146.0350  155.6240  135.4150 O   0  0  0  0  0  0  0  0  0  0  0  0
  146.4050  155.0440  133.1130 C   0  0  1  0  0  0  0  0  0  0  0  0
  147.5830  154.2740  133.5090 N   0  0  0  0  0  0  0  0  0  0  0  0
  148.7270  154.1000  132.6710 C   0  0  0  0  0  0  0  0  0  0  0  0
  149.5880  155.0180  132.6070 O   0  0  0  0  0  0  0  0  0  0  0  0
  148.8790  152.9270  131.9240 O   0  0  0  0  0  0  0  0  0  0  0  0
  149.6070  151.8030  132.4040 C   0  0  0  0  0  0  0  0  0  0  0  0
  145.2290  154.0950  132.7480 C   0  0  0  0  0  0  0  0  0  0  0  0
  145.6950  152.6390  132.6070 C   0  0  0  0  0  0  0  0  0  0  0  0
  144.4630  154.5370  131.4900 C   0  0  0  0  0  0  0  0  0  0  0  0
  144.4130  157.8490  133.8750 C   0  0  0  0  0  0  0  0  0  0  0  0
  143.2210  157.1710  134.1470 C   0  0  0  0  0  0  0  0  0  0  0  0
  141.2856  158.8753  138.5360 H   0  0  0  0  0  0  0  0  0  0  0  0
  142.3578  159.2433  137.1425 H   0  0  0  0  0  0  0  0  0  0  0  0
  140.6559  159.8179  137.1425 H   0  0  0  0  0  0  0  0  0  0  0  0
  140.8800  156.1167  134.4585 H   0  0  0  0  0  0  0  0  0  0  0  0
  139.9992  157.3719  133.5140 H   0  0  0  0  0  0  0  0  0  0  0  0
  141.0768  159.8054  133.5890 H   0  0  0  0  0  0  0  0  0  0  0  0
  143.2573  160.9617  133.0916 H   0  0  0  0  0  0  0  0  0  0  0  0
  146.0875  160.5318  132.9781 H   0  0  0  0  0  0  0  0  0  0  0  0
  148.1820  156.3010  133.0420 H   0  0  0  0  0  0  0  0  0  0  0  0
  149.7220  157.2030  133.2310 H   0  0  0  0  0  0  0  0  0  0  0  0
  146.6229  155.6290  132.2073 H   0  0  0  0  0  0  0  0  0  0  0  0
  149.6044  151.8070  133.5040 H   0  0  0  0  0  0  0  0  0  0  0  0
  149.1359  150.8782  132.0396 H   0  0  0  0  0  0  0  0  0  0  0  0
  150.6436  151.8547  132.0396 H   0  0  0  0  0  0  0  0  0  0  0  0
  144.5265  154.1581  133.5921 H   0  0  0  0  0  0  0  0  0  0  0  0
  145.8353  152.2006  133.6060 H   0  0  0  0  0  0  0  0  0  0  0  0
  144.9364  152.0628  132.0570 H   0  0  0  0  0  0  0  0  0  0  0  0
  146.6472  152.6104  132.0570 H   0  0  0  0  0  0  0  0  0  0  0  0
  143.5455  155.0664  131.7865 H   0  0  0  0  0  0  0  0  0  0  0  0
  145.0967  155.2083  130.8918 H   0  0  0  0  0  0  0  0  0  0  0  0
  144.1989  153.6525  130.8918 H   0  0  0  0  0  0  0  0  0  0  0  0
  143.2294  156.1120  134.4444 H   0  0  0  0  0  0  0  0  0  0  0  0
  1  2  1  0
  2  3  1  0
  3  4  2  0
  3  5  1  0
  5  6  1  0
  6  7  2  0
  7  8  1  0
  8  9  2  0
  9 10  1  0
 10 11  2  0
 11 12  1  0
 12 13  1  0
 12 14  2  0
 11 15  1  0
 15 16  1  0
 16 17  2  0
 16 18  1  0
 18 19  1  0
 19 20  1  0
 20 21  2  0
 20 22  1  0
 22 23  1  0
 18 24  1  0
 24 25  1  0
 24 26  1  0
 15 27  1  0
 27 28  2  0
 28  6  1  0
 27  9  1  0
  1 29  1  0
  1 30  1  0
  1 31  1  0
  5 32  1  0
  5 33  1  0
  7 34  1  0
  8 35  1  0
 10 36  1  0
 13 37  1  0
 13 38  1  0
 18 39  1  6
 23 40  1  0
 23 41  1  0
 23 42  1  0
 24 43  1  0
 25 44  1  0
 25 45  1  0
 25 46  1  0
 26 47  1  0
 26 48  1  0
 26 49  1  0
 28 50  1  0
M  CHG  2   2  -1  19  -1
M  END
>  <UniqueID>  (90) 
89

>  <SMILES>  (90) 
C[N-]C(=O)Cc1ccc2cc(C(N)=O)n(C(=O)[C@@H]([N-]C(=O)OC)C(C)C)c2c1

>  <Energy>  (90) 
74.8497084719633

>  <Genealogy>  (90) 
C[N-]C(=O)Cc1ccc2cc(C(N)=O)n(C(=O)C([N-]C(=O)OC)C(C)C)c2c1 (protonated)
C[N-]C(=O)Cc1ccc2cc(C(N)=O)n(C(=O)[C@@H]([N-]C(=O)OC)C(C)C)c2c1 (chirality)
C[N-]C(=O)Cc1ccc2cc(C(N)=O)n(C(=O)[C@@H]([N-]C(=O)OC)C(C)C)c2c1 (3D coordinates assigned)
C[N-]C(=O)Cc1ccc2cc(C(N)=O)n(C(=O)[C@@H]([N-]C(=O)OC)C(C)C)c2c1 (optimized conformer: 74.8497084719633 kcal/mol)

>  <smiles>  (90) 
CNC(=O)Cc1ccc2cc(C(N)=O)n(C(=O)C(NC(=O)OC)C(C)C)c2c1

>  <score_type>  (90) 
oracle

>  <origin>  (90) 
adg

>  <m_score__min__energy>  (90) 
-6.7699999999999996

>  <m_primary>  (90) 
energy

$$$$
90:0
     RDKit          3D

 46 48  0  0  0  0  0  0  0  0999 V2000
  149.4080  161.4830  130.3820 C   0  0  0  0  0  0  0  0  0  0  0  0
  149.1560  160.2820  129.6860 O   0  0  0  0  0  0  0  0  0  0  0  0
  149.0110  159.2050  130.5940 C   0  0  0  0  0  0  0  0  0  0  0  0
  149.6460  159.5670  131.9400 C   0  0  0  0  0  0  0  0  0  0  0  0
  148.9260  158.8960  133.1120 C   0  0  0  0  0  0  0  0  0  0  0  0
  147.5140  158.9930  132.9440 O   0  0  0  0  0  0  0  0  0  0  0  0
  146.7910  160.1300  133.3160 C   0  0  0  0  0  0  0  0  0  0  0  0
  147.3610  161.2550  133.3650 O   0  0  0  0  0  0  0  0  0  0  0  0
  145.4000  160.0170  133.6630 N   0  0  0  0  0  0  0  0  0  0  0  0
  144.5560  161.0070  134.0720 C   0  0  0  0  0  0  0  0  0  0  0  0
  144.8620  162.4540  134.1000 C   0  0  0  0  0  0  0  0  0  0  0  0
  145.9080  162.9420  134.9350 N   0  0  0  0  0  0  0  0  0  0  0  0
  144.1810  163.2690  133.4230 O   0  0  0  0  0  0  0  0  0  0  0  0
  143.3060  160.4830  134.3920 C   0  0  0  0  0  0  0  0  0  0  0  0
  143.4050  159.1320  134.1570 C   0  0  0  0  0  0  0  0  0  0  0  0
  142.4610  158.1260  134.3200 C   0  0  0  0  0  0  0  0  0  0  0  0
  142.8430  156.8070  134.0220 C   0  0  0  0  0  0  0  0  0  0  0  0
  144.1590  156.5170  133.5750 C   0  0  0  0  0  0  0  0  0  0  0  0
  144.5530  155.1220  133.2600 C   0  0  0  0  0  0  0  0  0  0  0  0
  143.7270  154.0430  133.6020 C   0  0  0  0  0  0  0  0  0  0  0  0
  144.1050  152.7740  133.3050 N   0  0  0  0  0  0  0  0  0  0  0  0
  145.2810  152.5200  132.6730 C   0  0  0  0  0  0  0  0  0  0  0  0
  145.6470  151.1740  132.3720 N   0  0  0  0  0  0  0  0  0  0  0  0
  146.1030  153.5500  132.3330 N   0  0  0  0  0  0  0  0  0  0  0  0
  145.7640  154.8360  132.6140 C   0  0  0  0  0  0  0  0  0  0  0  0
  145.0920  157.5700  133.4290 C   0  0  0  0  0  0  0  0  0  0  0  0
  144.6780  158.8760  133.7150 C   0  0  0  0  0  0  0  0  0  0  0  0
  149.3684  161.2944  131.4650 H   0  0  0  0  0  0  0  0  0  0  0  0
  150.4050  161.8611  130.1118 H   0  0  0  0  0  0  0  0  0  0  0  0
  148.6470  162.2299  130.1118 H   0  0  0  0  0  0  0  0  0  0  0  0
  147.9416  158.9934  130.7407 H   0  0  0  0  0  0  0  0  0  0  0  0
  149.5138  158.3165  130.1843 H   0  0  0  0  0  0  0  0  0  0  0  0
  150.6969  159.2422  131.9358 H   0  0  0  0  0  0  0  0  0  0  0  0
  149.5670  160.6563  132.0712 H   0  0  0  0  0  0  0  0  0  0  0  0
  149.2145  157.8354  133.1562 H   0  0  0  0  0  0  0  0  0  0  0  0
  149.2116  159.4026  134.0457 H   0  0  0  0  0  0  0  0  0  0  0  0
  146.9100  162.7850  134.6860 H   0  0  0  0  0  0  0  0  0  0  0  0
  142.4258  161.0335  134.7557 H   0  0  0  0  0  0  0  0  0  0  0  0
  141.4444  158.3552  134.6720 H   0  0  0  0  0  0  0  0  0  0  0  0
  142.1148  155.9905  134.1363 H   0  0  0  0  0  0  0  0  0  0  0  0
  142.7698  154.2251  134.1125 H   0  0  0  0  0  0  0  0  0  0  0  0
  145.2440  150.6920  131.5380 H   0  0  0  0  0  0  0  0  0  0  0  0
  146.3190  150.6550  132.9790 H   0  0  0  0  0  0  0  0  0  0  0  0
  147.0070  153.3580  131.8450 H   0  0  0  0  0  0  0  0  0  0  0  0
  146.4423  155.6553  132.3335 H   0  0  0  0  0  0  0  0  0  0  0  0
  146.1211  157.3668  133.0977 H   0  0  0  0  0  0  0  0  0  0  0  0
  1  2  1  0
  2  3  1  0
  3  4  1  0
  4  5  1  0
  5  6  1  0
  6  7  1  0
  7  8  2  0
  7  9  1  0
  9 10  1  0
 10 11  1  0
 11 12  1  0
 11 13  2  0
 10 14  2  0
 14 15  1  0
 15 16  2  0
 16 17  1  0
 17 18  2  0
 18 19  1  0
 19 20  2  0
 20 21  1  0
 21 22  2  0
 22 23  1  0
 22 24  1  0
 24 25  2  0
 18 26  1  0
 26 27  2  0
 27  9  1  0
 27 15  1  0
 25 19  1  0
  1 28  1  0
  1 29  1  0
  1 30  1  0
  3 31  1  0
  3 32  1  0
  4 33  1  0
  4 34  1  0
  5 35  1  0
  5 36  1  0
 12 37  1  0
 14 38  1  0
 16 39  1  0
 17 40  1  0
 20 41  1  0
 23 42  1  0
 23 43  1  0
 24 44  1  0
 25 45  1  0
 26 46  1  0
M  CHG  2  12  -1  24   1
M  END
>  <UniqueID>  (91) 
90

>  <SMILES>  (91) 
COCCCOC(=O)n1c(C([NH-])=O)cc2ccc(-c3cnc(N)[nH+]c3)cc21

>  <Energy>  (91) 
85.575041347176

>  <Genealogy>  (91) 
COCCCOC(=O)n1c(C([NH-])=O)cc2ccc(-c3cnc(N)[nH+]c3)cc21 (protonated)
COCCCOC(=O)n1c(C([NH-])=O)cc2ccc(-c3cnc(N)[nH+]c3)cc21 (3D coordinates assigned)
COCCCOC(=O)n1c(C([NH-])=O)cc2ccc(-c3cnc(N)[nH+]c3)cc21 (optimized conformer: 85.575041347176 kcal/mol)

>  <smiles>  (91) 
COCCCOC(=O)n1c(C(N)=O)cc2ccc(-c3cnc(N)nc3)cc21

>  <score_type>  (91) 
oracle

>  <origin>  (91) 
adg

>  <m_score__min__energy>  (91) 
-7.7400000000000002

>  <m_primary>  (91) 
energy

$$$$
91:0
     RDKit          3D

 43 45  0  0  0  0  0  0  0  0999 V2000
  139.8460  151.4140  132.5850 N   0  0  0  0  0  0  0  0  0  0  0  0
  141.0110  151.1920  133.3830 C   0  0  0  0  0  0  0  0  0  0  0  0
  140.9890  150.2990  134.2700 O   0  0  0  0  0  0  0  0  0  0  0  0
  142.2130  152.0340  133.2290 C   0  0  0  0  0  0  0  0  0  0  0  0
  143.4830  151.5170  132.9860 C   0  0  0  0  0  0  0  0  0  0  0  0
  144.3220  152.6070  132.9720 C   0  0  0  0  0  0  0  0  0  0  0  0
  145.6940  152.6730  132.7570 C   0  0  0  0  0  0  0  0  0  0  0  0
  146.3000  153.9390  132.7580 C   0  0  0  0  0  0  0  0  0  0  0  0
  145.5330  155.1140  132.9610 C   0  0  0  0  0  0  0  0  0  0  0  0
  146.1950  156.3930  132.9410 N   0  0  0  0  0  0  0  0  0  0  0  0
  146.9310  156.9330  134.0870 C   0  0  0  0  0  0  0  0  0  0  0  0
  148.3300  157.4380  133.6890 C   0  0  0  0  0  0  0  0  0  0  0  0
  148.2660  158.3710  132.5420 N   0  0  0  0  0  0  0  0  0  0  0  0
  149.5700  158.4260  131.8540 C   0  0  0  0  0  0  0  0  0  0  0  0
  149.4870  159.3560  130.6240 C   0  0  0  0  0  0  0  0  0  0  0  0
  148.2940  160.1210  130.6010 O   0  0  0  0  0  0  0  0  0  0  0  0
  148.1170  160.7630  131.8460 C   0  0  0  0  0  0  0  0  0  0  0  0
  147.8590  159.7310  132.9610 C   0  0  0  0  0  0  0  0  0  0  0  0
  144.1360  155.0040  133.1730 C   0  0  0  0  0  0  0  0  0  0  0  0
  143.5610  153.7270  133.1900 C   0  0  0  0  0  0  0  0  0  0  0  0
  142.2600  153.3910  133.3480 N   0  0  0  0  0  0  0  0  0  0  0  0
  141.1490  154.2950  133.4880 C   0  0  0  0  0  0  0  0  0  0  0  0
  140.1750  154.2330  132.6920 O   0  0  0  0  0  0  0  0  0  0  0  0
  141.1380  155.2460  134.5010 O   0  0  0  0  0  0  0  0  0  0  0  0
  139.0180  150.7840  132.6810 H   0  0  0  0  0  0  0  0  0  0  0  0
  139.7690  152.2490  131.9640 H   0  0  0  0  0  0  0  0  0  0  0  0
  143.7568  150.4621  132.8370 H   0  0  0  0  0  0  0  0  0  0  0  0
  146.2864  151.7611  132.5912 H   0  0  0  0  0  0  0  0  0  0  0  0
  147.3854  154.0207  132.5990 H   0  0  0  0  0  0  0  0  0  0  0  0
  146.1400  156.9540  132.0610 H   0  0  0  0  0  0  0  0  0  0  0  0
  146.3593  157.7705  134.5134 H   0  0  0  0  0  0  0  0  0  0  0  0
  147.0584  156.1233  134.8206 H   0  0  0  0  0  0  0  0  0  0  0  0
  148.7795  157.9581  134.5477 H   0  0  0  0  0  0  0  0  0  0  0  0
  148.9380  156.5703  133.3934 H   0  0  0  0  0  0  0  0  0  0  0  0
  150.3312  158.8102  132.5489 H   0  0  0  0  0  0  0  0  0  0  0  0
  149.8419  157.4138  131.5201 H   0  0  0  0  0  0  0  0  0  0  0  0
  150.3461  160.0428  130.6425 H   0  0  0  0  0  0  0  0  0  0  0  0
  149.4949  158.7223  129.7249 H   0  0  0  0  0  0  0  0  0  0  0  0
  149.0237  161.3368  132.0882 H   0  0  0  0  0  0  0  0  0  0  0  0
  147.2474  161.4331  131.7771 H   0  0  0  0  0  0  0  0  0  0  0  0
  148.4338  160.0175  133.8540 H   0  0  0  0  0  0  0  0  0  0  0  0
  146.7808  159.7183  133.1786 H   0  0  0  0  0  0  0  0  0  0  0  0
  143.5172  155.9014  133.3209 H   0  0  0  0  0  0  0  0  0  0  0  0
  1  2  1  0
  2  3  2  0
  2  4  1  0
  4  5  2  0
  5  6  1  0
  6  7  2  0
  7  8  1  0
  8  9  2  0
  9 10  1  0
 10 11  1  0
 11 12  1  0
 12 13  1  0
 13 14  1  0
 14 15  1  0
 15 16  1  0
 16 17  1  0
 17 18  1  0
  9 19  1  0
 19 20  2  0
 20 21  1  0
 21 22  1  0
 22 23  2  0
 22 24  1  0
 21  4  1  0
 20  6  1  0
 18 13  1  0
  1 25  1  0
  1 26  1  0
  5 27  1  0
  7 28  1  0
  8 29  1  0
 10 30  1  0
 11 31  1  0
 11 32  1  0
 12 33  1  0
 12 34  1  0
 14 35  1  0
 14 36  1  0
 15 37  1  0
 15 38  1  0
 17 39  1  0
 17 40  1  0
 18 41  1  0
 18 42  1  0
 19 43  1  0
M  CHG  1  24  -1
M  END
>  <UniqueID>  (92) 
91

>  <SMILES>  (92) 
NC(=O)c1cc2ccc(NCCN3CCOCC3)cc2n1C(=O)[O-]

>  <Energy>  (92) 
93.25607115487192

>  <Genealogy>  (92) 
NC(=O)c1cc2ccc(NCCN3CCOCC3)cc2n1C(=O)[O-] (protonated)
NC(=O)c1cc2ccc(NCCN3CCOCC3)cc2n1C(=O)[O-] (3D coordinates assigned)
NC(=O)c1cc2ccc(NCCN3CCOCC3)cc2n1C(=O)[O-] (nonaromatic ring conformer: 93.25607115487192 kcal/mol)

>  <smiles>  (92) 
NC(=O)c1cc2ccc(NCCN3CCOCC3)cc2n1C(=O)O

>  <score_type>  (92) 
oracle

>  <origin>  (92) 
adg

>  <m_score__min__energy>  (92) 
-7.6399999999999997

>  <m_primary>  (92) 
energy

$$$$
92:0
     RDKit          3D

 56 58  0  0  0  0  0  0  0  0999 V2000
  148.4700  152.9120  137.8680 C   0  0  0  0  0  0  0  0  0  0  0  0
  147.2610  153.0000  137.1210 O   0  0  0  0  0  0  0  0  0  0  0  0
  147.1600  153.7320  135.9330 C   0  0  0  0  0  0  0  0  0  0  0  0
  148.0640  153.6670  135.0590 O   0  0  0  0  0  0  0  0  0  0  0  0
  146.0210  154.5620  135.7060 N   0  0  0  0  0  0  0  0  0  0  0  0
  144.8960  154.4240  136.4530 O   0  0  0  0  0  0  0  0  0  0  0  0
  143.8470  154.9720  135.6940 C   0  0  0  0  0  0  0  0  0  0  0  0
  143.1950  153.8660  134.8650 C   0  0  0  0  0  0  0  0  0  0  0  0
  143.6960  153.8810  133.4230 C   0  0  0  0  0  0  0  0  0  0  0  0
  143.7630  155.2250  132.9620 O   0  0  0  0  0  0  0  0  0  0  0  0
  144.9730  155.8820  132.7140 C   0  0  0  0  0  0  0  0  0  0  0  0
  145.8910  155.2990  132.0760 O   0  0  0  0  0  0  0  0  0  0  0  0
  145.1650  157.2250  133.1890 N   0  0  0  0  0  0  0  0  0  0  0  0
  146.3470  157.8280  133.5000 C   0  0  0  0  0  0  0  0  0  0  0  0
  147.6650  157.1640  133.5660 C   0  0  0  0  0  0  0  0  0  0  0  0
  147.7740  155.7530  133.7530 N   0  0  0  0  0  0  0  0  0  0  0  0
  148.7130  157.8610  133.5020 O   0  0  0  0  0  0  0  0  0  0  0  0
  146.1540  159.1760  133.7870 C   0  0  0  0  0  0  0  0  0  0  0  0
  144.8010  159.3850  133.6540 C   0  0  0  0  0  0  0  0  0  0  0  0
  144.0590  160.5520  133.8040 C   0  0  0  0  0  0  0  0  0  0  0  0
  142.6780  160.4920  133.5610 C   0  0  0  0  0  0  0  0  0  0  0  0
  142.0610  159.2750  133.1640 C   0  0  0  0  0  0  0  0  0  0  0  0
  140.5710  159.2090  132.8900 C   0  0  0  0  0  0  0  0  0  0  0  0
  139.9540  157.8940  133.3980 C   0  0  0  0  0  0  0  0  0  0  0  0
  138.4230  157.8690  133.1840 C   0  0  0  0  0  0  0  0  0  0  0  0
  137.9780  158.8650  132.1840 N   0  0  0  0  0  0  0  0  0  0  0  0
  136.6920  158.6030  131.8050 O   0  0  0  0  0  0  0  0  0  0  0  0
  138.8600  158.8950  131.0050 C   0  0  0  0  0  0  0  0  0  0  0  0
  140.2560  159.4220  131.3900 C   0  0  0  0  0  0  0  0  0  0  0  0
  142.8520  158.1100  133.0220 C   0  0  0  0  0  0  0  0  0  0  0  0
  144.2250  158.1950  133.2910 C   0  0  0  0  0  0  0  0  0  0  0  0
  148.2387  152.9288  138.9433 H   0  0  0  0  0  0  0  0  0  0  0  0
  148.9875  151.9738  137.6189 H   0  0  0  0  0  0  0  0  0  0  0  0
  149.1179  153.7654  137.6189 H   0  0  0  0  0  0  0  0  0  0  0  0
  143.0992  155.4166  136.3671 H   0  0  0  0  0  0  0  0  0  0  0  0
  144.2426  155.7506  135.0252 H   0  0  0  0  0  0  0  0  0  0  0  0
  143.4342  152.8920  135.3168 H   0  0  0  0  0  0  0  0  0  0  0  0
  142.1082  154.0358  134.8554 H   0  0  0  0  0  0  0  0  0  0  0  0
  144.6967  153.4266  133.3770 H   0  0  0  0  0  0  0  0  0  0  0  0
  143.0053  153.3076  132.7872 H   0  0  0  0  0  0  0  0  0  0  0  0
  146.9360  155.1730  133.9770 H   0  0  0  0  0  0  0  0  0  0  0  0
  148.7110  155.2930  133.7360 H   0  0  0  0  0  0  0  0  0  0  0  0
  146.9199  159.9163  134.0616 H   0  0  0  0  0  0  0  0  0  0  0  0
  144.5405  161.4943  134.1043 H   0  0  0  0  0  0  0  0  0  0  0  0
  142.0657  161.3982  133.6793 H   0  0  0  0  0  0  0  0  0  0  0  0
  140.1080  160.0337  133.4516 H   0  0  0  0  0  0  0  0  0  0  0  0
  140.4054  157.0525  132.8519 H   0  0  0  0  0  0  0  0  0  0  0  0
  140.1540  157.8119  134.4765 H   0  0  0  0  0  0  0  0  0  0  0  0
  138.1307  156.8664  132.8386 H   0  0  0  0  0  0  0  0  0  0  0  0
  137.9457  158.1194  134.1429 H   0  0  0  0  0  0  0  0  0  0  0  0
  136.3350  157.8870  132.3970 H   0  0  0  0  0  0  0  0  0  0  0  0
  138.9564  157.8773  130.5988 H   0  0  0  0  0  0  0  0  0  0  0  0
  138.4224  159.5643  130.2497 H   0  0  0  0  0  0  0  0  0  0  0  0
  141.0116  158.8924  130.7912 H   0  0  0  0  0  0  0  0  0  0  0  0
  140.2734  160.5040  131.1928 H   0  0  0  0  0  0  0  0  0  0  0  0
  142.3990  157.1583  132.7073 H   0  0  0  0  0  0  0  0  0  0  0  0
  1  2  1  0
  2  3  1  0
  3  4  2  0
  3  5  1  0
  5  6  1  0
  6  7  1  0
  7  8  1  0
  8  9  1  0
  9 10  1  0
 10 11  1  0
 11 12  2  0
 11 13  1  0
 13 14  1  0
 14 15  1  0
 15 16  1  0
 15 17  2  0
 14 18  2  0
 18 19  1  0
 19 20  2  0
 20 21  1  0
 21 22  2  0
 22 23  1  0
 23 24  1  0
 24 25  1  0
 25 26  1  0
 26 27  1  0
 26 28  1  0
 28 29  1  0
 22 30  1  0
 30 31  2  0
 31 13  1  0
 31 19  1  0
 29 23  1  0
  1 32  1  0
  1 33  1  0
  1 34  1  0
  7 35  1  0
  7 36  1  0
  8 37  1  0
  8 38  1  0
  9 39  1  0
  9 40  1  0
 16 41  1  0
 16 42  1  0
 18 43  1  0
 20 44  1  0
 21 45  1  0
 23 46  1  0
 24 47  1  0
 24 48  1  0
 25 49  1  0
 25 50  1  0
 27 51  1  0
 28 52  1  0
 28 53  1  0
 29 54  1  0
 29 55  1  0
 30 56  1  0
M  CHG  1   5  -1
M  END
>  <UniqueID>  (93) 
92

>  <SMILES>  (93) 
COC(=O)[N-]OCCCOC(=O)n1c(C(N)=O)cc2ccc(C3CCN(O)CC3)cc21

>  <Energy>  (93) 
93.54611579457165

>  <Genealogy>  (93) 
COC(=O)[N-]OCCCOC(=O)n1c(C(N)=O)cc2ccc(C3CCN(O)CC3)cc21 (protonated)
COC(=O)[N-]OCCCOC(=O)n1c(C(N)=O)cc2ccc(C3CCN(O)CC3)cc21 (3D coordinates assigned)
COC(=O)[N-]OCCCOC(=O)n1c(C(N)=O)cc2ccc(C3CCN(O)CC3)cc21 (nonaromatic ring conformer: 93.54611579457165 kcal/mol)

>  <smiles>  (93) 
COC(=O)NOCCCOC(=O)n1c(C(N)=O)cc2ccc(C3CCN(O)CC3)cc21

>  <score_type>  (93) 
oracle

>  <origin>  (93) 
adg

>  <m_score__min__energy>  (93) 
-8.2599999999999998

>  <m_primary>  (93) 
energy

$$$$
93:0
     RDKit          3D

 53 57  0  0  0  0  0  0  0  0999 V2000
  146.2980  152.1240  138.6460 C   0  0  0  0  0  0  0  0  0  0  0  0
  146.2540  152.8620  137.7810 N   0  0  0  0  0  0  0  0  0  0  0  0
  146.2030  153.7490  136.7380 C   0  0  0  0  0  0  0  0  0  0  0  0
  147.3730  154.3250  136.2930 C   0  0  0  0  0  0  0  0  0  0  0  0
  147.3940  155.2390  135.2320 C   0  0  0  0  0  0  0  0  0  0  0  0
  146.2160  155.5980  134.5880 C   0  0  0  0  0  0  0  0  0  0  0  0
  146.3230  156.4690  133.4500 C   0  0  0  0  0  0  0  0  0  0  0  0
  146.7320  155.8760  132.3770 O   0  0  0  0  0  0  0  0  0  0  0  0
  146.0440  157.8390  133.3370 N   0  0  0  0  0  0  0  0  0  0  0  0
  146.8460  158.9050  133.1850 C   0  0  0  0  0  0  0  0  0  0  0  0
  148.2390  158.9800  132.7850 C   0  0  0  0  0  0  0  0  0  0  0  0
  149.0470  157.8820  132.4060 N   0  0  0  0  0  0  0  0  0  0  0  0
  148.8200  160.1180  132.7500 O   0  0  0  0  0  0  0  0  0  0  0  0
  146.0940  160.0880  133.3140 C   0  0  0  0  0  0  0  0  0  0  0  0
  144.8160  159.7150  133.5400 C   0  0  0  0  0  0  0  0  0  0  0  0
  143.6900  160.5040  133.7340 C   0  0  0  0  0  0  0  0  0  0  0  0
  142.4720  159.8970  133.9500 C   0  0  0  0  0  0  0  0  0  0  0  0
  142.3890  158.5220  133.9740 C   0  0  0  0  0  0  0  0  0  0  0  0
  141.1670  157.8620  134.2110 N   0  0  0  0  0  0  0  0  0  0  0  0
  140.3010  157.3960  133.0950 C   0  0  0  0  0  0  0  0  0  0  0  0
  138.9490  157.8520  133.6130 C   0  0  0  0  0  0  0  0  0  0  0  0
  139.1160  158.1430  135.1130 C   0  0  0  0  0  0  0  0  0  0  0  0
  140.4440  157.4600  135.3710 C   0  0  2  0  0  0  0  0  0  0  0  0
  141.0300  157.7070  136.6710 C   0  0  0  0  0  0  0  0  0  0  0  0
  141.1840  156.7660  137.6420 N   0  0  0  0  0  0  0  0  0  0  0  0
  141.7630  157.3470  138.7090 C   0  0  0  0  0  0  0  0  0  0  0  0
  142.1020  156.6550  139.9810 C   0  0  0  0  0  0  0  0  0  0  0  0
  141.9490  158.6330  138.3580 N   0  0  0  0  0  0  0  0  0  0  0  0
  141.5110  158.8100  137.1670 O   0  0  0  0  0  0  0  0  0  0  0  0
  143.5480  157.7630  133.7740 C   0  0  0  0  0  0  0  0  0  0  0  0
  144.7820  158.3410  133.5540 C   0  0  0  0  0  0  0  0  0  0  0  0
  145.0710  155.0050  135.0570 C   0  0  0  0  0  0  0  0  0  0  0  0
  145.0380  154.1050  136.1000 C   0  0  0  0  0  0  0  0  0  0  0  0
  148.3195  154.0588  136.7862 H   0  0  0  0  0  0  0  0  0  0  0  0
  148.3496  155.6757  134.9062 H   0  0  0  0  0  0  0  0  0  0  0  0
  148.5630  157.1040  131.8750 H   0  0  0  0  0  0  0  0  0  0  0  0
  150.0650  157.8270  132.6300 H   0  0  0  0  0  0  0  0  0  0  0  0
  146.4742  161.1178  133.2442 H   0  0  0  0  0  0  0  0  0  0  0  0
  143.7694  161.6010  133.7155 H   0  0  0  0  0  0  0  0  0  0  0  0
  141.5699  160.5076  134.1026 H   0  0  0  0  0  0  0  0  0  0  0  0
  140.5609  157.8837  132.1439 H   0  0  0  0  0  0  0  0  0  0  0  0
  140.3743  156.3229  132.8647 H   0  0  0  0  0  0  0  0  0  0  0  0
  138.6300  158.7627  133.0850 H   0  0  0  0  0  0  0  0  0  0  0  0
  138.1843  157.0791  133.4463 H   0  0  0  0  0  0  0  0  0  0  0  0
  139.1669  159.2230  135.3155 H   0  0  0  0  0  0  0  0  0  0  0  0
  138.2867  157.7948  135.7463 H   0  0  0  0  0  0  0  0  0  0  0  0
  140.4003  156.3658  135.4753 H   0  0  0  0  0  0  0  0  0  0  0  0
  141.7954  157.2810  140.8320 H   0  0  0  0  0  0  0  0  0  0  0  0
  141.5741  155.6910  140.0259 H   0  0  0  0  0  0  0  0  0  0  0  0
  143.1873  156.4812  140.0259 H   0  0  0  0  0  0  0  0  0  0  0  0
  143.4726  156.6657  133.7929 H   0  0  0  0  0  0  0  0  0  0  0  0
  144.1195  155.2644  134.5698 H   0  0  0  0  0  0  0  0  0  0  0  0
  144.0798  153.6714  136.4222 H   0  0  0  0  0  0  0  0  0  0  0  0
  1  2  3  0
  2  3  1  0
  3  4  2  0
  4  5  1  0
  5  6  2  0
  6  7  1  0
  7  8  2  0
  7  9  1  0
  9 10  1  0
 10 11  1  0
 11 12  1  0
 11 13  2  0
 10 14  2  0
 14 15  1  0
 15 16  2  0
 16 17  1  0
 17 18  2  0
 18 19  1  0
 19 20  1  0
 20 21  1  0
 21 22  1  0
 22 23  1  0
 23 24  1  0
 24 25  2  0
 25 26  1  0
 26 27  1  0
 26 28  2  0
 28 29  1  0
 18 30  1  0
 30 31  2  0
  6 32  1  0
 32 33  2  0
 33  3  1  0
 31  9  1  0
 31 15  1  0
 23 19  1  0
 29 24  1  0
  4 34  1  0
  5 35  1  0
 12 36  1  0
 12 37  1  0
 14 38  1  0
 16 39  1  0
 17 40  1  0
 20 41  1  0
 20 42  1  0
 21 43  1  0
 21 44  1  0
 22 45  1  0
 22 46  1  0
 23 47  1  6
 27 48  1  0
 27 49  1  0
 27 50  1  0
 30 51  1  0
 32 52  1  0
 33 53  1  0
M  CHG  2   1  -1   2   1
M  END
>  <smiles>  (94) 
[C-]#[N+]c1ccc(C(=O)n2c(C(N)=O)cc3ccc(N4CCC[C@@H]4c4nc(C)no4)cc32)cc1

>  <score_type>  (94) 
oracle

>  <origin>  (94) 
adg

>  <m_score__min__energy>  (94) 
-11.130000000000001

>  <m_primary>  (94) 
energy

$$$$
94:0
     RDKit          3D

 60 63  0  0  0  0  0  0  0  0999 V2000
  150.5450  150.1290  130.1570 C   0  0  0  0  0  0  0  0  0  0  0  0
  150.3550  149.9420  131.5550 O   0  0  0  0  0  0  0  0  0  0  0  0
  149.1720  150.2970  132.2120 C   0  0  0  0  0  0  0  0  0  0  0  0
  148.4050  149.4010  132.6580 O   0  0  0  0  0  0  0  0  0  0  0  0
  148.8240  151.7250  132.3820 C   0  0  0  0  0  0  0  0  0  0  0  0
  147.4920  152.1070  132.6150 C   0  0  0  0  0  0  0  0  0  0  0  0
  147.1580  153.4540  132.7810 C   0  0  0  0  0  0  0  0  0  0  0  0
  148.1480  154.4490  132.7160 C   0  0  0  0  0  0  0  0  0  0  0  0
  147.7930  155.8800  132.8930 C   0  0  0  0  0  0  0  0  0  0  0  0
  148.8060  156.8740  132.9000 C   0  0  0  0  0  0  0  0  0  0  0  0
  148.4810  158.2320  133.0540 C   0  0  0  0  0  0  0  0  0  0  0  0
  147.1400  158.5680  133.2070 C   0  0  0  0  0  0  0  0  0  0  0  0
  146.5490  159.8020  133.3560 C   0  0  0  0  0  0  0  0  0  0  0  0
  145.1830  159.5480  133.4620 C   0  0  0  0  0  0  0  0  0  0  0  0
  144.1760  160.5980  133.7220 C   0  0  0  0  0  0  0  0  0  0  0  0
  142.8140  160.3800  133.3590 N   0  0  0  0  0  0  0  0  0  0  0  0
  144.5080  161.7010  134.2300 O   0  0  0  0  0  0  0  0  0  0  0  0
  144.9400  158.2090  133.3730 N   0  0  0  0  0  0  0  0  0  0  0  0
  143.6680  157.5410  133.3850 C   0  0  0  0  0  0  0  0  0  0  0  0
  142.7810  157.8620  132.5480 O   0  0  0  0  0  0  0  0  0  0  0  0
  143.4350  156.5150  134.3090 O   0  0  0  0  0  0  0  0  0  0  0  0
  142.1500  156.2010  134.8480 C   0  0  0  0  0  0  0  0  0  0  0  0
  141.8620  154.6920  134.7260 C   0  0  1  0  0  0  0  0  0  0  0  0
  141.0620  154.3720  133.4410 C   0  0  0  0  0  0  0  0  0  0  0  0
  141.2790  152.9150  133.0200 C   0  0  0  0  0  0  0  0  0  0  0  0
  142.6960  152.6530  132.6520 N   0  0  2  0  0  0  0  0  0  0  0  0
  142.9920  151.2150  132.7750 C   0  0  0  0  0  0  0  0  0  0  0  0
  143.6820  153.4690  133.4170 C   0  0  0  0  0  0  0  0  0  0  0  0
  143.1690  153.8600  134.8110 C   0  0  0  0  0  0  0  0  0  0  0  0
  146.1480  157.6230  133.2220 C   0  0  0  0  0  0  0  0  0  0  0  0
  146.4400  156.2650  133.0520 C   0  0  0  0  0  0  0  0  0  0  0  0
  149.4800  154.0670  132.4810 C   0  0  0  0  0  0  0  0  0  0  0  0
  149.8150  152.7190  132.3160 C   0  0  0  0  0  0  0  0  0  0  0  0
  151.3200  150.8918  129.9911 H   0  0  0  0  0  0  0  0  0  0  0  0
  150.8609  149.1798  129.6997 H   0  0  0  0  0  0  0  0  0  0  0  0
  149.6009  150.4600  129.6997 H   0  0  0  0  0  0  0  0  0  0  0  0
  146.7056  151.3396  132.6672 H   0  0  0  0  0  0  0  0  0  0  0  0
  146.1111  153.7376  132.9641 H   0  0  0  0  0  0  0  0  0  0  0  0
  149.8588  156.5773  132.7834 H   0  0  0  0  0  0  0  0  0  0  0  0
  149.2629  159.0057  133.0536 H   0  0  0  0  0  0  0  0  0  0  0  0
  147.0491  160.7813  133.3852 H   0  0  0  0  0  0  0  0  0  0  0  0
  142.5640  160.0020  132.4170 H   0  0  0  0  0  0  0  0  0  0  0  0
  142.1234  156.4890  135.9093 H   0  0  0  0  0  0  0  0  0  0  0  0
  141.3849  156.7538  134.2832 H   0  0  0  0  0  0  0  0  0  0  0  0
  141.2335  154.4022  135.5810 H   0  0  0  0  0  0  0  0  0  0  0  0
  141.3979  155.0362  132.6311 H   0  0  0  0  0  0  0  0  0  0  0  0
  139.9917  154.5278  133.6414 H   0  0  0  0  0  0  0  0  0  0  0  0
  140.6392  152.6957  132.1525 H   0  0  0  0  0  0  0  0  0  0  0  0
  141.0219  152.2700  133.8732 H   0  0  0  0  0  0  0  0  0  0  0  0
  142.8090  152.8980  131.6390 H   0  0  0  0  0  0  0  0  0  0  0  0
  143.0482  150.9419  133.8391 H   0  0  0  0  0  0  0  0  0  0  0  0
  142.1947  150.6336  132.2889 H   0  0  0  0  0  0  0  0  0  0  0  0
  143.9541  150.9958  132.2889 H   0  0  0  0  0  0  0  0  0  0  0  0
  143.8954  154.3870  132.8497 H   0  0  0  0  0  0  0  0  0  0  0  0
  144.5862  152.8576  133.5538 H   0  0  0  0  0  0  0  0  0  0  0  0
  143.9397  154.4570  135.3205 H   0  0  0  0  0  0  0  0  0  0  0  0
  142.9537  152.9372  135.3697 H   0  0  0  0  0  0  0  0  0  0  0  0
  145.6365  155.5138  133.0421 H   0  0  0  0  0  0  0  0  0  0  0  0
  150.2659  154.8348  132.4264 H   0  0  0  0  0  0  0  0  0  0  0  0
  150.8619  152.4350  132.1332 H   0  0  0  0  0  0  0  0  0  0  0  0
  1  2  1  0
  2  3  1  0
  3  4  2  0
  3  5  1  0
  5  6  2  0
  6  7  1  0
  7  8  2  0
  8  9  1  0
  9 10  2  0
 10 11  1  0
 11 12  2  0
 12 13  1  0
 13 14  2  0
 14 15  1  0
 15 16  1  0
 15 17  2  0
 14 18  1  0
 18 19  1  0
 19 20  2  0
 19 21  1  0
 21 22  1  0
 22 23  1  0
 23 24  1  0
 24 25  1  0
 25 26  1  0
 26 27  1  0
 26 28  1  0
 28 29  1  0
 18 30  1  0
 30 31  2  0
  8 32  1  0
 32 33  2  0
 33  5  1  0
 31  9  1  0
 30 12  1  0
 29 23  1  0
  1 34  1  0
  1 35  1  0
  1 36  1  0
  6 37  1  0
  7 38  1  0
 10 39  1  0
 11 40  1  0
 13 41  1  0
 16 42  1  0
 22 43  1  0
 22 44  1  0
 23 45  1  1
 24 46  1  0
 24 47  1  0
 25 48  1  0
 25 49  1  0
 26 50  1  6
 27 51  1  0
 27 52  1  0
 27 53  1  0
 28 54  1  0
 28 55  1  0
 29 56  1  0
 29 57  1  0
 31 58  1  0
 32 59  1  0
 33 60  1  0
M  CHG  2  16  -1  26   1
M  END
>  <UniqueID>  (95) 
93

>  <SMILES>  (95) 
COC(=O)c1ccc(-c2ccc3cc(C([NH-])=O)n(C(=O)OCC4CC[NH+](C)CC4)c3c2)cc1

>  <Energy>  (95) 
111.41671731292422

>  <Genealogy>  (95) 
COC(=O)c1ccc(-c2ccc3cc(C([NH-])=O)n(C(=O)OCC4CC[NH+](C)CC4)c3c2)cc1 (protonated)
COC(=O)c1ccc(-c2ccc3cc(C([NH-])=O)n(C(=O)OCC4CC[NH+](C)CC4)c3c2)cc1 (3D coordinates assigned)
COC(=O)c1ccc(-c2ccc3cc(C([NH-])=O)n(C(=O)OCC4CC[NH+](C)CC4)c3c2)cc1 (nonaromatic ring conformer: 111.41671731292422 kcal/mol)

>  <smiles>  (95) 
COC(=O)c1ccc(-c2ccc3cc(C(N)=O)n(C(=O)OCC4CCN(C)CC4)c3c2)cc1

>  <score_type>  (95) 
oracle

>  <origin>  (95) 
adg

>  <m_score__min__energy>  (95) 
-9.3399999999999999

>  <m_primary>  (95) 
energy

$$$$
95:0
     RDKit          3D

 37 38  0  0  0  0  0  0  0  0999 V2000
  149.5360  162.0180  130.3460 C   0  0  0  0  0  0  0  0  0  0  0  0
  149.0560  160.7720  130.3960 C   0  0  0  0  0  0  0  0  0  0  0  0
  149.7600  159.6960  131.1650 C   0  0  0  0  0  0  0  0  0  0  0  0
  148.8200  158.7090  131.5750 O   0  0  0  0  0  0  0  0  0  0  0  0
  148.0560  158.8280  132.7400 C   0  0  0  0  0  0  0  0  0  0  0  0
  148.2260  159.8120  133.5110 O   0  0  0  0  0  0  0  0  0  0  0  0
  147.0870  157.8180  133.0640 N   0  0  0  0  0  0  0  0  0  0  0  0
  145.7640  157.9990  133.3380 C   0  0  0  0  0  0  0  0  0  0  0  0
  145.0940  159.3060  133.5160 C   0  0  0  0  0  0  0  0  0  0  0  0
  145.6090  160.4810  132.8880 N   0  0  0  0  0  0  0  0  0  0  0  0
  144.0400  159.3880  134.2000 O   0  0  0  0  0  0  0  0  0  0  0  0
  145.1300  156.7710  133.5220 C   0  0  0  0  0  0  0  0  0  0  0  0
  146.1140  155.8240  133.3530 C   0  0  0  0  0  0  0  0  0  0  0  0
  146.0370  154.4360  133.4090 C   0  0  0  0  0  0  0  0  0  0  0  0
  147.2070  153.7000  133.1610 C   0  0  0  0  0  0  0  0  0  0  0  0
  148.4260  154.3610  132.8670 C   0  0  0  0  0  0  0  0  0  0  0  0
  149.6620  153.5610  132.5550 C   0  0  0  0  0  0  0  0  0  0  0  0
  149.3450  152.0650  132.5330 C   0  0  0  0  0  0  0  0  0  0  0  0
  150.5290  151.3170  132.5870 O   0  0  0  0  0  0  0  0  0  0  0  0
  148.4640  155.7710  132.8080 C   0  0  0  0  0  0  0  0  0  0  0  0
  147.2860  156.4800  133.0770 C   0  0  0  0  0  0  0  0  0  0  0  0
  149.0011  162.7909  129.7746 H   0  0  0  0  0  0  0  0  0  0  0  0
  150.4660  162.2708  130.8762 H   0  0  0  0  0  0  0  0  0  0  0  0
  148.1251  160.5314  129.8617 H   0  0  0  0  0  0  0  0  0  0  0  0
  150.5248  159.2301  130.5262 H   0  0  0  0  0  0  0  0  0  0  0  0
  150.2390  160.1351  132.0525 H   0  0  0  0  0  0  0  0  0  0  0  0
  145.1060  161.3910  132.9890 H   0  0  0  0  0  0  0  0  0  0  0  0
  146.5070  160.4630  132.3570 H   0  0  0  0  0  0  0  0  0  0  0  0
  144.0688  156.5963  133.7531 H   0  0  0  0  0  0  0  0  0  0  0  0
  145.0880  153.9302  133.6406 H   0  0  0  0  0  0  0  0  0  0  0  0
  147.1772  152.6009  133.1952 H   0  0  0  0  0  0  0  0  0  0  0  0
  150.0488  153.8629  131.5705 H   0  0  0  0  0  0  0  0  0  0  0  0
  150.4139  153.7523  133.3348 H   0  0  0  0  0  0  0  0  0  0  0  0
  148.7172  151.8141  133.4007 H   0  0  0  0  0  0  0  0  0  0  0  0
  148.8121  151.8254  131.6010 H   0  0  0  0  0  0  0  0  0  0  0  0
  151.2460  151.8940  132.2110 H   0  0  0  0  0  0  0  0  0  0  0  0
  149.3954  156.2998  132.5571 H   0  0  0  0  0  0  0  0  0  0  0  0
  1  2  2  0
  2  3  1  0
  3  4  1  0
  4  5  1  0
  5  6  2  0
  5  7  1  0
  7  8  1  0
  8  9  1  0
  9 10  1  0
  9 11  2  0
  8 12  2  0
 12 13  1  0
 13 14  2  0
 14 15  1  0
 15 16  2  0
 16 17  1  0
 17 18  1  0
 18 19  1  0
 16 20  1  0
 20 21  2  0
 21  7  1  0
 21 13  1  0
  1 22  1  0
  1 23  1  0
  2 24  1  0
  3 25  1  0
  3 26  1  0
 10 27  1  0
 10 28  1  0
 12 29  1  0
 14 30  1  0
 15 31  1  0
 17 32  1  0
 17 33  1  0
 18 34  1  0
 18 35  1  0
 19 36  1  0
 20 37  1  0
M  END
>  <UniqueID>  (96) 
94

>  <SMILES>  (96) 
C=CCOC(=O)n1c(C(N)=O)cc2ccc(CCO)cc21

>  <Energy>  (96) 
67.32611000628825

>  <Genealogy>  (96) 
C=CCOC(=O)n1c(C(N)=O)cc2ccc(CCO)cc21 (3D coordinates assigned)
C=CCOC(=O)n1c(C(N)=O)cc2ccc(CCO)cc21 (optimized conformer: 67.32611000628825 kcal/mol)

>  <smiles>  (96) 
C=CCOC(=O)n1c(C(N)=O)cc2ccc(CCO)cc21

>  <score_type>  (96) 
oracle

>  <origin>  (96) 
adg

>  <m_score__min__energy>  (96) 
-7.1600000000000001

>  <m_primary>  (96) 
energy

$$$$
96:0
     RDKit          3D

 36 37  0  0  0  0  0  0  0  0999 V2000
  140.9840  159.9920  135.2890 N   0  0  0  0  0  0  0  0  0  0  0  0
  141.8160  160.4870  134.2440 C   0  0  0  0  0  0  0  0  0  0  0  0
  141.3700  161.3760  133.4700 O   0  0  0  0  0  0  0  0  0  0  0  0
  143.1710  159.9380  134.0230 C   0  0  0  0  0  0  0  0  0  0  0  0
  144.2670  160.7230  133.6680 C   0  0  0  0  0  0  0  0  0  0  0  0
  145.3020  159.8370  133.4750 C   0  0  0  0  0  0  0  0  0  0  0  0
  146.6230  160.0720  133.1070 C   0  0  0  0  0  0  0  0  0  0  0  0
  147.4840  158.9670  133.0020 C   0  0  0  0  0  0  0  0  0  0  0  0
  147.0210  157.6570  133.2910 C   0  0  0  0  0  0  0  0  0  0  0  0
  147.9460  156.4740  133.1400 C   0  0  0  0  0  0  0  0  0  0  0  0
  147.4240  155.5560  132.2470 F   0  0  0  0  0  0  0  0  0  0  0  0
  149.1840  156.8810  132.6720 F   0  0  0  0  0  0  0  0  0  0  0  0
  148.1080  155.8650  134.3710 F   0  0  0  0  0  0  0  0  0  0  0  0
  145.6650  157.4580  133.6400 C   0  0  0  0  0  0  0  0  0  0  0  0
  144.8250  158.5750  133.7170 C   0  0  0  0  0  0  0  0  0  0  0  0
  143.5170  158.6200  134.0560 N   0  0  0  0  0  0  0  0  0  0  0  0
  142.7020  157.5060  134.4510 C   0  0  0  0  0  0  0  0  0  0  0  0
  142.3700  157.3640  135.6580 O   0  0  0  0  0  0  0  0  0  0  0  0
  142.2810  156.5490  133.4750 N   0  0  0  0  0  0  0  0  0  0  0  0
  140.9140  156.0610  133.3850 C   0  0  0  0  0  0  0  0  0  0  0  0
  139.9710  157.2060  133.5440 C   0  0  0  0  0  0  0  0  0  0  0  0
  139.5270  157.4960  134.6890 O   0  0  0  0  0  0  0  0  0  0  0  0
  139.5510  157.9140  132.4130 O   0  0  0  0  0  0  0  0  0  0  0  0
  139.2290  159.3050  132.4350 C   0  0  0  0  0  0  0  0  0  0  0  0
  138.8270  159.7840  131.0690 C   0  0  0  0  0  0  0  0  0  0  0  0
  137.4620  160.1230  130.7750 S   0  0  0  0  0  0  0  0  0  0  0  0
  140.9030  158.9670  135.4710 H   0  0  0  0  0  0  0  0  0  0  0  0
  144.2978  161.8177  133.5643 H   0  0  0  0  0  0  0  0  0  0  0  0
  146.9822  161.0918  132.9045 H   0  0  0  0  0  0  0  0  0  0  0  0
  148.5285  159.1188  132.6924 H   0  0  0  0  0  0  0  0  0  0  0  0
  145.2793  156.4487  133.8462 H   0  0  0  0  0  0  0  0  0  0  0  0
  140.7563  155.5884  132.4043 H   0  0  0  0  0  0  0  0  0  0  0  0
  140.7334  155.3215  134.1790 H   0  0  0  0  0  0  0  0  0  0  0  0
  138.3963  159.4709  133.1343 H   0  0  0  0  0  0  0  0  0  0  0  0
  140.1185  159.8665  132.7566 H   0  0  0  0  0  0  0  0  0  0  0  0
  139.5895  159.8766  130.2816 H   0  0  0  0  0  0  0  0  0  0  0  0
  1  2  1  0
  2  3  2  0
  2  4  1  0
  4  5  2  0
  5  6  1  0
  6  7  2  0
  7  8  1  0
  8  9  2  0
  9 10  1  0
 10 11  1  0
 10 12  1  0
 10 13  1  0
  9 14  1  0
 14 15  2  0
 15 16  1  0
 16 17  1  0
 17 18  2  0
 17 19  1  0
 19 20  1  0
 20 21  1  0
 21 22  2  0
 21 23  1  0
 23 24  1  0
 24 25  1  0
 25 26  2  0
 16  4  1  0
 15  6  1  0
  1 27  1  0
  5 28  1  0
  7 29  1  0
  8 30  1  0
 14 31  1  0
 20 32  1  0
 20 33  1  0
 24 34  1  0
 24 35  1  0
 25 36  1  0
M  CHG  2   1  -1  19  -1
M  END
>  <UniqueID>  (97) 
95

>  <SMILES>  (97) 
[NH-]C(=O)c1cc2ccc(C(F)(F)F)cc2n1C(=O)[N-]CC(=O)OCC=S

>  <Energy>  (97) 
70.16607604079927

>  <Genealogy>  (97) 
[NH-]C(=O)c1cc2ccc(C(F)(F)F)cc2n1C(=O)[N-]CC(=O)OCC=S (protonated)
[NH-]C(=O)c1cc2ccc(C(F)(F)F)cc2n1C(=O)[N-]CC(=O)OCC=S (3D coordinates assigned)
[NH-]C(=O)c1cc2ccc(C(F)(F)F)cc2n1C(=O)[N-]CC(=O)OCC=S (optimized conformer: 70.16607604079927 kcal/mol)

>  <smiles>  (97) 
NC(=O)c1cc2ccc(C(F)(F)F)cc2n1C(=O)NCC(=O)OCC=S

>  <score_type>  (97) 
oracle

>  <origin>  (97) 
adg

>  <m_score__min__energy>  (97) 
-6.0999999999999996

>  <m_primary>  (97) 
energy

$$$$
97:0
     RDKit          3D

 61 64  0  0  0  0  0  0  0  0999 V2000
  139.0990  156.9960  133.2130 C   0  0  0  0  0  0  0  0  0  0  0  0
  139.4390  158.4730  132.9780 C   0  0  2  0  0  0  0  0  0  0  0  0
  138.9160  158.9640  131.6560 C   0  0  0  0  0  0  0  0  0  0  0  0
  139.6700  159.0370  130.6490 O   0  0  0  0  0  0  0  0  0  0  0  0
  137.5940  159.3730  131.5480 O   0  0  0  0  0  0  0  0  0  0  0  0
  140.9300  158.7180  133.1060 C   0  0  0  0  0  0  0  0  0  0  0  0
  141.3950  159.9960  133.4970 C   0  0  0  0  0  0  0  0  0  0  0  0
  142.7590  160.2270  133.7240 C   0  0  0  0  0  0  0  0  0  0  0  0
  143.6370  159.1640  133.5620 C   0  0  0  0  0  0  0  0  0  0  0  0
  144.9900  159.1120  133.7810 C   0  0  0  0  0  0  0  0  0  0  0  0
  145.3510  157.7970  133.5250 C   0  0  0  0  0  0  0  0  0  0  0  0
  146.7080  157.2810  133.7860 C   0  0  0  0  0  0  0  0  0  0  0  0
  146.8770  155.9850  134.3540 N   0  0  0  0  0  0  0  0  0  0  0  0
  147.7210  157.9470  133.4480 O   0  0  0  0  0  0  0  0  0  0  0  0
  144.2730  157.0590  133.1270 N   0  0  0  0  0  0  0  0  0  0  0  0
  144.2920  155.7100  132.6120 C   0  0  0  0  0  0  0  0  0  0  0  0
  145.3660  155.2050  132.1950 O   0  0  0  0  0  0  0  0  0  0  0  0
  143.1100  154.9520  132.6180 O   0  0  0  0  0  0  0  0  0  0  0  0
  142.6330  154.0710  133.6480 C   0  0  0  0  0  0  0  0  0  0  0  0
  142.9540  152.5960  133.3340 C   0  0  0  0  0  0  0  0  0  0  0  0
  141.1050  154.2420  133.6910 C   0  0  0  0  0  0  0  0  0  0  0  0
  143.2220  154.4550  134.9930 C   0  0  0  0  0  0  0  0  0  0  0  0
  144.4480  154.2770  135.2220 O   0  0  0  0  0  0  0  0  0  0  0  0
  142.4210  155.0910  135.9910 N   0  0  0  0  0  0  0  0  0  0  0  0
  142.1100  156.3780  135.9580 N   0  0  0  0  0  0  0  0  0  0  0  0
  141.3970  156.6580  137.0690 C   0  0  0  0  0  0  0  0  0  0  0  0
  140.9510  158.0400  137.4300 C   0  0  0  0  0  0  0  0  0  0  0  0
  139.6930  158.2700  136.9120 F   0  0  0  0  0  0  0  0  0  0  0  0
  141.8320  158.9810  136.9330 F   0  0  0  0  0  0  0  0  0  0  0  0
  141.3020  155.5140  137.8490 C   0  0  0  0  0  0  0  0  0  0  0  0
  141.9330  154.5350  137.1200 C   0  0  0  0  0  0  0  0  0  0  0  0
  142.1950  153.1510  137.6460 C   0  0  0  0  0  0  0  0  0  0  0  0
  142.0710  152.2180  136.6370 F   0  0  0  0  0  0  0  0  0  0  0  0
  143.4840  153.1000  138.1470 F   0  0  0  0  0  0  0  0  0  0  0  0
  141.1900  152.8170  138.7680 C   0  0  0  0  0  0  0  0  0  0  0  0
  141.0890  153.9580  139.8000 C   0  0  0  0  0  0  0  0  0  0  0  0
  140.6120  155.2820  139.1640 C   0  0  0  0  0  0  0  0  0  0  0  0
  140.8890  156.3230  140.0320 F   0  0  0  0  0  0  0  0  0  0  0  0
  139.2450  155.2240  138.9500 F   0  0  0  0  0  0  0  0  0  0  0  0
  143.2210  157.9160  133.1690 C   0  0  0  0  0  0  0  0  0  0  0  0
  141.8620  157.6670  132.9150 C   0  0  0  0  0  0  0  0  0  0  0  0
  139.0534  156.7978  134.2940 H   0  0  0  0  0  0  0  0  0  0  0  0
  138.1246  156.7669  132.7568 H   0  0  0  0  0  0  0  0  0  0  0  0
  139.8751  156.3640  132.7568 H   0  0  0  0  0  0  0  0  0  0  0  0
  138.9326  159.0542  133.7627 H   0  0  0  0  0  0  0  0  0  0  0  0
  140.6766  160.8192  133.6245 H   0  0  0  0  0  0  0  0  0  0  0  0
  143.1229  161.2215  134.0218 H   0  0  0  0  0  0  0  0  0  0  0  0
  145.6481  159.9364  134.0929 H   0  0  0  0  0  0  0  0  0  0  0  0
  146.1380  155.2540  134.2500 H   0  0  0  0  0  0  0  0  0  0  0  0
  143.0752  152.0389  134.2747 H   0  0  0  0  0  0  0  0  0  0  0  0
  142.1303  152.1574  132.7516 H   0  0  0  0  0  0  0  0  0  0  0  0
  143.8855  152.5394  132.7516 H   0  0  0  0  0  0  0  0  0  0  0  0
  140.7696  154.2795  134.7379 H   0  0  0  0  0  0  0  0  0  0  0  0
  140.8262  155.1770  133.1829 H   0  0  0  0  0  0  0  0  0  0  0  0
  140.6264  153.3918  133.1829 H   0  0  0  0  0  0  0  0  0  0  0  0
  140.9241  158.1250  138.5264 H   0  0  0  0  0  0  0  0  0  0  0  0
  140.1986  152.6515  138.3211 H   0  0  0  0  0  0  0  0  0  0  0  0
  141.5433  151.9142  139.2878 H   0  0  0  0  0  0  0  0  0  0  0  0
  140.3749  153.6643  140.5835 H   0  0  0  0  0  0  0  0  0  0  0  0
  142.0936  154.1265  140.2152 H   0  0  0  0  0  0  0  0  0  0  0  0
  141.5276  156.6759  132.5745 H   0  0  0  0  0  0  0  0  0  0  0  0
  1  2  1  0
  2  3  1  0
  3  4  2  0
  3  5  1  0
  2  6  1  0
  6  7  2  0
  7  8  1  0
  8  9  2  0
  9 10  1  0
 10 11  2  0
 11 12  1  0
 12 13  1  0
 12 14  2  0
 11 15  1  0
 15 16  1  0
 16 17  2  0
 16 18  1  0
 18 19  1  0
 19 20  1  0
 19 21  1  0
 19 22  1  0
 22 23  2  0
 22 24  1  0
 24 25  1  0
 25 26  2  0
 26 27  1  0
 27 28  1  0
 27 29  1  0
 26 30  1  0
 30 31  2  0
 31 32  1  0
 32 33  1  0
 32 34  1  0
 32 35  1  0
 35 36  1  0
 36 37  1  0
 37 38  1  0
 37 39  1  0
 15 40  1  0
 40 41  2  0
 41  6  1  0
 40  9  1  0
 31 24  1  0
 37 30  1  0
  1 42  1  0
  1 43  1  0
  1 44  1  0
  2 45  1  1
  7 46  1  0
  8 47  1  0
 10 48  1  0
 13 49  1  0
 20 50  1  0
 20 51  1  0
 20 52  1  0
 21 53  1  0
 21 54  1  0
 21 55  1  0
 27 56  1  0
 35 57  1  0
 35 58  1  0
 36 59  1  0
 36 60  1  0
 41 61  1  0
M  CHG  2   5  -1  13  -1
M  END
>  <UniqueID>  (98) 
96

>  <SMILES>  (98) 
C[C@H](C(=O)[O-])c1ccc2cc(C([NH-])=O)n(C(=O)OC(C)(C)C(=O)n3nc(C(F)F)c4c3C(F)(F)CCC4(F)F)c2c1

>  <Energy>  (98) 
134.98051837854948

>  <Genealogy>  (98) 
CC(C(=O)[O-])c1ccc2cc(C([NH-])=O)n(C(=O)OC(C)(C)C(=O)n3nc(C(F)F)c4c3C(F)(F)CCC4(F)F)c2c1 (protonated)
C[C@H](C(=O)[O-])c1ccc2cc(C([NH-])=O)n(C(=O)OC(C)(C)C(=O)n3nc(C(F)F)c4c3C(F)(F)CCC4(F)F)c2c1 (chirality)
C[C@H](C(=O)[O-])c1ccc2cc(C([NH-])=O)n(C(=O)OC(C)(C)C(=O)n3nc(C(F)F)c4c3C(F)(F)CCC4(F)F)c2c1 (3D coordinates assigned)
C[C@H](C(=O)[O-])c1ccc2cc(C([NH-])=O)n(C(=O)OC(C)(C)C(=O)n3nc(C(F)F)c4c3C(F)(F)CCC4(F)F)c2c1 (nonaromatic ring conformer: 134.98051837854948 kcal/mol)

>  <smiles>  (98) 
CC(C(=O)O)c1ccc2cc(C(N)=O)n(C(=O)OC(C)(C)C(=O)n3nc(C(F)F)c4c3C(F)(F)CCC4(F)F)c2c1

>  <score_type>  (98) 
oracle

>  <origin>  (98) 
adg

>  <m_score__min__energy>  (98) 
-8.9800000000000004

>  <m_primary>  (98) 
energy

$$$$
