0:0
     RDKit          3D

 31 32  0  0  0  0  0  0  0  0999 V2000
  142.9870  160.8730  133.3630 N   0  0  0  0  0  0  0  0  0  0  0  0
  144.3580  161.0070  133.7320 C   0  0  0  0  0  0  0  0  0  0  0  0
  144.7330  162.0410  134.3460 O   0  0  0  0  0  0  0  0  0  0  0  0
  145.3280  159.9320  133.4460 C   0  0  0  0  0  0  0  0  0  0  0  0
  146.7030  160.1420  133.3440 C   0  0  0  0  0  0  0  0  0  0  0  0
  147.2520  158.8880  133.1870 C   0  0  0  0  0  0  0  0  0  0  0  0
  148.5810  158.5030  133.0380 C   0  0  0  0  0  0  0  0  0  0  0  0
  148.8560  157.1340  132.8820 C   0  0  0  0  0  0  0  0  0  0  0  0
  147.8060  156.1810  132.8790 C   0  0  0  0  0  0  0  0  0  0  0  0
  148.1020  154.7200  132.6980 C   0  0  0  0  0  0  0  0  0  0  0  0
  149.4420  154.5490  132.3990 F   0  0  0  0  0  0  0  0  0  0  0  0
  147.8040  154.0370  133.8630 F   0  0  0  0  0  0  0  0  0  0  0  0
  146.4690  156.6110  133.0340 C   0  0  0  0  0  0  0  0  0  0  0  0
  146.2280  157.9790  133.1940 C   0  0  0  0  0  0  0  0  0  0  0  0
  145.0410  158.6040  133.3400 N   0  0  0  0  0  0  0  0  0  0  0  0
  143.7500  157.9760  133.3160 C   0  0  0  0  0  0  0  0  0  0  0  0
  143.3110  157.4970  132.2360 O   0  0  0  0  0  0  0  0  0  0  0  0
  142.8750  157.9730  134.5320 C   0  0  0  0  0  0  0  0  0  0  0  0
  141.1320  158.1930  134.0620 P   0  0  1  0  0  0  0  0  0  0  0  0
  140.4600  156.8460  133.9220 O   0  0  0  0  0  0  0  0  0  0  0  0
  140.3470  159.0830  135.2660 O   0  0  0  0  0  0  0  0  0  0  0  0
  141.0320  159.0380  132.5980 O   0  0  0  0  0  0  0  0  0  0  0  0
  142.7010  160.2510  132.5770 H   0  0  0  0  0  0  0  0  0  0  0  0
  147.2357  161.1037  133.3810 H   0  0  0  0  0  0  0  0  0  0  0  0
  149.3909  159.2473  133.0422 H   0  0  0  0  0  0  0  0  0  0  0  0
  149.8964  156.7981  132.7610 H   0  0  0  0  0  0  0  0  0  0  0  0
  147.4884  154.3276  131.8737 H   0  0  0  0  0  0  0  0  0  0  0  0
  145.6395  155.8885  133.0289 H   0  0  0  0  0  0  0  0  0  0  0  0
  142.9898  157.0140  135.0584 H   0  0  0  0  0  0  0  0  0  0  0  0
  143.1744  158.8036  135.1881 H   0  0  0  0  0  0  0  0  0  0  0  0
  141.9700  159.2050  132.3330 H   0  0  0  0  0  0  0  0  0  0  0  0
  1  2  1  0
  2  3  2  0
  2  4  1  0
  4  5  2  0
  5  6  1  0
  6  7  2  0
  7  8  1  0
  8  9  2  0
  9 10  1  0
 10 11  1  0
 10 12  1  0
  9 13  1  0
 13 14  2  0
 14 15  1  0
 15 16  1  0
 16 17  2  0
 16 18  1  0
 18 19  1  0
 19 20  2  0
 19 21  1  1
 19 22  1  0
 15  4  1  0
 14  6  1  0
  1 23  1  0
  5 24  1  0
  7 25  1  0
  8 26  1  0
 10 27  1  0
 13 28  1  0
 18 29  1  0
 18 30  1  0
 22 31  1  0
M  CHG  2   1  -1  21  -1
M  END
>  <UniqueID>  (1) 
1

>  <SMILES>  (1) 
[NH-]C(=O)c1cc2ccc(C(F)F)cc2n1C(=O)C[P@@](=O)([O-])O

>  <Energy>  (1) 
64.30184303367598

>  <Genealogy>  (1) 
[NH-]C(=O)c1cc2ccc(C(F)F)cc2n1C(=O)CP(=O)([O-])O (protonated)
[NH-]C(=O)c1cc2ccc(C(F)F)cc2n1C(=O)C[P@@](=O)([O-])O (chirality)
[NH-]C(=O)c1cc2ccc(C(F)F)cc2n1C(=O)C[P@@](=O)([O-])O (3D coordinates assigned)
[NH-]C(=O)c1cc2ccc(C(F)F)cc2n1C(=O)C[P@@](=O)([O-])O (optimized conformer: 64.30184303367598 kcal/mol)

>  <smiles>  (1) 
NC(=O)c1cc2ccc(C(F)F)cc2n1C(=O)CP(=O)(O)O

>  <score_type>  (1) 
oracle

>  <origin>  (1) 
adg

>  <m_score__min__energy>  (1) 
-5.7199999999999998

>  <m_primary>  (1) 
energy

$$$$
1:0
     RDKit          3D

 32 33  0  0  0  0  0  0  0  0999 V2000
  144.4420  154.6830  136.0980 N   0  0  0  0  0  0  0  0  0  0  0  0
  144.2060  155.2210  134.7990 C   0  0  0  0  0  0  0  0  0  0  0  0
  143.2310  154.7980  134.1240 O   0  0  0  0  0  0  0  0  0  0  0  0
  145.1200  156.2230  134.2140 C   0  0  0  0  0  0  0  0  0  0  0  0
  144.7680  157.5560  134.0130 C   0  0  0  0  0  0  0  0  0  0  0  0
  145.8450  158.1260  133.3740 C   0  0  0  0  0  0  0  0  0  0  0  0
  146.0370  159.4310  132.9350 C   0  0  0  0  0  0  0  0  0  0  0  0
  147.2610  159.7480  132.3220 C   0  0  0  0  0  0  0  0  0  0  0  0
  148.2780  158.7690  132.1840 C   0  0  0  0  0  0  0  0  0  0  0  0
  149.5730  159.1110  131.4910 C   0  0  0  0  0  0  0  0  0  0  0  0
  149.4230  159.0490  130.1160 F   0  0  0  0  0  0  0  0  0  0  0  0
  150.5710  158.2250  131.8570 F   0  0  0  0  0  0  0  0  0  0  0  0
  149.9530  160.3910  131.8460 F   0  0  0  0  0  0  0  0  0  0  0  0
  148.0350  157.4460  132.6230 C   0  0  0  0  0  0  0  0  0  0  0  0
  146.7990  157.1540  133.2120 C   0  0  0  0  0  0  0  0  0  0  0  0
  146.3690  155.9800  133.7260 N   0  0  0  0  0  0  0  0  0  0  0  0
  147.1260  154.7640  133.8240 C   0  0  0  0  0  0  0  0  0  0  0  0
  147.9710  154.4740  132.9330 O   0  0  0  0  0  0  0  0  0  0  0  0
  146.9380  153.9150  134.9200 O   0  0  0  0  0  0  0  0  0  0  0  0
  147.5690  154.1250  136.1790 C   0  0  0  0  0  0  0  0  0  0  0  0
  147.0510  153.2100  137.1160 O   0  0  0  0  0  0  0  0  0  0  0  0
  148.0030  153.2940  138.5270 P   0  0  0  0  0  0  0  0  0  0  0  0
  149.2640  154.0690  138.2240 O   0  0  0  0  0  0  0  0  0  0  0  0
  147.1500  154.0870  139.7550 O   0  0  0  0  0  0  0  0  0  0  0  0
  148.4210  151.7380  139.0430 O   0  0  0  0  0  0  0  0  0  0  0  0
  145.4030  154.4130  136.4010 H   0  0  0  0  0  0  0  0  0  0  0  0
  143.8283  158.0484  134.3036 H   0  0  0  0  0  0  0  0  0  0  0  0
  145.2540  160.1928  133.0637 H   0  0  0  0  0  0  0  0  0  0  0  0
  147.4324  160.7670  131.9449 H   0  0  0  0  0  0  0  0  0  0  0  0
  148.8000  156.6646  132.5042 H   0  0  0  0  0  0  0  0  0  0  0  0
  148.6535  153.9723  136.0768 H   0  0  0  0  0  0  0  0  0  0  0  0
  147.3769  155.1526  136.5214 H   0  0  0  0  0  0  0  0  0  0  0  0
  1  2  1  0
  2  3  2  0
  2  4  1  0
  4  5  2  0
  5  6  1  0
  6  7  2  0
  7  8  1  0
  8  9  2  0
  9 10  1  0
 10 11  1  0
 10 12  1  0
 10 13  1  0
  9 14  1  0
 14 15  2  0
 15 16  1  0
 16 17  1  0
 17 18  2  0
 17 19  1  0
 19 20  1  0
 20 21  1  0
 21 22  1  0
 22 23  2  0
 22 24  1  0
 22 25  1  0
 16  4  1  0
 15  6  1  0
  1 26  1  0
  5 27  1  0
  7 28  1  0
  8 29  1  0
 14 30  1  0
 20 31  1  0
 20 32  1  0
M  CHG  3   1  -1  24  -1  25  -1
M  END
>  <UniqueID>  (2) 
2

>  <SMILES>  (2) 
[NH-]C(=O)c1cc2ccc(C(F)(F)F)cc2n1C(=O)OCOP(=O)([O-])[O-]

>  <Energy>  (2) 
69.36889828795896

>  <Genealogy>  (2) 
[NH-]C(=O)c1cc2ccc(C(F)(F)F)cc2n1C(=O)OCOP(=O)([O-])[O-] (protonated)
[NH-]C(=O)c1cc2ccc(C(F)(F)F)cc2n1C(=O)OCOP(=O)([O-])[O-] (3D coordinates assigned)
[NH-]C(=O)c1cc2ccc(C(F)(F)F)cc2n1C(=O)OCOP(=O)([O-])[O-] (optimized conformer: 69.36889828795896 kcal/mol)

>  <smiles>  (2) 
NC(=O)c1cc2ccc(C(F)(F)F)cc2n1C(=O)OCOP(=O)(O)O

>  <score_type>  (2) 
oracle

>  <origin>  (2) 
adg

>  <m_score__min__energy>  (2) 
-6.0899999999999999

>  <m_primary>  (2) 
energy

$$$$
2:0
     RDKit          3D

 41 42  0  0  0  0  0  0  0  0999 V2000
  139.8550  159.3380  131.4580 C   0  0  0  0  0  0  0  0  0  0  0  0
  140.8530  159.3670  132.4590 O   0  0  0  0  0  0  0  0  0  0  0  0
  140.2430  159.4470  133.7300 C   0  0  0  0  0  0  0  0  0  0  0  0
  139.4140  158.1840  133.9760 C   0  0  0  0  0  0  0  0  0  0  0  0
  139.7050  157.6300  135.2980 N   0  0  0  0  0  0  0  0  0  0  0  0
  140.9700  157.7810  135.9560 C   0  0  0  0  0  0  0  0  0  0  0  0
  141.0380  158.3110  137.0970 O   0  0  0  0  0  0  0  0  0  0  0  0
  142.2120  157.2680  135.2970 C   0  0  0  0  0  0  0  0  0  0  0  0
  143.0050  158.3500  134.8110 O   0  0  0  0  0  0  0  0  0  0  0  0
  143.7200  158.3030  133.6080 C   0  0  0  0  0  0  0  0  0  0  0  0
  143.2530  157.6910  132.6080 O   0  0  0  0  0  0  0  0  0  0  0  0
  145.0060  158.9360  133.5220 N   0  0  0  0  0  0  0  0  0  0  0  0
  145.2920  160.2680  133.5670 C   0  0  0  0  0  0  0  0  0  0  0  0
  144.3270  161.3510  133.8570 C   0  0  0  0  0  0  0  0  0  0  0  0
  142.9260  161.1050  133.7320 N   0  0  0  0  0  0  0  0  0  0  0  0
  144.7270  162.5030  134.1760 O   0  0  0  0  0  0  0  0  0  0  0  0
  146.6580  160.4800  133.3900 C   0  0  0  0  0  0  0  0  0  0  0  0
  147.2050  159.2250  133.2420 C   0  0  0  0  0  0  0  0  0  0  0  0
  148.5270  158.8430  133.0200 C   0  0  0  0  0  0  0  0  0  0  0  0
  148.8020  157.4710  132.8830 C   0  0  0  0  0  0  0  0  0  0  0  0
  147.7610  156.5140  132.9750 C   0  0  0  0  0  0  0  0  0  0  0  0
  148.0600  155.0550  132.7850 C   0  0  0  0  0  0  0  0  0  0  0  0
  146.4290  156.9400  133.1810 C   0  0  0  0  0  0  0  0  0  0  0  0
  146.1880  158.3110  133.3290 C   0  0  0  0  0  0  0  0  0  0  0  0
  138.8622  159.3091  131.9308 H   0  0  0  0  0  0  0  0  0  0  0  0
  139.9371  160.2389  130.8322 H   0  0  0  0  0  0  0  0  0  0  0  0
  139.9892  158.4434  130.8322 H   0  0  0  0  0  0  0  0  0  0  0  0
  141.0190  159.5334  134.5048 H   0  0  0  0  0  0  0  0  0  0  0  0
  139.5880  160.3299  133.7685 H   0  0  0  0  0  0  0  0  0  0  0  0
  138.3448  158.4354  133.9161 H   0  0  0  0  0  0  0  0  0  0  0  0
  139.6708  157.4354  133.2120 H   0  0  0  0  0  0  0  0  0  0  0  0
  142.7971  156.6905  136.0278 H   0  0  0  0  0  0  0  0  0  0  0  0
  141.9258  156.6286  134.4489 H   0  0  0  0  0  0  0  0  0  0  0  0
  142.5650  160.1330  133.5980 H   0  0  0  0  0  0  0  0  0  0  0  0
  147.1867  161.4445  133.3723 H   0  0  0  0  0  0  0  0  0  0  0  0
  149.3302  159.5917  132.9540 H   0  0  0  0  0  0  0  0  0  0  0  0
  149.8346  157.1374  132.7027 H   0  0  0  0  0  0  0  0  0  0  0  0
  148.1594  154.5701  133.7674 H   0  0  0  0  0  0  0  0  0  0  0  0
  147.2400  154.5827  132.2242 H   0  0  0  0  0  0  0  0  0  0  0  0
  148.9997  154.9433  132.2242 H   0  0  0  0  0  0  0  0  0  0  0  0
  145.6040  156.2137  133.2239 H   0  0  0  0  0  0  0  0  0  0  0  0
  1  2  1  0
  2  3  1  0
  3  4  1  0
  4  5  1  0
  5  6  1  0
  6  7  2  0
  6  8  1  0
  8  9  1  0
  9 10  1  0
 10 11  2  0
 10 12  1  0
 12 13  1  0
 13 14  1  0
 14 15  1  0
 14 16  2  0
 13 17  2  0
 17 18  1  0
 18 19  2  0
 19 20  1  0
 20 21  2  0
 21 22  1  0
 21 23  1  0
 23 24  2  0
 24 12  1  0
 24 18  1  0
  1 25  1  0
  1 26  1  0
  1 27  1  0
  3 28  1  0
  3 29  1  0
  4 30  1  0
  4 31  1  0
  8 32  1  0
  8 33  1  0
 15 34  1  0
 17 35  1  0
 19 36  1  0
 20 37  1  0
 22 38  1  0
 22 39  1  0
 22 40  1  0
 23 41  1  0
M  CHG  2   5  -1  15  -1
M  END
>  <UniqueID>  (3) 
3

>  <SMILES>  (3) 
COCC[N-]C(=O)COC(=O)n1c(C([NH-])=O)cc2ccc(C)cc21

>  <Energy>  (3) 
73.47632009616605

>  <Genealogy>  (3) 
COCC[N-]C(=O)COC(=O)n1c(C([NH-])=O)cc2ccc(C)cc21 (protonated)
COCC[N-]C(=O)COC(=O)n1c(C([NH-])=O)cc2ccc(C)cc21 (3D coordinates assigned)
COCC[N-]C(=O)COC(=O)n1c(C([NH-])=O)cc2ccc(C)cc21 (optimized conformer: 73.47632009616605 kcal/mol)

>  <smiles>  (3) 
COCCNC(=O)COC(=O)n1c(C(N)=O)cc2ccc(C)cc21

>  <score_type>  (3) 
oracle

>  <origin>  (3) 
adg

>  <m_score__min__energy>  (3) 
-6.5199999999999996

>  <m_primary>  (3) 
energy

$$$$
3:0
     RDKit          3D

 33 34  0  0  0  0  0  0  0  0999 V2000
  148.3950  161.2490  131.1200 N   0  0  0  0  0  0  0  0  0  0  0  0
  149.2540  160.1340  131.3380 C   0  0  0  0  0  0  0  0  0  0  0  0
  150.4070  160.1340  130.8300 O   0  0  0  0  0  0  0  0  0  0  0  0
  148.7870  158.9560  132.0960 C   0  0  0  0  0  0  0  0  0  0  0  0
  149.4090  157.7120  132.0310 C   0  0  0  0  0  0  0  0  0  0  0  0
  148.5940  156.8600  132.7380 C   0  0  0  0  0  0  0  0  0  0  0  0
  148.7170  155.4940  132.9740 C   0  0  0  0  0  0  0  0  0  0  0  0
  147.7170  154.8640  133.7350 C   0  0  0  0  0  0  0  0  0  0  0  0
  146.6280  155.6070  134.2590 C   0  0  0  0  0  0  0  0  0  0  0  0
  145.5400  154.9140  135.0400 C   0  0  0  0  0  0  0  0  0  0  0  0
  144.4900  155.7800  135.2870 F   0  0  0  0  0  0  0  0  0  0  0  0
  146.0220  154.4610  136.2550 F   0  0  0  0  0  0  0  0  0  0  0  0
  145.0730  153.8360  134.3110 F   0  0  0  0  0  0  0  0  0  0  0  0
  146.5250  156.9880  133.9720 C   0  0  0  0  0  0  0  0  0  0  0  0
  147.5330  157.5880  133.2080 C   0  0  0  0  0  0  0  0  0  0  0  0
  147.6450  158.8830  132.8390 N   0  0  0  0  0  0  0  0  0  0  0  0
  146.7580  159.9530  133.2160 C   0  0  0  0  0  0  0  0  0  0  0  0
  147.2330  161.0020  133.7300 O   0  0  0  0  0  0  0  0  0  0  0  0
  145.2750  159.8560  132.9850 C   0  0  0  0  0  0  0  0  0  0  0  0
  144.4640  160.5150  134.1080 C   0  0  0  0  0  0  0  0  0  0  0  0
  142.7490  159.8970  134.1730 P   0  0  0  0  0  0  0  0  0  0  0  0
  142.6020  158.7480  133.2040 O   0  0  0  0  0  0  0  0  0  0  0  0
  142.3770  159.3560  135.7290 O   0  0  0  0  0  0  0  0  0  0  0  0
  141.6760  161.1310  133.7370 O   0  0  0  0  0  0  0  0  0  0  0  0
  148.0640  161.8360  131.9170 H   0  0  0  0  0  0  0  0  0  0  0  0
  150.3521  157.4637  131.5221 H   0  0  0  0  0  0  0  0  0  0  0  0
  149.5705  154.9248  132.5772 H   0  0  0  0  0  0  0  0  0  0  0  0
  147.7796  153.7826  133.9264 H   0  0  0  0  0  0  0  0  0  0  0  0
  145.6724  157.5772  134.3406 H   0  0  0  0  0  0  0  0  0  0  0  0
  145.0321  160.3541  132.0348 H   0  0  0  0  0  0  0  0  0  0  0  0
  145.0084  158.7891  132.9604 H   0  0  0  0  0  0  0  0  0  0  0  0
  144.9537  160.3030  135.0699 H   0  0  0  0  0  0  0  0  0  0  0  0
  144.4262  161.5960  133.9078 H   0  0  0  0  0  0  0  0  0  0  0  0
  1  2  1  0
  2  3  2  0
  2  4  1  0
  4  5  2  0
  5  6  1  0
  6  7  2  0
  7  8  1  0
  8  9  2  0
  9 10  1  0
 10 11  1  0
 10 12  1  0
 10 13  1  0
  9 14  1  0
 14 15  2  0
 15 16  1  0
 16 17  1  0
 17 18  2  0
 17 19  1  0
 19 20  1  0
 20 21  1  0
 21 22  2  0
 21 23  1  0
 21 24  1  0
 16  4  1  0
 15  6  1  0
  1 25  1  0
  5 26  1  0
  7 27  1  0
  8 28  1  0
 14 29  1  0
 19 30  1  0
 19 31  1  0
 20 32  1  0
 20 33  1  0
M  CHG  3   1  -1  23  -1  24  -1
M  END
>  <UniqueID>  (4) 
4

>  <SMILES>  (4) 
[NH-]C(=O)c1cc2ccc(C(F)(F)F)cc2n1C(=O)CCP(=O)([O-])[O-]

>  <Energy>  (4) 
67.68355402945473

>  <Genealogy>  (4) 
[NH-]C(=O)c1cc2ccc(C(F)(F)F)cc2n1C(=O)CCP(=O)([O-])[O-] (protonated)
[NH-]C(=O)c1cc2ccc(C(F)(F)F)cc2n1C(=O)CCP(=O)([O-])[O-] (3D coordinates assigned)
[NH-]C(=O)c1cc2ccc(C(F)(F)F)cc2n1C(=O)CCP(=O)([O-])[O-] (optimized conformer: 67.68355402945473 kcal/mol)

>  <smiles>  (4) 
NC(=O)c1cc2ccc(C(F)(F)F)cc2n1C(=O)CCP(=O)(O)O

>  <score_type>  (4) 
oracle

>  <origin>  (4) 
adg

>  <m_score__min__energy>  (4) 
-6.0599999999999996

>  <m_primary>  (4) 
energy

$$$$
4:0
     RDKit          3D

 49 50  0  0  0  0  0  0  0  0999 V2000
  139.8160  159.3490  131.4460 C   0  0  0  0  0  0  0  0  0  0  0  0
  140.8910  159.1860  132.4400 N   0  0  0  0  0  0  0  0  0  0  0  0
  140.6660  157.9490  133.2050 C   0  0  0  0  0  0  0  0  0  0  0  0
  140.9510  160.3460  133.3590 C   0  0  0  0  0  0  0  0  0  0  0  0
  141.6970  160.0070  134.6580 C   0  0  0  0  0  0  0  0  0  0  0  0
  143.2210  160.1000  134.4900 C   0  0  0  0  0  0  0  0  0  0  0  0
  143.6500  159.4550  133.2470 N   0  0  0  0  0  0  0  0  0  0  0  0
  144.9020  158.7550  133.1140 C   0  0  0  0  0  0  0  0  0  0  0  0
  146.1050  159.4360  132.7760 C   0  0  0  0  0  0  0  0  0  0  0  0
  147.3180  158.7340  132.6580 C   0  0  0  0  0  0  0  0  0  0  0  0
  147.3020  157.3620  132.8760 C   0  0  0  0  0  0  0  0  0  0  0  0
  148.3280  156.4430  132.8330 C   0  0  0  0  0  0  0  0  0  0  0  0
  147.7370  155.2130  133.1260 C   0  0  0  0  0  0  0  0  0  0  0  0
  148.4490  153.9160  133.1010 C   0  0  0  0  0  0  0  0  0  0  0  0
  147.9180  152.7740  133.7770 N   0  0  0  0  0  0  0  0  0  0  0  0
  149.5470  153.8110  132.4920 O   0  0  0  0  0  0  0  0  0  0  0  0
  146.4020  155.3730  133.3450 N   0  0  0  0  0  0  0  0  0  0  0  0
  145.4420  154.3690  133.7110 C   0  0  0  0  0  0  0  0  0  0  0  0
  145.2740  153.3650  132.9670 O   0  0  0  0  0  0  0  0  0  0  0  0
  144.5770  154.5450  134.9250 C   0  0  0  0  0  0  0  0  0  0  0  0
  145.1630  153.7770  136.1120 C   0  0  0  0  0  0  0  0  0  0  0  0
  146.6410  153.9910  136.1960 C   0  0  0  0  0  0  0  0  0  0  0  0
  147.4140  153.0150  136.3890 O   0  0  0  0  0  0  0  0  0  0  0  0
  147.1720  155.2640  136.0200 O   0  0  0  0  0  0  0  0  0  0  0  0
  146.1520  156.6890  133.1870 C   0  0  0  0  0  0  0  0  0  0  0  0
  144.9330  157.3590  133.3260 C   0  0  0  0  0  0  0  0  0  0  0  0
  138.8566  159.4945  131.9640 H   0  0  0  0  0  0  0  0  0  0  0  0
  140.0290  160.2251  130.8159 H   0  0  0  0  0  0  0  0  0  0  0  0
  139.7597  158.4491  130.8159 H   0  0  0  0  0  0  0  0  0  0  0  0
  140.7064  158.1712  134.2816 H   0  0  0  0  0  0  0  0  0  0  0  0
  139.6781  157.5364  132.9526 H   0  0  0  0  0  0  0  0  0  0  0  0
  141.4454  157.2149  132.9526 H   0  0  0  0  0  0  0  0  0  0  0  0
  141.4721  161.1731  132.8547 H   0  0  0  0  0  0  0  0  0  0  0  0
  139.9206  160.6285  133.6204 H   0  0  0  0  0  0  0  0  0  0  0  0
  141.3829  160.7120  135.4418 H   0  0  0  0  0  0  0  0  0  0  0  0
  141.4488  158.9706  134.9307 H   0  0  0  0  0  0  0  0  0  0  0  0
  143.5168  161.1592  134.4668 H   0  0  0  0  0  0  0  0  0  0  0  0
  143.6999  159.5858  135.3363 H   0  0  0  0  0  0  0  0  0  0  0  0
  143.0320  159.5180  132.4070 H   0  0  0  0  0  0  0  0  0  0  0  0
  146.0860  160.5225  132.6053 H   0  0  0  0  0  0  0  0  0  0  0  0
  148.2516  159.2557  132.4008 H   0  0  0  0  0  0  0  0  0  0  0  0
  149.3883  156.6376  132.6141 H   0  0  0  0  0  0  0  0  0  0  0  0
  148.4480  151.8740  133.7810 H   0  0  0  0  0  0  0  0  0  0  0  0
  146.9780  152.7970  134.2300 H   0  0  0  0  0  0  0  0  0  0  0  0
  144.5195  155.6141  135.1775 H   0  0  0  0  0  0  0  0  0  0  0  0
  143.5721  154.1541  134.7075 H   0  0  0  0  0  0  0  0  0  0  0  0
  144.6924  154.1320  137.0407 H   0  0  0  0  0  0  0  0  0  0  0  0
  144.9662  152.7036  135.9735 H   0  0  0  0  0  0  0  0  0  0  0  0
  144.0179  156.8109  133.5946 H   0  0  0  0  0  0  0  0  0  0  0  0
  1  2  1  0
  2  3  1  0
  2  4  1  0
  4  5  1  0
  5  6  1  0
  6  7  1  0
  7  8  1  0
  8  9  2  0
  9 10  1  0
 10 11  2  0
 11 12  1  0
 12 13  2  0
 13 14  1  0
 14 15  1  0
 14 16  2  0
 13 17  1  0
 17 18  1  0
 18 19  2  0
 18 20  1  0
 20 21  1  0
 21 22  1  0
 22 23  2  0
 22 24  1  0
 17 25  1  0
 25 26  2  0
 26  8  1  0
 25 11  1  0
  1 27  1  0
  1 28  1  0
  1 29  1  0
  3 30  1  0
  3 31  1  0
  3 32  1  0
  4 33  1  0
  4 34  1  0
  5 35  1  0
  5 36  1  0
  6 37  1  0
  6 38  1  0
  7 39  1  0
  9 40  1  0
 10 41  1  0
 12 42  1  0
 15 43  1  0
 15 44  1  0
 20 45  1  0
 20 46  1  0
 21 47  1  0
 21 48  1  0
 26 49  1  0
M  CHG  1  24  -1
M  END
>  <UniqueID>  (5) 
5

>  <SMILES>  (5) 
CN(C)CCCNc1ccc2cc(C(N)=O)n(C(=O)CCC(=O)[O-])c2c1

>  <Energy>  (5) 
80.2413592724134

>  <Genealogy>  (5) 
CN(C)CCCNc1ccc2cc(C(N)=O)n(C(=O)CCC(=O)[O-])c2c1 (protonated)
CN(C)CCCNc1ccc2cc(C(N)=O)n(C(=O)CCC(=O)[O-])c2c1 (3D coordinates assigned)
CN(C)CCCNc1ccc2cc(C(N)=O)n(C(=O)CCC(=O)[O-])c2c1 (optimized conformer: 80.2413592724134 kcal/mol)

>  <smiles>  (5) 
CN(C)CCCNc1ccc2cc(C(N)=O)n(C(=O)CCC(=O)O)c2c1

>  <score_type>  (5) 
oracle

>  <origin>  (5) 
adg

>  <m_score__min__energy>  (5) 
-7.9699999999999998

>  <m_primary>  (5) 
energy

$$$$
5:0
     RDKit          3D

 43 44  0  0  0  0  0  0  0  0999 V2000
  139.8530  159.3750  130.7820 C   0  0  0  0  0  0  0  0  0  0  0  0
  138.8630  158.8860  131.5390 C   0  0  0  0  0  0  0  0  0  0  0  0
  137.4410  159.3000  131.2700 C   0  0  0  0  0  0  0  0  0  0  0  0
  139.1490  157.9910  132.6810 C   0  0  0  0  0  0  0  0  0  0  0  0
  138.3930  157.9850  133.6930 O   0  0  0  0  0  0  0  0  0  0  0  0
  140.2620  157.1450  132.6330 O   0  0  0  0  0  0  0  0  0  0  0  0
  140.7830  156.4900  133.7850 C   0  0  0  0  0  0  0  0  0  0  0  0
  142.0170  157.0890  134.1680 O   0  0  0  0  0  0  0  0  0  0  0  0
  142.9520  157.5550  133.2370 C   0  0  0  0  0  0  0  0  0  0  0  0
  143.2290  156.8730  132.2130 O   0  0  0  0  0  0  0  0  0  0  0  0
  143.5870  158.8240  133.4420 N   0  0  0  0  0  0  0  0  0  0  0  0
  143.0110  159.9970  133.8300 C   0  0  0  0  0  0  0  0  0  0  0  0
  141.5610  160.2420  133.9850 C   0  0  0  0  0  0  0  0  0  0  0  0
  140.7540  159.3920  134.7950 N   0  0  0  0  0  0  0  0  0  0  0  0
  141.0210  161.1950  133.3620 O   0  0  0  0  0  0  0  0  0  0  0  0
  143.9810  160.9810  134.0040 C   0  0  0  0  0  0  0  0  0  0  0  0
  145.1780  160.3700  133.7050 C   0  0  0  0  0  0  0  0  0  0  0  0
  146.4710  160.8740  133.7340 C   0  0  0  0  0  0  0  0  0  0  0  0
  147.5270  160.0040  133.4200 C   0  0  0  0  0  0  0  0  0  0  0  0
  147.2870  158.6370  133.0890 C   0  0  0  0  0  0  0  0  0  0  0  0
  148.3930  157.7370  132.7900 N   0  0  0  0  0  0  0  0  0  0  0  0
  148.3250  156.3170  133.1650 C   0  0  0  0  0  0  0  0  0  0  0  0
  149.5990  158.2290  132.1110 C   0  0  0  0  0  0  0  0  0  0  0  0
  145.9440  158.1740  133.0700 C   0  0  0  0  0  0  0  0  0  0  0  0
  144.9130  159.0700  133.3700 C   0  0  0  0  0  0  0  0  0  0  0  0
  140.8933  159.0746  130.9758 H   0  0  0  0  0  0  0  0  0  0  0  0
  139.6261  160.0772  129.9662 H   0  0  0  0  0  0  0  0  0  0  0  0
  136.9167  159.4527  132.2249 H   0  0  0  0  0  0  0  0  0  0  0  0
  137.4346  160.2373  130.6943 H   0  0  0  0  0  0  0  0  0  0  0  0
  136.9325  158.5126  130.6943 H   0  0  0  0  0  0  0  0  0  0  0  0
  140.0627  156.5786  134.6117 H   0  0  0  0  0  0  0  0  0  0  0  0
  140.9533  155.4286  133.5515 H   0  0  0  0  0  0  0  0  0  0  0  0
  140.3730  158.4960  134.4210 H   0  0  0  0  0  0  0  0  0  0  0  0
  143.8242  162.0246  134.3144 H   0  0  0  0  0  0  0  0  0  0  0  0
  146.6627  161.9251  133.9955 H   0  0  0  0  0  0  0  0  0  0  0  0
  148.5594  160.3835  133.4293 H   0  0  0  0  0  0  0  0  0  0  0  0
  148.3207  156.2271  134.2613 H   0  0  0  0  0  0  0  0  0  0  0  0
  147.4046  155.8737  132.7571 H   0  0  0  0  0  0  0  0  0  0  0  0
  149.1988  155.7878  132.7571 H   0  0  0  0  0  0  0  0  0  0  0  0
  150.3439  158.5329  132.8611 H   0  0  0  0  0  0  0  0  0  0  0  0
  150.0174  157.4297  131.4817 H   0  0  0  0  0  0  0  0  0  0  0  0
  149.3388  159.0929  131.4817 H   0  0  0  0  0  0  0  0  0  0  0  0
  145.7184  157.1261  132.8230 H   0  0  0  0  0  0  0  0  0  0  0  0
  1  2  2  0
  2  3  1  0
  2  4  1  0
  4  5  2  0
  4  6  1  0
  6  7  1  0
  7  8  1  0
  8  9  1  0
  9 10  2  0
  9 11  1  0
 11 12  1  0
 12 13  1  0
 13 14  1  0
 13 15  2  0
 12 16  2  0
 16 17  1  0
 17 18  2  0
 18 19  1  0
 19 20  2  0
 20 21  1  0
 21 22  1  0
 21 23  1  0
 20 24  1  0
 24 25  2  0
 25 11  1  0
 25 17  1  0
  1 26  1  0
  1 27  1  0
  3 28  1  0
  3 29  1  0
  3 30  1  0
  7 31  1  0
  7 32  1  0
 14 33  1  0
 16 34  1  0
 18 35  1  0
 19 36  1  0
 22 37  1  0
 22 38  1  0
 22 39  1  0
 23 40  1  0
 23 41  1  0
 23 42  1  0
 24 43  1  0
M  CHG  1  14  -1
M  END
>  <UniqueID>  (6) 
6

>  <SMILES>  (6) 
C=C(C)C(=O)OCOC(=O)n1c(C([NH-])=O)cc2ccc(N(C)C)cc21

>  <Energy>  (6) 
77.10962878034061

>  <Genealogy>  (6) 
C=C(C)C(=O)OCOC(=O)n1c(C([NH-])=O)cc2ccc(N(C)C)cc21 (protonated)
C=C(C)C(=O)OCOC(=O)n1c(C([NH-])=O)cc2ccc(N(C)C)cc21 (3D coordinates assigned)
C=C(C)C(=O)OCOC(=O)n1c(C([NH-])=O)cc2ccc(N(C)C)cc21 (optimized conformer: 77.10962878034061 kcal/mol)

>  <smiles>  (6) 
C=C(C)C(=O)OCOC(=O)n1c(C(N)=O)cc2ccc(N(C)C)cc21

>  <score_type>  (6) 
oracle

>  <origin>  (6) 
adg

>  <m_score__min__energy>  (6) 
-6.6200000000000001

>  <m_primary>  (6) 
energy

$$$$
6:0
     RDKit          3D

 39 41  0  0  0  0  0  0  0  0999 V2000
  147.7680  152.9500  133.7430 N   0  0  0  0  0  0  0  0  0  0  0  0
  148.4580  153.9360  132.9740 C   0  0  0  0  0  0  0  0  0  0  0  0
  149.3920  153.5800  132.2080 O   0  0  0  0  0  0  0  0  0  0  0  0
  148.0440  155.3510  133.0050 C   0  0  0  0  0  0  0  0  0  0  0  0
  148.8740  156.3970  132.6120 C   0  0  0  0  0  0  0  0  0  0  0  0
  148.0980  157.5300  132.7040 C   0  0  0  0  0  0  0  0  0  0  0  0
  148.4150  158.8560  132.4330 C   0  0  0  0  0  0  0  0  0  0  0  0
  147.4190  159.8260  132.6330 C   0  0  0  0  0  0  0  0  0  0  0  0
  146.1310  159.4610  133.0980 C   0  0  0  0  0  0  0  0  0  0  0  0
  145.1380  160.4890  133.2820 N   0  0  0  0  0  0  0  0  0  0  0  0
  144.1130  160.4720  134.3270 C   0  0  0  0  0  0  0  0  0  0  0  0
  142.8530  159.8130  133.8300 C   0  0  0  0  0  0  0  0  0  0  0  0
  142.7800  158.4150  133.7350 C   0  0  0  0  0  0  0  0  0  0  0  0
  141.6140  157.7970  133.2760 C   0  0  0  0  0  0  0  0  0  0  0  0
  140.5010  158.5680  132.8970 C   0  0  0  0  0  0  0  0  0  0  0  0
  139.2620  157.9180  132.4120 C   0  0  0  0  0  0  0  0  0  0  0  0
  139.1040  156.6740  132.5270 O   0  0  0  0  0  0  0  0  0  0  0  0
  138.2540  158.6740  131.8230 O   0  0  0  0  0  0  0  0  0  0  0  0
  140.5800  159.9680  132.9810 C   0  0  0  0  0  0  0  0  0  0  0  0
  141.7480  160.5850  133.4400 C   0  0  0  0  0  0  0  0  0  0  0  0
  145.8510  158.1000  133.3720 C   0  0  0  0  0  0  0  0  0  0  0  0
  146.8570  157.1540  133.1500 C   0  0  0  0  0  0  0  0  0  0  0  0
  146.8100  155.8180  133.3480 N   0  0  0  0  0  0  0  0  0  0  0  0
  145.7060  155.0900  133.9130 C   0  0  0  0  0  0  0  0  0  0  0  0
  145.7760  154.6060  135.0730 O   0  0  0  0  0  0  0  0  0  0  0  0
  146.8960  153.1890  134.2640 H   0  0  0  0  0  0  0  0  0  0  0  0
  148.0890  151.9560  133.7320 H   0  0  0  0  0  0  0  0  0  0  0  0
  149.9255  156.3320  132.2955 H   0  0  0  0  0  0  0  0  0  0  0  0
  149.4156  159.1372  132.0728 H   0  0  0  0  0  0  0  0  0  0  0  0
  147.6417  160.8831  132.4259 H   0  0  0  0  0  0  0  0  0  0  0  0
  145.1100  161.2820  132.6020 H   0  0  0  0  0  0  0  0  0  0  0  0
  144.4930  159.9145  135.1958 H   0  0  0  0  0  0  0  0  0  0  0  0
  143.8804  161.5093  134.6095 H   0  0  0  0  0  0  0  0  0  0  0  0
  143.6463  157.8016  134.0237 H   0  0  0  0  0  0  0  0  0  0  0  0
  141.5665  156.7000  133.2107 H   0  0  0  0  0  0  0  0  0  0  0  0
  139.7176  160.5829  132.6838 H   0  0  0  0  0  0  0  0  0  0  0  0
  141.8009  161.6823  133.4957 H   0  0  0  0  0  0  0  0  0  0  0  0
  144.8647  157.7939  133.7508 H   0  0  0  0  0  0  0  0  0  0  0  0
  144.7874  154.9541  133.3233 H   0  0  0  0  0  0  0  0  0  0  0  0
  1  2  1  0
  2  3  2  0
  2  4  1  0
  4  5  2  0
  5  6  1  0
  6  7  2  0
  7  8  1  0
  8  9  2  0
  9 10  1  0
 10 11  1  0
 11 12  1  0
 12 13  2  0
 13 14  1  0
 14 15  2  0
 15 16  1  0
 16 17  2  0
 16 18  1  0
 15 19  1  0
 19 20  2  0
  9 21  1  0
 21 22  2  0
 22 23  1  0
 23 24  1  0
 24 25  2  0
 23  4  1  0
 22  6  1  0
 20 12  1  0
  1 26  1  0
  1 27  1  0
  5 28  1  0
  7 29  1  0
  8 30  1  0
 10 31  1  0
 11 32  1  0
 11 33  1  0
 13 34  1  0
 14 35  1  0
 19 36  1  0
 20 37  1  0
 21 38  1  0
 24 39  1  0
M  CHG  1  18  -1
M  END
>  <UniqueID>  (7) 
7

>  <SMILES>  (7) 
NC(=O)c1cc2ccc(NCc3ccc(C(=O)[O-])cc3)cc2n1C=O

>  <Energy>  (7) 
79.81400586013356

>  <Genealogy>  (7) 
NC(=O)c1cc2ccc(NCc3ccc(C(=O)[O-])cc3)cc2n1C=O (protonated)
NC(=O)c1cc2ccc(NCc3ccc(C(=O)[O-])cc3)cc2n1C=O (3D coordinates assigned)
NC(=O)c1cc2ccc(NCc3ccc(C(=O)[O-])cc3)cc2n1C=O (optimized conformer: 79.81400586013356 kcal/mol)

>  <smiles>  (7) 
NC(=O)c1cc2ccc(NCc3ccc(C(=O)O)cc3)cc2n1C=O

>  <score_type>  (7) 
oracle

>  <origin>  (7) 
adg

>  <m_score__min__energy>  (7) 
-8.5700000000000003

>  <m_primary>  (7) 
energy

$$$$
7:0
     RDKit          3D

 32 33  0  0  0  0  0  0  0  0999 V2000
  143.3480  161.5010  133.7300 N   0  0  0  0  0  0  0  0  0  0  0  0
  144.7510  161.5650  133.9720 C   0  0  0  0  0  0  0  0  0  0  0  0
  145.2480  162.6210  134.4440 O   0  0  0  0  0  0  0  0  0  0  0  0
  145.6100  160.4120  133.6300 C   0  0  0  0  0  0  0  0  0  0  0  0
  146.9850  160.5120  133.4250 C   0  0  0  0  0  0  0  0  0  0  0  0
  147.4200  159.2220  133.2270 C   0  0  0  0  0  0  0  0  0  0  0  0
  148.6990  158.7380  132.9660 C   0  0  0  0  0  0  0  0  0  0  0  0
  148.8530  157.3540  132.7750 C   0  0  0  0  0  0  0  0  0  0  0  0
  147.7360  156.4870  132.8540 C   0  0  0  0  0  0  0  0  0  0  0  0
  147.9060  155.0180  132.5990 C   0  0  0  0  0  0  0  0  0  0  0  0
  149.2510  154.7010  132.6070 F   0  0  0  0  0  0  0  0  0  0  0  0
  146.4510  157.0150  133.1060 C   0  0  0  0  0  0  0  0  0  0  0  0
  146.3290  158.3940  133.3090 C   0  0  0  0  0  0  0  0  0  0  0  0
  145.2090  159.1100  133.5500 N   0  0  0  0  0  0  0  0  0  0  0  0
  143.8740  158.5910  133.6490 C   0  0  0  0  0  0  0  0  0  0  0  0
  143.3620  157.9770  132.6720 O   0  0  0  0  0  0  0  0  0  0  0  0
  143.1540  158.7520  134.8370 O   0  0  0  0  0  0  0  0  0  0  0  0
  141.7290  158.7460  134.8900 C   0  0  0  0  0  0  0  0  0  0  0  0
  141.1790  159.2260  133.6830 O   0  0  0  0  0  0  0  0  0  0  0  0
  139.6880  158.4450  133.3950 P   0  0  0  0  0  0  0  0  0  0  0  0
  139.9150  157.1190  132.7020 O   0  0  0  0  0  0  0  0  0  0  0  0
  138.9250  158.1650  134.8770 O   0  0  0  0  0  0  0  0  0  0  0  0
  138.6860  159.4190  132.4400 O   0  0  0  0  0  0  0  0  0  0  0  0
  142.8440  160.5870  133.7320 H   0  0  0  0  0  0  0  0  0  0  0  0
  147.5935  161.4284  133.4221 H   0  0  0  0  0  0  0  0  0  0  0  0
  149.5622  159.4176  132.9110 H   0  0  0  0  0  0  0  0  0  0  0  0
  149.8499  156.9407  132.5623 H   0  0  0  0  0  0  0  0  0  0  0  0
  147.3903  154.4474  133.3854 H   0  0  0  0  0  0  0  0  0  0  0  0
  147.4756  154.7641  131.6191 H   0  0  0  0  0  0  0  0  0  0  0  0
  145.5686  156.3592  133.1418 H   0  0  0  0  0  0  0  0  0  0  0  0
  141.3792  157.7173  135.0613 H   0  0  0  0  0  0  0  0  0  0  0  0
  141.4048  159.4034  135.7102 H   0  0  0  0  0  0  0  0  0  0  0  0
  1  2  1  0
  2  3  2  0
  2  4  1  0
  4  5  2  0
  5  6  1  0
  6  7  2  0
  7  8  1  0
  8  9  2  0
  9 10  1  0
 10 11  1  0
  9 12  1  0
 12 13  2  0
 13 14  1  0
 14 15  1  0
 15 16  2  0
 15 17  1  0
 17 18  1  0
 18 19  1  0
 19 20  1  0
 20 21  2  0
 20 22  1  0
 20 23  1  0
 14  4  1  0
 13  6  1  0
  1 24  1  0
  5 25  1  0
  7 26  1  0
  8 27  1  0
 10 28  1  0
 10 29  1  0
 12 30  1  0
 18 31  1  0
 18 32  1  0
M  CHG  3   1  -1  22  -1  23  -1
M  END
>  <UniqueID>  (8) 
8

>  <SMILES>  (8) 
[NH-]C(=O)c1cc2ccc(CF)cc2n1C(=O)OCOP(=O)([O-])[O-]

>  <Energy>  (8) 
68.45625120353361

>  <Genealogy>  (8) 
[NH-]C(=O)c1cc2ccc(CF)cc2n1C(=O)OCOP(=O)([O-])[O-] (protonated)
[NH-]C(=O)c1cc2ccc(CF)cc2n1C(=O)OCOP(=O)([O-])[O-] (3D coordinates assigned)
[NH-]C(=O)c1cc2ccc(CF)cc2n1C(=O)OCOP(=O)([O-])[O-] (optimized conformer: 68.45625120353361 kcal/mol)

>  <smiles>  (8) 
NC(=O)c1cc2ccc(CF)cc2n1C(=O)OCOP(=O)(O)O

>  <score_type>  (8) 
oracle

>  <origin>  (8) 
adg

>  <m_score__min__energy>  (8) 
-6.2300000000000004

>  <m_primary>  (8) 
energy

$$$$
8:0
     RDKit          3D

 39 40  0  0  0  0  0  0  0  0999 V2000
  149.4700  153.3680  132.2060 C   0  0  0  0  0  0  0  0  0  0  0  0
  148.1810  153.0420  132.9550 C   0  0  0  0  0  0  0  0  0  0  0  0
  147.7920  154.1560  133.8330 N   0  0  0  0  0  0  0  0  0  0  0  0
  148.0260  154.0170  135.2780 C   0  0  0  0  0  0  0  0  0  0  0  0
  146.7410  153.7800  136.0100 C   0  0  0  0  0  0  0  0  0  0  0  0
  146.7120  152.9870  136.9880 O   0  0  0  0  0  0  0  0  0  0  0  0
  145.5640  154.3810  135.5820 O   0  0  0  0  0  0  0  0  0  0  0  0
  147.3210  155.3910  133.2400 C   0  0  0  0  0  0  0  0  0  0  0  0
  146.6600  155.3440  132.1670 O   0  0  0  0  0  0  0  0  0  0  0  0
  147.5750  156.7240  133.8370 C   0  0  0  0  0  0  0  0  0  0  0  0
  148.4770  156.8910  134.6990 O   0  0  0  0  0  0  0  0  0  0  0  0
  146.7690  157.8480  133.4540 N   0  0  0  0  0  0  0  0  0  0  0  0
  147.1810  159.0030  132.8630 C   0  0  0  0  0  0  0  0  0  0  0  0
  148.5550  159.2950  132.3990 C   0  0  0  0  0  0  0  0  0  0  0  0
  149.5160  158.2550  132.2450 N   0  0  0  0  0  0  0  0  0  0  0  0
  148.8800  160.4790  132.1170 O   0  0  0  0  0  0  0  0  0  0  0  0
  146.1080  159.8820  132.7140 C   0  0  0  0  0  0  0  0  0  0  0  0
  145.0210  159.2230  133.2430 C   0  0  0  0  0  0  0  0  0  0  0  0
  143.6960  159.6310  133.3680 C   0  0  0  0  0  0  0  0  0  0  0  0
  142.7900  158.7490  133.9800 C   0  0  0  0  0  0  0  0  0  0  0  0
  143.2250  157.4920  134.4700 C   0  0  0  0  0  0  0  0  0  0  0  0
  142.2420  156.5470  135.0930 C   0  0  0  0  0  0  0  0  0  0  0  0
  144.5740  157.1060  134.3140 C   0  0  0  0  0  0  0  0  0  0  0  0
  145.4480  157.9990  133.6870 C   0  0  0  0  0  0  0  0  0  0  0  0
  150.2732  153.5711  132.9296 H   0  0  0  0  0  0  0  0  0  0  0  0
  149.7532  152.5132  131.5742 H   0  0  0  0  0  0  0  0  0  0  0  0
  149.3128  154.2547  131.5742 H   0  0  0  0  0  0  0  0  0  0  0  0
  147.3771  152.8589  132.2269 H   0  0  0  0  0  0  0  0  0  0  0  0
  148.3485  152.1475  133.5729 H   0  0  0  0  0  0  0  0  0  0  0  0
  148.7015  153.1666  135.4527 H   0  0  0  0  0  0  0  0  0  0  0  0
  148.4750  154.9492  135.6514 H   0  0  0  0  0  0  0  0  0  0  0  0
  149.6520  157.5340  132.9870 H   0  0  0  0  0  0  0  0  0  0  0  0
  146.1265  160.8876  132.2686 H   0  0  0  0  0  0  0  0  0  0  0  0
  143.3684  160.6140  132.9988 H   0  0  0  0  0  0  0  0  0  0  0  0
  141.7329  159.0365  134.0799 H   0  0  0  0  0  0  0  0  0  0  0  0
  142.3123  156.6146  136.1887 H   0  0  0  0  0  0  0  0  0  0  0  0
  141.2238  156.8140  134.7737 H   0  0  0  0  0  0  0  0  0  0  0  0
  142.4687  155.5190  134.7737 H   0  0  0  0  0  0  0  0  0  0  0  0
  144.9277  156.1293  134.6759 H   0  0  0  0  0  0  0  0  0  0  0  0
  1  2  1  0
  2  3  1  0
  3  4  1  0
  4  5  1  0
  5  6  2  0
  5  7  1  0
  3  8  1  0
  8  9  2  0
  8 10  1  0
 10 11  2  0
 10 12  1  0
 12 13  1  0
 13 14  1  0
 14 15  1  0
 14 16  2  0
 13 17  2  0
 17 18  1  0
 18 19  2  0
 19 20  1  0
 20 21  2  0
 21 22  1  0
 21 23  1  0
 23 24  2  0
 24 12  1  0
 24 18  1  0
  1 25  1  0
  1 26  1  0
  1 27  1  0
  2 28  1  0
  2 29  1  0
  4 30  1  0
  4 31  1  0
 15 32  1  0
 17 33  1  0
 19 34  1  0
 20 35  1  0
 22 36  1  0
 22 37  1  0
 22 38  1  0
 23 39  1  0
M  CHG  2   7  -1  15  -1
M  END
>  <UniqueID>  (9) 
9

>  <SMILES>  (9) 
CCN(CC(=O)[O-])C(=O)C(=O)n1c(C([NH-])=O)cc2ccc(C)cc21

>  <Energy>  (9) 
77.17812687382182

>  <Genealogy>  (9) 
CCN(CC(=O)[O-])C(=O)C(=O)n1c(C([NH-])=O)cc2ccc(C)cc21 (protonated)
CCN(CC(=O)[O-])C(=O)C(=O)n1c(C([NH-])=O)cc2ccc(C)cc21 (3D coordinates assigned)
CCN(CC(=O)[O-])C(=O)C(=O)n1c(C([NH-])=O)cc2ccc(C)cc21 (optimized conformer: 77.17812687382182 kcal/mol)

>  <smiles>  (9) 
CCN(CC(=O)O)C(=O)C(=O)n1c(C(N)=O)cc2ccc(C)cc21

>  <score_type>  (9) 
oracle

>  <origin>  (9) 
adg

>  <m_score__min__energy>  (9) 
-6.8799999999999999

>  <m_primary>  (9) 
energy

$$$$
9:0
     RDKit          3D

 39 41  0  0  0  0  0  0  0  0999 V2000
  149.4470  157.3270  132.2310 N   0  0  0  0  0  0  0  0  0  0  0  0
  149.0250  158.6700  132.4520 C   0  0  0  0  0  0  0  0  0  0  0  0
  149.8190  159.6160  132.2020 O   0  0  0  0  0  0  0  0  0  0  0  0
  147.6540  158.9690  132.9160 C   0  0  0  0  0  0  0  0  0  0  0  0
  147.1560  160.2630  133.0530 C   0  0  0  0  0  0  0  0  0  0  0  0
  145.8370  160.1090  133.4140 C   0  0  0  0  0  0  0  0  0  0  0  0
  144.8690  161.0690  133.6930 C   0  0  0  0  0  0  0  0  0  0  0  0
  143.5930  160.6250  134.0730 C   0  0  0  0  0  0  0  0  0  0  0  0
  143.3040  159.2390  134.1760 C   0  0  0  0  0  0  0  0  0  0  0  0
  141.9530  158.7810  134.5910 C   0  0  0  0  0  0  0  0  0  0  0  0
  141.0350  158.3030  133.6360 C   0  0  0  0  0  0  0  0  0  0  0  0
  139.7640  157.8740  134.0300 C   0  0  0  0  0  0  0  0  0  0  0  0
  139.3960  157.9160  135.3770 C   0  0  0  0  0  0  0  0  0  0  0  0
  140.2980  158.3880  136.3330 C   0  0  0  0  0  0  0  0  0  0  0  0
  141.5700  158.8190  135.9450 C   0  0  0  0  0  0  0  0  0  0  0  0
  144.3180  158.2960  133.8820 C   0  0  0  0  0  0  0  0  0  0  0  0
  145.5750  158.7670  133.4870 C   0  0  0  0  0  0  0  0  0  0  0  0
  146.6820  158.0520  133.1870 N   0  0  0  0  0  0  0  0  0  0  0  0
  146.8180  156.6240  133.2490 C   0  0  0  0  0  0  0  0  0  0  0  0
  147.0800  155.9700  132.2020 O   0  0  0  0  0  0  0  0  0  0  0  0
  146.6360  155.9610  134.4670 O   0  0  0  0  0  0  0  0  0  0  0  0
  147.4730  154.8940  134.9020 C   0  0  0  0  0  0  0  0  0  0  0  0
  147.9370  155.1680  136.2020 O   0  0  0  0  0  0  0  0  0  0  0  0
  147.7350  153.7630  137.1470 P   0  0  0  0  0  0  0  0  0  0  0  0
  148.8860  152.8210  136.8790 O   0  0  0  0  0  0  0  0  0  0  0  0
  146.2850  152.9910  136.7420 O   0  0  0  0  0  0  0  0  0  0  0  0
  147.7230  154.1650  138.7900 O   0  0  0  0  0  0  0  0  0  0  0  0
  148.9760  156.7270  131.5170 H   0  0  0  0  0  0  0  0  0  0  0  0
  147.7011  161.2068  132.9043 H   0  0  0  0  0  0  0  0  0  0  0  0
  145.0968  162.1425  133.6180 H   0  0  0  0  0  0  0  0  0  0  0  0
  142.8061  161.3611  134.2941 H   0  0  0  0  0  0  0  0  0  0  0  0
  141.3196  158.2669  132.5741 H   0  0  0  0  0  0  0  0  0  0  0  0
  139.0524  157.5027  133.2779 H   0  0  0  0  0  0  0  0  0  0  0  0
  138.3957  157.5773  135.6846 H   0  0  0  0  0  0  0  0  0  0  0  0
  140.0070  158.4207  137.3933 H   0  0  0  0  0  0  0  0  0  0  0  0
  142.2760  159.1901  136.7025 H   0  0  0  0  0  0  0  0  0  0  0  0
  144.1221  157.2166  133.9623 H   0  0  0  0  0  0  0  0  0  0  0  0
  146.8995  153.9554  134.9066 H   0  0  0  0  0  0  0  0  0  0  0  0
  148.3289  154.7945  134.2183 H   0  0  0  0  0  0  0  0  0  0  0  0
  1  2  1  0
  2  3  2  0
  2  4  1  0
  4  5  2  0
  5  6  1  0
  6  7  2  0
  7  8  1  0
  8  9  2  0
  9 10  1  0
 10 11  2  0
 11 12  1  0
 12 13  2  0
 13 14  1  0
 14 15  2  0
  9 16  1  0
 16 17  2  0
 17 18  1  0
 18 19  1  0
 19 20  2  0
 19 21  1  0
 21 22  1  0
 22 23  1  0
 23 24  1  0
 24 25  2  0
 24 26  1  0
 24 27  1  0
 18  4  1  0
 17  6  1  0
 15 10  1  0
  1 28  1  0
  5 29  1  0
  7 30  1  0
  8 31  1  0
 11 32  1  0
 12 33  1  0
 13 34  1  0
 14 35  1  0
 15 36  1  0
 16 37  1  0
 22 38  1  0
 22 39  1  0
M  CHG  3   1  -1  26  -1  27  -1
M  END
>  <UniqueID>  (10) 
10

>  <SMILES>  (10) 
[NH-]C(=O)c1cc2ccc(-c3ccccc3)cc2n1C(=O)OCOP(=O)([O-])[O-]

>  <Energy>  (10) 
83.29527123499655

>  <Genealogy>  (10) 
[NH-]C(=O)c1cc2ccc(-c3ccccc3)cc2n1C(=O)OCOP(=O)([O-])[O-] (protonated)
[NH-]C(=O)c1cc2ccc(-c3ccccc3)cc2n1C(=O)OCOP(=O)([O-])[O-] (3D coordinates assigned)
[NH-]C(=O)c1cc2ccc(-c3ccccc3)cc2n1C(=O)OCOP(=O)([O-])[O-] (optimized conformer: 83.29527123499655 kcal/mol)

>  <smiles>  (10) 
NC(=O)c1cc2ccc(-c3ccccc3)cc2n1C(=O)OCOP(=O)(O)O

>  <score_type>  (10) 
oracle

>  <origin>  (10) 
adg

>  <m_score__min__energy>  (10) 
-8.5299999999999994

>  <m_primary>  (10) 
energy

$$$$
10:0
     RDKit          3D

 57 60  0  0  0  0  0  0  0  0999 V2000
  149.3350  161.8810  130.3470 C   0  0  0  0  0  0  0  0  0  0  0  0
  148.9660  160.9750  131.0470 C   0  0  0  0  0  0  0  0  0  0  0  0
  148.4910  159.8570  131.8290 C   0  0  0  0  0  0  0  0  0  0  0  0
  149.3520  158.7720  132.0960 C   0  0  0  0  0  0  0  0  0  0  0  0
  148.8810  157.6520  132.7890 C   0  0  0  0  0  0  0  0  0  0  0  0
  147.5410  157.6300  133.1670 C   0  0  0  0  0  0  0  0  0  0  0  0
  146.8190  156.6220  133.7380 C   0  0  0  0  0  0  0  0  0  0  0  0
  145.5200  157.1080  133.8550 C   0  0  0  0  0  0  0  0  0  0  0  0
  144.3950  156.2130  134.2350 C   0  0  0  0  0  0  0  0  0  0  0  0
  143.5550  155.6780  133.2120 N   0  0  0  0  0  0  0  0  0  0  0  0
  144.1140  155.9780  135.4390 O   0  0  0  0  0  0  0  0  0  0  0  0
  145.4400  158.4010  133.4090 N   0  0  0  0  0  0  0  0  0  0  0  0
  144.3330  159.3320  133.5000 C   0  0  0  0  0  0  0  0  0  0  0  0
  144.5440  160.5260  133.8540 O   0  0  0  0  0  0  0  0  0  0  0  0
  143.0170  158.9260  133.2340 O   0  0  0  0  0  0  0  0  0  0  0  0
  142.0640  158.6640  134.2310 C   0  0  0  0  0  0  0  0  0  0  0  0
  141.7980  159.5540  135.0950 O   0  0  0  0  0  0  0  0  0  0  0  0
  141.4700  157.3420  134.3280 N   0  0  2  0  0  0  0  0  0  0  0  0
  140.9310  156.8720  133.0120 C   0  0  0  0  0  0  0  0  0  0  0  0
  139.3880  156.8470  132.9270 C   0  0  0  0  0  0  0  0  0  0  0  0
  138.7540  158.0470  133.6350 C   0  0  0  0  0  0  0  0  0  0  0  0
  139.2380  158.2000  135.0960 C   0  0  0  0  0  0  0  0  0  0  0  0
  140.4450  157.2790  135.4050 C   0  0  2  0  0  0  0  0  0  0  0  0
  141.0330  157.5150  136.7810 C   0  0  0  0  0  0  0  0  0  0  0  0
  140.5550  158.3870  137.5550 O   0  0  0  0  0  0  0  0  0  0  0  0
  142.1070  156.7210  137.1910 O   0  0  0  0  0  0  0  0  0  0  0  0
  141.9310  155.4130  137.7260 C   0  0  0  0  0  0  0  0  0  0  0  0
  141.8430  154.4150  136.6150 C   0  0  0  0  0  0  0  0  0  0  0  0
  141.7720  154.7160  135.3390 O   0  0  0  0  0  0  0  0  0  0  0  0
  141.7450  153.5680  134.6990 C   0  0  0  0  0  0  0  0  0  0  0  0
  141.6930  153.4690  133.4430 O   0  0  0  0  0  0  0  0  0  0  0  0
  141.7950  152.5390  135.5100 O   0  0  0  0  0  0  0  0  0  0  0  0
  141.8580  153.0380  136.7230 C   0  0  0  0  0  0  0  0  0  0  0  0
  141.9340  152.2300  137.9750 C   0  0  0  0  0  0  0  0  0  0  0  0
  146.6950  158.6940  132.9610 C   0  0  0  0  0  0  0  0  0  0  0  0
  147.1540  159.8370  132.2830 C   0  0  0  0  0  0  0  0  0  0  0  0
  149.6724  162.7095  129.7069 H   0  0  0  0  0  0  0  0  0  0  0  0
  150.3982  158.8069  131.7578 H   0  0  0  0  0  0  0  0  0  0  0  0
  149.5501  156.8124  133.0286 H   0  0  0  0  0  0  0  0  0  0  0  0
  147.1874  155.6312  134.0425 H   0  0  0  0  0  0  0  0  0  0  0  0
  142.5920  155.3450  133.4280 H   0  0  0  0  0  0  0  0  0  0  0  0
  142.2410  156.6860  134.5920 H   0  0  0  0  0  0  0  0  0  0  0  0
  141.3081  157.5430  132.2262 H   0  0  0  0  0  0  0  0  0  0  0  0
  141.2695  155.8329  132.8869 H   0  0  0  0  0  0  0  0  0  0  0  0
  139.0906  156.8619  131.8681 H   0  0  0  0  0  0  0  0  0  0  0  0
  139.0354  155.9329  133.4271 H   0  0  0  0  0  0  0  0  0  0  0  0
  139.0137  158.9607  133.0804 H   0  0  0  0  0  0  0  0  0  0  0  0
  137.6666  157.8825  133.6599 H   0  0  0  0  0  0  0  0  0  0  0  0
  139.5363  159.2454  135.2640 H   0  0  0  0  0  0  0  0  0  0  0  0
  138.4105  157.9116  135.7609 H   0  0  0  0  0  0  0  0  0  0  0  0
  140.0580  156.2495  135.4243 H   0  0  0  0  0  0  0  0  0  0  0  0
  142.7863  155.1651  138.3718 H   0  0  0  0  0  0  0  0  0  0  0  0
  141.0009  155.3842  138.3126 H   0  0  0  0  0  0  0  0  0  0  0  0
  141.8712  152.8979  138.8468 H   0  0  0  0  0  0  0  0  0  0  0  0
  141.0992  151.5141  138.0006 H   0  0  0  0  0  0  0  0  0  0  0  0
  142.8876  151.6823  138.0006 H   0  0  0  0  0  0  0  0  0  0  0  0
  146.4877  160.6950  132.1104 H   0  0  0  0  0  0  0  0  0  0  0  0
  1  2  3  0
  2  3  1  0
  3  4  2  0
  4  5  1  0
  5  6  2  0
  6  7  1  0
  7  8  2  0
  8  9  1  0
  9 10  1  0
  9 11  2  0
  8 12  1  0
 12 13  1  0
 13 14  2  0
 13 15  1  0
 15 16  1  0
 16 17  2  0
 16 18  1  0
 18 19  1  0
 19 20  1  0
 20 21  1  0
 21 22  1  0
 22 23  1  0
 23 24  1  0
 24 25  2  0
 24 26  1  0
 26 27  1  0
 27 28  1  0
 28 29  1  0
 29 30  1  0
 30 31  2  0
 30 32  1  0
 32 33  1  0
 33 34  1  0
 12 35  1  0
 35 36  2  0
 36  3  1  0
 35  6  1  0
 23 18  1  0
 33 28  2  0
  1 37  1  0
  4 38  1  0
  5 39  1  0
  7 40  1  0
 10 41  1  0
 18 42  1  1
 19 43  1  0
 19 44  1  0
 20 45  1  0
 20 46  1  0
 21 47  1  0
 21 48  1  0
 22 49  1  0
 22 50  1  0
 23 51  1  1
 27 52  1  0
 27 53  1  0
 34 54  1  0
 34 55  1  0
 34 56  1  0
 36 57  1  0
M  CHG  2  10  -1  18   1
M  END
>  <UniqueID>  (11) 
11

>  <SMILES>  (11) 
C#Cc1ccc2cc(C([NH-])=O)n(C(=O)OC(=O)[N@@H+]3CCCC[C@@H]3C(=O)OCc3oc(=O)oc3C)c2c1

>  <Energy>  (11) 
145.63199613844532

>  <Genealogy>  (11) 
C#Cc1ccc2cc(C([NH-])=O)n(C(=O)OC(=O)[NH+]3CCCCC3C(=O)OCc3oc(=O)oc3C)c2c1 (protonated)
C#Cc1ccc2cc(C([NH-])=O)n(C(=O)OC(=O)[N@@H+]3CCCC[C@@H]3C(=O)OCc3oc(=O)oc3C)c2c1 (chirality)
C#Cc1ccc2cc(C([NH-])=O)n(C(=O)OC(=O)[N@@H+]3CCCC[C@@H]3C(=O)OCc3oc(=O)oc3C)c2c1 (3D coordinates assigned)
C#Cc1ccc2cc(C([NH-])=O)n(C(=O)OC(=O)[N@@H+]3CCCC[C@@H]3C(=O)OCc3oc(=O)oc3C)c2c1 (nonaromatic ring conformer: 145.63199613844532 kcal/mol)

>  <smiles>  (11) 
C#Cc1ccc2cc(C(N)=O)n(C(=O)OC(=O)N3CCCCC3C(=O)OCc3oc(=O)oc3C)c2c1

>  <score_type>  (11) 
oracle

>  <origin>  (11) 
adg

>  <m_score__min__energy>  (11) 
-8.8800000000000008

>  <m_primary>  (11) 
energy

$$$$
11:0
     RDKit          3D

 33 34  0  0  0  0  0  0  0  0999 V2000
  149.3820  159.2570  131.7840 C   0  0  0  0  0  0  0  0  0  0  0  0
  149.1350  158.4660  132.9850 N   0  0  0  0  0  0  0  0  0  0  0  0
  147.8440  157.9370  133.3360 C   0  0  0  0  0  0  0  0  0  0  0  0
  146.6430  158.6140  132.9890 C   0  0  0  0  0  0  0  0  0  0  0  0
  145.3910  158.0750  133.3300 C   0  0  0  0  0  0  0  0  0  0  0  0
  145.3660  156.8690  134.0220 C   0  0  0  0  0  0  0  0  0  0  0  0
  144.2960  156.1160  134.4510 C   0  0  0  0  0  0  0  0  0  0  0  0
  144.8540  155.0040  135.0760 C   0  0  0  0  0  0  0  0  0  0  0  0
  144.0510  153.9710  135.7630 C   0  0  0  0  0  0  0  0  0  0  0  0
  144.2380  153.6970  137.1480 N   0  0  0  0  0  0  0  0  0  0  0  0
  143.1520  153.3550  135.1280 O   0  0  0  0  0  0  0  0  0  0  0  0
  146.2160  155.0610  135.0270 N   0  0  0  0  0  0  0  0  0  0  0  0
  147.1570  154.0760  135.4820 C   0  0  0  0  0  0  0  0  0  0  0  0
  148.1610  153.7920  134.7740 O   0  0  0  0  0  0  0  0  0  0  0  0
  146.9690  153.4610  136.7250 O   0  0  0  0  0  0  0  0  0  0  0  0
  148.0210  152.8550  137.4720 C   0  0  0  0  0  0  0  0  0  0  0  0
  148.6480  154.0080  138.7320 P   0  0  0  0  0  0  0  0  0  0  0  0
  149.2290  155.2260  138.0520 O   0  0  0  0  0  0  0  0  0  0  0  0
  147.3770  154.4810  139.7420 O   0  0  0  0  0  0  0  0  0  0  0  0
  149.8500  153.2600  139.6570 O   0  0  0  0  0  0  0  0  0  0  0  0
  146.5130  156.2100  134.3820 C   0  0  0  0  0  0  0  0  0  0  0  0
  147.7730  156.7130  134.0380 C   0  0  0  0  0  0  0  0  0  0  0  0
  149.6985  160.2706  132.0712 H   0  0  0  0  0  0  0  0  0  0  0  0
  150.1742  158.7807  131.1877 H   0  0  0  0  0  0  0  0  0  0  0  0
  148.4595  159.3161  131.1877 H   0  0  0  0  0  0  0  0  0  0  0  0
  149.9470  158.2820  133.6170 H   0  0  0  0  0  0  0  0  0  0  0  0
  146.6945  159.5702  132.4477 H   0  0  0  0  0  0  0  0  0  0  0  0
  144.4587  158.5914  133.0578 H   0  0  0  0  0  0  0  0  0  0  0  0
  143.2272  156.3445  134.3264 H   0  0  0  0  0  0  0  0  0  0  0  0
  145.0780  154.0520  137.6580 H   0  0  0  0  0  0  0  0  0  0  0  0
  147.6396  151.9496  137.9667 H   0  0  0  0  0  0  0  0  0  0  0  0
  148.8411  152.5938  136.7870 H   0  0  0  0  0  0  0  0  0  0  0  0
  148.6887  156.1668  134.3085 H   0  0  0  0  0  0  0  0  0  0  0  0
  1  2  1  0
  2  3  1  0
  3  4  2  0
  4  5  1  0
  5  6  2  0
  6  7  1  0
  7  8  2  0
  8  9  1  0
  9 10  1  0
  9 11  2  0
  8 12  1  0
 12 13  1  0
 13 14  2  0
 13 15  1  0
 15 16  1  0
 16 17  1  0
 17 18  2  0
 17 19  1  0
 17 20  1  0
 12 21  1  0
 21 22  2  0
 22  3  1  0
 21  6  1  0
  1 23  1  0
  1 24  1  0
  1 25  1  0
  2 26  1  0
  4 27  1  0
  5 28  1  0
  7 29  1  0
 10 30  1  0
 16 31  1  0
 16 32  1  0
 22 33  1  0
M  CHG  3  10  -1  19  -1  20  -1
M  END
>  <UniqueID>  (12) 
12

>  <SMILES>  (12) 
CNc1ccc2cc(C([NH-])=O)n(C(=O)OCP(=O)([O-])[O-])c2c1

>  <Energy>  (12) 
66.19555374978964

>  <Genealogy>  (12) 
CNc1ccc2cc(C([NH-])=O)n(C(=O)OCP(=O)([O-])[O-])c2c1 (protonated)
CNc1ccc2cc(C([NH-])=O)n(C(=O)OCP(=O)([O-])[O-])c2c1 (3D coordinates assigned)
CNc1ccc2cc(C([NH-])=O)n(C(=O)OCP(=O)([O-])[O-])c2c1 (optimized conformer: 66.19555374978964 kcal/mol)

>  <smiles>  (12) 
CNc1ccc2cc(C(N)=O)n(C(=O)OCP(=O)(O)O)c2c1

>  <score_type>  (12) 
oracle

>  <origin>  (12) 
adg

>  <m_score__min__energy>  (12) 
-6.4800000000000004

>  <m_primary>  (12) 
energy

$$$$
12:0
     RDKit          3D

 29 30  0  0  0  0  0  0  0  0999 V2000
  144.6660  156.5000  134.1030 N   0  0  0  0  0  0  0  0  0  0  0  0
  146.0510  156.5980  134.4250 C   0  0  0  0  0  0  0  0  0  0  0  0
  146.5050  155.9370  135.3990 O   0  0  0  0  0  0  0  0  0  0  0  0
  146.9660  157.4300  133.6150 C   0  0  0  0  0  0  0  0  0  0  0  0
  148.2430  157.0210  133.2320 C   0  0  0  0  0  0  0  0  0  0  0  0
  148.7350  158.0420  132.4500 C   0  0  0  0  0  0  0  0  0  0  0  0
  149.9680  158.1730  131.8190 C   0  0  0  0  0  0  0  0  0  0  0  0
  150.2170  159.3560  131.1010 C   0  0  0  0  0  0  0  0  0  0  0  0
  149.2410  160.3790  131.0390 C   0  0  0  0  0  0  0  0  0  0  0  0
  149.5130  161.5830  130.3170 N   0  0  0  0  0  0  0  0  0  0  0  0
  148.0030  160.2140  131.6930 C   0  0  0  0  0  0  0  0  0  0  0  0
  147.7740  159.0170  132.3830 C   0  0  0  0  0  0  0  0  0  0  0  0
  146.6810  158.6550  133.0910 N   0  0  0  0  0  0  0  0  0  0  0  0
  145.5060  159.4500  133.3090 C   0  0  0  0  0  0  0  0  0  0  0  0
  144.3700  158.9580  133.0730 O   0  0  0  0  0  0  0  0  0  0  0  0
  145.6350  160.8360  133.8010 C   0  0  0  0  0  0  0  0  0  0  0  0
  144.6180  161.7060  133.7610 C   0  0  0  0  0  0  0  0  0  0  0  0
  144.7550  163.0850  134.2540 C   0  0  0  0  0  0  0  0  0  0  0  0
  145.5230  163.3260  135.2220 O   0  0  0  0  0  0  0  0  0  0  0  0
  144.0490  164.1290  133.6670 O   0  0  0  0  0  0  0  0  0  0  0  0
  144.0020  157.2660  134.3510 H   0  0  0  0  0  0  0  0  0  0  0  0
  148.7499  156.0817  133.4982 H   0  0  0  0  0  0  0  0  0  0  0  0
  150.7241  157.3764  131.8799 H   0  0  0  0  0  0  0  0  0  0  0  0
  151.1785  159.4875  130.5831 H   0  0  0  0  0  0  0  0  0  0  0  0
  148.8040  161.9860  129.6640 H   0  0  0  0  0  0  0  0  0  0  0  0
  150.4220  162.0820  130.4320 H   0  0  0  0  0  0  0  0  0  0  0  0
  147.2379  161.0038  131.6622 H   0  0  0  0  0  0  0  0  0  0  0  0
  146.5997  161.1652  134.2146 H   0  0  0  0  0  0  0  0  0  0  0  0
  143.6522  161.3800  133.3475 H   0  0  0  0  0  0  0  0  0  0  0  0
  1  2  1  0
  2  3  2  0
  2  4  1  0
  4  5  2  0
  5  6  1  0
  6  7  2  0
  7  8  1  0
  8  9  2  0
  9 10  1  0
  9 11  1  0
 11 12  2  0
 12 13  1  0
 13 14  1  0
 14 15  2  0
 14 16  1  0
 16 17  2  3
 17 18  1  0
 18 19  2  0
 18 20  1  0
 13  4  1  0
 12  6  1  0
  1 21  1  0
  5 22  1  0
  7 23  1  0
  8 24  1  0
 10 25  1  0
 10 26  1  0
 11 27  1  0
 16 28  1  0
 17 29  1  0
M  CHG  2   1  -1  20  -1
M  END
>  <UniqueID>  (13) 
13

>  <SMILES>  (13) 
[NH-]C(=O)c1cc2ccc(N)cc2n1C(=O)C=CC(=O)[O-]

>  <Energy>  (13) 
66.58365989075314

>  <Genealogy>  (13) 
[NH-]C(=O)c1cc2ccc(N)cc2n1C(=O)C=CC(=O)[O-] (protonated)
[NH-]C(=O)c1cc2ccc(N)cc2n1C(=O)C=CC(=O)[O-] (3D coordinates assigned)
[NH-]C(=O)c1cc2ccc(N)cc2n1C(=O)C=CC(=O)[O-] (optimized conformer: 66.58365989075314 kcal/mol)

>  <smiles>  (13) 
NC(=O)c1cc2ccc(N)cc2n1C(=O)C=CC(=O)O

>  <score_type>  (13) 
oracle

>  <origin>  (13) 
adg

>  <m_score__min__energy>  (13) 
-6.7400000000000002

>  <m_primary>  (13) 
energy

$$$$
14:0
     RDKit          3D

 36 37  0  0  0  0  0  0  0  0999 V2000
  142.9770  160.8540  134.1060 N   0  0  0  0  0  0  0  0  0  0  0  0
  144.3790  161.1110  134.0600 C   0  0  0  0  0  0  0  0  0  0  0  0
  144.8100  162.2420  134.4090 O   0  0  0  0  0  0  0  0  0  0  0  0
  145.3320  160.0570  133.6510 C   0  0  0  0  0  0  0  0  0  0  0  0
  146.6650  160.3040  133.3280 C   0  0  0  0  0  0  0  0  0  0  0  0
  147.2160  159.0660  133.0830 C   0  0  0  0  0  0  0  0  0  0  0  0
  148.5110  158.7160  132.7130 C   0  0  0  0  0  0  0  0  0  0  0  0
  148.7930  157.3550  132.5080 C   0  0  0  0  0  0  0  0  0  0  0  0
  147.7800  156.3690  132.6710 C   0  0  0  0  0  0  0  0  0  0  0  0
  148.0480  154.9700  132.4580 N   0  0  0  0  0  0  0  0  0  0  0  0
  148.4010  154.0480  133.5380 C   0  0  0  0  0  0  0  0  0  0  0  0
  149.0940  152.8390  132.9940 C   0  0  0  0  0  0  0  0  0  0  0  0
  149.2660  152.7110  131.7520 O   0  0  0  0  0  0  0  0  0  0  0  0
  149.5980  151.8780  133.8600 O   0  0  0  0  0  0  0  0  0  0  0  0
  146.4790  156.7690  133.0480 C   0  0  0  0  0  0  0  0  0  0  0  0
  146.2320  158.1290  133.2560 C   0  0  0  0  0  0  0  0  0  0  0  0
  145.0700  158.7220  133.5990 N   0  0  0  0  0  0  0  0  0  0  0  0
  143.8120  158.0570  133.7880 C   0  0  0  0  0  0  0  0  0  0  0  0
  143.3340  157.9460  134.9490 O   0  0  0  0  0  0  0  0  0  0  0  0
  143.1180  157.3990  132.6380 C   0  0  0  0  0  0  0  0  0  0  0  0
  141.8540  156.9570  133.0690 O   0  0  0  0  0  0  0  0  0  0  0  0
  140.8460  158.3200  133.2500 P   0  0  1  0  0  0  0  0  0  0  0  0
  141.3500  159.4260  132.3510 O   0  0  0  0  0  0  0  0  0  0  0  0
  139.2590  157.9310  132.8090 O   0  0  0  0  0  0  0  0  0  0  0  0
  140.8750  158.8530  134.8560 O   0  0  0  0  0  0  0  0  0  0  0  0
  142.6100  159.8780  134.1020 H   0  0  0  0  0  0  0  0  0  0  0  0
  147.1696  161.2802  133.2792 H   0  0  0  0  0  0  0  0  0  0  0  0
  149.2903  159.4817  132.5849 H   0  0  0  0  0  0  0  0  0  0  0  0
  149.8087  157.0480  132.2181 H   0  0  0  0  0  0  0  0  0  0  0  0
  147.9860  154.6020  131.4800 H   0  0  0  0  0  0  0  0  0  0  0  0
  149.0695  154.5598  134.2459 H   0  0  0  0  0  0  0  0  0  0  0  0
  147.4794  153.7291  134.0469 H   0  0  0  0  0  0  0  0  0  0  0  0
  145.6775  156.0264  133.1752 H   0  0  0  0  0  0  0  0  0  0  0  0
  142.9978  158.1202  131.8161 H   0  0  0  0  0  0  0  0  0  0  0  0
  143.7121  156.5454  132.2796 H   0  0  0  0  0  0  0  0  0  0  0  0
  141.7170  159.3680  134.9370 H   0  0  0  0  0  0  0  0  0  0  0  0
  1  2  1  0
  2  3  2  0
  2  4  1  0
  4  5  2  0
  5  6  1  0
  6  7  2  0
  7  8  1  0
  8  9  2  0
  9 10  1  0
 10 11  1  0
 11 12  1  0
 12 13  2  0
 12 14  1  0
  9 15  1  0
 15 16  2  0
 16 17  1  0
 17 18  1  0
 18 19  2  0
 18 20  1  0
 20 21  1  0
 21 22  1  0
 22 23  2  0
 22 24  1  6
 22 25  1  0
 17  4  1  0
 16  6  1  0
  1 26  1  0
  5 27  1  0
  7 28  1  0
  8 29  1  0
 10 30  1  0
 11 31  1  0
 11 32  1  0
 15 33  1  0
 20 34  1  0
 20 35  1  0
 25 36  1  0
M  CHG  3   1  -1  14  -1  24  -1
M  END
>  <UniqueID>  (14) 
14

>  <SMILES>  (14) 
[NH-]C(=O)c1cc2ccc(NCC(=O)[O-])cc2n1C(=O)CO[P@@](=O)([O-])O

>  <Energy>  (14) 
71.7970996964808

>  <Genealogy>  (14) 
[NH-]C(=O)c1cc2ccc(NCC(=O)[O-])cc2n1C(=O)COP(=O)([O-])O (protonated)
[NH-]C(=O)c1cc2ccc(NCC(=O)[O-])cc2n1C(=O)CO[P@@](=O)([O-])O (chirality)
[NH-]C(=O)c1cc2ccc(NCC(=O)[O-])cc2n1C(=O)CO[P@@](=O)([O-])O (3D coordinates assigned)
[NH-]C(=O)c1cc2ccc(NCC(=O)[O-])cc2n1C(=O)CO[P@@](=O)([O-])O (optimized conformer: 71.7970996964808 kcal/mol)

>  <smiles>  (14) 
NC(=O)c1cc2ccc(NCC(=O)O)cc2n1C(=O)COP(=O)(O)O

>  <score_type>  (14) 
oracle

>  <origin>  (14) 
adg

>  <m_score__min__energy>  (14) 
-6.04

>  <m_primary>  (14) 
energy

$$$$
15:0
     RDKit          3D

 36 37  0  0  0  0  0  0  0  0999 V2000
  139.3200  149.2960  131.6680 C   0  0  0  0  0  0  0  0  0  0  0  0
  140.4700  150.1640  132.0850 C   0  0  0  0  0  0  0  0  0  0  0  0
  141.7590  149.6020  132.2540 C   0  0  0  0  0  0  0  0  0  0  0  0
  142.8380  150.3990  132.6700 C   0  0  0  0  0  0  0  0  0  0  0  0
  142.5940  151.7450  132.9270 C   0  0  0  0  0  0  0  0  0  0  0  0
  143.4570  152.7400  133.3230 C   0  0  0  0  0  0  0  0  0  0  0  0
  142.6730  153.8890  133.4280 C   0  0  0  0  0  0  0  0  0  0  0  0
  143.1770  155.1880  133.9230 C   0  0  0  0  0  0  0  0  0  0  0  0
  143.0350  156.3740  133.1390 N   0  0  0  0  0  0  0  0  0  0  0  0
  143.7690  155.2540  135.0340 O   0  0  0  0  0  0  0  0  0  0  0  0
  141.3780  153.6140  133.1060 N   0  0  0  0  0  0  0  0  0  0  0  0
  140.2850  154.5420  133.0260 C   0  0  0  0  0  0  0  0  0  0  0  0
  139.0980  154.1160  132.9780 O   0  0  0  0  0  0  0  0  0  0  0  0
  140.5460  155.9180  132.9740 O   0  0  0  0  0  0  0  0  0  0  0  0
  139.5280  156.9180  133.0200 C   0  0  0  0  0  0  0  0  0  0  0  0
  140.1440  158.3160  133.0340 C   0  0  0  0  0  0  0  0  0  0  0  0
  141.4780  158.2490  132.5880 O   0  0  0  0  0  0  0  0  0  0  0  0
  142.4410  159.2020  133.6240 P   0  0  0  0  0  0  0  0  0  0  0  0
  143.8170  159.3940  133.0270 O   0  0  0  0  0  0  0  0  0  0  0  0
  141.7090  160.7130  133.8160 O   0  0  0  0  0  0  0  0  0  0  0  0
  142.5800  158.4620  135.1400 O   0  0  0  0  0  0  0  0  0  0  0  0
  141.3440  152.2970  132.8020 C   0  0  0  0  0  0  0  0  0  0  0  0
  140.2550  151.5300  132.3720 C   0  0  0  0  0  0  0  0  0  0  0  0
  138.8088  148.9101  132.5623 H   0  0  0  0  0  0  0  0  0  0  0  0
  138.6129  149.8875  131.0680 H   0  0  0  0  0  0  0  0  0  0  0  0
  139.6950  148.4538  131.0680 H   0  0  0  0  0  0  0  0  0  0  0  0
  141.9165  148.5312  132.0576 H   0  0  0  0  0  0  0  0  0  0  0  0
  143.8450  149.9726  132.7890 H   0  0  0  0  0  0  0  0  0  0  0  0
  144.5361  152.6491  133.5159 H   0  0  0  0  0  0  0  0  0  0  0  0
  143.4280  157.2780  133.4820 H   0  0  0  0  0  0  0  0  0  0  0  0
  142.5060  156.3690  132.2390 H   0  0  0  0  0  0  0  0  0  0  0  0
  138.8823  156.8168  132.1352 H   0  0  0  0  0  0  0  0  0  0  0  0
  138.9399  156.7817  133.9395 H   0  0  0  0  0  0  0  0  0  0  0  0
  139.5683  158.9763  132.3688 H   0  0  0  0  0  0  0  0  0  0  0  0
  140.1211  158.7150  134.0588 H   0  0  0  0  0  0  0  0  0  0  0  0
  139.2573  151.9796  132.2604 H   0  0  0  0  0  0  0  0  0  0  0  0
  1  2  1  0
  2  3  2  0
  3  4  1  0
  4  5  2  0
  5  6  1  0
  6  7  2  0
  7  8  1  0
  8  9  1  0
  8 10  2  0
  7 11  1  0
 11 12  1  0
 12 13  2  0
 12 14  1  0
 14 15  1  0
 15 16  1  0
 16 17  1  0
 17 18  1  0
 18 19  2  0
 18 20  1  0
 18 21  1  0
 11 22  1  0
 22 23  2  0
 23  2  1  0
 22  5  1  0
  1 24  1  0
  1 25  1  0
  1 26  1  0
  3 27  1  0
  4 28  1  0
  6 29  1  0
  9 30  1  0
  9 31  1  0
 15 32  1  0
 15 33  1  0
 16 34  1  0
 16 35  1  0
 23 36  1  0
M  CHG  2  20  -1  21  -1
M  END
>  <UniqueID>  (15) 
15

>  <SMILES>  (15) 
Cc1ccc2cc(C(N)=O)n(C(=O)OCCOP(=O)([O-])[O-])c2c1

>  <Energy>  (15) 
69.31309715357608

>  <Genealogy>  (15) 
Cc1ccc2cc(C(N)=O)n(C(=O)OCCOP(=O)([O-])[O-])c2c1 (protonated)
Cc1ccc2cc(C(N)=O)n(C(=O)OCCOP(=O)([O-])[O-])c2c1 (3D coordinates assigned)
Cc1ccc2cc(C(N)=O)n(C(=O)OCCOP(=O)([O-])[O-])c2c1 (optimized conformer: 69.31309715357608 kcal/mol)

>  <smiles>  (15) 
Cc1ccc2cc(C(N)=O)n(C(=O)OCCOP(=O)(O)O)c2c1

>  <score_type>  (15) 
oracle

>  <origin>  (15) 
adg

>  <m_score__min__energy>  (15) 
-5.9199999999999999

>  <m_primary>  (15) 
energy

$$$$
16:0
     RDKit          3D

 45 47  0  0  0  0  0  0  0  0999 V2000
  144.2300  163.4390  133.6370 N   0  0  0  0  0  0  0  0  0  0  0  0
  145.1270  162.6070  134.3680 C   0  0  0  0  0  0  0  0  0  0  0  0
  145.8160  163.1080  135.2950 O   0  0  0  0  0  0  0  0  0  0  0  0
  145.2680  161.1800  134.0040 C   0  0  0  0  0  0  0  0  0  0  0  0
  146.4930  160.5800  133.7170 C   0  0  0  0  0  0  0  0  0  0  0  0
  146.2090  159.2480  133.5190 C   0  0  0  0  0  0  0  0  0  0  0  0
  147.0530  158.1940  133.1860 C   0  0  0  0  0  0  0  0  0  0  0  0
  146.4830  156.9220  133.0110 C   0  0  0  0  0  0  0  0  0  0  0  0
  145.0880  156.7230  133.1820 C   0  0  0  0  0  0  0  0  0  0  0  0
  144.4790  155.3660  132.9310 C   0  0  0  0  0  0  0  0  0  0  0  0
  144.8720  154.9160  131.6840 F   0  0  0  0  0  0  0  0  0  0  0  0
  144.8940  154.4600  133.8890 F   0  0  0  0  0  0  0  0  0  0  0  0
  143.0970  155.4370  132.9710 F   0  0  0  0  0  0  0  0  0  0  0  0
  144.2600  157.8260  133.4970 C   0  0  0  0  0  0  0  0  0  0  0  0
  144.8590  159.0780  133.6820 C   0  0  0  0  0  0  0  0  0  0  0  0
  144.2650  160.2560  133.9750 N   0  0  0  0  0  0  0  0  0  0  0  0
  142.8600  160.4740  134.1670 C   0  0  0  0  0  0  0  0  0  0  0  0
  142.2720  161.3890  133.5290 O   0  0  0  0  0  0  0  0  0  0  0  0
  142.1430  159.6470  135.0410 O   0  0  0  0  0  0  0  0  0  0  0  0
  141.1560  158.7100  134.6140 C   0  0  0  0  0  0  0  0  0  0  0  0
  140.1650  159.3690  133.6490 C   0  0  0  0  0  0  0  0  0  0  0  0
  140.0390  158.5780  132.4040 N   0  0  0  0  0  0  0  0  0  0  0  0
  138.7690  157.8240  132.3180 C   0  0  0  0  0  0  0  0  0  0  0  0
  137.5740  158.7170  131.9310 C   0  0  0  0  0  0  0  0  0  0  0  0
  137.8460  159.4850  130.7110 N   0  0  0  0  0  0  0  0  0  0  0  0
  139.0700  160.2800  130.8630 C   0  0  0  0  0  0  0  0  0  0  0  0
  140.2700  159.3780  131.1840 C   0  0  0  0  0  0  0  0  0  0  0  0
  143.5420  163.0280  132.9680 H   0  0  0  0  0  0  0  0  0  0  0  0
  147.4775  161.0675  133.6607 H   0  0  0  0  0  0  0  0  0  0  0  0
  148.1347  158.3517  133.0633 H   0  0  0  0  0  0  0  0  0  0  0  0
  147.1246  156.0711  132.7385 H   0  0  0  0  0  0  0  0  0  0  0  0
  143.1712  157.7029  133.5943 H   0  0  0  0  0  0  0  0  0  0  0  0
  141.6517  157.8703  134.1048 H   0  0  0  0  0  0  0  0  0  0  0  0
  140.6051  158.3503  135.4956 H   0  0  0  0  0  0  0  0  0  0  0  0
  139.1802  159.4372  134.1342 H   0  0  0  0  0  0  0  0  0  0  0  0
  140.5360  160.3725  133.3933 H   0  0  0  0  0  0  0  0  0  0  0  0
  138.8788  157.0345  131.5599 H   0  0  0  0  0  0  0  0  0  0  0  0
  138.5626  157.4048  133.3138 H   0  0  0  0  0  0  0  0  0  0  0  0
  136.6926  158.0807  131.7631 H   0  0  0  0  0  0  0  0  0  0  0  0
  137.3954  159.4272  132.7518 H   0  0  0  0  0  0  0  0  0  0  0  0
  137.9730  158.8190  129.9140 H   0  0  0  0  0  0  0  0  0  0  0  0
  139.2667  160.8219  129.9262 H   0  0  0  0  0  0  0  0  0  0  0  0
  138.9295  160.9882  131.6929 H   0  0  0  0  0  0  0  0  0  0  0  0
  140.4407  158.6966  130.3375 H   0  0  0  0  0  0  0  0  0  0  0  0
  141.1466  160.0201  131.3550 H   0  0  0  0  0  0  0  0  0  0  0  0
  1  2  1  0
  2  3  2  0
  2  4  1  0
  4  5  2  0
  5  6  1  0
  6  7  2  0
  7  8  1  0
  8  9  2  0
  9 10  1  0
 10 11  1  0
 10 12  1  0
 10 13  1  0
  9 14  1  0
 14 15  2  0
 15 16  1  0
 16 17  1  0
 17 18  2  0
 17 19  1  0
 19 20  1  0
 20 21  1  0
 21 22  1  0
 22 23  1  0
 23 24  1  0
 24 25  1  0
 25 26  1  0
 26 27  1  0
 16  4  1  0
 27 22  1  0
 15  6  1  0
  1 28  1  0
  5 29  1  0
  7 30  1  0
  8 31  1  0
 14 32  1  0
 20 33  1  0
 20 34  1  0
 21 35  1  0
 21 36  1  0
 23 37  1  0
 23 38  1  0
 24 39  1  0
 24 40  1  0
 25 41  1  0
 26 42  1  0
 26 43  1  0
 27 44  1  0
 27 45  1  0
M  CHG  1   1  -1
M  END
>  <UniqueID>  (16) 
16

>  <SMILES>  (16) 
[NH-]C(=O)c1cc2ccc(C(F)(F)F)cc2n1C(=O)OCCN1CCNCC1

>  <Energy>  (16) 
85.86601639574829

>  <Genealogy>  (16) 
[NH-]C(=O)c1cc2ccc(C(F)(F)F)cc2n1C(=O)OCCN1CCNCC1 (protonated)
[NH-]C(=O)c1cc2ccc(C(F)(F)F)cc2n1C(=O)OCCN1CCNCC1 (3D coordinates assigned)
[NH-]C(=O)c1cc2ccc(C(F)(F)F)cc2n1C(=O)OCCN1CCNCC1 (nonaromatic ring conformer: 85.86601639574829 kcal/mol)

>  <smiles>  (16) 
NC(=O)c1cc2ccc(C(F)(F)F)cc2n1C(=O)OCCN1CCNCC1

>  <score_type>  (16) 
oracle

>  <origin>  (16) 
adg

>  <m_score__min__energy>  (16) 
-7.0599999999999996

>  <m_primary>  (16) 
energy

$$$$
17:0
     RDKit          3D

 36 37  0  0  0  0  0  0  0  0999 V2000
  148.8270  157.2840  133.4750 N   0  0  0  0  0  0  0  0  0  0  0  0
  148.2570  158.4990  132.9900 C   0  0  0  0  0  0  0  0  0  0  0  0
  148.9700  159.2840  132.3100 O   0  0  0  0  0  0  0  0  0  0  0  0
  146.8370  158.8270  133.2220 C   0  0  0  0  0  0  0  0  0  0  0  0
  146.3520  160.1270  133.3480 C   0  0  0  0  0  0  0  0  0  0  0  0
  144.9970  159.9920  133.5610 C   0  0  0  0  0  0  0  0  0  0  0  0
  144.0170  160.9580  133.7660 C   0  0  0  0  0  0  0  0  0  0  0  0
  142.7000  160.5220  133.9900 C   0  0  0  0  0  0  0  0  0  0  0  0
  142.3920  159.1380  134.0190 C   0  0  0  0  0  0  0  0  0  0  0  0
  140.9750  158.6850  134.2300 C   0  0  0  0  0  0  0  0  0  0  0  0
  140.5850  158.6520  136.0050 P   0  0  0  0  0  0  0  0  0  0  0  0
  140.6170  160.0610  136.5530 O   0  0  0  0  0  0  0  0  0  0  0  0
  141.7270  157.7080  136.8220 O   0  0  0  0  0  0  0  0  0  0  0  0
  139.0440  157.9960  136.2370 O   0  0  0  0  0  0  0  0  0  0  0  0
  143.4130  158.1870  133.8000 C   0  0  0  0  0  0  0  0  0  0  0  0
  144.7090  158.6520  133.5670 C   0  0  0  0  0  0  0  0  0  0  0  0
  145.8250  157.9260  133.3560 N   0  0  0  0  0  0  0  0  0  0  0  0
  145.9240  156.5030  133.4660 C   0  0  0  0  0  0  0  0  0  0  0  0
  146.5960  155.8560  132.6190 O   0  0  0  0  0  0  0  0  0  0  0  0
  145.1670  155.7720  134.5360 C   0  0  0  0  0  0  0  0  0  0  0  0
  145.7250  154.3640  134.7480 C   0  0  0  0  0  0  0  0  0  0  0  0
  146.8930  154.4010  135.6830 C   0  0  0  0  0  0  0  0  0  0  0  0
  147.7430  155.3260  135.5990 O   0  0  0  0  0  0  0  0  0  0  0  0
  147.0680  153.3860  136.6160 O   0  0  0  0  0  0  0  0  0  0  0  0
  148.2300  156.5280  133.8770 H   0  0  0  0  0  0  0  0  0  0  0  0
  149.8460  157.0960  133.3500 H   0  0  0  0  0  0  0  0  0  0  0  0
  146.9281  161.0623  133.2899 H   0  0  0  0  0  0  0  0  0  0  0  0
  144.2653  162.0295  133.7532 H   0  0  0  0  0  0  0  0  0  0  0  0
  141.9003  161.2614  134.1443 H   0  0  0  0  0  0  0  0  0  0  0  0
  140.2915  159.3802  133.7206 H   0  0  0  0  0  0  0  0  0  0  0  0
  140.8565  157.6723  133.8173 H   0  0  0  0  0  0  0  0  0  0  0  0
  143.1933  157.1092  133.8126 H   0  0  0  0  0  0  0  0  0  0  0  0
  145.2455  156.3342  135.4782 H   0  0  0  0  0  0  0  0  0  0  0  0
  144.1167  155.6855  134.2209 H   0  0  0  0  0  0  0  0  0  0  0  0
  144.9393  153.7232  135.1747 H   0  0  0  0  0  0  0  0  0  0  0  0
  146.0561  153.9618  133.7792 H   0  0  0  0  0  0  0  0  0  0  0  0
  1  2  1  0
  2  3  2  0
  2  4  1  0
  4  5  2  0
  5  6  1  0
  6  7  2  0
  7  8  1  0
  8  9  2  0
  9 10  1  0
 10 11  1  0
 11 12  2  0
 11 13  1  0
 11 14  1  0
  9 15  1  0
 15 16  2  0
 16 17  1  0
 17 18  1  0
 18 19  2  0
 18 20  1  0
 20 21  1  0
 21 22  1  0
 22 23  2  0
 22 24  1  0
 17  4  1  0
 16  6  1  0
  1 25  1  0
  1 26  1  0
  5 27  1  0
  7 28  1  0
  8 29  1  0
 10 30  1  0
 10 31  1  0
 15 32  1  0
 20 33  1  0
 20 34  1  0
 21 35  1  0
 21 36  1  0
M  CHG  3  13  -1  14  -1  24  -1
M  END
>  <UniqueID>  (17) 
17

>  <SMILES>  (17) 
NC(=O)c1cc2ccc(CP(=O)([O-])[O-])cc2n1C(=O)CCC(=O)[O-]

>  <Energy>  (17) 
69.43989518914141

>  <Genealogy>  (17) 
NC(=O)c1cc2ccc(CP(=O)([O-])[O-])cc2n1C(=O)CCC(=O)[O-] (protonated)
NC(=O)c1cc2ccc(CP(=O)([O-])[O-])cc2n1C(=O)CCC(=O)[O-] (3D coordinates assigned)
NC(=O)c1cc2ccc(CP(=O)([O-])[O-])cc2n1C(=O)CCC(=O)[O-] (optimized conformer: 69.43989518914141 kcal/mol)

>  <smiles>  (17) 
NC(=O)c1cc2ccc(CP(=O)(O)O)cc2n1C(=O)CCC(=O)O

>  <score_type>  (17) 
oracle

>  <origin>  (17) 
adg

>  <m_score__min__energy>  (17) 
-7.4500000000000002

>  <m_primary>  (17) 
energy

$$$$
18:0
     RDKit          3D

 47 50  0  0  0  0  0  0  0  0999 V2000
  148.2220  158.1080  134.1680 N   0  0  0  0  0  0  0  0  0  0  0  0
  147.3870  158.9480  133.3660 C   0  0  0  0  0  0  0  0  0  0  0  0
  147.9190  159.6750  132.4840 O   0  0  0  0  0  0  0  0  0  0  0  0
  145.9130  158.9450  133.5330 C   0  0  0  0  0  0  0  0  0  0  0  0
  145.0980  160.0680  133.3770 C   0  0  0  0  0  0  0  0  0  0  0  0
  143.8300  159.6500  133.7130 C   0  0  0  0  0  0  0  0  0  0  0  0
  142.6300  160.3520  133.7300 C   0  0  0  0  0  0  0  0  0  0  0  0
  141.4660  159.6600  134.1070 C   0  0  0  0  0  0  0  0  0  0  0  0
  141.5170  158.2810  134.4390 C   0  0  0  0  0  0  0  0  0  0  0  0
  140.2750  157.5650  134.9120 C   0  0  0  0  0  0  0  0  0  0  0  0
  139.4500  157.2570  133.8430 F   0  0  0  0  0  0  0  0  0  0  0  0
  139.5880  158.3830  135.7920 F   0  0  0  0  0  0  0  0  0  0  0  0
  140.6070  156.3850  135.5560 F   0  0  0  0  0  0  0  0  0  0  0  0
  142.7610  157.6070  134.4240 C   0  0  0  0  0  0  0  0  0  0  0  0
  143.9040  158.3270  134.0570 C   0  0  0  0  0  0  0  0  0  0  0  0
  145.1720  157.8810  133.9520 N   0  0  0  0  0  0  0  0  0  0  0  0
  145.6140  156.5320  134.1590 C   0  0  0  0  0  0  0  0  0  0  0  0
  146.3510  156.2600  135.1450 O   0  0  0  0  0  0  0  0  0  0  0  0
  145.1790  155.5020  133.2610 N   0  0  0  0  0  0  0  0  0  0  0  0
  144.2190  154.4330  133.5450 C   0  0  2  0  0  0  0  0  0  0  0  0
  144.0500  154.2030  135.0750 C   0  0  0  0  0  0  0  0  0  0  0  0
  142.9920  153.0950  135.3510 C   0  0  0  0  0  0  0  0  0  0  0  0
  142.4110  152.5360  134.0240 C   0  0  2  0  0  0  0  0  0  0  0  0
  141.3590  151.4830  134.3040 C   0  0  0  0  0  0  0  0  0  0  0  0
  140.7810  150.8980  133.3520 O   0  0  0  0  0  0  0  0  0  0  0  0
  140.9860  151.1780  135.6110 O   0  0  0  0  0  0  0  0  0  0  0  0
  143.5930  151.9800  133.1800 C   0  0  0  0  0  0  0  0  0  0  0  0
  144.6520  153.0870  132.8960 C   0  0  0  0  0  0  0  0  0  0  0  0
  141.8620  153.7240  133.2520 C   0  0  0  0  0  0  0  0  0  0  0  0
  140.7040  153.7850  132.8660 O   0  0  0  0  0  0  0  0  0  0  0  0
  142.8390  154.8350  132.9580 C   0  0  0  0  0  0  0  0  0  0  0  0
  149.2490  158.0710  133.9830 H   0  0  0  0  0  0  0  0  0  0  0  0
  147.8360  157.5250  134.9430 H   0  0  0  0  0  0  0  0  0  0  0  0
  145.4043  161.0739  133.0540 H   0  0  0  0  0  0  0  0  0  0  0  0
  142.5926  161.4168  133.4567 H   0  0  0  0  0  0  0  0  0  0  0  0
  140.5047  160.1933  134.1451 H   0  0  0  0  0  0  0  0  0  0  0  0
  142.8283  156.5428  134.6942 H   0  0  0  0  0  0  0  0  0  0  0  0
  145.0155  153.8950  135.5027 H   0  0  0  0  0  0  0  0  0  0  0  0
  143.7093  155.1407  135.5382 H   0  0  0  0  0  0  0  0  0  0  0  0
  143.4675  152.2749  135.9090 H   0  0  0  0  0  0  0  0  0  0  0  0
  142.1700  153.5338  135.9356 H   0  0  0  0  0  0  0  0  0  0  0  0
  144.0724  151.1579  133.7317 H   0  0  0  0  0  0  0  0  0  0  0  0
  143.1965  151.6223  132.2183 H   0  0  0  0  0  0  0  0  0  0  0  0
  145.6207  152.7777  133.3155 H   0  0  0  0  0  0  0  0  0  0  0  0
  144.7378  153.2273  131.8084 H   0  0  0  0  0  0  0  0  0  0  0  0
  142.9240  154.9785  131.8707 H   0  0  0  0  0  0  0  0  0  0  0  0
  142.4926  155.7761  133.4100 H   0  0  0  0  0  0  0  0  0  0  0  0
  1  2  1  0
  2  3  2  0
  2  4  1  0
  4  5  2  0
  5  6  1  0
  6  7  2  0
  7  8  1  0
  8  9  2  0
  9 10  1  0
 10 11  1  0
 10 12  1  0
 10 13  1  0
  9 14  1  0
 14 15  2  0
 15 16  1  0
 16 17  1  0
 17 18  2  0
 17 19  1  0
 20 19  1  1
 20 21  1  0
 21 22  1  0
 22 23  1  0
 23 24  1  1
 24 25  2  0
 24 26  1  0
 23 27  1  0
 27 28  1  0
 23 29  1  0
 29 30  2  0
 29 31  1  0
 16  4  1  0
 28 20  1  0
 15  6  1  0
 31 20  1  0
  1 32  1  0
  1 33  1  0
  5 34  1  0
  7 35  1  0
  8 36  1  0
 14 37  1  0
 21 38  1  0
 21 39  1  0
 22 40  1  0
 22 41  1  0
 27 42  1  0
 27 43  1  0
 28 44  1  0
 28 45  1  0
 31 46  1  0
 31 47  1  0
M  CHG  2  19  -1  26  -1
M  END
>  <UniqueID>  (18) 
18

>  <SMILES>  (18) 
NC(=O)c1cc2ccc(C(F)(F)F)cc2n1C(=O)[N-]C12CCC(C(=O)[O-])(CC1)C(=O)C2

>  <Energy>  (18) 
102.58373394800736

>  <Genealogy>  (18) 
NC(=O)c1cc2ccc(C(F)(F)F)cc2n1C(=O)[N-]C12CCC(C(=O)[O-])(CC1)C(=O)C2 (protonated)
NC(=O)c1cc2ccc(C(F)(F)F)cc2n1C(=O)[N-]C12CCC(C(=O)[O-])(CC1)C(=O)C2 (3D coordinates assigned)
NC(=O)c1cc2ccc(C(F)(F)F)cc2n1C(=O)[N-]C12CCC(C(=O)[O-])(CC1)C(=O)C2 (nonaromatic ring conformer: 102.58373394800736 kcal/mol)

>  <smiles>  (18) 
NC(=O)c1cc2ccc(C(F)(F)F)cc2n1C(=O)NC12CCC(C(=O)O)(CC1)C(=O)C2

>  <score_type>  (18) 
oracle

>  <origin>  (18) 
adg

>  <m_score__min__energy>  (18) 
-8.7300000000000004

>  <m_primary>  (18) 
energy

$$$$
19:0
     RDKit          3D

 45 47  0  0  0  0  0  0  0  0999 V2000
  142.9120  157.2010  134.8470 N   0  0  0  0  0  0  0  0  0  0  0  0
  142.9150  156.5920  133.5580 C   0  0  0  0  0  0  0  0  0  0  0  0
  143.2040  157.2870  132.5480 O   0  0  0  0  0  0  0  0  0  0  0  0
  142.6150  155.1520  133.4220 C   0  0  0  0  0  0  0  0  0  0  0  0
  143.5930  154.1600  133.3800 C   0  0  0  0  0  0  0  0  0  0  0  0
  142.9110  152.9850  133.1580 C   0  0  0  0  0  0  0  0  0  0  0  0
  143.3840  151.6830  133.0360 C   0  0  0  0  0  0  0  0  0  0  0  0
  142.4470  150.6550  132.8330 C   0  0  0  0  0  0  0  0  0  0  0  0
  141.0560  150.9440  132.7640 C   0  0  0  0  0  0  0  0  0  0  0  0
  140.0750  149.9060  132.5670 N   0  0  0  0  0  0  0  0  0  0  0  0
  140.3210  148.6600  131.8420 C   0  0  0  0  0  0  0  0  0  0  0  0
  139.1010  148.2500  131.0800 C   0  0  0  0  0  0  0  0  0  0  0  0
  138.0590  148.9560  131.1240 O   0  0  0  0  0  0  0  0  0  0  0  0
  139.1040  147.0730  130.3420 O   0  0  0  0  0  0  0  0  0  0  0  0
  140.6190  152.2810  132.8900 C   0  0  0  0  0  0  0  0  0  0  0  0
  141.5770  153.2830  133.0780 C   0  0  0  0  0  0  0  0  0  0  0  0
  141.3780  154.6080  133.2410 N   0  0  0  0  0  0  0  0  0  0  0  0
  140.1080  155.2770  133.2790 C   0  0  0  0  0  0  0  0  0  0  0  0
  139.0650  154.6580  132.9330 O   0  0  0  0  0  0  0  0  0  0  0  0
  140.0200  156.6300  133.7420 N   0  0  0  0  0  0  0  0  0  0  0  0
  138.7580  157.3660  133.7220 C   0  0  0  0  0  0  0  0  0  0  0  0
  138.8690  158.5910  132.8440 C   0  0  0  0  0  0  0  0  0  0  0  0
  137.9610  158.7200  131.7760 C   0  0  0  0  0  0  0  0  0  0  0  0
  137.9900  159.8390  130.9450 C   0  0  0  0  0  0  0  0  0  0  0  0
  138.9280  160.8450  131.1610 C   0  0  0  0  0  0  0  0  0  0  0  0
  139.8520  160.7280  132.2010 C   0  0  0  0  0  0  0  0  0  0  0  0
  139.8530  159.6000  133.0440 C   0  0  0  0  0  0  0  0  0  0  0  0
  140.8960  159.5250  134.1000 C   0  0  0  0  0  0  0  0  0  0  0  0
  142.0280  160.0490  133.9390 O   0  0  0  0  0  0  0  0  0  0  0  0
  140.6130  158.9080  135.3130 O   0  0  0  0  0  0  0  0  0  0  0  0
  142.6240  158.1970  134.9700 H   0  0  0  0  0  0  0  0  0  0  0  0
  144.6790  154.2886  133.4990 H   0  0  0  0  0  0  0  0  0  0  0  0
  144.4603  151.4639  133.0966 H   0  0  0  0  0  0  0  0  0  0  0  0
  142.7931  149.6163  132.7264 H   0  0  0  0  0  0  0  0  0  0  0  0
  139.1200  150.0410  132.9710 H   0  0  0  0  0  0  0  0  0  0  0  0
  141.1543  148.8081  131.1394 H   0  0  0  0  0  0  0  0  0  0  0  0
  140.5719  147.8701  132.5653 H   0  0  0  0  0  0  0  0  0  0  0  0
  139.5485  152.5292  132.8414 H   0  0  0  0  0  0  0  0  0  0  0  0
  140.8850  157.0860  134.1150 H   0  0  0  0  0  0  0  0  0  0  0  0
  137.9646  156.7120  133.3311 H   0  0  0  0  0  0  0  0  0  0  0  0
  138.5182  157.6855  134.7469 H   0  0  0  0  0  0  0  0  0  0  0  0
  137.2194  157.9280  131.5949 H   0  0  0  0  0  0  0  0  0  0  0  0
  137.2707  159.9273  130.1174 H   0  0  0  0  0  0  0  0  0  0  0  0
  138.9410  161.7328  130.5116 H   0  0  0  0  0  0  0  0  0  0  0  0
  140.5893  161.5278  132.3642 H   0  0  0  0  0  0  0  0  0  0  0  0
  1  2  1  0
  2  3  2  0
  2  4  1  0
  4  5  2  0
  5  6  1  0
  6  7  2  0
  7  8  1  0
  8  9  2  0
  9 10  1  0
 10 11  1  0
 11 12  1  0
 12 13  2  0
 12 14  1  0
  9 15  1  0
 15 16  2  0
 16 17  1  0
 17 18  1  0
 18 19  2  0
 18 20  1  0
 20 21  1  0
 21 22  1  0
 22 23  2  0
 23 24  1  0
 24 25  2  0
 25 26  1  0
 26 27  2  0
 27 28  1  0
 28 29  2  0
 28 30  1  0
 17  4  1  0
 27 22  1  0
 16  6  1  0
  1 31  1  0
  5 32  1  0
  7 33  1  0
  8 34  1  0
 10 35  1  0
 11 36  1  0
 11 37  1  0
 15 38  1  0
 20 39  1  0
 21 40  1  0
 21 41  1  0
 23 42  1  0
 24 43  1  0
 25 44  1  0
 26 45  1  0
M  CHG  3   1  -1  14  -1  30  -1
M  END
>  <UniqueID>  (19) 
19

>  <SMILES>  (19) 
[NH-]C(=O)c1cc2ccc(NCC(=O)[O-])cc2n1C(=O)NCc1ccccc1C(=O)[O-]

>  <Energy>  (19) 
88.43685275229491

>  <Genealogy>  (19) 
[NH-]C(=O)c1cc2ccc(NCC(=O)[O-])cc2n1C(=O)NCc1ccccc1C(=O)[O-] (protonated)
[NH-]C(=O)c1cc2ccc(NCC(=O)[O-])cc2n1C(=O)NCc1ccccc1C(=O)[O-] (3D coordinates assigned)
[NH-]C(=O)c1cc2ccc(NCC(=O)[O-])cc2n1C(=O)NCc1ccccc1C(=O)[O-] (optimized conformer: 88.43685275229491 kcal/mol)

>  <smiles>  (19) 
NC(=O)c1cc2ccc(NCC(=O)O)cc2n1C(=O)NCc1ccccc1C(=O)O

>  <score_type>  (19) 
oracle

>  <origin>  (19) 
adg

>  <m_score__min__energy>  (19) 
-8.75

>  <m_primary>  (19) 
energy

$$$$
20:0
     RDKit          3D

 33 35  0  0  0  0  0  0  0  0999 V2000
  141.2430  160.9820  133.3760 N   0  0  0  0  0  0  0  0  0  0  0  0
  142.0260  160.2050  134.2770 C   0  0  0  0  0  0  0  0  0  0  0  0
  141.5410  159.8860  135.3940 O   0  0  0  0  0  0  0  0  0  0  0  0
  143.4070  159.8010  133.9360 C   0  0  0  0  0  0  0  0  0  0  0  0
  143.8000  158.4750  133.7530 C   0  0  0  0  0  0  0  0  0  0  0  0
  145.1560  158.5240  133.5180 C   0  0  0  0  0  0  0  0  0  0  0  0
  146.0620  157.4960  133.2750 C   0  0  0  0  0  0  0  0  0  0  0  0
  147.4060  157.8440  133.0500 C   0  0  0  0  0  0  0  0  0  0  0  0
  147.8130  159.2010  133.0640 C   0  0  0  0  0  0  0  0  0  0  0  0
  149.2420  159.5570  132.7690 C   0  0  0  0  0  0  0  0  0  0  0  0
  149.3610  160.0670  131.4070 N   0  0  0  0  0  0  0  0  0  0  0  0
  149.5610  159.3480  130.2890 C   0  0  0  0  0  0  0  0  0  0  0  0
  149.6730  160.2300  129.2380 C   0  0  0  0  0  0  0  0  0  0  0  0
  149.5550  161.4950  129.6920 N   0  0  0  0  0  0  0  0  0  0  0  0
  149.3690  161.3560  131.0220 C   0  0  0  0  0  0  0  0  0  0  0  0
  146.8610  160.2180  133.3000 C   0  0  0  0  0  0  0  0  0  0  0  0
  145.5370  159.8410  133.5520 C   0  0  0  0  0  0  0  0  0  0  0  0
  144.4790  160.6340  133.8170 N   0  0  0  0  0  0  0  0  0  0  0  0
  144.4860  162.0690  133.8850 C   0  0  0  0  0  0  0  0  0  0  0  0
  143.5420  162.7230  133.3660 O   0  0  0  0  0  0  0  0  0  0  0  0
  145.5750  162.7840  134.5630 C   0  0  0  0  0  0  0  0  0  0  0  0
  146.6210  163.0990  133.9350 O   0  0  0  0  0  0  0  0  0  0  0  0
  145.4660  163.1030  135.9110 O   0  0  0  0  0  0  0  0  0  0  0  0
  141.5370  161.9450  133.0970 H   0  0  0  0  0  0  0  0  0  0  0  0
  143.1618  157.5798  133.7888 H   0  0  0  0  0  0  0  0  0  0  0  0
  145.7374  156.4451  133.2594 H   0  0  0  0  0  0  0  0  0  0  0  0
  148.1486  157.0547  132.8613 H   0  0  0  0  0  0  0  0  0  0  0  0
  149.5783  160.3287  133.4771 H   0  0  0  0  0  0  0  0  0  0  0  0
  149.8659  158.6569  132.8721 H   0  0  0  0  0  0  0  0  0  0  0  0
  149.6239  158.2517  130.2254 H   0  0  0  0  0  0  0  0  0  0  0  0
  149.8342  159.9464  128.1875 H   0  0  0  0  0  0  0  0  0  0  0  0
  149.2387  162.2017  131.7132 H   0  0  0  0  0  0  0  0  0  0  0  0
  147.1529  161.2785  133.2860 H   0  0  0  0  0  0  0  0  0  0  0  0
  1  2  1  0
  2  3  2  0
  2  4  1  0
  4  5  2  0
  5  6  1  0
  6  7  2  0
  7  8  1  0
  8  9  2  0
  9 10  1  0
 10 11  1  0
 11 12  1  0
 12 13  2  0
 13 14  1  0
 14 15  2  0
  9 16  1  0
 16 17  2  0
 17 18  1  0
 18 19  1  0
 19 20  2  0
 19 21  1  0
 21 22  2  0
 21 23  1  0
 18  4  1  0
 17  6  1  0
 15 11  1  0
  1 24  1  0
  5 25  1  0
  7 26  1  0
  8 27  1  0
 10 28  1  0
 10 29  1  0
 12 30  1  0
 13 31  1  0
 15 32  1  0
 16 33  1  0
M  CHG  2   1  -1  23  -1
M  END
>  <UniqueID>  (20) 
20

>  <SMILES>  (20) 
[NH-]C(=O)c1cc2ccc(Cn3ccnc3)cc2n1C(=O)C(=O)[O-]

>  <Energy>  (20) 
102.48809061752813

>  <Genealogy>  (20) 
[NH-]C(=O)c1cc2ccc(Cn3ccnc3)cc2n1C(=O)C(=O)[O-] (protonated)
[NH-]C(=O)c1cc2ccc(Cn3ccnc3)cc2n1C(=O)C(=O)[O-] (3D coordinates assigned)
[NH-]C(=O)c1cc2ccc(Cn3ccnc3)cc2n1C(=O)C(=O)[O-] (optimized conformer: 102.48809061752813 kcal/mol)

>  <smiles>  (20) 
NC(=O)c1cc2ccc(Cn3ccnc3)cc2n1C(=O)C(=O)O

>  <score_type>  (20) 
oracle

>  <origin>  (20) 
adg

>  <m_score__min__energy>  (20) 
-7.0499999999999998

>  <m_primary>  (20) 
energy

$$$$
21:0
     RDKit          3D

 42 44  0  0  0  0  0  0  0  0999 V2000
  139.2040  160.7880  131.9130 N   0  0  0  0  0  0  0  0  0  0  0  0
  138.8240  159.7550  131.5580 C   0  0  0  0  0  0  0  0  0  0  0  0
  138.3450  158.4470  131.1080 C   0  0  0  0  0  0  0  0  0  0  0  0
  139.0870  157.4260  131.7630 O   0  0  0  0  0  0  0  0  0  0  0  0
  139.2640  157.3950  133.1500 C   0  0  0  0  0  0  0  0  0  0  0  0
  138.3820  157.8740  133.9150 O   0  0  0  0  0  0  0  0  0  0  0  0
  140.4450  156.7950  133.7050 N   0  0  0  0  0  0  0  0  0  0  0  0
  141.4760  157.4190  134.3420 C   0  0  0  0  0  0  0  0  0  0  0  0
  141.5190  158.8410  134.7400 C   0  0  0  0  0  0  0  0  0  0  0  0
  140.6070  159.7850  134.1840 N   0  0  0  0  0  0  0  0  0  0  0  0
  142.3390  159.2190  135.6190 O   0  0  0  0  0  0  0  0  0  0  0  0
  142.4770  156.5040  134.6610 C   0  0  0  0  0  0  0  0  0  0  0  0
  142.0210  155.2880  134.2040 C   0  0  0  0  0  0  0  0  0  0  0  0
  142.6120  154.0300  134.2670 C   0  0  0  0  0  0  0  0  0  0  0  0
  141.9130  152.9460  133.7080 C   0  0  0  0  0  0  0  0  0  0  0  0
  140.6550  153.1410  133.0830 C   0  0  0  0  0  0  0  0  0  0  0  0
  139.9250  152.0150  132.5530 N   0  0  0  0  0  0  0  0  0  0  0  0
  140.7600  150.8010  132.5260 C   0  0  0  0  0  0  0  0  0  0  0  0
  140.1170  149.6950  131.7230 C   0  0  0  0  0  0  0  0  0  0  0  0
  140.7970  148.4840  131.5170 C   0  0  0  0  0  0  0  0  0  0  0  0
  140.2290  147.4840  130.7210 C   0  0  0  0  0  0  0  0  0  0  0  0
  138.9840  147.6890  130.1200 C   0  0  0  0  0  0  0  0  0  0  0  0
  138.3030  148.8940  130.3170 C   0  0  0  0  0  0  0  0  0  0  0  0
  138.8660  149.8950  131.1140 C   0  0  0  0  0  0  0  0  0  0  0  0
  140.0920  154.4380  133.0340 C   0  0  0  0  0  0  0  0  0  0  0  0
  140.7950  155.4920  133.6280 C   0  0  0  0  0  0  0  0  0  0  0  0
  137.2780  158.3416  131.3539 H   0  0  0  0  0  0  0  0  0  0  0  0
  138.4778  158.3596  130.0196 H   0  0  0  0  0  0  0  0  0  0  0  0
  139.8300  159.4770  133.5590 H   0  0  0  0  0  0  0  0  0  0  0  0
  143.4301  156.7096  135.1703 H   0  0  0  0  0  0  0  0  0  0  0  0
  143.5952  153.8881  134.7393 H   0  0  0  0  0  0  0  0  0  0  0  0
  142.3463  151.9361  133.7558 H   0  0  0  0  0  0  0  0  0  0  0  0
  139.6170  152.2320  131.5760 H   0  0  0  0  0  0  0  0  0  0  0  0
  139.0590  151.8410  133.1160 H   0  0  0  0  0  0  0  0  0  0  0  0
  141.7329  151.0481  132.0762 H   0  0  0  0  0  0  0  0  0  0  0  0
  140.8809  150.4464  133.5602 H   0  0  0  0  0  0  0  0  0  0  0  0
  141.7799  148.3211  131.9833 H   0  0  0  0  0  0  0  0  0  0  0  0
  140.7631  146.5346  130.5677 H   0  0  0  0  0  0  0  0  0  0  0  0
  138.5400  146.9024  129.4921 H   0  0  0  0  0  0  0  0  0  0  0  0
  137.3229  149.0546  129.8442 H   0  0  0  0  0  0  0  0  0  0  0  0
  138.3281  150.8426  131.2651 H   0  0  0  0  0  0  0  0  0  0  0  0
  139.1246  154.6137  132.5407 H   0  0  0  0  0  0  0  0  0  0  0  0
  1  2  3  0
  2  3  1  0
  3  4  1  0
  4  5  1  0
  5  6  2  0
  5  7  1  0
  7  8  1  0
  8  9  1  0
  9 10  1  0
  9 11  2  0
  8 12  2  0
 12 13  1  0
 13 14  2  0
 14 15  1  0
 15 16  2  0
 16 17  1  0
 17 18  1  0
 18 19  1  0
 19 20  2  0
 20 21  1  0
 21 22  2  0
 22 23  1  0
 23 24  2  0
 16 25  1  0
 25 26  2  0
 26  7  1  0
 26 13  1  0
 24 19  1  0
  3 27  1  0
  3 28  1  0
 10 29  1  0
 12 30  1  0
 14 31  1  0
 15 32  1  0
 17 33  1  0
 17 34  1  0
 18 35  1  0
 18 36  1  0
 20 37  1  0
 21 38  1  0
 22 39  1  0
 23 40  1  0
 24 41  1  0
 25 42  1  0
M  CHG  2  10  -1  17   1
M  END
>  <UniqueID>  (21) 
21

>  <SMILES>  (21) 
N#CCOC(=O)n1c(C([NH-])=O)cc2ccc([NH2+]Cc3ccccc3)cc21

>  <Energy>  (21) 
79.36439020125347

>  <Genealogy>  (21) 
N#CCOC(=O)n1c(C([NH-])=O)cc2ccc([NH2+]Cc3ccccc3)cc21 (protonated)
N#CCOC(=O)n1c(C([NH-])=O)cc2ccc([NH2+]Cc3ccccc3)cc21 (3D coordinates assigned)
N#CCOC(=O)n1c(C([NH-])=O)cc2ccc([NH2+]Cc3ccccc3)cc21 (optimized conformer: 79.36439020125347 kcal/mol)

>  <smiles>  (21) 
N#CCOC(=O)n1c(C(N)=O)cc2ccc(NCc3ccccc3)cc21

>  <score_type>  (21) 
oracle

>  <origin>  (21) 
adg

>  <m_score__min__energy>  (21) 
-8.7899999999999991

>  <m_primary>  (21) 
energy

$$$$
22:0
     RDKit          3D

 41 43  0  0  0  0  0  0  0  0999 V2000
  149.3870  158.6820  132.9630 N   0  0  0  0  0  0  0  0  0  0  0  0
  148.2920  159.5210  132.5890 C   0  0  0  0  0  0  0  0  0  0  0  0
  148.5150  160.5440  131.8900 O   0  0  0  0  0  0  0  0  0  0  0  0
  146.9160  159.2170  133.0440 C   0  0  0  0  0  0  0  0  0  0  0  0
  145.8440  160.0990  132.9250 C   0  0  0  0  0  0  0  0  0  0  0  0
  144.7440  159.3980  133.3640 C   0  0  0  0  0  0  0  0  0  0  0  0
  143.4120  159.7900  133.4560 C   0  0  0  0  0  0  0  0  0  0  0  0
  142.4860  158.8620  133.9600 C   0  0  0  0  0  0  0  0  0  0  0  0
  142.9060  157.5750  134.3860 C   0  0  0  0  0  0  0  0  0  0  0  0
  141.8970  156.5750  134.8900 C   0  0  0  0  0  0  0  0  0  0  0  0
  141.0680  157.1510  135.8360 F   0  0  0  0  0  0  0  0  0  0  0  0
  141.1100  156.1080  133.8510 F   0  0  0  0  0  0  0  0  0  0  0  0
  142.5630  155.5080  135.4650 F   0  0  0  0  0  0  0  0  0  0  0  0
  144.2660  157.2070  134.2520 C   0  0  0  0  0  0  0  0  0  0  0  0
  145.1620  158.1460  133.7300 C   0  0  0  0  0  0  0  0  0  0  0  0
  146.4940  158.0190  133.5400 N   0  0  0  0  0  0  0  0  0  0  0  0
  147.2960  156.8690  133.8520 C   0  0  0  0  0  0  0  0  0  0  0  0
  147.4280  156.5020  135.0520 O   0  0  0  0  0  0  0  0  0  0  0  0
  147.9210  156.1590  132.8230 O   0  0  0  0  0  0  0  0  0  0  0  0
  147.7260  154.7620  132.6100 C   0  0  0  0  0  0  0  0  0  0  0  0
  146.3200  154.4090  132.8390 N   0  0  0  0  0  0  0  0  0  0  0  0
  145.9590  153.6940  133.9470 C   0  0  0  0  0  0  0  0  0  0  0  0
  144.6260  153.3340  134.1580 C   0  0  0  0  0  0  0  0  0  0  0  0
  143.6470  153.7080  133.2270 C   0  0  0  0  0  0  0  0  0  0  0  0
  142.2320  153.3320  133.4350 C   0  0  0  0  0  0  0  0  0  0  0  0
  141.3520  153.6580  132.5950 O   0  0  0  0  0  0  0  0  0  0  0  0
  141.8520  152.6140  134.5640 O   0  0  0  0  0  0  0  0  0  0  0  0
  144.0370  154.4410  132.0960 C   0  0  0  0  0  0  0  0  0  0  0  0
  145.3800  154.7810  131.9200 C   0  0  0  0  0  0  0  0  0  0  0  0
  150.3580  158.9280  132.6700 H   0  0  0  0  0  0  0  0  0  0  0  0
  149.2360  157.7970  133.4950 H   0  0  0  0  0  0  0  0  0  0  0  0
  145.8711  161.1356  132.5580 H   0  0  0  0  0  0  0  0  0  0  0  0
  143.0941  160.7957  133.1436 H   0  0  0  0  0  0  0  0  0  0  0  0
  141.4227  159.1360  134.0253 H   0  0  0  0  0  0  0  0  0  0  0  0
  144.6104  156.2061  134.5513 H   0  0  0  0  0  0  0  0  0  0  0  0
  148.0006  154.5098  131.5751 H   0  0  0  0  0  0  0  0  0  0  0  0
  148.3579  154.1988  133.3125 H   0  0  0  0  0  0  0  0  0  0  0  0
  146.7254  153.3995  134.6791 H   0  0  0  0  0  0  0  0  0  0  0  0
  144.3452  152.7585  135.0524 H   0  0  0  0  0  0  0  0  0  0  0  0
  143.2878  154.7467  131.3508 H   0  0  0  0  0  0  0  0  0  0  0  0
  145.6843  155.3545  131.0320 H   0  0  0  0  0  0  0  0  0  0  0  0
  1  2  1  0
  2  3  2  0
  2  4  1  0
  4  5  2  0
  5  6  1  0
  6  7  2  0
  7  8  1  0
  8  9  2  0
  9 10  1  0
 10 11  1  0
 10 12  1  0
 10 13  1  0
  9 14  1  0
 14 15  2  0
 15 16  1  0
 16 17  1  0
 17 18  2  0
 17 19  1  0
 19 20  1  0
 20 21  1  0
 21 22  2  0
 22 23  1  0
 23 24  2  0
 24 25  1  0
 25 26  2  0
 25 27  1  0
 24 28  1  0
 28 29  2  0
 16  4  1  0
 29 21  1  0
 15  6  1  0
  1 30  1  0
  1 31  1  0
  5 32  1  0
  7 33  1  0
  8 34  1  0
 14 35  1  0
 20 36  1  0
 20 37  1  0
 22 38  1  0
 23 39  1  0
 28 40  1  0
 29 41  1  0
M  CHG  2  21   1  27  -1
M  END
>  <UniqueID>  (22) 
22

>  <SMILES>  (22) 
NC(=O)c1cc2ccc(C(F)(F)F)cc2n1C(=O)OC[n+]1ccc(C(=O)[O-])cc1

>  <Energy>  (22) 
82.25403153530355

>  <Genealogy>  (22) 
NC(=O)c1cc2ccc(C(F)(F)F)cc2n1C(=O)OC[n+]1ccc(C(=O)[O-])cc1 (protonated)
NC(=O)c1cc2ccc(C(F)(F)F)cc2n1C(=O)OC[n+]1ccc(C(=O)[O-])cc1 (3D coordinates assigned)
NC(=O)c1cc2ccc(C(F)(F)F)cc2n1C(=O)OC[n+]1ccc(C(=O)[O-])cc1 (optimized conformer: 82.25403153530355 kcal/mol)

>  <smiles>  (22) 
NC(=O)c1cc2ccc(C(F)(F)F)cc2n1C(=O)OC[n+]1ccc(C(=O)O)cc1

>  <score_type>  (22) 
oracle

>  <origin>  (22) 
adg

>  <m_score__min__energy>  (22) 
-7.1600000000000001

>  <m_primary>  (22) 
energy

$$$$
23:0
     RDKit          3D

 42 43  0  0  0  0  0  0  0  0999 V2000
  139.7300  159.9810  132.1710 C   0  0  0  0  0  0  0  0  0  0  0  0
  140.3500  158.7680  132.7180 N   0  0  0  0  0  0  0  0  0  0  0  0
  139.4980  158.0360  133.6770 C   0  0  1  0  0  0  0  0  0  0  0  0
  139.4450  156.5230  133.4070 C   0  0  0  0  0  0  0  0  0  0  0  0
  139.8920  158.3450  135.0970 C   0  0  0  0  0  0  0  0  0  0  0  0
  139.2670  157.7950  136.0460 O   0  0  0  0  0  0  0  0  0  0  0  0
  140.9130  159.2640  135.3600 O   0  0  0  0  0  0  0  0  0  0  0  0
  142.2410  158.8710  135.6940 C   0  0  0  0  0  0  0  0  0  0  0  0
  142.6930  157.8570  134.8000 O   0  0  0  0  0  0  0  0  0  0  0  0
  143.3040  158.1440  133.5750 C   0  0  0  0  0  0  0  0  0  0  0  0
  142.7860  157.7490  132.4950 O   0  0  0  0  0  0  0  0  0  0  0  0
  144.5520  158.8490  133.5510 N   0  0  0  0  0  0  0  0  0  0  0  0
  144.7620  160.1880  133.6800 C   0  0  0  0  0  0  0  0  0  0  0  0
  143.7140  161.2320  133.7240 C   0  0  0  0  0  0  0  0  0  0  0  0
  142.3360  160.8970  133.6010 N   0  0  0  0  0  0  0  0  0  0  0  0
  144.0440  162.4430  133.8380 O   0  0  0  0  0  0  0  0  0  0  0  0
  146.1280  160.4680  133.6970 C   0  0  0  0  0  0  0  0  0  0  0  0
  146.7510  159.2460  133.5770 C   0  0  0  0  0  0  0  0  0  0  0  0
  148.1070  158.9300  133.5530 C   0  0  0  0  0  0  0  0  0  0  0  0
  148.4640  157.5730  133.4650 C   0  0  0  0  0  0  0  0  0  0  0  0
  147.4700  156.5610  133.4310 C   0  0  0  0  0  0  0  0  0  0  0  0
  147.8670  155.1120  133.3090 C   0  0  0  0  0  0  0  0  0  0  0  0
  148.0160  154.5400  134.5610 F   0  0  0  0  0  0  0  0  0  0  0  0
  149.0680  154.9910  132.6310 F   0  0  0  0  0  0  0  0  0  0  0  0
  146.8870  154.4280  132.6140 F   0  0  0  0  0  0  0  0  0  0  0  0
  146.1040  156.9280  133.4270 C   0  0  0  0  0  0  0  0  0  0  0  0
  145.7780  158.2850  133.4940 C   0  0  0  0  0  0  0  0  0  0  0  0
  139.3993  160.6281  132.9968 H   0  0  0  0  0  0  0  0  0  0  0  0
  140.4628  160.5207  131.5532 H   0  0  0  0  0  0  0  0  0  0  0  0
  138.8633  159.7032  131.5532 H   0  0  0  0  0  0  0  0  0  0  0  0
  141.2340  159.0500  133.2040 H   0  0  0  0  0  0  0  0  0  0  0  0
  138.4702  158.3978  133.5259 H   0  0  0  0  0  0  0  0  0  0  0  0
  139.4260  155.9803  134.3636 H   0  0  0  0  0  0  0  0  0  0  0  0
  138.5380  156.2847  132.8321 H   0  0  0  0  0  0  0  0  0  0  0  0
  140.3332  156.2218  132.8321 H   0  0  0  0  0  0  0  0  0  0  0  0
  142.9074  159.7432  135.6212 H   0  0  0  0  0  0  0  0  0  0  0  0
  142.2513  158.4757  136.7204 H   0  0  0  0  0  0  0  0  0  0  0  0
  142.0190  159.9030  133.6300 H   0  0  0  0  0  0  0  0  0  0  0  0
  146.6059  161.4547  133.7871 H   0  0  0  0  0  0  0  0  0  0  0  0
  148.8742  159.7168  133.6013 H   0  0  0  0  0  0  0  0  0  0  0  0
  149.5268  157.2924  133.4220 H   0  0  0  0  0  0  0  0  0  0  0  0
  145.3161  156.1623  133.3724 H   0  0  0  0  0  0  0  0  0  0  0  0
  1  2  1  0
  2  3  1  0
  3  4  1  0
  3  5  1  0
  5  6  2  0
  5  7  1  0
  7  8  1  0
  8  9  1  0
  9 10  1  0
 10 11  2  0
 10 12  1  0
 12 13  1  0
 13 14  1  0
 14 15  1  0
 14 16  2  0
 13 17  2  0
 17 18  1  0
 18 19  2  0
 19 20  1  0
 20 21  2  0
 21 22  1  0
 22 23  1  0
 22 24  1  0
 22 25  1  0
 21 26  1  0
 26 27  2  0
 27 12  1  0
 27 18  1  0
  1 28  1  0
  1 29  1  0
  1 30  1  0
  2 31  1  0
  3 32  1  1
  4 33  1  0
  4 34  1  0
  4 35  1  0
  8 36  1  0
  8 37  1  0
 15 38  1  0
 17 39  1  0
 19 40  1  0
 20 41  1  0
 26 42  1  0
M  CHG  1  15  -1
M  END
>  <UniqueID>  (23) 
23

>  <SMILES>  (23) 
CN[C@@H](C)C(=O)OCOC(=O)n1c(C([NH-])=O)cc2ccc(C(F)(F)F)cc21

>  <Energy>  (23) 
77.51131405934726

>  <Genealogy>  (23) 
CNC(C)C(=O)OCOC(=O)n1c(C([NH-])=O)cc2ccc(C(F)(F)F)cc21 (protonated)
CN[C@@H](C)C(=O)OCOC(=O)n1c(C([NH-])=O)cc2ccc(C(F)(F)F)cc21 (chirality)
CN[C@@H](C)C(=O)OCOC(=O)n1c(C([NH-])=O)cc2ccc(C(F)(F)F)cc21 (3D coordinates assigned)
CN[C@@H](C)C(=O)OCOC(=O)n1c(C([NH-])=O)cc2ccc(C(F)(F)F)cc21 (optimized conformer: 77.51131405934726 kcal/mol)

>  <smiles>  (23) 
CNC(C)C(=O)OCOC(=O)n1c(C(N)=O)cc2ccc(C(F)(F)F)cc21

>  <score_type>  (23) 
oracle

>  <origin>  (23) 
adg

>  <m_score__min__energy>  (23) 
-5.5

>  <m_primary>  (23) 
energy

$$$$
24:0
     RDKit          3D

 40 41  0  0  0  0  0  0  0  0999 V2000
  138.0310  149.2930  130.9450 C   0  0  0  0  0  0  0  0  0  0  0  0
  139.4220  149.5900  131.4220 C   0  0  0  0  0  0  0  0  0  0  0  0
  140.4200  148.5860  131.3650 C   0  0  0  0  0  0  0  0  0  0  0  0
  141.7310  148.8570  131.7920 C   0  0  0  0  0  0  0  0  0  0  0  0
  142.0170  150.1410  132.2460 C   0  0  0  0  0  0  0  0  0  0  0  0
  143.1900  150.6610  132.7410 C   0  0  0  0  0  0  0  0  0  0  0  0
  142.9030  151.9880  133.0490 C   0  0  0  0  0  0  0  0  0  0  0  0
  143.9120  152.9380  133.5580 C   0  0  0  0  0  0  0  0  0  0  0  0
  143.6760  153.7030  134.7420 N   0  0  0  0  0  0  0  0  0  0  0  0
  144.9760  153.1180  132.9090 O   0  0  0  0  0  0  0  0  0  0  0  0
  141.6010  152.2780  132.7680 N   0  0  0  0  0  0  0  0  0  0  0  0
  140.9010  153.5000  133.0600 C   0  0  0  0  0  0  0  0  0  0  0  0
  139.6560  153.5700  132.8710 O   0  0  0  0  0  0  0  0  0  0  0  0
  141.6140  154.6030  133.5490 O   0  0  0  0  0  0  0  0  0  0  0  0
  141.1680  155.4730  134.5500 C   0  0  0  0  0  0  0  0  0  0  0  0
  140.0900  156.1160  134.4210 O   0  0  0  0  0  0  0  0  0  0  0  0
  141.9410  155.6180  135.7040 O   0  0  0  0  0  0  0  0  0  0  0  0
  141.6730  154.9030  136.9060 C   0  0  0  0  0  0  0  0  0  0  0  0
  142.7660  154.0430  137.2060 O   0  0  0  0  0  0  0  0  0  0  0  0
  142.6320  152.8900  137.9880 C   0  0  0  0  0  0  0  0  0  0  0  0
  143.6300  152.3900  138.5750 O   0  0  0  0  0  0  0  0  0  0  0  0
  141.3000  152.2230  138.0900 C   0  0  0  0  0  0  0  0  0  0  0  0
  140.9910  151.5090  136.8140 C   0  0  0  0  0  0  0  0  0  0  0  0
  140.4060  150.3930  136.8380 O   0  0  0  0  0  0  0  0  0  0  0  0
  141.3920  152.0500  135.6000 O   0  0  0  0  0  0  0  0  0  0  0  0
  141.0710  151.1350  132.2740 C   0  0  0  0  0  0  0  0  0  0  0  0
  139.7520  150.8850  131.8750 C   0  0  0  0  0  0  0  0  0  0  0  0
  137.3686  149.1516  131.8117 H   0  0  0  0  0  0  0  0  0  0  0  0
  137.6647  150.1332  130.3368 H   0  0  0  0  0  0  0  0  0  0  0  0
  138.0398  148.3765  130.3368 H   0  0  0  0  0  0  0  0  0  0  0  0
  140.1665  147.5860  130.9833 H   0  0  0  0  0  0  0  0  0  0  0  0
  142.5074  148.0781  131.7681 H   0  0  0  0  0  0  0  0  0  0  0  0
  144.1503  150.1395  132.8668 H   0  0  0  0  0  0  0  0  0  0  0  0
  144.4190  154.3360  135.1120 H   0  0  0  0  0  0  0  0  0  0  0  0
  142.7450  153.6960  135.2120 H   0  0  0  0  0  0  0  0  0  0  0  0
  141.5313  155.6159  137.7317 H   0  0  0  0  0  0  0  0  0  0  0  0
  140.7610  154.3017  136.7767 H   0  0  0  0  0  0  0  0  0  0  0  0
  141.3167  151.4994  138.9183 H   0  0  0  0  0  0  0  0  0  0  0  0
  140.5271  152.9831  138.2766 H   0  0  0  0  0  0  0  0  0  0  0  0
  138.9917  151.6790  131.9138 H   0  0  0  0  0  0  0  0  0  0  0  0
  1  2  1  0
  2  3  2  0
  3  4  1  0
  4  5  2  0
  5  6  1  0
  6  7  2  0
  7  8  1  0
  8  9  1  0
  8 10  2  0
  7 11  1  0
 11 12  1  0
 12 13  2  0
 12 14  1  0
 14 15  1  0
 15 16  2  0
 15 17  1  0
 17 18  1  0
 18 19  1  0
 19 20  1  0
 20 21  2  0
 20 22  1  0
 22 23  1  0
 23 24  2  0
 23 25  1  0
 11 26  1  0
 26 27  2  0
 27  2  1  0
 26  5  1  0
  1 28  1  0
  1 29  1  0
  1 30  1  0
  3 31  1  0
  4 32  1  0
  6 33  1  0
  9 34  1  0
  9 35  1  0
 18 36  1  0
 18 37  1  0
 22 38  1  0
 22 39  1  0
 27 40  1  0
M  CHG  1  25  -1
M  END
>  <UniqueID>  (24) 
24

>  <SMILES>  (24) 
Cc1ccc2cc(C(N)=O)n(C(=O)OC(=O)OCOC(=O)CC(=O)[O-])c2c1

>  <Energy>  (24) 
73.86984266835705

>  <Genealogy>  (24) 
Cc1ccc2cc(C(N)=O)n(C(=O)OC(=O)OCOC(=O)CC(=O)[O-])c2c1 (protonated)
Cc1ccc2cc(C(N)=O)n(C(=O)OC(=O)OCOC(=O)CC(=O)[O-])c2c1 (3D coordinates assigned)
Cc1ccc2cc(C(N)=O)n(C(=O)OC(=O)OCOC(=O)CC(=O)[O-])c2c1 (optimized conformer: 73.86984266835705 kcal/mol)

>  <smiles>  (24) 
Cc1ccc2cc(C(N)=O)n(C(=O)OC(=O)OCOC(=O)CC(=O)O)c2c1

>  <score_type>  (24) 
oracle

>  <origin>  (24) 
adg

>  <m_score__min__energy>  (24) 
-5.9800000000000004

>  <m_primary>  (24) 
energy

$$$$
25:0
     RDKit          3D

 33 34  0  0  0  0  0  0  0  0999 V2000
  138.6920  158.2400  130.7780 C   0  0  0  0  0  0  0  0  0  0  0  0
  139.1190  158.9870  131.8040 C   0  0  0  0  0  0  0  0  0  0  0  0
  139.1950  160.4620  131.6660 C   0  0  0  0  0  0  0  0  0  0  0  0
  138.6350  161.0470  130.7010 O   0  0  0  0  0  0  0  0  0  0  0  0
  139.9070  161.2220  132.5860 O   0  0  0  0  0  0  0  0  0  0  0  0
  139.5270  158.3270  133.0710 C   0  0  0  0  0  0  0  0  0  0  0  0
  138.7270  158.2880  134.0470 O   0  0  0  0  0  0  0  0  0  0  0  0
  140.8160  157.7050  133.2060 N   0  0  0  0  0  0  0  0  0  0  0  0
  141.1090  156.3740  133.2230 C   0  0  0  0  0  0  0  0  0  0  0  0
  140.1470  155.2730  133.0110 C   0  0  0  0  0  0  0  0  0  0  0  0
  138.7560  155.4940  133.2310 N   0  0  0  0  0  0  0  0  0  0  0  0
  140.5430  154.1300  132.6620 O   0  0  0  0  0  0  0  0  0  0  0  0
  142.4780  156.1810  133.4070 C   0  0  0  0  0  0  0  0  0  0  0  0
  143.0170  157.4460  133.4910 C   0  0  0  0  0  0  0  0  0  0  0  0
  144.3350  157.8480  133.6840 C   0  0  0  0  0  0  0  0  0  0  0  0
  144.5990  159.2270  133.7500 C   0  0  0  0  0  0  0  0  0  0  0  0
  143.5490  160.1710  133.6150 C   0  0  0  0  0  0  0  0  0  0  0  0
  143.8380  161.6430  133.7310 C   0  0  0  0  0  0  0  0  0  0  0  0
  145.1790  161.8770  134.4180 C   0  0  0  0  0  0  0  0  0  0  0  0
  142.2220  159.7230  133.4310 C   0  0  0  0  0  0  0  0  0  0  0  0
  141.9930  158.3460  133.3610 C   0  0  0  0  0  0  0  0  0  0  0  0
  138.6355  157.1462  130.8800 H   0  0  0  0  0  0  0  0  0  0  0  0
  138.3977  158.7202  129.8331 H   0  0  0  0  0  0  0  0  0  0  0  0
  138.3120  156.4070  132.9880 H   0  0  0  0  0  0  0  0  0  0  0  0
  143.0136  155.2223  133.4714 H   0  0  0  0  0  0  0  0  0  0  0  0
  145.1448  157.1100  133.7819 H   0  0  0  0  0  0  0  0  0  0  0  0
  145.6297  159.5774  133.9078 H   0  0  0  0  0  0  0  0  0  0  0  0
  143.8659  162.0858  132.7245 H   0  0  0  0  0  0  0  0  0  0  0  0
  143.0459  162.1123  134.3329 H   0  0  0  0  0  0  0  0  0  0  0  0
  145.0412  161.8529  135.5091 H   0  0  0  0  0  0  0  0  0  0  0  0
  145.8860  161.0887  134.1203 H   0  0  0  0  0  0  0  0  0  0  0  0
  145.5772  162.8582  134.1203 H   0  0  0  0  0  0  0  0  0  0  0  0
  141.3911  160.4387  133.3451 H   0  0  0  0  0  0  0  0  0  0  0  0
  1  2  2  0
  2  3  1  0
  3  4  2  0
  3  5  1  0
  2  6  1  0
  6  7  2  0
  6  8  1  0
  8  9  1  0
  9 10  1  0
 10 11  1  0
 10 12  2  0
  9 13  2  0
 13 14  1  0
 14 15  2  0
 15 16  1  0
 16 17  2  0
 17 18  1  0
 18 19  1  0
 17 20  1  0
 20 21  2  0
 21  8  1  0
 21 14  1  0
  1 22  1  0
  1 23  1  0
 11 24  1  0
 13 25  1  0
 15 26  1  0
 16 27  1  0
 18 28  1  0
 18 29  1  0
 19 30  1  0
 19 31  1  0
 19 32  1  0
 20 33  1  0
M  CHG  2   5  -1  11  -1
M  END
>  <UniqueID>  (25) 
25

>  <SMILES>  (25) 
C=C(C(=O)[O-])C(=O)n1c(C([NH-])=O)cc2ccc(CC)cc21

>  <Energy>  (25) 
71.13384353678435

>  <Genealogy>  (25) 
C=C(C(=O)[O-])C(=O)n1c(C([NH-])=O)cc2ccc(CC)cc21 (protonated)
C=C(C(=O)[O-])C(=O)n1c(C([NH-])=O)cc2ccc(CC)cc21 (3D coordinates assigned)
C=C(C(=O)[O-])C(=O)n1c(C([NH-])=O)cc2ccc(CC)cc21 (optimized conformer: 71.13384353678435 kcal/mol)

>  <smiles>  (25) 
C=C(C(=O)O)C(=O)n1c(C(N)=O)cc2ccc(CC)cc21

>  <score_type>  (25) 
oracle

>  <origin>  (25) 
adg

>  <m_score__min__energy>  (25) 
-6.5499999999999998

>  <m_primary>  (25) 
energy

$$$$
26:0
     RDKit          3D

 36 38  0  0  0  0  0  0  0  0999 V2000
  139.4290  158.0350  136.0620 N   0  0  0  0  0  0  0  0  0  0  0  0
  139.9330  157.7960  134.7510 C   0  0  0  0  0  0  0  0  0  0  0  0
  139.1380  157.4530  133.8360 O   0  0  0  0  0  0  0  0  0  0  0  0
  141.3660  157.9880  134.4440 C   0  0  0  0  0  0  0  0  0  0  0  0
  142.3480  157.0380  134.7200 C   0  0  0  0  0  0  0  0  0  0  0  0
  143.5180  157.5720  134.2260 C   0  0  0  0  0  0  0  0  0  0  0  0
  144.8160  157.0720  134.2660 C   0  0  0  0  0  0  0  0  0  0  0  0
  145.8440  157.8700  133.7350 C   0  0  0  0  0  0  0  0  0  0  0  0
  145.5650  159.1480  133.1890 C   0  0  0  0  0  0  0  0  0  0  0  0
  146.6490  159.9460  132.6840 N   0  0  0  0  0  0  0  0  0  0  0  0
  148.0550  159.6160  132.9100 C   0  0  0  0  0  0  0  0  0  0  0  0
  148.6090  158.6260  131.8970 C   0  0  0  0  0  0  0  0  0  0  0  0
  148.9830  160.0970  131.8080 C   0  0  0  0  0  0  0  0  0  0  0  0
  144.2300  159.6180  133.1640 C   0  0  0  0  0  0  0  0  0  0  0  0
  143.2250  158.7940  133.6830 C   0  0  0  0  0  0  0  0  0  0  0  0
  141.9090  159.0660  133.8110 N   0  0  0  0  0  0  0  0  0  0  0  0
  141.2620  160.2950  133.4570 C   0  0  0  0  0  0  0  0  0  0  0  0
  141.8010  161.3950  133.7530 O   0  0  0  0  0  0  0  0  0  0  0  0
  139.9950  160.2700  132.7910 N   0  0  0  0  0  0  0  0  0  0  0  0
  139.7260  159.4660  131.6030 C   0  0  0  0  0  0  0  0  0  0  0  0
  138.5780  160.0450  130.8400 C   0  0  0  0  0  0  0  0  0  0  0  0
  138.7830  160.8600  129.9040 O   0  0  0  0  0  0  0  0  0  0  0  0
  137.2760  159.7260  131.2040 O   0  0  0  0  0  0  0  0  0  0  0  0
  139.1150  158.9890  136.3520 H   0  0  0  0  0  0  0  0  0  0  0  0
  142.2169  156.0692  135.2243 H   0  0  0  0  0  0  0  0  0  0  0  0
  145.0306  156.0840  134.6993 H   0  0  0  0  0  0  0  0  0  0  0  0
  146.8790  157.4977  133.7433 H   0  0  0  0  0  0  0  0  0  0  0  0
  146.4310  160.8360  132.1810 H   0  0  0  0  0  0  0  0  0  0  0  0
  148.0455  159.6930  134.0073 H   0  0  0  0  0  0  0  0  0  0  0  0
  149.3607  157.8849  132.2063 H   0  0  0  0  0  0  0  0  0  0  0  0
  148.1696  157.8915  131.2060 H   0  0  0  0  0  0  0  0  0  0  0  0
  150.0057  160.4201  132.0524 H   0  0  0  0  0  0  0  0  0  0  0  0
  148.9264  160.8676  131.0251 H   0  0  0  0  0  0  0  0  0  0  0  0
  143.9885  160.6067  132.7468 H   0  0  0  0  0  0  0  0  0  0  0  0
  140.6198  159.4538  130.9619 H   0  0  0  0  0  0  0  0  0  0  0  0
  139.4728  158.4410  131.9117 H   0  0  0  0  0  0  0  0  0  0  0  0
  1  2  1  0
  2  3  2  0
  2  4  1  0
  4  5  2  0
  5  6  1  0
  6  7  2  0
  7  8  1  0
  8  9  2  0
  9 10  1  0
 10 11  1  0
 11 12  1  0
 12 13  1  0
  9 14  1  0
 14 15  2  0
 15 16  1  0
 16 17  1  0
 17 18  2  0
 17 19  1  0
 19 20  1  0
 20 21  1  0
 21 22  2  0
 21 23  1  0
 16  4  1  0
 15  6  1  0
 13 11  1  0
  1 24  1  0
  5 25  1  0
  7 26  1  0
  8 27  1  0
 10 28  1  0
 11 29  1  0
 12 30  1  0
 12 31  1  0
 13 32  1  0
 13 33  1  0
 14 34  1  0
 20 35  1  0
 20 36  1  0
M  CHG  3   1  -1  19  -1  23  -1
M  END
>  <UniqueID>  (26) 
26

>  <SMILES>  (26) 
[NH-]C(=O)c1cc2ccc(NC3CC3)cc2n1C(=O)[N-]CC(=O)[O-]

>  <Energy>  (26) 
337.94015443540064

>  <Genealogy>  (26) 
[NH-]C(=O)c1cc2ccc(NC3CC3)cc2n1C(=O)[N-]CC(=O)[O-] (protonated)
[NH-]C(=O)c1cc2ccc(NC3CC3)cc2n1C(=O)[N-]CC(=O)[O-] (3D coordinates assigned)
[NH-]C(=O)c1cc2ccc(NC3CC3)cc2n1C(=O)[N-]CC(=O)[O-] (nonaromatic ring conformer: 337.94015443540064 kcal/mol)

>  <smiles>  (26) 
NC(=O)c1cc2ccc(NC3CC3)cc2n1C(=O)NCC(=O)O

>  <score_type>  (26) 
oracle

>  <origin>  (26) 
adg

>  <m_score__min__energy>  (26) 
-7.4199999999999999

>  <m_primary>  (26) 
energy

$$$$
27:0
     RDKit          3D

 44 45  0  0  0  0  0  0  0  0999 V2000
  148.3950  155.2650  132.6790 C   0  0  0  0  0  0  0  0  0  0  0  0
  147.8940  156.6580  132.9170 C   0  0  0  0  0  0  0  0  0  0  0  0
  148.8030  157.7440  132.9420 C   0  0  0  0  0  0  0  0  0  0  0  0
  148.3430  159.0580  133.1410 C   0  0  0  0  0  0  0  0  0  0  0  0
  146.9730  159.2530  133.2900 C   0  0  0  0  0  0  0  0  0  0  0  0
  146.2660  160.4110  133.5190 C   0  0  0  0  0  0  0  0  0  0  0  0
  144.9320  160.0200  133.5890 C   0  0  0  0  0  0  0  0  0  0  0  0
  143.8130  160.9720  133.7420 C   0  0  0  0  0  0  0  0  0  0  0  0
  142.4890  160.4820  133.9460 N   0  0  0  0  0  0  0  0  0  0  0  0
  144.0190  162.2130  133.7370 O   0  0  0  0  0  0  0  0  0  0  0  0
  144.8160  158.6720  133.4170 N   0  0  0  0  0  0  0  0  0  0  0  0
  143.6240  157.8760  133.5200 C   0  0  0  0  0  0  0  0  0  0  0  0
  142.7280  157.9640  132.6360 O   0  0  0  0  0  0  0  0  0  0  0  0
  143.4730  156.9850  134.5860 O   0  0  0  0  0  0  0  0  0  0  0  0
  142.7850  155.7440  134.4670 C   0  0  0  0  0  0  0  0  0  0  0  0
  141.4190  155.9270  134.8200 O   0  0  0  0  0  0  0  0  0  0  0  0
  140.4090  156.1000  133.8680 C   0  0  0  0  0  0  0  0  0  0  0  0
  140.0500  155.1400  133.1310 O   0  0  0  0  0  0  0  0  0  0  0  0
  139.7650  157.4470  133.7030 C   0  0  1  0  0  0  0  0  0  0  0  0
  140.6960  158.4860  134.1450 N   0  0  0  0  0  0  0  0  0  0  0  0
  139.3750  157.6890  132.2280 C   0  0  0  0  0  0  0  0  0  0  0  0
  138.3950  158.8560  132.0250 C   0  0  0  0  0  0  0  0  0  0  0  0
  139.0980  160.1140  131.6160 C   0  0  0  0  0  0  0  0  0  0  0  0
  140.1330  160.4870  132.2270 O   0  0  0  0  0  0  0  0  0  0  0  0
  138.5880  160.8930  130.5850 O   0  0  0  0  0  0  0  0  0  0  0  0
  146.0760  158.2170  133.2350 C   0  0  0  0  0  0  0  0  0  0  0  0
  146.5090  156.8970  133.0570 C   0  0  0  0  0  0  0  0  0  0  0  0
  148.5732  154.7694  133.6447 H   0  0  0  0  0  0  0  0  0  0  0  0
  147.6445  154.6978  132.1088 H   0  0  0  0  0  0  0  0  0  0  0  0
  149.3348  155.3058  132.1088 H   0  0  0  0  0  0  0  0  0  0  0  0
  149.8784  157.5579  132.8045 H   0  0  0  0  0  0  0  0  0  0  0  0
  149.0439  159.9050  133.1778 H   0  0  0  0  0  0  0  0  0  0  0  0
  146.6692  161.4290  133.6243 H   0  0  0  0  0  0  0  0  0  0  0  0
  142.0040  159.9240  133.2090 H   0  0  0  0  0  0  0  0  0  0  0  0
  142.8513  155.3853  133.4292 H   0  0  0  0  0  0  0  0  0  0  0  0
  143.2429  155.0033  135.1391 H   0  0  0  0  0  0  0  0  0  0  0  0
  138.8509  157.4809  134.3139 H   0  0  0  0  0  0  0  0  0  0  0  0
  140.9660  159.0610  133.3130 H   0  0  0  0  0  0  0  0  0  0  0  0
  141.5770  158.0230  134.4690 H   0  0  0  0  0  0  0  0  0  0  0  0
  140.2913  157.9034  131.6584 H   0  0  0  0  0  0  0  0  0  0  0  0
  138.8638  156.7793  131.8800 H   0  0  0  0  0  0  0  0  0  0  0  0
  137.6733  158.5816  131.2415 H   0  0  0  0  0  0  0  0  0  0  0  0
  137.8890  159.0455  132.9831 H   0  0  0  0  0  0  0  0  0  0  0  0
  145.7881  156.0667  133.0270 H   0  0  0  0  0  0  0  0  0  0  0  0
  1  2  1  0
  2  3  2  0
  3  4  1  0
  4  5  2  0
  5  6  1  0
  6  7  2  0
  7  8  1  0
  8  9  1  0
  8 10  2  0
  7 11  1  0
 11 12  1  0
 12 13  2  0
 12 14  1  0
 14 15  1  0
 15 16  1  0
 16 17  1  0
 17 18  2  0
 17 19  1  0
 19 20  1  0
 19 21  1  0
 21 22  1  0
 22 23  1  0
 23 24  2  0
 23 25  1  0
 11 26  1  0
 26 27  2  0
 27  2  1  0
 26  5  1  0
  1 28  1  0
  1 29  1  0
  1 30  1  0
  3 31  1  0
  4 32  1  0
  6 33  1  0
  9 34  1  0
 15 35  1  0
 15 36  1  0
 19 37  1  1
 20 38  1  0
 20 39  1  0
 21 40  1  0
 21 41  1  0
 22 42  1  0
 22 43  1  0
 27 44  1  0
M  CHG  2   9  -1  25  -1
M  END
>  <UniqueID>  (27) 
27

>  <SMILES>  (27) 
Cc1ccc2cc(C([NH-])=O)n(C(=O)OCOC(=O)[C@@H](N)CCC(=O)[O-])c2c1

>  <Energy>  (27) 
71.79383957900781

>  <Genealogy>  (27) 
Cc1ccc2cc(C([NH-])=O)n(C(=O)OCOC(=O)[C@@H](N)CCC(=O)[O-])c2c1 (protonated)
Cc1ccc2cc(C([NH-])=O)n(C(=O)OCOC(=O)[C@@H](N)CCC(=O)[O-])c2c1 (3D coordinates assigned)
Cc1ccc2cc(C([NH-])=O)n(C(=O)OCOC(=O)[C@@H](N)CCC(=O)[O-])c2c1 (optimized conformer: 71.79383957900781 kcal/mol)

>  <smiles>  (27) 
Cc1ccc2cc(C(N)=O)n(C(=O)OCOC(=O)[C@@H](N)CCC(=O)O)c2c1

>  <score_type>  (27) 
oracle

>  <origin>  (27) 
adg

>  <m_score__min__energy>  (27) 
-6.8799999999999999

>  <m_primary>  (27) 
energy

$$$$
28:0
     RDKit          3D

 49 50  0  0  0  0  0  0  0  0999 V2000
  145.0340  162.0530  134.1190 C   0  0  0  0  0  0  0  0  0  0  0  0
  144.6170  160.6440  133.8290 C   0  0  0  0  0  0  0  0  0  0  0  0
  145.5940  159.6490  133.5890 C   0  0  0  0  0  0  0  0  0  0  0  0
  145.2150  158.3110  133.3750 C   0  0  0  0  0  0  0  0  0  0  0  0
  143.8570  158.0040  133.4120 C   0  0  0  0  0  0  0  0  0  0  0  0
  143.2180  156.7930  133.2830 C   0  0  0  0  0  0  0  0  0  0  0  0
  141.8620  157.0690  133.4460 C   0  0  0  0  0  0  0  0  0  0  0  0
  140.8000  156.0470  133.3340 C   0  0  0  0  0  0  0  0  0  0  0  0
  140.9400  154.8050  134.0150 N   0  0  0  0  0  0  0  0  0  0  0  0
  139.7810  156.2450  132.6220 O   0  0  0  0  0  0  0  0  0  0  0  0
  141.6710  158.4000  133.6620 N   0  0  0  0  0  0  0  0  0  0  0  0
  140.4360  159.0820  133.9290 C   0  0  0  0  0  0  0  0  0  0  0  0
  139.9150  159.8120  133.0410 O   0  0  0  0  0  0  0  0  0  0  0  0
  139.8320  158.9550  135.1830 O   0  0  0  0  0  0  0  0  0  0  0  0
  139.5310  157.6920  135.7690 C   0  0  0  0  0  0  0  0  0  0  0  0
  139.8920  157.7120  137.1450 O   0  0  0  0  0  0  0  0  0  0  0  0
  141.1680  158.0730  137.5830 C   0  0  0  0  0  0  0  0  0  0  0  0
  141.7330  159.1050  137.1400 O   0  0  0  0  0  0  0  0  0  0  0  0
  141.8880  157.1850  138.5450 C   0  0  0  0  0  0  0  0  0  0  0  0
  141.4650  155.7930  138.3510 N   0  0  0  0  0  0  0  0  0  0  0  0
  140.5400  155.1570  139.2960 C   0  0  0  0  0  0  0  0  0  0  0  0
  141.8840  155.0600  137.1830 C   0  0  0  0  0  0  0  0  0  0  0  0
  141.3620  153.9390  136.9200 O   0  0  0  0  0  0  0  0  0  0  0  0
  142.8720  155.5900  136.3460 O   0  0  0  0  0  0  0  0  0  0  0  0
  143.7870  154.7770  135.6180 C   0  0  0  0  0  0  0  0  0  0  0  0
  144.6580  154.1390  136.5190 O   0  0  0  0  0  0  0  0  0  0  0  0
  146.2010  154.0450  135.7990 P   0  0  0  0  0  0  0  0  0  0  0  0
  146.7850  155.4340  135.6590 O   0  0  0  0  0  0  0  0  0  0  0  0
  147.2370  153.0850  136.7340 O   0  0  0  0  0  0  0  0  0  0  0  0
  146.0570  153.3530  134.2610 O   0  0  0  0  0  0  0  0  0  0  0  0
  142.9010  158.9590  133.6390 C   0  0  0  0  0  0  0  0  0  0  0  0
  143.2490  160.2940  133.8710 C   0  0  0  0  0  0  0  0  0  0  0  0
  145.0791  162.2054  135.2075 H   0  0  0  0  0  0  0  0  0  0  0  0
  146.0258  162.2393  133.6813 H   0  0  0  0  0  0  0  0  0  0  0  0
  144.3034  162.7491  133.6813 H   0  0  0  0  0  0  0  0  0  0  0  0
  146.6589  159.9239  133.5696 H   0  0  0  0  0  0  0  0  0  0  0  0
  145.9677  157.5318  133.1844 H   0  0  0  0  0  0  0  0  0  0  0  0
  143.6800  155.8132  133.0915 H   0  0  0  0  0  0  0  0  0  0  0  0
  141.4520  154.7480  134.9220 H   0  0  0  0  0  0  0  0  0  0  0  0
  138.4536  157.4911  135.6750 H   0  0  0  0  0  0  0  0  0  0  0  0
  140.0964  156.9027  135.2520 H   0  0  0  0  0  0  0  0  0  0  0  0
  142.9717  157.2643  138.3739 H   0  0  0  0  0  0  0  0  0  0  0  0
  141.6506  157.4962  139.5730 H   0  0  0  0  0  0  0  0  0  0  0  0
  140.8592  155.3765  140.3255 H   0  0  0  0  0  0  0  0  0  0  0  0
  139.5248  155.5490  139.1355 H   0  0  0  0  0  0  0  0  0  0  0  0
  140.5425  154.0688  139.1355 H   0  0  0  0  0  0  0  0  0  0  0  0
  143.2311  154.0200  135.0454 H   0  0  0  0  0  0  0  0  0  0  0  0
  144.3672  155.4039  134.9249 H   0  0  0  0  0  0  0  0  0  0  0  0
  142.4784  161.0506  134.0804 H   0  0  0  0  0  0  0  0  0  0  0  0
  1  2  1  0
  2  3  2  0
  3  4  1  0
  4  5  2  0
  5  6  1  0
  6  7  2  0
  7  8  1  0
  8  9  1  0
  8 10  2  0
  7 11  1  0
 11 12  1  0
 12 13  2  0
 12 14  1  0
 14 15  1  0
 15 16  1  0
 16 17  1  0
 17 18  2  0
 17 19  1  0
 19 20  1  0
 20 21  1  0
 20 22  1  0
 22 23  2  0
 22 24  1  0
 24 25  1  0
 25 26  1  0
 26 27  1  0
 27 28  2  0
 27 29  1  0
 27 30  1  0
 11 31  1  0
 31 32  2  0
 32  2  1  0
 31  5  1  0
  1 33  1  0
  1 34  1  0
  1 35  1  0
  3 36  1  0
  4 37  1  0
  6 38  1  0
  9 39  1  0
 15 40  1  0
 15 41  1  0
 19 42  1  0
 19 43  1  0
 21 44  1  0
 21 45  1  0
 21 46  1  0
 25 47  1  0
 25 48  1  0
 32 49  1  0
M  CHG  3   9  -1  29  -1  30  -1
M  END
>  <UniqueID>  (28) 
28

>  <SMILES>  (28) 
Cc1ccc2cc(C([NH-])=O)n(C(=O)OCOC(=O)CN(C)C(=O)OCOP(=O)([O-])[O-])c2c1

>  <Energy>  (28) 
74.63884389429518

>  <Genealogy>  (28) 
Cc1ccc2cc(C([NH-])=O)n(C(=O)OCOC(=O)CN(C)C(=O)OCOP(=O)([O-])[O-])c2c1 (protonated)
Cc1ccc2cc(C([NH-])=O)n(C(=O)OCOC(=O)CN(C)C(=O)OCOP(=O)([O-])[O-])c2c1 (3D coordinates assigned)
Cc1ccc2cc(C([NH-])=O)n(C(=O)OCOC(=O)CN(C)C(=O)OCOP(=O)([O-])[O-])c2c1 (optimized conformer: 74.63884389429518 kcal/mol)

>  <smiles>  (28) 
Cc1ccc2cc(C(N)=O)n(C(=O)OCOC(=O)CN(C)C(=O)OCOP(=O)(O)O)c2c1

>  <score_type>  (28) 
oracle

>  <origin>  (28) 
adg

>  <m_score__min__energy>  (28) 
-6.4199999999999999

>  <m_primary>  (28) 
energy

$$$$
29:0
     RDKit          3D

 48 49  0  0  0  0  0  0  0  0999 V2000
  148.8370  156.5530  132.6650 C   0  0  0  0  0  0  0  0  0  0  0  0
  147.9360  157.7130  132.9640 C   0  0  0  0  0  0  0  0  0  0  0  0
  148.4710  159.0200  133.0690 C   0  0  0  0  0  0  0  0  0  0  0  0
  147.6310  160.1170  133.3270 C   0  0  0  0  0  0  0  0  0  0  0  0
  146.2650  159.8790  133.4530 C   0  0  0  0  0  0  0  0  0  0  0  0
  145.2390  160.7510  133.7300 C   0  0  0  0  0  0  0  0  0  0  0  0
  144.0870  159.9710  133.7430 C   0  0  0  0  0  0  0  0  0  0  0  0
  142.7340  160.5250  133.9430 C   0  0  0  0  0  0  0  0  0  0  0  0
  141.7670  159.8450  134.7460 N   0  0  0  0  0  0  0  0  0  0  0  0
  142.4060  161.5870  133.3500 O   0  0  0  0  0  0  0  0  0  0  0  0
  144.3870  158.6640  133.4970 N   0  0  0  0  0  0  0  0  0  0  0  0
  143.4920  157.5390  133.5350 C   0  0  0  0  0  0  0  0  0  0  0  0
  142.3570  157.6600  134.0700 O   0  0  0  0  0  0  0  0  0  0  0  0
  143.8940  156.3170  132.9790 O   0  0  0  0  0  0  0  0  0  0  0  0
  143.4430  155.0560  133.3900 C   0  0  0  0  0  0  0  0  0  0  0  0
  143.0990  154.1800  132.5510 O   0  0  0  0  0  0  0  0  0  0  0  0
  143.3690  154.7520  134.8210 C   0  0  0  0  0  0  0  0  0  0  0  0
  143.8330  153.6630  135.2540 O   0  0  0  0  0  0  0  0  0  0  0  0
  142.7830  155.6740  135.6950 O   0  0  0  0  0  0  0  0  0  0  0  0
  141.7290  155.3240  136.5870 C   0  0  0  0  0  0  0  0  0  0  0  0
  141.3390  156.5340  137.4250 C   0  0  0  0  0  0  0  0  0  0  0  0
  141.1360  157.6910  136.5650 N   0  0  0  0  0  0  0  0  0  0  0  0
  139.8800  157.9700  135.9470 C   0  0  0  0  0  0  0  0  0  0  0  0
  138.8230  157.8620  136.6250 O   0  0  0  0  0  0  0  0  0  0  0  0
  139.8320  158.3650  134.6050 O   0  0  0  0  0  0  0  0  0  0  0  0
  139.0900  157.6680  133.6050 C   0  0  0  0  0  0  0  0  0  0  0  0
  139.8700  156.4590  133.0870 C   0  0  0  0  0  0  0  0  0  0  0  0
  140.5260  155.8080  134.1410 O   0  0  0  0  0  0  0  0  0  0  0  0
  145.7270  158.6230  133.3190 C   0  0  0  0  0  0  0  0  0  0  0  0
  146.5430  157.5100  133.0850 C   0  0  0  0  0  0  0  0  0  0  0  0
  149.1843  156.1059  133.6081 H   0  0  0  0  0  0  0  0  0  0  0  0
  148.2846  155.8000  132.0837 H   0  0  0  0  0  0  0  0  0  0  0  0
  149.7033  156.9019  132.0837 H   0  0  0  0  0  0  0  0  0  0  0  0
  149.5528  159.1780  132.9477 H   0  0  0  0  0  0  0  0  0  0  0  0
  148.0405  161.1331  133.4264 H   0  0  0  0  0  0  0  0  0  0  0  0
  145.3130  161.8346  133.9042 H   0  0  0  0  0  0  0  0  0  0  0  0
  140.8290  160.2730  134.9100 H   0  0  0  0  0  0  0  0  0  0  0  0
  141.9470  158.8840  135.1090 H   0  0  0  0  0  0  0  0  0  0  0  0
  140.8577  154.9850  136.0075 H   0  0  0  0  0  0  0  0  0  0  0  0
  142.0691  154.5163  137.2518 H   0  0  0  0  0  0  0  0  0  0  0  0
  140.4076  156.3160  137.9681 H   0  0  0  0  0  0  0  0  0  0  0  0
  142.1456  156.7529  138.1402 H   0  0  0  0  0  0  0  0  0  0  0  0
  138.1387  157.3241  134.0372 H   0  0  0  0  0  0  0  0  0  0  0  0
  138.9059  158.3528  132.7641 H   0  0  0  0  0  0  0  0  0  0  0  0
  139.1723  155.7572  132.6067 H   0  0  0  0  0  0  0  0  0  0  0  0
  140.6206  156.8051  132.3612 H   0  0  0  0  0  0  0  0  0  0  0  0
  140.9690  156.5140  134.6800 H   0  0  0  0  0  0  0  0  0  0  0  0
  146.1105  156.5024  132.9975 H   0  0  0  0  0  0  0  0  0  0  0  0
  1  2  1  0
  2  3  2  0
  3  4  1  0
  4  5  2  0
  5  6  1  0
  6  7  2  0
  7  8  1  0
  8  9  1  0
  8 10  2  0
  7 11  1  0
 11 12  1  0
 12 13  2  0
 12 14  1  0
 14 15  1  0
 15 16  2  0
 15 17  1  0
 17 18  2  0
 17 19  1  0
 19 20  1  0
 20 21  1  0
 21 22  1  0
 22 23  1  0
 23 24  2  0
 23 25  1  0
 25 26  1  0
 26 27  1  0
 27 28  1  0
 11 29  1  0
 29 30  2  0
 30  2  1  0
 29  5  1  0
  1 31  1  0
  1 32  1  0
  1 33  1  0
  3 34  1  0
  4 35  1  0
  6 36  1  0
  9 37  1  0
  9 38  1  0
 20 39  1  0
 20 40  1  0
 21 41  1  0
 21 42  1  0
 26 43  1  0
 26 44  1  0
 27 45  1  0
 27 46  1  0
 28 47  1  0
 30 48  1  0
M  CHG  1  22  -1
M  END
>  <UniqueID>  (29) 
29

>  <SMILES>  (29) 
Cc1ccc2cc(C(N)=O)n(C(=O)OC(=O)C(=O)OCC[N-]C(=O)OCCO)c2c1

>  <Energy>  (29) 
75.19456191310084

>  <Genealogy>  (29) 
Cc1ccc2cc(C(N)=O)n(C(=O)OC(=O)C(=O)OCC[N-]C(=O)OCCO)c2c1 (protonated)
Cc1ccc2cc(C(N)=O)n(C(=O)OC(=O)C(=O)OCC[N-]C(=O)OCCO)c2c1 (3D coordinates assigned)
Cc1ccc2cc(C(N)=O)n(C(=O)OC(=O)C(=O)OCC[N-]C(=O)OCCO)c2c1 (optimized conformer: 75.19456191310084 kcal/mol)

>  <smiles>  (29) 
Cc1ccc2cc(C(N)=O)n(C(=O)OC(=O)C(=O)OCCNC(=O)OCCO)c2c1

>  <score_type>  (29) 
oracle

>  <origin>  (29) 
adg

>  <m_score__min__energy>  (29) 
-5.3300000000000001

>  <m_primary>  (29) 
energy

$$$$
30:0
     RDKit          3D

 43 44  0  0  0  0  0  0  0  0999 V2000
  145.4520  160.7650  133.7320 C   0  0  0  0  0  0  0  0  0  0  0  0
  146.3860  159.6460  133.3850 C   0  0  0  0  0  0  0  0  0  0  0  0
  147.6610  159.9400  132.8420 C   0  0  0  0  0  0  0  0  0  0  0  0
  148.5660  158.9090  132.5370 C   0  0  0  0  0  0  0  0  0  0  0  0
  148.1630  157.5970  132.7760 C   0  0  0  0  0  0  0  0  0  0  0  0
  148.8470  156.4140  132.6130 C   0  0  0  0  0  0  0  0  0  0  0  0
  147.9710  155.4180  133.0400 C   0  0  0  0  0  0  0  0  0  0  0  0
  148.3200  153.9820  133.0830 C   0  0  0  0  0  0  0  0  0  0  0  0
  147.4110  153.0030  133.5890 N   0  0  0  0  0  0  0  0  0  0  0  0
  149.4350  153.6060  132.6320 O   0  0  0  0  0  0  0  0  0  0  0  0
  146.7910  155.9660  133.4410 N   0  0  0  0  0  0  0  0  0  0  0  0
  145.6800  155.3010  134.0550 C   0  0  0  0  0  0  0  0  0  0  0  0
  145.8400  154.7430  135.1740 O   0  0  0  0  0  0  0  0  0  0  0  0
  144.3950  155.2540  133.4000 N   0  0  0  0  0  0  0  0  0  0  0  0
  143.2770  156.0170  133.9600 C   0  0  0  0  0  0  0  0  0  0  0  0
  144.1840  154.4130  132.2110 C   0  0  0  0  0  0  0  0  0  0  0  0
  143.9540  152.9750  132.6050 C   0  0  0  0  0  0  0  0  0  0  0  0
  144.9390  152.1870  132.5820 O   0  0  0  0  0  0  0  0  0  0  0  0
  142.6480  152.4660  132.9590 N   0  0  0  0  0  0  0  0  0  0  0  0
  141.4560  153.3210  132.9180 C   0  0  0  0  0  0  0  0  0  0  0  0
  142.5180  151.0550  133.3390 C   0  0  0  0  0  0  0  0  0  0  0  0
  146.9290  157.2990  133.2890 C   0  0  0  0  0  0  0  0  0  0  0  0
  146.0200  158.3040  133.6300 C   0  0  0  0  0  0  0  0  0  0  0  0
  145.3773  160.8544  134.8258 H   0  0  0  0  0  0  0  0  0  0  0  0
  145.8360  161.7066  133.3125 H   0  0  0  0  0  0  0  0  0  0  0  0
  144.4570  160.5555  133.3125 H   0  0  0  0  0  0  0  0  0  0  0  0
  147.9456  160.9863  132.6571 H   0  0  0  0  0  0  0  0  0  0  0  0
  149.5606  159.1308  132.1229 H   0  0  0  0  0  0  0  0  0  0  0  0
  149.8688  156.2825  132.2274 H   0  0  0  0  0  0  0  0  0  0  0  0
  147.7140  152.0090  133.6840 H   0  0  0  0  0  0  0  0  0  0  0  0
  146.4090  153.2290  133.7690 H   0  0  0  0  0  0  0  0  0  0  0  0
  143.3246  155.9845  135.0585 H   0  0  0  0  0  0  0  0  0  0  0  0
  143.3397  157.0616  133.6210 H   0  0  0  0  0  0  0  0  0  0  0  0
  142.3271  155.5779  133.6210 H   0  0  0  0  0  0  0  0  0  0  0  0
  143.3056  154.7809  131.6605 H   0  0  0  0  0  0  0  0  0  0  0  0
  145.0824  154.4655  131.5784 H   0  0  0  0  0  0  0  0  0  0  0  0
  141.1346  153.5515  133.9444 H   0  0  0  0  0  0  0  0  0  0  0  0
  141.6934  154.2560  132.3894 H   0  0  0  0  0  0  0  0  0  0  0  0
  140.6465  152.7964  132.3894 H   0  0  0  0  0  0  0  0  0  0  0  0
  142.5102  150.9698  134.4357 H   0  0  0  0  0  0  0  0  0  0  0  0
  141.5788  150.6510  132.9331 H   0  0  0  0  0  0  0  0  0  0  0  0
  143.3676  150.4862  132.9331 H   0  0  0  0  0  0  0  0  0  0  0  0
  145.0459  158.0567  134.0771 H   0  0  0  0  0  0  0  0  0  0  0  0
  1  2  1  0
  2  3  2  0
  3  4  1  0
  4  5  2  0
  5  6  1  0
  6  7  2  0
  7  8  1  0
  8  9  1  0
  8 10  2  0
  7 11  1  0
 11 12  1  0
 12 13  2  0
 12 14  1  0
 14 15  1  0
 14 16  1  0
 16 17  1  0
 17 18  2  0
 17 19  1  0
 19 20  1  0
 19 21  1  0
 11 22  1  0
 22 23  2  0
 23  2  1  0
 22  5  1  0
  1 24  1  0
  1 25  1  0
  1 26  1  0
  3 27  1  0
  4 28  1  0
  6 29  1  0
  9 30  1  0
  9 31  1  0
 15 32  1  0
 15 33  1  0
 15 34  1  0
 16 35  1  0
 16 36  1  0
 20 37  1  0
 20 38  1  0
 20 39  1  0
 21 40  1  0
 21 41  1  0
 21 42  1  0
 23 43  1  0
M  END
>  <UniqueID>  (30) 
30

>  <SMILES>  (30) 
Cc1ccc2cc(C(N)=O)n(C(=O)N(C)CC(=O)N(C)C)c2c1

>  <Energy>  (30) 
75.55871422691864

>  <Genealogy>  (30) 
Cc1ccc2cc(C(N)=O)n(C(=O)N(C)CC(=O)N(C)C)c2c1 (3D coordinates assigned)
Cc1ccc2cc(C(N)=O)n(C(=O)N(C)CC(=O)N(C)C)c2c1 (optimized conformer: 75.55871422691864 kcal/mol)

>  <smiles>  (30) 
Cc1ccc2cc(C(N)=O)n(C(=O)N(C)CC(=O)N(C)C)c2c1

>  <score_type>  (30) 
oracle

>  <origin>  (30) 
adg

>  <m_score__min__energy>  (30) 
-6.6200000000000001

>  <m_primary>  (30) 
energy

$$$$
31:0
     RDKit          3D

 38 39  0  0  0  0  0  0  0  0999 V2000
  142.8790  153.2070  135.0230 N   0  0  0  0  0  0  0  0  0  0  0  0
  142.1190  154.1760  135.7410 C   0  0  0  0  0  0  0  0  0  0  0  0
  141.8000  153.9430  136.9380 O   0  0  0  0  0  0  0  0  0  0  0  0
  141.6740  155.4280  135.0950 C   0  0  0  0  0  0  0  0  0  0  0  0
  142.0680  156.6980  135.5170 C   0  0  0  0  0  0  0  0  0  0  0  0
  141.4040  157.5790  134.6920 C   0  0  0  0  0  0  0  0  0  0  0  0
  141.4290  158.9690  134.6600 C   0  0  0  0  0  0  0  0  0  0  0  0
  140.6590  159.6190  133.6810 C   0  0  0  0  0  0  0  0  0  0  0  0
  139.9020  158.8740  132.7380 C   0  0  0  0  0  0  0  0  0  0  0  0
  139.0490  159.5830  131.7170 C   0  0  0  0  0  0  0  0  0  0  0  0
  137.7230  159.2080  131.8430 F   0  0  0  0  0  0  0  0  0  0  0  0
  139.1510  160.9470  131.9090 F   0  0  0  0  0  0  0  0  0  0  0  0
  139.4660  159.2750  130.4340 F   0  0  0  0  0  0  0  0  0  0  0  0
  139.8870  157.4620  132.8200 C   0  0  0  0  0  0  0  0  0  0  0  0
  140.6480  156.8440  133.8160 C   0  0  0  0  0  0  0  0  0  0  0  0
  140.7990  155.5240  134.0550 N   0  0  0  0  0  0  0  0  0  0  0  0
  140.2190  154.4530  133.2950 C   0  0  0  0  0  0  0  0  0  0  0  0
  139.0010  154.5030  132.9760 O   0  0  0  0  0  0  0  0  0  0  0  0
  141.0280  153.2970  132.8830 C   0  0  0  0  0  0  0  0  0  0  0  0
  142.0940  153.4750  132.2320 O   0  0  0  0  0  0  0  0  0  0  0  0
  140.6010  152.0070  133.2100 O   0  0  0  0  0  0  0  0  0  0  0  0
  140.0020  151.1320  132.2580 C   0  0  0  0  0  0  0  0  0  0  0  0
  140.7650  149.8070  132.2090 C   0  0  0  0  0  0  0  0  0  0  0  0
  142.0920  149.8630  132.9760 C   0  0  0  0  0  0  0  0  0  0  0  0
  142.8280  151.0830  132.6570 N   0  0  0  0  0  0  0  0  0  0  0  0
  142.4560  152.6670  134.2360 H   0  0  0  0  0  0  0  0  0  0  0  0
  142.7615  156.9437  136.3347 H   0  0  0  0  0  0  0  0  0  0  0  0
  142.0330  159.5419  135.3790 H   0  0  0  0  0  0  0  0  0  0  0  0
  140.6422  160.7183  133.6444 H   0  0  0  0  0  0  0  0  0  0  0  0
  139.2899  156.8640  132.1158 H   0  0  0  0  0  0  0  0  0  0  0  0
  138.9580  150.9402  132.5465 H   0  0  0  0  0  0  0  0  0  0  0  0
  140.0352  151.6035  131.2647 H   0  0  0  0  0  0  0  0  0  0  0  0
  140.1352  149.0210  132.6512 H   0  0  0  0  0  0  0  0  0  0  0  0
  140.9976  149.5948  131.1550 H   0  0  0  0  0  0  0  0  0  0  0  0
  141.8848  149.8396  134.0561 H   0  0  0  0  0  0  0  0  0  0  0  0
  142.7038  148.9971  132.6829 H   0  0  0  0  0  0  0  0  0  0  0  0
  142.7470  151.7360  133.4700 H   0  0  0  0  0  0  0  0  0  0  0  0
  142.3440  151.5460  131.8550 H   0  0  0  0  0  0  0  0  0  0  0  0
  1  2  1  0
  2  3  2  0
  2  4  1  0
  4  5  2  0
  5  6  1  0
  6  7  2  0
  7  8  1  0
  8  9  2  0
  9 10  1  0
 10 11  1  0
 10 12  1  0
 10 13  1  0
  9 14  1  0
 14 15  2  0
 15 16  1  0
 16 17  1  0
 17 18  2  0
 17 19  1  0
 19 20  2  0
 19 21  1  0
 21 22  1  0
 22 23  1  0
 23 24  1  0
 24 25  1  0
 16  4  1  0
 15  6  1  0
  1 26  1  0
  5 27  1  0
  7 28  1  0
  8 29  1  0
 14 30  1  0
 22 31  1  0
 22 32  1  0
 23 33  1  0
 23 34  1  0
 24 35  1  0
 24 36  1  0
 25 37  1  0
 25 38  1  0
M  CHG  1   1  -1
M  END
>  <UniqueID>  (31) 
31

>  <SMILES>  (31) 
[NH-]C(=O)c1cc2ccc(C(F)(F)F)cc2n1C(=O)C(=O)OCCCN

>  <Energy>  (31) 
70.57544543451036

>  <Genealogy>  (31) 
[NH-]C(=O)c1cc2ccc(C(F)(F)F)cc2n1C(=O)C(=O)OCCCN (protonated)
[NH-]C(=O)c1cc2ccc(C(F)(F)F)cc2n1C(=O)C(=O)OCCCN (3D coordinates assigned)
[NH-]C(=O)c1cc2ccc(C(F)(F)F)cc2n1C(=O)C(=O)OCCCN (optimized conformer: 70.57544543451036 kcal/mol)

>  <smiles>  (31) 
NCCCOC(=O)C(=O)n1c(C(N)=O)cc2ccc(C(F)(F)F)cc21

>  <score_type>  (31) 
oracle

>  <origin>  (31) 
adg

>  <m_score__min__energy>  (31) 
-5.3600000000000003

>  <m_primary>  (31) 
energy

$$$$
32:0
     RDKit          3D

 41 42  0  0  0  0  0  0  0  0999 V2000
  139.6650  158.2400  133.9800 C   0  0  0  0  0  0  0  0  0  0  0  0
  141.0230  158.4070  134.5380 N   0  0  2  0  0  0  0  0  0  0  0  0
  141.5490  157.0830  134.9560 C   0  0  0  0  0  0  0  0  0  0  0  0
  143.0650  156.9410  134.6970 C   0  0  0  0  0  0  0  0  0  0  0  0
  143.5020  157.7060  133.4780 C   0  0  0  0  0  0  0  0  0  0  0  0
  142.8460  157.6090  132.4050 O   0  0  0  0  0  0  0  0  0  0  0  0
  144.7500  158.4160  133.4790 N   0  0  0  0  0  0  0  0  0  0  0  0
  144.9580  159.7550  133.6260 C   0  0  0  0  0  0  0  0  0  0  0  0
  143.9110  160.7970  133.6600 C   0  0  0  0  0  0  0  0  0  0  0  0
  142.5580  160.4850  133.3410 N   0  0  0  0  0  0  0  0  0  0  0  0
  144.2230  161.9860  133.9360 O   0  0  0  0  0  0  0  0  0  0  0  0
  146.3230  160.0330  133.6660 C   0  0  0  0  0  0  0  0  0  0  0  0
  146.9480  158.8130  133.5310 C   0  0  0  0  0  0  0  0  0  0  0  0
  148.3020  158.4990  133.4980 C   0  0  0  0  0  0  0  0  0  0  0  0
  148.6610  157.1460  133.3620 C   0  0  0  0  0  0  0  0  0  0  0  0
  147.6670  156.1360  133.2820 C   0  0  0  0  0  0  0  0  0  0  0  0
  148.0650  154.6940  133.0930 C   0  0  0  0  0  0  0  0  0  0  0  0
  148.4210  154.1230  134.3020 F   0  0  0  0  0  0  0  0  0  0  0  0
  146.9960  153.9940  132.5620 F   0  0  0  0  0  0  0  0  0  0  0  0
  149.1430  154.5930  132.2320 F   0  0  0  0  0  0  0  0  0  0  0  0
  146.3010  156.5010  133.2940 C   0  0  0  0  0  0  0  0  0  0  0  0
  145.9760  157.8560  133.4190 C   0  0  0  0  0  0  0  0  0  0  0  0
  140.9980  159.3570  135.6790 C   0  0  0  0  0  0  0  0  0  0  0  0
  140.6470  158.6710  136.9690 C   0  0  0  0  0  0  0  0  0  0  0  0
  141.3740  158.8230  137.9860 O   0  0  0  0  0  0  0  0  0  0  0  0
  139.5270  157.8530  137.0390 O   0  0  0  0  0  0  0  0  0  0  0  0
  138.9393  158.1508  134.8018 H   0  0  0  0  0  0  0  0  0  0  0  0
  139.4127  159.1139  133.3614 H   0  0  0  0  0  0  0  0  0  0  0  0
  139.6320  157.3310  133.3614 H   0  0  0  0  0  0  0  0  0  0  0  0
  141.6330  158.7910  133.7770 H   0  0  0  0  0  0  0  0  0  0  0  0
  141.3610  156.9523  136.0319 H   0  0  0  0  0  0  0  0  0  0  0  0
  141.0344  156.3152  134.3597 H   0  0  0  0  0  0  0  0  0  0  0  0
  143.6121  157.3234  135.5714 H   0  0  0  0  0  0  0  0  0  0  0  0
  143.2825  155.8763  134.5263 H   0  0  0  0  0  0  0  0  0  0  0  0
  142.3270  159.7160  132.6740 H   0  0  0  0  0  0  0  0  0  0  0  0
  146.8000  161.0175  133.7809 H   0  0  0  0  0  0  0  0  0  0  0  0
  149.0685  159.2842  133.5758 H   0  0  0  0  0  0  0  0  0  0  0  0
  149.7242  156.8674  133.3171 H   0  0  0  0  0  0  0  0  0  0  0  0
  145.5132  155.7383  133.2072 H   0  0  0  0  0  0  0  0  0  0  0  0
  141.9915  159.8183  135.7800 H   0  0  0  0  0  0  0  0  0  0  0  0
  140.2284  160.1160  135.4751 H   0  0  0  0  0  0  0  0  0  0  0  0
  1  2  1  0
  2  3  1  0
  3  4  1  0
  4  5  1  0
  5  6  2  0
  5  7  1  0
  7  8  1  0
  8  9  1  0
  9 10  1  0
  9 11  2  0
  8 12  2  0
 12 13  1  0
 13 14  2  0
 14 15  1  0
 15 16  2  0
 16 17  1  0
 17 18  1  0
 17 19  1  0
 17 20  1  0
 16 21  1  0
 21 22  2  0
  2 23  1  0
 23 24  1  0
 24 25  2  0
 24 26  1  0
 22  7  1  0
 22 13  1  0
  1 27  1  0
  1 28  1  0
  1 29  1  0
  2 30  1  6
  3 31  1  0
  3 32  1  0
  4 33  1  0
  4 34  1  0
 10 35  1  0
 12 36  1  0
 14 37  1  0
 15 38  1  0
 21 39  1  0
 23 40  1  0
 23 41  1  0
M  CHG  3   2   1  10  -1  26  -1
M  END
>  <UniqueID>  (32) 
32

>  <SMILES>  (32) 
C[N@H+](CCC(=O)n1c(C([NH-])=O)cc2ccc(C(F)(F)F)cc21)CC(=O)[O-]

>  <Energy>  (32) 
82.95060335823233

>  <Genealogy>  (32) 
C[NH+](CCC(=O)n1c(C([NH-])=O)cc2ccc(C(F)(F)F)cc21)CC(=O)[O-] (protonated)
C[N@H+](CCC(=O)n1c(C([NH-])=O)cc2ccc(C(F)(F)F)cc21)CC(=O)[O-] (chirality)
C[N@H+](CCC(=O)n1c(C([NH-])=O)cc2ccc(C(F)(F)F)cc21)CC(=O)[O-] (3D coordinates assigned)
C[N@H+](CCC(=O)n1c(C([NH-])=O)cc2ccc(C(F)(F)F)cc21)CC(=O)[O-] (optimized conformer: 82.95060335823233 kcal/mol)

>  <smiles>  (32) 
CN(CCC(=O)n1c(C(N)=O)cc2ccc(C(F)(F)F)cc21)CC(=O)O

>  <score_type>  (32) 
oracle

>  <origin>  (32) 
adg

>  <m_score__min__energy>  (32) 
-5.9199999999999999

>  <m_primary>  (32) 
energy

$$$$
33:0
     RDKit          3D

 37 38  0  0  0  0  0  0  0  0999 V2000
  149.5280  157.3950  131.8530 N   0  0  0  0  0  0  0  0  0  0  0  0
  149.1250  158.7120  132.2330 C   0  0  0  0  0  0  0  0  0  0  0  0
  149.9610  159.6520  132.1750 O   0  0  0  0  0  0  0  0  0  0  0  0
  147.7590  158.9690  132.7330 C   0  0  0  0  0  0  0  0  0  0  0  0
  147.2820  160.2340  133.0710 C   0  0  0  0  0  0  0  0  0  0  0  0
  145.9540  160.0510  133.3800 C   0  0  0  0  0  0  0  0  0  0  0  0
  144.9980  160.9730  133.7960 C   0  0  0  0  0  0  0  0  0  0  0  0
  143.7050  160.5010  134.0770 C   0  0  0  0  0  0  0  0  0  0  0  0
  143.3950  159.1240  133.9450 C   0  0  0  0  0  0  0  0  0  0  0  0
  142.0170  158.6200  134.2630 C   0  0  0  0  0  0  0  0  0  0  0  0
  141.1280  159.6790  134.2870 F   0  0  0  0  0  0  0  0  0  0  0  0
  142.0210  157.9970  135.4980 F   0  0  0  0  0  0  0  0  0  0  0  0
  144.3930  158.2180  133.5210 C   0  0  0  0  0  0  0  0  0  0  0  0
  145.6680  158.7190  133.2300 C   0  0  0  0  0  0  0  0  0  0  0  0
  146.7670  158.0400  132.8310 N   0  0  0  0  0  0  0  0  0  0  0  0
  146.8790  156.6170  132.6560 C   0  0  0  0  0  0  0  0  0  0  0  0
  147.0010  156.1350  131.4970 O   0  0  0  0  0  0  0  0  0  0  0  0
  146.8120  155.7710  133.7720 O   0  0  0  0  0  0  0  0  0  0  0  0
  147.9390  155.0680  134.3020 C   0  0  0  0  0  0  0  0  0  0  0  0
  148.4150  153.9440  133.3630 C   0  0  2  0  0  0  0  0  0  0  0  0
  148.8800  154.4730  132.1470 O   0  0  0  0  0  0  0  0  0  0  0  0
  147.3490  152.8660  133.1170 C   0  0  0  0  0  0  0  0  0  0  0  0
  146.3710  153.3480  132.2390 O   0  0  0  0  0  0  0  0  0  0  0  0
  150.5070  157.2180  131.5360 H   0  0  0  0  0  0  0  0  0  0  0  0
  148.8490  156.6030  131.8460 H   0  0  0  0  0  0  0  0  0  0  0  0
  147.8469  161.1777  133.0873 H   0  0  0  0  0  0  0  0  0  0  0  0
  145.2473  162.0392  133.9016 H   0  0  0  0  0  0  0  0  0  0  0  0
  142.9261  161.2063  134.4024 H   0  0  0  0  0  0  0  0  0  0  0  0
  141.7096  157.8998  133.4905 H   0  0  0  0  0  0  0  0  0  0  0  0
  144.1737  157.1447  133.4218 H   0  0  0  0  0  0  0  0  0  0  0  0
  148.7641  155.7804  134.4492 H   0  0  0  0  0  0  0  0  0  0  0  0
  147.6342  154.6079  135.2535 H   0  0  0  0  0  0  0  0  0  0  0  0
  149.2478  153.4429  133.8781 H   0  0  0  0  0  0  0  0  0  0  0  0
  148.1460  154.3940  131.4850 H   0  0  0  0  0  0  0  0  0  0  0  0
  147.8253  151.9768  132.6784 H   0  0  0  0  0  0  0  0  0  0  0  0
  146.8753  152.6031  134.0743 H   0  0  0  0  0  0  0  0  0  0  0  0
  146.6480  154.2710  131.9980 H   0  0  0  0  0  0  0  0  0  0  0  0
  1  2  1  0
  2  3  2  0
  2  4  1  0
  4  5  2  0
  5  6  1  0
  6  7  2  0
  7  8  1  0
  8  9  2  0
  9 10  1  0
 10 11  1  0
 10 12  1  0
  9 13  1  0
 13 14  2  0
 14 15  1  0
 15 16  1  0
 16 17  2  0
 16 18  1  0
 18 19  1  0
 19 20  1  0
 20 21  1  0
 20 22  1  0
 22 23  1  0
 15  4  1  0
 14  6  1  0
  1 24  1  0
  1 25  1  0
  5 26  1  0
  7 27  1  0
  8 28  1  0
 10 29  1  0
 13 30  1  0
 19 31  1  0
 19 32  1  0
 20 33  1  1
 21 34  1  0
 22 35  1  0
 22 36  1  0
 23 37  1  0
M  END
>  <UniqueID>  (33) 
33

>  <SMILES>  (33) 
NC(=O)c1cc2ccc(C(F)F)cc2n1C(=O)OC[C@H](O)CO

>  <Energy>  (33) 
72.85119578820647

>  <Genealogy>  (33) 
NC(=O)c1cc2ccc(C(F)F)cc2n1C(=O)OC[C@H](O)CO (3D coordinates assigned)
NC(=O)c1cc2ccc(C(F)F)cc2n1C(=O)OC[C@H](O)CO (optimized conformer: 72.85119578820647 kcal/mol)

>  <smiles>  (33) 
NC(=O)c1cc2ccc(C(F)F)cc2n1C(=O)OC[C@H](O)CO

>  <score_type>  (33) 
oracle

>  <origin>  (33) 
adg

>  <m_score__min__energy>  (33) 
-5.2000000000000002

>  <m_primary>  (33) 
energy

$$$$
34:0
     RDKit          3D

 38 39  0  0  0  0  0  0  0  0999 V2000
  148.3980  160.9490  131.0190 C   0  0  0  0  0  0  0  0  0  0  0  0
  148.0920  159.7210  131.8210 C   0  0  0  0  0  0  0  0  0  0  0  0
  149.1340  158.8320  132.1860 C   0  0  0  0  0  0  0  0  0  0  0  0
  148.8630  157.6890  132.9570 C   0  0  0  0  0  0  0  0  0  0  0  0
  147.5500  157.4770  133.3700 C   0  0  0  0  0  0  0  0  0  0  0  0
  146.9990  156.4330  134.0790 C   0  0  0  0  0  0  0  0  0  0  0  0
  145.6400  156.7280  134.1720 C   0  0  0  0  0  0  0  0  0  0  0  0
  144.6550  155.8510  134.8410 C   0  0  0  0  0  0  0  0  0  0  0  0
  143.2510  156.0130  134.6370 N   0  0  0  0  0  0  0  0  0  0  0  0
  145.0610  154.9660  135.6400 O   0  0  0  0  0  0  0  0  0  0  0  0
  145.3640  157.9080  133.5510 N   0  0  0  0  0  0  0  0  0  0  0  0
  144.0730  158.4750  133.2880 C   0  0  0  0  0  0  0  0  0  0  0  0
  143.2950  157.8870  132.4880 O   0  0  0  0  0  0  0  0  0  0  0  0
  143.6580  159.6960  133.9340 N   0  0  0  0  0  0  0  0  0  0  0  0
  144.6280  160.7800  134.1230 C   0  0  0  0  0  0  0  0  0  0  0  0
  142.3030  159.8080  134.4910 C   0  0  0  0  0  0  0  0  0  0  0  0
  142.1510  158.8900  135.7060 C   0  0  0  0  0  0  0  0  0  0  0  0
  140.9060  158.0690  135.5940 C   0  0  0  0  0  0  0  0  0  0  0  0
  140.9720  156.8650  135.2310 O   0  0  0  0  0  0  0  0  0  0  0  0
  139.6770  158.6170  135.9400 O   0  0  0  0  0  0  0  0  0  0  0  0
  146.5390  158.3470  133.0540 C   0  0  0  0  0  0  0  0  0  0  0  0
  146.7740  159.4780  132.2650 C   0  0  0  0  0  0  0  0  0  0  0  0
  148.6071  161.7882  131.6987 H   0  0  0  0  0  0  0  0  0  0  0  0
  149.2773  160.7630  130.3847 H   0  0  0  0  0  0  0  0  0  0  0  0
  147.5343  161.1974  130.3847 H   0  0  0  0  0  0  0  0  0  0  0  0
  150.1648  159.0390  131.8625 H   0  0  0  0  0  0  0  0  0  0  0  0
  149.6630  156.9836  133.2260 H   0  0  0  0  0  0  0  0  0  0  0  0
  147.5203  155.5537  134.4853 H   0  0  0  0  0  0  0  0  0  0  0  0
  142.5800  155.3410  135.0710 H   0  0  0  0  0  0  0  0  0  0  0  0
  142.8650  156.8490  134.1470 H   0  0  0  0  0  0  0  0  0  0  0  0
  144.7814  160.9514  135.1987 H   0  0  0  0  0  0  0  0  0  0  0  0
  145.5843  160.5018  133.6560 H   0  0  0  0  0  0  0  0  0  0  0  0
  144.2457  161.6997  133.6560 H   0  0  0  0  0  0  0  0  0  0  0  0
  142.1214  160.8487  134.7975 H   0  0  0  0  0  0  0  0  0  0  0  0
  141.5744  159.5089  133.7230 H   0  0  0  0  0  0  0  0  0  0  0  0
  143.0216  158.2201  135.7639 H   0  0  0  0  0  0  0  0  0  0  0  0
  142.0863  159.5098  136.6124 H   0  0  0  0  0  0  0  0  0  0  0  0
  145.9535  160.1601  131.9975 H   0  0  0  0  0  0  0  0  0  0  0  0
  1  2  1  0
  2  3  2  0
  3  4  1  0
  4  5  2  0
  5  6  1  0
  6  7  2  0
  7  8  1  0
  8  9  1  0
  8 10  2  0
  7 11  1  0
 11 12  1  0
 12 13  2  0
 12 14  1  0
 14 15  1  0
 14 16  1  0
 16 17  1  0
 17 18  1  0
 18 19  2  0
 18 20  1  0
 11 21  1  0
 21 22  2  0
 22  2  1  0
 21  5  1  0
  1 23  1  0
  1 24  1  0
  1 25  1  0
  3 26  1  0
  4 27  1  0
  6 28  1  0
  9 29  1  0
  9 30  1  0
 15 31  1  0
 15 32  1  0
 15 33  1  0
 16 34  1  0
 16 35  1  0
 17 36  1  0
 17 37  1  0
 22 38  1  0
M  CHG  1  20  -1
M  END
>  <UniqueID>  (34) 
34

>  <SMILES>  (34) 
Cc1ccc2cc(C(N)=O)n(C(=O)N(C)CCC(=O)[O-])c2c1

>  <Energy>  (34) 
71.94639638031634

>  <Genealogy>  (34) 
Cc1ccc2cc(C(N)=O)n(C(=O)N(C)CCC(=O)[O-])c2c1 (protonated)
Cc1ccc2cc(C(N)=O)n(C(=O)N(C)CCC(=O)[O-])c2c1 (3D coordinates assigned)
Cc1ccc2cc(C(N)=O)n(C(=O)N(C)CCC(=O)[O-])c2c1 (optimized conformer: 71.94639638031634 kcal/mol)

>  <smiles>  (34) 
Cc1ccc2cc(C(N)=O)n(C(=O)N(C)CCC(=O)O)c2c1

>  <score_type>  (34) 
oracle

>  <origin>  (34) 
adg

>  <m_score__min__energy>  (34) 
-6.79

>  <m_primary>  (34) 
energy

$$$$
35:0
     RDKit          3D

 45 47  0  0  0  0  0  0  0  0999 V2000
  140.7210  159.0430  135.0570 C   0  0  0  0  0  0  0  0  0  0  0  0
  140.6900  158.6410  133.5690 C   0  0  0  0  0  0  0  0  0  0  0  0
  140.3090  159.8440  132.6880 C   0  0  0  0  0  0  0  0  0  0  0  0
  139.6440  157.5350  133.3750 C   0  0  0  0  0  0  0  0  0  0  0  0
  141.9560  158.1000  133.1650 O   0  0  0  0  0  0  0  0  0  0  0  0
  143.2090  158.7040  133.3410 C   0  0  0  0  0  0  0  0  0  0  0  0
  143.3340  159.9570  133.3460 O   0  0  0  0  0  0  0  0  0  0  0  0
  144.3630  157.8790  133.5520 N   0  0  0  0  0  0  0  0  0  0  0  0
  144.4100  156.6330  134.1090 C   0  0  0  0  0  0  0  0  0  0  0  0
  143.2260  155.8060  134.4630 C   0  0  0  0  0  0  0  0  0  0  0  0
  142.1670  155.5920  133.5300 N   0  0  0  0  0  0  0  0  0  0  0  0
  143.1250  155.3050  135.6140 O   0  0  0  0  0  0  0  0  0  0  0  0
  145.7370  156.2130  134.2240 C   0  0  0  0  0  0  0  0  0  0  0  0
  146.4970  157.2460  133.7230 C   0  0  0  0  0  0  0  0  0  0  0  0
  147.8790  157.3770  133.6310 C   0  0  0  0  0  0  0  0  0  0  0  0
  148.3920  158.5780  133.1180 C   0  0  0  0  0  0  0  0  0  0  0  0
  147.5230  159.6330  132.7200 C   0  0  0  0  0  0  0  0  0  0  0  0
  148.0310  160.8870  132.2260 N   0  0  0  0  0  0  0  0  0  0  0  0
  148.9130  160.9900  131.0600 C   0  0  0  0  0  0  0  0  0  0  0  0
  148.4610  160.1310  129.9040 C   0  0  0  0  0  0  0  0  0  0  0  0
  149.5860  159.2910  129.9970 O   0  0  0  0  0  0  0  0  0  0  0  0
  150.0770  160.0270  131.0920 C   0  0  0  0  0  0  0  0  0  0  0  0
  146.1270  159.4540  132.8250 C   0  0  0  0  0  0  0  0  0  0  0  0
  145.6440  158.2380  133.3240 C   0  0  0  0  0  0  0  0  0  0  0  0
  140.6514  158.1406  135.6821 H   0  0  0  0  0  0  0  0  0  0  0  0
  141.6623  159.5686  135.2753 H   0  0  0  0  0  0  0  0  0  0  0  0
  139.8713  159.7067  135.2753 H   0  0  0  0  0  0  0  0  0  0  0  0
  140.0390  160.6966  133.3285 H   0  0  0  0  0  0  0  0  0  0  0  0
  141.1641  160.1188  132.0529 H   0  0  0  0  0  0  0  0  0  0  0  0
  139.4516  159.5764  132.0529 H   0  0  0  0  0  0  0  0  0  0  0  0
  139.3040  157.1755  134.3574 H   0  0  0  0  0  0  0  0  0  0  0  0
  138.7866  157.9355  132.8143 H   0  0  0  0  0  0  0  0  0  0  0  0
  140.0917  156.7012  132.8143 H   0  0  0  0  0  0  0  0  0  0  0  0
  142.1800  156.0070  132.5710 H   0  0  0  0  0  0  0  0  0  0  0  0
  141.3500  155.0010  133.7980 H   0  0  0  0  0  0  0  0  0  0  0  0
  146.0992  155.2569  134.6299 H   0  0  0  0  0  0  0  0  0  0  0  0
  148.5484  156.5646  133.9503 H   0  0  0  0  0  0  0  0  0  0  0  0
  149.4803  158.7061  133.0221 H   0  0  0  0  0  0  0  0  0  0  0  0
  147.7140  161.7670  132.6970 H   0  0  0  0  0  0  0  0  0  0  0  0
  149.0251  162.0834  131.0164 H   0  0  0  0  0  0  0  0  0  0  0  0
  147.5098  159.6110  130.0907 H   0  0  0  0  0  0  0  0  0  0  0  0
  148.2358  160.6123  128.9409 H   0  0  0  0  0  0  0  0  0  0  0  0
  150.1364  159.4422  132.0218 H   0  0  0  0  0  0  0  0  0  0  0  0
  151.1004  160.4278  131.0476 H   0  0  0  0  0  0  0  0  0  0  0  0
  145.4336  160.2522  132.5215 H   0  0  0  0  0  0  0  0  0  0  0  0
  1  2  1  0
  2  3  1  0
  2  4  1  0
  2  5  1  0
  5  6  1  0
  6  7  2  0
  6  8  1  0
  8  9  1  0
  9 10  1  0
 10 11  1  0
 10 12  2  0
  9 13  2  0
 13 14  1  0
 14 15  2  0
 15 16  1  0
 16 17  2  0
 17 18  1  0
 18 19  1  0
 19 20  1  0
 20 21  1  0
 21 22  1  0
 17 23  1  0
 23 24  2  0
 24  8  1  0
 24 14  1  0
 22 19  1  0
  1 25  1  0
  1 26  1  0
  1 27  1  0
  3 28  1  0
  3 29  1  0
  3 30  1  0
  4 31  1  0
  4 32  1  0
  4 33  1  0
 11 34  1  0
 11 35  1  0
 13 36  1  0
 15 37  1  0
 16 38  1  0
 18 39  1  0
 19 40  1  0
 20 41  1  0
 20 42  1  0
 22 43  1  0
 22 44  1  0
 23 45  1  0
M  END
>  <UniqueID>  (35) 
35

>  <SMILES>  (35) 
CC(C)(C)OC(=O)n1c(C(N)=O)cc2ccc(NC3COC3)cc21

>  <Energy>  (35) 
143.75266634858846

>  <Genealogy>  (35) 
CC(C)(C)OC(=O)n1c(C(N)=O)cc2ccc(NC3COC3)cc21 (3D coordinates assigned)
CC(C)(C)OC(=O)n1c(C(N)=O)cc2ccc(NC3COC3)cc21 (nonaromatic ring conformer: 143.75266634858846 kcal/mol)

>  <smiles>  (35) 
CC(C)(C)OC(=O)n1c(C(N)=O)cc2ccc(NC3COC3)cc21

>  <score_type>  (35) 
oracle

>  <origin>  (35) 
adg

>  <m_score__min__energy>  (35) 
-8.1699999999999999

>  <m_primary>  (35) 
energy

$$$$
36:0
     RDKit          3D

 30 31  0  0  0  0  0  0  0  0999 V2000
  141.3770  159.0320  133.7640 N   0  0  0  0  0  0  0  0  0  0  0  0
  142.3490  160.0720  133.8350 C   0  0  0  0  0  0  0  0  0  0  0  0
  141.9790  161.2460  134.0990 O   0  0  0  0  0  0  0  0  0  0  0  0
  143.7710  159.7710  133.5700 C   0  0  0  0  0  0  0  0  0  0  0  0
  144.7820  160.7310  133.5660 C   0  0  0  0  0  0  0  0  0  0  0  0
  145.9500  160.0290  133.3620 C   0  0  0  0  0  0  0  0  0  0  0  0
  147.2640  160.4790  133.2610 C   0  0  0  0  0  0  0  0  0  0  0  0
  148.2700  159.5250  133.0300 C   0  0  0  0  0  0  0  0  0  0  0  0
  147.9460  158.1510  132.9020 C   0  0  0  0  0  0  0  0  0  0  0  0
  148.9780  157.1920  132.6590 N   0  0  0  0  0  0  0  0  0  0  0  0
  146.6040  157.7320  133.0110 C   0  0  0  0  0  0  0  0  0  0  0  0
  145.6260  158.7020  133.2490 C   0  0  0  0  0  0  0  0  0  0  0  0
  144.2930  158.5300  133.3690 N   0  0  0  0  0  0  0  0  0  0  0  0
  143.5930  157.2840  133.2430 C   0  0  0  0  0  0  0  0  0  0  0  0
  142.8870  157.0660  132.2220 O   0  0  0  0  0  0  0  0  0  0  0  0
  143.5980  156.2930  134.3660 C   0  0  0  0  0  0  0  0  0  0  0  0
  141.9140  156.0840  135.0180 P   0  0  2  0  0  0  0  0  0  0  0  0
  141.5870  157.2200  135.9590 O   0  0  0  0  0  0  0  0  0  0  0  0
  141.8040  154.6150  135.8500 O   0  0  0  0  0  0  0  0  0  0  0  0
  140.8110  156.0860  133.7360 O   0  0  0  0  0  0  0  0  0  0  0  0
  141.6530  158.0310  133.8780 H   0  0  0  0  0  0  0  0  0  0  0  0
  144.6709  161.8174  133.6976 H   0  0  0  0  0  0  0  0  0  0  0  0
  147.5070  161.5474  133.3589 H   0  0  0  0  0  0  0  0  0  0  0  0
  149.3184  159.8476  132.9478 H   0  0  0  0  0  0  0  0  0  0  0  0
  149.6150  156.8870  133.4280 H   0  0  0  0  0  0  0  0  0  0  0  0
  149.1100  156.7810  131.7090 H   0  0  0  0  0  0  0  0  0  0  0  0
  146.3340  156.6703  132.9114 H   0  0  0  0  0  0  0  0  0  0  0  0
  143.9682  155.3254  133.9963 H   0  0  0  0  0  0  0  0  0  0  0  0
  144.2533  156.6608  135.1693 H   0  0  0  0  0  0  0  0  0  0  0  0
  140.9960  156.9260  133.2450 H   0  0  0  0  0  0  0  0  0  0  0  0
  1  2  1  0
  2  3  2  0
  2  4  1  0
  4  5  2  0
  5  6  1  0
  6  7  2  0
  7  8  1  0
  8  9  2  0
  9 10  1  0
  9 11  1  0
 11 12  2  0
 12 13  1  0
 13 14  1  0
 14 15  2  0
 14 16  1  0
 16 17  1  0
 17 18  2  0
 17 19  1  1
 17 20  1  0
 13  4  1  0
 12  6  1  0
  1 21  1  0
  5 22  1  0
  7 23  1  0
  8 24  1  0
 10 25  1  0
 10 26  1  0
 11 27  1  0
 16 28  1  0
 16 29  1  0
 20 30  1  0
M  CHG  2   1  -1  19  -1
M  END
>  <UniqueID>  (36) 
36

>  <SMILES>  (36) 
[NH-]C(=O)c1cc2ccc(N)cc2n1C(=O)C[P@](=O)([O-])O

>  <Energy>  (36) 
62.45091927076555

>  <Genealogy>  (36) 
[NH-]C(=O)c1cc2ccc(N)cc2n1C(=O)CP(=O)([O-])O (protonated)
[NH-]C(=O)c1cc2ccc(N)cc2n1C(=O)C[P@](=O)([O-])O (chirality)
[NH-]C(=O)c1cc2ccc(N)cc2n1C(=O)C[P@](=O)([O-])O (3D coordinates assigned)
[NH-]C(=O)c1cc2ccc(N)cc2n1C(=O)C[P@](=O)([O-])O (optimized conformer: 62.45091927076555 kcal/mol)

>  <smiles>  (36) 
NC(=O)c1cc2ccc(N)cc2n1C(=O)CP(=O)(O)O

>  <score_type>  (36) 
oracle

>  <origin>  (36) 
adg

>  <m_score__min__energy>  (36) 
-5.75

>  <m_primary>  (36) 
energy

$$$$
37:0
     RDKit          3D

 36 37  0  0  0  0  0  0  0  0999 V2000
  139.1930  157.8640  134.0420 C   0  0  0  0  0  0  0  0  0  0  0  0
  139.9780  156.8400  134.4060 C   0  0  0  0  0  0  0  0  0  0  0  0
  140.5070  156.7690  135.7910 C   0  0  0  0  0  0  0  0  0  0  0  0
  140.5260  157.8000  136.5220 O   0  0  0  0  0  0  0  0  0  0  0  0
  140.9890  155.5550  136.2890 O   0  0  0  0  0  0  0  0  0  0  0  0
  142.3110  155.3890  136.7830 C   0  0  0  0  0  0  0  0  0  0  0  0
  142.7590  153.9920  136.5130 C   0  0  0  0  0  0  0  0  0  0  0  0
  143.9860  153.7160  136.4790 O   0  0  0  0  0  0  0  0  0  0  0  0
  141.8200  152.9800  136.3600 O   0  0  0  0  0  0  0  0  0  0  0  0
  140.3230  155.7870  133.4140 C   0  0  0  0  0  0  0  0  0  0  0  0
  139.4470  155.3680  132.6080 O   0  0  0  0  0  0  0  0  0  0  0  0
  141.6420  155.2190  133.3620 N   0  0  0  0  0  0  0  0  0  0  0  0
  142.8350  155.8770  133.3940 C   0  0  0  0  0  0  0  0  0  0  0  0
  143.0180  157.3300  133.5990 C   0  0  0  0  0  0  0  0  0  0  0  0
  142.9930  157.8960  134.9060 N   0  0  0  0  0  0  0  0  0  0  0  0
  143.2300  158.0790  132.6080 O   0  0  0  0  0  0  0  0  0  0  0  0
  143.8920  154.9750  133.2770 C   0  0  0  0  0  0  0  0  0  0  0  0
  143.3020  153.7350  133.1740 C   0  0  0  0  0  0  0  0  0  0  0  0
  143.8800  152.4770  133.0370 C   0  0  0  0  0  0  0  0  0  0  0  0
  143.0240  151.3660  132.9470 C   0  0  0  0  0  0  0  0  0  0  0  0
  141.6150  151.5280  133.0090 C   0  0  0  0  0  0  0  0  0  0  0  0
  140.7060  150.3340  132.8600 C   0  0  0  0  0  0  0  0  0  0  0  0
  139.4590  150.7600  132.4440 F   0  0  0  0  0  0  0  0  0  0  0  0
  141.2140  149.4450  131.9290 F   0  0  0  0  0  0  0  0  0  0  0  0
  140.5760  149.6670  134.0670 F   0  0  0  0  0  0  0  0  0  0  0  0
  141.0680  152.8270  133.1230 C   0  0  0  0  0  0  0  0  0  0  0  0
  141.9450  153.9100  133.2240 C   0  0  0  0  0  0  0  0  0  0  0  0
  138.8001  157.9182  133.0160 H   0  0  0  0  0  0  0  0  0  0  0  0
  138.9418  158.6500  134.7694 H   0  0  0  0  0  0  0  0  0  0  0  0
  142.9850  156.0965  136.2778 H   0  0  0  0  0  0  0  0  0  0  0  0
  142.3300  155.5825  137.8657 H   0  0  0  0  0  0  0  0  0  0  0  0
  142.5080  157.4090  135.6930 H   0  0  0  0  0  0  0  0  0  0  0  0
  144.9677  155.2050  133.2687 H   0  0  0  0  0  0  0  0  0  0  0  0
  144.9727  152.3557  133.0003 H   0  0  0  0  0  0  0  0  0  0  0  0
  143.4507  150.3592  132.8271 H   0  0  0  0  0  0  0  0  0  0  0  0
  139.9789  152.9811  133.1319 H   0  0  0  0  0  0  0  0  0  0  0  0
  1  2  2  0
  2  3  1  0
  3  4  2  0
  3  5  1  0
  5  6  1  0
  6  7  1  0
  7  8  2  0
  7  9  1  0
  2 10  1  0
 10 11  2  0
 10 12  1  0
 12 13  1  0
 13 14  1  0
 14 15  1  0
 14 16  2  0
 13 17  2  0
 17 18  1  0
 18 19  2  0
 19 20  1  0
 20 21  2  0
 21 22  1  0
 22 23  1  0
 22 24  1  0
 22 25  1  0
 21 26  1  0
 26 27  2  0
 27 12  1  0
 27 18  1  0
  1 28  1  0
  1 29  1  0
  6 30  1  0
  6 31  1  0
 15 32  1  0
 17 33  1  0
 19 34  1  0
 20 35  1  0
 26 36  1  0
M  CHG  2   9  -1  15  -1
M  END
>  <UniqueID>  (37) 
37

>  <SMILES>  (37) 
C=C(C(=O)OCC(=O)[O-])C(=O)n1c(C([NH-])=O)cc2ccc(C(F)(F)F)cc21

>  <Energy>  (37) 
72.50321431409238

>  <Genealogy>  (37) 
C=C(C(=O)OCC(=O)[O-])C(=O)n1c(C([NH-])=O)cc2ccc(C(F)(F)F)cc21 (protonated)
C=C(C(=O)OCC(=O)[O-])C(=O)n1c(C([NH-])=O)cc2ccc(C(F)(F)F)cc21 (3D coordinates assigned)
C=C(C(=O)OCC(=O)[O-])C(=O)n1c(C([NH-])=O)cc2ccc(C(F)(F)F)cc21 (optimized conformer: 72.50321431409238 kcal/mol)

>  <smiles>  (37) 
C=C(C(=O)OCC(=O)O)C(=O)n1c(C(N)=O)cc2ccc(C(F)(F)F)cc21

>  <score_type>  (37) 
oracle

>  <origin>  (37) 
adg

>  <m_score__min__energy>  (37) 
-6.2400000000000002

>  <m_primary>  (37) 
energy

$$$$
38:0
     RDKit          3D

 38 40  0  0  0  0  0  0  0  0999 V2000
  140.9140  158.3710  135.6460 C   0  0  0  0  0  0  0  0  0  0  0  0
  141.2860  158.9080  134.3320 N   0  0  0  0  0  0  0  0  0  0  0  0
  140.2520  159.1670  133.3640 C   0  0  0  0  0  0  0  0  0  0  0  0
  139.3300  158.1670  133.0230 C   0  0  0  0  0  0  0  0  0  0  0  0
  138.3350  158.4160  132.0730 C   0  0  0  0  0  0  0  0  0  0  0  0
  138.2460  159.6700  131.4430 C   0  0  0  0  0  0  0  0  0  0  0  0
  137.2210  159.9220  130.4650 N   0  0  0  0  0  0  0  0  0  0  0  0
  136.0270  159.6550  130.7110 O   0  0  0  0  0  0  0  0  0  0  0  0
  137.5410  160.4630  129.2400 O   0  0  0  0  0  0  0  0  0  0  0  0
  139.1750  160.6680  131.7840 C   0  0  0  0  0  0  0  0  0  0  0  0
  140.1690  160.4190  132.7340 C   0  0  0  0  0  0  0  0  0  0  0  0
  142.6430  159.3390  134.0770 C   0  0  0  0  0  0  0  0  0  0  0  0
  142.9680  160.7200  133.9990 C   0  0  0  0  0  0  0  0  0  0  0  0
  144.2820  161.1370  133.7370 C   0  0  0  0  0  0  0  0  0  0  0  0
  145.2570  160.1590  133.5640 C   0  0  0  0  0  0  0  0  0  0  0  0
  146.5950  160.2860  133.2730 C   0  0  0  0  0  0  0  0  0  0  0  0
  147.0820  158.9830  133.2020 C   0  0  0  0  0  0  0  0  0  0  0  0
  148.5100  158.6620  132.9900 C   0  0  0  0  0  0  0  0  0  0  0  0
  148.9360  157.9400  131.8380 N   0  0  0  0  0  0  0  0  0  0  0  0
  149.3580  158.9870  133.8630 O   0  0  0  0  0  0  0  0  0  0  0  0
  146.0820  158.0850  133.4320 N   0  0  0  0  0  0  0  0  0  0  0  0
  146.1500  156.6510  133.3620 C   0  0  0  0  0  0  0  0  0  0  0  0
  145.7570  155.9470  134.3290 O   0  0  0  0  0  0  0  0  0  0  0  0
  146.6750  156.0290  132.2370 O   0  0  0  0  0  0  0  0  0  0  0  0
  144.9710  158.8220  133.6550 C   0  0  0  0  0  0  0  0  0  0  0  0
  143.6680  158.3770  133.8980 C   0  0  0  0  0  0  0  0  0  0  0  0
  141.3499  159.0002  136.4360 H   0  0  0  0  0  0  0  0  0  0  0  0
  139.8183  158.3666  135.7435 H   0  0  0  0  0  0  0  0  0  0  0  0
  141.2949  157.3437  135.7435 H   0  0  0  0  0  0  0  0  0  0  0  0
  139.3900  157.1805  133.5060 H   0  0  0  0  0  0  0  0  0  0  0  0
  137.6157  157.6243  131.8162 H   0  0  0  0  0  0  0  0  0  0  0  0
  139.1191  161.6536  131.2988 H   0  0  0  0  0  0  0  0  0  0  0  0
  140.8908  161.2086  132.9898 H   0  0  0  0  0  0  0  0  0  0  0  0
  142.1790  161.4723  134.1459 H   0  0  0  0  0  0  0  0  0  0  0  0
  144.5341  162.2056  133.6703 H   0  0  0  0  0  0  0  0  0  0  0  0
  147.1604  161.2183  133.1273 H   0  0  0  0  0  0  0  0  0  0  0  0
  148.3620  157.1590  131.4510 H   0  0  0  0  0  0  0  0  0  0  0  0
  143.4430  157.3015  133.9492 H   0  0  0  0  0  0  0  0  0  0  0  0
  1  2  1  0
  2  3  1  0
  3  4  2  0
  4  5  1  0
  5  6  2  0
  6  7  1  0
  7  8  2  0
  7  9  1  0
  6 10  1  0
 10 11  2  0
  2 12  1  0
 12 13  2  0
 13 14  1  0
 14 15  2  0
 15 16  1  0
 16 17  2  0
 17 18  1  0
 18 19  1  0
 18 20  2  0
 17 21  1  0
 21 22  1  0
 22 23  2  0
 22 24  1  0
 21 25  1  0
 25 26  2  0
 11  3  1  0
 26 12  1  0
 25 15  1  0
  1 27  1  0
  1 28  1  0
  1 29  1  0
  4 30  1  0
  5 31  1  0
 10 32  1  0
 11 33  1  0
 13 34  1  0
 14 35  1  0
 16 36  1  0
 19 37  1  0
 26 38  1  0
M  CHG  4   7   1   9  -1  19  -1  24  -1
M  END
>  <UniqueID>  (38) 
38

>  <SMILES>  (38) 
CN(c1ccc([N+](=O)[O-])cc1)c1ccc2cc(C([NH-])=O)n(C(=O)[O-])c2c1

>  <Energy>  (38) 
90.23165269724579

>  <Genealogy>  (38) 
CN(c1ccc([N+](=O)[O-])cc1)c1ccc2cc(C([NH-])=O)n(C(=O)[O-])c2c1 (protonated)
CN(c1ccc([N+](=O)[O-])cc1)c1ccc2cc(C([NH-])=O)n(C(=O)[O-])c2c1 (3D coordinates assigned)
CN(c1ccc([N+](=O)[O-])cc1)c1ccc2cc(C([NH-])=O)n(C(=O)[O-])c2c1 (optimized conformer: 90.23165269724579 kcal/mol)

>  <smiles>  (38) 
CN(c1ccc([N+](=O)[O-])cc1)c1ccc2cc(C(N)=O)n(C(=O)O)c2c1

>  <score_type>  (38) 
oracle

>  <origin>  (38) 
adg

>  <m_score__min__energy>  (38) 
-8.1500000000000004

>  <m_primary>  (38) 
energy

$$$$
39:0
     RDKit          3D

 40 42  0  0  0  0  0  0  0  0999 V2000
  149.5980  158.6780  131.8020 C   0  0  0  0  0  0  0  0  0  0  0  0
  148.6190  157.8590  132.6360 C   0  0  0  0  0  0  0  0  0  0  0  0
  147.4380  158.6970  133.0450 C   0  0  0  0  0  0  0  0  0  0  0  0
  147.6140  160.0660  133.3650 C   0  0  0  0  0  0  0  0  0  0  0  0
  146.5130  160.8690  133.7060 C   0  0  0  0  0  0  0  0  0  0  0  0
  145.2520  160.2770  133.7160 C   0  0  0  0  0  0  0  0  0  0  0  0
  144.0190  160.8260  133.9830 C   0  0  0  0  0  0  0  0  0  0  0  0
  143.1090  159.7820  133.8320 C   0  0  0  0  0  0  0  0  0  0  0  0
  141.6640  159.9130  134.1150 C   0  0  0  0  0  0  0  0  0  0  0  0
  141.0070  158.9320  134.9150 N   0  0  0  0  0  0  0  0  0  0  0  0
  140.9950  160.8620  133.6310 O   0  0  0  0  0  0  0  0  0  0  0  0
  143.7540  158.6350  133.4750 N   0  0  0  0  0  0  0  0  0  0  0  0
  143.1770  157.3560  133.1720 C   0  0  0  0  0  0  0  0  0  0  0  0
  143.8930  156.3170  133.2090 O   0  0  0  0  0  0  0  0  0  0  0  0
  141.8190  157.2660  132.8520 O   0  0  0  0  0  0  0  0  0  0  0  0
  140.9670  156.2480  133.3680 C   0  0  0  0  0  0  0  0  0  0  0  0
  139.6230  156.4670  132.9460 O   0  0  0  0  0  0  0  0  0  0  0  0
  138.9200  157.6430  133.2310 C   0  0  0  0  0  0  0  0  0  0  0  0
  138.4630  157.8560  134.3870 O   0  0  0  0  0  0  0  0  0  0  0  0
  138.7170  158.6370  132.1750 C   0  0  0  0  0  0  0  0  0  0  0  0
  139.7250  159.1790  131.4610 N   0  0  0  0  0  0  0  0  0  0  0  0
  139.0920  160.0240  130.6260 C   0  0  0  0  0  0  0  0  0  0  0  0
  137.7380  159.9640  130.8610 C   0  0  0  0  0  0  0  0  0  0  0  0
  137.5390  159.0980  131.8240 O   0  0  0  0  0  0  0  0  0  0  0  0
  145.0660  158.9530  133.4140 C   0  0  0  0  0  0  0  0  0  0  0  0
  146.1420  158.1350  133.0540 C   0  0  0  0  0  0  0  0  0  0  0  0
  150.2685  159.2389  132.4696 H   0  0  0  0  0  0  0  0  0  0  0  0
  150.1922  158.0041  131.1673 H   0  0  0  0  0  0  0  0  0  0  0  0
  149.0396  159.3818  131.1673 H   0  0  0  0  0  0  0  0  0  0  0  0
  148.2661  157.0033  132.0416 H   0  0  0  0  0  0  0  0  0  0  0  0
  149.1341  157.5077  133.5422 H   0  0  0  0  0  0  0  0  0  0  0  0
  148.6227  160.5043  133.3462 H   0  0  0  0  0  0  0  0  0  0  0  0
  146.6425  161.9321  133.9573 H   0  0  0  0  0  0  0  0  0  0  0  0
  143.7985  161.8681  134.2575 H   0  0  0  0  0  0  0  0  0  0  0  0
  140.6150  158.0650  134.4860 H   0  0  0  0  0  0  0  0  0  0  0  0
  141.3078  155.2688  133.0005 H   0  0  0  0  0  0  0  0  0  0  0  0
  141.0055  156.2721  134.4671 H   0  0  0  0  0  0  0  0  0  0  0  0
  139.5803  160.6618  129.8745 H   0  0  0  0  0  0  0  0  0  0  0  0
  136.9619  160.5395  130.3351 H   0  0  0  0  0  0  0  0  0  0  0  0
  145.9830  157.0804  132.7846 H   0  0  0  0  0  0  0  0  0  0  0  0
  1  2  1  0
  2  3  1  0
  3  4  2  0
  4  5  1  0
  5  6  2  0
  6  7  1  0
  7  8  2  0
  8  9  1  0
  9 10  1  0
  9 11  2  0
  8 12  1  0
 12 13  1  0
 13 14  2  0
 13 15  1  0
 15 16  1  0
 16 17  1  0
 17 18  1  0
 18 19  2  0
 18 20  1  0
 20 21  2  0
 21 22  1  0
 22 23  2  0
 23 24  1  0
 12 25  1  0
 25 26  2  0
 26  3  1  0
 25  6  1  0
 24 20  1  0
  1 27  1  0
  1 28  1  0
  1 29  1  0
  2 30  1  0
  2 31  1  0
  4 32  1  0
  5 33  1  0
  7 34  1  0
 10 35  1  0
 16 36  1  0
 16 37  1  0
 22 38  1  0
 23 39  1  0
 26 40  1  0
M  CHG  1  10  -1
M  END
>  <UniqueID>  (39) 
39

>  <SMILES>  (39) 
CCc1ccc2cc(C([NH-])=O)n(C(=O)OCOC(=O)c3ncco3)c2c1

>  <Energy>  (39) 
101.88824802758977

>  <Genealogy>  (39) 
CCc1ccc2cc(C([NH-])=O)n(C(=O)OCOC(=O)c3ncco3)c2c1 (protonated)
CCc1ccc2cc(C([NH-])=O)n(C(=O)OCOC(=O)c3ncco3)c2c1 (3D coordinates assigned)
CCc1ccc2cc(C([NH-])=O)n(C(=O)OCOC(=O)c3ncco3)c2c1 (optimized conformer: 101.88824802758977 kcal/mol)

>  <smiles>  (39) 
CCc1ccc2cc(C(N)=O)n(C(=O)OCOC(=O)c3ncco3)c2c1

>  <score_type>  (39) 
oracle

>  <origin>  (39) 
adg

>  <m_score__min__energy>  (39) 
-6.4900000000000002

>  <m_primary>  (39) 
energy

$$$$
40:0
     RDKit          3D

 70 73  0  0  0  0  0  0  0  0999 V2000
  141.1870  157.5840  133.0800 C   0  0  0  0  0  0  0  0  0  0  0  0
  141.5090  157.6570  134.5860 C   0  0  0  0  0  0  0  0  0  0  0  0
  142.0770  156.3140  135.0860 C   0  0  0  0  0  0  0  0  0  0  0  0
  140.2180  157.9660  135.3580 C   0  0  0  0  0  0  0  0  0  0  0  0
  142.4270  158.7260  134.8520 O   0  0  0  0  0  0  0  0  0  0  0  0
  143.0020  159.5850  133.9040 C   0  0  0  0  0  0  0  0  0  0  0  0
  142.2850  160.3310  133.1860 O   0  0  0  0  0  0  0  0  0  0  0  0
  144.4270  159.5880  133.7300 N   0  0  0  0  0  0  0  0  0  0  0  0
  145.2770  160.6530  133.7880 C   0  0  0  0  0  0  0  0  0  0  0  0
  144.9240  162.0220  134.2180 C   0  0  0  0  0  0  0  0  0  0  0  0
  143.9030  162.7600  133.5520 N   0  0  0  0  0  0  0  0  0  0  0  0
  145.4950  162.5260  135.2230 O   0  0  0  0  0  0  0  0  0  0  0  0
  146.5750  160.2580  133.4720 C   0  0  0  0  0  0  0  0  0  0  0  0
  146.4970  158.9050  133.2310 C   0  0  0  0  0  0  0  0  0  0  0  0
  147.4910  158.0030  132.8650 C   0  0  0  0  0  0  0  0  0  0  0  0
  147.1190  156.6650  132.6530 C   0  0  0  0  0  0  0  0  0  0  0  0
  145.7690  156.2540  132.8050 C   0  0  0  0  0  0  0  0  0  0  0  0
  145.3940  154.8870  132.5510 N   0  0  0  0  0  0  0  0  0  0  0  0
  144.3930  154.5520  131.5300 C   0  0  0  0  0  0  0  0  0  0  0  0
  143.2220  153.7630  132.1490 C   0  0  0  0  0  0  0  0  0  0  0  0
  143.5860  153.0430  133.4870 C   0  0  0  0  0  0  0  0  0  0  0  0
  142.6620  151.9090  133.8160 N   0  0  0  0  0  0  0  0  0  0  0  0
  142.9400  150.6990  132.9900 C   0  0  0  0  0  0  0  0  0  0  0  0
  141.7810  149.6900  133.0510 C   0  0  0  0  0  0  0  0  0  0  0  0
  140.5080  150.2590  132.5530 N   0  0  0  0  0  0  0  0  0  0  0  0
  140.0710  149.6000  130.9940 S   0  0  0  0  0  0  0  0  0  0  0  0
  138.6680  148.5030  131.1020 C   0  0  0  0  0  0  0  0  0  0  0  0
  141.2380  148.8410  130.4260 O   0  0  0  0  0  0  0  0  0  0  0  0
  139.7320  150.7280  130.0600 O   0  0  0  0  0  0  0  0  0  0  0  0
  140.4970  151.7320  132.5060 C   0  0  0  0  0  0  0  0  0  0  0  0
  141.2260  152.3270  133.7210 C   0  0  0  0  0  0  0  0  0  0  0  0
  145.0650  152.5750  133.3920 C   0  0  0  0  0  0  0  0  0  0  0  0
  146.0020  153.7950  133.3250 C   0  0  0  0  0  0  0  0  0  0  0  0
  144.7880  157.2040  133.1680 C   0  0  0  0  0  0  0  0  0  0  0  0
  145.1900  158.5260  133.3930 C   0  0  0  0  0  0  0  0  0  0  0  0
  140.1225  157.3427  132.9439 H   0  0  0  0  0  0  0  0  0  0  0  0
  141.4058  158.5545  132.6108 H   0  0  0  0  0  0  0  0  0  0  0  0
  141.8030  156.8027  132.6108 H   0  0  0  0  0  0  0  0  0  0  0  0
  142.0811  156.3044  136.1859 H   0  0  0  0  0  0  0  0  0  0  0  0
  141.4504  155.4898  134.7144 H   0  0  0  0  0  0  0  0  0  0  0  0
  143.1048  156.1895  134.7144 H   0  0  0  0  0  0  0  0  0  0  0  0
  140.4168  157.9184  136.4388 H   0  0  0  0  0  0  0  0  0  0  0  0
  139.8653  158.9739  135.0941 H   0  0  0  0  0  0  0  0  0  0  0  0
  139.4471  157.2270  135.0941 H   0  0  0  0  0  0  0  0  0  0  0  0
  142.9430  162.3680  133.4390 H   0  0  0  0  0  0  0  0  0  0  0  0
  147.4721  160.8928  133.4250 H   0  0  0  0  0  0  0  0  0  0  0  0
  148.5353  158.3273  132.7454 H   0  0  0  0  0  0  0  0  0  0  0  0
  147.8828  155.9273  132.3659 H   0  0  0  0  0  0  0  0  0  0  0  0
  144.0067  155.4810  131.0853 H   0  0  0  0  0  0  0  0  0  0  0  0
  144.8702  153.9282  130.7599 H   0  0  0  0  0  0  0  0  0  0  0  0
  142.3968  154.4634  132.3451 H   0  0  0  0  0  0  0  0  0  0  0  0
  142.9460  152.9797  131.4278 H   0  0  0  0  0  0  0  0  0  0  0  0
  143.4641  153.7533  134.3180 H   0  0  0  0  0  0  0  0  0  0  0  0
  142.8460  151.6380  134.8120 H   0  0  0  0  0  0  0  0  0  0  0  0
  143.0894  151.0075  131.9448 H   0  0  0  0  0  0  0  0  0  0  0  0
  143.8411  150.2107  133.3896 H   0  0  0  0  0  0  0  0  0  0  0  0
  142.0413  148.8159  132.4360 H   0  0  0  0  0  0  0  0  0  0  0  0
  141.6338  149.4129  134.1053 H   0  0  0  0  0  0  0  0  0  0  0  0
  138.4291  148.3162  132.1594 H   0  0  0  0  0  0  0  0  0  0  0  0
  137.8017  148.9658  130.6066 H   0  0  0  0  0  0  0  0  0  0  0  0
  138.9082  147.5507  130.6066 H   0  0  0  0  0  0  0  0  0  0  0  0
  140.9989  152.0663  131.5861 H   0  0  0  0  0  0  0  0  0  0  0  0
  139.4521  152.0754  132.5214 H   0  0  0  0  0  0  0  0  0  0  0  0
  141.1860  153.4239  133.6490 H   0  0  0  0  0  0  0  0  0  0  0  0
  140.7178  151.9510  134.6212 H   0  0  0  0  0  0  0  0  0  0  0  0
  145.3139  151.9731  134.2784 H   0  0  0  0  0  0  0  0  0  0  0  0
  145.1941  151.9711  132.4817 H   0  0  0  0  0  0  0  0  0  0  0  0
  146.2052  154.1485  134.3466 H   0  0  0  0  0  0  0  0  0  0  0  0
  146.9354  153.4920  132.8281 H   0  0  0  0  0  0  0  0  0  0  0  0
  143.7326  156.9115  133.2714 H   0  0  0  0  0  0  0  0  0  0  0  0
  1  2  1  0
  2  3  1  0
  2  4  1  0
  2  5  1  0
  5  6  1  0
  6  7  2  0
  6  8  1  0
  8  9  1  0
  9 10  1  0
 10 11  1  0
 10 12  2  0
  9 13  2  0
 13 14  1  0
 14 15  2  0
 15 16  1  0
 16 17  2  0
 17 18  1  0
 18 19  1  0
 19 20  1  0
 20 21  1  0
 21 22  1  0
 22 23  1  0
 23 24  1  0
 24 25  1  0
 25 26  1  0
 26 27  1  0
 26 28  2  0
 26 29  2  0
 25 30  1  0
 30 31  1  0
 21 32  1  0
 32 33  1  0
 17 34  1  0
 34 35  2  0
 35  8  1  0
 35 14  1  0
 33 18  1  0
 31 22  1  0
  1 36  1  0
  1 37  1  0
  1 38  1  0
  3 39  1  0
  3 40  1  0
  3 41  1  0
  4 42  1  0
  4 43  1  0
  4 44  1  0
 11 45  1  0
 13 46  1  0
 15 47  1  0
 16 48  1  0
 19 49  1  0
 19 50  1  0
 20 51  1  0
 20 52  1  0
 21 53  1  0
 22 54  1  0
 23 55  1  0
 23 56  1  0
 24 57  1  0
 24 58  1  0
 27 59  1  0
 27 60  1  0
 27 61  1  0
 30 62  1  0
 30 63  1  0
 31 64  1  0
 31 65  1  0
 32 66  1  0
 32 67  1  0
 33 68  1  0
 33 69  1  0
 34 70  1  0
M  CHG  2  11  -1  22   1
M  END
>  <UniqueID>  (40) 
40

>  <SMILES>  (40) 
CC(C)(C)OC(=O)n1c(C([NH-])=O)cc2ccc(N3CCC([NH+]4CCN(S(C)(=O)=O)CC4)CC3)cc21

>  <Energy>  (40) 
125.80413837076094

>  <Genealogy>  (40) 
CC(C)(C)OC(=O)n1c(C([NH-])=O)cc2ccc(N3CCC([NH+]4CCN(S(C)(=O)=O)CC4)CC3)cc21 (protonated)
CC(C)(C)OC(=O)n1c(C([NH-])=O)cc2ccc(N3CCC([NH+]4CCN(S(C)(=O)=O)CC4)CC3)cc21 (3D coordinates assigned)
CC(C)(C)OC(=O)n1c(C([NH-])=O)cc2ccc(N3CCC([NH+]4CCN(S(C)(=O)=O)CC4)CC3)cc21 (nonaromatic ring conformer: 125.80413837076094 kcal/mol)

>  <smiles>  (40) 
CC(C)(C)OC(=O)n1c(C(N)=O)cc2ccc(N3CCC(N4CCN(S(C)(=O)=O)CC4)CC3)cc21

>  <score_type>  (40) 
oracle

>  <origin>  (40) 
adg

>  <m_score__min__energy>  (40) 
-9.0700000000000003

>  <m_primary>  (40) 
energy

$$$$
41:0
     RDKit          3D

 37 38  0  0  0  0  0  0  0  0999 V2000
  138.9504  158.2536  137.5239 H   0  0  0  0  0  0  0  0  0  0  0  0
  139.8730  158.0230  136.9710 C   0  0  0  0  0  0  0  0  0  0  0  0
  140.2630  158.9630  135.9030 C   0  0  0  0  0  0  0  0  0  0  0  0
  140.7630  160.0860  136.1690 O   0  0  0  0  0  0  0  0  0  0  0  0
  139.9730  158.6440  134.5840 O   0  0  0  0  0  0  0  0  0  0  0  0
  140.5360  156.9130  137.3330 C   0  0  0  0  0  0  0  0  0  0  0  0
  140.2205  156.4279  138.2685 H   0  0  0  0  0  0  0  0  0  0  0  0
  141.6470  156.2820  136.5960 C   0  0  0  0  0  0  0  0  0  0  0  0
  142.0380  155.1390  136.9540 O   0  0  0  0  0  0  0  0  0  0  0  0
  142.2060  156.8950  135.4690 O   0  0  0  0  0  0  0  0  0  0  0  0
  143.4180  156.4660  134.8530 C   0  0  0  0  0  0  0  0  0  0  0  0
  143.3354  155.3976  134.6045 H   0  0  0  0  0  0  0  0  0  0  0  0
  144.2458  156.6382  135.5566 H   0  0  0  0  0  0  0  0  0  0  0  0
  143.6940  157.2420  133.5950 C   0  0  0  0  0  0  0  0  0  0  0  0
  142.9540  157.0590  132.5920 O   0  0  0  0  0  0  0  0  0  0  0  0
  144.7790  158.1860  133.5140 N   0  0  0  0  0  0  0  0  0  0  0  0
  144.6920  159.5460  133.5520 C   0  0  0  0  0  0  0  0  0  0  0  0
  143.4580  160.3370  133.7510 C   0  0  0  0  0  0  0  0  0  0  0  0
  143.5280  161.5950  133.7520 O   0  0  0  0  0  0  0  0  0  0  0  0
  142.1970  159.7110  133.9910 N   0  0  0  0  0  0  0  0  0  0  0  0
  142.1230  158.6900  134.1850 H   0  0  0  0  0  0  0  0  0  0  0  0
  141.3340  160.2930  134.0730 H   0  0  0  0  0  0  0  0  0  0  0  0
  145.9460  160.1230  133.3660 C   0  0  0  0  0  0  0  0  0  0  0  0
  146.1903  161.1953  133.3464 H   0  0  0  0  0  0  0  0  0  0  0  0
  146.8140  159.0670  133.2120 C   0  0  0  0  0  0  0  0  0  0  0  0
  148.1850  159.0660  132.9710 C   0  0  0  0  0  0  0  0  0  0  0  0
  148.7521  160.0070  132.9168 H   0  0  0  0  0  0  0  0  0  0  0  0
  148.8220  157.8250  132.7990 C   0  0  0  0  0  0  0  0  0  0  0  0
  149.9056  157.7898  132.6129 H   0  0  0  0  0  0  0  0  0  0  0  0
  148.0820  156.6200  132.8630 C   0  0  0  0  0  0  0  0  0  0  0  0
  148.7630  155.3080  132.6170 C   0  0  0  0  0  0  0  0  0  0  0  0
  149.0081  154.8359  133.5798 H   0  0  0  0  0  0  0  0  0  0  0  0
  148.0933  154.6488  132.0453 H   0  0  0  0  0  0  0  0  0  0  0  0
  149.6876  155.4763  132.0453 H   0  0  0  0  0  0  0  0  0  0  0  0
  146.6880  156.6620  133.0860 C   0  0  0  0  0  0  0  0  0  0  0  0
  146.0909  155.7383  133.0976 H   0  0  0  0  0  0  0  0  0  0  0  0
  146.0850  157.9090  133.2920 C   0  0  0  0  0  0  0  0  0  0  0  0
  1  2  1  0
  2  3  1  0
  3  4  2  0
  3  5  1  0
  2  6  2  0
  6  7  1  0
  6  8  1  0
  8  9  2  0
  8 10  1  0
 10 11  1  0
 11 12  1  0
 11 13  1  0
 11 14  1  0
 14 15  2  0
 14 16  1  0
 16 17  1  0
 17 18  1  0
 18 19  2  0
 18 20  1  0
 20 21  1  0
 20 22  1  0
 17 23  2  0
 23 24  1  0
 23 25  1  0
 25 26  2  0
 26 27  1  0
 26 28  1  0
 28 29  1  0
 28 30  2  0
 30 31  1  0
 31 32  1  0
 31 33  1  0
 31 34  1  0
 30 35  1  0
 35 36  1  0
 35 37  2  0
 37 16  1  0
 37 25  1  0
M  CHG  1   5  -1
M  END
>  <UniqueID>  (41) 
41

>  <SMILES>  (41) 
Cc1ccc2cc(C(N)=O)n(C(=O)COC(=O)/C=C\C(=O)[O-])c2c1

>  <Energy>  (41) 
78.22097899485625

>  <Genealogy>  (41) 
Cc1ccc2cc(C(N)=O)n(C(=O)COC(=O)/C=C\C(=O)[O-])c2c1 (protonated)
Cc1ccc2cc(C(N)=O)n(C(=O)COC(=O)/C=C\C(=O)[O-])c2c1 (cis-trans isomerization)
Cc1ccc2cc(C(N)=O)n(C(=O)COC(=O)/C=C\C(=O)[O-])c2c1 (3D coordinates assigned)
Cc1ccc2cc(C(N)=O)n(C(=O)COC(=O)/C=C\C(=O)[O-])c2c1 (optimized conformer: 78.22097899485625 kcal/mol)

>  <smiles>  (41) 
Cc1ccc2cc(C(N)=O)n(C(=O)COC(=O)/C=C\C(=O)O)c2c1

>  <score_type>  (41) 
oracle

>  <origin>  (41) 
adg

>  <m_score__min__energy>  (41) 
-7.4800000000000004

>  <m_primary>  (41) 
energy

$$$$
42:0
     RDKit          3D

 36 37  0  0  0  0  0  0  0  0999 V2000
  142.6770  159.8400  132.6470 H   0  0  0  0  0  0  0  0  0  0  0  0
  142.9350  160.5660  133.3530 N   0  0  0  0  0  0  0  0  0  0  0  0
  144.2990  160.7410  133.7480 C   0  0  0  0  0  0  0  0  0  0  0  0
  144.6510  161.7980  134.3400 O   0  0  0  0  0  0  0  0  0  0  0  0
  145.2900  159.7010  133.4350 C   0  0  0  0  0  0  0  0  0  0  0  0
  146.6480  159.9520  133.2640 C   0  0  0  0  0  0  0  0  0  0  0  0
  147.1544  160.9282  133.2877 H   0  0  0  0  0  0  0  0  0  0  0  0
  147.2220  158.7190  133.0590 C   0  0  0  0  0  0  0  0  0  0  0  0
  148.5450  158.3730  132.8070 C   0  0  0  0  0  0  0  0  0  0  0  0
  149.3320  159.1405  132.7670 H   0  0  0  0  0  0  0  0  0  0  0  0
  148.8490  157.0170  132.6050 C   0  0  0  0  0  0  0  0  0  0  0  0
  149.8874  156.7153  132.4031 H   0  0  0  0  0  0  0  0  0  0  0  0
  147.8280  156.0320  132.6590 C   0  0  0  0  0  0  0  0  0  0  0  0
  148.1160  154.6330  132.4850 N   0  0  0  0  0  0  0  0  0  0  0  0
  148.0910  154.2300  131.5190 H   0  0  0  0  0  0  0  0  0  0  0  0
  148.4490  153.7280  133.5770 C   0  0  0  0  0  0  0  0  0  0  0  0
  148.2644  154.2298  134.5383 H   0  0  0  0  0  0  0  0  0  0  0  0
  147.8242  152.8253  133.5086 H   0  0  0  0  0  0  0  0  0  0  0  0
  149.5099  153.4456  133.5086 H   0  0  0  0  0  0  0  0  0  0  0  0
  146.4940  156.4250  132.9060 C   0  0  0  0  0  0  0  0  0  0  0  0
  145.6846  155.6806  132.9333 H   0  0  0  0  0  0  0  0  0  0  0  0
  146.2250  157.7810  133.1150 C   0  0  0  0  0  0  0  0  0  0  0  0
  145.0310  158.3690  133.3340 N   0  0  0  0  0  0  0  0  0  0  0  0
  143.7480  157.7220  133.3130 C   0  0  0  0  0  0  0  0  0  0  0  0
  143.0810  157.6910  132.2410 O   0  0  0  0  0  0  0  0  0  0  0  0
  143.1840  157.1610  134.5590 C   0  0  0  0  0  0  0  0  0  0  0  0
  143.7289  156.3546  135.0716 H   0  0  0  0  0  0  0  0  0  0  0  0
  142.0340  157.5990  135.0860 C   0  0  0  0  0  0  0  0  0  0  0  0
  141.4747  158.3851  134.5577 H   0  0  0  0  0  0  0  0  0  0  0  0
  141.4910  157.0680  136.3450 C   0  0  0  0  0  0  0  0  0  0  0  0
  141.4990  155.8270  136.5810 O   0  0  0  0  0  0  0  0  0  0  0  0
  140.9810  157.9630  137.2900 O   0  0  0  0  0  0  0  0  0  0  0  0
  140.9780  159.3730  137.0910 C   0  0  0  0  0  0  0  0  0  0  0  0
  140.9769  159.8810  138.0667 H   0  0  0  0  0  0  0  0  0  0  0  0
  141.8755  159.6655  136.5263 H   0  0  0  0  0  0  0  0  0  0  0  0
  140.0792  159.6617  136.5263 H   0  0  0  0  0  0  0  0  0  0  0  0
  1  2  1  0
  2  3  1  0
  3  4  2  0
  3  5  1  0
  5  6  2  0
  6  7  1  0
  6  8  1  0
  8  9  2  0
  9 10  1  0
  9 11  1  0
 11 12  1  0
 11 13  2  0
 13 14  1  0
 14 15  1  0
 14 16  1  0
 16 17  1  0
 16 18  1  0
 16 19  1  0
 13 20  1  0
 20 21  1  0
 20 22  2  0
 22 23  1  0
 23 24  1  0
 24 25  2  0
 24 26  1  0
 26 27  1  0
 26 28  2  0
 28 29  1  0
 28 30  1  0
 30 31  2  0
 30 32  1  0
 32 33  1  0
 33 34  1  0
 33 35  1  0
 33 36  1  0
 23  5  1  0
 22  8  1  0
M  CHG  1   2  -1
M  END
>  <UniqueID>  (42) 
42

>  <SMILES>  (42) 
CNc1ccc2cc(C([NH-])=O)n(C(=O)/C=C/C(=O)OC)c2c1

>  <Energy>  (42) 
71.32358443018988

>  <Genealogy>  (42) 
CNc1ccc2cc(C([NH-])=O)n(C(=O)/C=C/C(=O)OC)c2c1 (protonated)
CNc1ccc2cc(C([NH-])=O)n(C(=O)/C=C/C(=O)OC)c2c1 (cis-trans isomerization)
CNc1ccc2cc(C([NH-])=O)n(C(=O)/C=C/C(=O)OC)c2c1 (3D coordinates assigned)
CNc1ccc2cc(C([NH-])=O)n(C(=O)/C=C/C(=O)OC)c2c1 (optimized conformer: 71.32358443018988 kcal/mol)

>  <smiles>  (42) 
CNc1ccc2cc(C(N)=O)n(C(=O)/C=C/C(=O)OC)c2c1

>  <score_type>  (42) 
oracle

>  <origin>  (42) 
adg

>  <m_score__min__energy>  (42) 
-6.6500000000000004

>  <m_primary>  (42) 
energy

$$$$
43:0
     RDKit          3D

 49 50  0  0  0  0  0  0  0  0999 V2000
  148.4820  155.4680  132.9490 C   0  0  0  0  0  0  0  0  0  0  0  0
  147.8080  156.8020  133.0560 C   0  0  0  0  0  0  0  0  0  0  0  0
  148.5440  157.9980  132.8630 C   0  0  0  0  0  0  0  0  0  0  0  0
  147.9170  159.2510  132.9770 C   0  0  0  0  0  0  0  0  0  0  0  0
  146.5590  159.2740  133.2780 C   0  0  0  0  0  0  0  0  0  0  0  0
  145.7110  160.3410  133.4780 C   0  0  0  0  0  0  0  0  0  0  0  0
  144.4670  159.7790  133.7680 C   0  0  0  0  0  0  0  0  0  0  0  0
  143.2220  160.5560  133.9930 C   0  0  0  0  0  0  0  0  0  0  0  0
  142.0790  159.9600  134.6130 N   0  0  0  0  0  0  0  0  0  0  0  0
  143.1640  161.7680  133.6560 O   0  0  0  0  0  0  0  0  0  0  0  0
  144.5500  158.4180  133.7480 N   0  0  0  0  0  0  0  0  0  0  0  0
  143.5130  157.4620  134.0150 C   0  0  0  0  0  0  0  0  0  0  0  0
  143.2330  157.1610  135.2070 O   0  0  0  0  0  0  0  0  0  0  0  0
  142.7270  156.8540  132.8870 C   0  0  0  0  0  0  0  0  0  0  0  0
  141.4640  156.1480  133.3950 C   0  0  0  0  0  0  0  0  0  0  0  0
  140.2790  156.8290  132.9820 O   0  0  0  0  0  0  0  0  0  0  0  0
  140.1450  158.2220  132.9880 C   0  0  0  0  0  0  0  0  0  0  0  0
  140.2430  158.8840  131.9180 O   0  0  0  0  0  0  0  0  0  0  0  0
  139.8900  158.8840  134.2290 N   0  0  0  0  0  0  0  0  0  0  0  0
  139.2500  158.2480  135.3770 C   0  0  0  0  0  0  0  0  0  0  0  0
  140.2730  157.4540  136.2000 C   0  0  0  0  0  0  0  0  0  0  0  0
  141.2450  158.3550  136.8540 N   0  0  0  0  0  0  0  0  0  0  0  0
  141.7340  157.7810  138.1200 C   0  0  0  0  0  0  0  0  0  0  0  0
  140.6150  159.6600  137.1210 C   0  0  0  0  0  0  0  0  0  0  0  0
  145.8310  158.1260  133.4460 C   0  0  0  0  0  0  0  0  0  0  0  0
  146.4250  156.8650  133.3360 C   0  0  0  0  0  0  0  0  0  0  0  0
  148.6803  155.0755  133.9573 H   0  0  0  0  0  0  0  0  0  0  0  0
  147.8286  154.7696  132.4056 H   0  0  0  0  0  0  0  0  0  0  0  0
  149.4319  155.5796  132.4056 H   0  0  0  0  0  0  0  0  0  0  0  0
  149.6159  157.9451  132.6218 H   0  0  0  0  0  0  0  0  0  0  0  0
  148.4822  160.1836  132.8328 H   0  0  0  0  0  0  0  0  0  0  0  0
  145.9616  161.4106  133.4211 H   0  0  0  0  0  0  0  0  0  0  0  0
  142.0630  158.9550  134.8940 H   0  0  0  0  0  0  0  0  0  0  0  0
  141.2310  160.5400  134.8020 H   0  0  0  0  0  0  0  0  0  0  0  0
  142.4338  157.6499  132.1866 H   0  0  0  0  0  0  0  0  0  0  0  0
  143.3621  156.1066  132.3889 H   0  0  0  0  0  0  0  0  0  0  0  0
  141.4436  155.1227  132.9970 H   0  0  0  0  0  0  0  0  0  0  0  0
  141.4919  156.1421  134.4946 H   0  0  0  0  0  0  0  0  0  0  0  0
  138.7986  159.0232  136.0136 H   0  0  0  0  0  0  0  0  0  0  0  0
  138.4776  157.5554  135.0113 H   0  0  0  0  0  0  0  0  0  0  0  0
  139.7428  156.8767  136.9717 H   0  0  0  0  0  0  0  0  0  0  0  0
  140.8206  156.7824  135.5224 H   0  0  0  0  0  0  0  0  0  0  0  0
  141.2778  158.3164  138.9657 H   0  0  0  0  0  0  0  0  0  0  0  0
  141.4609  156.7166  138.1697 H   0  0  0  0  0  0  0  0  0  0  0  0
  142.8283  157.8815  138.1697 H   0  0  0  0  0  0  0  0  0  0  0  0
  140.5399  159.8155  138.2074 H   0  0  0  0  0  0  0  0  0  0  0  0
  141.2262  160.4598  136.6775 H   0  0  0  0  0  0  0  0  0  0  0  0
  139.6086  159.6789  136.6775 H   0  0  0  0  0  0  0  0  0  0  0  0
  145.8318  155.9476  133.4640 H   0  0  0  0  0  0  0  0  0  0  0  0
  1  2  1  0
  2  3  2  0
  3  4  1  0
  4  5  2  0
  5  6  1  0
  6  7  2  0
  7  8  1  0
  8  9  1  0
  8 10  2  0
  7 11  1  0
 11 12  1  0
 12 13  2  0
 12 14  1  0
 14 15  1  0
 15 16  1  0
 16 17  1  0
 17 18  2  0
 17 19  1  0
 19 20  1  0
 20 21  1  0
 21 22  1  0
 22 23  1  0
 22 24  1  0
 11 25  1  0
 25 26  2  0
 26  2  1  0
 25  5  1  0
  1 27  1  0
  1 28  1  0
  1 29  1  0
  3 30  1  0
  4 31  1  0
  6 32  1  0
  9 33  1  0
  9 34  1  0
 14 35  1  0
 14 36  1  0
 15 37  1  0
 15 38  1  0
 20 39  1  0
 20 40  1  0
 21 41  1  0
 21 42  1  0
 23 43  1  0
 23 44  1  0
 23 45  1  0
 24 46  1  0
 24 47  1  0
 24 48  1  0
 26 49  1  0
M  CHG  1  19  -1
M  END
>  <UniqueID>  (43) 
43

>  <SMILES>  (43) 
Cc1ccc2cc(C(N)=O)n(C(=O)CCOC(=O)[N-]CCN(C)C)c2c1

>  <Energy>  (43) 
75.67720567820314

>  <Genealogy>  (43) 
Cc1ccc2cc(C(N)=O)n(C(=O)CCOC(=O)[N-]CCN(C)C)c2c1 (protonated)
Cc1ccc2cc(C(N)=O)n(C(=O)CCOC(=O)[N-]CCN(C)C)c2c1 (3D coordinates assigned)
Cc1ccc2cc(C(N)=O)n(C(=O)CCOC(=O)[N-]CCN(C)C)c2c1 (optimized conformer: 75.67720567820314 kcal/mol)

>  <smiles>  (43) 
Cc1ccc2cc(C(N)=O)n(C(=O)CCOC(=O)NCCN(C)C)c2c1

>  <score_type>  (43) 
oracle

>  <origin>  (43) 
adg

>  <m_score__min__energy>  (43) 
-6.8700000000000001

>  <m_primary>  (43) 
energy

$$$$
44:0
     RDKit          3D

 48 50  0  0  0  0  0  0  0  0999 V2000
  143.9870  155.0380  132.3160 C   0  0  0  0  0  0  0  0  0  0  0  0
  143.7960  154.6060  133.7830 C   0  0  0  0  0  0  0  0  0  0  0  0
  143.4690  153.1020  133.8690 C   0  0  0  0  0  0  0  0  0  0  0  0
  145.0960  154.8760  134.5540 C   0  0  0  0  0  0  0  0  0  0  0  0
  142.7660  155.3820  134.4080 O   0  0  0  0  0  0  0  0  0  0  0  0
  141.8040  156.1710  133.7570 C   0  0  0  0  0  0  0  0  0  0  0  0
  140.9080  155.6450  133.0440 O   0  0  0  0  0  0  0  0  0  0  0  0
  141.8280  157.5950  133.9350 N   0  0  0  0  0  0  0  0  0  0  0  0
  140.8080  158.4090  134.3310 C   0  0  0  0  0  0  0  0  0  0  0  0
  139.3980  158.0100  134.5200 C   0  0  0  0  0  0  0  0  0  0  0  0
  138.6450  157.4460  133.4490 N   0  0  0  0  0  0  0  0  0  0  0  0
  138.8370  158.2120  135.6300 O   0  0  0  0  0  0  0  0  0  0  0  0
  141.2570  159.7230  134.4560 C   0  0  0  0  0  0  0  0  0  0  0  0
  142.5890  159.6890  134.1120 C   0  0  0  0  0  0  0  0  0  0  0  0
  143.5290  160.7140  134.0660 C   0  0  0  0  0  0  0  0  0  0  0  0
  144.8440  160.3860  133.6970 C   0  0  0  0  0  0  0  0  0  0  0  0
  145.2020  159.0460  133.3920 C   0  0  0  0  0  0  0  0  0  0  0  0
  146.5980  158.7060  133.0140 C   0  0  0  0  0  0  0  0  0  0  0  0
  147.0880  157.4000  133.1930 C   0  0  0  0  0  0  0  0  0  0  0  0
  148.4000  157.0830  132.8380 C   0  0  0  0  0  0  0  0  0  0  0  0
  149.2410  158.0620  132.3020 C   0  0  0  0  0  0  0  0  0  0  0  0
  148.7690  159.3750  132.1170 C   0  0  0  0  0  0  0  0  0  0  0  0
  149.5700  160.4000  131.5850 O   0  0  0  0  0  0  0  0  0  0  0  0
  149.5770  160.8190  130.2230 C   0  0  0  0  0  0  0  0  0  0  0  0
  149.6440  162.1970  130.1770 F   0  0  0  0  0  0  0  0  0  0  0  0
  148.4170  160.4070  129.5910 F   0  0  0  0  0  0  0  0  0  0  0  0
  150.6790  160.2960  129.5690 F   0  0  0  0  0  0  0  0  0  0  0  0
  147.4510  159.6860  132.4750 C   0  0  0  0  0  0  0  0  0  0  0  0
  144.2150  158.0330  133.4540 C   0  0  0  0  0  0  0  0  0  0  0  0
  142.9090  158.3940  133.8020 C   0  0  0  0  0  0  0  0  0  0  0  0
  144.4316  156.0436  132.2848 H   0  0  0  0  0  0  0  0  0  0  0  0
  144.6543  154.3262  131.8080 H   0  0  0  0  0  0  0  0  0  0  0  0
  143.0114  155.0525  131.8080 H   0  0  0  0  0  0  0  0  0  0  0  0
  143.4035  152.8008  134.9249 H   0  0  0  0  0  0  0  0  0  0  0  0
  142.5074  152.9068  133.3717 H   0  0  0  0  0  0  0  0  0  0  0  0
  144.2627  152.5252  133.3717 H   0  0  0  0  0  0  0  0  0  0  0  0
  144.8965  154.8346  135.6350 H   0  0  0  0  0  0  0  0  0  0  0  0
  145.8441  154.1141  134.2897 H   0  0  0  0  0  0  0  0  0  0  0  0
  145.4788  155.8728  134.2897 H   0  0  0  0  0  0  0  0  0  0  0  0
  138.9150  156.5290  133.0280 H   0  0  0  0  0  0  0  0  0  0  0  0
  140.6706  160.6011  134.7643 H   0  0  0  0  0  0  0  0  0  0  0  0
  143.2507  161.7496  134.3111 H   0  0  0  0  0  0  0  0  0  0  0  0
  145.6063  161.1772  133.6436 H   0  0  0  0  0  0  0  0  0  0  0  0
  146.4332  156.6236  133.6154 H   0  0  0  0  0  0  0  0  0  0  0  0
  148.7736  156.0583  132.9807 H   0  0  0  0  0  0  0  0  0  0  0  0
  150.2740  157.8059  132.0241 H   0  0  0  0  0  0  0  0  0  0  0  0
  147.0778  160.7109  132.3327 H   0  0  0  0  0  0  0  0  0  0  0  0
  144.4693  156.9857  133.2335 H   0  0  0  0  0  0  0  0  0  0  0  0
  1  2  1  0
  2  3  1  0
  2  4  1  0
  2  5  1  0
  5  6  1  0
  6  7  2  0
  6  8  1  0
  8  9  1  0
  9 10  1  0
 10 11  1  0
 10 12  2  0
  9 13  2  0
 13 14  1  0
 14 15  2  0
 15 16  1  0
 16 17  2  0
 17 18  1  0
 18 19  2  0
 19 20  1  0
 20 21  2  0
 21 22  1  0
 22 23  1  0
 23 24  1  0
 24 25  1  0
 24 26  1  0
 24 27  1  0
 22 28  2  0
 17 29  1  0
 29 30  2  0
 30  8  1  0
 30 14  1  0
 28 18  1  0
  1 31  1  0
  1 32  1  0
  1 33  1  0
  3 34  1  0
  3 35  1  0
  3 36  1  0
  4 37  1  0
  4 38  1  0
  4 39  1  0
 11 40  1  0
 13 41  1  0
 15 42  1  0
 16 43  1  0
 19 44  1  0
 20 45  1  0
 21 46  1  0
 28 47  1  0
 29 48  1  0
M  CHG  1  11  -1
M  END
>  <UniqueID>  (44) 
44

>  <SMILES>  (44) 
CC(C)(C)OC(=O)n1c(C([NH-])=O)cc2ccc(-c3cccc(OC(F)(F)F)c3)cc21

>  <Energy>  (44) 
89.57216357311809

>  <Genealogy>  (44) 
CC(C)(C)OC(=O)n1c(C([NH-])=O)cc2ccc(-c3cccc(OC(F)(F)F)c3)cc21 (protonated)
CC(C)(C)OC(=O)n1c(C([NH-])=O)cc2ccc(-c3cccc(OC(F)(F)F)c3)cc21 (3D coordinates assigned)
CC(C)(C)OC(=O)n1c(C([NH-])=O)cc2ccc(-c3cccc(OC(F)(F)F)c3)cc21 (optimized conformer: 89.57216357311809 kcal/mol)

>  <smiles>  (44) 
CC(C)(C)OC(=O)n1c(C(N)=O)cc2ccc(-c3cccc(OC(F)(F)F)c3)cc21

>  <score_type>  (44) 
oracle

>  <origin>  (44) 
adg

>  <m_score__min__energy>  (44) 
-8.0299999999999994

>  <m_primary>  (44) 
energy

$$$$
45:0
     RDKit          3D

 32 33  0  0  0  0  0  0  0  0999 V2000
  148.7810  154.0830  132.6430 C   0  0  0  0  0  0  0  0  0  0  0  0
  148.3820  155.2130  132.7690 C   0  0  0  0  0  0  0  0  0  0  0  0
  147.9040  156.5630  132.9190 C   0  0  0  0  0  0  0  0  0  0  0  0
  148.8130  157.6440  132.8710 C   0  0  0  0  0  0  0  0  0  0  0  0
  148.3540  158.9650  133.0060 C   0  0  0  0  0  0  0  0  0  0  0  0
  146.9880  159.1650  133.1910 C   0  0  0  0  0  0  0  0  0  0  0  0
  146.2780  160.3350  133.3250 C   0  0  0  0  0  0  0  0  0  0  0  0
  144.9490  159.9470  133.4740 C   0  0  0  0  0  0  0  0  0  0  0  0
  143.8530  160.9000  133.7440 C   0  0  0  0  0  0  0  0  0  0  0  0
  142.4930  160.4760  133.7270 N   0  0  0  0  0  0  0  0  0  0  0  0
  144.1250  162.0930  134.0480 O   0  0  0  0  0  0  0  0  0  0  0  0
  144.8370  158.5880  133.4210 N   0  0  0  0  0  0  0  0  0  0  0  0
  143.6320  157.8030  133.4280 C   0  0  0  0  0  0  0  0  0  0  0  0
  143.2070  157.2920  132.3570 O   0  0  0  0  0  0  0  0  0  0  0  0
  142.9530  157.5840  134.6300 O   0  0  0  0  0  0  0  0  0  0  0  0
  141.5860  157.1750  134.6920 C   0  0  0  0  0  0  0  0  0  0  0  0
  140.7090  158.2700  134.5540 O   0  0  0  0  0  0  0  0  0  0  0  0
  140.0070  158.2560  132.9960 P   0  0  1  0  0  0  0  0  0  0  0  0
  139.8170  156.8210  132.5610 O   0  0  0  0  0  0  0  0  0  0  0  0
  138.4940  159.0090  133.0680 O   0  0  0  0  0  0  0  0  0  0  0  0
  140.9770  159.0520  131.8570 O   0  0  0  0  0  0  0  0  0  0  0  0
  146.0970  158.1240  133.2540 C   0  0  0  0  0  0  0  0  0  0  0  0
  146.5280  156.7990  133.1090 C   0  0  0  0  0  0  0  0  0  0  0  0
  149.1452  153.0514  132.5280 H   0  0  0  0  0  0  0  0  0  0  0  0
  149.8862  157.4500  132.7271 H   0  0  0  0  0  0  0  0  0  0  0  0
  149.0515  159.8147  132.9668 H   0  0  0  0  0  0  0  0  0  0  0  0
  146.6758  161.3605  133.3163 H   0  0  0  0  0  0  0  0  0  0  0  0
  142.2460  159.4710  133.5970 H   0  0  0  0  0  0  0  0  0  0  0  0
  141.3911  156.4575  133.8813 H   0  0  0  0  0  0  0  0  0  0  0  0
  141.4092  156.7150  135.6754 H   0  0  0  0  0  0  0  0  0  0  0  0
  141.8920  159.0130  132.2340 H   0  0  0  0  0  0  0  0  0  0  0  0
  145.8114  155.9651  133.1426 H   0  0  0  0  0  0  0  0  0  0  0  0
  1  2  3  0
  2  3  1  0
  3  4  2  0
  4  5  1  0
  5  6  2  0
  6  7  1  0
  7  8  2  0
  8  9  1  0
  9 10  1  0
  9 11  2  0
  8 12  1  0
 12 13  1  0
 13 14  2  0
 13 15  1  0
 15 16  1  0
 16 17  1  0
 17 18  1  0
 18 19  2  0
 18 20  1  1
 18 21  1  0
 12 22  1  0
 22 23  2  0
 23  3  1  0
 22  6  1  0
  1 24  1  0
  4 25  1  0
  5 26  1  0
  7 27  1  0
 10 28  1  0
 16 29  1  0
 16 30  1  0
 21 31  1  0
 23 32  1  0
M  CHG  2  10  -1  20  -1
M  END
>  <UniqueID>  (45) 
45

>  <SMILES>  (45) 
C#Cc1ccc2cc(C([NH-])=O)n(C(=O)OCO[P@@](=O)([O-])O)c2c1

>  <Energy>  (45) 
66.90958521837922

>  <Genealogy>  (45) 
C#Cc1ccc2cc(C([NH-])=O)n(C(=O)OCOP(=O)([O-])O)c2c1 (protonated)
C#Cc1ccc2cc(C([NH-])=O)n(C(=O)OCO[P@@](=O)([O-])O)c2c1 (chirality)
C#Cc1ccc2cc(C([NH-])=O)n(C(=O)OCO[P@@](=O)([O-])O)c2c1 (3D coordinates assigned)
C#Cc1ccc2cc(C([NH-])=O)n(C(=O)OCO[P@@](=O)([O-])O)c2c1 (optimized conformer: 66.90958521837922 kcal/mol)

>  <smiles>  (45) 
C#Cc1ccc2cc(C(N)=O)n(C(=O)OCOP(=O)(O)O)c2c1

>  <score_type>  (45) 
oracle

>  <origin>  (45) 
adg

>  <m_score__min__energy>  (45) 
-5.7999999999999998

>  <m_primary>  (45) 
energy

$$$$
46:0
     RDKit          3D

 37 38  0  0  0  0  0  0  0  0999 V2000
  148.8170  154.0940  132.8120 C   0  0  0  0  0  0  0  0  0  0  0  0
  148.4030  155.2240  132.8810 C   0  0  0  0  0  0  0  0  0  0  0  0
  147.9060  156.5720  132.9630 C   0  0  0  0  0  0  0  0  0  0  0  0
  148.7970  157.6620  132.8240 C   0  0  0  0  0  0  0  0  0  0  0  0
  148.3270  158.9830  132.9230 C   0  0  0  0  0  0  0  0  0  0  0  0
  146.9670  159.1760  133.1540 C   0  0  0  0  0  0  0  0  0  0  0  0
  146.2540  160.3380  133.3410 C   0  0  0  0  0  0  0  0  0  0  0  0
  144.9400  159.9340  133.5720 C   0  0  0  0  0  0  0  0  0  0  0  0
  143.8180  160.8750  133.7720 C   0  0  0  0  0  0  0  0  0  0  0  0
  142.4660  160.4480  133.6260 N   0  0  0  0  0  0  0  0  0  0  0  0
  144.0570  162.0840  134.0380 O   0  0  0  0  0  0  0  0  0  0  0  0
  144.8450  158.5750  133.5280 N   0  0  0  0  0  0  0  0  0  0  0  0
  143.7070  157.7570  133.8280 C   0  0  0  0  0  0  0  0  0  0  0  0
  143.3290  156.8810  133.0020 O   0  0  0  0  0  0  0  0  0  0  0  0
  143.0110  157.9470  135.0270 O   0  0  0  0  0  0  0  0  0  0  0  0
  142.0430  157.0560  135.5080 C   0  0  0  0  0  0  0  0  0  0  0  0
  140.7380  157.2700  135.3390 C   0  0  0  0  0  0  0  0  0  0  0  0
  140.2880  158.4350  134.7190 O   0  0  0  0  0  0  0  0  0  0  0  0
  139.3070  158.4170  133.6920 C   0  0  0  0  0  0  0  0  0  0  0  0
  139.9360  158.8530  132.3670 C   0  0  0  0  0  0  0  0  0  0  0  0
  141.3550  158.5080  132.2970 N   0  0  0  0  0  0  0  0  0  0  0  0
  146.0930  158.1250  133.2730 C   0  0  0  0  0  0  0  0  0  0  0  0
  146.5360  156.8010  133.1950 C   0  0  0  0  0  0  0  0  0  0  0  0
  149.1948  153.0628  132.7490 H   0  0  0  0  0  0  0  0  0  0  0  0
  149.8647  157.4745  132.6372 H   0  0  0  0  0  0  0  0  0  0  0  0
  149.0119  159.8378  132.8212 H   0  0  0  0  0  0  0  0  0  0  0  0
  146.6394  161.3679  133.3139 H   0  0  0  0  0  0  0  0  0  0  0  0
  142.1390  159.5490  134.0440 H   0  0  0  0  0  0  0  0  0  0  0  0
  142.3698  156.1515  136.0418 H   0  0  0  0  0  0  0  0  0  0  0  0
  140.0116  156.5227  135.6910 H   0  0  0  0  0  0  0  0  0  0  0  0
  138.9058  157.3981  133.5880 H   0  0  0  0  0  0  0  0  0  0  0  0
  138.4942  159.1104  133.9538 H   0  0  0  0  0  0  0  0  0  0  0  0
  139.4076  158.3539  131.5414 H   0  0  0  0  0  0  0  0  0  0  0  0
  139.8472  159.9468  132.2913 H   0  0  0  0  0  0  0  0  0  0  0  0
  141.8780  159.3010  131.8600 H   0  0  0  0  0  0  0  0  0  0  0  0
  141.7230  158.3780  133.2680 H   0  0  0  0  0  0  0  0  0  0  0  0
  145.8342  155.9620  133.3116 H   0  0  0  0  0  0  0  0  0  0  0  0
  1  2  3  0
  2  3  1  0
  3  4  2  0
  4  5  1  0
  5  6  2  0
  6  7  1  0
  7  8  2  0
  8  9  1  0
  9 10  1  0
  9 11  2  0
  8 12  1  0
 12 13  1  0
 13 14  2  0
 13 15  1  0
 15 16  1  0
 16 17  2  3
 17 18  1  0
 18 19  1  0
 19 20  1  0
 20 21  1  0
 12 22  1  0
 22 23  2  0
 23  3  1  0
 22  6  1  0
  1 24  1  0
  4 25  1  0
  5 26  1  0
  7 27  1  0
 10 28  1  0
 16 29  1  0
 17 30  1  0
 19 31  1  0
 19 32  1  0
 20 33  1  0
 20 34  1  0
 21 35  1  0
 21 36  1  0
 23 37  1  0
M  CHG  1  10  -1
M  END
>  <UniqueID>  (46) 
46

>  <SMILES>  (46) 
C#Cc1ccc2cc(C([NH-])=O)n(C(=O)OC=COCCN)c2c1

>  <Energy>  (46) 
72.28441244454332

>  <Genealogy>  (46) 
C#Cc1ccc2cc(C([NH-])=O)n(C(=O)OC=COCCN)c2c1 (protonated)
C#Cc1ccc2cc(C([NH-])=O)n(C(=O)OC=COCCN)c2c1 (3D coordinates assigned)
C#Cc1ccc2cc(C([NH-])=O)n(C(=O)OC=COCCN)c2c1 (optimized conformer: 72.28441244454332 kcal/mol)

>  <smiles>  (46) 
C#Cc1ccc2cc(C(N)=O)n(C(=O)OC=COCCN)c2c1

>  <score_type>  (46) 
oracle

>  <origin>  (46) 
adg

>  <m_score__min__energy>  (46) 
-5.7699999999999996

>  <m_primary>  (46) 
energy

$$$$
47:0
     RDKit          3D

 44 45  0  0  0  0  0  0  0  0999 V2000
  138.8700  149.0310  130.2200 C   0  0  0  0  0  0  0  0  0  0  0  0
  140.0160  149.5520  130.9690 N   0  0  0  0  0  0  0  0  0  0  0  0
  141.3090  148.8560  130.9240 C   0  0  0  0  0  0  0  0  0  0  0  0
  141.9730  148.8780  132.2990 C   0  0  0  0  0  0  0  0  0  0  0  0
  142.9810  149.8500  132.3160 O   0  0  0  0  0  0  0  0  0  0  0  0
  139.8530  150.7480  131.7530 C   0  0  0  0  0  0  0  0  0  0  0  0
  138.7260  151.0400  132.2410 O   0  0  0  0  0  0  0  0  0  0  0  0
  140.9490  151.5890  131.9690 O   0  0  0  0  0  0  0  0  0  0  0  0
  140.9580  152.6140  132.9560 C   0  0  0  0  0  0  0  0  0  0  0  0
  141.8190  152.2360  134.0240 O   0  0  0  0  0  0  0  0  0  0  0  0
  142.4330  153.1690  134.8660 C   0  0  0  0  0  0  0  0  0  0  0  0
  142.3920  153.0200  136.1180 O   0  0  0  0  0  0  0  0  0  0  0  0
  143.1030  154.3080  134.3030 N   0  0  0  0  0  0  0  0  0  0  0  0
  144.0990  154.3070  133.3740 C   0  0  0  0  0  0  0  0  0  0  0  0
  144.8080  153.1130  132.8690 C   0  0  0  0  0  0  0  0  0  0  0  0
  144.1010  152.0390  132.2470 N   0  0  0  0  0  0  0  0  0  0  0  0
  146.0530  153.0160  133.0360 O   0  0  0  0  0  0  0  0  0  0  0  0
  144.4130  155.6070  132.9880 C   0  0  0  0  0  0  0  0  0  0  0  0
  143.5800  156.4160  133.7270 C   0  0  0  0  0  0  0  0  0  0  0  0
  143.4650  157.8010  133.7440 C   0  0  0  0  0  0  0  0  0  0  0  0
  142.4970  158.3720  134.5880 C   0  0  0  0  0  0  0  0  0  0  0  0
  141.6470  157.5520  135.3760 C   0  0  0  0  0  0  0  0  0  0  0  0
  140.6380  158.1780  136.3050 C   0  0  0  0  0  0  0  0  0  0  0  0
  139.3940  158.2490  135.7000 F   0  0  0  0  0  0  0  0  0  0  0  0
  141.0510  159.4540  136.6350 F   0  0  0  0  0  0  0  0  0  0  0  0
  140.5120  157.4300  137.4640 F   0  0  0  0  0  0  0  0  0  0  0  0
  141.8120  156.1480  135.3460 C   0  0  0  0  0  0  0  0  0  0  0  0
  142.7970  155.6080  134.5120 C   0  0  0  0  0  0  0  0  0  0  0  0
  138.1004  148.6811  130.9238 H   0  0  0  0  0  0  0  0  0  0  0  0
  138.4528  149.8279  129.5869 H   0  0  0  0  0  0  0  0  0  0  0  0
  139.1962  148.1927  129.5869 H   0  0  0  0  0  0  0  0  0  0  0  0
  141.1484  147.8124  130.6156 H   0  0  0  0  0  0  0  0  0  0  0  0
  141.9643  149.3664  130.2029 H   0  0  0  0  0  0  0  0  0  0  0  0
  141.2209  149.1165  133.0654 H   0  0  0  0  0  0  0  0  0  0  0  0
  142.4118  147.8916  132.5097 H   0  0  0  0  0  0  0  0  0  0  0  0
  142.6270  150.6040  132.8550 H   0  0  0  0  0  0  0  0  0  0  0  0
  141.3192  153.5514  132.5079 H   0  0  0  0  0  0  0  0  0  0  0  0
  139.9383  152.7611  133.3414 H   0  0  0  0  0  0  0  0  0  0  0  0
  143.0580  152.0040  132.2510 H   0  0  0  0  0  0  0  0  0  0  0  0
  144.6240  151.2250  131.8540 H   0  0  0  0  0  0  0  0  0  0  0  0
  145.1660  155.9207  132.2500 H   0  0  0  0  0  0  0  0  0  0  0  0
  144.1119  158.4311  133.1160 H   0  0  0  0  0  0  0  0  0  0  0  0
  142.3968  159.4663  134.6386 H   0  0  0  0  0  0  0  0  0  0  0  0
  141.1796  155.4945  135.9649 H   0  0  0  0  0  0  0  0  0  0  0  0
  1  2  1  0
  2  3  1  0
  3  4  1  0
  4  5  1  0
  2  6  1  0
  6  7  2  0
  6  8  1  0
  8  9  1  0
  9 10  1  0
 10 11  1  0
 11 12  2  0
 11 13  1  0
 13 14  1  0
 14 15  1  0
 15 16  1  0
 15 17  2  0
 14 18  2  0
 18 19  1  0
 19 20  2  0
 20 21  1  0
 21 22  2  0
 22 23  1  0
 23 24  1  0
 23 25  1  0
 23 26  1  0
 22 27  1  0
 27 28  2  0
 28 13  1  0
 28 19  1  0
  1 29  1  0
  1 30  1  0
  1 31  1  0
  3 32  1  0
  3 33  1  0
  4 34  1  0
  4 35  1  0
  5 36  1  0
  9 37  1  0
  9 38  1  0
 16 39  1  0
 16 40  1  0
 18 41  1  0
 20 42  1  0
 21 43  1  0
 27 44  1  0
M  END
>  <UniqueID>  (47) 
47

>  <SMILES>  (47) 
CN(CCO)C(=O)OCOC(=O)n1c(C(N)=O)cc2ccc(C(F)(F)F)cc21

>  <Energy>  (47) 
74.35124481936316

>  <Genealogy>  (47) 
CN(CCO)C(=O)OCOC(=O)n1c(C(N)=O)cc2ccc(C(F)(F)F)cc21 (3D coordinates assigned)
CN(CCO)C(=O)OCOC(=O)n1c(C(N)=O)cc2ccc(C(F)(F)F)cc21 (optimized conformer: 74.35124481936316 kcal/mol)

>  <smiles>  (47) 
CN(CCO)C(=O)OCOC(=O)n1c(C(N)=O)cc2ccc(C(F)(F)F)cc21

>  <score_type>  (47) 
oracle

>  <origin>  (47) 
adg

>  <m_score__min__energy>  (47) 
-5.5800000000000001

>  <m_primary>  (47) 
energy

$$$$
48:0
     RDKit          3D

 44 46  0  0  0  0  0  0  0  0999 V2000
  149.6080  159.0770  132.2460 C   0  0  0  0  0  0  0  0  0  0  0  0
  148.6480  159.6850  131.2050 C   0  0  0  0  0  0  0  0  0  0  0  0
  148.9230  161.1930  131.0990 C   0  0  0  0  0  0  0  0  0  0  0  0
  148.8650  159.0390  129.8240 C   0  0  0  0  0  0  0  0  0  0  0  0
  147.2830  159.5330  131.6240 O   0  0  0  0  0  0  0  0  0  0  0  0
  146.7930  159.6720  132.9320 C   0  0  0  0  0  0  0  0  0  0  0  0
  147.3050  160.5010  133.7300 O   0  0  0  0  0  0  0  0  0  0  0  0
  145.7090  158.8390  133.3690 N   0  0  0  0  0  0  0  0  0  0  0  0
  144.4360  159.2210  133.6710 C   0  0  0  0  0  0  0  0  0  0  0  0
  143.9510  160.6120  133.7820 C   0  0  0  0  0  0  0  0  0  0  0  0
  144.8530  161.6860  134.0360 N   0  0  0  0  0  0  0  0  0  0  0  0
  142.7170  160.8500  133.7000 O   0  0  0  0  0  0  0  0  0  0  0  0
  143.6440  158.1080  133.9460 C   0  0  0  0  0  0  0  0  0  0  0  0
  144.4790  157.0240  133.8090 C   0  0  0  0  0  0  0  0  0  0  0  0
  144.2130  155.6660  133.9530 C   0  0  0  0  0  0  0  0  0  0  0  0
  145.2590  154.7600  133.7190 C   0  0  0  0  0  0  0  0  0  0  0  0
  146.5470  155.2200  133.3360 C   0  0  0  0  0  0  0  0  0  0  0  0
  147.6380  154.2470  133.0800 C   0  0  0  0  0  0  0  0  0  0  0  0
  148.8740  154.6820  132.5680 C   0  0  0  0  0  0  0  0  0  0  0  0
  149.8860  153.7530  132.3270 C   0  0  0  0  0  0  0  0  0  0  0  0
  149.6680  152.4030  132.5960 C   0  0  0  0  0  0  0  0  0  0  0  0
  150.6450  151.4910  132.3660 F   0  0  0  0  0  0  0  0  0  0  0  0
  148.4320  151.9990  133.1040 C   0  0  0  0  0  0  0  0  0  0  0  0
  147.4520  152.9160  133.3340 N   0  0  0  0  0  0  0  0  0  0  0  0
  146.7760  156.6100  133.2000 C   0  0  0  0  0  0  0  0  0  0  0  0
  145.7190  157.4890  133.4590 C   0  0  0  0  0  0  0  0  0  0  0  0
  149.2446  159.3072  133.2584 H   0  0  0  0  0  0  0  0  0  0  0  0
  149.6518  157.9861  132.1113 H   0  0  0  0  0  0  0  0  0  0  0  0
  150.6129  159.5037  132.1113 H   0  0  0  0  0  0  0  0  0  0  0  0
  149.0015  161.6232  132.1083 H   0  0  0  0  0  0  0  0  0  0  0  0
  149.8658  161.3565  130.5564 H   0  0  0  0  0  0  0  0  0  0  0  0
  148.0986  161.6788  130.5564 H   0  0  0  0  0  0  0  0  0  0  0  0
  149.2128  158.0036  129.9541 H   0  0  0  0  0  0  0  0  0  0  0  0
  147.9172  159.0400  129.2657 H   0  0  0  0  0  0  0  0  0  0  0  0
  149.6200  159.6120  129.2657 H   0  0  0  0  0  0  0  0  0  0  0  0
  145.6630  161.8690  133.4030 H   0  0  0  0  0  0  0  0  0  0  0  0
  142.5775  158.0985  134.2154 H   0  0  0  0  0  0  0  0  0  0  0  0
  143.2121  155.3127  134.2418 H   0  0  0  0  0  0  0  0  0  0  0  0
  145.0792  153.6809  133.8336 H   0  0  0  0  0  0  0  0  0  0  0  0
  149.0414  155.7489  132.3589 H   0  0  0  0  0  0  0  0  0  0  0  0
  150.8546  154.0853  131.9253 H   0  0  0  0  0  0  0  0  0  0  0  0
  148.2491  150.9359  133.3193 H   0  0  0  0  0  0  0  0  0  0  0  0
  146.5480  152.5790  133.7340 H   0  0  0  0  0  0  0  0  0  0  0  0
  147.7628  156.9905  132.8975 H   0  0  0  0  0  0  0  0  0  0  0  0
  1  2  1  0
  2  3  1  0
  2  4  1  0
  2  5  1  0
  5  6  1  0
  6  7  2  0
  6  8  1  0
  8  9  1  0
  9 10  1  0
 10 11  1  0
 10 12  2  0
  9 13  2  0
 13 14  1  0
 14 15  2  0
 15 16  1  0
 16 17  2  0
 17 18  1  0
 18 19  2  0
 19 20  1  0
 20 21  2  0
 21 22  1  0
 21 23  1  0
 23 24  2  0
 17 25  1  0
 25 26  2  0
 26  8  1  0
 26 14  1  0
 24 18  1  0
  1 27  1  0
  1 28  1  0
  1 29  1  0
  3 30  1  0
  3 31  1  0
  3 32  1  0
  4 33  1  0
  4 34  1  0
  4 35  1  0
 11 36  1  0
 13 37  1  0
 15 38  1  0
 16 39  1  0
 19 40  1  0
 20 41  1  0
 23 42  1  0
 24 43  1  0
 25 44  1  0
M  CHG  2  11  -1  24   1
M  END
>  <UniqueID>  (48) 
48

>  <SMILES>  (48) 
CC(C)(C)OC(=O)n1c(C([NH-])=O)cc2ccc(-c3ccc(F)c[nH+]3)cc21

>  <Energy>  (48) 
85.58171993613614

>  <Genealogy>  (48) 
CC(C)(C)OC(=O)n1c(C([NH-])=O)cc2ccc(-c3ccc(F)c[nH+]3)cc21 (protonated)
CC(C)(C)OC(=O)n1c(C([NH-])=O)cc2ccc(-c3ccc(F)c[nH+]3)cc21 (3D coordinates assigned)
CC(C)(C)OC(=O)n1c(C([NH-])=O)cc2ccc(-c3ccc(F)c[nH+]3)cc21 (optimized conformer: 85.58171993613614 kcal/mol)

>  <smiles>  (48) 
CC(C)(C)OC(=O)n1c(C(N)=O)cc2ccc(-c3ccc(F)cn3)cc21

>  <score_type>  (48) 
oracle

>  <origin>  (48) 
adg

>  <m_score__min__energy>  (48) 
-7.79

>  <m_primary>  (48) 
energy

$$$$
49:0
     RDKit          3D

 52 53  0  0  0  0  0  0  0  0999 V2000
  142.0500  152.4360  133.3400 C   0  0  0  0  0  0  0  0  0  0  0  0
  143.2860  153.1270  133.9060 C   0  0  0  0  0  0  0  0  0  0  0  0
  143.5570  154.4520  133.1770 C   0  0  0  0  0  0  0  0  0  0  0  0
  143.0990  155.6210  133.9560 N   0  0  0  0  0  0  0  0  0  0  0  0
  144.0870  156.6280  134.3760 C   0  0  0  0  0  0  0  0  0  0  0  0
  144.2130  157.7460  133.3730 C   0  0  0  0  0  0  0  0  0  0  0  0
  143.2380  157.9970  132.6150 O   0  0  0  0  0  0  0  0  0  0  0  0
  145.3840  158.5820  133.3030 N   0  0  0  0  0  0  0  0  0  0  0  0
  146.7010  157.9510  133.3670 C   0  0  0  0  0  0  0  0  0  0  0  0
  145.2680  160.0540  133.2880 C   0  0  0  0  0  0  0  0  0  0  0  0
  144.0810  160.5380  134.1370 C   0  0  0  0  0  0  0  0  0  0  0  0
  142.8960  160.4860  133.3910 O   0  0  0  0  0  0  0  0  0  0  0  0
  141.7460  155.6860  134.4710 C   0  0  0  0  0  0  0  0  0  0  0  0
  140.7680  155.3760  133.7350 O   0  0  0  0  0  0  0  0  0  0  0  0
  141.4720  156.1640  135.7970 N   0  0  0  0  0  0  0  0  0  0  0  0
  141.1680  157.4330  136.1880 C   0  0  0  0  0  0  0  0  0  0  0  0
  141.2640  158.6260  135.3260 C   0  0  0  0  0  0  0  0  0  0  0  0
  140.8210  158.5620  133.9740 N   0  0  0  0  0  0  0  0  0  0  0  0
  141.7700  159.6910  135.7750 O   0  0  0  0  0  0  0  0  0  0  0  0
  140.8130  157.4530  137.5370 C   0  0  0  0  0  0  0  0  0  0  0  0
  140.9550  156.1470  137.9670 C   0  0  0  0  0  0  0  0  0  0  0  0
  140.6860  155.5760  139.2050 C   0  0  0  0  0  0  0  0  0  0  0  0
  140.8490  154.1860  139.3400 C   0  0  0  0  0  0  0  0  0  0  0  0
  141.2880  153.3940  138.2450 C   0  0  0  0  0  0  0  0  0  0  0  0
  141.4130  151.8960  138.3760 C   0  0  0  0  0  0  0  0  0  0  0  0
  142.7330  151.5500  138.6080 F   0  0  0  0  0  0  0  0  0  0  0  0
  140.9880  151.2950  137.2040 F   0  0  0  0  0  0  0  0  0  0  0  0
  140.6440  151.4220  139.4290 F   0  0  0  0  0  0  0  0  0  0  0  0
  141.5320  154.0090  136.9990 C   0  0  0  0  0  0  0  0  0  0  0  0
  141.3620  155.3920  136.8970 C   0  0  0  0  0  0  0  0  0  0  0  0
  141.4168  152.0820  134.1669 H   0  0  0  0  0  0  0  0  0  0  0  0
  141.4825  153.1477  132.7224 H   0  0  0  0  0  0  0  0  0  0  0  0
  142.3591  151.5798  132.7224 H   0  0  0  0  0  0  0  0  0  0  0  0
  143.1267  153.3305  134.9752 H   0  0  0  0  0  0  0  0  0  0  0  0
  144.1534  152.4653  133.7653 H   0  0  0  0  0  0  0  0  0  0  0  0
  144.6389  154.5450  133.0015 H   0  0  0  0  0  0  0  0  0  0  0  0
  142.9978  154.4370  132.2299 H   0  0  0  0  0  0  0  0  0  0  0  0
  143.7747  157.0509  135.3422 H   0  0  0  0  0  0  0  0  0  0  0  0
  145.0653  156.1318  134.4573 H   0  0  0  0  0  0  0  0  0  0  0  0
  146.9904  157.8123  134.4192 H   0  0  0  0  0  0  0  0  0  0  0  0
  146.6638  156.9729  132.8650 H   0  0  0  0  0  0  0  0  0  0  0  0
  147.4399  158.5929  132.8650 H   0  0  0  0  0  0  0  0  0  0  0  0
  146.1950  160.4890  133.6899 H   0  0  0  0  0  0  0  0  0  0  0  0
  145.1009  160.3749  132.2492 H   0  0  0  0  0  0  0  0  0  0  0  0
  143.9811  159.8927  135.0222 H   0  0  0  0  0  0  0  0  0  0  0  0
  144.2632  161.5776  134.4469 H   0  0  0  0  0  0  0  0  0  0  0  0
  142.4040  159.6780  133.6980 H   0  0  0  0  0  0  0  0  0  0  0  0
  141.3950  158.9420  133.1920 H   0  0  0  0  0  0  0  0  0  0  0  0
  140.4898  158.3209  138.1305 H   0  0  0  0  0  0  0  0  0  0  0  0
  140.3555  156.1928  140.0537 H   0  0  0  0  0  0  0  0  0  0  0  0
  140.6339  153.7054  140.3058 H   0  0  0  0  0  0  0  0  0  0  0  0
  141.8483  153.4144  136.1293 H   0  0  0  0  0  0  0  0  0  0  0  0
  1  2  1  0
  2  3  1  0
  3  4  1  0
  4  5  1  0
  5  6  1  0
  6  7  2  0
  6  8  1  0
  8  9  1  0
  8 10  1  0
 10 11  1  0
 11 12  1  0
  4 13  1  0
 13 14  2  0
 13 15  1  0
 15 16  1  0
 16 17  1  0
 17 18  1  0
 17 19  2  0
 16 20  2  0
 20 21  1  0
 21 22  2  0
 22 23  1  0
 23 24  2  0
 24 25  1  0
 25 26  1  0
 25 27  1  0
 25 28  1  0
 24 29  1  0
 29 30  2  0
 30 15  1  0
 30 21  1  0
  1 31  1  0
  1 32  1  0
  1 33  1  0
  2 34  1  0
  2 35  1  0
  3 36  1  0
  3 37  1  0
  5 38  1  0
  5 39  1  0
  9 40  1  0
  9 41  1  0
  9 42  1  0
 10 43  1  0
 10 44  1  0
 11 45  1  0
 11 46  1  0
 12 47  1  0
 18 48  1  0
 20 49  1  0
 22 50  1  0
 23 51  1  0
 29 52  1  0
M  CHG  1  18  -1
M  END
>  <UniqueID>  (49) 
49

>  <SMILES>  (49) 
CCCN(CC(=O)N(C)CCO)C(=O)n1c(C([NH-])=O)cc2ccc(C(F)(F)F)cc21

>  <Energy>  (49) 
89.85900246515914

>  <Genealogy>  (49) 
CCCN(CC(=O)N(C)CCO)C(=O)n1c(C([NH-])=O)cc2ccc(C(F)(F)F)cc21 (protonated)
CCCN(CC(=O)N(C)CCO)C(=O)n1c(C([NH-])=O)cc2ccc(C(F)(F)F)cc21 (3D coordinates assigned)
CCCN(CC(=O)N(C)CCO)C(=O)n1c(C([NH-])=O)cc2ccc(C(F)(F)F)cc21 (optimized conformer: 89.85900246515914 kcal/mol)

>  <smiles>  (49) 
CCCN(CC(=O)N(C)CCO)C(=O)n1c(C(N)=O)cc2ccc(C(F)(F)F)cc21

>  <score_type>  (49) 
oracle

>  <origin>  (49) 
adg

>  <m_score__min__energy>  (49) 
-5.9000000000000004

>  <m_primary>  (49) 
energy

$$$$
50:0
     RDKit          3D

 33 34  0  0  0  0  0  0  0  0999 V2000
  140.3470  159.3420  131.8430 N   0  0  0  0  0  0  0  0  0  0  0  0
  139.5480  158.6190  132.7780 C   0  0  0  0  0  0  0  0  0  0  0  0
  138.3560  158.9750  132.9760 O   0  0  0  0  0  0  0  0  0  0  0  0
  140.1380  157.4960  133.5330 C   0  0  0  0  0  0  0  0  0  0  0  0
  140.3520  156.2320  132.9860 C   0  0  0  0  0  0  0  0  0  0  0  0
  140.9920  155.5130  133.9690 C   0  0  0  0  0  0  0  0  0  0  0  0
  141.4370  154.1960  133.9660 C   0  0  0  0  0  0  0  0  0  0  0  0
  142.0450  153.7040  135.1320 C   0  0  0  0  0  0  0  0  0  0  0  0
  142.1880  154.5200  136.2830 C   0  0  0  0  0  0  0  0  0  0  0  0
  142.8170  153.9580  137.4540 N   0  0  0  0  0  0  0  0  0  0  0  0
  142.5470  152.6380  138.0460 C   0  0  2  0  0  0  0  0  0  0  0  0
  141.0400  152.4710  138.3440 C   0  0  0  0  0  0  0  0  0  0  0  0
  140.4870  151.2160  137.7400 C   0  0  0  0  0  0  0  0  0  0  0  0
  139.8750  150.3820  138.4580 O   0  0  0  0  0  0  0  0  0  0  0  0
  140.6350  150.9730  136.3800 O   0  0  0  0  0  0  0  0  0  0  0  0
  143.4530  152.3920  139.2270 C   0  0  0  0  0  0  0  0  0  0  0  0
  144.2970  153.2520  139.5940 O   0  0  0  0  0  0  0  0  0  0  0  0
  143.3320  151.2090  139.9460 O   0  0  0  0  0  0  0  0  0  0  0  0
  141.7280  155.8610  136.2390 C   0  0  0  0  0  0  0  0  0  0  0  0
  141.1410  156.3300  135.0580 C   0  0  0  0  0  0  0  0  0  0  0  0
  140.6200  157.5520  134.8080 N   0  0  0  0  0  0  0  0  0  0  0  0
  140.5300  158.6490  135.7320 C   0  0  0  0  0  0  0  0  0  0  0  0
  141.0560  159.7590  135.4560 O   0  0  0  0  0  0  0  0  0  0  0  0
  139.8830  158.4870  136.9520 O   0  0  0  0  0  0  0  0  0  0  0  0
  141.3830  159.2140  131.8110 H   0  0  0  0  0  0  0  0  0  0  0  0
  140.0693  155.8834  131.9817 H   0  0  0  0  0  0  0  0  0  0  0  0
  141.3165  153.5589  133.0774 H   0  0  0  0  0  0  0  0  0  0  0  0
  142.4164  152.6688  135.1531 H   0  0  0  0  0  0  0  0  0  0  0  0
  143.5900  154.5080  137.8940 H   0  0  0  0  0  0  0  0  0  0  0  0
  142.7888  151.8468  137.3211 H   0  0  0  0  0  0  0  0  0  0  0  0
  140.8947  152.4352  139.4338 H   0  0  0  0  0  0  0  0  0  0  0  0
  140.5080  153.3258  137.9010 H   0  0  0  0  0  0  0  0  0  0  0  0
  141.8304  156.5187  137.1147 H   0  0  0  0  0  0  0  0  0  0  0  0
  1  2  1  0
  2  3  2  0
  2  4  1  0
  4  5  2  0
  5  6  1  0
  6  7  2  0
  7  8  1  0
  8  9  2  0
  9 10  1  0
 10 11  1  0
 11 12  1  0
 12 13  1  0
 13 14  2  0
 13 15  1  0
 11 16  1  0
 16 17  2  0
 16 18  1  0
  9 19  1  0
 19 20  2  0
 20 21  1  0
 21 22  1  0
 22 23  2  0
 22 24  1  0
 21  4  1  0
 20  6  1  0
  1 25  1  0
  5 26  1  0
  7 27  1  0
  8 28  1  0
 10 29  1  0
 11 30  1  6
 12 31  1  0
 12 32  1  0
 19 33  1  0
M  CHG  4   1  -1  15  -1  18  -1  24  -1
M  END
>  <UniqueID>  (50) 
50

>  <SMILES>  (50) 
[NH-]C(=O)c1cc2ccc(N[C@H](CC(=O)[O-])C(=O)[O-])cc2n1C(=O)[O-]

>  <Energy>  (50) 
74.35405187712544

>  <Genealogy>  (50) 
[NH-]C(=O)c1cc2ccc(N[C@H](CC(=O)[O-])C(=O)[O-])cc2n1C(=O)[O-] (protonated)
[NH-]C(=O)c1cc2ccc(N[C@H](CC(=O)[O-])C(=O)[O-])cc2n1C(=O)[O-] (3D coordinates assigned)
[NH-]C(=O)c1cc2ccc(N[C@H](CC(=O)[O-])C(=O)[O-])cc2n1C(=O)[O-] (optimized conformer: 74.35405187712544 kcal/mol)

>  <smiles>  (50) 
NC(=O)c1cc2ccc(N[C@H](CC(=O)O)C(=O)O)cc2n1C(=O)O

>  <score_type>  (50) 
oracle

>  <origin>  (50) 
adg

>  <m_score__min__energy>  (50) 
-7.3200000000000003

>  <m_primary>  (50) 
energy

$$$$
51:0
     RDKit          3D

 41 42  0  0  0  0  0  0  0  0999 V2000
  144.0560  161.5150  133.7170 N   0  0  0  0  0  0  0  0  0  0  0  0
  142.8820  160.7090  133.7080 C   0  0  0  0  0  0  0  0  0  0  0  0
  141.7460  161.2530  133.6970 O   0  0  0  0  0  0  0  0  0  0  0  0
  142.9990  159.2170  133.7310 C   0  0  0  0  0  0  0  0  0  0  0  0
  144.4020  158.8130  133.8260 N   0  0  0  0  0  0  0  0  0  0  0  0
  144.8680  157.4530  133.7270 C   0  0  0  0  0  0  0  0  0  0  0  0
  143.9500  156.3950  133.9440 C   0  0  0  0  0  0  0  0  0  0  0  0
  144.3570  155.0550  133.8450 C   0  0  0  0  0  0  0  0  0  0  0  0
  145.6880  154.7980  133.5360 C   0  0  0  0  0  0  0  0  0  0  0  0
  146.3400  153.5990  133.3560 C   0  0  0  0  0  0  0  0  0  0  0  0
  147.6570  153.9380  133.0510 C   0  0  0  0  0  0  0  0  0  0  0  0
  148.7410  152.9480  132.8640 C   0  0  0  0  0  0  0  0  0  0  0  0
  149.5650  152.9780  131.6960 N   0  0  0  0  0  0  0  0  0  0  0  0
  148.9300  152.0460  133.7230 O   0  0  0  0  0  0  0  0  0  0  0  0
  147.8130  155.2920  133.0430 N   0  0  0  0  0  0  0  0  0  0  0  0
  148.9980  156.0320  132.7070 C   0  0  0  0  0  0  0  0  0  0  0  0
  150.0000  155.4320  132.2330 O   0  0  0  0  0  0  0  0  0  0  0  0
  149.0350  157.4150  132.9160 O   0  0  0  0  0  0  0  0  0  0  0  0
  149.2800  158.3610  131.8760 C   0  0  0  0  0  0  0  0  0  0  0  0
  148.7780  159.7480  132.2850 C   0  0  0  0  0  0  0  0  0  0  0  0
  147.2570  159.8490  132.1450 C   0  0  0  0  0  0  0  0  0  0  0  0
  146.7130  160.5200  133.2490 O   0  0  0  0  0  0  0  0  0  0  0  0
  146.5970  155.8040  133.3400 C   0  0  0  0  0  0  0  0  0  0  0  0
  146.2150  157.1500  133.4100 C   0  0  0  0  0  0  0  0  0  0  0  0
  144.7550  161.4530  132.9430 H   0  0  0  0  0  0  0  0  0  0  0  0
  142.4499  158.8245  134.5996 H   0  0  0  0  0  0  0  0  0  0  0  0
  142.5754  158.8132  132.7996 H   0  0  0  0  0  0  0  0  0  0  0  0
  145.1060  159.5710  133.9730 H   0  0  0  0  0  0  0  0  0  0  0  0
  142.9041  156.6271  134.1934 H   0  0  0  0  0  0  0  0  0  0  0  0
  143.6442  154.2330  134.0071 H   0  0  0  0  0  0  0  0  0  0  0  0
  145.9126  152.5886  133.4359 H   0  0  0  0  0  0  0  0  0  0  0  0
  150.3010  152.2510  131.5560 H   0  0  0  0  0  0  0  0  0  0  0  0
  149.4750  153.7400  130.9890 H   0  0  0  0  0  0  0  0  0  0  0  0
  150.3611  158.4107  131.6789 H   0  0  0  0  0  0  0  0  0  0  0  0
  148.7442  158.0411  130.9701 H   0  0  0  0  0  0  0  0  0  0  0  0
  149.0552  159.9355  133.3329 H   0  0  0  0  0  0  0  0  0  0  0  0
  149.2394  160.4951  131.6225 H   0  0  0  0  0  0  0  0  0  0  0  0
  147.0126  160.4028  131.2265 H   0  0  0  0  0  0  0  0  0  0  0  0
  146.8328  158.8352  132.0963 H   0  0  0  0  0  0  0  0  0  0  0  0
  146.0190  161.1350  132.8940 H   0  0  0  0  0  0  0  0  0  0  0  0
  146.9437  157.9525  133.2232 H   0  0  0  0  0  0  0  0  0  0  0  0
  1  2  1  0
  2  3  2  0
  2  4  1  0
  4  5  1  0
  5  6  1  0
  6  7  2  0
  7  8  1  0
  8  9  2  0
  9 10  1  0
 10 11  2  0
 11 12  1  0
 12 13  1  0
 12 14  2  0
 11 15  1  0
 15 16  1  0
 16 17  2  0
 16 18  1  0
 18 19  1  0
 19 20  1  0
 20 21  1  0
 21 22  1  0
 15 23  1  0
 23 24  2  0
 24  6  1  0
 23  9  1  0
  1 25  1  0
  4 26  1  0
  4 27  1  0
  5 28  1  0
  7 29  1  0
  8 30  1  0
 10 31  1  0
 13 32  1  0
 13 33  1  0
 19 34  1  0
 19 35  1  0
 20 36  1  0
 20 37  1  0
 21 38  1  0
 21 39  1  0
 22 40  1  0
 24 41  1  0
M  CHG  1   1  -1
M  END
>  <UniqueID>  (51) 
51

>  <SMILES>  (51) 
[NH-]C(=O)CNc1ccc2cc(C(N)=O)n(C(=O)OCCCO)c2c1

>  <Energy>  (51) 
71.58060167967214

>  <Genealogy>  (51) 
[NH-]C(=O)CNc1ccc2cc(C(N)=O)n(C(=O)OCCCO)c2c1 (protonated)
[NH-]C(=O)CNc1ccc2cc(C(N)=O)n(C(=O)OCCCO)c2c1 (3D coordinates assigned)
[NH-]C(=O)CNc1ccc2cc(C(N)=O)n(C(=O)OCCCO)c2c1 (optimized conformer: 71.58060167967214 kcal/mol)

>  <smiles>  (51) 
NC(=O)CNc1ccc2cc(C(N)=O)n(C(=O)OCCCO)c2c1

>  <score_type>  (51) 
oracle

>  <origin>  (51) 
adg

>  <m_score__min__energy>  (51) 
-5.96

>  <m_primary>  (51) 
energy

$$$$
52:0
     RDKit          3D

 43 45  0  0  0  0  0  0  0  0999 V2000
  140.2310  155.5240  133.7400 N   0  0  0  0  0  0  0  0  0  0  0  0
  140.3860  156.8360  134.2780 C   0  0  0  0  0  0  0  0  0  0  0  0
  139.4400  157.3480  134.9290 O   0  0  0  0  0  0  0  0  0  0  0  0
  141.6660  157.5570  134.1090 C   0  0  0  0  0  0  0  0  0  0  0  0
  141.7650  158.9450  134.0980 C   0  0  0  0  0  0  0  0  0  0  0  0
  143.0870  159.2160  133.8380 C   0  0  0  0  0  0  0  0  0  0  0  0
  143.7440  160.4380  133.7330 C   0  0  0  0  0  0  0  0  0  0  0  0
  145.1240  160.4260  133.4840 C   0  0  0  0  0  0  0  0  0  0  0  0
  145.8230  159.1990  133.3480 C   0  0  0  0  0  0  0  0  0  0  0  0
  147.2370  159.1980  133.0670 N   0  0  0  0  0  0  0  0  0  0  0  0
  147.9300  157.9190  132.8590 C   0  0  0  0  0  0  0  0  0  0  0  0
  149.3060  158.0990  132.2140 C   0  0  0  0  0  0  0  0  0  0  0  0
  149.1820  159.1230  130.7130 S   0  0  0  0  0  0  0  0  0  0  0  0
  148.4330  160.6280  131.4590 C   0  0  0  0  0  0  0  0  0  0  0  0
  147.9640  160.4590  132.9040 C   0  0  0  0  0  0  0  0  0  0  0  0
  145.1190  157.9770  133.4660 C   0  0  0  0  0  0  0  0  0  0  0  0
  143.7410  158.0180  133.7030 C   0  0  0  0  0  0  0  0  0  0  0  0
  142.8810  156.9850  133.8730 N   0  0  0  0  0  0  0  0  0  0  0  0
  143.2160  155.5860  133.9240 C   0  0  0  0  0  0  0  0  0  0  0  0
  143.7770  155.1030  134.9410 O   0  0  0  0  0  0  0  0  0  0  0  0
  142.8910  154.7570  132.8470 O   0  0  0  0  0  0  0  0  0  0  0  0
  143.4440  153.4540  132.6760 C   0  0  0  0  0  0  0  0  0  0  0  0
  143.2750  152.7090  133.8600 O   0  0  0  0  0  0  0  0  0  0  0  0
  141.7920  151.8650  133.7830 P   0  0  2  0  0  0  0  0  0  0  0  0
  141.3380  151.5410  135.1910 O   0  0  0  0  0  0  0  0  0  0  0  0
  141.9720  150.4220  132.9180 O   0  0  0  0  0  0  0  0  0  0  0  0
  140.6190  152.8300  133.0300 O   0  0  0  0  0  0  0  0  0  0  0  0
  140.9800  154.8070  133.8430 H   0  0  0  0  0  0  0  0  0  0  0  0
  140.9559  159.6718  134.2627 H   0  0  0  0  0  0  0  0  0  0  0  0
  143.1968  161.3860  133.8422 H   0  0  0  0  0  0  0  0  0  0  0  0
  145.6696  161.3768  133.3933 H   0  0  0  0  0  0  0  0  0  0  0  0
  148.0585  157.4244  133.8331 H   0  0  0  0  0  0  0  0  0  0  0  0
  147.3166  157.3124  132.1766 H   0  0  0  0  0  0  0  0  0  0  0  0
  149.9801  158.5896  132.9316 H   0  0  0  0  0  0  0  0  0  0  0  0
  149.6996  157.1099  131.9368 H   0  0  0  0  0  0  0  0  0  0  0  0
  149.1830  161.4323  131.4340 H   0  0  0  0  0  0  0  0  0  0  0  0
  147.5351  160.8549  130.8655 H   0  0  0  0  0  0  0  0  0  0  0  0
  148.8392  160.4602  133.5704 H   0  0  0  0  0  0  0  0  0  0  0  0
  147.2908  161.2912  133.1575 H   0  0  0  0  0  0  0  0  0  0  0  0
  145.6444  157.0151  133.3733 H   0  0  0  0  0  0  0  0  0  0  0  0
  142.9311  152.9447  131.8468 H   0  0  0  0  0  0  0  0  0  0  0  0
  144.5168  153.5397  132.4487 H   0  0  0  0  0  0  0  0  0  0  0  0
  140.9810  153.7490  133.0700 H   0  0  0  0  0  0  0  0  0  0  0  0
  1  2  1  0
  2  3  2  0
  2  4  1  0
  4  5  2  0
  5  6  1  0
  6  7  2  0
  7  8  1  0
  8  9  2  0
  9 10  1  0
 10 11  1  0
 11 12  1  0
 12 13  1  0
 13 14  1  0
 14 15  1  0
  9 16  1  0
 16 17  2  0
 17 18  1  0
 18 19  1  0
 19 20  2  0
 19 21  1  0
 21 22  1  0
 22 23  1  0
 23 24  1  0
 24 25  2  0
 24 26  1  6
 24 27  1  0
 18  4  1  0
 17  6  1  0
 15 10  1  0
  1 28  1  0
  5 29  1  0
  7 30  1  0
  8 31  1  0
 11 32  1  0
 11 33  1  0
 12 34  1  0
 12 35  1  0
 14 36  1  0
 14 37  1  0
 15 38  1  0
 15 39  1  0
 16 40  1  0
 22 41  1  0
 22 42  1  0
 27 43  1  0
M  CHG  2   1  -1  26  -1
M  END
>  <UniqueID>  (52) 
52

>  <SMILES>  (52) 
[NH-]C(=O)c1cc2ccc(N3CCSCC3)cc2n1C(=O)OCO[P@](=O)([O-])O

>  <Energy>  (52) 
84.99519236623924

>  <Genealogy>  (52) 
[NH-]C(=O)c1cc2ccc(N3CCSCC3)cc2n1C(=O)OCOP(=O)([O-])O (protonated)
[NH-]C(=O)c1cc2ccc(N3CCSCC3)cc2n1C(=O)OCO[P@](=O)([O-])O (chirality)
[NH-]C(=O)c1cc2ccc(N3CCSCC3)cc2n1C(=O)OCO[P@](=O)([O-])O (3D coordinates assigned)
[NH-]C(=O)c1cc2ccc(N3CCSCC3)cc2n1C(=O)OCO[P@](=O)([O-])O (nonaromatic ring conformer: 84.99519236623924 kcal/mol)

>  <smiles>  (52) 
NC(=O)c1cc2ccc(N3CCSCC3)cc2n1C(=O)OCOP(=O)(O)O

>  <score_type>  (52) 
oracle

>  <origin>  (52) 
adg

>  <m_score__min__energy>  (52) 
-7.0899999999999999

>  <m_primary>  (52) 
energy

$$$$
53:0
     RDKit          3D

 39 40  0  0  0  0  0  0  0  0999 V2000
  148.1960  155.0560  133.1480 C   0  0  0  0  0  0  0  0  0  0  0  0
  147.5860  156.4210  133.2430 C   0  0  0  0  0  0  0  0  0  0  0  0
  148.4160  157.5680  133.3050 C   0  0  0  0  0  0  0  0  0  0  0  0
  147.8550  158.8540  133.3710 C   0  0  0  0  0  0  0  0  0  0  0  0
  146.4680  158.9630  133.3510 C   0  0  0  0  0  0  0  0  0  0  0  0
  145.6690  160.0800  133.4320 C   0  0  0  0  0  0  0  0  0  0  0  0
  144.3630  159.6030  133.3730 C   0  0  0  0  0  0  0  0  0  0  0  0
  143.1760  160.4830  133.3700 C   0  0  0  0  0  0  0  0  0  0  0  0
  141.9280  160.0400  132.8390 N   0  0  0  0  0  0  0  0  0  0  0  0
  143.2840  161.6650  133.7920 O   0  0  0  0  0  0  0  0  0  0  0  0
  144.3490  158.2440  133.2710 N   0  0  0  0  0  0  0  0  0  0  0  0
  143.1990  157.3830  133.3060 C   0  0  0  0  0  0  0  0  0  0  0  0
  143.2180  156.2830  132.6900 O   0  0  0  0  0  0  0  0  0  0  0  0
  142.0650  157.7800  134.0280 O   0  0  0  0  0  0  0  0  0  0  0  0
  140.9050  157.0120  134.1930 C   0  0  0  0  0  0  0  0  0  0  0  0
  140.6330  156.4690  135.2990 O   0  0  0  0  0  0  0  0  0  0  0  0
  140.0030  156.7930  133.0130 C   0  0  1  0  0  0  0  0  0  0  0  0
  139.5620  155.3230  132.9730 C   0  0  0  0  0  0  0  0  0  0  0  0
  138.8610  157.7210  133.1010 N   0  0  0  0  0  0  0  0  0  0  0  0
  139.0580  159.1150  132.0400 P   0  0  0  0  0  0  0  0  0  0  0  0
  137.7600  159.3570  131.3060 O   0  0  0  0  0  0  0  0  0  0  0  0
  139.4420  160.4940  132.9420 O   0  0  0  0  0  0  0  0  0  0  0  0
  140.2790  158.8220  130.9080 O   0  0  0  0  0  0  0  0  0  0  0  0
  145.6490  157.8660  133.2570 C   0  0  0  0  0  0  0  0  0  0  0  0
  146.1810  156.5710  133.2120 C   0  0  0  0  0  0  0  0  0  0  0  0
  148.3721  154.6619  134.1597 H   0  0  0  0  0  0  0  0  0  0  0  0
  147.5119  154.3855  132.6072 H   0  0  0  0  0  0  0  0  0  0  0  0
  149.1519  155.1184  132.6072 H   0  0  0  0  0  0  0  0  0  0  0  0
  149.5097  157.4501  133.3014 H   0  0  0  0  0  0  0  0  0  0  0  0
  148.4928  159.7478  133.4365 H   0  0  0  0  0  0  0  0  0  0  0  0
  145.9934  161.1271  133.5239 H   0  0  0  0  0  0  0  0  0  0  0  0
  141.0890  160.6610  132.8830 H   0  0  0  0  0  0  0  0  0  0  0  0
  141.8470  159.1300  132.3350 H   0  0  0  0  0  0  0  0  0  0  0  0
  140.5326  157.0021  132.0718 H   0  0  0  0  0  0  0  0  0  0  0  0
  139.4489  154.9460  134.0002 H   0  0  0  0  0  0  0  0  0  0  0  0
  138.6003  155.2429  132.4451 H   0  0  0  0  0  0  0  0  0  0  0  0
  140.3208  154.7268  132.4451 H   0  0  0  0  0  0  0  0  0  0  0  0
  137.9750  157.2330  132.8300 H   0  0  0  0  0  0  0  0  0  0  0  0
  145.5216  155.6925  133.1540 H   0  0  0  0  0  0  0  0  0  0  0  0
  1  2  1  0
  2  3  2  0
  3  4  1  0
  4  5  2  0
  5  6  1  0
  6  7  2  0
  7  8  1  0
  8  9  1  0
  8 10  2  0
  7 11  1  0
 11 12  1  0
 12 13  2  0
 12 14  1  0
 14 15  1  0
 15 16  2  0
 15 17  1  0
 17 18  1  0
 17 19  1  0
 19 20  1  0
 20 21  2  0
 20 22  1  0
 20 23  1  0
 11 24  1  0
 24 25  2  0
 25  2  1  0
 24  5  1  0
  1 26  1  0
  1 27  1  0
  1 28  1  0
  3 29  1  0
  4 30  1  0
  6 31  1  0
  9 32  1  0
  9 33  1  0
 17 34  1  6
 18 35  1  0
 18 36  1  0
 18 37  1  0
 19 38  1  0
 25 39  1  0
M  CHG  2  22  -1  23  -1
M  END
>  <UniqueID>  (53) 
53

>  <SMILES>  (53) 
Cc1ccc2cc(C(N)=O)n(C(=O)OC(=O)[C@@H](C)NP(=O)([O-])[O-])c2c1

>  <Energy>  (53) 
74.81467162428507

>  <Genealogy>  (53) 
Cc1ccc2cc(C(N)=O)n(C(=O)OC(=O)C(C)NP(=O)([O-])[O-])c2c1 (protonated)
Cc1ccc2cc(C(N)=O)n(C(=O)OC(=O)[C@@H](C)NP(=O)([O-])[O-])c2c1 (chirality)
Cc1ccc2cc(C(N)=O)n(C(=O)OC(=O)[C@@H](C)NP(=O)([O-])[O-])c2c1 (3D coordinates assigned)
Cc1ccc2cc(C(N)=O)n(C(=O)OC(=O)[C@@H](C)NP(=O)([O-])[O-])c2c1 (optimized conformer: 74.81467162428507 kcal/mol)

>  <smiles>  (53) 
Cc1ccc2cc(C(N)=O)n(C(=O)OC(=O)C(C)NP(=O)(O)O)c2c1

>  <score_type>  (53) 
oracle

>  <origin>  (53) 
adg

>  <m_score__min__energy>  (53) 
-6.8700000000000001

>  <m_primary>  (53) 
energy

$$$$
54:0
     RDKit          3D

 46 47  0  0  0  0  0  0  0  0999 V2000
  140.5620  158.6710  136.4000 C   0  0  0  0  0  0  0  0  0  0  0  0
  141.0740  158.2160  135.1010 N   0  0  0  0  0  0  0  0  0  0  0  0
  140.3010  157.2030  134.3660 C   0  0  0  0  0  0  0  0  0  0  0  0
  140.3190  157.4920  132.8650 C   0  0  0  0  0  0  0  0  0  0  0  0
  139.0150  158.0060  132.4540 N   0  0  0  0  0  0  0  0  0  0  0  0
  139.2050  159.5220  131.6260 S   0  0  0  0  0  0  0  0  0  0  0  0
  137.6350  160.1110  131.0260 C   0  0  0  0  0  0  0  0  0  0  0  0
  139.7660  160.5310  132.5870 O   0  0  0  0  0  0  0  0  0  0  0  0
  140.1560  159.3630  130.4730 O   0  0  0  0  0  0  0  0  0  0  0  0
  142.3310  158.7350  134.5880 C   0  0  0  0  0  0  0  0  0  0  0  0
  142.4670  160.1090  134.2390 C   0  0  0  0  0  0  0  0  0  0  0  0
  143.6730  160.6110  133.7270 C   0  0  0  0  0  0  0  0  0  0  0  0
  144.7380  159.7300  133.5790 C   0  0  0  0  0  0  0  0  0  0  0  0
  146.0000  159.9480  133.0770 C   0  0  0  0  0  0  0  0  0  0  0  0
  146.6410  158.7150  133.1510 C   0  0  0  0  0  0  0  0  0  0  0  0
  148.0520  158.5080  132.7640 C   0  0  0  0  0  0  0  0  0  0  0  0
  148.4220  157.4900  131.8340 N   0  0  0  0  0  0  0  0  0  0  0  0
  148.9490  159.2060  133.3060 O   0  0  0  0  0  0  0  0  0  0  0  0
  145.8060  157.7680  133.6640 N   0  0  0  0  0  0  0  0  0  0  0  0
  146.0560  156.3590  133.7950 C   0  0  0  0  0  0  0  0  0  0  0  0
  145.7500  155.7660  134.8660 O   0  0  0  0  0  0  0  0  0  0  0  0
  146.6390  155.6570  132.7300 O   0  0  0  0  0  0  0  0  0  0  0  0
  147.7550  154.8160  132.8320 C   0  0  0  0  0  0  0  0  0  0  0  0
  148.8890  155.1820  132.4190 O   0  0  0  0  0  0  0  0  0  0  0  0
  147.5790  153.4380  133.3810 C   0  0  0  0  0  0  0  0  0  0  0  0
  148.5190  152.5840  132.8320 F   0  0  0  0  0  0  0  0  0  0  0  0
  146.3130  152.9800  133.0730 F   0  0  0  0  0  0  0  0  0  0  0  0
  147.7340  153.4540  134.7550 F   0  0  0  0  0  0  0  0  0  0  0  0
  144.6430  158.4080  133.9240 C   0  0  0  0  0  0  0  0  0  0  0  0
  143.4450  157.8740  134.4140 C   0  0  0  0  0  0  0  0  0  0  0  0
  141.1199  158.1752  137.2081 H   0  0  0  0  0  0  0  0  0  0  0  0
  140.6879  159.7607  136.4825 H   0  0  0  0  0  0  0  0  0  0  0  0
  139.4947  158.4179  136.4825 H   0  0  0  0  0  0  0  0  0  0  0  0
  140.7409  156.2113  134.5479 H   0  0  0  0  0  0  0  0  0  0  0  0
  139.2593  157.2295  134.7183 H   0  0  0  0  0  0  0  0  0  0  0  0
  141.0945  158.2404  132.6447 H   0  0  0  0  0  0  0  0  0  0  0  0
  140.5384  156.5650  132.3150 H   0  0  0  0  0  0  0  0  0  0  0  0
  136.9846  160.3550  131.8789 H   0  0  0  0  0  0  0  0  0  0  0  0
  137.7908  161.0118  130.4142 H   0  0  0  0  0  0  0  0  0  0  0  0
  137.1599  159.3300  130.4142 H   0  0  0  0  0  0  0  0  0  0  0  0
  141.6121  160.7881  134.3731 H   0  0  0  0  0  0  0  0  0  0  0  0
  143.7729  161.6710  133.4507 H   0  0  0  0  0  0  0  0  0  0  0  0
  146.4138  160.8942  132.6982 H   0  0  0  0  0  0  0  0  0  0  0  0
  149.4180  157.3870  131.5410 H   0  0  0  0  0  0  0  0  0  0  0  0
  147.7280  156.7860  131.5000 H   0  0  0  0  0  0  0  0  0  0  0  0
  143.3689  156.8046  134.6600 H   0  0  0  0  0  0  0  0  0  0  0  0
  1  2  1  0
  2  3  1  0
  3  4  1  0
  4  5  1  0
  5  6  1  0
  6  7  1  0
  6  8  2  0
  6  9  2  0
  2 10  1  0
 10 11  2  0
 11 12  1  0
 12 13  2  0
 13 14  1  0
 14 15  2  0
 15 16  1  0
 16 17  1  0
 16 18  2  0
 15 19  1  0
 19 20  1  0
 20 21  2  0
 20 22  1  0
 22 23  1  0
 23 24  2  0
 23 25  1  0
 25 26  1  0
 25 27  1  0
 25 28  1  0
 19 29  1  0
 29 30  2  0
 30 10  1  0
 29 13  1  0
  1 31  1  0
  1 32  1  0
  1 33  1  0
  3 34  1  0
  3 35  1  0
  4 36  1  0
  4 37  1  0
  7 38  1  0
  7 39  1  0
  7 40  1  0
 11 41  1  0
 12 42  1  0
 14 43  1  0
 17 44  1  0
 17 45  1  0
 30 46  1  0
M  CHG  1   5  -1
M  END
>  <UniqueID>  (54) 
54

>  <SMILES>  (54) 
CN(CC[N-]S(C)(=O)=O)c1ccc2cc(C(N)=O)n(C(=O)OC(=O)C(F)(F)F)c2c1

>  <Energy>  (54) 
78.56390312390693

>  <Genealogy>  (54) 
CN(CC[N-]S(C)(=O)=O)c1ccc2cc(C(N)=O)n(C(=O)OC(=O)C(F)(F)F)c2c1 (protonated)
CN(CC[N-]S(C)(=O)=O)c1ccc2cc(C(N)=O)n(C(=O)OC(=O)C(F)(F)F)c2c1 (3D coordinates assigned)
CN(CC[N-]S(C)(=O)=O)c1ccc2cc(C(N)=O)n(C(=O)OC(=O)C(F)(F)F)c2c1 (optimized conformer: 78.56390312390693 kcal/mol)

>  <smiles>  (54) 
CN(CCNS(C)(=O)=O)c1ccc2cc(C(N)=O)n(C(=O)OC(=O)C(F)(F)F)c2c1

>  <score_type>  (54) 
oracle

>  <origin>  (54) 
adg

>  <m_score__min__energy>  (54) 
-7.4500000000000002

>  <m_primary>  (54) 
energy

$$$$
55:0
     RDKit          3D

 43 44  0  0  0  0  0  0  0  0999 V2000
  148.8350  157.9830  131.8100 N   0  0  0  0  0  0  0  0  0  0  0  0
  148.3910  158.6310  132.9990 C   0  0  0  0  0  0  0  0  0  0  0  0
  149.2370  158.9940  133.8580 O   0  0  0  0  0  0  0  0  0  0  0  0
  146.9520  158.9030  133.1950 C   0  0  0  0  0  0  0  0  0  0  0  0
  146.4200  160.1840  133.3240 C   0  0  0  0  0  0  0  0  0  0  0  0
  145.0740  159.9990  133.5470 C   0  0  0  0  0  0  0  0  0  0  0  0
  144.0590  160.9340  133.7250 C   0  0  0  0  0  0  0  0  0  0  0  0
  142.7490  160.4590  133.8950 C   0  0  0  0  0  0  0  0  0  0  0  0
  142.4700  159.0680  133.8580 C   0  0  0  0  0  0  0  0  0  0  0  0
  141.0640  158.5680  134.0730 C   0  0  0  0  0  0  0  0  0  0  0  0
  141.0020  157.1950  133.9110 F   0  0  0  0  0  0  0  0  0  0  0  0
  140.2230  159.1680  133.1540 F   0  0  0  0  0  0  0  0  0  0  0  0
  140.6280  158.8730  135.3500 F   0  0  0  0  0  0  0  0  0  0  0  0
  143.5330  158.1500  133.7010 C   0  0  0  0  0  0  0  0  0  0  0  0
  144.8310  158.6510  133.5500 C   0  0  0  0  0  0  0  0  0  0  0  0
  145.9740  157.9630  133.3360 N   0  0  0  0  0  0  0  0  0  0  0  0
  146.0950  156.5430  133.1760 C   0  0  0  0  0  0  0  0  0  0  0  0
  146.6260  156.0700  132.1340 O   0  0  0  0  0  0  0  0  0  0  0  0
  145.6530  155.6920  134.1950 O   0  0  0  0  0  0  0  0  0  0  0  0
  144.3430  155.1300  134.2400 C   0  0  0  0  0  0  0  0  0  0  0  0
  144.3890  153.6030  134.1670 C   0  0  0  0  0  0  0  0  0  0  0  0
  144.8320  153.1730  132.8800 O   0  0  0  0  0  0  0  0  0  0  0  0
  146.0980  152.6280  132.6390 C   0  0  0  0  0  0  0  0  0  0  0  0
  146.2170  151.4470  132.2140 O   0  0  0  0  0  0  0  0  0  0  0  0
  147.2620  153.4210  132.9020 N   0  0  0  0  0  0  0  0  0  0  0  0
  148.6180  152.9570  132.6190 C   0  0  0  0  0  0  0  0  0  0  0  0
  149.5380  154.1320  132.2940 C   0  0  0  0  0  0  0  0  0  0  0  0
  148.9540  155.3360  132.7050 O   0  0  0  0  0  0  0  0  0  0  0  0
  148.4450  157.0570  131.5260 H   0  0  0  0  0  0  0  0  0  0  0  0
  146.9604  161.1401  133.2611 H   0  0  0  0  0  0  0  0  0  0  0  0
  144.2764  162.0123  133.7323 H   0  0  0  0  0  0  0  0  0  0  0  0
  141.9289  161.1735  134.0589 H   0  0  0  0  0  0  0  0  0  0  0  0
  143.3444  157.0663  133.6976 H   0  0  0  0  0  0  0  0  0  0  0  0
  143.8572  155.4290  135.1805 H   0  0  0  0  0  0  0  0  0  0  0  0
  143.7766  155.5015  133.3733 H   0  0  0  0  0  0  0  0  0  0  0  0
  145.0829  153.2255  134.9325 H   0  0  0  0  0  0  0  0  0  0  0  0
  143.3768  153.2097  134.3425 H   0  0  0  0  0  0  0  0  0  0  0  0
  147.1340  154.3640  133.3340 H   0  0  0  0  0  0  0  0  0  0  0  0
  149.0085  152.4264  133.4999 H   0  0  0  0  0  0  0  0  0  0  0  0
  148.5855  152.2843  131.7493 H   0  0  0  0  0  0  0  0  0  0  0  0
  150.4967  153.9972  132.8162 H   0  0  0  0  0  0  0  0  0  0  0  0
  149.7020  154.1673  131.2069 H   0  0  0  0  0  0  0  0  0  0  0  0
  148.7480  155.8390  131.8750 H   0  0  0  0  0  0  0  0  0  0  0  0
  1  2  1  0
  2  3  2  0
  2  4  1  0
  4  5  2  0
  5  6  1  0
  6  7  2  0
  7  8  1  0
  8  9  2  0
  9 10  1  0
 10 11  1  0
 10 12  1  0
 10 13  1  0
  9 14  1  0
 14 15  2  0
 15 16  1  0
 16 17  1  0
 17 18  2  0
 17 19  1  0
 19 20  1  0
 20 21  1  0
 21 22  1  0
 22 23  1  0
 23 24  2  0
 23 25  1  0
 25 26  1  0
 26 27  1  0
 27 28  1  0
 16  4  1  0
 15  6  1  0
  1 29  1  0
  5 30  1  0
  7 31  1  0
  8 32  1  0
 14 33  1  0
 20 34  1  0
 20 35  1  0
 21 36  1  0
 21 37  1  0
 25 38  1  0
 26 39  1  0
 26 40  1  0
 27 41  1  0
 27 42  1  0
 28 43  1  0
M  CHG  1   1  -1
M  END
>  <UniqueID>  (55) 
55

>  <SMILES>  (55) 
[NH-]C(=O)c1cc2ccc(C(F)(F)F)cc2n1C(=O)OCCOC(=O)NCCO

>  <Energy>  (55) 
70.88270104007115

>  <Genealogy>  (55) 
[NH-]C(=O)c1cc2ccc(C(F)(F)F)cc2n1C(=O)OCCOC(=O)NCCO (protonated)
[NH-]C(=O)c1cc2ccc(C(F)(F)F)cc2n1C(=O)OCCOC(=O)NCCO (3D coordinates assigned)
[NH-]C(=O)c1cc2ccc(C(F)(F)F)cc2n1C(=O)OCCOC(=O)NCCO (optimized conformer: 70.88270104007115 kcal/mol)

>  <smiles>  (55) 
NC(=O)c1cc2ccc(C(F)(F)F)cc2n1C(=O)OCCOC(=O)NCCO

>  <score_type>  (55) 
oracle

>  <origin>  (55) 
adg

>  <m_score__min__energy>  (55) 
-5.1799999999999997

>  <m_primary>  (55) 
energy

$$$$
56:0
     RDKit          3D

 44 45  0  0  0  0  0  0  0  0999 V2000
  148.3710  154.6440  132.7980 C   0  0  0  0  0  0  0  0  0  0  0  0
  147.9310  156.0700  132.9520 C   0  0  0  0  0  0  0  0  0  0  0  0
  148.8630  157.1230  132.7840 C   0  0  0  0  0  0  0  0  0  0  0  0
  148.4520  158.4620  132.8770 C   0  0  0  0  0  0  0  0  0  0  0  0
  147.1060  158.7160  133.1270 C   0  0  0  0  0  0  0  0  0  0  0  0
  146.4370  159.9140  133.2310 C   0  0  0  0  0  0  0  0  0  0  0  0
  145.1060  159.5750  133.4630 C   0  0  0  0  0  0  0  0  0  0  0  0
  144.0500  160.5730  133.7290 C   0  0  0  0  0  0  0  0  0  0  0  0
  142.6970  160.3230  133.3580 N   0  0  0  0  0  0  0  0  0  0  0  0
  144.3360  161.6360  134.3410 O   0  0  0  0  0  0  0  0  0  0  0  0
  144.9530  158.2190  133.4900 N   0  0  0  0  0  0  0  0  0  0  0  0
  143.7230  157.4800  133.5730 C   0  0  0  0  0  0  0  0  0  0  0  0
  142.8850  157.5410  132.6330 O   0  0  0  0  0  0  0  0  0  0  0  0
  143.4520  156.7070  134.7070 O   0  0  0  0  0  0  0  0  0  0  0  0
  142.2750  156.8650  135.4920 C   0  0  0  0  0  0  0  0  0  0  0  0
  141.9600  155.6470  136.1600 O   0  0  0  0  0  0  0  0  0  0  0  0
  141.1920  155.5990  137.3300 C   0  0  0  0  0  0  0  0  0  0  0  0
  140.6270  156.6450  137.7560 O   0  0  0  0  0  0  0  0  0  0  0  0
  141.0520  154.3620  138.0550 N   0  0  0  0  0  0  0  0  0  0  0  0
  140.2210  154.3230  139.2620 C   0  0  0  0  0  0  0  0  0  0  0  0
  141.6850  153.1270  137.5700 C   0  0  0  0  0  0  0  0  0  0  0  0
  141.3020  151.9280  138.4440 C   0  0  0  0  0  0  0  0  0  0  0  0
  140.4200  150.9710  137.7060 C   0  0  0  0  0  0  0  0  0  0  0  0
  139.5040  150.3570  138.3150 O   0  0  0  0  0  0  0  0  0  0  0  0
  140.6380  150.7230  136.3580 O   0  0  0  0  0  0  0  0  0  0  0  0
  146.1890  157.7080  133.2900 C   0  0  0  0  0  0  0  0  0  0  0  0
  146.5720  156.3650  133.1920 C   0  0  0  0  0  0  0  0  0  0  0  0
  148.5099  154.1938  133.7920 H   0  0  0  0  0  0  0  0  0  0  0  0
  147.6046  154.0815  132.2446 H   0  0  0  0  0  0  0  0  0  0  0  0
  149.3211  154.6111  132.2446 H   0  0  0  0  0  0  0  0  0  0  0  0
  149.9182  156.8896  132.5788 H   0  0  0  0  0  0  0  0  0  0  0  0
  149.1713  159.2854  132.7561 H   0  0  0  0  0  0  0  0  0  0  0  0
  146.8629  160.9248  133.1485 H   0  0  0  0  0  0  0  0  0  0  0  0
  142.4650  159.6670  132.5800 H   0  0  0  0  0  0  0  0  0  0  0  0
  142.4398  157.6562  136.2382 H   0  0  0  0  0  0  0  0  0  0  0  0
  141.4384  157.1383  134.8321 H   0  0  0  0  0  0  0  0  0  0  0  0
  140.8661  154.3533  140.1524 H   0  0  0  0  0  0  0  0  0  0  0  0
  139.5445  155.1904  139.2696 H   0  0  0  0  0  0  0  0  0  0  0  0
  139.6288  153.3961  139.2696 H   0  0  0  0  0  0  0  0  0  0  0  0
  141.3572  152.9375  136.5372 H   0  0  0  0  0  0  0  0  0  0  0  0
  142.7767  153.2549  137.6131 H   0  0  0  0  0  0  0  0  0  0  0  0
  142.2183  151.4038  138.7532 H   0  0  0  0  0  0  0  0  0  0  0  0
  140.7501  152.3012  139.3193 H   0  0  0  0  0  0  0  0  0  0  0  0
  145.8313  155.5589  133.2995 H   0  0  0  0  0  0  0  0  0  0  0  0
  1  2  1  0
  2  3  2  0
  3  4  1  0
  4  5  2  0
  5  6  1  0
  6  7  2  0
  7  8  1  0
  8  9  1  0
  8 10  2  0
  7 11  1  0
 11 12  1  0
 12 13  2  0
 12 14  1  0
 14 15  1  0
 15 16  1  0
 16 17  1  0
 17 18  2  0
 17 19  1  0
 19 20  1  0
 19 21  1  0
 21 22  1  0
 22 23  1  0
 23 24  2  0
 23 25  1  0
 11 26  1  0
 26 27  2  0
 27  2  1  0
 26  5  1  0
  1 28  1  0
  1 29  1  0
  1 30  1  0
  3 31  1  0
  4 32  1  0
  6 33  1  0
  9 34  1  0
 15 35  1  0
 15 36  1  0
 20 37  1  0
 20 38  1  0
 20 39  1  0
 21 40  1  0
 21 41  1  0
 22 42  1  0
 22 43  1  0
 27 44  1  0
M  CHG  2   9  -1  25  -1
M  END
>  <UniqueID>  (56) 
56

>  <SMILES>  (56) 
Cc1ccc2cc(C([NH-])=O)n(C(=O)OCOC(=O)N(C)CCC(=O)[O-])c2c1

>  <Energy>  (56) 
71.96545505936037

>  <Genealogy>  (56) 
Cc1ccc2cc(C([NH-])=O)n(C(=O)OCOC(=O)N(C)CCC(=O)[O-])c2c1 (protonated)
Cc1ccc2cc(C([NH-])=O)n(C(=O)OCOC(=O)N(C)CCC(=O)[O-])c2c1 (3D coordinates assigned)
Cc1ccc2cc(C([NH-])=O)n(C(=O)OCOC(=O)N(C)CCC(=O)[O-])c2c1 (optimized conformer: 71.96545505936037 kcal/mol)

>  <smiles>  (56) 
Cc1ccc2cc(C(N)=O)n(C(=O)OCOC(=O)N(C)CCC(=O)O)c2c1

>  <score_type>  (56) 
oracle

>  <origin>  (56) 
adg

>  <m_score__min__energy>  (56) 
-6.96

>  <m_primary>  (56) 
energy

$$$$
57:0
     RDKit          3D

 40 41  0  0  0  0  0  0  0  0999 V2000
  141.1960  157.7260  135.1410 C   0  0  0  0  0  0  0  0  0  0  0  0
  141.4400  157.7900  133.6910 N   0  0  0  0  0  0  0  0  0  0  0  0
  142.2680  158.9700  133.3850 C   0  0  0  0  0  0  0  0  0  0  0  0
  140.1570  157.8340  132.9550 C   0  0  0  0  0  0  0  0  0  0  0  0
  139.5670  156.4300  132.7770 C   0  0  0  0  0  0  0  0  0  0  0  0
  140.5650  155.4300  132.9820 O   0  0  0  0  0  0  0  0  0  0  0  0
  140.2990  154.0560  132.9940 C   0  0  0  0  0  0  0  0  0  0  0  0
  139.1100  153.6360  132.9490 O   0  0  0  0  0  0  0  0  0  0  0  0
  141.3850  153.1170  133.0740 N   0  0  0  0  0  0  0  0  0  0  0  0
  142.6630  153.3630  133.4780 C   0  0  0  0  0  0  0  0  0  0  0  0
  143.1540  154.6210  134.0750 C   0  0  0  0  0  0  0  0  0  0  0  0
  143.0020  155.8670  133.3950 N   0  0  0  0  0  0  0  0  0  0  0  0
  143.6660  154.6030  135.2260 O   0  0  0  0  0  0  0  0  0  0  0  0
  143.4620  152.2380  133.2990 C   0  0  0  0  0  0  0  0  0  0  0  0
  142.6240  151.2770  132.7820 C   0  0  0  0  0  0  0  0  0  0  0  0
  142.8990  149.9720  132.3890 C   0  0  0  0  0  0  0  0  0  0  0  0
  141.8510  149.2140  131.8400 C   0  0  0  0  0  0  0  0  0  0  0  0
  140.5530  149.7660  131.7010 C   0  0  0  0  0  0  0  0  0  0  0  0
  139.4530  148.9650  131.0500 C   0  0  0  0  0  0  0  0  0  0  0  0
  138.3580  148.8650  131.8910 F   0  0  0  0  0  0  0  0  0  0  0  0
  139.0670  149.5900  129.8790 F   0  0  0  0  0  0  0  0  0  0  0  0
  139.8900  147.6850  130.7560 F   0  0  0  0  0  0  0  0  0  0  0  0
  140.3200  151.1070  132.0870 C   0  0  0  0  0  0  0  0  0  0  0  0
  141.3760  151.8320  132.6530 C   0  0  0  0  0  0  0  0  0  0  0  0
  142.1235  157.9693  135.6800 H   0  0  0  0  0  0  0  0  0  0  0  0
  140.4132  158.4492  135.4134 H   0  0  0  0  0  0  0  0  0  0  0  0
  140.8689  156.7117  135.4134 H   0  0  0  0  0  0  0  0  0  0  0  0
  142.5977  159.4399  134.3233 H   0  0  0  0  0  0  0  0  0  0  0  0
  143.1474  158.6596  132.8016 H   0  0  0  0  0  0  0  0  0  0  0  0
  141.6770  159.6914  132.8016 H   0  0  0  0  0  0  0  0  0  0  0  0
  139.4429  158.4539  133.5169 H   0  0  0  0  0  0  0  0  0  0  0  0
  140.3435  158.2606  131.9584 H   0  0  0  0  0  0  0  0  0  0  0  0
  138.7561  156.2847  133.5059 H   0  0  0  0  0  0  0  0  0  0  0  0
  139.1814  156.3375  131.7510 H   0  0  0  0  0  0  0  0  0  0  0  0
  142.4220  155.9380  132.5290 H   0  0  0  0  0  0  0  0  0  0  0  0
  143.3960  156.7420  133.8060 H   0  0  0  0  0  0  0  0  0  0  0  0
  144.5343  152.1383  133.5229 H   0  0  0  0  0  0  0  0  0  0  0  0
  143.9065  149.5458  132.5044 H   0  0  0  0  0  0  0  0  0  0  0  0
  142.0401  148.1805  131.5144 H   0  0  0  0  0  0  0  0  0  0  0  0
  139.3320  151.5695  131.9458 H   0  0  0  0  0  0  0  0  0  0  0  0
  1  2  1  0
  2  3  1  0
  2  4  1  0
  4  5  1  0
  5  6  1  0
  6  7  1  0
  7  8  2  0
  7  9  1  0
  9 10  1  0
 10 11  1  0
 11 12  1  0
 11 13  2  0
 10 14  2  0
 14 15  1  0
 15 16  2  0
 16 17  1  0
 17 18  2  0
 18 19  1  0
 19 20  1  0
 19 21  1  0
 19 22  1  0
 18 23  1  0
 23 24  2  0
 24  9  1  0
 24 15  1  0
  1 25  1  0
  1 26  1  0
  1 27  1  0
  3 28  1  0
  3 29  1  0
  3 30  1  0
  4 31  1  0
  4 32  1  0
  5 33  1  0
  5 34  1  0
 12 35  1  0
 12 36  1  0
 14 37  1  0
 16 38  1  0
 17 39  1  0
 23 40  1  0
M  END
>  <UniqueID>  (57) 
57

>  <SMILES>  (57) 
CN(C)CCOC(=O)n1c(C(N)=O)cc2ccc(C(F)(F)F)cc21

>  <Energy>  (57) 
77.06214079523646

>  <Genealogy>  (57) 
CN(C)CCOC(=O)n1c(C(N)=O)cc2ccc(C(F)(F)F)cc21 (3D coordinates assigned)
CN(C)CCOC(=O)n1c(C(N)=O)cc2ccc(C(F)(F)F)cc21 (optimized conformer: 77.06214079523646 kcal/mol)

>  <smiles>  (57) 
CN(C)CCOC(=O)n1c(C(N)=O)cc2ccc(C(F)(F)F)cc21

>  <score_type>  (57) 
oracle

>  <origin>  (57) 
adg

>  <m_score__min__energy>  (57) 
-6.5999999999999996

>  <m_primary>  (57) 
energy

$$$$
58:0
     RDKit          3D

 48 49  0  0  0  0  0  0  0  0999 V2000
  139.1110  147.7420  130.3180 C   0  0  0  0  0  0  0  0  0  0  0  0
  138.7420  148.9450  130.9530 O   0  0  0  0  0  0  0  0  0  0  0  0
  139.8450  149.8250  130.9680 C   0  0  0  0  0  0  0  0  0  0  0  0
  139.6990  150.8200  132.1190 C   0  0  0  0  0  0  0  0  0  0  0  0
  141.0170  151.2530  132.6080 N   0  0  0  0  0  0  0  0  0  0  0  0
  142.1240  150.2900  132.5960 C   0  0  0  0  0  0  0  0  0  0  0  0
  141.2860  152.6110  133.0330 C   0  0  0  0  0  0  0  0  0  0  0  0
  140.5590  153.5500  132.6070 O   0  0  0  0  0  0  0  0  0  0  0  0
  142.4390  152.9660  133.9260 C   0  0  0  0  0  0  0  0  0  0  0  0
  143.9610  153.0970  132.9310 S   0  0  0  0  0  0  0  0  0  0  0  0
  143.7360  154.8660  132.5450 C   0  0  0  0  0  0  0  0  0  0  0  0
  144.0590  155.7050  133.7440 C   0  0  0  0  0  0  0  0  0  0  0  0
  144.5150  155.1560  134.7840 O   0  0  0  0  0  0  0  0  0  0  0  0
  143.8480  157.1240  133.7290 N   0  0  0  0  0  0  0  0  0  0  0  0
  142.6620  157.7860  133.8340 C   0  0  0  0  0  0  0  0  0  0  0  0
  141.3350  157.1620  134.0360 C   0  0  0  0  0  0  0  0  0  0  0  0
  140.7760  156.2870  133.0610 N   0  0  0  0  0  0  0  0  0  0  0  0
  140.6940  157.3920  135.0960 O   0  0  0  0  0  0  0  0  0  0  0  0
  142.8670  159.1640  133.7750 C   0  0  0  0  0  0  0  0  0  0  0  0
  144.2270  159.3240  133.6260 C   0  0  0  0  0  0  0  0  0  0  0  0
  144.9850  160.4840  133.5160 C   0  0  0  0  0  0  0  0  0  0  0  0
  146.3750  160.3510  133.3560 C   0  0  0  0  0  0  0  0  0  0  0  0
  146.9770  159.0680  133.2810 C   0  0  0  0  0  0  0  0  0  0  0  0
  148.4720  158.9380  133.1440 C   0  0  0  0  0  0  0  0  0  0  0  0
  148.9410  159.9360  132.3090 F   0  0  0  0  0  0  0  0  0  0  0  0
  149.0880  159.0560  134.3780 F   0  0  0  0  0  0  0  0  0  0  0  0
  148.8090  157.7080  132.6080 F   0  0  0  0  0  0  0  0  0  0  0  0
  146.1730  157.9120  133.4190 C   0  0  0  0  0  0  0  0  0  0  0  0
  144.7950  158.0780  133.5980 C   0  0  0  0  0  0  0  0  0  0  0  0
  139.3440  146.9824  131.0787 H   0  0  0  0  0  0  0  0  0  0  0  0
  138.2798  147.3890  129.6899 H   0  0  0  0  0  0  0  0  0  0  0  0
  139.9971  147.9158  129.6899 H   0  0  0  0  0  0  0  0  0  0  0  0
  140.7714  149.2469  131.1005 H   0  0  0  0  0  0  0  0  0  0  0  0
  139.8836  150.3746  130.0159 H   0  0  0  0  0  0  0  0  0  0  0  0
  139.1389  151.6988  131.7667 H   0  0  0  0  0  0  0  0  0  0  0  0
  139.1622  150.3279  132.9434 H   0  0  0  0  0  0  0  0  0  0  0  0
  142.4070  150.0438  133.6300 H   0  0  0  0  0  0  0  0  0  0  0  0
  141.8079  149.3745  132.0745 H   0  0  0  0  0  0  0  0  0  0  0  0
  142.9869  150.7297  132.0745 H   0  0  0  0  0  0  0  0  0  0  0  0
  142.2386  153.9292  134.4180 H   0  0  0  0  0  0  0  0  0  0  0  0
  142.5661  152.1838  134.6889 H   0  0  0  0  0  0  0  0  0  0  0  0
  144.4040  155.1445  131.7166 H   0  0  0  0  0  0  0  0  0  0  0  0
  142.6882  155.0394  132.2587 H   0  0  0  0  0  0  0  0  0  0  0  0
  141.3610  155.5620  132.5900 H   0  0  0  0  0  0  0  0  0  0  0  0
  142.1049  159.9549  133.8347 H   0  0  0  0  0  0  0  0  0  0  0  0
  144.5113  161.4761  133.5531 H   0  0  0  0  0  0  0  0  0  0  0  0
  147.0033  161.2514  133.2881 H   0  0  0  0  0  0  0  0  0  0  0  0
  146.6201  156.9075  133.3864 H   0  0  0  0  0  0  0  0  0  0  0  0
  1  2  1  0
  2  3  1  0
  3  4  1  0
  4  5  1  0
  5  6  1  0
  5  7  1  0
  7  8  2  0
  7  9  1  0
  9 10  1  0
 10 11  1  0
 11 12  1  0
 12 13  2  0
 12 14  1  0
 14 15  1  0
 15 16  1  0
 16 17  1  0
 16 18  2  0
 15 19  2  0
 19 20  1  0
 20 21  2  0
 21 22  1  0
 22 23  2  0
 23 24  1  0
 24 25  1  0
 24 26  1  0
 24 27  1  0
 23 28  1  0
 28 29  2  0
 29 14  1  0
 29 20  1  0
  1 30  1  0
  1 31  1  0
  1 32  1  0
  3 33  1  0
  3 34  1  0
  4 35  1  0
  4 36  1  0
  6 37  1  0
  6 38  1  0
  6 39  1  0
  9 40  1  0
  9 41  1  0
 11 42  1  0
 11 43  1  0
 17 44  1  0
 19 45  1  0
 21 46  1  0
 22 47  1  0
 28 48  1  0
M  CHG  1  17  -1
M  END
>  <UniqueID>  (58) 
58

>  <SMILES>  (58) 
COCCN(C)C(=O)CSCC(=O)n1c(C([NH-])=O)cc2ccc(C(F)(F)F)cc21

>  <Energy>  (58) 
80.26751730278438

>  <Genealogy>  (58) 
COCCN(C)C(=O)CSCC(=O)n1c(C([NH-])=O)cc2ccc(C(F)(F)F)cc21 (protonated)
COCCN(C)C(=O)CSCC(=O)n1c(C([NH-])=O)cc2ccc(C(F)(F)F)cc21 (3D coordinates assigned)
COCCN(C)C(=O)CSCC(=O)n1c(C([NH-])=O)cc2ccc(C(F)(F)F)cc21 (optimized conformer: 80.26751730278438 kcal/mol)

>  <smiles>  (58) 
COCCN(C)C(=O)CSCC(=O)n1c(C(N)=O)cc2ccc(C(F)(F)F)cc21

>  <score_type>  (58) 
oracle

>  <origin>  (58) 
adg

>  <m_score__min__energy>  (58) 
-6.9400000000000004

>  <m_primary>  (58) 
energy

$$$$
59:0
     RDKit          3D

 49 50  0  0  0  0  0  0  0  0999 V2000
  143.2600  153.6680  132.2600 C   0  0  0  0  0  0  0  0  0  0  0  0
  142.2930  153.2610  133.2880 N   0  0  0  0  0  0  0  0  0  0  0  0
  142.2900  151.8650  133.7540 C   0  0  0  0  0  0  0  0  0  0  0  0
  142.5270  150.8890  132.5980 C   0  0  0  0  0  0  0  0  0  0  0  0
  141.3080  150.6140  131.9440 O   0  0  0  0  0  0  0  0  0  0  0  0
  140.5660  149.2820  132.7180 P   0  0  1  0  0  0  0  0  0  0  0  0
  141.4540  148.0630  132.5880 O   0  0  0  0  0  0  0  0  0  0  0  0
  140.3370  149.6110  134.3630 O   0  0  0  0  0  0  0  0  0  0  0  0
  139.0650  148.9150  132.0040 O   0  0  0  0  0  0  0  0  0  0  0  0
  139.3610  148.3680  130.4180 P   0  0  0  0  0  0  0  0  0  0  0  0
  140.7760  148.7400  130.0370 O   0  0  0  0  0  0  0  0  0  0  0  0
  139.1890  146.6870  130.2950 O   0  0  0  0  0  0  0  0  0  0  0  0
  138.2960  149.1250  129.3440 O   0  0  0  0  0  0  0  0  0  0  0  0
  141.3310  154.2030  133.8130 C   0  0  0  0  0  0  0  0  0  0  0  0
  141.4450  154.6210  134.9970 O   0  0  0  0  0  0  0  0  0  0  0  0
  140.1420  154.6690  133.0110 C   0  0  0  0  0  0  0  0  0  0  0  0
  139.4880  155.7810  133.6150 O   0  0  0  0  0  0  0  0  0  0  0  0
  139.5380  157.0870  133.1140 C   0  0  0  0  0  0  0  0  0  0  0  0
  139.1220  157.3450  131.9510 O   0  0  0  0  0  0  0  0  0  0  0  0
  140.0760  158.1350  133.9290 N   0  0  0  0  0  0  0  0  0  0  0  0
  140.4150  159.3990  133.5500 C   0  0  0  0  0  0  0  0  0  0  0  0
  140.1150  160.0170  132.2420 C   0  0  0  0  0  0  0  0  0  0  0  0
  140.5120  159.3830  131.0300 N   0  0  0  0  0  0  0  0  0  0  0  0
  139.4460  161.0840  132.1950 O   0  0  0  0  0  0  0  0  0  0  0  0
  140.9910  160.0900  134.6160 C   0  0  0  0  0  0  0  0  0  0  0  0
  140.9830  159.2040  135.6710 C   0  0  0  0  0  0  0  0  0  0  0  0
  141.4400  159.3600  136.9760 C   0  0  0  0  0  0  0  0  0  0  0  0
  141.3260  158.2650  137.8480 C   0  0  0  0  0  0  0  0  0  0  0  0
  140.7670  157.0410  137.4030 C   0  0  0  0  0  0  0  0  0  0  0  0
  140.6640  155.8790  138.3490 C   0  0  0  0  0  0  0  0  0  0  0  0
  140.9720  156.2960  139.6320 F   0  0  0  0  0  0  0  0  0  0  0  0
  141.5490  154.8860  137.9690 F   0  0  0  0  0  0  0  0  0  0  0  0
  140.3090  156.9210  136.0720 C   0  0  0  0  0  0  0  0  0  0  0  0
  140.4240  158.0330  135.2300 C   0  0  0  0  0  0  0  0  0  0  0  0
  144.1704  154.0512  132.7441 H   0  0  0  0  0  0  0  0  0  0  0  0
  143.5153  152.8010  131.6330 H   0  0  0  0  0  0  0  0  0  0  0  0
  142.8185  154.4566  131.6330 H   0  0  0  0  0  0  0  0  0  0  0  0
  143.0871  151.7354  134.5008 H   0  0  0  0  0  0  0  0  0  0  0  0
  141.3047  151.6489  134.1928 H   0  0  0  0  0  0  0  0  0  0  0  0
  143.2322  151.3362  131.8820 H   0  0  0  0  0  0  0  0  0  0  0  0
  142.9442  149.9519  132.9952 H   0  0  0  0  0  0  0  0  0  0  0  0
  140.4843  154.9617  132.0074 H   0  0  0  0  0  0  0  0  0  0  0  0
  139.4215  153.8393  132.9621 H   0  0  0  0  0  0  0  0  0  0  0  0
  140.8470  158.3940  131.0300 H   0  0  0  0  0  0  0  0  0  0  0  0
  141.3707  161.1224  134.6146 H   0  0  0  0  0  0  0  0  0  0  0  0
  141.8769  160.3112  137.3141 H   0  0  0  0  0  0  0  0  0  0  0  0
  141.6742  158.3583  138.8873 H   0  0  0  0  0  0  0  0  0  0  0  0
  139.6373  155.4850  138.3241 H   0  0  0  0  0  0  0  0  0  0  0  0
  139.8737  155.9789  135.7072 H   0  0  0  0  0  0  0  0  0  0  0  0
  1  2  1  0
  2  3  1  0
  3  4  1  0
  4  5  1  0
  5  6  1  0
  6  7  2  0
  6  8  1  1
  6  9  1  0
  9 10  1  0
 10 11  2  0
 10 12  1  0
 10 13  1  0
  2 14  1  0
 14 15  2  0
 14 16  1  0
 16 17  1  0
 17 18  1  0
 18 19  2  0
 18 20  1  0
 20 21  1  0
 21 22  1  0
 22 23  1  0
 22 24  2  0
 21 25  2  0
 25 26  1  0
 26 27  2  0
 27 28  1  0
 28 29  2  0
 29 30  1  0
 30 31  1  0
 30 32  1  0
 29 33  1  0
 33 34  2  0
 34 20  1  0
 34 26  1  0
  1 35  1  0
  1 36  1  0
  1 37  1  0
  3 38  1  0
  3 39  1  0
  4 40  1  0
  4 41  1  0
 16 42  1  0
 16 43  1  0
 23 44  1  0
 25 45  1  0
 27 46  1  0
 28 47  1  0
 30 48  1  0
 33 49  1  0
M  CHG  4   8  -1  12  -1  13  -1  23  -1
M  END
>  <UniqueID>  (59) 
59

>  <SMILES>  (59) 
CN(CCO[P@@](=O)([O-])OP(=O)([O-])[O-])C(=O)COC(=O)n1c(C([NH-])=O)cc2ccc(C(F)F)cc21

>  <Energy>  (59) 
77.8912331678999

>  <Genealogy>  (59) 
CN(CCOP(=O)([O-])OP(=O)([O-])[O-])C(=O)COC(=O)n1c(C([NH-])=O)cc2ccc(C(F)F)cc21 (protonated)
CN(CCO[P@@](=O)([O-])OP(=O)([O-])[O-])C(=O)COC(=O)n1c(C([NH-])=O)cc2ccc(C(F)F)cc21 (chirality)
CN(CCO[P@@](=O)([O-])OP(=O)([O-])[O-])C(=O)COC(=O)n1c(C([NH-])=O)cc2ccc(C(F)F)cc21 (3D coordinates assigned)
CN(CCO[P@@](=O)([O-])OP(=O)([O-])[O-])C(=O)COC(=O)n1c(C([NH-])=O)cc2ccc(C(F)F)cc21 (optimized conformer: 77.8912331678999 kcal/mol)

>  <smiles>  (59) 
CN(CCOP(=O)(O)OP(=O)(O)O)C(=O)COC(=O)n1c(C(N)=O)cc2ccc(C(F)F)cc21

>  <score_type>  (59) 
oracle

>  <origin>  (59) 
adg

>  <m_score__min__energy>  (59) 
-7.1900000000000004

>  <m_primary>  (59) 
energy

$$$$
60:0
     RDKit          3D

 37 38  0  0  0  0  0  0  0  0999 V2000
  143.0730  153.2640  132.6810 C   0  0  0  0  0  0  0  0  0  0  0  0
  143.5960  154.1150  131.6070 N   0  0  0  0  0  0  0  0  0  0  0  0
  145.0140  154.4790  131.8210 C   0  0  0  0  0  0  0  0  0  0  0  0
  145.3040  154.9290  133.2650 C   0  0  0  0  0  0  0  0  0  0  0  0
  144.7610  156.3020  133.5550 C   0  0  0  0  0  0  0  0  0  0  0  0
  143.4450  156.4590  134.0580 C   0  0  0  0  0  0  0  0  0  0  0  0
  142.9390  157.7360  134.3510 C   0  0  0  0  0  0  0  0  0  0  0  0
  143.7710  158.8320  134.1430 C   0  0  0  0  0  0  0  0  0  0  0  0
  143.5290  160.1730  134.3250 C   0  0  0  0  0  0  0  0  0  0  0  0
  144.7100  160.8160  133.9580 C   0  0  0  0  0  0  0  0  0  0  0  0
  144.9150  162.2740  134.0860 C   0  0  0  0  0  0  0  0  0  0  0  0
  146.1120  162.8000  134.6510 N   0  0  0  0  0  0  0  0  0  0  0  0
  143.9990  163.0640  133.7360 O   0  0  0  0  0  0  0  0  0  0  0  0
  145.6430  159.9050  133.5550 N   0  0  0  0  0  0  0  0  0  0  0  0
  146.9550  160.1600  133.0310 C   0  0  0  0  0  0  0  0  0  0  0  0
  147.8990  160.4590  133.8120 O   0  0  0  0  0  0  0  0  0  0  0  0
  147.1740  160.1010  131.6510 O   0  0  0  0  0  0  0  0  0  0  0  0
  148.4040  160.4890  131.0520 C   0  0  0  0  0  0  0  0  0  0  0  0
  145.0530  158.6970  133.6770 C   0  0  0  0  0  0  0  0  0  0  0  0
  145.5760  157.4390  133.3560 C   0  0  0  0  0  0  0  0  0  0  0  0
  143.3399  153.6983  133.6558 H   0  0  0  0  0  0  0  0  0  0  0  0
  141.9782  153.1980  132.5964 H   0  0  0  0  0  0  0  0  0  0  0  0
  143.5086  152.2575  132.5964 H   0  0  0  0  0  0  0  0  0  0  0  0
  143.5180  153.5780  130.7110 H   0  0  0  0  0  0  0  0  0  0  0  0
  142.9920  154.9660  131.5170 H   0  0  0  0  0  0  0  0  0  0  0  0
  145.6397  153.6033  131.5936 H   0  0  0  0  0  0  0  0  0  0  0  0
  145.2416  155.3269  131.1582 H   0  0  0  0  0  0  0  0  0  0  0  0
  144.8412  154.2117  133.9588 H   0  0  0  0  0  0  0  0  0  0  0  0
  146.3959  154.9648  133.3936 H   0  0  0  0  0  0  0  0  0  0  0  0
  142.8143  155.5725  134.2203 H   0  0  0  0  0  0  0  0  0  0  0  0
  141.9158  157.8659  134.7334 H   0  0  0  0  0  0  0  0  0  0  0  0
  142.6000  160.6398  134.6842 H   0  0  0  0  0  0  0  0  0  0  0  0
  147.0230  162.3020  134.5420 H   0  0  0  0  0  0  0  0  0  0  0  0
  149.1378  160.7205  131.8382 H   0  0  0  0  0  0  0  0  0  0  0  0
  148.7830  159.6668  130.4273 H   0  0  0  0  0  0  0  0  0  0  0  0
  148.2427  161.3799  130.4273 H   0  0  0  0  0  0  0  0  0  0  0  0
  146.5967  157.3379  132.9585 H   0  0  0  0  0  0  0  0  0  0  0  0
  1  2  1  0
  2  3  1  0
  3  4  1  0
  4  5  1  0
  5  6  2  0
  6  7  1  0
  7  8  2  0
  8  9  1  0
  9 10  2  0
 10 11  1  0
 11 12  1  0
 11 13  2  0
 10 14  1  0
 14 15  1  0
 15 16  2  0
 15 17  1  0
 17 18  1  0
 14 19  1  0
 19 20  2  0
 20  5  1  0
 19  8  1  0
  1 21  1  0
  1 22  1  0
  1 23  1  0
  2 24  1  0
  2 25  1  0
  3 26  1  0
  3 27  1  0
  4 28  1  0
  4 29  1  0
  6 30  1  0
  7 31  1  0
  9 32  1  0
 12 33  1  0
 18 34  1  0
 18 35  1  0
 18 36  1  0
 20 37  1  0
M  CHG  2   2   1  12  -1
M  END
>  <UniqueID>  (60) 
60

>  <SMILES>  (60) 
C[NH2+]CCc1ccc2cc(C([NH-])=O)n(C(=O)OC)c2c1

>  <Energy>  (60) 
72.50832002716604

>  <Genealogy>  (60) 
C[NH2+]CCc1ccc2cc(C([NH-])=O)n(C(=O)OC)c2c1 (protonated)
C[NH2+]CCc1ccc2cc(C([NH-])=O)n(C(=O)OC)c2c1 (3D coordinates assigned)
C[NH2+]CCc1ccc2cc(C([NH-])=O)n(C(=O)OC)c2c1 (optimized conformer: 72.50832002716604 kcal/mol)

>  <smiles>  (60) 
CNCCc1ccc2cc(C(N)=O)n(C(=O)OC)c2c1

>  <score_type>  (60) 
oracle

>  <origin>  (60) 
adg

>  <m_score__min__energy>  (60) 
-5.9699999999999998

>  <m_primary>  (60) 
energy

$$$$
61:0
     RDKit          3D

 38 39  0  0  0  0  0  0  0  0999 V2000
  142.5470  157.3850  132.5380 N   0  0  0  0  0  0  0  0  0  0  0  0
  142.9810  156.4270  133.5040 C   0  0  0  0  0  0  0  0  0  0  0  0
  143.6210  156.8230  134.5140 O   0  0  0  0  0  0  0  0  0  0  0  0
  142.6580  154.9910  133.3460 C   0  0  0  0  0  0  0  0  0  0  0  0
  143.6040  153.9680  133.3920 C   0  0  0  0  0  0  0  0  0  0  0  0
  142.9060  152.8130  133.1240 C   0  0  0  0  0  0  0  0  0  0  0  0
  143.3490  151.4960  133.0530 C   0  0  0  0  0  0  0  0  0  0  0  0
  142.3990  150.4950  132.7900 C   0  0  0  0  0  0  0  0  0  0  0  0
  141.0280  150.8210  132.6250 C   0  0  0  0  0  0  0  0  0  0  0  0
  140.0190  149.7460  132.3110 C   0  0  0  0  0  0  0  0  0  0  0  0
  139.9010  148.8570  133.3660 F   0  0  0  0  0  0  0  0  0  0  0  0
  138.7740  150.3030  132.0750 F   0  0  0  0  0  0  0  0  0  0  0  0
  140.4240  149.0560  131.1840 F   0  0  0  0  0  0  0  0  0  0  0  0
  140.6230  152.1750  132.6760 C   0  0  0  0  0  0  0  0  0  0  0  0
  141.5930  153.1520  132.9260 C   0  0  0  0  0  0  0  0  0  0  0  0
  141.4260  154.4880  133.0560 N   0  0  0  0  0  0  0  0  0  0  0  0
  140.1810  155.2000  133.0080 C   0  0  0  0  0  0  0  0  0  0  0  0
  139.1130  154.6260  133.3550 O   0  0  0  0  0  0  0  0  0  0  0  0
  140.1640  156.5400  132.6020 O   0  0  0  0  0  0  0  0  0  0  0  0
  139.3790  157.5400  133.2480 C   0  0  0  0  0  0  0  0  0  0  0  0
  140.1680  158.8010  133.4080 C   0  0  0  0  0  0  0  0  0  0  0  0
  140.7780  159.2860  132.4160 O   0  0  0  0  0  0  0  0  0  0  0  0
  140.2580  159.4000  134.6700 O   0  0  0  0  0  0  0  0  0  0  0  0
  141.0230  158.8700  135.7520 C   0  0  0  0  0  0  0  0  0  0  0  0
  140.2180  157.8230  136.5220 C   0  0  0  0  0  0  0  0  0  0  0  0
  141.3150  156.3140  137.0490 Br  0  0  0  0  0  0  0  0  0  0  0  0
  142.0640  157.0910  131.6600 H   0  0  0  0  0  0  0  0  0  0  0  0
  142.7470  158.3990  132.6800 H   0  0  0  0  0  0  0  0  0  0  0  0
  144.6801  154.0639  133.5987 H   0  0  0  0  0  0  0  0  0  0  0  0
  144.4104  151.2462  133.1983 H   0  0  0  0  0  0  0  0  0  0  0  0
  142.7218  149.4464  132.7111 H   0  0  0  0  0  0  0  0  0  0  0  0
  139.5700  152.4536  132.5227 H   0  0  0  0  0  0  0  0  0  0  0  0
  138.4849  157.7466  132.6414 H   0  0  0  0  0  0  0  0  0  0  0  0
  139.0851  157.1747  134.2431 H   0  0  0  0  0  0  0  0  0  0  0  0
  141.9357  158.4025  135.3539 H   0  0  0  0  0  0  0  0  0  0  0  0
  141.2818  159.6908  136.4371 H   0  0  0  0  0  0  0  0  0  0  0  0
  139.7981  158.2903  137.4250 H   0  0  0  0  0  0  0  0  0  0  0  0
  139.4208  157.4514  135.8613 H   0  0  0  0  0  0  0  0  0  0  0  0
  1  2  1  0
  2  3  2  0
  2  4  1  0
  4  5  2  0
  5  6  1  0
  6  7  2  0
  7  8  1  0
  8  9  2  0
  9 10  1  0
 10 11  1  0
 10 12  1  0
 10 13  1  0
  9 14  1  0
 14 15  2  0
 15 16  1  0
 16 17  1  0
 17 18  2  0
 17 19  1  0
 19 20  1  0
 20 21  1  0
 21 22  2  0
 21 23  1  0
 23 24  1  0
 24 25  1  0
 25 26  1  0
 16  4  1  0
 15  6  1  0
  1 27  1  0
  1 28  1  0
  5 29  1  0
  7 30  1  0
  8 31  1  0
 14 32  1  0
 20 33  1  0
 20 34  1  0
 24 35  1  0
 24 36  1  0
 25 37  1  0
 25 38  1  0
M  END
>  <UniqueID>  (61) 
61

>  <SMILES>  (61) 
NC(=O)c1cc2ccc(C(F)(F)F)cc2n1C(=O)OCC(=O)OCCBr

>  <Energy>  (61) 
70.43298639824852

>  <Genealogy>  (61) 
NC(=O)c1cc2ccc(C(F)(F)F)cc2n1C(=O)OCC(=O)OCCBr (3D coordinates assigned)
NC(=O)c1cc2ccc(C(F)(F)F)cc2n1C(=O)OCC(=O)OCCBr (optimized conformer: 70.43298639824852 kcal/mol)

>  <smiles>  (61) 
NC(=O)c1cc2ccc(C(F)(F)F)cc2n1C(=O)OCC(=O)OCCBr

>  <score_type>  (61) 
oracle

>  <origin>  (61) 
adg

>  <m_score__min__energy>  (61) 
-6.2599999999999998

>  <m_primary>  (61) 
energy

$$$$
62:0
     RDKit          3D

 38 39  0  0  0  0  0  0  0  0999 V2000
  150.3410  159.7660  130.7510 C   0  0  0  0  0  0  0  0  0  0  0  0
  149.0850  159.4060  131.4890 C   0  0  0  0  0  0  0  0  0  0  0  0
  148.1510  160.4120  131.8400 C   0  0  0  0  0  0  0  0  0  0  0  0
  146.9970  160.0900  132.5720 C   0  0  0  0  0  0  0  0  0  0  0  0
  146.8050  158.7600  132.9370 C   0  0  0  0  0  0  0  0  0  0  0  0
  145.7940  158.1840  133.6710 C   0  0  0  0  0  0  0  0  0  0  0  0
  146.1180  156.8320  133.7440 C   0  0  0  0  0  0  0  0  0  0  0  0
  145.2540  155.8250  134.3880 C   0  0  0  0  0  0  0  0  0  0  0  0
  145.7650  154.9450  135.3870 N   0  0  0  0  0  0  0  0  0  0  0  0
  144.0600  155.6970  134.0050 O   0  0  0  0  0  0  0  0  0  0  0  0
  147.2890  156.5800  133.0940 N   0  0  0  0  0  0  0  0  0  0  0  0
  148.0180  155.3410  133.0640 C   0  0  0  0  0  0  0  0  0  0  0  0
  149.1510  155.2870  132.5100 O   0  0  0  0  0  0  0  0  0  0  0  0
  147.4800  154.1990  133.6700 O   0  0  0  0  0  0  0  0  0  0  0  0
  148.2240  153.3700  134.5600 C   0  0  0  0  0  0  0  0  0  0  0  0
  148.3660  154.0040  135.8290 O   0  0  0  0  0  0  0  0  0  0  0  0
  147.8350  153.4760  137.0090 C   0  0  0  0  0  0  0  0  0  0  0  0
  146.5970  153.2700  137.1230 O   0  0  0  0  0  0  0  0  0  0  0  0
  148.7390  153.2130  138.1660 C   0  0  0  0  0  0  0  0  0  0  0  0
  147.7640  152.9930  139.6820 P   0  0  0  0  0  0  0  0  0  0  0  0
  146.6950  151.9520  139.4430 O   0  0  0  0  0  0  0  0  0  0  0  0
  147.0330  154.4550  140.1090 O   0  0  0  0  0  0  0  0  0  0  0  0
  148.7730  152.4810  140.9370 O   0  0  0  0  0  0  0  0  0  0  0  0
  147.6970  157.7730  132.6000 C   0  0  0  0  0  0  0  0  0  0  0  0
  148.8670  158.0710  131.8910 C   0  0  0  0  0  0  0  0  0  0  0  0
  151.1382  159.9945  131.4737 H   0  0  0  0  0  0  0  0  0  0  0  0
  150.6502  158.9203  130.1192 H   0  0  0  0  0  0  0  0  0  0  0  0
  150.1553  160.6471  130.1192 H   0  0  0  0  0  0  0  0  0  0  0  0
  148.3315  161.4538  131.5365 H   0  0  0  0  0  0  0  0  0  0  0  0
  146.2668  160.8647  132.8487 H   0  0  0  0  0  0  0  0  0  0  0  0
  144.9170  158.6847  134.1071 H   0  0  0  0  0  0  0  0  0  0  0  0
  146.7830  154.9280  135.6210 H   0  0  0  0  0  0  0  0  0  0  0  0
  145.1360  154.2450  135.8390 H   0  0  0  0  0  0  0  0  0  0  0  0
  147.6969  152.4133  134.6899 H   0  0  0  0  0  0  0  0  0  0  0  0
  149.2233  153.1966  134.1343 H   0  0  0  0  0  0  0  0  0  0  0  0
  149.3216  152.3003  137.9724 H   0  0  0  0  0  0  0  0  0  0  0  0
  149.4171  154.0694  138.2951 H   0  0  0  0  0  0  0  0  0  0  0  0
  149.5980  157.2841  131.6533 H   0  0  0  0  0  0  0  0  0  0  0  0
  1  2  1  0
  2  3  2  0
  3  4  1  0
  4  5  2  0
  5  6  1  0
  6  7  2  0
  7  8  1  0
  8  9  1  0
  8 10  2  0
  7 11  1  0
 11 12  1  0
 12 13  2  0
 12 14  1  0
 14 15  1  0
 15 16  1  0
 16 17  1  0
 17 18  2  0
 17 19  1  0
 19 20  1  0
 20 21  2  0
 20 22  1  0
 20 23  1  0
 11 24  1  0
 24 25  2  0
 25  2  1  0
 24  5  1  0
  1 26  1  0
  1 27  1  0
  1 28  1  0
  3 29  1  0
  4 30  1  0
  6 31  1  0
  9 32  1  0
  9 33  1  0
 15 34  1  0
 15 35  1  0
 19 36  1  0
 19 37  1  0
 25 38  1  0
M  CHG  2  22  -1  23  -1
M  END
>  <UniqueID>  (62) 
62

>  <SMILES>  (62) 
Cc1ccc2cc(C(N)=O)n(C(=O)OCOC(=O)CP(=O)([O-])[O-])c2c1

>  <Energy>  (62) 
67.7566509049113

>  <Genealogy>  (62) 
Cc1ccc2cc(C(N)=O)n(C(=O)OCOC(=O)CP(=O)([O-])[O-])c2c1 (protonated)
Cc1ccc2cc(C(N)=O)n(C(=O)OCOC(=O)CP(=O)([O-])[O-])c2c1 (3D coordinates assigned)
Cc1ccc2cc(C(N)=O)n(C(=O)OCOC(=O)CP(=O)([O-])[O-])c2c1 (optimized conformer: 67.7566509049113 kcal/mol)

>  <smiles>  (62) 
Cc1ccc2cc(C(N)=O)n(C(=O)OCOC(=O)CP(=O)(O)O)c2c1

>  <score_type>  (62) 
oracle

>  <origin>  (62) 
adg

>  <m_score__min__energy>  (62) 
-7.0199999999999996

>  <m_primary>  (62) 
energy

$$$$
63:0
     RDKit          3D

 47 49  0  0  0  0  0  0  0  0999 V2000
  139.4870  160.6130  132.2340 C   0  0  0  0  0  0  0  0  0  0  0  0
  140.0960  159.5640  133.0620 N   0  0  0  0  0  0  0  0  0  0  0  0
  139.7270  158.1910  132.7590 C   0  0  0  0  0  0  0  0  0  0  0  0
  139.5870  157.8520  131.5510 O   0  0  0  0  0  0  0  0  0  0  0  0
  139.4910  157.1430  133.8210 C   0  0  0  0  0  0  0  0  0  0  0  0
  140.5790  156.2200  133.8860 O   0  0  0  0  0  0  0  0  0  0  0  0
  140.6160  155.0150  133.1750 C   0  0  0  0  0  0  0  0  0  0  0  0
  139.5620  154.5480  132.6600 O   0  0  0  0  0  0  0  0  0  0  0  0
  141.8560  154.3010  133.0380 N   0  0  0  0  0  0  0  0  0  0  0  0
  143.0950  154.8260  132.8240 C   0  0  0  0  0  0  0  0  0  0  0  0
  143.4440  156.2600  132.8500 C   0  0  0  0  0  0  0  0  0  0  0  0
  142.5510  157.2470  132.3340 N   0  0  0  0  0  0  0  0  0  0  0  0
  144.5230  156.6260  133.3870 O   0  0  0  0  0  0  0  0  0  0  0  0
  144.0310  153.8160  132.6210 C   0  0  0  0  0  0  0  0  0  0  0  0
  143.3230  152.6400  132.7290 C   0  0  0  0  0  0  0  0  0  0  0  0
  143.7570  151.3250  132.6120 C   0  0  0  0  0  0  0  0  0  0  0  0
  142.8040  150.3020  132.7390 C   0  0  0  0  0  0  0  0  0  0  0  0
  141.4350  150.6090  132.9500 C   0  0  0  0  0  0  0  0  0  0  0  0
  140.4250  149.5020  133.1190 C   0  0  0  0  0  0  0  0  0  0  0  0
  139.2070  149.8610  132.5660 F   0  0  0  0  0  0  0  0  0  0  0  0
  140.2250  149.2230  134.4600 F   0  0  0  0  0  0  0  0  0  0  0  0
  140.8890  148.3640  132.4870 F   0  0  0  0  0  0  0  0  0  0  0  0
  141.0360  151.9600  133.0860 C   0  0  0  0  0  0  0  0  0  0  0  0
  142.0130  152.9590  132.9780 C   0  0  0  0  0  0  0  0  0  0  0  0
  140.9970  159.9830  134.1640 C   0  0  2  0  0  0  0  0  0  0  0  0
  141.9930  161.0340  133.7330 C   0  0  0  0  0  0  0  0  0  0  0  0
  143.3390  160.4300  134.0990 C   0  0  0  0  0  0  0  0  0  0  0  0
  143.1820  159.0480  134.3190 O   0  0  0  0  0  0  0  0  0  0  0  0
  141.8500  158.8540  134.7280 C   0  0  0  0  0  0  0  0  0  0  0  0
  139.0414  161.3806  132.8838 H   0  0  0  0  0  0  0  0  0  0  0  0
  140.2585  161.0730  131.5990 H   0  0  0  0  0  0  0  0  0  0  0  0
  138.7050  160.1711  131.5990 H   0  0  0  0  0  0  0  0  0  0  0  0
  139.3824  157.6390  134.7968 H   0  0  0  0  0  0  0  0  0  0  0  0
  138.5771  156.5870  133.5649 H   0  0  0  0  0  0  0  0  0  0  0  0
  141.5800  156.9940  132.0450 H   0  0  0  0  0  0  0  0  0  0  0  0
  142.8300  158.2530  132.3210 H   0  0  0  0  0  0  0  0  0  0  0  0
  145.1058  153.9323  132.4179 H   0  0  0  0  0  0  0  0  0  0  0  0
  144.8159  151.0926  132.4254 H   0  0  0  0  0  0  0  0  0  0  0  0
  143.1221  149.2510  132.6742 H   0  0  0  0  0  0  0  0  0  0  0  0
  139.9835  152.2200  133.2722 H   0  0  0  0  0  0  0  0  0  0  0  0
  140.2930  160.3601  134.9205 H   0  0  0  0  0  0  0  0  0  0  0  0
  141.9266  161.2161  132.6502 H   0  0  0  0  0  0  0  0  0  0  0  0
  141.8188  162.0077  134.2141 H   0  0  0  0  0  0  0  0  0  0  0  0
  144.0512  160.5930  133.2767 H   0  0  0  0  0  0  0  0  0  0  0  0
  143.7226  160.9083  135.0123 H   0  0  0  0  0  0  0  0  0  0  0  0
  141.4834  157.8884  134.3495 H   0  0  0  0  0  0  0  0  0  0  0  0
  141.7915  158.8526  135.8264 H   0  0  0  0  0  0  0  0  0  0  0  0
  1  2  1  0
  2  3  1  0
  3  4  2  0
  3  5  1  0
  5  6  1  0
  6  7  1  0
  7  8  2  0
  7  9  1  0
  9 10  1  0
 10 11  1  0
 11 12  1  0
 11 13  2  0
 10 14  2  0
 14 15  1  0
 15 16  2  0
 16 17  1  0
 17 18  2  0
 18 19  1  0
 19 20  1  0
 19 21  1  0
 19 22  1  0
 18 23  1  0
 23 24  2  0
  2 25  1  0
 25 26  1  0
 26 27  1  0
 27 28  1  0
 28 29  1  0
 24  9  1  0
 29 25  1  0
 24 15  1  0
  1 30  1  0
  1 31  1  0
  1 32  1  0
  5 33  1  0
  5 34  1  0
 12 35  1  0
 12 36  1  0
 14 37  1  0
 16 38  1  0
 17 39  1  0
 23 40  1  0
 25 41  1  1
 26 42  1  0
 26 43  1  0
 27 44  1  0
 27 45  1  0
 29 46  1  0
 29 47  1  0
M  END
>  <UniqueID>  (63) 
63

>  <SMILES>  (63) 
CN(C(=O)COC(=O)n1c(C(N)=O)cc2ccc(C(F)(F)F)cc21)[C@@H]1CCOC1

>  <Energy>  (63) 
92.13803497654301

>  <Genealogy>  (63) 
CN(C(=O)COC(=O)n1c(C(N)=O)cc2ccc(C(F)(F)F)cc21)[C@@H]1CCOC1 (3D coordinates assigned)
CN(C(=O)COC(=O)n1c(C(N)=O)cc2ccc(C(F)(F)F)cc21)[C@@H]1CCOC1 (nonaromatic ring conformer: 92.13803497654301 kcal/mol)

>  <smiles>  (63) 
CN(C(=O)COC(=O)n1c(C(N)=O)cc2ccc(C(F)(F)F)cc21)[C@@H]1CCOC1

>  <score_type>  (63) 
oracle

>  <origin>  (63) 
adg

>  <m_score__min__energy>  (63) 
-7.3399999999999999

>  <m_primary>  (63) 
energy

$$$$
64:0
     RDKit          3D

 42 43  0  0  0  0  0  0  0  0999 V2000
  142.7160  160.3750  132.8360 H   0  0  0  0  0  0  0  0  0  0  0  0
  143.0200  161.2240  133.3620 N   0  0  0  0  0  0  0  0  0  0  0  0
  144.3810  161.3960  133.7510 C   0  0  0  0  0  0  0  0  0  0  0  0
  144.7390  162.4800  134.2810 O   0  0  0  0  0  0  0  0  0  0  0  0
  145.3410  160.2860  133.5740 C   0  0  0  0  0  0  0  0  0  0  0  0
  146.7020  160.4820  133.3510 C   0  0  0  0  0  0  0  0  0  0  0  0
  147.2460  161.4381  133.3481 H   0  0  0  0  0  0  0  0  0  0  0  0
  147.2220  159.2260  133.1350 C   0  0  0  0  0  0  0  0  0  0  0  0
  148.5280  158.8340  132.8590 C   0  0  0  0  0  0  0  0  0  0  0  0
  149.3356  159.5759  132.7725 H   0  0  0  0  0  0  0  0  0  0  0  0
  148.7850  157.4630  132.6940 C   0  0  0  0  0  0  0  0  0  0  0  0
  149.8054  157.1233  132.4627 H   0  0  0  0  0  0  0  0  0  0  0  0
  147.7410  156.5140  132.8230 C   0  0  0  0  0  0  0  0  0  0  0  0
  148.0230  155.0550  132.6180 C   0  0  0  0  0  0  0  0  0  0  0  0
  147.3542  154.6594  131.8394 H   0  0  0  0  0  0  0  0  0  0  0  0
  149.0701  154.9271  132.3061 H   0  0  0  0  0  0  0  0  0  0  0  0
  147.7490  154.1700  134.1390 Cl  0  0  0  0  0  0  0  0  0  0  0  0
  146.4250  156.9490  133.0930 C   0  0  0  0  0  0  0  0  0  0  0  0
  145.6013  156.2263  133.1887 H   0  0  0  0  0  0  0  0  0  0  0  0
  146.1940  158.3230  133.2360 C   0  0  0  0  0  0  0  0  0  0  0  0
  145.0310  158.9590  133.5100 N   0  0  0  0  0  0  0  0  0  0  0  0
  143.7550  158.3350  133.7320 C   0  0  0  0  0  0  0  0  0  0  0  0
  142.8800  158.9140  134.4310 O   0  0  0  0  0  0  0  0  0  0  0  0
  143.5030  157.0710  133.1960 O   0  0  0  0  0  0  0  0  0  0  0  0
  142.2670  156.3860  133.3610 C   0  0  0  0  0  0  0  0  0  0  0  0
  142.1765  156.0347  134.3995 H   0  0  0  0  0  0  0  0  0  0  0  0
  142.2291  155.5220  132.6812 H   0  0  0  0  0  0  0  0  0  0  0  0
  141.1380  157.3250  133.0480 C   0  0  0  0  0  0  0  0  0  0  0  0
  141.3688  158.3946  132.9351 H   0  0  0  0  0  0  0  0  0  0  0  0
  139.8530  156.9300  132.8970 C   0  0  0  0  0  0  0  0  0  0  0  0
  139.4580  155.4740  132.9780 C   0  0  0  0  0  0  0  0  0  0  0  0
  139.3767  155.1743  134.0333 H   0  0  0  0  0  0  0  0  0  0  0  0
  138.4880  155.3290  132.4799 H   0  0  0  0  0  0  0  0  0  0  0  0
  140.2217  154.8586  132.4799 H   0  0  0  0  0  0  0  0  0  0  0  0
  138.7850  157.9710  132.6700 C   0  0  0  0  0  0  0  0  0  0  0  0
  138.0684  157.6006  131.9221 H   0  0  0  0  0  0  0  0  0  0  0  0
  138.2653  158.1679  133.6193 H   0  0  0  0  0  0  0  0  0  0  0  0
  139.5380  159.5150  132.0700 P   0  0  2  0  0  5  0  0  0  0  0  0
  138.4530  160.5310  131.7970 O   0  0  0  0  0  0  0  0  0  0  0  0
  140.3940  159.2160  130.6420 O   0  0  0  0  0  0  0  0  0  0  0  0
  140.6000  160.1230  133.2390 O   0  0  0  0  0  0  0  0  0  0  0  0
  141.4860  159.7570  132.9920 H   0  0  0  0  0  0  0  0  0  0  0  0
  1  2  1  0
  2  3  1  0
  3  4  2  0
  3  5  1  0
  5  6  2  0
  6  7  1  0
  6  8  1  0
  8  9  2  0
  9 10  1  0
  9 11  1  0
 11 12  1  0
 11 13  2  0
 13 14  1  0
 14 15  1  0
 14 16  1  0
 14 17  1  0
 13 18  1  0
 18 19  1  0
 18 20  2  0
 20 21  1  0
 21 22  1  0
 22 23  2  0
 22 24  1  0
 24 25  1  0
 25 26  1  0
 25 27  1  0
 25 28  1  0
 28 29  1  0
 28 30  2  0
 30 31  1  0
 31 32  1  0
 31 33  1  0
 31 34  1  0
 30 35  1  0
 35 36  1  0
 35 37  1  0
 35 38  1  0
 38 39  2  0
 38 40  1  6
 38 41  1  0
 41 42  1  0
 21  5  1  0
 20  8  1  0
M  CHG  2   2  -1  40  -1
M  END
>  <UniqueID>  (64) 
64

>  <SMILES>  (64) 
C/C(=C\COC(=O)n1c(C([NH-])=O)cc2ccc(CCl)cc21)C[P@](=O)([O-])O

>  <Energy>  (64) 
66.44901781227037

>  <Genealogy>  (64) 
CC(=CCOC(=O)n1c(C([NH-])=O)cc2ccc(CCl)cc21)CP(=O)([O-])O (protonated)
CC(=CCOC(=O)n1c(C([NH-])=O)cc2ccc(CCl)cc21)C[P@](=O)([O-])O (chirality)
C/C(=C\COC(=O)n1c(C([NH-])=O)cc2ccc(CCl)cc21)C[P@](=O)([O-])O (cis-trans isomerization)
C/C(=C\COC(=O)n1c(C([NH-])=O)cc2ccc(CCl)cc21)C[P@](=O)([O-])O (3D coordinates assigned)
C/C(=C\COC(=O)n1c(C([NH-])=O)cc2ccc(CCl)cc21)C[P@](=O)([O-])O (optimized conformer: 66.44901781227037 kcal/mol)

>  <smiles>  (64) 
CC(=CCOC(=O)n1c(C(N)=O)cc2ccc(CCl)cc21)CP(=O)(O)O

>  <score_type>  (64) 
oracle

>  <origin>  (64) 
adg

>  <m_score__min__energy>  (64) 
-7.3399999999999999

>  <m_primary>  (64) 
energy

$$$$
65:0
     RDKit          3D

 34 36  0  0  0  0  0  0  0  0999 V2000
  149.0700  157.4340  131.8570 N   0  0  0  0  0  0  0  0  0  0  0  0
  148.7340  158.6980  132.4330 C   0  0  0  0  0  0  0  0  0  0  0  0
  149.6160  159.5930  132.5140 O   0  0  0  0  0  0  0  0  0  0  0  0
  147.3570  158.9950  132.8760 C   0  0  0  0  0  0  0  0  0  0  0  0
  146.8830  160.2870  133.0890 C   0  0  0  0  0  0  0  0  0  0  0  0
  145.5570  160.1350  133.4240 C   0  0  0  0  0  0  0  0  0  0  0  0
  144.6050  161.0940  133.7530 C   0  0  0  0  0  0  0  0  0  0  0  0
  143.3160  160.6530  134.0940 C   0  0  0  0  0  0  0  0  0  0  0  0
  143.0010  159.2680  134.1120 C   0  0  0  0  0  0  0  0  0  0  0  0
  141.6390  158.8130  134.4900 C   0  0  0  0  0  0  0  0  0  0  0  0
  140.7570  158.2990  133.5270 C   0  0  0  0  0  0  0  0  0  0  0  0
  139.4850  157.8810  133.9150 C   0  0  0  0  0  0  0  0  0  0  0  0
  139.1150  157.9790  135.2170 N   0  0  0  0  0  0  0  0  0  0  0  0
  139.9450  158.4660  136.1400 N   0  0  0  0  0  0  0  0  0  0  0  0
  141.1970  158.8860  135.8200 C   0  0  0  0  0  0  0  0  0  0  0  0
  144.0010  158.3250  133.7740 C   0  0  0  0  0  0  0  0  0  0  0  0
  145.2720  158.7940  133.4170 C   0  0  0  0  0  0  0  0  0  0  0  0
  146.3690  158.0790  133.0840 N   0  0  0  0  0  0  0  0  0  0  0  0
  146.4900  156.6470  133.0720 C   0  0  0  0  0  0  0  0  0  0  0  0
  145.5500  155.9420  132.6130 O   0  0  0  0  0  0  0  0  0  0  0  0
  147.6490  156.0420  133.5700 O   0  0  0  0  0  0  0  0  0  0  0  0
  147.7690  154.6370  133.7690 C   0  0  0  0  0  0  0  0  0  0  0  0
  148.9430  153.9490  132.6180 Cl  0  0  0  0  0  0  0  0  0  0  0  0
  150.0580  157.2280  131.5890 H   0  0  0  0  0  0  0  0  0  0  0  0
  148.3310  156.7370  131.6180 H   0  0  0  0  0  0  0  0  0  0  0  0
  147.4476  161.2275  133.0070 H   0  0  0  0  0  0  0  0  0  0  0  0
  144.8541  162.1654  133.7463 H   0  0  0  0  0  0  0  0  0  0  0  0
  142.5403  161.3896  134.3504 H   0  0  0  0  0  0  0  0  0  0  0  0
  141.0670  158.2265  132.4741 H   0  0  0  0  0  0  0  0  0  0  0  0
  138.7853  157.4741  133.1702 H   0  0  0  0  0  0  0  0  0  0  0  0
  141.8623  159.2822  136.6013 H   0  0  0  0  0  0  0  0  0  0  0  0
  143.7848  157.2466  133.7913 H   0  0  0  0  0  0  0  0  0  0  0  0
  148.1116  154.4437  134.7963 H   0  0  0  0  0  0  0  0  0  0  0  0
  146.7883  154.1667  133.6048 H   0  0  0  0  0  0  0  0  0  0  0  0
  1  2  1  0
  2  3  2  0
  2  4  1  0
  4  5  2  0
  5  6  1  0
  6  7  2  0
  7  8  1  0
  8  9  2  0
  9 10  1  0
 10 11  2  0
 11 12  1  0
 12 13  2  0
 13 14  1  0
 14 15  2  0
  9 16  1  0
 16 17  2  0
 17 18  1  0
 18 19  1  0
 19 20  2  0
 19 21  1  0
 21 22  1  0
 22 23  1  0
 18  4  1  0
 17  6  1  0
 15 10  1  0
  1 24  1  0
  1 25  1  0
  5 26  1  0
  7 27  1  0
  8 28  1  0
 11 29  1  0
 12 30  1  0
 15 31  1  0
 16 32  1  0
 22 33  1  0
 22 34  1  0
M  END
>  <UniqueID>  (65) 
65

>  <SMILES>  (65) 
NC(=O)c1cc2ccc(-c3ccnnc3)cc2n1C(=O)OCCl

>  <Energy>  (65) 
81.0449831425941

>  <Genealogy>  (65) 
NC(=O)c1cc2ccc(-c3ccnnc3)cc2n1C(=O)OCCl (3D coordinates assigned)
NC(=O)c1cc2ccc(-c3ccnnc3)cc2n1C(=O)OCCl (optimized conformer: 81.0449831425941 kcal/mol)

>  <smiles>  (65) 
NC(=O)c1cc2ccc(-c3ccnnc3)cc2n1C(=O)OCCl

>  <score_type>  (65) 
oracle

>  <origin>  (65) 
adg

>  <m_score__min__energy>  (65) 
-7.46

>  <m_primary>  (65) 
energy

$$$$
66:0
     RDKit          3D

 41 42  0  0  0  0  0  0  0  0999 V2000
  142.6860  159.9760  133.3000 N   0  0  0  0  0  0  0  0  0  0  0  0
  144.0320  160.1270  133.7420 C   0  0  0  0  0  0  0  0  0  0  0  0
  144.3550  161.1540  134.3990 O   0  0  0  0  0  0  0  0  0  0  0  0
  145.0400  159.0800  133.4790 C   0  0  0  0  0  0  0  0  0  0  0  0
  146.4040  159.3350  133.3580 C   0  0  0  0  0  0  0  0  0  0  0  0
  146.9960  158.1000  133.2300 C   0  0  0  0  0  0  0  0  0  0  0  0
  148.3370  157.7580  133.0860 C   0  0  0  0  0  0  0  0  0  0  0  0
  148.6610  156.3950  132.9750 C   0  0  0  0  0  0  0  0  0  0  0  0
  147.6450  155.4030  132.9940 C   0  0  0  0  0  0  0  0  0  0  0  0
  148.0070  153.9420  132.9120 C   0  0  0  0  0  0  0  0  0  0  0  0
  148.4780  153.4870  134.1310 F   0  0  0  0  0  0  0  0  0  0  0  0
  146.9020  153.1840  132.5660 F   0  0  0  0  0  0  0  0  0  0  0  0
  148.9900  153.7690  131.9550 F   0  0  0  0  0  0  0  0  0  0  0  0
  146.2980  155.7920  133.1720 C   0  0  0  0  0  0  0  0  0  0  0  0
  146.0060  157.1550  133.2740 C   0  0  0  0  0  0  0  0  0  0  0  0
  144.7970  157.7400  133.4050 N   0  0  0  0  0  0  0  0  0  0  0  0
  143.5280  157.0650  133.3820 C   0  0  0  0  0  0  0  0  0  0  0  0
  142.7680  157.2130  132.3880 O   0  0  0  0  0  0  0  0  0  0  0  0
  143.0570  156.2530  134.5570 C   0  0  0  0  0  0  0  0  0  0  0  0
  142.1970  156.9880  135.3510 F   0  0  0  0  0  0  0  0  0  0  0  0
  144.1470  155.8820  135.3230 F   0  0  0  0  0  0  0  0  0  0  0  0
  142.2090  154.7770  134.0050 S   0  0  0  0  0  0  0  0  0  0  0  0
  140.9130  155.1770  133.3590 O   0  0  0  0  0  0  0  0  0  0  0  0
  143.0540  154.0600  132.9890 O   0  0  0  0  0  0  0  0  0  0  0  0
  141.8610  153.7030  135.3190 N   0  0  0  0  0  0  0  0  0  0  0  0
  141.7700  152.2880  135.1700 C   0  0  0  0  0  0  0  0  0  0  0  0
  141.1750  151.6140  136.0550 O   0  0  0  0  0  0  0  0  0  0  0  0
  142.3530  151.6540  134.0700 O   0  0  0  0  0  0  0  0  0  0  0  0
  141.6430  150.7210  133.2610 C   0  0  0  0  0  0  0  0  0  0  0  0
  140.8710  151.4600  132.1760 C   0  0  0  0  0  0  0  0  0  0  0  0
  140.4440  152.7030  132.6600 O   0  0  0  0  0  0  0  0  0  0  0  0
  142.4500  159.3460  132.5010 H   0  0  0  0  0  0  0  0  0  0  0  0
  146.9020  160.3158  133.3636 H   0  0  0  0  0  0  0  0  0  0  0  0
  149.1195  158.5307  133.0598 H   0  0  0  0  0  0  0  0  0  0  0  0
  149.7137  156.0931  132.8722 H   0  0  0  0  0  0  0  0  0  0  0  0
  145.4978  155.0394  133.2289 H   0  0  0  0  0  0  0  0  0  0  0  0
  142.3564  150.0268  132.7929 H   0  0  0  0  0  0  0  0  0  0  0  0
  140.9368  150.1592  133.8900 H   0  0  0  0  0  0  0  0  0  0  0  0
  141.5231  151.6124  131.3033 H   0  0  0  0  0  0  0  0  0  0  0  0
  139.9942  150.8634  131.8840 H   0  0  0  0  0  0  0  0  0  0  0  0
  141.1590  153.0200  133.2710 H   0  0  0  0  0  0  0  0  0  0  0  0
  1  2  1  0
  2  3  2  0
  2  4  1  0
  4  5  2  0
  5  6  1  0
  6  7  2  0
  7  8  1  0
  8  9  2  0
  9 10  1  0
 10 11  1  0
 10 12  1  0
 10 13  1  0
  9 14  1  0
 14 15  2  0
 15 16  1  0
 16 17  1  0
 17 18  2  0
 17 19  1  0
 19 20  1  0
 19 21  1  0
 19 22  1  0
 22 23  2  0
 22 24  2  0
 22 25  1  0
 25 26  1  0
 26 27  2  0
 26 28  1  0
 28 29  1  0
 29 30  1  0
 30 31  1  0
 16  4  1  0
 15  6  1  0
  1 32  1  0
  5 33  1  0
  7 34  1  0
  8 35  1  0
 14 36  1  0
 29 37  1  0
 29 38  1  0
 30 39  1  0
 30 40  1  0
 31 41  1  0
M  CHG  2   1  -1  25  -1
M  END
>  <UniqueID>  (66) 
66

>  <SMILES>  (66) 
[NH-]C(=O)c1cc2ccc(C(F)(F)F)cc2n1C(=O)C(F)(F)S(=O)(=O)[N-]C(=O)OCCO

>  <Energy>  (66) 
69.56883465309052

>  <Genealogy>  (66) 
[NH-]C(=O)c1cc2ccc(C(F)(F)F)cc2n1C(=O)C(F)(F)S(=O)(=O)[N-]C(=O)OCCO (protonated)
[NH-]C(=O)c1cc2ccc(C(F)(F)F)cc2n1C(=O)C(F)(F)S(=O)(=O)[N-]C(=O)OCCO (3D coordinates assigned)
[NH-]C(=O)c1cc2ccc(C(F)(F)F)cc2n1C(=O)C(F)(F)S(=O)(=O)[N-]C(=O)OCCO (optimized conformer: 69.56883465309052 kcal/mol)

>  <smiles>  (66) 
NC(=O)c1cc2ccc(C(F)(F)F)cc2n1C(=O)C(F)(F)S(=O)(=O)NC(=O)OCCO

>  <score_type>  (66) 
oracle

>  <origin>  (66) 
adg

>  <m_score__min__energy>  (66) 
-5.2800000000000002

>  <m_primary>  (66) 
energy

$$$$
67:0
     RDKit          3D

 69 72  0  0  0  0  0  0  0  0999 V2000
  148.2060  157.3920  134.2980 C   0  0  0  0  0  0  0  0  0  0  0  0
  148.3260  156.3510  133.2300 C   0  0  0  0  0  0  0  0  0  0  0  0
  149.2730  156.4310  132.4010 O   0  0  0  0  0  0  0  0  0  0  0  0
  147.3550  155.2960  133.1060 N   0  0  0  0  0  0  0  0  0  0  0  0
  147.5710  153.9500  133.1080 C   0  0  0  0  0  0  0  0  0  0  0  0
  148.8970  153.2960  133.0800 C   0  0  0  0  0  0  0  0  0  0  0  0
  149.9400  153.7940  132.2390 N   0  0  0  0  0  0  0  0  0  0  0  0
  149.1260  152.3010  133.8180 O   0  0  0  0  0  0  0  0  0  0  0  0
  146.3590  153.2620  133.0500 C   0  0  0  0  0  0  0  0  0  0  0  0
  145.3880  154.2360  133.0030 C   0  0  0  0  0  0  0  0  0  0  0  0
  144.0020  154.1210  132.9580 C   0  0  0  0  0  0  0  0  0  0  0  0
  143.2410  155.3020  132.9540 C   0  0  0  0  0  0  0  0  0  0  0  0
  143.8750  156.5720  132.9890 C   0  0  0  0  0  0  0  0  0  0  0  0
  143.0840  157.7740  133.0250 N   0  0  0  0  0  0  0  0  0  0  0  0
  143.6570  159.0300  133.5210 C   0  0  0  0  0  0  0  0  0  0  0  0
  142.9180  159.4350  134.7930 C   0  0  0  0  0  0  0  0  0  0  0  0
  141.3850  159.5690  134.5610 C   0  0  0  0  0  0  0  0  0  0  0  0
  140.5770  159.0990  135.7190 N   0  0  0  0  0  0  0  0  0  0  0  0
  140.9640  159.7200  137.0120 C   0  0  0  0  0  0  0  0  0  0  0  0
  141.6920  158.7580  137.9690 C   0  0  0  0  0  0  0  0  0  0  0  0
  140.9830  157.4790  138.0940 N   0  0  0  0  0  0  0  0  0  0  0  0
  141.3190  156.5680  139.1570 C   0  0  0  0  0  0  0  0  0  0  0  0
  142.2990  156.8200  139.9100 O   0  0  0  0  0  0  0  0  0  0  0  0
  140.5520  155.4060  139.3440 O   0  0  0  0  0  0  0  0  0  0  0  0
  141.0530  154.0740  139.5340 C   0  0  0  0  0  0  0  0  0  0  0  0
  140.2520  153.0680  138.6850 C   0  0  0  0  0  0  0  0  0  0  0  0
  142.5150  154.0690  139.0620 C   0  0  0  0  0  0  0  0  0  0  0  0
  141.0100  153.6850  141.0250 C   0  0  0  0  0  0  0  0  0  0  0  0
  139.9130  157.1550  137.1480 C   0  0  0  0  0  0  0  0  0  0  0  0
  140.3120  157.6400  135.7540 C   0  0  0  0  0  0  0  0  0  0  0  0
  140.8910  158.9610  133.2140 C   0  0  0  0  0  0  0  0  0  0  0  0
  141.6380  157.6830  132.7830 C   0  0  0  0  0  0  0  0  0  0  0  0
  145.2860  156.6460  133.0390 C   0  0  0  0  0  0  0  0  0  0  0  0
  146.0160  155.4540  133.0340 C   0  0  0  0  0  0  0  0  0  0  0  0
  148.2614  156.9117  135.2861 H   0  0  0  0  0  0  0  0  0  0  0  0
  149.0264  158.1177  134.1966 H   0  0  0  0  0  0  0  0  0  0  0  0
  147.2420  157.9119  134.1966 H   0  0  0  0  0  0  0  0  0  0  0  0
  149.7680  154.5740  131.5680 H   0  0  0  0  0  0  0  0  0  0  0  0
  150.8740  153.3260  132.2310 H   0  0  0  0  0  0  0  0  0  0  0  0
  146.2108  152.1720  133.0433 H   0  0  0  0  0  0  0  0  0  0  0  0
  143.5164  153.1345  132.9265 H   0  0  0  0  0  0  0  0  0  0  0  0
  142.1431  155.2422  132.9234 H   0  0  0  0  0  0  0  0  0  0  0  0
  144.7250  158.8878  133.7425 H   0  0  0  0  0  0  0  0  0  0  0  0
  143.5521  159.8168  132.7595 H   0  0  0  0  0  0  0  0  0  0  0  0
  143.0947  158.6711  135.5645 H   0  0  0  0  0  0  0  0  0  0  0  0
  143.3002  160.4168  135.1091 H   0  0  0  0  0  0  0  0  0  0  0  0
  141.2139  160.6522  134.4752 H   0  0  0  0  0  0  0  0  0  0  0  0
  141.6291  160.5709  136.8030 H   0  0  0  0  0  0  0  0  0  0  0  0
  140.0334  160.0267  137.5119 H   0  0  0  0  0  0  0  0  0  0  0  0
  142.7043  158.5685  137.5825 H   0  0  0  0  0  0  0  0  0  0  0  0
  141.7319  159.2272  138.9631 H   0  0  0  0  0  0  0  0  0  0  0  0
  139.7055  152.3816  139.3485 H   0  0  0  0  0  0  0  0  0  0  0  0
  139.5367  153.6116  138.0502 H   0  0  0  0  0  0  0  0  0  0  0  0
  140.9420  152.4927  138.0502 H   0  0  0  0  0  0  0  0  0  0  0  0
  143.1825  154.0667  139.9363 H   0  0  0  0  0  0  0  0  0  0  0  0
  142.7015  153.1702  138.4559 H   0  0  0  0  0  0  0  0  0  0  0  0
  142.7077  154.9665  138.4559 H   0  0  0  0  0  0  0  0  0  0  0  0
  141.1100  154.5895  141.6430 H   0  0  0  0  0  0  0  0  0  0  0  0
  140.0520  153.1926  141.2480 H   0  0  0  0  0  0  0  0  0  0  0  0
  141.8374  152.9953  141.2480 H   0  0  0  0  0  0  0  0  0  0  0  0
  139.7563  156.0664  137.1282 H   0  0  0  0  0  0  0  0  0  0  0  0
  138.9813  157.6500  137.4594 H   0  0  0  0  0  0  0  0  0  0  0  0
  141.2225  157.1077  135.4416 H   0  0  0  0  0  0  0  0  0  0  0  0
  139.4725  157.4345  135.0736 H   0  0  0  0  0  0  0  0  0  0  0  0
  139.8232  158.7178  133.3169 H   0  0  0  0  0  0  0  0  0  0  0  0
  141.0846  159.7160  132.4378 H   0  0  0  0  0  0  0  0  0  0  0  0
  141.2373  156.8305  133.3510 H   0  0  0  0  0  0  0  0  0  0  0  0
  141.4854  157.5526  131.7015 H   0  0  0  0  0  0  0  0  0  0  0  0
  145.7974  157.6190  133.0809 H   0  0  0  0  0  0  0  0  0  0  0  0
  1  2  1  0
  2  3  2  0
  2  4  1  0
  4  5  1  0
  5  6  1  0
  6  7  1  0
  6  8  2  0
  5  9  2  0
  9 10  1  0
 10 11  2  0
 11 12  1  0
 12 13  2  0
 13 14  1  0
 14 15  1  0
 15 16  1  0
 16 17  1  0
 17 18  1  0
 18 19  1  0
 19 20  1  0
 20 21  1  0
 21 22  1  0
 22 23  2  0
 22 24  1  0
 24 25  1  0
 25 26  1  0
 25 27  1  0
 25 28  1  0
 21 29  1  0
 29 30  1  0
 17 31  1  0
 31 32  1  0
 13 33  1  0
 33 34  2  0
 34  4  1  0
 34 10  1  0
 32 14  1  0
 30 18  1  0
  1 35  1  0
  1 36  1  0
  1 37  1  0
  7 38  1  0
  7 39  1  0
  9 40  1  0
 11 41  1  0
 12 42  1  0
 15 43  1  0
 15 44  1  0
 16 45  1  0
 16 46  1  0
 17 47  1  0
 19 48  1  0
 19 49  1  0
 20 50  1  0
 20 51  1  0
 26 52  1  0
 26 53  1  0
 26 54  1  0
 27 55  1  0
 27 56  1  0
 27 57  1  0
 28 58  1  0
 28 59  1  0
 28 60  1  0
 29 61  1  0
 29 62  1  0
 30 63  1  0
 30 64  1  0
 31 65  1  0
 31 66  1  0
 32 67  1  0
 32 68  1  0
 33 69  1  0
M  END
>  <UniqueID>  (67) 
67

>  <SMILES>  (67) 
CC(=O)n1c(C(N)=O)cc2ccc(N3CCC(N4CCN(C(=O)OC(C)(C)C)CC4)CC3)cc21

>  <Energy>  (67) 
122.38857222886747

>  <Genealogy>  (67) 
CC(=O)n1c(C(N)=O)cc2ccc(N3CCC(N4CCN(C(=O)OC(C)(C)C)CC4)CC3)cc21 (3D coordinates assigned)
CC(=O)n1c(C(N)=O)cc2ccc(N3CCC(N4CCN(C(=O)OC(C)(C)C)CC4)CC3)cc21 (nonaromatic ring conformer: 122.38857222886747 kcal/mol)

>  <smiles>  (67) 
CC(=O)n1c(C(N)=O)cc2ccc(N3CCC(N4CCN(C(=O)OC(C)(C)C)CC4)CC3)cc21

>  <score_type>  (67) 
oracle

>  <origin>  (67) 
adg

>  <m_score__min__energy>  (67) 
-9.1999999999999993

>  <m_primary>  (67) 
energy

$$$$
68:0
     RDKit          3D

 68 69  0  0  0  0  0  0  0  0999 V2000
  144.9130  151.7840  132.6000 C   0  0  0  0  0  0  0  0  0  0  0  0
  145.0200  153.2260  132.3720 N   0  0  0  0  0  0  0  0  0  0  0  0
  146.2700  153.9330  132.6780 C   0  0  0  0  0  0  0  0  0  0  0  0
  147.1480  153.1170  133.6320 C   0  0  0  0  0  0  0  0  0  0  0  0
  147.3510  153.8270  134.9010 N   0  0  0  0  0  0  0  0  0  0  0  0
  148.4270  153.4030  135.8020 C   0  0  0  0  0  0  0  0  0  0  0  0
  146.4760  154.8970  135.3030 C   0  0  0  0  0  0  0  0  0  0  0  0
  146.9510  156.0460  135.5170 O   0  0  0  0  0  0  0  0  0  0  0  0
  145.1020  154.6700  135.4560 O   0  0  0  0  0  0  0  0  0  0  0  0
  144.1340  155.6830  135.1930 C   0  0  0  0  0  0  0  0  0  0  0  0
  144.3270  156.2180  133.8880 O   0  0  0  0  0  0  0  0  0  0  0  0
  143.6380  157.3440  133.4220 C   0  0  0  0  0  0  0  0  0  0  0  0
  142.5730  157.2040  132.7590 O   0  0  0  0  0  0  0  0  0  0  0  0
  144.1540  158.6590  133.6840 N   0  0  0  0  0  0  0  0  0  0  0  0
  143.4660  159.7470  134.1370 C   0  0  0  0  0  0  0  0  0  0  0  0
  142.0650  159.7580  134.6020 C   0  0  0  0  0  0  0  0  0  0  0  0
  141.4580  158.5780  135.1240 N   0  0  0  0  0  0  0  0  0  0  0  0
  141.4160  160.8390  134.6020 O   0  0  0  0  0  0  0  0  0  0  0  0
  144.2970  160.8630  134.1980 C   0  0  0  0  0  0  0  0  0  0  0  0
  145.5300  160.4220  133.7760 C   0  0  0  0  0  0  0  0  0  0  0  0
  146.7250  161.1180  133.6340 C   0  0  0  0  0  0  0  0  0  0  0  0
  147.8450  160.4130  133.1650 C   0  0  0  0  0  0  0  0  0  0  0  0
  147.7540  159.0360  132.8400 C   0  0  0  0  0  0  0  0  0  0  0  0
  148.9800  158.3200  132.3340 C   0  0  0  0  0  0  0  0  0  0  0  0
  148.9270  158.2360  130.9530 F   0  0  0  0  0  0  0  0  0  0  0  0
  149.0160  157.0400  132.8620 F   0  0  0  0  0  0  0  0  0  0  0  0
  150.1450  158.9780  132.6930 F   0  0  0  0  0  0  0  0  0  0  0  0
  146.5170  158.3640  132.9960 C   0  0  0  0  0  0  0  0  0  0  0  0
  145.4210  159.0880  133.4770 C   0  0  0  0  0  0  0  0  0  0  0  0
  143.8650  153.9550  131.9200 C   0  0  0  0  0  0  0  0  0  0  0  0
  143.9740  155.1620  131.5680 O   0  0  0  0  0  0  0  0  0  0  0  0
  142.6150  153.3290  131.8960 O   0  0  0  0  0  0  0  0  0  0  0  0
  141.6960  153.3930  132.9810 C   0  0  0  0  0  0  0  0  0  0  0  0
  142.0200  154.4970  133.8180 O   0  0  0  0  0  0  0  0  0  0  0  0
  141.0660  155.4190  134.2550 C   0  0  0  0  0  0  0  0  0  0  0  0
  140.9860  155.7260  135.4780 O   0  0  0  0  0  0  0  0  0  0  0  0
  140.0780  155.9650  133.2580 C   0  0  0  0  0  0  0  0  0  0  0  0
  139.9090  157.4350  133.3460 N   0  0  0  0  0  0  0  0  0  0  0  0
  139.6980  158.0290  132.0120 C   0  0  0  0  0  0  0  0  0  0  0  0
  138.7670  157.7550  134.2180 C   0  0  0  0  0  0  0  0  0  0  0  0
  144.8981  151.5839  133.6816 H   0  0  0  0  0  0  0  0  0  0  0  0
  143.9845  151.4087  132.1449 H   0  0  0  0  0  0  0  0  0  0  0  0
  145.7759  151.2758  132.1449 H   0  0  0  0  0  0  0  0  0  0  0  0
  146.8220  154.1072  131.7426 H   0  0  0  0  0  0  0  0  0  0  0  0
  146.0205  154.8876  133.1643 H   0  0  0  0  0  0  0  0  0  0  0  0
  146.6590  152.1526  133.8341 H   0  0  0  0  0  0  0  0  0  0  0  0
  148.1283  152.9615  133.1579 H   0  0  0  0  0  0  0  0  0  0  0  0
  148.1031  153.5306  136.8455 H   0  0  0  0  0  0  0  0  0  0  0  0
  148.6633  152.3445  135.6183 H   0  0  0  0  0  0  0  0  0  0  0  0
  149.3219  154.0157  135.6183 H   0  0  0  0  0  0  0  0  0  0  0  0
  143.1255  155.2493  135.2628 H   0  0  0  0  0  0  0  0  0  0  0  0
  144.2470  156.4893  135.9327 H   0  0  0  0  0  0  0  0  0  0  0  0
  141.6470  157.6430  134.7000 H   0  0  0  0  0  0  0  0  0  0  0  0
  144.0253  161.8804  134.5159 H   0  0  0  0  0  0  0  0  0  0  0  0
  146.7911  162.1878  133.8814 H   0  0  0  0  0  0  0  0  0  0  0  0
  148.8057  160.9359  133.0482 H   0  0  0  0  0  0  0  0  0  0  0  0
  146.4204  157.2974  132.7447 H   0  0  0  0  0  0  0  0  0  0  0  0
  140.6757  153.5179  132.5894 H   0  0  0  0  0  0  0  0  0  0  0  0
  141.7557  152.4627  133.5649 H   0  0  0  0  0  0  0  0  0  0  0  0
  140.4280  155.7136  132.2459 H   0  0  0  0  0  0  0  0  0  0  0  0
  139.1020  155.5104  133.4835 H   0  0  0  0  0  0  0  0  0  0  0  0
  140.7610  157.8670  133.7780 H   0  0  0  0  0  0  0  0  0  0  0  0
  139.3317  159.0602  132.1236 H   0  0  0  0  0  0  0  0  0  0  0  0
  140.6488  158.0355  131.4589 H   0  0  0  0  0  0  0  0  0  0  0  0
  138.9562  157.4342  131.4589 H   0  0  0  0  0  0  0  0  0  0  0  0
  139.0741  157.6689  135.2708 H   0  0  0  0  0  0  0  0  0  0  0  0
  138.4291  158.7824  134.0174 H   0  0  0  0  0  0  0  0  0  0  0  0
  137.9444  157.0528  134.0174 H   0  0  0  0  0  0  0  0  0  0  0  0
  1  2  1  0
  2  3  1  0
  3  4  1  0
  4  5  1  0
  5  6  1  0
  5  7  1  0
  7  8  2  0
  7  9  1  0
  9 10  1  0
 10 11  1  0
 11 12  1  0
 12 13  2  0
 12 14  1  0
 14 15  1  0
 15 16  1  0
 16 17  1  0
 16 18  2  0
 15 19  2  0
 19 20  1  0
 20 21  2  0
 21 22  1  0
 22 23  2  0
 23 24  1  0
 24 25  1  0
 24 26  1  0
 24 27  1  0
 23 28  1  0
 28 29  2  0
  2 30  1  0
 30 31  2  0
 30 32  1  0
 32 33  1  0
 33 34  1  0
 34 35  1  0
 35 36  2  0
 35 37  1  0
 37 38  1  0
 38 39  1  0
 38 40  1  0
 29 14  1  0
 29 20  1  0
  1 41  1  0
  1 42  1  0
  1 43  1  0
  3 44  1  0
  3 45  1  0
  4 46  1  0
  4 47  1  0
  6 48  1  0
  6 49  1  0
  6 50  1  0
 10 51  1  0
 10 52  1  0
 17 53  1  0
 19 54  1  0
 21 55  1  0
 22 56  1  0
 28 57  1  0
 33 58  1  0
 33 59  1  0
 37 60  1  0
 37 61  1  0
 38 62  1  0
 39 63  1  0
 39 64  1  0
 39 65  1  0
 40 66  1  0
 40 67  1  0
 40 68  1  0
M  CHG  2  17  -1  38   1
M  END
>  <UniqueID>  (68) 
68

>  <SMILES>  (68) 
CN(CCN(C)C(=O)OCOC(=O)n1c(C([NH-])=O)cc2ccc(C(F)(F)F)cc21)C(=O)OCOC(=O)C[NH+](C)C

>  <Energy>  (68) 
87.5964872538525

>  <Genealogy>  (68) 
CN(CCN(C)C(=O)OCOC(=O)n1c(C([NH-])=O)cc2ccc(C(F)(F)F)cc21)C(=O)OCOC(=O)C[NH+](C)C (protonated)
CN(CCN(C)C(=O)OCOC(=O)n1c(C([NH-])=O)cc2ccc(C(F)(F)F)cc21)C(=O)OCOC(=O)C[NH+](C)C (3D coordinates assigned)
CN(CCN(C)C(=O)OCOC(=O)n1c(C([NH-])=O)cc2ccc(C(F)(F)F)cc21)C(=O)OCOC(=O)C[NH+](C)C (optimized conformer: 87.5964872538525 kcal/mol)

>  <smiles>  (68) 
CN(C)CC(=O)OCOC(=O)N(C)CCN(C)C(=O)OCOC(=O)n1c(C(N)=O)cc2ccc(C(F)(F)F)cc21

>  <score_type>  (68) 
oracle

>  <origin>  (68) 
adg

>  <m_score__min__energy>  (68) 
-4.8300000000000001

>  <m_primary>  (68) 
energy

$$$$
69:0
     RDKit          3D

 33 34  0  0  0  0  0  0  0  0999 V2000
  149.9720  159.7140  131.2480 C   0  0  0  0  0  0  0  0  0  0  0  0
  149.0130  158.9480  132.1110 C   0  0  0  0  0  0  0  0  0  0  0  0
  148.0530  159.6390  132.8910 C   0  0  0  0  0  0  0  0  0  0  0  0
  147.1640  158.9350  133.7210 C   0  0  0  0  0  0  0  0  0  0  0  0
  147.2750  157.5480  133.7670 C   0  0  0  0  0  0  0  0  0  0  0  0
  146.5330  156.6220  134.4640 C   0  0  0  0  0  0  0  0  0  0  0  0
  147.0780  155.3830  134.1280 C   0  0  0  0  0  0  0  0  0  0  0  0
  146.6180  154.1030  134.7060 C   0  0  0  0  0  0  0  0  0  0  0  0
  145.8530  153.1980  133.9130 N   0  0  0  0  0  0  0  0  0  0  0  0
  146.8730  153.8080  135.9030 O   0  0  0  0  0  0  0  0  0  0  0  0
  148.1140  155.5390  133.2580 N   0  0  0  0  0  0  0  0  0  0  0  0
  148.9050  154.5140  132.6370 C   0  0  0  0  0  0  0  0  0  0  0  0
  150.0770  154.7740  132.2540 O   0  0  0  0  0  0  0  0  0  0  0  0
  148.3660  153.1970  132.4640 N   0  0  0  0  0  0  0  0  0  0  0  0
  149.1850  152.0990  131.9500 C   0  0  0  0  0  0  0  0  0  0  0  0
  148.4480  150.7610  132.0620 C   0  0  0  0  0  0  0  0  0  0  0  0
  147.0710  150.9660  132.2290 O   0  0  0  0  0  0  0  0  0  0  0  0
  148.2210  156.8690  133.0440 C   0  0  0  0  0  0  0  0  0  0  0  0
  149.1050  157.5420  132.1940 C   0  0  0  0  0  0  0  0  0  0  0  0
  150.6724  160.2735  131.8855 H   0  0  0  0  0  0  0  0  0  0  0  0
  150.5339  159.0133  130.6129 H   0  0  0  0  0  0  0  0  0  0  0  0
  149.4128  160.4168  130.6129 H   0  0  0  0  0  0  0  0  0  0  0  0
  148.0031  160.7370  132.8465 H   0  0  0  0  0  0  0  0  0  0  0  0
  146.4042  159.4633  134.3157 H   0  0  0  0  0  0  0  0  0  0  0  0
  145.6893  156.8175  135.1421 H   0  0  0  0  0  0  0  0  0  0  0  0
  146.1900  152.2270  133.7310 H   0  0  0  0  0  0  0  0  0  0  0  0
  147.3620  153.0350  132.7060 H   0  0  0  0  0  0  0  0  0  0  0  0
  149.4212  152.2915  130.8930 H   0  0  0  0  0  0  0  0  0  0  0  0
  150.1063  152.0411  132.5482 H   0  0  0  0  0  0  0  0  0  0  0  0
  148.6176  150.1775  131.1451 H   0  0  0  0  0  0  0  0  0  0  0  0
  148.8333  150.2173  132.9372 H   0  0  0  0  0  0  0  0  0  0  0  0
  146.9610  151.4880  133.0650 H   0  0  0  0  0  0  0  0  0  0  0  0
  149.8525  156.9898  131.6055 H   0  0  0  0  0  0  0  0  0  0  0  0
  1  2  1  0
  2  3  2  0
  3  4  1  0
  4  5  2  0
  5  6  1  0
  6  7  2  0
  7  8  1  0
  8  9  1  0
  8 10  2  0
  7 11  1  0
 11 12  1  0
 12 13  2  0
 12 14  1  0
 14 15  1  0
 15 16  1  0
 16 17  1  0
 11 18  1  0
 18 19  2  0
 19  2  1  0
 18  5  1  0
  1 20  1  0
  1 21  1  0
  1 22  1  0
  3 23  1  0
  4 24  1  0
  6 25  1  0
  9 26  1  0
 14 27  1  0
 15 28  1  0
 15 29  1  0
 16 30  1  0
 16 31  1  0
 17 32  1  0
 19 33  1  0
M  CHG  1   9  -1
M  END
>  <UniqueID>  (69) 
69

>  <SMILES>  (69) 
Cc1ccc2cc(C([NH-])=O)n(C(=O)NCCO)c2c1

>  <Energy>  (69) 
66.75201359007606

>  <Genealogy>  (69) 
Cc1ccc2cc(C([NH-])=O)n(C(=O)NCCO)c2c1 (protonated)
Cc1ccc2cc(C([NH-])=O)n(C(=O)NCCO)c2c1 (3D coordinates assigned)
Cc1ccc2cc(C([NH-])=O)n(C(=O)NCCO)c2c1 (optimized conformer: 66.75201359007606 kcal/mol)

>  <smiles>  (69) 
Cc1ccc2cc(C(N)=O)n(C(=O)NCCO)c2c1

>  <score_type>  (69) 
oracle

>  <origin>  (69) 
adg

>  <m_score__min__energy>  (69) 
-6.1799999999999997

>  <m_primary>  (69) 
energy

$$$$
70:0
     RDKit          3D

 31 32  0  0  0  0  0  0  0  0999 V2000
  145.3429  154.5489  133.3386 H   0  0  0  0  0  0  0  0  0  0  0  0
  145.1150  155.2920  134.1170 C   0  0  0  0  0  0  0  0  0  0  0  0
  143.9300  156.0360  134.0090 O   0  0  0  0  0  0  0  0  0  0  0  0
  143.7240  157.1160  133.1390 C   0  0  0  0  0  0  0  0  0  0  0  0
  142.8570  157.0460  132.2260 O   0  0  0  0  0  0  0  0  0  0  0  0
  144.4710  158.3290  133.3290 N   0  0  0  0  0  0  0  0  0  0  0  0
  143.9700  159.5810  133.5230 C   0  0  0  0  0  0  0  0  0  0  0  0
  142.5500  159.9170  133.7510 C   0  0  0  0  0  0  0  0  0  0  0  0
  142.2150  160.4890  134.8220 O   0  0  0  0  0  0  0  0  0  0  0  0
  141.5430  159.5500  132.8090 N   0  0  0  0  0  0  0  0  0  0  0  0
  140.5500  159.8340  132.9650 H   0  0  0  0  0  0  0  0  0  0  0  0
  141.7620  158.9300  131.9990 H   0  0  0  0  0  0  0  0  0  0  0  0
  144.9920  160.5260  133.5340 C   0  0  0  0  0  0  0  0  0  0  0  0
  144.8937  161.6141  133.6623 H   0  0  0  0  0  0  0  0  0  0  0  0
  146.1520  159.8080  133.3500 C   0  0  0  0  0  0  0  0  0  0  0  0
  147.4690  160.2470  133.2650 C   0  0  0  0  0  0  0  0  0  0  0  0
  147.7201  161.3122  133.3759 H   0  0  0  0  0  0  0  0  0  0  0  0
  148.4690  159.2870  133.0330 C   0  0  0  0  0  0  0  0  0  0  0  0
  149.5213  159.6004  132.9668 H   0  0  0  0  0  0  0  0  0  0  0  0
  148.1330  157.9210  132.8840 C   0  0  0  0  0  0  0  0  0  0  0  0
  149.1600  156.9560  132.6350 N   0  0  0  0  0  0  0  0  0  0  0  0
  149.5500  156.8270  131.6750 H   0  0  0  0  0  0  0  0  0  0  0  0
  149.5370  156.3650  133.4080 H   0  0  0  0  0  0  0  0  0  0  0  0
  146.7870  157.5100  132.9760 C   0  0  0  0  0  0  0  0  0  0  0  0
  146.5104  156.4524  132.8539 H   0  0  0  0  0  0  0  0  0  0  0  0
  145.8110  158.4840  133.2270 C   0  0  0  0  0  0  0  0  0  0  0  0
  145.9800  155.4480  135.1270 C   0  0  0  0  0  0  0  0  0  0  0  0
  145.7633  156.1954  135.9044 H   0  0  0  0  0  0  0  0  0  0  0  0
  147.2110  154.6500  135.2280 C   0  0  0  0  0  0  0  0  0  0  0  0
  148.1900  154.9210  134.4840 O   0  0  0  0  0  0  0  0  0  0  0  0
  147.3120  153.5980  136.1320 O   0  0  0  0  0  0  0  0  0  0  0  0
  1  2  1  0
  2  3  1  0
  3  4  1  0
  4  5  2  0
  4  6  1  0
  6  7  1  0
  7  8  1  0
  8  9  2  0
  8 10  1  0
 10 11  1  0
 10 12  1  0
  7 13  2  0
 13 14  1  0
 13 15  1  0
 15 16  2  0
 16 17  1  0
 16 18  1  0
 18 19  1  0
 18 20  2  0
 20 21  1  0
 21 22  1  0
 21 23  1  0
 20 24  1  0
 24 25  1  0
 24 26  2  0
  2 27  2  0
 27 28  1  0
 27 29  1  0
 29 30  2  0
 29 31  1  0
 26  6  1  0
 26 15  1  0
M  CHG  1  31  -1
M  END
>  <UniqueID>  (70) 
70

>  <SMILES>  (70) 
NC(=O)c1cc2ccc(N)cc2n1C(=O)O/C=C/C(=O)[O-]

>  <Energy>  (70) 
72.8115466074125

>  <Genealogy>  (70) 
NC(=O)c1cc2ccc(N)cc2n1C(=O)OC=CC(=O)[O-] (protonated)
NC(=O)c1cc2ccc(N)cc2n1C(=O)O/C=C/C(=O)[O-] (cis-trans isomerization)
NC(=O)c1cc2ccc(N)cc2n1C(=O)O/C=C/C(=O)[O-] (3D coordinates assigned)
NC(=O)c1cc2ccc(N)cc2n1C(=O)O/C=C/C(=O)[O-] (optimized conformer: 72.8115466074125 kcal/mol)

>  <smiles>  (70) 
NC(=O)c1cc2ccc(N)cc2n1C(=O)OC=CC(=O)O

>  <score_type>  (70) 
oracle

>  <origin>  (70) 
adg

>  <m_score__min__energy>  (70) 
-6.6299999999999999

>  <m_primary>  (70) 
energy

$$$$
71:0
     RDKit          3D

 43 44  0  0  0  0  0  0  0  0999 V2000
  141.6740  157.9370  138.0750 C   0  0  0  0  0  0  0  0  0  0  0  0
  141.5690  157.4680  136.6890 N   0  0  0  0  0  0  0  0  0  0  0  0
  140.1740  157.1710  136.3270 C   0  0  0  0  0  0  0  0  0  0  0  0
  139.8750  157.6520  134.9040 C   0  0  0  0  0  0  0  0  0  0  0  0
  141.0720  158.2230  134.2930 N   0  0  0  0  0  0  0  0  0  0  0  0
  141.5370  159.5730  134.4380 C   0  0  0  0  0  0  0  0  0  0  0  0
  141.2310  160.2070  135.4820 O   0  0  0  0  0  0  0  0  0  0  0  0
  142.3470  160.2710  133.3760 C   0  0  0  0  0  0  0  0  0  0  0  0
  143.4850  159.4920  133.0120 O   0  0  0  0  0  0  0  0  0  0  0  0
  144.7790  159.7510  133.4840 C   0  0  0  0  0  0  0  0  0  0  0  0
  145.0250  160.8290  134.0900 O   0  0  0  0  0  0  0  0  0  0  0  0
  145.8230  158.7830  133.2800 N   0  0  0  0  0  0  0  0  0  0  0  0
  145.8800  157.5170  133.7830 C   0  0  0  0  0  0  0  0  0  0  0  0
  144.7940  156.8250  134.5000 C   0  0  0  0  0  0  0  0  0  0  0  0
  143.4460  157.2870  134.4110 N   0  0  0  0  0  0  0  0  0  0  0  0
  145.0490  155.7800  135.1560 O   0  0  0  0  0  0  0  0  0  0  0  0
  147.0980  156.9160  133.4790 C   0  0  0  0  0  0  0  0  0  0  0  0
  147.7930  157.8550  132.7510 C   0  0  0  0  0  0  0  0  0  0  0  0
  149.0700  157.7900  132.2000 C   0  0  0  0  0  0  0  0  0  0  0  0
  149.5540  158.9240  131.5240 C   0  0  0  0  0  0  0  0  0  0  0  0
  148.7600  160.0910  131.4150 C   0  0  0  0  0  0  0  0  0  0  0  0
  149.3100  161.3120  130.7410 C   0  0  0  0  0  0  0  0  0  0  0  0
  147.4760  160.1280  132.0040 C   0  0  0  0  0  0  0  0  0  0  0  0
  147.0060  158.9760  132.6480 C   0  0  0  0  0  0  0  0  0  0  0  0
  141.4862  157.0980  138.7612 H   0  0  0  0  0  0  0  0  0  0  0  0
  142.6837  158.3361  138.2515 H   0  0  0  0  0  0  0  0  0  0  0  0
  140.9308  158.7285  138.2515 H   0  0  0  0  0  0  0  0  0  0  0  0
  141.9020  158.2460  136.0740 H   0  0  0  0  0  0  0  0  0  0  0  0
  140.0085  156.0850  136.3843 H   0  0  0  0  0  0  0  0  0  0  0  0
  139.5058  157.6939  137.0270 H   0  0  0  0  0  0  0  0  0  0  0  0
  139.5315  156.8000  134.2990 H   0  0  0  0  0  0  0  0  0  0  0  0
  139.0950  158.4264  134.9477 H   0  0  0  0  0  0  0  0  0  0  0  0
  141.7179  160.4272  132.4873 H   0  0  0  0  0  0  0  0  0  0  0  0
  142.6936  161.2358  133.7747 H   0  0  0  0  0  0  0  0  0  0  0  0
  142.6920  156.8150  134.9570 H   0  0  0  0  0  0  0  0  0  0  0  0
  143.1850  158.0480  133.7470 H   0  0  0  0  0  0  0  0  0  0  0  0
  147.4334  155.9068  133.7603 H   0  0  0  0  0  0  0  0  0  0  0  0
  149.6812  156.8799  132.2907 H   0  0  0  0  0  0  0  0  0  0  0  0
  150.5584  158.9042  131.0759 H   0  0  0  0  0  0  0  0  0  0  0  0
  149.6360  162.0357  131.5025 H   0  0  0  0  0  0  0  0  0  0  0  0
  150.1677  161.0292  130.1130 H   0  0  0  0  0  0  0  0  0  0  0  0
  148.5299  161.7669  130.1130 H   0  0  0  0  0  0  0  0  0  0  0  0
  146.8608  161.0387  131.9580 H   0  0  0  0  0  0  0  0  0  0  0  0
  1  2  1  0
  2  3  1  0
  3  4  1  0
  4  5  1  0
  5  6  1  0
  6  7  2  0
  6  8  1  0
  8  9  1  0
  9 10  1  0
 10 11  2  0
 10 12  1  0
 12 13  1  0
 13 14  1  0
 14 15  1  0
 14 16  2  0
 13 17  2  0
 17 18  1  0
 18 19  2  0
 19 20  1  0
 20 21  2  0
 21 22  1  0
 21 23  1  0
 23 24  2  0
 24 12  1  0
 24 18  1  0
  1 25  1  0
  1 26  1  0
  1 27  1  0
  2 28  1  0
  3 29  1  0
  3 30  1  0
  4 31  1  0
  4 32  1  0
  8 33  1  0
  8 34  1  0
 15 35  1  0
 15 36  1  0
 17 37  1  0
 19 38  1  0
 20 39  1  0
 22 40  1  0
 22 41  1  0
 22 42  1  0
 23 43  1  0
M  CHG  1   5  -1
M  END
>  <UniqueID>  (71) 
71

>  <SMILES>  (71) 
CNCC[N-]C(=O)COC(=O)n1c(C(N)=O)cc2ccc(C)cc21

>  <Energy>  (71) 
75.67907345481996

>  <Genealogy>  (71) 
CNCC[N-]C(=O)COC(=O)n1c(C(N)=O)cc2ccc(C)cc21 (protonated)
CNCC[N-]C(=O)COC(=O)n1c(C(N)=O)cc2ccc(C)cc21 (3D coordinates assigned)
CNCC[N-]C(=O)COC(=O)n1c(C(N)=O)cc2ccc(C)cc21 (optimized conformer: 75.67907345481996 kcal/mol)

>  <smiles>  (71) 
CNCCNC(=O)COC(=O)n1c(C(N)=O)cc2ccc(C)cc21

>  <score_type>  (71) 
oracle

>  <origin>  (71) 
adg

>  <m_score__min__energy>  (71) 
-6.3300000000000001

>  <m_primary>  (71) 
energy

$$$$
72:0
     RDKit          3D

 44 46  0  0  0  0  0  0  0  0999 V2000
  142.4630  161.1850  133.7460 N   0  0  0  0  0  0  0  0  0  0  0  0
  143.8850  161.2960  133.7310 C   0  0  0  0  0  0  0  0  0  0  0  0
  144.4160  162.4270  133.8890 O   0  0  0  0  0  0  0  0  0  0  0  0
  144.7150  160.0830  133.5760 C   0  0  0  0  0  0  0  0  0  0  0  0
  146.0580  160.1180  133.2110 C   0  0  0  0  0  0  0  0  0  0  0  0
  146.4370  158.8010  133.0830 C   0  0  0  0  0  0  0  0  0  0  0  0
  147.6720  158.2530  132.7510 C   0  0  0  0  0  0  0  0  0  0  0  0
  147.7850  156.8530  132.7210 C   0  0  0  0  0  0  0  0  0  0  0  0
  146.6690  156.0340  133.0160 C   0  0  0  0  0  0  0  0  0  0  0  0
  146.8130  154.5380  133.0340 C   0  0  0  0  0  0  0  0  0  0  0  0
  145.4950  153.9120  133.0030 N   0  0  0  0  0  0  0  0  0  0  0  0
  144.8460  153.3440  134.0380 C   0  0  0  0  0  0  0  0  0  0  0  0
  143.6760  152.7950  133.5590 C   0  0  0  0  0  0  0  0  0  0  0  0
  143.6090  153.0140  132.2310 N   0  0  0  0  0  0  0  0  0  0  0  0
  144.7310  153.6880  131.9160 C   0  0  0  0  0  0  0  0  0  0  0  0
  145.4350  156.6250  133.3630 C   0  0  0  0  0  0  0  0  0  0  0  0
  145.3450  158.0220  133.3700 C   0  0  0  0  0  0  0  0  0  0  0  0
  144.2800  158.7940  133.6810 N   0  0  0  0  0  0  0  0  0  0  0  0
  142.9850  158.3280  134.0930 C   0  0  0  0  0  0  0  0  0  0  0  0
  142.5390  158.6270  135.2340 O   0  0  0  0  0  0  0  0  0  0  0  0
  142.2360  157.5160  133.2360 O   0  0  0  0  0  0  0  0  0  0  0  0
  140.9400  157.0290  133.5670 C   0  0  0  0  0  0  0  0  0  0  0  0
  139.9060  158.1600  133.4630 C   0  0  1  0  0  0  0  0  0  0  0  0
  140.2000  159.1490  134.4150 O   0  0  0  0  0  0  0  0  0  0  0  0
  139.9040  158.8040  132.0710 C   0  0  0  0  0  0  0  0  0  0  0  0
  140.9450  159.7350  131.9620 O   0  0  0  0  0  0  0  0  0  0  0  0
  141.9990  160.2510  133.7810 H   0  0  0  0  0  0  0  0  0  0  0  0
  146.6838  161.0095  133.0574 H   0  0  0  0  0  0  0  0  0  0  0  0
  148.5336  158.8963  132.5191 H   0  0  0  0  0  0  0  0  0  0  0  0
  148.7493  156.3892  132.4660 H   0  0  0  0  0  0  0  0  0  0  0  0
  147.3903  154.2165  132.1546 H   0  0  0  0  0  0  0  0  0  0  0  0
  147.3363  154.2354  133.9530 H   0  0  0  0  0  0  0  0  0  0  0  0
  145.1897  153.3222  135.0827 H   0  0  0  0  0  0  0  0  0  0  0  0
  142.9222  152.2660  134.1607 H   0  0  0  0  0  0  0  0  0  0  0  0
  142.8530  152.7100  131.5790 H   0  0  0  0  0  0  0  0  0  0  0  0
  144.9915  154.0149  130.8985 H   0  0  0  0  0  0  0  0  0  0  0  0
  144.5653  156.0031  133.6216 H   0  0  0  0  0  0  0  0  0  0  0  0
  140.6667  156.2217  132.8717 H   0  0  0  0  0  0  0  0  0  0  0  0
  140.9525  156.6478  134.5987 H   0  0  0  0  0  0  0  0  0  0  0  0
  138.9132  157.7229  133.6452 H   0  0  0  0  0  0  0  0  0  0  0  0
  141.0490  159.5780  134.1340 H   0  0  0  0  0  0  0  0  0  0  0  0
  140.0365  158.0214  131.3094 H   0  0  0  0  0  0  0  0  0  0  0  0
  138.9453  159.3214  131.9187 H   0  0  0  0  0  0  0  0  0  0  0  0
  141.5660  159.5430  132.7120 H   0  0  0  0  0  0  0  0  0  0  0  0
  1  2  1  0
  2  3  2  0
  2  4  1  0
  4  5  2  0
  5  6  1  0
  6  7  2  0
  7  8  1  0
  8  9  2  0
  9 10  1  0
 10 11  1  0
 11 12  1  0
 12 13  2  0
 13 14  1  0
 14 15  2  0
  9 16  1  0
 16 17  2  0
 17 18  1  0
 18 19  1  0
 19 20  2  0
 19 21  1  0
 21 22  1  0
 22 23  1  0
 23 24  1  0
 23 25  1  0
 25 26  1  0
 18  4  1  0
 17  6  1  0
 15 11  1  0
  1 27  1  0
  5 28  1  0
  7 29  1  0
  8 30  1  0
 10 31  1  0
 10 32  1  0
 12 33  1  0
 13 34  1  0
 14 35  1  0
 15 36  1  0
 16 37  1  0
 22 38  1  0
 22 39  1  0
 23 40  1  1
 24 41  1  0
 25 42  1  0
 25 43  1  0
 26 44  1  0
M  CHG  2   1  -1  14   1
M  END
>  <UniqueID>  (72) 
72

>  <SMILES>  (72) 
[NH-]C(=O)c1cc2ccc(Cn3cc[nH+]c3)cc2n1C(=O)OC[C@@H](O)CO

>  <Energy>  (72) 
106.8820807839072

>  <Genealogy>  (72) 
[NH-]C(=O)c1cc2ccc(Cn3cc[nH+]c3)cc2n1C(=O)OCC(O)CO (protonated)
[NH-]C(=O)c1cc2ccc(Cn3cc[nH+]c3)cc2n1C(=O)OC[C@@H](O)CO (chirality)
[NH-]C(=O)c1cc2ccc(Cn3cc[nH+]c3)cc2n1C(=O)OC[C@@H](O)CO (3D coordinates assigned)
[NH-]C(=O)c1cc2ccc(Cn3cc[nH+]c3)cc2n1C(=O)OC[C@@H](O)CO (optimized conformer: 106.8820807839072 kcal/mol)

>  <smiles>  (72) 
NC(=O)c1cc2ccc(Cn3ccnc3)cc2n1C(=O)OCC(O)CO

>  <score_type>  (72) 
oracle

>  <origin>  (72) 
adg

>  <m_score__min__energy>  (72) 
-5.3799999999999999

>  <m_primary>  (72) 
energy

$$$$
73:0
     RDKit          3D

 51 52  0  0  0  0  0  0  0  0999 V2000
  147.6410  157.2470  134.4560 C   0  0  0  0  0  0  0  0  0  0  0  0
  146.5660  157.8460  133.6600 N   0  0  0  0  0  0  0  0  0  0  0  0
  145.2870  157.1390  133.5130 C   0  0  0  0  0  0  0  0  0  0  0  0
  145.4310  155.6510  133.8490 C   0  0  0  0  0  0  0  0  0  0  0  0
  144.3240  154.8670  133.2850 N   0  0  0  0  0  0  0  0  0  0  0  0
  144.3590  154.5350  131.8600 C   0  0  0  0  0  0  0  0  0  0  0  0
  143.1930  154.4960  134.1000 C   0  0  0  0  0  0  0  0  0  0  0  0
  143.3710  153.9180  135.2050 O   0  0  0  0  0  0  0  0  0  0  0  0
  141.8530  154.8050  133.6870 N   0  0  0  0  0  0  0  0  0  0  0  0
  140.8700  153.9360  133.3250 C   0  0  0  0  0  0  0  0  0  0  0  0
  140.9830  152.4630  133.3180 C   0  0  0  0  0  0  0  0  0  0  0  0
  141.3780  151.7740  134.5010 N   0  0  0  0  0  0  0  0  0  0  0  0
  140.7400  151.8060  132.2710 O   0  0  0  0  0  0  0  0  0  0  0  0
  139.7070  154.6290  132.9920 C   0  0  0  0  0  0  0  0  0  0  0  0
  140.0120  155.9600  133.1730 C   0  0  0  0  0  0  0  0  0  0  0  0
  139.2280  157.0950  132.9890 C   0  0  0  0  0  0  0  0  0  0  0  0
  139.8170  158.3490  133.2330 C   0  0  0  0  0  0  0  0  0  0  0  0
  141.1640  158.4460  133.6750 C   0  0  0  0  0  0  0  0  0  0  0  0
  141.7940  159.8030  133.8640 C   0  0  0  0  0  0  0  0  0  0  0  0
  141.8030  160.1130  135.2130 F   0  0  0  0  0  0  0  0  0  0  0  0
  143.0950  159.7950  133.3950 F   0  0  0  0  0  0  0  0  0  0  0  0
  141.0910  160.7820  133.1820 F   0  0  0  0  0  0  0  0  0  0  0  0
  141.9250  157.2670  133.8510 C   0  0  0  0  0  0  0  0  0  0  0  0
  141.3120  156.0360  133.5970 C   0  0  0  0  0  0  0  0  0  0  0  0
  146.7960  159.1000  132.9890 C   0  0  0  0  0  0  0  0  0  0  0  0
  145.8450  159.6820  132.3960 O   0  0  0  0  0  0  0  0  0  0  0  0
  148.0740  159.6720  132.9920 O   0  0  0  0  0  0  0  0  0  0  0  0
  149.1790  159.1330  132.2630 C   0  0  0  0  0  0  0  0  0  0  0  0
  150.0130  160.1440  131.7440 O   0  0  0  0  0  0  0  0  0  0  0  0
  149.2670  160.8730  130.3930 P   0  0  1  0  0  0  0  0  0  0  0  0
  149.6030  162.3460  130.3700 O   0  0  0  0  0  0  0  0  0  0  0  0
  149.8770  160.1530  128.9920 O   0  0  0  0  0  0  0  0  0  0  0  0
  147.5830  160.6730  130.4170 O   0  0  0  0  0  0  0  0  0  0  0  0
  147.4179  157.3713  135.5259 H   0  0  0  0  0  0  0  0  0  0  0  0
  147.7188  156.1755  134.2197 H   0  0  0  0  0  0  0  0  0  0  0  0
  148.5931  157.7446  134.2197 H   0  0  0  0  0  0  0  0  0  0  0  0
  144.5484  157.5898  134.1922 H   0  0  0  0  0  0  0  0  0  0  0  0
  144.9594  157.2283  132.4667 H   0  0  0  0  0  0  0  0  0  0  0  0
  146.3802  155.2803  133.4347 H   0  0  0  0  0  0  0  0  0  0  0  0
  145.4138  155.5388  134.9431 H   0  0  0  0  0  0  0  0  0  0  0  0
  144.4736  153.4476  131.7396 H   0  0  0  0  0  0  0  0  0  0  0  0
  143.4216  154.8598  131.3847 H   0  0  0  0  0  0  0  0  0  0  0  0
  145.2080  155.0481  131.3847 H   0  0  0  0  0  0  0  0  0  0  0  0
  142.1690  152.1240  135.0860 H   0  0  0  0  0  0  0  0  0  0  0  0
  138.7498  154.2035  132.6563 H   0  0  0  0  0  0  0  0  0  0  0  0
  138.1805  157.0141  132.6630 H   0  0  0  0  0  0  0  0  0  0  0  0
  139.2279  159.2652  133.0798 H   0  0  0  0  0  0  0  0  0  0  0  0
  142.9736  157.3171  134.1797 H   0  0  0  0  0  0  0  0  0  0  0  0
  149.7709  158.4949  132.9357 H   0  0  0  0  0  0  0  0  0  0  0  0
  148.7784  158.5554  131.4169 H   0  0  0  0  0  0  0  0  0  0  0  0
  147.3190  160.8590  131.3540 H   0  0  0  0  0  0  0  0  0  0  0  0
  1  2  1  0
  2  3  1  0
  3  4  1  0
  4  5  1  0
  5  6  1  0
  5  7  1  0
  7  8  2  0
  7  9  1  0
  9 10  1  0
 10 11  1  0
 11 12  1  0
 11 13  2  0
 10 14  2  0
 14 15  1  0
 15 16  2  0
 16 17  1  0
 17 18  2  0
 18 19  1  0
 19 20  1  0
 19 21  1  0
 19 22  1  0
 18 23  1  0
 23 24  2  0
  2 25  1  0
 25 26  2  0
 25 27  1  0
 27 28  1  0
 28 29  1  0
 29 30  1  0
 30 31  2  0
 30 32  1  6
 30 33  1  0
 24  9  1  0
 24 15  1  0
  1 34  1  0
  1 35  1  0
  1 36  1  0
  3 37  1  0
  3 38  1  0
  4 39  1  0
  4 40  1  0
  6 41  1  0
  6 42  1  0
  6 43  1  0
 12 44  1  0
 14 45  1  0
 16 46  1  0
 17 47  1  0
 23 48  1  0
 28 49  1  0
 28 50  1  0
 33 51  1  0
M  CHG  2  12  -1  32  -1
M  END
>  <UniqueID>  (73) 
73

>  <SMILES>  (73) 
CN(CCN(C)C(=O)n1c(C([NH-])=O)cc2ccc(C(F)(F)F)cc21)C(=O)OCO[P@@](=O)([O-])O

>  <Energy>  (73) 
80.02121594477482

>  <Genealogy>  (73) 
CN(CCN(C)C(=O)n1c(C([NH-])=O)cc2ccc(C(F)(F)F)cc21)C(=O)OCOP(=O)([O-])O (protonated)
CN(CCN(C)C(=O)n1c(C([NH-])=O)cc2ccc(C(F)(F)F)cc21)C(=O)OCO[P@@](=O)([O-])O (chirality)
CN(CCN(C)C(=O)n1c(C([NH-])=O)cc2ccc(C(F)(F)F)cc21)C(=O)OCO[P@@](=O)([O-])O (3D coordinates assigned)
CN(CCN(C)C(=O)n1c(C([NH-])=O)cc2ccc(C(F)(F)F)cc21)C(=O)OCO[P@@](=O)([O-])O (optimized conformer: 80.02121594477482 kcal/mol)

>  <smiles>  (73) 
CN(CCN(C)C(=O)n1c(C(N)=O)cc2ccc(C(F)(F)F)cc21)C(=O)OCOP(=O)(O)O

>  <score_type>  (73) 
oracle

>  <origin>  (73) 
adg

>  <m_score__min__energy>  (73) 
-6.54

>  <m_primary>  (73) 
energy

$$$$
74:0
     RDKit          3D

 47 48  0  0  0  0  0  0  0  0999 V2000
  141.7560  157.5430  138.7400 C   0  0  0  0  0  0  0  0  0  0  0  0
  141.1230  156.9820  137.4670 C   0  0  1  0  0  0  0  0  0  0  0  0
  139.9310  157.8530  137.0390 C   0  0  0  0  0  0  0  0  0  0  0  0
  140.1540  158.4890  135.7030 C   0  0  0  0  0  0  0  0  0  0  0  0
  140.2750  159.7420  135.6190 O   0  0  0  0  0  0  0  0  0  0  0  0
  140.2170  157.6840  134.5590 O   0  0  0  0  0  0  0  0  0  0  0  0
  139.2220  157.6880  133.5360 C   0  0  0  0  0  0  0  0  0  0  0  0
  139.5130  158.7740  132.5000 C   0  0  0  0  0  0  0  0  0  0  0  0
  140.6590  159.4950  132.8640 O   0  0  0  0  0  0  0  0  0  0  0  0
  142.1150  156.9620  136.4370 O   0  0  0  0  0  0  0  0  0  0  0  0
  142.5750  155.7930  135.8220 C   0  0  0  0  0  0  0  0  0  0  0  0
  142.2540  154.6610  136.2770 O   0  0  0  0  0  0  0  0  0  0  0  0
  143.3790  155.9100  134.6830 O   0  0  0  0  0  0  0  0  0  0  0  0
  143.4040  157.0200  133.8280 C   0  0  0  0  0  0  0  0  0  0  0  0
  142.3590  157.3970  133.2310 O   0  0  0  0  0  0  0  0  0  0  0  0
  144.6270  157.7520  133.6570 N   0  0  0  0  0  0  0  0  0  0  0  0
  144.8250  159.0950  133.7790 C   0  0  0  0  0  0  0  0  0  0  0  0
  143.7700  160.1180  133.9400 C   0  0  0  0  0  0  0  0  0  0  0  0
  142.5870  159.8410  134.6850 N   0  0  0  0  0  0  0  0  0  0  0  0
  143.8940  161.2360  133.3720 O   0  0  0  0  0  0  0  0  0  0  0  0
  146.1770  159.4030  133.6510 C   0  0  0  0  0  0  0  0  0  0  0  0
  146.8070  158.1990  133.4380 C   0  0  0  0  0  0  0  0  0  0  0  0
  148.1560  157.9150  133.2480 C   0  0  0  0  0  0  0  0  0  0  0  0
  148.5300  156.5720  133.0760 C   0  0  0  0  0  0  0  0  0  0  0  0
  147.5590  155.5380  133.1210 C   0  0  0  0  0  0  0  0  0  0  0  0
  147.9720  154.1050  132.8950 C   0  0  0  0  0  0  0  0  0  0  0  0
  148.9040  154.0160  131.8760 F   0  0  0  0  0  0  0  0  0  0  0  0
  146.8770  153.3330  132.5490 F   0  0  0  0  0  0  0  0  0  0  0  0
  148.5290  153.6030  134.0560 F   0  0  0  0  0  0  0  0  0  0  0  0
  146.1960  155.8690  133.2940 C   0  0  0  0  0  0  0  0  0  0  0  0
  145.8500  157.2170  133.4460 C   0  0  0  0  0  0  0  0  0  0  0  0
  141.2614  157.1047  139.6193 H   0  0  0  0  0  0  0  0  0  0  0  0
  142.8268  157.2919  138.7584 H   0  0  0  0  0  0  0  0  0  0  0  0
  141.6354  158.6362  138.7584 H   0  0  0  0  0  0  0  0  0  0  0  0
  140.7545  155.9620  137.6508 H   0  0  0  0  0  0  0  0  0  0  0  0
  139.0310  157.2227  136.9867 H   0  0  0  0  0  0  0  0  0  0  0  0
  139.8116  158.6552  137.7821 H   0  0  0  0  0  0  0  0  0  0  0  0
  139.2131  156.7074  133.0377 H   0  0  0  0  0  0  0  0  0  0  0  0
  138.2440  157.8926  133.9961 H   0  0  0  0  0  0  0  0  0  0  0  0
  139.6750  158.3055  131.5180 H   0  0  0  0  0  0  0  0  0  0  0  0
  138.6563  159.4622  132.4507 H   0  0  0  0  0  0  0  0  0  0  0  0
  141.0100  159.0720  133.6900 H   0  0  0  0  0  0  0  0  0  0  0  0
  141.9990  159.0050  134.4680 H   0  0  0  0  0  0  0  0  0  0  0  0
  146.6424  160.3981  133.7081 H   0  0  0  0  0  0  0  0  0  0  0  0
  148.9072  158.7184  133.2330 H   0  0  0  0  0  0  0  0  0  0  0  0
  149.5867  156.3191  132.9046 H   0  0  0  0  0  0  0  0  0  0  0  0
  145.4244  155.0852  133.3089 H   0  0  0  0  0  0  0  0  0  0  0  0
  1  2  1  0
  2  3  1  0
  3  4  1  0
  4  5  2  0
  4  6  1  0
  6  7  1  0
  7  8  1  0
  8  9  1  0
  2 10  1  0
 10 11  1  0
 11 12  2  0
 11 13  1  0
 13 14  1  0
 14 15  2  0
 14 16  1  0
 16 17  1  0
 17 18  1  0
 18 19  1  0
 18 20  2  0
 17 21  2  0
 21 22  1  0
 22 23  2  0
 23 24  1  0
 24 25  2  0
 25 26  1  0
 26 27  1  0
 26 28  1  0
 26 29  1  0
 25 30  1  0
 30 31  2  0
 31 16  1  0
 31 22  1  0
  1 32  1  0
  1 33  1  0
  1 34  1  0
  2 35  1  1
  3 36  1  0
  3 37  1  0
  7 38  1  0
  7 39  1  0
  8 40  1  0
  8 41  1  0
  9 42  1  0
 19 43  1  0
 21 44  1  0
 23 45  1  0
 24 46  1  0
 30 47  1  0
M  CHG  1  19  -1
M  END
>  <UniqueID>  (74) 
74

>  <SMILES>  (74) 
C[C@@H](CC(=O)OCCO)OC(=O)OC(=O)n1c(C([NH-])=O)cc2ccc(C(F)(F)F)cc21

>  <Energy>  (74) 
76.01499010846182

>  <Genealogy>  (74) 
CC(CC(=O)OCCO)OC(=O)OC(=O)n1c(C([NH-])=O)cc2ccc(C(F)(F)F)cc21 (protonated)
C[C@@H](CC(=O)OCCO)OC(=O)OC(=O)n1c(C([NH-])=O)cc2ccc(C(F)(F)F)cc21 (chirality)
C[C@@H](CC(=O)OCCO)OC(=O)OC(=O)n1c(C([NH-])=O)cc2ccc(C(F)(F)F)cc21 (3D coordinates assigned)
C[C@@H](CC(=O)OCCO)OC(=O)OC(=O)n1c(C([NH-])=O)cc2ccc(C(F)(F)F)cc21 (optimized conformer: 76.01499010846182 kcal/mol)

>  <smiles>  (74) 
CC(CC(=O)OCCO)OC(=O)OC(=O)n1c(C(N)=O)cc2ccc(C(F)(F)F)cc21

>  <score_type>  (74) 
oracle

>  <origin>  (74) 
adg

>  <m_score__min__energy>  (74) 
-6.0199999999999996

>  <m_primary>  (74) 
energy

$$$$
75:0
     RDKit          3D

 35 36  0  0  0  0  0  0  0  0999 V2000
  145.0810  160.1070  133.4940 C   0  0  0  0  0  0  0  0  0  0  0  0
  146.1590  159.1010  133.2210 C   0  0  0  0  0  0  0  0  0  0  0  0
  147.4530  159.5320  132.8370 C   0  0  0  0  0  0  0  0  0  0  0  0
  148.4800  158.5990  132.6080 C   0  0  0  0  0  0  0  0  0  0  0  0
  148.1870  157.2510  132.7890 C   0  0  0  0  0  0  0  0  0  0  0  0
  148.9830  156.1370  132.6240 C   0  0  0  0  0  0  0  0  0  0  0  0
  148.1660  155.0490  132.9370 C   0  0  0  0  0  0  0  0  0  0  0  0
  148.6040  153.6330  132.9320 C   0  0  0  0  0  0  0  0  0  0  0  0
  147.8570  152.6270  133.6210 N   0  0  0  0  0  0  0  0  0  0  0  0
  149.6440  153.2970  132.3060 O   0  0  0  0  0  0  0  0  0  0  0  0
  146.9250  155.4800  133.2920 N   0  0  0  0  0  0  0  0  0  0  0  0
  145.7840  154.6770  133.6280 C   0  0  0  0  0  0  0  0  0  0  0  0
  145.4760  153.7070  132.8840 O   0  0  0  0  0  0  0  0  0  0  0  0
  145.0040  154.9640  134.8060 N   0  0  0  0  0  0  0  0  0  0  0  0
  143.8900  155.9120  134.7270 C   0  0  0  0  0  0  0  0  0  0  0  0
  145.4150  154.4340  136.1120 C   0  0  0  0  0  0  0  0  0  0  0  0
  146.8920  154.2080  136.1350 C   0  0  0  0  0  0  0  0  0  0  0  0
  147.3520  153.0570  136.3590 O   0  0  0  0  0  0  0  0  0  0  0  0
  147.7630  155.2750  135.9560 O   0  0  0  0  0  0  0  0  0  0  0  0
  146.9490  156.8240  133.1880 C   0  0  0  0  0  0  0  0  0  0  0  0
  145.9040  157.7250  133.4090 C   0  0  0  0  0  0  0  0  0  0  0  0
  144.9554  160.2242  134.5805 H   0  0  0  0  0  0  0  0  0  0  0  0
  145.3612  161.0740  133.0509 H   0  0  0  0  0  0  0  0  0  0  0  0
  144.1356  159.7608  133.0509 H   0  0  0  0  0  0  0  0  0  0  0  0
  147.6562  160.6064  132.7169 H   0  0  0  0  0  0  0  0  0  0  0  0
  149.4832  158.9247  132.2957 H   0  0  0  0  0  0  0  0  0  0  0  0
  150.0375  156.1111  132.3121 H   0  0  0  0  0  0  0  0  0  0  0  0
  148.1630  151.6300  133.5800 H   0  0  0  0  0  0  0  0  0  0  0  0
  147.0270  152.8650  134.2050 H   0  0  0  0  0  0  0  0  0  0  0  0
  143.5686  156.1855  135.7428 H   0  0  0  0  0  0  0  0  0  0  0  0
  144.2145  156.8152  134.1894 H   0  0  0  0  0  0  0  0  0  0  0  0
  143.0504  155.4472  134.1894 H   0  0  0  0  0  0  0  0  0  0  0  0
  145.1453  155.1548  136.8980 H   0  0  0  0  0  0  0  0  0  0  0  0
  144.9024  153.4769  136.2887 H   0  0  0  0  0  0  0  0  0  0  0  0
  144.9100  157.3720  133.7209 H   0  0  0  0  0  0  0  0  0  0  0  0
  1  2  1  0
  2  3  2  0
  3  4  1  0
  4  5  2  0
  5  6  1  0
  6  7  2  0
  7  8  1  0
  8  9  1  0
  8 10  2  0
  7 11  1  0
 11 12  1  0
 12 13  2  0
 12 14  1  0
 14 15  1  0
 14 16  1  0
 16 17  1  0
 17 18  2  0
 17 19  1  0
 11 20  1  0
 20 21  2  0
 21  2  1  0
 20  5  1  0
  1 22  1  0
  1 23  1  0
  1 24  1  0
  3 25  1  0
  4 26  1  0
  6 27  1  0
  9 28  1  0
  9 29  1  0
 15 30  1  0
 15 31  1  0
 15 32  1  0
 16 33  1  0
 16 34  1  0
 21 35  1  0
M  CHG  1  19  -1
M  END
>  <UniqueID>  (75) 
75

>  <SMILES>  (75) 
Cc1ccc2cc(C(N)=O)n(C(=O)N(C)CC(=O)[O-])c2c1

>  <Energy>  (75) 
70.6873690836236

>  <Genealogy>  (75) 
Cc1ccc2cc(C(N)=O)n(C(=O)N(C)CC(=O)[O-])c2c1 (protonated)
Cc1ccc2cc(C(N)=O)n(C(=O)N(C)CC(=O)[O-])c2c1 (3D coordinates assigned)
Cc1ccc2cc(C(N)=O)n(C(=O)N(C)CC(=O)[O-])c2c1 (optimized conformer: 70.6873690836236 kcal/mol)

>  <smiles>  (75) 
Cc1ccc2cc(C(N)=O)n(C(=O)N(C)CC(=O)O)c2c1

>  <score_type>  (75) 
oracle

>  <origin>  (75) 
adg

>  <m_score__min__energy>  (75) 
-6.7599999999999998

>  <m_primary>  (75) 
energy

$$$$
76:0
     RDKit          3D

 40 41  0  0  0  0  0  0  0  0999 V2000
  141.7450  160.7800  133.7610 C   0  0  0  0  0  0  0  0  0  0  0  0
  141.1530  159.5170  134.2110 N   0  0  0  0  0  0  0  0  0  0  0  0
  140.7200  159.3560  135.6040 C   0  0  0  0  0  0  0  0  0  0  0  0
  139.8440  158.1510  135.7310 C   0  0  0  0  0  0  0  0  0  0  0  0
  138.5920  158.2720  135.6720 O   0  0  0  0  0  0  0  0  0  0  0  0
  140.4090  156.8900  135.8620 O   0  0  0  0  0  0  0  0  0  0  0  0
  141.0580  158.4080  133.2950 C   0  0  0  0  0  0  0  0  0  0  0  0
  140.1830  158.4090  132.3860 O   0  0  0  0  0  0  0  0  0  0  0  0
  141.9470  157.2860  133.4060 N   0  0  0  0  0  0  0  0  0  0  0  0
  141.6340  155.9650  133.3080 C   0  0  0  0  0  0  0  0  0  0  0  0
  140.2690  155.4040  133.2130 C   0  0  0  0  0  0  0  0  0  0  0  0
  139.1150  156.1980  133.4920 N   0  0  0  0  0  0  0  0  0  0  0  0
  140.1210  154.1890  132.9150 O   0  0  0  0  0  0  0  0  0  0  0  0
  142.7910  155.1900  133.2910 C   0  0  0  0  0  0  0  0  0  0  0  0
  143.8320  156.0880  133.3770 C   0  0  0  0  0  0  0  0  0  0  0  0
  145.2040  155.8730  133.3650 C   0  0  0  0  0  0  0  0  0  0  0  0
  146.0490  156.9960  133.4080 C   0  0  0  0  0  0  0  0  0  0  0  0
  145.5170  158.3180  133.4450 C   0  0  0  0  0  0  0  0  0  0  0  0
  146.3960  159.4730  133.4770 N   0  0  0  0  0  0  0  0  0  0  0  0
  147.8400  159.3210  133.2580 C   0  0  0  0  0  0  0  0  0  0  0  0
  145.8550  160.8160  133.7280 C   0  0  0  0  0  0  0  0  0  0  0  0
  144.1070  158.4820  133.4460 C   0  0  0  0  0  0  0  0  0  0  0  0
  143.2950  157.3450  133.4340 C   0  0  0  0  0  0  0  0  0  0  0  0
  142.0282  161.3843  134.6354 H   0  0  0  0  0  0  0  0  0  0  0  0
  142.6388  160.5706  133.1549 H   0  0  0  0  0  0  0  0  0  0  0  0
  141.0123  161.3330  133.1549 H   0  0  0  0  0  0  0  0  0  0  0  0
  141.6032  159.2339  136.2482 H   0  0  0  0  0  0  0  0  0  0  0  0
  140.1543  160.2478  135.9117 H   0  0  0  0  0  0  0  0  0  0  0  0
  138.1600  155.7950  133.3570 H   0  0  0  0  0  0  0  0  0  0  0  0
  139.1950  157.1400  133.9310 H   0  0  0  0  0  0  0  0  0  0  0  0
  142.8591  154.0942  133.2233 H   0  0  0  0  0  0  0  0  0  0  0  0
  145.6173  154.8545  133.3231 H   0  0  0  0  0  0  0  0  0  0  0  0
  147.1395  156.8519  133.4132 H   0  0  0  0  0  0  0  0  0  0  0  0
  148.3544  159.2668  134.2288 H   0  0  0  0  0  0  0  0  0  0  0  0
  148.0296  158.3979  132.6906 H   0  0  0  0  0  0  0  0  0  0  0  0
  148.2177  160.1843  132.6906 H   0  0  0  0  0  0  0  0  0  0  0  0
  145.7862  160.9868  134.8125 H   0  0  0  0  0  0  0  0  0  0  0  0
  146.5200  161.5689  133.2797 H   0  0  0  0  0  0  0  0  0  0  0  0
  144.8538  160.8977  133.2797 H   0  0  0  0  0  0  0  0  0  0  0  0
  143.6610  159.4875  133.4560 H   0  0  0  0  0  0  0  0  0  0  0  0
  1  2  1  0
  2  3  1  0
  3  4  1  0
  4  5  2  0
  4  6  1  0
  2  7  1  0
  7  8  2  0
  7  9  1  0
  9 10  1  0
 10 11  1  0
 11 12  1  0
 11 13  2  0
 10 14  2  0
 14 15  1  0
 15 16  2  0
 16 17  1  0
 17 18  2  0
 18 19  1  0
 19 20  1  0
 19 21  1  0
 18 22  1  0
 22 23  2  0
 23  9  1  0
 23 15  1  0
  1 24  1  0
  1 25  1  0
  1 26  1  0
  3 27  1  0
  3 28  1  0
 12 29  1  0
 12 30  1  0
 14 31  1  0
 16 32  1  0
 17 33  1  0
 20 34  1  0
 20 35  1  0
 20 36  1  0
 21 37  1  0
 21 38  1  0
 21 39  1  0
 22 40  1  0
M  CHG  1   6  -1
M  END
>  <UniqueID>  (76) 
76

>  <SMILES>  (76) 
CN(CC(=O)[O-])C(=O)n1c(C(N)=O)cc2ccc(N(C)C)cc21

>  <Energy>  (76) 
78.03415904342096

>  <Genealogy>  (76) 
CN(CC(=O)[O-])C(=O)n1c(C(N)=O)cc2ccc(N(C)C)cc21 (protonated)
CN(CC(=O)[O-])C(=O)n1c(C(N)=O)cc2ccc(N(C)C)cc21 (3D coordinates assigned)
CN(CC(=O)[O-])C(=O)n1c(C(N)=O)cc2ccc(N(C)C)cc21 (optimized conformer: 78.03415904342096 kcal/mol)

>  <smiles>  (76) 
CN(CC(=O)O)C(=O)n1c(C(N)=O)cc2ccc(N(C)C)cc21

>  <score_type>  (76) 
oracle

>  <origin>  (76) 
adg

>  <m_score__min__energy>  (76) 
-6.3899999999999997

>  <m_primary>  (76) 
energy

$$$$
77:0
     RDKit          3D

 44 45  0  0  0  0  0  0  0  0999 V2000
  148.4800  154.6340  132.6520 C   0  0  0  0  0  0  0  0  0  0  0  0
  147.9470  156.0300  132.7720 C   0  0  0  0  0  0  0  0  0  0  0  0
  148.8350  157.1320  132.7490 C   0  0  0  0  0  0  0  0  0  0  0  0
  148.3520  158.4440  132.8790 C   0  0  0  0  0  0  0  0  0  0  0  0
  146.9820  158.6200  133.0530 C   0  0  0  0  0  0  0  0  0  0  0  0
  146.2530  159.7790  133.1920 C   0  0  0  0  0  0  0  0  0  0  0  0
  144.9320  159.3660  133.3450 C   0  0  0  0  0  0  0  0  0  0  0  0
  143.8230  160.3010  133.6260 C   0  0  0  0  0  0  0  0  0  0  0  0
  142.5560  160.1460  132.9920 N   0  0  0  0  0  0  0  0  0  0  0  0
  143.9790  161.2160  134.4780 O   0  0  0  0  0  0  0  0  0  0  0  0
  144.8420  158.0060  133.2880 N   0  0  0  0  0  0  0  0  0  0  0  0
  143.6510  157.2010  133.3170 C   0  0  0  0  0  0  0  0  0  0  0  0
  142.5750  157.6450  132.8300 O   0  0  0  0  0  0  0  0  0  0  0  0
  143.6990  155.9120  133.8510 O   0  0  0  0  0  0  0  0  0  0  0  0
  142.7050  155.3950  134.7300 C   0  0  0  0  0  0  0  0  0  0  0  0
  141.7780  154.6120  133.9860 O   0  0  0  0  0  0  0  0  0  0  0  0
  140.5830  155.1320  133.4780 C   0  0  0  0  0  0  0  0  0  0  0  0
  139.7510  154.3780  132.9040 O   0  0  0  0  0  0  0  0  0  0  0  0
  140.3180  156.5320  133.6130 N   0  0  0  0  0  0  0  0  0  0  0  0
  139.1720  157.1870  132.9830 C   0  0  0  0  0  0  0  0  0  0  0  0
  139.2890  158.7210  133.0420 C   0  0  1  0  0  0  0  0  0  0  0  0
  140.4180  159.0480  133.8090 O   0  0  0  0  0  0  0  0  0  0  0  0
  139.4270  159.3420  131.6420 C   0  0  0  0  0  0  0  0  0  0  0  0
  140.6690  159.0160  131.0830 O   0  0  0  0  0  0  0  0  0  0  0  0
  146.1090  157.5640  133.1140 C   0  0  0  0  0  0  0  0  0  0  0  0
  146.5650  156.2450  132.9640 C   0  0  0  0  0  0  0  0  0  0  0  0
  148.6400  154.2150  133.6564 H   0  0  0  0  0  0  0  0  0  0  0  0
  147.7565  154.0110  132.1058 H   0  0  0  0  0  0  0  0  0  0  0  0
  149.4346  154.6517  132.1058 H   0  0  0  0  0  0  0  0  0  0  0  0
  149.9145  156.9588  132.6280 H   0  0  0  0  0  0  0  0  0  0  0  0
  149.0347  159.3058  132.8444 H   0  0  0  0  0  0  0  0  0  0  0  0
  146.6328  160.8113  133.1840 H   0  0  0  0  0  0  0  0  0  0  0  0
  142.2930  159.2480  132.5300 H   0  0  0  0  0  0  0  0  0  0  0  0
  143.1833  154.7677  135.4966 H   0  0  0  0  0  0  0  0  0  0  0  0
  142.1758  156.2274  135.2169 H   0  0  0  0  0  0  0  0  0  0  0  0
  140.9680  157.1080  134.1940 H   0  0  0  0  0  0  0  0  0  0  0  0
  139.1172  156.8740  131.9299 H   0  0  0  0  0  0  0  0  0  0  0  0
  138.2647  156.8912  133.5302 H   0  0  0  0  0  0  0  0  0  0  0  0
  138.3707  159.1245  133.4935 H   0  0  0  0  0  0  0  0  0  0  0  0
  141.1550  159.2440  133.1730 H   0  0  0  0  0  0  0  0  0  0  0  0
  138.6258  158.9568  130.9942 H   0  0  0  0  0  0  0  0  0  0  0  0
  139.3508  160.4360  131.7281 H   0  0  0  0  0  0  0  0  0  0  0  0
  141.3310  159.0900  131.8170 H   0  0  0  0  0  0  0  0  0  0  0  0
  145.8624  155.3992  132.9953 H   0  0  0  0  0  0  0  0  0  0  0  0
  1  2  1  0
  2  3  2  0
  3  4  1  0
  4  5  2  0
  5  6  1  0
  6  7  2  0
  7  8  1  0
  8  9  1  0
  8 10  2  0
  7 11  1  0
 11 12  1  0
 12 13  2  0
 12 14  1  0
 14 15  1  0
 15 16  1  0
 16 17  1  0
 17 18  2  0
 17 19  1  0
 19 20  1  0
 20 21  1  0
 21 22  1  0
 21 23  1  0
 23 24  1  0
 11 25  1  0
 25 26  2  0
 26  2  1  0
 25  5  1  0
  1 27  1  0
  1 28  1  0
  1 29  1  0
  3 30  1  0
  4 31  1  0
  6 32  1  0
  9 33  1  0
 15 34  1  0
 15 35  1  0
 19 36  1  0
 20 37  1  0
 20 38  1  0
 21 39  1  1
 22 40  1  0
 23 41  1  0
 23 42  1  0
 24 43  1  0
 26 44  1  0
M  CHG  1   9  -1
M  END
>  <UniqueID>  (77) 
77

>  <SMILES>  (77) 
Cc1ccc2cc(C([NH-])=O)n(C(=O)OCOC(=O)NC[C@@H](O)CO)c2c1

>  <Energy>  (77) 
72.32412412196064

>  <Genealogy>  (77) 
Cc1ccc2cc(C([NH-])=O)n(C(=O)OCOC(=O)NC[C@@H](O)CO)c2c1 (protonated)
Cc1ccc2cc(C([NH-])=O)n(C(=O)OCOC(=O)NC[C@@H](O)CO)c2c1 (3D coordinates assigned)
Cc1ccc2cc(C([NH-])=O)n(C(=O)OCOC(=O)NC[C@@H](O)CO)c2c1 (optimized conformer: 72.32412412196064 kcal/mol)

>  <smiles>  (77) 
Cc1ccc2cc(C(N)=O)n(C(=O)OCOC(=O)NC[C@@H](O)CO)c2c1

>  <score_type>  (77) 
oracle

>  <origin>  (77) 
adg

>  <m_score__min__energy>  (77) 
-5.2400000000000002

>  <m_primary>  (77) 
energy

$$$$
78:0
     RDKit          3D

 55 58  0  0  0  0  0  0  0  0999 V2000
  139.6580  158.2280  136.6680 N   0  0  0  0  0  0  0  0  0  0  0  0
  139.9550  158.3910  135.2840 C   0  0  0  0  0  0  0  0  0  0  0  0
  139.0120  158.6230  134.4790 O   0  0  0  0  0  0  0  0  0  0  0  0
  141.3430  158.3020  134.7750 C   0  0  0  0  0  0  0  0  0  0  0  0
  141.9830  159.3250  134.0770 C   0  0  0  0  0  0  0  0  0  0  0  0
  143.2790  158.8960  133.9070 C   0  0  0  0  0  0  0  0  0  0  0  0
  144.3460  159.4940  133.2420 C   0  0  0  0  0  0  0  0  0  0  0  0
  145.5710  158.8080  133.2060 C   0  0  0  0  0  0  0  0  0  0  0  0
  145.6980  157.5170  133.7880 C   0  0  0  0  0  0  0  0  0  0  0  0
  147.0030  156.7610  133.7570 C   0  0  0  0  0  0  0  0  0  0  0  0
  147.0770  155.9320  132.6490 F   0  0  0  0  0  0  0  0  0  0  0  0
  148.0530  157.6610  133.7160 F   0  0  0  0  0  0  0  0  0  0  0  0
  147.1120  155.9790  134.8960 F   0  0  0  0  0  0  0  0  0  0  0  0
  144.5840  156.9300  134.4330 C   0  0  0  0  0  0  0  0  0  0  0  0
  143.3860  157.6500  134.4720 C   0  0  0  0  0  0  0  0  0  0  0  0
  142.2040  157.2680  134.9920 N   0  0  0  0  0  0  0  0  0  0  0  0
  141.9400  156.0540  135.7060 C   0  0  0  0  0  0  0  0  0  0  0  0
  141.7480  156.1030  136.9540 O   0  0  0  0  0  0  0  0  0  0  0  0
  141.7890  154.7720  134.9800 C   0  0  0  0  0  0  0  0  0  0  0  0
  141.1340  154.7370  133.7370 C   0  0  0  0  0  0  0  0  0  0  0  0
  141.0990  153.5570  132.9870 C   0  0  0  0  0  0  0  0  0  0  0  0
  141.6850  152.3830  133.4830 C   0  0  0  0  0  0  0  0  0  0  0  0
  141.7360  151.1390  132.6310 C   0  0  0  0  0  0  0  0  0  0  0  0
  140.4880  150.3440  132.6540 N   0  0  0  0  0  0  0  0  0  0  0  0
  139.4380  150.7310  131.6860 C   0  0  0  0  0  0  0  0  0  0  0  0
  139.4490  149.8660  130.4180 C   0  0  0  0  0  0  0  0  0  0  0  0
  139.4130  148.3740  130.7800 C   0  0  0  0  0  0  0  0  0  0  0  0
  139.4190  147.5360  129.5800 N   0  0  0  0  0  0  0  0  0  0  0  0
  140.6180  148.0360  131.6590 C   0  0  0  0  0  0  0  0  0  0  0  0
  140.6230  148.8950  132.9300 C   0  0  0  0  0  0  0  0  0  0  0  0
  142.2970  152.4050  134.7420 C   0  0  0  0  0  0  0  0  0  0  0  0
  142.3610  153.5910  135.4820 C   0  0  0  0  0  0  0  0  0  0  0  0
  139.1510  158.9820  137.1890 H   0  0  0  0  0  0  0  0  0  0  0  0
  139.8080  157.2970  137.1270 H   0  0  0  0  0  0  0  0  0  0  0  0
  141.5447  160.2741  133.7347 H   0  0  0  0  0  0  0  0  0  0  0  0
  144.2328  160.4756  132.7587 H   0  0  0  0  0  0  0  0  0  0  0  0
  146.4417  159.2746  132.7222 H   0  0  0  0  0  0  0  0  0  0  0  0
  144.6584  155.9331  134.8919 H   0  0  0  0  0  0  0  0  0  0  0  0
  140.6455  155.6440  133.3513 H   0  0  0  0  0  0  0  0  0  0  0  0
  140.6090  153.5495  132.0022 H   0  0  0  0  0  0  0  0  0  0  0  0
  141.9362  151.4391  131.5918 H   0  0  0  0  0  0  0  0  0  0  0  0
  142.5290  150.5000  133.0467 H   0  0  0  0  0  0  0  0  0  0  0  0
  138.4567  150.6288  132.1725 H   0  0  0  0  0  0  0  0  0  0  0  0
  139.6361  151.7689  131.3803 H   0  0  0  0  0  0  0  0  0  0  0  0
  138.5683  150.1107  129.8060 H   0  0  0  0  0  0  0  0  0  0  0  0
  140.3722  150.0721  129.8566 H   0  0  0  0  0  0  0  0  0  0  0  0
  138.4818  148.1707  131.3291 H   0  0  0  0  0  0  0  0  0  0  0  0
  139.4920  148.1550  128.7410 H   0  0  0  0  0  0  0  0  0  0  0  0
  140.2590  146.9160  129.5850 H   0  0  0  0  0  0  0  0  0  0  0  0
  140.5716  146.9739  131.9417 H   0  0  0  0  0  0  0  0  0  0  0  0
  141.5374  148.2412  131.0911 H   0  0  0  0  0  0  0  0  0  0  0  0
  139.7838  148.5807  133.5680 H   0  0  0  0  0  0  0  0  0  0  0  0
  141.5948  148.7447  133.4229 H   0  0  0  0  0  0  0  0  0  0  0  0
  142.7314  151.4818  135.1532 H   0  0  0  0  0  0  0  0  0  0  0  0
  142.8616  153.5987  136.4615 H   0  0  0  0  0  0  0  0  0  0  0  0
  1  2  1  0
  2  3  2  0
  2  4  1  0
  4  5  2  0
  5  6  1  0
  6  7  2  0
  7  8  1  0
  8  9  2  0
  9 10  1  0
 10 11  1  0
 10 12  1  0
 10 13  1  0
  9 14  1  0
 14 15  2  0
 15 16  1  0
 16 17  1  0
 17 18  2  0
 17 19  1  0
 19 20  2  0
 20 21  1  0
 21 22  2  0
 22 23  1  0
 23 24  1  0
 24 25  1  0
 25 26  1  0
 26 27  1  0
 27 28  1  0
 27 29  1  0
 29 30  1  0
 22 31  1  0
 31 32  2  0
 16  4  1  0
 32 19  1  0
 15  6  1  0
 30 24  1  0
  1 33  1  0
  1 34  1  0
  5 35  1  0
  7 36  1  0
  8 37  1  0
 14 38  1  0
 20 39  1  0
 21 40  1  0
 23 41  1  0
 23 42  1  0
 25 43  1  0
 25 44  1  0
 26 45  1  0
 26 46  1  0
 27 47  1  0
 28 48  1  0
 28 49  1  0
 29 50  1  0
 29 51  1  0
 30 52  1  0
 30 53  1  0
 31 54  1  0
 32 55  1  0
M  END
>  <UniqueID>  (78) 
78

>  <SMILES>  (78) 
NC(=O)c1cc2ccc(C(F)(F)F)cc2n1C(=O)c1ccc(CN2CCC(N)CC2)cc1

>  <Energy>  (78) 
112.93161373123084

>  <Genealogy>  (78) 
NC(=O)c1cc2ccc(C(F)(F)F)cc2n1C(=O)c1ccc(CN2CCC(N)CC2)cc1 (3D coordinates assigned)
NC(=O)c1cc2ccc(C(F)(F)F)cc2n1C(=O)c1ccc(CN2CCC(N)CC2)cc1 (nonaromatic ring conformer: 112.93161373123084 kcal/mol)

>  <smiles>  (78) 
NC(=O)c1cc2ccc(C(F)(F)F)cc2n1C(=O)c1ccc(CN2CCC(N)CC2)cc1

>  <score_type>  (78) 
oracle

>  <origin>  (78) 
adg

>  <m_score__min__energy>  (78) 
-9.5700000000000003

>  <m_primary>  (78) 
energy

$$$$
79:0
     RDKit          3D

 39 41  0  0  0  0  0  0  0  0999 V2000
  141.0300  159.5400  134.7710 N   0  0  0  0  0  0  0  0  0  0  0  0
  141.8930  160.3940  134.0200 C   0  0  0  0  0  0  0  0  0  0  0  0
  141.4160  161.4200  133.4650 O   0  0  0  0  0  0  0  0  0  0  0  0
  143.3200  160.0640  133.8280 C   0  0  0  0  0  0  0  0  0  0  0  0
  144.3480  160.9870  134.0000 C   0  0  0  0  0  0  0  0  0  0  0  0
  145.5010  160.3110  133.6690 C   0  0  0  0  0  0  0  0  0  0  0  0
  146.8230  160.7450  133.6770 C   0  0  0  0  0  0  0  0  0  0  0  0
  147.8210  159.8210  133.3260 C   0  0  0  0  0  0  0  0  0  0  0  0
  147.4830  158.4870  132.9850 C   0  0  0  0  0  0  0  0  0  0  0  0
  148.5690  157.5110  132.6320 C   0  0  0  0  0  0  0  0  0  0  0  0
  148.8320  156.6970  133.7180 F   0  0  0  0  0  0  0  0  0  0  0  0
  149.7190  158.1960  132.2860 F   0  0  0  0  0  0  0  0  0  0  0  0
  146.1300  158.0820  132.9930 C   0  0  0  0  0  0  0  0  0  0  0  0
  145.1530  159.0290  133.3250 C   0  0  0  0  0  0  0  0  0  0  0  0
  143.8150  158.8620  133.4210 N   0  0  0  0  0  0  0  0  0  0  0  0
  143.0830  157.6340  133.2550 C   0  0  0  0  0  0  0  0  0  0  0  0
  143.2820  156.9190  132.2350 O   0  0  0  0  0  0  0  0  0  0  0  0
  142.1590  157.2460  134.2340 O   0  0  0  0  0  0  0  0  0  0  0  0
  140.9110  156.6640  133.9790 C   0  0  0  0  0  0  0  0  0  0  0  0
  140.8130  155.6130  133.2870 O   0  0  0  0  0  0  0  0  0  0  0  0
  139.7680  157.2760  134.4990 O   0  0  0  0  0  0  0  0  0  0  0  0
  138.5780  157.4840  133.7420 C   0  0  0  0  0  0  0  0  0  0  0  0
  138.8040  158.5260  132.6930 C   0  0  0  0  0  0  0  0  0  0  0  0
  138.7180  158.3270  131.3290 C   0  0  0  0  0  0  0  0  0  0  0  0
  138.9850  159.5540  130.7610 C   0  0  0  0  0  0  0  0  0  0  0  0
  139.2140  160.4220  131.8100 C   0  0  0  0  0  0  0  0  0  0  0  0
  139.0990  159.7790  132.9500 O   0  0  0  0  0  0  0  0  0  0  0  0
  141.3520  158.6030  135.1010 H   0  0  0  0  0  0  0  0  0  0  0  0
  140.0360  159.8120  134.9350 H   0  0  0  0  0  0  0  0  0  0  0  0
  144.2583  162.0326  134.3298 H   0  0  0  0  0  0  0  0  0  0  0  0
  147.0786  161.7795  133.9497 H   0  0  0  0  0  0  0  0  0  0  0  0
  148.8750  160.1355  133.3156 H   0  0  0  0  0  0  0  0  0  0  0  0
  148.2387  156.8966  131.7814 H   0  0  0  0  0  0  0  0  0  0  0  0
  145.8503  157.0476  132.7444 H   0  0  0  0  0  0  0  0  0  0  0  0
  138.2861  156.5400  133.2585 H   0  0  0  0  0  0  0  0  0  0  0  0
  137.7797  157.8246  134.4178 H   0  0  0  0  0  0  0  0  0  0  0  0
  138.4855  157.3875  130.8063 H   0  0  0  0  0  0  0  0  0  0  0  0
  139.0105  159.7936  129.6877 H   0  0  0  0  0  0  0  0  0  0  0  0
  139.4561  161.4901  131.7069 H   0  0  0  0  0  0  0  0  0  0  0  0
  1  2  1  0
  2  3  2  0
  2  4  1  0
  4  5  2  0
  5  6  1  0
  6  7  2  0
  7  8  1  0
  8  9  2  0
  9 10  1  0
 10 11  1  0
 10 12  1  0
  9 13  1  0
 13 14  2  0
 14 15  1  0
 15 16  1  0
 16 17  2  0
 16 18  1  0
 18 19  1  0
 19 20  2  0
 19 21  1  0
 21 22  1  0
 22 23  1  0
 23 24  2  0
 24 25  1  0
 25 26  2  0
 26 27  1  0
 15  4  1  0
 27 23  1  0
 14  6  1  0
  1 28  1  0
  1 29  1  0
  5 30  1  0
  7 31  1  0
  8 32  1  0
 10 33  1  0
 13 34  1  0
 22 35  1  0
 22 36  1  0
 24 37  1  0
 25 38  1  0
 26 39  1  0
M  END
>  <UniqueID>  (79) 
79

>  <SMILES>  (79) 
NC(=O)c1cc2ccc(C(F)F)cc2n1C(=O)OC(=O)OCc1ccco1

>  <Energy>  (79) 
104.8307694338558

>  <Genealogy>  (79) 
NC(=O)c1cc2ccc(C(F)F)cc2n1C(=O)OC(=O)OCc1ccco1 (3D coordinates assigned)
NC(=O)c1cc2ccc(C(F)F)cc2n1C(=O)OC(=O)OCc1ccco1 (optimized conformer: 104.8307694338558 kcal/mol)

>  <smiles>  (79) 
NC(=O)c1cc2ccc(C(F)F)cc2n1C(=O)OC(=O)OCc1ccco1

>  <score_type>  (79) 
oracle

>  <origin>  (79) 
adg

>  <m_score__min__energy>  (79) 
-6.6399999999999997

>  <m_primary>  (79) 
energy

$$$$
80:0
     RDKit          3D

 48 50  0  0  0  0  0  0  0  0999 V2000
  145.7310  151.9360  132.2290 C   0  0  0  0  0  0  0  0  0  0  0  0
  144.3670  151.5900  132.4470 O   0  0  0  0  0  0  0  0  0  0  0  0
  143.3740  152.4940  132.8520 C   0  0  0  0  0  0  0  0  0  0  0  0
  142.0600  152.0300  132.9570 C   0  0  0  0  0  0  0  0  0  0  0  0
  141.0340  152.8900  133.3480 C   0  0  0  0  0  0  0  0  0  0  0  0
  141.2990  154.2340  133.6280 C   0  0  0  0  0  0  0  0  0  0  0  0
  140.2310  155.0560  134.0090 O   0  0  0  0  0  0  0  0  0  0  0  0
  139.8080  156.1830  133.2940 C   0  0  0  0  0  0  0  0  0  0  0  0
  139.1320  156.0520  132.2370 O   0  0  0  0  0  0  0  0  0  0  0  0
  140.0860  157.4950  133.8070 N   0  0  0  0  0  0  0  0  0  0  0  0
  140.1020  158.6710  133.1150 C   0  0  0  0  0  0  0  0  0  0  0  0
  139.6870  158.8550  131.7090 C   0  0  0  0  0  0  0  0  0  0  0  0
  138.3650  158.5030  131.3080 N   0  0  0  0  0  0  0  0  0  0  0  0
  140.4980  159.2860  130.8470 O   0  0  0  0  0  0  0  0  0  0  0  0
  140.4910  159.7190  133.9450 C   0  0  0  0  0  0  0  0  0  0  0  0
  140.7100  159.1480  135.1760 C   0  0  0  0  0  0  0  0  0  0  0  0
  141.1230  159.7280  136.3680 C   0  0  0  0  0  0  0  0  0  0  0  0
  141.2950  158.8940  137.4850 C   0  0  0  0  0  0  0  0  0  0  0  0
  141.0610  157.4930  137.3990 C   0  0  0  0  0  0  0  0  0  0  0  0
  141.2520  156.6370  138.5560 N   0  0  0  0  0  0  0  0  0  0  0  0
  140.6560  155.2960  138.6000 C   0  0  0  0  0  0  0  0  0  0  0  0
  142.0450  157.0980  139.7040 C   0  0  0  0  0  0  0  0  0  0  0  0
  140.6390  156.9470  136.1580 C   0  0  0  0  0  0  0  0  0  0  0  0
  140.4600  157.8070  135.0680 C   0  0  0  0  0  0  0  0  0  0  0  0
  142.6250  154.7140  133.5630 C   0  0  0  0  0  0  0  0  0  0  0  0
  142.8870  156.0430  133.9330 O   0  0  0  0  0  0  0  0  0  0  0  0
  143.2920  157.0710  133.0350 C   0  0  0  0  0  0  0  0  0  0  0  0
  143.6540  153.8390  133.1590 C   0  0  0  0  0  0  0  0  0  0  0  0
  146.2361  152.0641  133.1977 H   0  0  0  0  0  0  0  0  0  0  0  0
  146.2261  151.1350  131.6604 H   0  0  0  0  0  0  0  0  0  0  0  0
  145.7844  152.8762  131.6604 H   0  0  0  0  0  0  0  0  0  0  0  0
  141.8331  150.9780  132.7294 H   0  0  0  0  0  0  0  0  0  0  0  0
  140.0066  152.5073  133.4370 H   0  0  0  0  0  0  0  0  0  0  0  0
  137.8430  157.7400  131.7940 H   0  0  0  0  0  0  0  0  0  0  0  0
  140.6000  160.7793  133.6732 H   0  0  0  0  0  0  0  0  0  0  0  0
  141.3102  160.8098  136.4356 H   0  0  0  0  0  0  0  0  0  0  0  0
  141.6159  159.3311  138.4421 H   0  0  0  0  0  0  0  0  0  0  0  0
  140.5198  154.9895  139.6476 H   0  0  0  0  0  0  0  0  0  0  0  0
  139.6801  155.3117  138.0927 H   0  0  0  0  0  0  0  0  0  0  0  0
  141.3216  154.5821  138.0927 H   0  0  0  0  0  0  0  0  0  0  0  0
  141.5424  156.8058  140.6378 H   0  0  0  0  0  0  0  0  0  0  0  0
  143.0445  156.6402  139.6668 H   0  0  0  0  0  0  0  0  0  0  0  0
  142.1417  158.1931  139.6668 H   0  0  0  0  0  0  0  0  0  0  0  0
  140.4560  155.8673  136.0549 H   0  0  0  0  0  0  0  0  0  0  0  0
  143.6361  157.9443  133.6086 H   0  0  0  0  0  0  0  0  0  0  0  0
  144.1121  156.7022  132.4013 H   0  0  0  0  0  0  0  0  0  0  0  0
  142.4408  157.3607  132.4013 H   0  0  0  0  0  0  0  0  0  0  0  0
  144.6863  154.2112  133.0829 H   0  0  0  0  0  0  0  0  0  0  0  0
  1  2  1  0
  2  3  1  0
  3  4  2  0
  4  5  1  0
  5  6  2  0
  6  7  1  0
  7  8  1  0
  8  9  2  0
  8 10  1  0
 10 11  1  0
 11 12  1  0
 12 13  1  0
 12 14  2  0
 11 15  2  0
 15 16  1  0
 16 17  2  0
 17 18  1  0
 18 19  2  0
 19 20  1  0
 20 21  1  0
 20 22  1  0
 19 23  1  0
 23 24  2  0
  6 25  1  0
 25 26  1  0
 26 27  1  0
 25 28  2  0
 28  3  1  0
 24 10  1  0
 24 16  1  0
  1 29  1  0
  1 30  1  0
  1 31  1  0
  4 32  1  0
  5 33  1  0
 13 34  1  0
 15 35  1  0
 17 36  1  0
 18 37  1  0
 21 38  1  0
 21 39  1  0
 21 40  1  0
 22 41  1  0
 22 42  1  0
 22 43  1  0
 23 44  1  0
 27 45  1  0
 27 46  1  0
 27 47  1  0
 28 48  1  0
M  CHG  1  13  -1
M  END
>  <UniqueID>  (80) 
80

>  <SMILES>  (80) 
COc1ccc(OC(=O)n2c(C([NH-])=O)cc3ccc(N(C)C)cc32)c(OC)c1

>  <Energy>  (80) 
95.06281713266615

>  <Genealogy>  (80) 
COc1ccc(OC(=O)n2c(C([NH-])=O)cc3ccc(N(C)C)cc32)c(OC)c1 (protonated)
COc1ccc(OC(=O)n2c(C([NH-])=O)cc3ccc(N(C)C)cc32)c(OC)c1 (3D coordinates assigned)
COc1ccc(OC(=O)n2c(C([NH-])=O)cc3ccc(N(C)C)cc32)c(OC)c1 (optimized conformer: 95.06281713266615 kcal/mol)

>  <smiles>  (80) 
COc1ccc(OC(=O)n2c(C(N)=O)cc3ccc(N(C)C)cc32)c(OC)c1

>  <score_type>  (80) 
oracle

>  <origin>  (80) 
adg

>  <m_score__min__energy>  (80) 
-7.0199999999999996

>  <m_primary>  (80) 
energy

$$$$
81:0
     RDKit          3D

 35 36  0  0  0  0  0  0  0  0999 V2000
  145.1540  161.2620  132.9630 H   0  0  0  0  0  0  0  0  0  0  0  0
  144.6090  160.9590  133.8000 N   0  0  0  0  0  0  0  0  0  0  0  0
  143.9120  159.7160  133.8120 C   0  0  0  0  0  0  0  0  0  0  0  0
  142.6680  159.7090  134.0120 O   0  0  0  0  0  0  0  0  0  0  0  0
  144.6560  158.4520  133.6220 C   0  0  0  0  0  0  0  0  0  0  0  0
  144.1520  157.2020  133.9750 C   0  0  0  0  0  0  0  0  0  0  0  0
  143.1894  156.9841  134.4607 H   0  0  0  0  0  0  0  0  0  0  0  0
  145.1140  156.2980  133.5870 C   0  0  0  0  0  0  0  0  0  0  0  0
  145.1420  154.9130  133.7140 C   0  0  0  0  0  0  0  0  0  0  0  0
  144.2967  154.3670  134.1583 H   0  0  0  0  0  0  0  0  0  0  0  0
  146.2840  154.2330  133.2570 C   0  0  0  0  0  0  0  0  0  0  0  0
  146.3288  153.1362  133.3283 H   0  0  0  0  0  0  0  0  0  0  0  0
  147.3790  154.9450  132.7050 C   0  0  0  0  0  0  0  0  0  0  0  0
  148.5460  154.2350  132.2360 N   0  0  0  0  0  0  0  0  0  0  0  0
  149.3180  154.9210  132.0630 H   0  0  0  0  0  0  0  0  0  0  0  0
  148.3460  153.7610  131.3240 H   0  0  0  0  0  0  0  0  0  0  0  0
  149.0060  153.2500  133.2270 C   0  0  0  0  0  0  0  0  0  0  0  0
  149.8016  153.7029  133.8369 H   0  0  0  0  0  0  0  0  0  0  0  0
  148.1460  152.9636  133.8502 H   0  0  0  0  0  0  0  0  0  0  0  0
  149.5420  152.0100  132.5710 C   0  0  0  0  0  0  0  0  0  0  0  0
  150.0000  151.0700  133.2730 O   0  0  0  0  0  0  0  0  0  0  0  0
  149.5110  151.8840  131.1890 O   0  0  0  0  0  0  0  0  0  0  0  0
  147.3100  156.3530  132.5910 C   0  0  0  0  0  0  0  0  0  0  0  0
  148.1495  156.9253  132.1694 H   0  0  0  0  0  0  0  0  0  0  0  0
  146.1490  157.0010  133.0270 C   0  0  0  0  0  0  0  0  0  0  0  0
  145.8780  158.3260  133.0290 N   0  0  0  0  0  0  0  0  0  0  0  0
  146.7500  159.3830  132.5860 C   0  0  0  0  0  0  0  0  0  0  0  0
  146.3980  160.1100  131.6190 O   0  0  0  0  0  0  0  0  0  0  0  0
  147.9990  159.7200  133.3000 C   0  0  0  0  0  0  0  0  0  0  0  0
  147.9317  160.4775  134.0948 H   0  0  0  0  0  0  0  0  0  0  0  0
  149.2080  159.1860  133.0670 C   0  0  0  0  0  0  0  0  0  0  0  0
  150.0015  159.4059  133.7964 H   0  0  0  0  0  0  0  0  0  0  0  0
  149.5680  158.3310  131.9210 C   0  0  0  0  0  0  0  0  0  0  0  0
  149.6120  158.7890  130.7490 O   0  0  0  0  0  0  0  0  0  0  0  0
  149.9540  157.0170  132.1500 O   0  0  0  0  0  0  0  0  0  0  0  0
  1  2  1  0
  2  3  1  0
  3  4  2  0
  3  5  1  0
  5  6  2  0
  6  7  1  0
  6  8  1  0
  8  9  2  0
  9 10  1  0
  9 11  1  0
 11 12  1  0
 11 13  2  0
 13 14  1  0
 14 15  1  0
 14 16  1  0
 14 17  1  0
 17 18  1  0
 17 19  1  0
 17 20  1  0
 20 21  2  0
 20 22  1  0
 13 23  1  0
 23 24  1  0
 23 25  2  0
 25 26  1  0
 26 27  1  0
 27 28  2  0
 27 29  1  0
 29 30  1  0
 29 31  2  0
 31 32  1  0
 31 33  1  0
 33 34  2  0
 33 35  1  0
 26  5  1  0
 25  8  1  0
M  CHG  4   2  -1  14   1  22  -1  35  -1
M  END
>  <UniqueID>  (81) 
81

>  <SMILES>  (81) 
[NH-]C(=O)c1cc2ccc([NH2+]CC(=O)[O-])cc2n1C(=O)/C=C\C(=O)[O-]

>  <Energy>  (81) 
79.46781067388162

>  <Genealogy>  (81) 
[NH-]C(=O)c1cc2ccc([NH2+]CC(=O)[O-])cc2n1C(=O)/C=C\C(=O)[O-] (protonated)
[NH-]C(=O)c1cc2ccc([NH2+]CC(=O)[O-])cc2n1C(=O)/C=C\C(=O)[O-] (cis-trans isomerization)
[NH-]C(=O)c1cc2ccc([NH2+]CC(=O)[O-])cc2n1C(=O)/C=C\C(=O)[O-] (3D coordinates assigned)
[NH-]C(=O)c1cc2ccc([NH2+]CC(=O)[O-])cc2n1C(=O)/C=C\C(=O)[O-] (optimized conformer: 79.46781067388162 kcal/mol)

>  <smiles>  (81) 
NC(=O)c1cc2ccc(NCC(=O)O)cc2n1C(=O)/C=C\C(=O)O

>  <score_type>  (81) 
oracle

>  <origin>  (81) 
adg

>  <m_score__min__energy>  (81) 
-5.9900000000000002

>  <m_primary>  (81) 
energy

$$$$
82:0
     RDKit          3D

 36 37  0  0  0  0  0  0  0  0999 V2000
  139.8290  157.8160  136.6730 C   0  0  0  0  0  0  0  0  0  0  0  0
  140.2200  158.7420  135.6660 O   0  0  0  0  0  0  0  0  0  0  0  0
  141.5410  158.8600  135.2260 C   0  0  0  0  0  0  0  0  0  0  0  0
  142.4870  158.9800  136.0510 O   0  0  0  0  0  0  0  0  0  0  0  0
  141.8270  158.8930  133.7580 C   0  0  0  0  0  0  0  0  0  0  0  0
  142.8380  159.9950  133.4340 C   0  0  0  0  0  0  0  0  0  0  0  0
  144.0630  159.4290  132.9740 O   0  0  0  0  0  0  0  0  0  0  0  0
  145.3180  159.8040  133.4660 C   0  0  0  0  0  0  0  0  0  0  0  0
  145.4600  160.8890  134.0940 O   0  0  0  0  0  0  0  0  0  0  0  0
  146.4550  158.9560  133.2380 N   0  0  0  0  0  0  0  0  0  0  0  0
  146.6000  157.6470  133.5910 C   0  0  0  0  0  0  0  0  0  0  0  0
  145.6800  156.8710  134.4460 C   0  0  0  0  0  0  0  0  0  0  0  0
  144.2820  157.1500  134.4610 N   0  0  0  0  0  0  0  0  0  0  0  0
  146.1400  155.9840  135.2130 O   0  0  0  0  0  0  0  0  0  0  0  0
  147.8000  157.1390  133.0970 C   0  0  0  0  0  0  0  0  0  0  0  0
  148.3950  158.1880  132.4320 C   0  0  0  0  0  0  0  0  0  0  0  0
  149.6000  158.2390  131.7380 C   0  0  0  0  0  0  0  0  0  0  0  0
  149.9510  159.4500  131.1180 C   0  0  0  0  0  0  0  0  0  0  0  0
  149.0940  160.5730  131.1950 C   0  0  0  0  0  0  0  0  0  0  0  0
  149.4570  161.7960  130.5490 N   0  0  0  0  0  0  0  0  0  0  0  0
  147.8790  160.4850  131.9060 C   0  0  0  0  0  0  0  0  0  0  0  0
  147.5620  159.2730  132.5310 C   0  0  0  0  0  0  0  0  0  0  0  0
  140.0138  158.2536  137.6652 H   0  0  0  0  0  0  0  0  0  0  0  0
  138.7581  157.5886  136.5662 H   0  0  0  0  0  0  0  0  0  0  0  0
  140.4129  156.8899  136.5662 H   0  0  0  0  0  0  0  0  0  0  0  0
  142.2386  157.9213  133.4474 H   0  0  0  0  0  0  0  0  0  0  0  0
  140.8912  159.0985  133.2176 H   0  0  0  0  0  0  0  0  0  0  0  0
  142.4240  160.6473  132.6510 H   0  0  0  0  0  0  0  0  0  0  0  0
  143.0353  160.5765  134.3467 H   0  0  0  0  0  0  0  0  0  0  0  0
  143.9270  158.1050  134.6890 H   0  0  0  0  0  0  0  0  0  0  0  0
  148.1894  156.1169  133.2135 H   0  0  0  0  0  0  0  0  0  0  0  0
  150.2571  157.3589  131.6767 H   0  0  0  0  0  0  0  0  0  0  0  0
  150.9005  159.5256  130.5678 H   0  0  0  0  0  0  0  0  0  0  0  0
  150.4260  162.1770  130.6320 H   0  0  0  0  0  0  0  0  0  0  0  0
  148.7600  162.3280  129.9810 H   0  0  0  0  0  0  0  0  0  0  0  0
  147.1980  161.3466  131.9678 H   0  0  0  0  0  0  0  0  0  0  0  0
  1  2  1  0
  2  3  1  0
  3  4  2  0
  3  5  1  0
  5  6  1  0
  6  7  1  0
  7  8  1  0
  8  9  2  0
  8 10  1  0
 10 11  1  0
 11 12  1  0
 12 13  1  0
 12 14  2  0
 11 15  2  0
 15 16  1  0
 16 17  2  0
 17 18  1  0
 18 19  2  0
 19 20  1  0
 19 21  1  0
 21 22  2  0
 22 10  1  0
 22 16  1  0
  1 23  1  0
  1 24  1  0
  1 25  1  0
  5 26  1  0
  5 27  1  0
  6 28  1  0
  6 29  1  0
 13 30  1  0
 15 31  1  0
 17 32  1  0
 18 33  1  0
 20 34  1  0
 20 35  1  0
 21 36  1  0
M  CHG  1  13  -1
M  END
>  <UniqueID>  (82) 
82

>  <SMILES>  (82) 
COC(=O)CCOC(=O)n1c(C([NH-])=O)cc2ccc(N)cc21

>  <Energy>  (82) 
67.693864190913

>  <Genealogy>  (82) 
COC(=O)CCOC(=O)n1c(C([NH-])=O)cc2ccc(N)cc21 (protonated)
COC(=O)CCOC(=O)n1c(C([NH-])=O)cc2ccc(N)cc21 (3D coordinates assigned)
COC(=O)CCOC(=O)n1c(C([NH-])=O)cc2ccc(N)cc21 (optimized conformer: 67.693864190913 kcal/mol)

>  <smiles>  (82) 
COC(=O)CCOC(=O)n1c(C(N)=O)cc2ccc(N)cc21

>  <score_type>  (82) 
oracle

>  <origin>  (82) 
adg

>  <m_score__min__energy>  (82) 
-5.5599999999999996

>  <m_primary>  (82) 
energy

$$$$
83:0
     RDKit          3D

 42 43  0  0  0  0  0  0  0  0999 V2000
  148.0910  153.9080  133.7350 C   0  0  0  0  0  0  0  0  0  0  0  0
  147.7560  154.8200  132.6450 N   0  0  0  0  0  0  0  0  0  0  0  0
  147.5080  156.2250  132.8310 C   0  0  0  0  0  0  0  0  0  0  0  0
  148.6020  157.1270  132.8050 C   0  0  0  0  0  0  0  0  0  0  0  0
  148.4040  158.5060  132.9920 C   0  0  0  0  0  0  0  0  0  0  0  0
  147.1040  158.9560  133.1940 C   0  0  0  0  0  0  0  0  0  0  0  0
  146.6310  160.2280  133.4270 C   0  0  0  0  0  0  0  0  0  0  0  0
  145.2520  160.0900  133.5740 C   0  0  0  0  0  0  0  0  0  0  0  0
  144.3300  161.2220  133.8000 C   0  0  0  0  0  0  0  0  0  0  0  0
  142.9750  161.1320  133.3650 N   0  0  0  0  0  0  0  0  0  0  0  0
  144.7210  162.2640  134.3880 O   0  0  0  0  0  0  0  0  0  0  0  0
  144.8880  158.7830  133.4340 N   0  0  0  0  0  0  0  0  0  0  0  0
  143.5730  158.2220  133.5690 C   0  0  0  0  0  0  0  0  0  0  0  0
  142.8210  158.1470  132.5600 O   0  0  0  0  0  0  0  0  0  0  0  0
  143.0930  157.7290  134.8660 C   0  0  0  0  0  0  0  0  0  0  0  0
  143.2030  156.5070  135.1570 O   0  0  0  0  0  0  0  0  0  0  0  0
  142.5030  158.6220  135.7660 O   0  0  0  0  0  0  0  0  0  0  0  0
  141.6180  159.6560  135.3520 C   0  0  0  0  0  0  0  0  0  0  0  0
  140.6270  159.1000  134.3700 C   0  0  0  0  0  0  0  0  0  0  0  0
  140.6430  159.5410  133.1890 O   0  0  0  0  0  0  0  0  0  0  0  0
  139.6920  158.0620  134.7370 N   0  0  0  0  0  0  0  0  0  0  0  0
  139.6530  157.5320  136.1040 C   0  0  0  0  0  0  0  0  0  0  0  0
  138.7750  157.5390  133.7190 C   0  0  0  0  0  0  0  0  0  0  0  0
  146.0320  158.1030  133.2070 C   0  0  0  0  0  0  0  0  0  0  0  0
  146.2000  156.7240  133.0430 C   0  0  0  0  0  0  0  0  0  0  0  0
  147.9082  154.4057  134.6988 H   0  0  0  0  0  0  0  0  0  0  0  0
  147.4655  153.0060  133.6637 H   0  0  0  0  0  0  0  0  0  0  0  0
  149.1517  153.6253  133.6637 H   0  0  0  0  0  0  0  0  0  0  0  0
  147.6900  154.4180  131.6820 H   0  0  0  0  0  0  0  0  0  0  0  0
  149.6187  156.7425  132.6363 H   0  0  0  0  0  0  0  0  0  0  0  0
  149.2513  159.2074  132.9790 H   0  0  0  0  0  0  0  0  0  0  0  0
  147.2176  161.1568  133.4849 H   0  0  0  0  0  0  0  0  0  0  0  0
  142.6350  160.2970  132.8380 H   0  0  0  0  0  0  0  0  0  0  0  0
  141.0837  160.0542  136.2272 H   0  0  0  0  0  0  0  0  0  0  0  0
  142.1933  160.4639  134.8763 H   0  0  0  0  0  0  0  0  0  0  0  0
  139.7142  158.3635  136.8215 H   0  0  0  0  0  0  0  0  0  0  0  0
  138.7121  156.9834  136.2579 H   0  0  0  0  0  0  0  0  0  0  0  0
  140.5035  156.8516  136.2579 H   0  0  0  0  0  0  0  0  0  0  0  0
  137.9204  157.0516  134.2110 H   0  0  0  0  0  0  0  0  0  0  0  0
  138.4134  158.3667  133.0912 H   0  0  0  0  0  0  0  0  0  0  0  0
  139.3034  156.8064  133.0912 H   0  0  0  0  0  0  0  0  0  0  0  0
  145.3365  156.0435  133.0779 H   0  0  0  0  0  0  0  0  0  0  0  0
  1  2  1  0
  2  3  1  0
  3  4  2  0
  4  5  1  0
  5  6  2  0
  6  7  1  0
  7  8  2  0
  8  9  1  0
  9 10  1  0
  9 11  2  0
  8 12  1  0
 12 13  1  0
 13 14  2  0
 13 15  1  0
 15 16  2  0
 15 17  1  0
 17 18  1  0
 18 19  1  0
 19 20  2  0
 19 21  1  0
 21 22  1  0
 21 23  1  0
 12 24  1  0
 24 25  2  0
 25  3  1  0
 24  6  1  0
  1 26  1  0
  1 27  1  0
  1 28  1  0
  2 29  1  0
  4 30  1  0
  5 31  1  0
  7 32  1  0
 10 33  1  0
 18 34  1  0
 18 35  1  0
 22 36  1  0
 22 37  1  0
 22 38  1  0
 23 39  1  0
 23 40  1  0
 23 41  1  0
 25 42  1  0
M  CHG  1  10  -1
M  END
>  <UniqueID>  (83) 
83

>  <SMILES>  (83) 
CNc1ccc2cc(C([NH-])=O)n(C(=O)C(=O)OCC(=O)N(C)C)c2c1

>  <Energy>  (83) 
73.56312479031385

>  <Genealogy>  (83) 
CNc1ccc2cc(C([NH-])=O)n(C(=O)C(=O)OCC(=O)N(C)C)c2c1 (protonated)
CNc1ccc2cc(C([NH-])=O)n(C(=O)C(=O)OCC(=O)N(C)C)c2c1 (3D coordinates assigned)
CNc1ccc2cc(C([NH-])=O)n(C(=O)C(=O)OCC(=O)N(C)C)c2c1 (optimized conformer: 73.56312479031385 kcal/mol)

>  <smiles>  (83) 
CNc1ccc2cc(C(N)=O)n(C(=O)C(=O)OCC(=O)N(C)C)c2c1

>  <score_type>  (83) 
oracle

>  <origin>  (83) 
adg

>  <m_score__min__energy>  (83) 
-6.5800000000000001

>  <m_primary>  (83) 
energy

$$$$
84:0
     RDKit          3D

 38 40  0  0  0  0  0  0  0  0999 V2000
  148.9000  157.3050  133.3660 N   0  0  0  0  0  0  0  0  0  0  0  0
  148.3790  158.6150  133.1340 C   0  0  0  0  0  0  0  0  0  0  0  0
  149.1540  159.5250  132.7370 O   0  0  0  0  0  0  0  0  0  0  0  0
  146.9390  158.9050  133.2880 C   0  0  0  0  0  0  0  0  0  0  0  0
  146.4350  160.1820  133.5110 C   0  0  0  0  0  0  0  0  0  0  0  0
  145.0680  160.0330  133.5350 C   0  0  0  0  0  0  0  0  0  0  0  0
  144.0700  160.9810  133.7370 C   0  0  0  0  0  0  0  0  0  0  0  0
  142.7360  160.5410  133.7520 C   0  0  0  0  0  0  0  0  0  0  0  0
  142.4210  159.1680  133.5760 C   0  0  0  0  0  0  0  0  0  0  0  0
  141.0070  158.7140  133.6090 C   0  0  0  0  0  0  0  0  0  0  0  0
  140.4370  158.2380  134.8050 C   0  0  0  0  0  0  0  0  0  0  0  0
  139.1050  157.8110  134.8330 C   0  0  0  0  0  0  0  0  0  0  0  0
  138.3310  157.8530  133.6710 C   0  0  0  0  0  0  0  0  0  0  0  0
  138.8860  158.3230  132.4790 C   0  0  0  0  0  0  0  0  0  0  0  0
  140.2160  158.7510  132.4450 C   0  0  0  0  0  0  0  0  0  0  0  0
  143.4660  158.2350  133.3750 C   0  0  0  0  0  0  0  0  0  0  0  0
  144.7850  158.7050  133.3440 C   0  0  0  0  0  0  0  0  0  0  0  0
  145.9270  157.9970  133.1910 N   0  0  0  0  0  0  0  0  0  0  0  0
  146.0490  156.5680  133.0890 C   0  0  0  0  0  0  0  0  0  0  0  0
  146.7760  156.0590  132.1930 O   0  0  0  0  0  0  0  0  0  0  0  0
  145.3580  155.7470  133.9880 O   0  0  0  0  0  0  0  0  0  0  0  0
  145.8040  154.4470  134.3650 C   0  0  0  0  0  0  0  0  0  0  0  0
  146.8940  154.5470  135.3840 C   0  0  0  0  0  0  0  0  0  0  0  0
  147.6880  155.5250  135.3660 O   0  0  0  0  0  0  0  0  0  0  0  0
  147.0190  153.5770  136.3700 O   0  0  0  0  0  0  0  0  0  0  0  0
  148.2650  156.4940  133.5320 H   0  0  0  0  0  0  0  0  0  0  0  0
  149.9270  157.1290  133.2910 H   0  0  0  0  0  0  0  0  0  0  0  0
  147.0074  161.1124  133.6405 H   0  0  0  0  0  0  0  0  0  0  0  0
  144.3180  162.0430  133.8806 H   0  0  0  0  0  0  0  0  0  0  0  0
  141.9254  161.2694  133.9020 H   0  0  0  0  0  0  0  0  0  0  0  0
  141.0423  158.2016  135.7227 H   0  0  0  0  0  0  0  0  0  0  0  0
  138.6665  157.4416  135.7717 H   0  0  0  0  0  0  0  0  0  0  0  0
  137.2842  157.5158  133.6949 H   0  0  0  0  0  0  0  0  0  0  0  0
  138.2751  158.3564  131.5648 H   0  0  0  0  0  0  0  0  0  0  0  0
  140.6476  159.1192  131.5026 H   0  0  0  0  0  0  0  0  0  0  0  0
  143.2472  157.1647  133.2460 H   0  0  0  0  0  0  0  0  0  0  0  0
  144.9606  153.8832  134.7901 H   0  0  0  0  0  0  0  0  0  0  0  0
  146.1927  153.9302  133.4751 H   0  0  0  0  0  0  0  0  0  0  0  0
  1  2  1  0
  2  3  2  0
  2  4  1  0
  4  5  2  0
  5  6  1  0
  6  7  2  0
  7  8  1  0
  8  9  2  0
  9 10  1  0
 10 11  2  0
 11 12  1  0
 12 13  2  0
 13 14  1  0
 14 15  2  0
  9 16  1  0
 16 17  2  0
 17 18  1  0
 18 19  1  0
 19 20  2  0
 19 21  1  0
 21 22  1  0
 22 23  1  0
 23 24  2  0
 23 25  1  0
 18  4  1  0
 17  6  1  0
 15 10  1  0
  1 26  1  0
  1 27  1  0
  5 28  1  0
  7 29  1  0
  8 30  1  0
 11 31  1  0
 12 32  1  0
 13 33  1  0
 14 34  1  0
 15 35  1  0
 16 36  1  0
 22 37  1  0
 22 38  1  0
M  CHG  1  25  -1
M  END
>  <UniqueID>  (84) 
84

>  <SMILES>  (84) 
NC(=O)c1cc2ccc(-c3ccccc3)cc2n1C(=O)OCC(=O)[O-]

>  <Energy>  (84) 
82.96778332389125

>  <Genealogy>  (84) 
NC(=O)c1cc2ccc(-c3ccccc3)cc2n1C(=O)OCC(=O)[O-] (protonated)
NC(=O)c1cc2ccc(-c3ccccc3)cc2n1C(=O)OCC(=O)[O-] (3D coordinates assigned)
NC(=O)c1cc2ccc(-c3ccccc3)cc2n1C(=O)OCC(=O)[O-] (optimized conformer: 82.96778332389125 kcal/mol)

>  <smiles>  (84) 
NC(=O)c1cc2ccc(-c3ccccc3)cc2n1C(=O)OCC(=O)O

>  <score_type>  (84) 
oracle

>  <origin>  (84) 
adg

>  <m_score__min__energy>  (84) 
-7.7400000000000002

>  <m_primary>  (84) 
energy

$$$$
85:0
     RDKit          3D

 45 47  0  0  0  0  0  0  0  0999 V2000
  138.7290  160.6330  129.9790 C   0  0  0  0  0  0  0  0  0  0  0  0
  138.9390  159.7860  131.1980 C   0  0  0  0  0  0  0  0  0  0  0  0
  137.8760  158.9990  131.7060 C   0  0  0  0  0  0  0  0  0  0  0  0
  138.0460  158.2370  132.8740 C   0  0  0  0  0  0  0  0  0  0  0  0
  139.2820  158.2870  133.5120 C   0  0  0  0  0  0  0  0  0  0  0  0
  139.7050  157.6760  134.6700 C   0  0  0  0  0  0  0  0  0  0  0  0
  141.0230  158.0970  134.8500 C   0  0  0  0  0  0  0  0  0  0  0  0
  141.8910  157.6140  135.9430 C   0  0  0  0  0  0  0  0  0  0  0  0
  142.7640  156.5090  135.7200 N   0  0  0  0  0  0  0  0  0  0  0  0
  141.8940  158.1850  137.0650 O   0  0  0  0  0  0  0  0  0  0  0  0
  141.3960  158.9400  133.8440 N   0  0  0  0  0  0  0  0  0  0  0  0
  142.6420  159.6380  133.6990 C   0  0  0  0  0  0  0  0  0  0  0  0
  142.7630  160.8070  134.1570 O   0  0  0  0  0  0  0  0  0  0  0  0
  143.7360  159.0070  133.0230 N   0  0  0  0  0  0  0  0  0  0  0  0
  144.1710  157.6620  133.2430 C   0  0  0  0  0  0  0  0  0  0  0  0
  145.1860  157.3390  134.0680 N   0  0  0  0  0  0  0  0  0  0  0  0
  145.2690  156.0210  133.9910 N   0  0  0  0  0  0  0  0  0  0  0  0
  144.3420  155.5790  133.1590 N   0  0  0  0  0  0  0  0  0  0  0  0
  144.1420  154.2020  132.8360 C   0  0  0  0  0  0  0  0  0  0  0  0
  144.5710  153.7510  131.7400 O   0  0  0  0  0  0  0  0  0  0  0  0
  143.4700  153.3740  133.7480 O   0  0  0  0  0  0  0  0  0  0  0  0
  142.0520  153.1640  133.8200 C   0  0  0  0  0  0  0  0  0  0  0  0
  141.6040  152.1130  132.7860 C   0  0  0  0  0  0  0  0  0  0  0  0
  141.2970  154.4890  133.6100 C   0  0  0  0  0  0  0  0  0  0  0  0
  141.7430  152.6360  135.2290 C   0  0  0  0  0  0  0  0  0  0  0  0
  143.6270  156.5750  132.6640 N   0  0  0  0  0  0  0  0  0  0  0  0
  140.3210  159.0440  133.0330 C   0  0  0  0  0  0  0  0  0  0  0  0
  140.1720  159.8280  131.8820 C   0  0  0  0  0  0  0  0  0  0  0  0
  138.4747  161.6587  130.2845 H   0  0  0  0  0  0  0  0  0  0  0  0
  139.6509  160.6470  129.3790 H   0  0  0  0  0  0  0  0  0  0  0  0
  137.9074  160.2148  129.3790 H   0  0  0  0  0  0  0  0  0  0  0  0
  136.9093  158.9845  131.1814 H   0  0  0  0  0  0  0  0  0  0  0  0
  137.2272  157.6197  133.2721 H   0  0  0  0  0  0  0  0  0  0  0  0
  139.1269  156.9994  135.3165 H   0  0  0  0  0  0  0  0  0  0  0  0
  143.3520  156.4560  134.8590 H   0  0  0  0  0  0  0  0  0  0  0  0
  141.2245  151.2227  133.3089 H   0  0  0  0  0  0  0  0  0  0  0  0
  140.8076  152.5352  132.1555 H   0  0  0  0  0  0  0  0  0  0  0  0
  142.4601  151.8308  132.1555 H   0  0  0  0  0  0  0  0  0  0  0  0
  141.0471  154.9275  134.5874 H   0  0  0  0  0  0  0  0  0  0  0  0
  141.9325  155.1878  133.0463 H   0  0  0  0  0  0  0  0  0  0  0  0
  140.3718  154.2985  133.0463 H   0  0  0  0  0  0  0  0  0  0  0  0
  142.1497  153.3310  135.9784 H   0  0  0  0  0  0  0  0  0  0  0  0
  140.6538  152.5531  135.3588 H   0  0  0  0  0  0  0  0  0  0  0  0
  142.2041  151.6458  135.3588 H   0  0  0  0  0  0  0  0  0  0  0  0
  140.9959  160.4607  131.5204 H   0  0  0  0  0  0  0  0  0  0  0  0
  1  2  1  0
  2  3  2  0
  3  4  1  0
  4  5  2  0
  5  6  1  0
  6  7  2  0
  7  8  1  0
  8  9  1  0
  8 10  2  0
  7 11  1  0
 11 12  1  0
 12 13  2  0
 12 14  1  0
 14 15  1  0
 15 16  1  0
 16 17  2  0
 17 18  1  0
 18 19  1  0
 19 20  2  0
 19 21  1  0
 21 22  1  0
 22 23  1  0
 22 24  1  0
 22 25  1  0
 18 26  1  0
 11 27  1  0
 27 28  2  0
 28  2  1  0
 27  5  1  0
 26 15  2  0
  1 29  1  0
  1 30  1  0
  1 31  1  0
  3 32  1  0
  4 33  1  0
  6 34  1  0
  9 35  1  0
 23 36  1  0
 23 37  1  0
 23 38  1  0
 24 39  1  0
 24 40  1  0
 24 41  1  0
 25 42  1  0
 25 43  1  0
 25 44  1  0
 28 45  1  0
M  CHG  2   9  -1  14  -1
M  END
>  <UniqueID>  (85) 
85

>  <SMILES>  (85) 
Cc1ccc2cc(C([NH-])=O)n(C(=O)[N-]c3nnn(C(=O)OC(C)(C)C)n3)c2c1

>  <Energy>  (85) 
119.06080326386481

>  <Genealogy>  (85) 
Cc1ccc2cc(C([NH-])=O)n(C(=O)[N-]c3nnn(C(=O)OC(C)(C)C)n3)c2c1 (protonated)
Cc1ccc2cc(C([NH-])=O)n(C(=O)[N-]c3nnn(C(=O)OC(C)(C)C)n3)c2c1 (3D coordinates assigned)
Cc1ccc2cc(C([NH-])=O)n(C(=O)[N-]c3nnn(C(=O)OC(C)(C)C)n3)c2c1 (optimized conformer: 119.06080326386481 kcal/mol)

>  <smiles>  (85) 
Cc1ccc2cc(C(N)=O)n(C(=O)Nc3nnn(C(=O)OC(C)(C)C)n3)c2c1

>  <score_type>  (85) 
oracle

>  <origin>  (85) 
adg

>  <m_score__min__energy>  (85) 
-8.6099999999999994

>  <m_primary>  (85) 
energy

$$$$
86:0
     RDKit          3D

 48 49  0  0  0  0  0  0  0  0999 V2000
  149.5230  152.9870  132.2080 C   0  0  0  0  0  0  0  0  0  0  0  0
  149.2530  154.3380  132.5130 O   0  0  0  0  0  0  0  0  0  0  0  0
  148.2550  154.4280  133.5080 C   0  0  0  0  0  0  0  0  0  0  0  0
  147.8830  155.7890  133.7290 O   0  0  0  0  0  0  0  0  0  0  0  0
  146.9110  156.4640  132.9820 C   0  0  0  0  0  0  0  0  0  0  0  0
  146.1440  155.8280  132.2080 O   0  0  0  0  0  0  0  0  0  0  0  0
  146.8010  157.8910  133.0830 N   0  0  0  0  0  0  0  0  0  0  0  0
  147.7290  158.8250  132.7280 C   0  0  0  0  0  0  0  0  0  0  0  0
  149.1220  158.5530  132.3170 C   0  0  0  0  0  0  0  0  0  0  0  0
  149.6120  157.2180  132.2260 N   0  0  0  0  0  0  0  0  0  0  0  0
  149.9030  159.5140  132.0850 O   0  0  0  0  0  0  0  0  0  0  0  0
  147.2100  160.1090  132.8800 C   0  0  0  0  0  0  0  0  0  0  0  0
  145.9290  159.9320  133.3470 C   0  0  0  0  0  0  0  0  0  0  0  0
  144.9510  160.8710  133.6590 C   0  0  0  0  0  0  0  0  0  0  0  0
  143.7000  160.4020  134.0910 C   0  0  0  0  0  0  0  0  0  0  0  0
  143.4400  159.0100  134.1980 C   0  0  0  0  0  0  0  0  0  0  0  0
  142.1480  158.5420  134.6480 N   0  0  0  0  0  0  0  0  0  0  0  0
  142.0180  157.1920  135.2060 C   0  0  0  0  0  0  0  0  0  0  0  0
  140.9420  159.3720  134.4810 C   0  0  0  0  0  0  0  0  0  0  0  0
  140.5670  159.5190  132.9990 C   0  0  0  0  0  0  0  0  0  0  0  0
  139.1920  159.0370  132.7430 N   0  0  0  0  0  0  0  0  0  0  0  0
  138.7700  159.3420  131.3640 C   0  0  0  0  0  0  0  0  0  0  0  0
  139.1120  157.5850  132.9720 C   0  0  0  0  0  0  0  0  0  0  0  0
  144.4620  158.0880  133.8670 C   0  0  0  0  0  0  0  0  0  0  0  0
  145.7060  158.5850  133.4600 C   0  0  0  0  0  0  0  0  0  0  0  0
  149.6371  152.4161  133.1413 H   0  0  0  0  0  0  0  0  0  0  0  0
  148.6905  152.5698  131.6224 H   0  0  0  0  0  0  0  0  0  0  0  0
  150.4519  152.9219  131.6224 H   0  0  0  0  0  0  0  0  0  0  0  0
  147.3704  153.8600  133.1844 H   0  0  0  0  0  0  0  0  0  0  0  0
  148.6529  154.0136  134.4461 H   0  0  0  0  0  0  0  0  0  0  0  0
  148.9800  156.4310  131.9580 H   0  0  0  0  0  0  0  0  0  0  0  0
  147.7175  161.0622  132.6708 H   0  0  0  0  0  0  0  0  0  0  0  0
  145.1518  161.9488  133.5699 H   0  0  0  0  0  0  0  0  0  0  0  0
  142.9105  161.1227  134.3501 H   0  0  0  0  0  0  0  0  0  0  0  0
  142.0233  157.2473  136.3046 H   0  0  0  0  0  0  0  0  0  0  0  0
  141.0726  156.7442  134.8660 H   0  0  0  0  0  0  0  0  0  0  0  0
  142.8606  156.5720  134.8660 H   0  0  0  0  0  0  0  0  0  0  0  0
  140.1053  158.9004  135.0173 H   0  0  0  0  0  0  0  0  0  0  0  0
  141.1500  160.3727  134.8876 H   0  0  0  0  0  0  0  0  0  0  0  0
  140.6335  160.5799  132.7159 H   0  0  0  0  0  0  0  0  0  0  0  0
  141.2645  158.9129  132.4022 H   0  0  0  0  0  0  0  0  0  0  0  0
  137.8787  159.9862  131.3873 H   0  0  0  0  0  0  0  0  0  0  0  0
  139.5843  159.8616  130.8378 H   0  0  0  0  0  0  0  0  0  0  0  0
  138.5321  158.4058  130.8378 H   0  0  0  0  0  0  0  0  0  0  0  0
  139.1009  157.3844  134.0535 H   0  0  0  0  0  0  0  0  0  0  0  0
  138.1909  157.1922  132.5168 H   0  0  0  0  0  0  0  0  0  0  0  0
  139.9844  157.0934  132.5168 H   0  0  0  0  0  0  0  0  0  0  0  0
  144.2826  157.0045  133.9283 H   0  0  0  0  0  0  0  0  0  0  0  0
  1  2  1  0
  2  3  1  0
  3  4  1  0
  4  5  1  0
  5  6  2  0
  5  7  1  0
  7  8  1  0
  8  9  1  0
  9 10  1  0
  9 11  2  0
  8 12  2  0
 12 13  1  0
 13 14  2  0
 14 15  1  0
 15 16  2  0
 16 17  1  0
 17 18  1  0
 17 19  1  0
 19 20  1  0
 20 21  1  0
 21 22  1  0
 21 23  1  0
 16 24  1  0
 24 25  2  0
 25  7  1  0
 25 13  1  0
  1 26  1  0
  1 27  1  0
  1 28  1  0
  3 29  1  0
  3 30  1  0
 10 31  1  0
 12 32  1  0
 14 33  1  0
 15 34  1  0
 18 35  1  0
 18 36  1  0
 18 37  1  0
 19 38  1  0
 19 39  1  0
 20 40  1  0
 20 41  1  0
 22 42  1  0
 22 43  1  0
 22 44  1  0
 23 45  1  0
 23 46  1  0
 23 47  1  0
 24 48  1  0
M  CHG  1  10  -1
M  END
>  <UniqueID>  (86) 
86

>  <SMILES>  (86) 
COCOC(=O)n1c(C([NH-])=O)cc2ccc(N(C)CCN(C)C)cc21

>  <Energy>  (86) 
88.56063437666798

>  <Genealogy>  (86) 
COCOC(=O)n1c(C([NH-])=O)cc2ccc(N(C)CCN(C)C)cc21 (protonated)
COCOC(=O)n1c(C([NH-])=O)cc2ccc(N(C)CCN(C)C)cc21 (3D coordinates assigned)
COCOC(=O)n1c(C([NH-])=O)cc2ccc(N(C)CCN(C)C)cc21 (optimized conformer: 88.56063437666798 kcal/mol)

>  <smiles>  (86) 
COCOC(=O)n1c(C(N)=O)cc2ccc(N(C)CCN(C)C)cc21

>  <score_type>  (86) 
oracle

>  <origin>  (86) 
adg

>  <m_score__min__energy>  (86) 
-6.1100000000000003

>  <m_primary>  (86) 
energy

$$$$
87:0
     RDKit          3D

 42 44  0  0  0  0  0  0  0  0999 V2000
  143.9740  159.9640  133.0830 N   0  0  0  0  0  0  0  0  0  0  0  0
  144.8650  158.9070  133.4400 C   0  0  0  0  0  0  0  0  0  0  0  0
  146.0370  159.1920  133.8050 O   0  0  0  0  0  0  0  0  0  0  0  0
  144.4600  157.4880  133.3560 C   0  0  0  0  0  0  0  0  0  0  0  0
  145.3610  156.4240  133.3910 C   0  0  0  0  0  0  0  0  0  0  0  0
  144.5840  155.2880  133.3570 C   0  0  0  0  0  0  0  0  0  0  0  0
  144.9500  153.9450  133.4110 C   0  0  0  0  0  0  0  0  0  0  0  0
  143.9270  152.9830  133.4180 C   0  0  0  0  0  0  0  0  0  0  0  0
  142.5630  153.3740  133.3700 C   0  0  0  0  0  0  0  0  0  0  0  0
  141.4710  152.3370  133.4410 C   0  0  0  0  0  0  0  0  0  0  0  0
  141.7900  151.2380  132.6620 F   0  0  0  0  0  0  0  0  0  0  0  0
  141.2910  151.9050  134.7440 F   0  0  0  0  0  0  0  0  0  0  0  0
  140.2890  152.8870  132.9820 F   0  0  0  0  0  0  0  0  0  0  0  0
  142.2330  154.7480  133.3520 C   0  0  0  0  0  0  0  0  0  0  0  0
  143.2730  155.6800  133.3150 C   0  0  0  0  0  0  0  0  0  0  0  0
  143.1820  157.0250  133.2990 N   0  0  0  0  0  0  0  0  0  0  0  0
  141.9700  157.7870  133.3750 C   0  0  0  0  0  0  0  0  0  0  0  0
  141.5330  158.3400  132.3300 O   0  0  0  0  0  0  0  0  0  0  0  0
  141.2470  157.9110  134.6190 N   0  0  0  0  0  0  0  0  0  0  0  0
  141.1810  159.2020  135.3140 C   0  0  0  0  0  0  0  0  0  0  0  0
  140.5530  159.0500  136.7050 C   0  0  0  0  0  0  0  0  0  0  0  0
  141.4040  158.2370  137.6990 C   0  0  0  0  0  0  0  0  0  0  0  0
  141.0670  156.8010  137.6770 N   0  0  0  0  0  0  0  0  0  0  0  0
  141.3960  156.1740  136.3840 C   0  0  0  0  0  0  0  0  0  0  0  0
  140.5660  156.7640  135.2370 C   0  0  0  0  0  0  0  0  0  0  0  0
  144.2600  160.9580  133.2300 H   0  0  0  0  0  0  0  0  0  0  0  0
  143.0910  159.7780  132.5630 H   0  0  0  0  0  0  0  0  0  0  0  0
  146.4586  156.4804  133.4362 H   0  0  0  0  0  0  0  0  0  0  0  0
  146.0083  153.6471  133.4471 H   0  0  0  0  0  0  0  0  0  0  0  0
  144.1854  151.9146  133.4612 H   0  0  0  0  0  0  0  0  0  0  0  0
  141.1830  155.0756  133.3668 H   0  0  0  0  0  0  0  0  0  0  0  0
  142.1991  159.6043  135.4217 H   0  0  0  0  0  0  0  0  0  0  0  0
  140.5553  159.8857  134.7215 H   0  0  0  0  0  0  0  0  0  0  0  0
  140.3986  160.0549  137.1250 H   0  0  0  0  0  0  0  0  0  0  0  0
  139.6131  158.4953  136.5675 H   0  0  0  0  0  0  0  0  0  0  0  0
  142.4655  158.3558  137.4363 H   0  0  0  0  0  0  0  0  0  0  0  0
  141.1968  158.6169  138.7103 H   0  0  0  0  0  0  0  0  0  0  0  0
  141.6560  156.3290  138.4030 H   0  0  0  0  0  0  0  0  0  0  0  0
  142.4630  156.3358  136.1712 H   0  0  0  0  0  0  0  0  0  0  0  0
  141.1653  155.1009  136.4560 H   0  0  0  0  0  0  0  0  0  0  0  0
  140.4072  155.9880  134.4738 H   0  0  0  0  0  0  0  0  0  0  0  0
  139.6055  157.1102  135.6463 H   0  0  0  0  0  0  0  0  0  0  0  0
  1  2  1  0
  2  3  2  0
  2  4  1  0
  4  5  2  0
  5  6  1  0
  6  7  2  0
  7  8  1  0
  8  9  2  0
  9 10  1  0
 10 11  1  0
 10 12  1  0
 10 13  1  0
  9 14  1  0
 14 15  2  0
 15 16  1  0
 16 17  1  0
 17 18  2  0
 17 19  1  0
 19 20  1  0
 20 21  1  0
 21 22  1  0
 22 23  1  0
 23 24  1  0
 24 25  1  0
 16  4  1  0
 25 19  1  0
 15  6  1  0
  1 26  1  0
  1 27  1  0
  5 28  1  0
  7 29  1  0
  8 30  1  0
 14 31  1  0
 20 32  1  0
 20 33  1  0
 21 34  1  0
 21 35  1  0
 22 36  1  0
 22 37  1  0
 23 38  1  0
 24 39  1  0
 24 40  1  0
 25 41  1  0
 25 42  1  0
M  END
>  <UniqueID>  (87) 
87

>  <SMILES>  (87) 
NC(=O)c1cc2ccc(C(F)(F)F)cc2n1C(=O)N1CCCNCC1

>  <Energy>  (87) 
86.7794068234242

>  <Genealogy>  (87) 
NC(=O)c1cc2ccc(C(F)(F)F)cc2n1C(=O)N1CCCNCC1 (3D coordinates assigned)
NC(=O)c1cc2ccc(C(F)(F)F)cc2n1C(=O)N1CCCNCC1 (nonaromatic ring conformer: 86.7794068234242 kcal/mol)

>  <smiles>  (87) 
NC(=O)c1cc2ccc(C(F)(F)F)cc2n1C(=O)N1CCCNCC1

>  <score_type>  (87) 
oracle

>  <origin>  (87) 
adg

>  <m_score__min__energy>  (87) 
-5.4699999999999998

>  <m_primary>  (87) 
energy

$$$$
88:0
     RDKit          3D

 41 42  0  0  0  0  0  0  0  0999 V2000
  147.7830  154.9010  133.1550 C   0  0  0  0  0  0  0  0  0  0  0  0
  147.3900  156.3470  133.1990 C   0  0  0  0  0  0  0  0  0  0  0  0
  148.3850  157.3560  133.1410 C   0  0  0  0  0  0  0  0  0  0  0  0
  148.0330  158.7140  133.2190 C   0  0  0  0  0  0  0  0  0  0  0  0
  146.6850  159.0310  133.3680 C   0  0  0  0  0  0  0  0  0  0  0  0
  146.0640  160.2560  133.4650 C   0  0  0  0  0  0  0  0  0  0  0  0
  144.7030  159.9750  133.5970 C   0  0  0  0  0  0  0  0  0  0  0  0
  143.6390  160.9980  133.7350 C   0  0  0  0  0  0  0  0  0  0  0  0
  142.2570  160.6420  133.6400 N   0  0  0  0  0  0  0  0  0  0  0  0
  143.9420  162.2040  133.9340 O   0  0  0  0  0  0  0  0  0  0  0  0
  144.5010  158.6270  133.5920 N   0  0  0  0  0  0  0  0  0  0  0  0
  143.2550  157.9220  133.6930 C   0  0  0  0  0  0  0  0  0  0  0  0
  142.5390  157.7980  132.6630 O   0  0  0  0  0  0  0  0  0  0  0  0
  142.8260  157.3390  134.9440 N   0  0  0  0  0  0  0  0  0  0  0  0
  143.0230  155.9040  135.1640 C   0  0  0  0  0  0  0  0  0  0  0  0
  142.0730  158.1190  135.9380 C   0  0  0  0  0  0  0  0  0  0  0  0
  140.6200  158.1680  135.5770 C   0  0  0  0  0  0  0  0  0  0  0  0
  139.7840  157.5170  136.2590 O   0  0  0  0  0  0  0  0  0  0  0  0
  140.1840  158.9920  134.4920 N   0  0  0  0  0  0  0  0  0  0  0  0
  139.1720  158.5910  133.5260 C   0  0  0  0  0  0  0  0  0  0  0  0
  139.2630  159.4470  132.3040 C   0  0  0  0  0  0  0  0  0  0  0  0
  138.4810  159.2580  131.3350 O   0  0  0  0  0  0  0  0  0  0  0  0
  140.1900  160.4790  132.2500 O   0  0  0  0  0  0  0  0  0  0  0  0
  145.7180  158.0660  133.4430 C   0  0  0  0  0  0  0  0  0  0  0  0
  146.0360  156.7060  133.3640 C   0  0  0  0  0  0  0  0  0  0  0  0
  147.8871  154.5179  134.1809 H   0  0  0  0  0  0  0  0  0  0  0  0
  147.0084  154.3264  132.6259 H   0  0  0  0  0  0  0  0  0  0  0  0
  148.7418  154.7976  132.6259 H   0  0  0  0  0  0  0  0  0  0  0  0
  149.4425  157.0727  133.0339 H   0  0  0  0  0  0  0  0  0  0  0  0
  148.7983  159.5023  133.1641 H   0  0  0  0  0  0  0  0  0  0  0  0
  146.5401  161.2474  133.4431 H   0  0  0  0  0  0  0  0  0  0  0  0
  141.5210  161.3750  133.7580 H   0  0  0  0  0  0  0  0  0  0  0  0
  141.9530  159.6750  133.4010 H   0  0  0  0  0  0  0  0  0  0  0  0
  143.0511  155.6992  136.2444 H   0  0  0  0  0  0  0  0  0  0  0  0
  142.1931  155.3456  134.7064 H   0  0  0  0  0  0  0  0  0  0  0  0
  143.9727  155.5899  134.7064 H   0  0  0  0  0  0  0  0  0  0  0  0
  142.1845  157.6493  136.9264 H   0  0  0  0  0  0  0  0  0  0  0  0
  142.4688  159.1451  135.9583 H   0  0  0  0  0  0  0  0  0  0  0  0
  139.3319  157.5392  133.2465 H   0  0  0  0  0  0  0  0  0  0  0  0
  138.1757  158.7104  133.9767 H   0  0  0  0  0  0  0  0  0  0  0  0
  145.2515  155.9376  133.4288 H   0  0  0  0  0  0  0  0  0  0  0  0
  1  2  1  0
  2  3  2  0
  3  4  1  0
  4  5  2  0
  5  6  1  0
  6  7  2  0
  7  8  1  0
  8  9  1  0
  8 10  2  0
  7 11  1  0
 11 12  1  0
 12 13  2  0
 12 14  1  0
 14 15  1  0
 14 16  1  0
 16 17  1  0
 17 18  2  0
 17 19  1  0
 19 20  1  0
 20 21  1  0
 21 22  2  0
 21 23  1  0
 11 24  1  0
 24 25  2  0
 25  2  1  0
 24  5  1  0
  1 26  1  0
  1 27  1  0
  1 28  1  0
  3 29  1  0
  4 30  1  0
  6 31  1  0
  9 32  1  0
  9 33  1  0
 15 34  1  0
 15 35  1  0
 15 36  1  0
 16 37  1  0
 16 38  1  0
 20 39  1  0
 20 40  1  0
 25 41  1  0
M  CHG  2  19  -1  23  -1
M  END
>  <UniqueID>  (88) 
88

>  <SMILES>  (88) 
Cc1ccc2cc(C(N)=O)n(C(=O)N(C)CC(=O)[N-]CC(=O)[O-])c2c1

>  <Energy>  (88) 
73.0195956203254

>  <Genealogy>  (88) 
Cc1ccc2cc(C(N)=O)n(C(=O)N(C)CC(=O)[N-]CC(=O)[O-])c2c1 (protonated)
Cc1ccc2cc(C(N)=O)n(C(=O)N(C)CC(=O)[N-]CC(=O)[O-])c2c1 (3D coordinates assigned)
Cc1ccc2cc(C(N)=O)n(C(=O)N(C)CC(=O)[N-]CC(=O)[O-])c2c1 (optimized conformer: 73.0195956203254 kcal/mol)

>  <smiles>  (88) 
Cc1ccc2cc(C(N)=O)n(C(=O)N(C)CC(=O)NCC(=O)O)c2c1

>  <score_type>  (88) 
oracle

>  <origin>  (88) 
adg

>  <m_score__min__energy>  (88) 
-7.2300000000000004

>  <m_primary>  (88) 
energy

$$$$
89:0
     RDKit          3D

 45 46  0  0  0  0  0  0  0  0999 V2000
  138.3550  160.4730  130.3410 C   0  0  0  0  0  0  0  0  0  0  0  0
  137.9620  159.2160  131.1080 C   0  0  0  0  0  0  0  0  0  0  0  0
  138.6050  159.1660  132.3810 O   0  0  0  0  0  0  0  0  0  0  0  0
  139.9800  158.9630  132.5460 C   0  0  0  0  0  0  0  0  0  0  0  0
  140.7730  159.9420  132.6080 O   0  0  0  0  0  0  0  0  0  0  0  0
  140.5020  157.5740  132.7380 C   0  0  0  0  0  0  0  0  0  0  0  0
  142.0450  157.4850  132.7920 C   0  0  0  0  0  0  0  0  0  0  0  0
  142.7240  158.3130  133.8250 N   0  0  1  0  0  0  0  0  0  0  0  0
  141.9100  158.5620  135.0300 C   0  0  0  0  0  0  0  0  0  0  0  0
  144.0370  157.7940  134.1510 C   0  0  0  0  0  0  0  0  0  0  0  0
  144.1620  156.6780  134.7250 O   0  0  0  0  0  0  0  0  0  0  0  0
  145.2190  158.4990  133.7290 N   0  0  0  0  0  0  0  0  0  0  0  0
  145.3720  159.8370  133.5140 C   0  0  0  0  0  0  0  0  0  0  0  0
  144.4020  160.8870  133.8830 C   0  0  0  0  0  0  0  0  0  0  0  0
  143.0730  160.8630  133.3740 N   0  0  0  0  0  0  0  0  0  0  0  0
  144.7380  161.7890  134.6960 O   0  0  0  0  0  0  0  0  0  0  0  0
  146.6330  160.1080  132.9900 C   0  0  0  0  0  0  0  0  0  0  0  0
  147.2620  158.8880  132.9050 C   0  0  0  0  0  0  0  0  0  0  0  0
  148.5440  158.5670  132.4690 C   0  0  0  0  0  0  0  0  0  0  0  0
  148.9300  157.2170  132.4930 C   0  0  0  0  0  0  0  0  0  0  0  0
  148.0290  156.2120  132.9330 C   0  0  0  0  0  0  0  0  0  0  0  0
  148.4700  154.7730  133.0060 C   0  0  0  0  0  0  0  0  0  0  0  0
  149.7460  154.6260  132.4920 F   0  0  0  0  0  0  0  0  0  0  0  0
  148.4650  154.3620  134.3260 F   0  0  0  0  0  0  0  0  0  0  0  0
  147.6150  153.9620  132.2800 F   0  0  0  0  0  0  0  0  0  0  0  0
  146.7440  156.5840  133.3910 C   0  0  0  0  0  0  0  0  0  0  0  0
  146.3900  157.9350  133.3600 C   0  0  0  0  0  0  0  0  0  0  0  0
  138.6053  161.2736  131.0527 H   0  0  0  0  0  0  0  0  0  0  0  0
  139.2289  160.2583  129.7084 H   0  0  0  0  0  0  0  0  0  0  0  0
  137.5144  160.7944  129.7084 H   0  0  0  0  0  0  0  0  0  0  0  0
  136.8720  159.2122  131.2562 H   0  0  0  0  0  0  0  0  0  0  0  0
  138.2771  158.3388  130.5239 H   0  0  0  0  0  0  0  0  0  0  0  0
  140.0993  157.1805  133.6830 H   0  0  0  0  0  0  0  0  0  0  0  0
  140.1793  156.9886  131.8644 H   0  0  0  0  0  0  0  0  0  0  0  0
  142.3124  156.4343  132.9777 H   0  0  0  0  0  0  0  0  0  0  0  0
  142.3925  157.8825  131.8270 H   0  0  0  0  0  0  0  0  0  0  0  0
  142.8720  159.2510  133.3860 H   0  0  0  0  0  0  0  0  0  0  0  0
  142.5177  158.3761  135.9278 H   0  0  0  0  0  0  0  0  0  0  0  0
  141.5654  159.6066  135.0303 H   0  0  0  0  0  0  0  0  0  0  0  0
  141.0400  157.8889  135.0303 H   0  0  0  0  0  0  0  0  0  0  0  0
  142.8140  160.2410  132.5760 H   0  0  0  0  0  0  0  0  0  0  0  0
  147.0398  161.0894  132.7046 H   0  0  0  0  0  0  0  0  0  0  0  0
  149.2343  159.3474  132.1161 H   0  0  0  0  0  0  0  0  0  0  0  0
  149.9421  156.9350  132.1671 H   0  0  0  0  0  0  0  0  0  0  0  0
  146.0388  155.8264  133.7634 H   0  0  0  0  0  0  0  0  0  0  0  0
  1  2  1  0
  2  3  1  0
  3  4  1  0
  4  5  2  0
  4  6  1  0
  6  7  1  0
  7  8  1  0
  8  9  1  0
  8 10  1  0
 10 11  2  0
 10 12  1  0
 12 13  1  0
 13 14  1  0
 14 15  1  0
 14 16  2  0
 13 17  2  0
 17 18  1  0
 18 19  2  0
 19 20  1  0
 20 21  2  0
 21 22  1  0
 22 23  1  0
 22 24  1  0
 22 25  1  0
 21 26  1  0
 26 27  2  0
 27 12  1  0
 27 18  1  0
  1 28  1  0
  1 29  1  0
  1 30  1  0
  2 31  1  0
  2 32  1  0
  6 33  1  0
  6 34  1  0
  7 35  1  0
  7 36  1  0
  8 37  1  6
  9 38  1  0
  9 39  1  0
  9 40  1  0
 15 41  1  0
 17 42  1  0
 19 43  1  0
 20 44  1  0
 26 45  1  0
M  CHG  2   8   1  15  -1
M  END
>  <UniqueID>  (89) 
89

>  <SMILES>  (89) 
CCOC(=O)CC[N@@H+](C)C(=O)n1c(C([NH-])=O)cc2ccc(C(F)(F)F)cc21

>  <Energy>  (89) 
86.10201150254193

>  <Genealogy>  (89) 
CCOC(=O)CC[NH+](C)C(=O)n1c(C([NH-])=O)cc2ccc(C(F)(F)F)cc21 (protonated)
CCOC(=O)CC[N@@H+](C)C(=O)n1c(C([NH-])=O)cc2ccc(C(F)(F)F)cc21 (chirality)
CCOC(=O)CC[N@@H+](C)C(=O)n1c(C([NH-])=O)cc2ccc(C(F)(F)F)cc21 (3D coordinates assigned)
CCOC(=O)CC[N@@H+](C)C(=O)n1c(C([NH-])=O)cc2ccc(C(F)(F)F)cc21 (optimized conformer: 86.10201150254193 kcal/mol)

>  <smiles>  (89) 
CCOC(=O)CCN(C)C(=O)n1c(C(N)=O)cc2ccc(C(F)(F)F)cc21

>  <score_type>  (89) 
oracle

>  <origin>  (89) 
adg

>  <m_score__min__energy>  (89) 
-6.1500000000000004

>  <m_primary>  (89) 
energy

$$$$
90:0
     RDKit          3D

 41 43  0  0  0  0  0  0  0  0999 V2000
  142.9700  153.7640  138.0780 C   0  0  0  0  0  0  0  0  0  0  0  0
  142.2800  154.8350  137.3710 N   0  0  0  0  0  0  0  0  0  0  0  0
  141.7830  155.9670  137.9080 C   0  0  0  0  0  0  0  0  0  0  0  0
  141.3280  156.7680  136.8820 C   0  0  0  0  0  0  0  0  0  0  0  0
  141.5510  156.1290  135.7160 N   0  0  0  0  0  0  0  0  0  0  0  0
  141.3290  156.6560  134.3730 C   0  0  0  0  0  0  0  0  0  0  0  0
  142.3890  157.6690  134.0410 C   0  0  0  0  0  0  0  0  0  0  0  0
  142.0410  159.0290  133.8510 C   0  0  0  0  0  0  0  0  0  0  0  0
  143.0330  159.9920  133.6010 C   0  0  0  0  0  0  0  0  0  0  0  0
  144.3580  159.5680  133.5530 C   0  0  0  0  0  0  0  0  0  0  0  0
  145.5130  160.2930  133.3720 C   0  0  0  0  0  0  0  0  0  0  0  0
  146.5480  159.3640  133.4480 C   0  0  0  0  0  0  0  0  0  0  0  0
  147.9680  159.7070  133.2310 C   0  0  0  0  0  0  0  0  0  0  0  0
  148.9930  159.1400  134.0430 N   0  0  0  0  0  0  0  0  0  0  0  0
  148.2870  160.4760  132.2840 O   0  0  0  0  0  0  0  0  0  0  0  0
  146.0530  158.1130  133.6740 N   0  0  0  0  0  0  0  0  0  0  0  0
  146.7920  156.9090  133.9230 C   0  0  0  0  0  0  0  0  0  0  0  0
  147.8200  156.6490  133.2390 O   0  0  0  0  0  0  0  0  0  0  0  0
  146.3520  156.0150  134.9060 O   0  0  0  0  0  0  0  0  0  0  0  0
  147.2010  155.0520  135.5260 C   0  0  0  0  0  0  0  0  0  0  0  0
  146.3870  153.9400  136.1070 C   0  0  0  0  0  0  0  0  0  0  0  0
  146.9440  153.0240  136.7670 O   0  0  0  0  0  0  0  0  0  0  0  0
  145.0160  153.9000  135.8960 O   0  0  0  0  0  0  0  0  0  0  0  0
  144.7100  158.2560  133.7320 C   0  0  0  0  0  0  0  0  0  0  0  0
  143.7460  157.2770  133.9980 C   0  0  0  0  0  0  0  0  0  0  0  0
  142.1500  154.9640  136.0360 C   0  0  0  0  0  0  0  0  0  0  0  0
  142.8711  153.9175  139.1627 H   0  0  0  0  0  0  0  0  0  0  0  0
  142.5249  152.7965  137.8025 H   0  0  0  0  0  0  0  0  0  0  0  0
  144.0349  153.7694  137.8025 H   0  0  0  0  0  0  0  0  0  0  0  0
  141.7466  156.2100  138.9802 H   0  0  0  0  0  0  0  0  0  0  0  0
  140.8629  157.7584  136.9954 H   0  0  0  0  0  0  0  0  0  0  0  0
  141.3712  155.8317  133.6458 H   0  0  0  0  0  0  0  0  0  0  0  0
  140.3409  157.1376  134.3309 H   0  0  0  0  0  0  0  0  0  0  0  0
  140.9851  159.3337  133.8996 H   0  0  0  0  0  0  0  0  0  0  0  0
  142.7705  161.0492  133.4478 H   0  0  0  0  0  0  0  0  0  0  0  0
  145.6006  161.3764  133.2031 H   0  0  0  0  0  0  0  0  0  0  0  0
  149.2330  158.1260  133.9770 H   0  0  0  0  0  0  0  0  0  0  0  0
  147.8928  154.6416  134.7757 H   0  0  0  0  0  0  0  0  0  0  0  0
  147.7668  155.5406  136.3329 H   0  0  0  0  0  0  0  0  0  0  0  0
  144.0369  156.2300  134.1691 H   0  0  0  0  0  0  0  0  0  0  0  0
  142.4883  154.2167  135.3031 H   0  0  0  0  0  0  0  0  0  0  0  0
  1  2  1  0
  2  3  1  0
  3  4  2  0
  4  5  1  0
  5  6  1  0
  6  7  1  0
  7  8  2  0
  8  9  1  0
  9 10  2  0
 10 11  1  0
 11 12  2  0
 12 13  1  0
 13 14  1  0
 13 15  2  0
 12 16  1  0
 16 17  1  0
 17 18  2  0
 17 19  1  0
 19 20  1  0
 20 21  1  0
 21 22  2  0
 21 23  1  0
 16 24  1  0
 24 25  2  0
  5 26  2  0
 26  2  1  0
 25  7  1  0
 24 10  1  0
  1 27  1  0
  1 28  1  0
  1 29  1  0
  3 30  1  0
  4 31  1  0
  6 32  1  0
  6 33  1  0
  8 34  1  0
  9 35  1  0
 11 36  1  0
 14 37  1  0
 20 38  1  0
 20 39  1  0
 25 40  1  0
 26 41  1  0
M  CHG  3   5   1  14  -1  23  -1
M  END
>  <UniqueID>  (90) 
90

>  <SMILES>  (90) 
Cn1cc[n+](Cc2ccc3cc(C([NH-])=O)n(C(=O)OCC(=O)[O-])c3c2)c1

>  <Energy>  (90) 
107.72913504023444

>  <Genealogy>  (90) 
Cn1cc[n+](Cc2ccc3cc(C([NH-])=O)n(C(=O)OCC(=O)[O-])c3c2)c1 (protonated)
Cn1cc[n+](Cc2ccc3cc(C([NH-])=O)n(C(=O)OCC(=O)[O-])c3c2)c1 (3D coordinates assigned)
Cn1cc[n+](Cc2ccc3cc(C([NH-])=O)n(C(=O)OCC(=O)[O-])c3c2)c1 (optimized conformer: 107.72913504023444 kcal/mol)

>  <smiles>  (90) 
Cn1cc[n+](Cc2ccc3cc(C(N)=O)n(C(=O)OCC(=O)O)c3c2)c1

>  <score_type>  (90) 
oracle

>  <origin>  (90) 
adg

>  <m_score__min__energy>  (90) 
-6.6200000000000001

>  <m_primary>  (90) 
energy

$$$$
91:0
     RDKit          3D

 41 43  0  0  0  0  0  0  0  0999 V2000
  147.8620  156.7730  132.6390 C   0  0  0  0  0  0  0  0  0  0  0  0
  148.2090  158.2660  132.7970 C   0  0  0  0  0  0  0  0  0  0  0  0
  148.5170  158.5500  134.2740 C   0  0  0  0  0  0  0  0  0  0  0  0
  149.4440  158.6300  131.9490 C   0  0  0  0  0  0  0  0  0  0  0  0
  147.0890  159.0850  132.4320 O   0  0  0  0  0  0  0  0  0  0  0  0
  146.5830  160.1750  133.1540 C   0  0  0  0  0  0  0  0  0  0  0  0
  147.3190  161.1540  133.4510 O   0  0  0  0  0  0  0  0  0  0  0  0
  145.1980  160.1850  133.5320 N   0  0  0  0  0  0  0  0  0  0  0  0
  144.4300  161.2550  133.8830 C   0  0  0  0  0  0  0  0  0  0  0  0
  144.9090  162.6360  134.0980 C   0  0  0  0  0  0  0  0  0  0  0  0
  145.9620  162.9130  135.0190 N   0  0  0  0  0  0  0  0  0  0  0  0
  144.3500  163.5920  133.4970 O   0  0  0  0  0  0  0  0  0  0  0  0
  143.1120  160.8580  134.1000 C   0  0  0  0  0  0  0  0  0  0  0  0
  143.0990  159.4990  133.8800 C   0  0  0  0  0  0  0  0  0  0  0  0
  142.0480  158.5930  133.9440 C   0  0  0  0  0  0  0  0  0  0  0  0
  142.3160  157.2490  133.6370 C   0  0  0  0  0  0  0  0  0  0  0  0
  143.6230  156.8320  133.2680 C   0  0  0  0  0  0  0  0  0  0  0  0
  143.8870  155.4090  132.9370 C   0  0  0  0  0  0  0  0  0  0  0  0
  144.6590  154.9860  131.9070 N   0  0  0  0  0  0  0  0  0  0  0  0
  144.7380  153.6310  131.8280 C   0  0  0  0  0  0  0  0  0  0  0  0
  144.0250  152.9440  132.8020 C   0  0  0  0  0  0  0  0  0  0  0  0
  143.2800  154.0850  133.7880 S   0  0  0  0  0  0  0  0  0  0  0  0
  144.6620  157.7900  133.2080 C   0  0  0  0  0  0  0  0  0  0  0  0
  144.3690  159.1180  133.5390 C   0  0  0  0  0  0  0  0  0  0  0  0
  147.7554  156.3142  133.6330 H   0  0  0  0  0  0  0  0  0  0  0  0
  146.9166  156.6728  132.0856 H   0  0  0  0  0  0  0  0  0  0  0  0
  148.6663  156.2662  132.0856 H   0  0  0  0  0  0  0  0  0  0  0  0
  147.8571  157.9415  134.9098 H   0  0  0  0  0  0  0  0  0  0  0  0
  149.5661  158.2957  134.4853 H   0  0  0  0  0  0  0  0  0  0  0  0
  148.3485  159.6163  134.4853 H   0  0  0  0  0  0  0  0  0  0  0  0
  150.2849  158.8778  132.6134 H   0  0  0  0  0  0  0  0  0  0  0  0
  149.7181  157.7744  131.3143 H   0  0  0  0  0  0  0  0  0  0  0  0
  149.2102  159.4974  131.3143 H   0  0  0  0  0  0  0  0  0  0  0  0
  146.9620  162.8540  134.7260 H   0  0  0  0  0  0  0  0  0  0  0  0
  142.2623  161.4952  134.3863 H   0  0  0  0  0  0  0  0  0  0  0  0
  141.0360  158.9185  134.2267 H   0  0  0  0  0  0  0  0  0  0  0  0
  141.5031  156.5093  133.6828 H   0  0  0  0  0  0  0  0  0  0  0  0
  145.1690  155.6120  131.2480 H   0  0  0  0  0  0  0  0  0  0  0  0
  145.3229  153.1173  131.0508 H   0  0  0  0  0  0  0  0  0  0  0  0
  143.9594  151.8512  132.9092 H   0  0  0  0  0  0  0  0  0  0  0  0
  145.6789  157.4974  132.9075 H   0  0  0  0  0  0  0  0  0  0  0  0
  1  2  1  0
  2  3  1  0
  2  4  1  0
  2  5  1  0
  5  6  1  0
  6  7  2  0
  6  8  1  0
  8  9  1  0
  9 10  1  0
 10 11  1  0
 10 12  2  0
  9 13  2  0
 13 14  1  0
 14 15  2  0
 15 16  1  0
 16 17  2  0
 17 18  1  0
 18 19  2  0
 19 20  1  0
 20 21  2  0
 21 22  1  0
 17 23  1  0
 23 24  2  0
 24  8  1  0
 24 14  1  0
 22 18  1  0
  1 25  1  0
  1 26  1  0
  1 27  1  0
  3 28  1  0
  3 29  1  0
  3 30  1  0
  4 31  1  0
  4 32  1  0
  4 33  1  0
 11 34  1  0
 13 35  1  0
 15 36  1  0
 16 37  1  0
 19 38  1  0
 20 39  1  0
 21 40  1  0
 23 41  1  0
M  CHG  2  11  -1  19   1
M  END
>  <UniqueID>  (91) 
91

>  <SMILES>  (91) 
CC(C)(C)OC(=O)n1c(C([NH-])=O)cc2ccc(-c3[nH+]ccs3)cc21

>  <Energy>  (91) 
108.64062892916161

>  <Genealogy>  (91) 
CC(C)(C)OC(=O)n1c(C([NH-])=O)cc2ccc(-c3[nH+]ccs3)cc21 (protonated)
CC(C)(C)OC(=O)n1c(C([NH-])=O)cc2ccc(-c3[nH+]ccs3)cc21 (3D coordinates assigned)
CC(C)(C)OC(=O)n1c(C([NH-])=O)cc2ccc(-c3[nH+]ccs3)cc21 (optimized conformer: 108.64062892916161 kcal/mol)

>  <smiles>  (91) 
CC(C)(C)OC(=O)n1c(C(N)=O)cc2ccc(-c3nccs3)cc21

>  <score_type>  (91) 
oracle

>  <origin>  (91) 
adg

>  <m_score__min__energy>  (91) 
-7.5899999999999999

>  <m_primary>  (91) 
energy

$$$$
92:0
     RDKit          3D

 40 41  0  0  0  0  0  0  0  0999 V2000
  141.3340  157.9820  137.1000 C   0  0  0  0  0  0  0  0  0  0  0  0
  140.2690  158.7410  135.8290 S   0  0  0  0  0  0  0  0  0  0  0  0
  140.8500  157.6920  134.4440 C   0  0  1  0  0  0  0  0  0  0  0  0
  139.7690  157.6190  133.3670 C   0  0  0  0  0  0  0  0  0  0  0  0
  142.1220  158.2430  133.8680 C   0  0  0  0  0  0  0  0  0  0  0  0
  142.6190  157.7270  132.8280 O   0  0  0  0  0  0  0  0  0  0  0  0
  142.7450  159.3270  134.4930 O   0  0  0  0  0  0  0  0  0  0  0  0
  143.4110  160.3500  133.7620 C   0  0  0  0  0  0  0  0  0  0  0  0
  144.5600  159.7980  133.1290 O   0  0  0  0  0  0  0  0  0  0  0  0
  145.8590  160.2480  133.3730 C   0  0  0  0  0  0  0  0  0  0  0  0
  146.0510  161.3380  133.9770 O   0  0  0  0  0  0  0  0  0  0  0  0
  146.9770  159.4450  132.9600 N   0  0  0  0  0  0  0  0  0  0  0  0
  147.2250  158.1350  133.2510 C   0  0  0  0  0  0  0  0  0  0  0  0
  146.4590  157.2930  134.1940 C   0  0  0  0  0  0  0  0  0  0  0  0
  145.0470  157.1550  134.0740 N   0  0  0  0  0  0  0  0  0  0  0  0
  147.0550  156.7290  135.1510 O   0  0  0  0  0  0  0  0  0  0  0  0
  148.3790  157.7000  132.6030 C   0  0  0  0  0  0  0  0  0  0  0  0
  148.8450  158.7950  131.9130 C   0  0  0  0  0  0  0  0  0  0  0  0
  149.9680  158.9290  131.1000 C   0  0  0  0  0  0  0  0  0  0  0  0
  150.2000  160.1760  130.4990 C   0  0  0  0  0  0  0  0  0  0  0  0
  149.3080  161.2550  130.7100 C   0  0  0  0  0  0  0  0  0  0  0  0
  149.5490  162.5180  130.0860 N   0  0  0  0  0  0  0  0  0  0  0  0
  148.1770  161.0820  131.5350 C   0  0  0  0  0  0  0  0  0  0  0  0
  147.9820  159.8350  132.1430 C   0  0  0  0  0  0  0  0  0  0  0  0
  140.9595  158.2489  138.0993 H   0  0  0  0  0  0  0  0  0  0  0  0
  141.3212  156.8882  136.9837 H   0  0  0  0  0  0  0  0  0  0  0  0
  142.3637  158.3510  136.9837 H   0  0  0  0  0  0  0  0  0  0  0  0
  141.0515  156.6788  134.8219 H   0  0  0  0  0  0  0  0  0  0  0  0
  138.7801  157.5522  133.8440 H   0  0  0  0  0  0  0  0  0  0  0  0
  139.8138  158.5222  132.7407 H   0  0  0  0  0  0  0  0  0  0  0  0
  139.9348  156.7300  132.7407 H   0  0  0  0  0  0  0  0  0  0  0  0
  142.7318  160.7598  132.9999 H   0  0  0  0  0  0  0  0  0  0  0  0
  143.7161  161.1554  134.4462 H   0  0  0  0  0  0  0  0  0  0  0  0
  144.4250  157.9940  134.0490 H   0  0  0  0  0  0  0  0  0  0  0  0
  148.8233  156.6943  132.6361 H   0  0  0  0  0  0  0  0  0  0  0  0
  150.6520  158.0836  130.9341 H   0  0  0  0  0  0  0  0  0  0  0  0
  151.0830  160.3162  129.8581 H   0  0  0  0  0  0  0  0  0  0  0  0
  148.9260  162.8650  129.3220 H   0  0  0  0  0  0  0  0  0  0  0  0
  150.3550  163.1130  130.3780 H   0  0  0  0  0  0  0  0  0  0  0  0
  147.4660  161.9055  131.6969 H   0  0  0  0  0  0  0  0  0  0  0  0
  1  2  1  0
  2  3  1  0
  3  4  1  0
  3  5  1  0
  5  6  2  0
  5  7  1  0
  7  8  1  0
  8  9  1  0
  9 10  1  0
 10 11  2  0
 10 12  1  0
 12 13  1  0
 13 14  1  0
 14 15  1  0
 14 16  2  0
 13 17  2  0
 17 18  1  0
 18 19  2  0
 19 20  1  0
 20 21  2  0
 21 22  1  0
 21 23  1  0
 23 24  2  0
 24 12  1  0
 24 18  1  0
  1 25  1  0
  1 26  1  0
  1 27  1  0
  3 28  1  1
  4 29  1  0
  4 30  1  0
  4 31  1  0
  8 32  1  0
  8 33  1  0
 15 34  1  0
 17 35  1  0
 19 36  1  0
 20 37  1  0
 22 38  1  0
 22 39  1  0
 23 40  1  0
M  CHG  1  15  -1
M  END
>  <UniqueID>  (92) 
92

>  <SMILES>  (92) 
CS[C@@H](C)C(=O)OCOC(=O)n1c(C([NH-])=O)cc2ccc(N)cc21

>  <Energy>  (92) 
66.54716799406872

>  <Genealogy>  (92) 
CSC(C)C(=O)OCOC(=O)n1c(C([NH-])=O)cc2ccc(N)cc21 (protonated)
CS[C@@H](C)C(=O)OCOC(=O)n1c(C([NH-])=O)cc2ccc(N)cc21 (chirality)
CS[C@@H](C)C(=O)OCOC(=O)n1c(C([NH-])=O)cc2ccc(N)cc21 (3D coordinates assigned)
CS[C@@H](C)C(=O)OCOC(=O)n1c(C([NH-])=O)cc2ccc(N)cc21 (optimized conformer: 66.54716799406872 kcal/mol)

>  <smiles>  (92) 
CSC(C)C(=O)OCOC(=O)n1c(C(N)=O)cc2ccc(N)cc21

>  <score_type>  (92) 
oracle

>  <origin>  (92) 
adg

>  <m_score__min__energy>  (92) 
-6.6799999999999997

>  <m_primary>  (92) 
energy

$$$$
93:0
     RDKit          3D

 40 41  0  0  0  0  0  0  0  0999 V2000
  144.2600  153.9610  131.8910 C   0  0  0  0  0  0  0  0  0  0  0  0
  144.0770  153.2290  133.2230 C   0  0  2  0  0  0  0  0  0  0  0  0
  145.2910  153.2540  133.9480 O   0  0  0  0  0  0  0  0  0  0  0  0
  145.0440  153.9290  135.4980 P   0  0  1  0  0  0  0  0  0  0  0  0
  143.7030  153.5040  136.0570 O   0  0  0  0  0  0  0  0  0  0  0  0
  146.2690  153.4050  136.5400 O   0  0  0  0  0  0  0  0  0  0  0  0
  145.1130  155.6290  135.3950 O   0  0  0  0  0  0  0  0  0  0  0  0
  143.8730  156.0980  134.9200 C   0  0  0  0  0  0  0  0  0  0  0  0
  144.0830  156.9300  133.6900 C   0  0  0  0  0  0  0  0  0  0  0  0
  143.1570  157.0080  132.8390 O   0  0  0  0  0  0  0  0  0  0  0  0
  145.3280  157.6080  133.4490 N   0  0  0  0  0  0  0  0  0  0  0  0
  145.5320  158.9530  133.3590 C   0  0  0  0  0  0  0  0  0  0  0  0
  144.5240  160.0040  133.6110 C   0  0  0  0  0  0  0  0  0  0  0  0
  143.1400  159.7690  133.3640 N   0  0  0  0  0  0  0  0  0  0  0  0
  144.8850  161.1130  134.0860 O   0  0  0  0  0  0  0  0  0  0  0  0
  146.8650  159.2230  133.0520 C   0  0  0  0  0  0  0  0  0  0  0  0
  147.4760  157.9940  132.9590 C   0  0  0  0  0  0  0  0  0  0  0  0
  148.7950  157.6710  132.6580 C   0  0  0  0  0  0  0  0  0  0  0  0
  149.1450  156.3110  132.6020 C   0  0  0  0  0  0  0  0  0  0  0  0
  148.1780  155.3030  132.8550 C   0  0  0  0  0  0  0  0  0  0  0  0
  148.5500  153.8470  132.7380 C   0  0  0  0  0  0  0  0  0  0  0  0
  149.6260  153.7200  131.8790 F   0  0  0  0  0  0  0  0  0  0  0  0
  148.8950  153.3280  133.9740 F   0  0  0  0  0  0  0  0  0  0  0  0
  147.4880  153.1130  132.2410 F   0  0  0  0  0  0  0  0  0  0  0  0
  146.8410  155.6740  133.1280 C   0  0  0  0  0  0  0  0  0  0  0  0
  146.5270  157.0340  133.1990 C   0  0  0  0  0  0  0  0  0  0  0  0
  143.7040  151.8000  132.9610 C   0  0  0  0  0  0  0  0  0  0  0  0
  144.4520  151.0630  132.2640 O   0  0  0  0  0  0  0  0  0  0  0  0
  142.5140  151.2870  133.4630 O   0  0  0  0  0  0  0  0  0  0  0  0
  144.5227  155.0118  132.0831 H   0  0  0  0  0  0  0  0  0  0  0  0
  145.0657  153.4808  131.3164 H   0  0  0  0  0  0  0  0  0  0  0  0
  143.3231  153.9164  131.3164 H   0  0  0  0  0  0  0  0  0  0  0  0
  143.2841  153.7257  133.8015 H   0  0  0  0  0  0  0  0  0  0  0  0
  143.2276  155.2414  134.6758 H   0  0  0  0  0  0  0  0  0  0  0  0
  143.3947  156.7122  135.6971 H   0  0  0  0  0  0  0  0  0  0  0  0
  142.8320  159.1340  132.5940 H   0  0  0  0  0  0  0  0  0  0  0  0
  147.3299  160.2103  132.9134 H   0  0  0  0  0  0  0  0  0  0  0  0
  149.5417  158.4564  132.4695 H   0  0  0  0  0  0  0  0  0  0  0  0
  150.1791  156.0247  132.3596 H   0  0  0  0  0  0  0  0  0  0  0  0
  146.0654  154.9092  133.2811 H   0  0  0  0  0  0  0  0  0  0  0  0
  1  2  1  0
  2  3  1  0
  3  4  1  0
  4  5  2  0
  4  6  1  1
  4  7  1  0
  7  8  1  0
  8  9  1  0
  9 10  2  0
  9 11  1  0
 11 12  1  0
 12 13  1  0
 13 14  1  0
 13 15  2  0
 12 16  2  0
 16 17  1  0
 17 18  2  0
 18 19  1  0
 19 20  2  0
 20 21  1  0
 21 22  1  0
 21 23  1  0
 21 24  1  0
 20 25  1  0
 25 26  2  0
  2 27  1  0
 27 28  2  0
 27 29  1  0
 26 11  1  0
 26 17  1  0
  1 30  1  0
  1 31  1  0
  1 32  1  0
  2 33  1  1
  8 34  1  0
  8 35  1  0
 14 36  1  0
 16 37  1  0
 18 38  1  0
 19 39  1  0
 25 40  1  0
M  CHG  3   6  -1  14  -1  29  -1
M  END
>  <UniqueID>  (93) 
93

>  <SMILES>  (93) 
C[C@H](O[P@@](=O)([O-])OCC(=O)n1c(C([NH-])=O)cc2ccc(C(F)(F)F)cc21)C(=O)[O-]

>  <Energy>  (93) 
76.81302586271757

>  <Genealogy>  (93) 
CC(OP(=O)([O-])OCC(=O)n1c(C([NH-])=O)cc2ccc(C(F)(F)F)cc21)C(=O)[O-] (protonated)
C[C@H](O[P@@](=O)([O-])OCC(=O)n1c(C([NH-])=O)cc2ccc(C(F)(F)F)cc21)C(=O)[O-] (chirality)
C[C@H](O[P@@](=O)([O-])OCC(=O)n1c(C([NH-])=O)cc2ccc(C(F)(F)F)cc21)C(=O)[O-] (3D coordinates assigned)
C[C@H](O[P@@](=O)([O-])OCC(=O)n1c(C([NH-])=O)cc2ccc(C(F)(F)F)cc21)C(=O)[O-] (optimized conformer: 76.81302586271757 kcal/mol)

>  <smiles>  (93) 
CC(OP(=O)(O)OCC(=O)n1c(C(N)=O)cc2ccc(C(F)(F)F)cc21)C(=O)O

>  <score_type>  (93) 
oracle

>  <origin>  (93) 
adg

>  <m_score__min__energy>  (93) 
-7.0300000000000002

>  <m_primary>  (93) 
energy

$$$$
94:0
     RDKit          3D

 47 49  0  0  0  0  0  0  0  0999 V2000
  149.0090  158.6120  131.0870 N   0  0  0  0  0  0  0  0  0  0  0  0
  148.4970  159.1990  132.2800 C   0  0  0  0  0  0  0  0  0  0  0  0
  149.2580  159.8960  133.0010 O   0  0  0  0  0  0  0  0  0  0  0  0
  147.1060  158.9510  132.7100 C   0  0  0  0  0  0  0  0  0  0  0  0
  146.1510  159.9580  132.8360 C   0  0  0  0  0  0  0  0  0  0  0  0
  145.0390  159.3420  133.3620 C   0  0  0  0  0  0  0  0  0  0  0  0
  143.8010  159.8720  133.7180 C   0  0  0  0  0  0  0  0  0  0  0  0
  142.8460  159.0020  134.2680 C   0  0  0  0  0  0  0  0  0  0  0  0
  143.1370  157.6250  134.4380 C   0  0  0  0  0  0  0  0  0  0  0  0
  142.1270  156.7180  135.0880 C   0  0  0  0  0  0  0  0  0  0  0  0
  141.3580  155.8660  134.0660 C   0  0  0  0  0  0  0  0  0  0  0  0
  139.9280  156.2600  134.0120 N   0  0  0  0  0  0  0  0  0  0  0  0
  139.6740  157.5420  134.7030 C   0  0  0  0  0  0  0  0  0  0  0  0
  139.3690  158.6120  133.6580 C   0  0  0  0  0  0  0  0  0  0  0  0
  139.6020  157.9420  132.3250 C   0  0  0  0  0  0  0  0  0  0  0  0
  139.4680  156.4670  132.6290 C   0  0  0  0  0  0  0  0  0  0  0  0
  144.3990  157.1190  134.0520 C   0  0  0  0  0  0  0  0  0  0  0  0
  145.3370  158.0150  133.5310 C   0  0  0  0  0  0  0  0  0  0  0  0
  146.6000  157.7570  133.1280 N   0  0  0  0  0  0  0  0  0  0  0  0
  147.2290  156.4670  133.1080 C   0  0  0  0  0  0  0  0  0  0  0  0
  148.3820  156.3470  132.6130 O   0  0  0  0  0  0  0  0  0  0  0  0
  146.5880  155.3030  133.8160 C   0  0  0  0  0  0  0  0  0  0  0  0
  147.2290  155.0410  135.1830 C   0  0  0  0  0  0  0  0  0  0  0  0
  146.3790  154.1100  135.9880 C   0  0  0  0  0  0  0  0  0  0  0  0
  145.1270  154.2430  135.9970 O   0  0  0  0  0  0  0  0  0  0  0  0
  146.9730  153.1170  136.7580 O   0  0  0  0  0  0  0  0  0  0  0  0
  148.9930  157.5770  130.9450 H   0  0  0  0  0  0  0  0  0  0  0  0
  146.2626  161.0198  132.5712 H   0  0  0  0  0  0  0  0  0  0  0  0
  143.5784  160.9394  133.5727 H   0  0  0  0  0  0  0  0  0  0  0  0
  141.8629  159.3925  134.5698 H   0  0  0  0  0  0  0  0  0  0  0  0
  142.6518  156.0465  135.7835 H   0  0  0  0  0  0  0  0  0  0  0  0
  141.3965  157.3520  135.6119 H   0  0  0  0  0  0  0  0  0  0  0  0
  141.8070  156.0052  133.0715 H   0  0  0  0  0  0  0  0  0  0  0  0
  141.4191  154.8115  134.3729 H   0  0  0  0  0  0  0  0  0  0  0  0
  138.8152  157.4325  135.3815 H   0  0  0  0  0  0  0  0  0  0  0  0
  140.5587  157.8328  135.2884 H   0  0  0  0  0  0  0  0  0  0  0  0
  138.3251  158.9481  133.7435 H   0  0  0  0  0  0  0  0  0  0  0  0
  140.0008  159.5033  133.7860 H   0  0  0  0  0  0  0  0  0  0  0  0
  138.8476  158.2600  131.5903 H   0  0  0  0  0  0  0  0  0  0  0  0
  140.5785  158.1973  131.8876 H   0  0  0  0  0  0  0  0  0  0  0  0
  138.4171  156.1568  132.5317 H   0  0  0  0  0  0  0  0  0  0  0  0
  140.0672  155.8692  131.9264 H   0  0  0  0  0  0  0  0  0  0  0  0
  144.6364  156.0502  134.1586 H   0  0  0  0  0  0  0  0  0  0  0  0
  145.5192  155.5195  133.9602 H   0  0  0  0  0  0  0  0  0  0  0  0
  146.7312  154.4062  133.1953 H   0  0  0  0  0  0  0  0  0  0  0  0
  148.2220  154.5907  135.0373 H   0  0  0  0  0  0  0  0  0  0  0  0
  147.3220  155.9953  135.7221 H   0  0  0  0  0  0  0  0  0  0  0  0
  1  2  1  0
  2  3  2  0
  2  4  1  0
  4  5  2  0
  5  6  1  0
  6  7  2  0
  7  8  1  0
  8  9  2  0
  9 10  1  0
 10 11  1  0
 11 12  1  0
 12 13  1  0
 13 14  1  0
 14 15  1  0
 15 16  1  0
  9 17  1  0
 17 18  2  0
 18 19  1  0
 19 20  1  0
 20 21  2  0
 20 22  1  0
 22 23  1  0
 23 24  1  0
 24 25  2  0
 24 26  1  0
 19  4  1  0
 18  6  1  0
 16 12  1  0
  1 27  1  0
  5 28  1  0
  7 29  1  0
  8 30  1  0
 10 31  1  0
 10 32  1  0
 11 33  1  0
 11 34  1  0
 13 35  1  0
 13 36  1  0
 14 37  1  0
 14 38  1  0
 15 39  1  0
 15 40  1  0
 16 41  1  0
 16 42  1  0
 17 43  1  0
 22 44  1  0
 22 45  1  0
 23 46  1  0
 23 47  1  0
M  CHG  2   1  -1  26  -1
M  END
>  <UniqueID>  (94) 
94

>  <SMILES>  (94) 
[NH-]C(=O)c1cc2ccc(CCN3CCCC3)cc2n1C(=O)CCC(=O)[O-]

>  <Energy>  (94) 
86.85182146039509

>  <Genealogy>  (94) 
[NH-]C(=O)c1cc2ccc(CCN3CCCC3)cc2n1C(=O)CCC(=O)[O-] (protonated)
[NH-]C(=O)c1cc2ccc(CCN3CCCC3)cc2n1C(=O)CCC(=O)[O-] (3D coordinates assigned)
[NH-]C(=O)c1cc2ccc(CCN3CCCC3)cc2n1C(=O)CCC(=O)[O-] (nonaromatic ring conformer: 86.85182146039509 kcal/mol)

>  <smiles>  (94) 
NC(=O)c1cc2ccc(CCN3CCCC3)cc2n1C(=O)CCC(=O)O

>  <score_type>  (94) 
oracle

>  <origin>  (94) 
adg

>  <m_score__min__energy>  (94) 
-8.5399999999999991

>  <m_primary>  (94) 
energy

$$$$
95:0
     RDKit          3D

 39 41  0  0  0  0  0  0  0  0999 V2000
  148.8440  157.9450  131.8610 N   0  0  0  0  0  0  0  0  0  0  0  0
  148.3970  158.7090  132.9780 C   0  0  0  0  0  0  0  0  0  0  0  0
  149.2420  159.1420  133.8090 O   0  0  0  0  0  0  0  0  0  0  0  0
  146.9580  158.9510  133.2070 C   0  0  0  0  0  0  0  0  0  0  0  0
  146.3960  160.2240  133.2890 C   0  0  0  0  0  0  0  0  0  0  0  0
  145.0690  160.0180  133.5900 C   0  0  0  0  0  0  0  0  0  0  0  0
  144.0370  160.9370  133.7610 C   0  0  0  0  0  0  0  0  0  0  0  0
  142.7490  160.4390  134.0230 C   0  0  0  0  0  0  0  0  0  0  0  0
  142.5190  159.0440  134.1110 C   0  0  0  0  0  0  0  0  0  0  0  0
  141.1270  158.5210  134.3340 C   0  0  0  0  0  0  0  0  0  0  0  0
  140.2460  158.8900  133.1760 C   0  0  0  0  0  0  0  0  0  0  0  0
  139.5680  157.8990  132.4480 C   0  0  0  0  0  0  0  0  0  0  0  0
  138.7280  158.2760  131.3980 C   0  0  0  0  0  0  0  0  0  0  0  0
  138.5670  159.6290  131.0880 C   0  0  0  0  0  0  0  0  0  0  0  0
  139.2490  160.5890  131.8420 C   0  0  0  0  0  0  0  0  0  0  0  0
  140.0620  160.2030  132.8620 N   0  0  0  0  0  0  0  0  0  0  0  0
  143.5890  158.1410  133.9210 C   0  0  0  0  0  0  0  0  0  0  0  0
  144.8630  158.6640  133.6780 C   0  0  0  0  0  0  0  0  0  0  0  0
  146.0140  157.9950  133.4430 N   0  0  0  0  0  0  0  0  0  0  0  0
  146.1680  156.5710  133.3480 C   0  0  0  0  0  0  0  0  0  0  0  0
  146.5370  156.0480  132.2610 O   0  0  0  0  0  0  0  0  0  0  0  0
  145.9280  155.7720  134.4710 O   0  0  0  0  0  0  0  0  0  0  0  0
  146.9260  154.9390  135.0530 C   0  0  0  0  0  0  0  0  0  0  0  0
  146.2860  153.9790  135.9990 C   0  0  0  0  0  0  0  0  0  0  0  0
  146.9970  153.2390  136.7350 O   0  0  0  0  0  0  0  0  0  0  0  0
  144.9020  153.9150  136.0890 O   0  0  0  0  0  0  0  0  0  0  0  0
  148.2810  157.1430  131.4980 H   0  0  0  0  0  0  0  0  0  0  0  0
  146.9050  161.1883  133.1439 H   0  0  0  0  0  0  0  0  0  0  0  0
  144.2239  162.0189  133.6932 H   0  0  0  0  0  0  0  0  0  0  0  0
  141.9118  161.1390  134.1610 H   0  0  0  0  0  0  0  0  0  0  0  0
  141.1609  157.4258  134.4309 H   0  0  0  0  0  0  0  0  0  0  0  0
  140.7183  158.9654  135.2535 H   0  0  0  0  0  0  0  0  0  0  0  0
  139.6972  156.8366  132.7022 H   0  0  0  0  0  0  0  0  0  0  0  0
  138.1944  157.5098  130.8164 H   0  0  0  0  0  0  0  0  0  0  0  0
  137.9110  159.9355  130.2599 H   0  0  0  0  0  0  0  0  0  0  0  0
  139.1279  161.6574  131.6101 H   0  0  0  0  0  0  0  0  0  0  0  0
  143.4241  157.0543  133.9632 H   0  0  0  0  0  0  0  0  0  0  0  0
  147.4451  154.3807  134.2600 H   0  0  0  0  0  0  0  0  0  0  0  0
  147.6500  155.5622  135.5984 H   0  0  0  0  0  0  0  0  0  0  0  0
  1  2  1  0
  2  3  2  0
  2  4  1  0
  4  5  2  0
  5  6  1  0
  6  7  2  0
  7  8  1  0
  8  9  2  0
  9 10  1  0
 10 11  1  0
 11 12  2  0
 12 13  1  0
 13 14  2  0
 14 15  1  0
 15 16  2  0
  9 17  1  0
 17 18  2  0
 18 19  1  0
 19 20  1  0
 20 21  2  0
 20 22  1  0
 22 23  1  0
 23 24  1  0
 24 25  2  0
 24 26  1  0
 19  4  1  0
 18  6  1  0
 16 11  1  0
  1 27  1  0
  5 28  1  0
  7 29  1  0
  8 30  1  0
 10 31  1  0
 10 32  1  0
 12 33  1  0
 13 34  1  0
 14 35  1  0
 15 36  1  0
 17 37  1  0
 23 38  1  0
 23 39  1  0
M  CHG  2   1  -1  26  -1
M  END
>  <UniqueID>  (95) 
95

>  <SMILES>  (95) 
[NH-]C(=O)c1cc2ccc(Cc3ccccn3)cc2n1C(=O)OCC(=O)[O-]

>  <Energy>  (95) 
76.77995608871517

>  <Genealogy>  (95) 
[NH-]C(=O)c1cc2ccc(Cc3ccccn3)cc2n1C(=O)OCC(=O)[O-] (protonated)
[NH-]C(=O)c1cc2ccc(Cc3ccccn3)cc2n1C(=O)OCC(=O)[O-] (3D coordinates assigned)
[NH-]C(=O)c1cc2ccc(Cc3ccccn3)cc2n1C(=O)OCC(=O)[O-] (optimized conformer: 76.77995608871517 kcal/mol)

>  <smiles>  (95) 
NC(=O)c1cc2ccc(Cc3ccccn3)cc2n1C(=O)OCC(=O)O

>  <score_type>  (95) 
oracle

>  <origin>  (95) 
adg

>  <m_score__min__energy>  (95) 
-7.8099999999999996

>  <m_primary>  (95) 
energy

$$$$
96:0
     RDKit          3D

 39 40  0  0  0  0  0  0  0  0999 V2000
  138.5790  159.3480  131.4030 C   0  0  0  0  0  0  0  0  0  0  0  0
  140.0410  159.0040  131.6690 C   0  0  0  0  0  0  0  0  0  0  0  0
  140.2240  158.6160  133.0280 O   0  0  0  0  0  0  0  0  0  0  0  0
  141.4360  158.1320  133.5300 C   0  0  0  0  0  0  0  0  0  0  0  0
  141.8000  156.9470  133.2950 O   0  0  0  0  0  0  0  0  0  0  0  0
  142.2480  158.9880  134.2800 O   0  0  0  0  0  0  0  0  0  0  0  0
  142.9740  160.0710  133.7030 C   0  0  0  0  0  0  0  0  0  0  0  0
  144.1210  159.5850  133.0080 O   0  0  0  0  0  0  0  0  0  0  0  0
  145.4260  159.9620  133.3390 C   0  0  0  0  0  0  0  0  0  0  0  0
  145.6570  161.1030  133.8280 O   0  0  0  0  0  0  0  0  0  0  0  0
  146.5130  159.0660  133.0740 N   0  0  0  0  0  0  0  0  0  0  0  0
  146.5910  157.7410  133.3860 C   0  0  0  0  0  0  0  0  0  0  0  0
  145.6180  157.0030  134.2230 C   0  0  0  0  0  0  0  0  0  0  0  0
  144.2120  157.1540  134.0180 N   0  0  0  0  0  0  0  0  0  0  0  0
  146.0250  156.2130  135.1150 O   0  0  0  0  0  0  0  0  0  0  0  0
  147.7590  157.1870  132.8650 C   0  0  0  0  0  0  0  0  0  0  0  0
  148.3930  158.2200  132.2110 C   0  0  0  0  0  0  0  0  0  0  0  0
  149.5830  158.2280  131.4900 C   0  0  0  0  0  0  0  0  0  0  0  0
  149.9770  159.4320  130.8810 C   0  0  0  0  0  0  0  0  0  0  0  0
  149.1700  160.5920  130.9870 C   0  0  0  0  0  0  0  0  0  0  0  0
  149.6160  161.8720  130.3480 C   0  0  0  0  0  0  0  0  0  0  0  0
  147.9750  160.5510  131.7380 C   0  0  0  0  0  0  0  0  0  0  0  0
  147.6190  159.3430  132.3500 C   0  0  0  0  0  0  0  0  0  0  0  0
  138.0515  159.4721  132.3603 H   0  0  0  0  0  0  0  0  0  0  0  0
  138.5213  160.2843  130.8285 H   0  0  0  0  0  0  0  0  0  0  0  0
  138.1099  158.5357  130.8285 H   0  0  0  0  0  0  0  0  0  0  0  0
  140.3429  158.1749  131.0122 H   0  0  0  0  0  0  0  0  0  0  0  0
  140.6576  159.8923  131.4669 H   0  0  0  0  0  0  0  0  0  0  0  0
  142.3234  160.6088  132.9976 H   0  0  0  0  0  0  0  0  0  0  0  0
  143.3026  160.7484  134.5050 H   0  0  0  0  0  0  0  0  0  0  0  0
  143.8320  157.8430  133.3320 H   0  0  0  0  0  0  0  0  0  0  0  0
  143.5370  156.5980  134.5900 H   0  0  0  0  0  0  0  0  0  0  0  0
  148.1017  156.1458  132.9567 H   0  0  0  0  0  0  0  0  0  0  0  0
  150.1968  157.3197  131.3994 H   0  0  0  0  0  0  0  0  0  0  0  0
  150.9204  159.4742  130.3169 H   0  0  0  0  0  0  0  0  0  0  0  0
  149.8706  162.6028  131.1297 H   0  0  0  0  0  0  0  0  0  0  0  0
  150.5005  161.6809  129.7226 H   0  0  0  0  0  0  0  0  0  0  0  0
  148.8042  162.2719  129.7226 H   0  0  0  0  0  0  0  0  0  0  0  0
  147.3408  161.4440  131.8395 H   0  0  0  0  0  0  0  0  0  0  0  0
  1  2  1  0
  2  3  1  0
  3  4  1  0
  4  5  2  0
  4  6  1  0
  6  7  1  0
  7  8  1  0
  8  9  1  0
  9 10  2  0
  9 11  1  0
 11 12  1  0
 12 13  1  0
 13 14  1  0
 13 15  2  0
 12 16  2  0
 16 17  1  0
 17 18  2  0
 18 19  1  0
 19 20  2  0
 20 21  1  0
 20 22  1  0
 22 23  2  0
 23 11  1  0
 23 17  1  0
  1 24  1  0
  1 25  1  0
  1 26  1  0
  2 27  1  0
  2 28  1  0
  7 29  1  0
  7 30  1  0
 14 31  1  0
 14 32  1  0
 16 33  1  0
 18 34  1  0
 19 35  1  0
 21 36  1  0
 21 37  1  0
 21 38  1  0
 22 39  1  0
M  END
>  <UniqueID>  (96) 
96

>  <SMILES>  (96) 
CCOC(=O)OCOC(=O)n1c(C(N)=O)cc2ccc(C)cc21

>  <Energy>  (96) 
68.7457886803654

>  <Genealogy>  (96) 
CCOC(=O)OCOC(=O)n1c(C(N)=O)cc2ccc(C)cc21 (3D coordinates assigned)
CCOC(=O)OCOC(=O)n1c(C(N)=O)cc2ccc(C)cc21 (optimized conformer: 68.7457886803654 kcal/mol)

>  <smiles>  (96) 
CCOC(=O)OCOC(=O)n1c(C(N)=O)cc2ccc(C)cc21

>  <score_type>  (96) 
oracle

>  <origin>  (96) 
adg

>  <m_score__min__energy>  (96) 
-5.6699999999999999

>  <m_primary>  (96) 
energy

$$$$
97:0
     RDKit          3D

 50 51  0  0  0  0  0  0  0  0999 V2000
  139.9150  159.6840  132.6050 C   0  0  0  0  0  0  0  0  0  0  0  0
  140.4910  158.3650  133.1430 C   0  0  0  0  0  0  0  0  0  0  0  0
  139.4970  157.2150  132.9200 C   0  0  0  0  0  0  0  0  0  0  0  0
  140.9420  158.5000  134.6250 C   0  0  2  0  0  0  0  0  0  0  0  0
  142.2970  157.9540  134.8120 N   0  0  0  0  0  0  0  0  0  0  0  0
  143.5010  158.5510  134.2870 C   0  0  0  0  0  0  0  0  0  0  0  0
  143.5430  159.9570  134.1080 C   0  0  0  0  0  0  0  0  0  0  0  0
  144.6870  160.5870  133.5900 C   0  0  0  0  0  0  0  0  0  0  0  0
  145.7790  159.7900  133.2660 C   0  0  0  0  0  0  0  0  0  0  0  0
  146.9960  160.1350  132.7230 C   0  0  0  0  0  0  0  0  0  0  0  0
  147.6970  158.9370  132.5990 C   0  0  0  0  0  0  0  0  0  0  0  0
  149.0940  158.8580  132.1260 C   0  0  0  0  0  0  0  0  0  0  0  0
  149.7420  157.6000  131.9600 N   0  0  0  0  0  0  0  0  0  0  0  0
  149.7410  159.9180  131.9120 O   0  0  0  0  0  0  0  0  0  0  0  0
  146.9410  157.8930  133.0400 N   0  0  0  0  0  0  0  0  0  0  0  0
  147.2640  156.4950  132.9920 C   0  0  0  0  0  0  0  0  0  0  0  0
  147.1930  155.8760  131.8950 O   0  0  0  0  0  0  0  0  0  0  0  0
  147.6740  155.8410  134.1630 O   0  0  0  0  0  0  0  0  0  0  0  0
  147.3050  154.5170  134.5730 C   0  0  0  0  0  0  0  0  0  0  0  0
  148.1000  153.5340  133.7000 C   0  0  0  0  0  0  0  0  0  0  0  0
  145.7990  154.2800  134.3470 C   0  0  0  0  0  0  0  0  0  0  0  0
  147.6760  154.2800  136.0500 C   0  0  0  0  0  0  0  0  0  0  0  0
  145.7690  158.4320  133.4460 C   0  0  0  0  0  0  0  0  0  0  0  0
  144.6360  157.7750  133.9390 C   0  0  0  0  0  0  0  0  0  0  0  0
  139.9700  157.8560  135.5870 C   0  0  0  0  0  0  0  0  0  0  0  0
  138.7720  158.2410  135.6530 O   0  0  0  0  0  0  0  0  0  0  0  0
  140.4080  156.8470  136.4360 O   0  0  0  0  0  0  0  0  0  0  0  0
  139.6322  160.3315  133.4481 H   0  0  0  0  0  0  0  0  0  0  0  0
  140.6733  160.1918  131.9909 H   0  0  0  0  0  0  0  0  0  0  0  0
  139.0271  159.4729  131.9909 H   0  0  0  0  0  0  0  0  0  0  0  0
  141.4003  158.1206  132.5742 H   0  0  0  0  0  0  0  0  0  0  0  0
  139.1613  156.8266  133.8929 H   0  0  0  0  0  0  0  0  0  0  0  0
  138.6295  157.5848  132.3537 H   0  0  0  0  0  0  0  0  0  0  0  0
  139.9885  156.4102  132.3537 H   0  0  0  0  0  0  0  0  0  0  0  0
  140.9579  159.5754  134.8559 H   0  0  0  0  0  0  0  0  0  0  0  0
  142.3980  157.0430  135.3170 H   0  0  0  0  0  0  0  0  0  0  0  0
  142.6664  160.5638  134.3789 H   0  0  0  0  0  0  0  0  0  0  0  0
  144.7177  161.6770  133.4453 H   0  0  0  0  0  0  0  0  0  0  0  0
  147.3416  161.1419  132.4460 H   0  0  0  0  0  0  0  0  0  0  0  0
  149.1890  156.7200  131.8510 H   0  0  0  0  0  0  0  0  0  0  0  0
  148.6603  152.8412  134.3451 H   0  0  0  0  0  0  0  0  0  0  0  0
  147.4061  152.9637  133.0649 H   0  0  0  0  0  0  0  0  0  0  0  0
  148.8028  154.0933  133.0649 H   0  0  0  0  0  0  0  0  0  0  0  0
  145.2905  154.2000  135.3191 H   0  0  0  0  0  0  0  0  0  0  0  0
  145.3762  155.1227  133.7803 H   0  0  0  0  0  0  0  0  0  0  0  0
  145.6554  153.3482  133.7803 H   0  0  0  0  0  0  0  0  0  0  0  0
  146.9267  154.7587  136.6976 H   0  0  0  0  0  0  0  0  0  0  0  0
  147.6995  153.1992  136.2533 H   0  0  0  0  0  0  0  0  0  0  0  0
  148.6666  154.7130  136.2533 H   0  0  0  0  0  0  0  0  0  0  0  0
  144.6259  156.6811  134.0540 H   0  0  0  0  0  0  0  0  0  0  0  0
  1  2  1  0
  2  3  1  0
  2  4  1  0
  4  5  1  0
  5  6  1  0
  6  7  2  0
  7  8  1  0
  8  9  2  0
  9 10  1  0
 10 11  2  0
 11 12  1  0
 12 13  1  0
 12 14  2  0
 11 15  1  0
 15 16  1  0
 16 17  2  0
 16 18  1  0
 18 19  1  0
 19 20  1  0
 19 21  1  0
 19 22  1  0
 15 23  1  0
 23 24  2  0
  4 25  1  0
 25 26  2  0
 25 27  1  0
 24  6  1  0
 23  9  1  0
  1 28  1  0
  1 29  1  0
  1 30  1  0
  2 31  1  0
  3 32  1  0
  3 33  1  0
  3 34  1  0
  4 35  1  1
  5 36  1  0
  7 37  1  0
  8 38  1  0
 10 39  1  0
 13 40  1  0
 20 41  1  0
 20 42  1  0
 20 43  1  0
 21 44  1  0
 21 45  1  0
 21 46  1  0
 22 47  1  0
 22 48  1  0
 22 49  1  0
 24 50  1  0
M  CHG  2  13  -1  27  -1
M  END
>  <UniqueID>  (97) 
97

>  <SMILES>  (97) 
CC(C)[C@H](Nc1ccc2cc(C([NH-])=O)n(C(=O)OC(C)(C)C)c2c1)C(=O)[O-]

>  <Energy>  (97) 
80.99216772352689

>  <Genealogy>  (97) 
CC(C)C(Nc1ccc2cc(C([NH-])=O)n(C(=O)OC(C)(C)C)c2c1)C(=O)[O-] (protonated)
CC(C)[C@H](Nc1ccc2cc(C([NH-])=O)n(C(=O)OC(C)(C)C)c2c1)C(=O)[O-] (chirality)
CC(C)[C@H](Nc1ccc2cc(C([NH-])=O)n(C(=O)OC(C)(C)C)c2c1)C(=O)[O-] (3D coordinates assigned)
CC(C)[C@H](Nc1ccc2cc(C([NH-])=O)n(C(=O)OC(C)(C)C)c2c1)C(=O)[O-] (optimized conformer: 80.99216772352689 kcal/mol)

>  <smiles>  (97) 
CC(C)C(Nc1ccc2cc(C(N)=O)n(C(=O)OC(C)(C)C)c2c1)C(=O)O

>  <score_type>  (97) 
oracle

>  <origin>  (97) 
adg

>  <m_score__min__energy>  (97) 
-8.4299999999999997

>  <m_primary>  (97) 
energy

$$$$
