0:0
     RDKit          3D

 38 39  0  0  0  0  0  0  0  0999 V2000
  149.2170  161.3260  130.8680 C   0  0  0  0  0  0  0  0  0  0  0  0
  148.7570  159.9050  131.2430 C   0  0  0  0  0  0  0  0  0  0  0  0
  148.9280  158.9900  130.0210 C   0  0  0  0  0  0  0  0  0  0  0  0
  149.6020  159.3470  132.4050 C   0  0  0  0  0  0  0  0  0  0  0  0
  147.3630  159.8990  131.5830 O   0  0  0  0  0  0  0  0  0  0  0  0
  146.8220  159.9240  132.8770 C   0  0  0  0  0  0  0  0  0  0  0  0
  147.1280  160.8370  133.6900 O   0  0  0  0  0  0  0  0  0  0  0  0
  145.8930  158.9020  133.2720 N   0  0  0  0  0  0  0  0  0  0  0  0
  144.5930  159.0560  133.6540 C   0  0  0  0  0  0  0  0  0  0  0  0
  143.9110  160.3510  133.8770 C   0  0  0  0  0  0  0  0  0  0  0  0
  144.4930  161.5710  133.4160 N   0  0  0  0  0  0  0  0  0  0  0  0
  142.7910  160.3860  134.4510 O   0  0  0  0  0  0  0  0  0  0  0  0
  144.0080  157.8160  133.9020 C   0  0  0  0  0  0  0  0  0  0  0  0
  144.9970  156.8900  133.6600 C   0  0  0  0  0  0  0  0  0  0  0  0
  144.9620  155.5010  133.7430 C   0  0  0  0  0  0  0  0  0  0  0  0
  146.1280  154.7920  133.4100 C   0  0  0  0  0  0  0  0  0  0  0  0
  147.2980  155.4780  132.9990 C   0  0  0  0  0  0  0  0  0  0  0  0
  148.5370  154.7170  132.6250 C   0  0  0  0  0  0  0  0  0  0  0  0
  149.6110  155.5840  132.5480 F   0  0  0  0  0  0  0  0  0  0  0  0
  148.7970  153.7500  133.5790 F   0  0  0  0  0  0  0  0  0  0  0  0
  147.2950  156.8890  132.9250 C   0  0  0  0  0  0  0  0  0  0  0  0
  146.1240  157.5700  133.2810 C   0  0  0  0  0  0  0  0  0  0  0  0
  149.4043  161.9046  131.7846 H   0  0  0  0  0  0  0  0  0  0  0  0
  150.1421  161.2676  130.2758 H   0  0  0  0  0  0  0  0  0  0  0  0
  148.4331  161.8208  130.2758 H   0  0  0  0  0  0  0  0  0  0  0  0
  149.1204  157.9606  130.3577 H   0  0  0  0  0  0  0  0  0  0  0  0
  148.0102  159.0121  129.4151 H   0  0  0  0  0  0  0  0  0  0  0  0
  149.7759  159.3421  129.4151 H   0  0  0  0  0  0  0  0  0  0  0  0
  149.1506  159.6451  133.3628 H   0  0  0  0  0  0  0  0  0  0  0  0
  149.6343  158.2494  132.3408 H   0  0  0  0  0  0  0  0  0  0  0  0
  150.6242  159.7483  132.3408 H   0  0  0  0  0  0  0  0  0  0  0  0
  145.4450  161.5910  132.9860 H   0  0  0  0  0  0  0  0  0  0  0  0
  143.9860  162.4740  133.5430 H   0  0  0  0  0  0  0  0  0  0  0  0
  142.9746  157.6189  134.2232 H   0  0  0  0  0  0  0  0  0  0  0  0
  144.0494  154.9748  134.0596 H   0  0  0  0  0  0  0  0  0  0  0  0
  146.1330  153.6936  133.4688 H   0  0  0  0  0  0  0  0  0  0  0  0
  148.3825  154.2359  131.6479 H   0  0  0  0  0  0  0  0  0  0  0  0
  148.1894  157.4386  132.5962 H   0  0  0  0  0  0  0  0  0  0  0  0
  1  2  1  0
  2  3  1  0
  2  4  1  0
  2  5  1  0
  5  6  1  0
  6  7  2  0
  6  8  1  0
  8  9  1  0
  9 10  1  0
 10 11  1  0
 10 12  2  0
  9 13  2  0
 13 14  1  0
 14 15  2  0
 15 16  1  0
 16 17  2  0
 17 18  1  0
 18 19  1  0
 18 20  1  0
 17 21  1  0
 21 22  2  0
 22  8  1  0
 22 14  1  0
  1 23  1  0
  1 24  1  0
  1 25  1  0
  3 26  1  0
  3 27  1  0
  3 28  1  0
  4 29  1  0
  4 30  1  0
  4 31  1  0
 11 32  1  0
 11 33  1  0
 13 34  1  0
 15 35  1  0
 16 36  1  0
 18 37  1  0
 21 38  1  0
M  END
>  <UniqueID>  (1) 
1

>  <SMILES>  (1) 
CC(C)(C)OC(=O)n1c(C(N)=O)cc2ccc(C(F)F)cc21

>  <Energy>  (1) 
71.11165727990092

>  <Genealogy>  (1) 
CC(C)(C)OC(=O)n1c(C(N)=O)cc2ccc(C(F)F)cc21 (3D coordinates assigned)
CC(C)(C)OC(=O)n1c(C(N)=O)cc2ccc(C(F)F)cc21 (optimized conformer: 71.11165727990092 kcal/mol)

>  <smiles>  (1) 
CC(C)(C)OC(=O)n1c(C(N)=O)cc2ccc(C(F)F)cc21

>  <score_type>  (1) 
oracle

>  <origin>  (1) 
adg

>  <m_score__min__energy>  (1) 
-6.4800000000000004

>  <m_primary>  (1) 
energy

$$$$
1:0
     RDKit          3D

 30 31  0  0  0  0  0  0  0  0999 V2000
  139.8100  157.6090  133.4270 C   0  0  0  0  0  0  0  0  0  0  0  0
  140.4090  157.1250  134.6240 O   0  0  0  0  0  0  0  0  0  0  0  0
  141.7490  157.3630  134.9440 C   0  0  0  0  0  0  0  0  0  0  0  0
  142.1170  157.4360  136.1480 O   0  0  0  0  0  0  0  0  0  0  0  0
  142.7350  157.5140  133.8640 C   0  0  0  0  0  0  0  0  0  0  0  0
  142.9050  156.5720  133.0430 O   0  0  0  0  0  0  0  0  0  0  0  0
  143.5060  158.7180  133.7340 N   0  0  0  0  0  0  0  0  0  0  0  0
  143.0770  160.0020  133.8900 C   0  0  0  0  0  0  0  0  0  0  0  0
  141.6790  160.4290  134.1110 C   0  0  0  0  0  0  0  0  0  0  0  0
  140.9870  160.0890  135.3110 N   0  0  0  0  0  0  0  0  0  0  0  0
  141.0770  161.0790  133.2160 O   0  0  0  0  0  0  0  0  0  0  0  0
  144.1460  160.8890  133.7670 C   0  0  0  0  0  0  0  0  0  0  0  0
  145.2500  160.1010  133.5310 C   0  0  0  0  0  0  0  0  0  0  0  0
  146.5840  160.4560  133.3590 C   0  0  0  0  0  0  0  0  0  0  0  0
  147.5210  159.4250  133.1720 C   0  0  0  0  0  0  0  0  0  0  0  0
  147.1110  158.0660  133.1490 C   0  0  0  0  0  0  0  0  0  0  0  0
  148.1330  156.9670  133.0090 C   0  0  0  0  0  0  0  0  0  0  0  0
  148.4790  156.5040  134.2650 F   0  0  0  0  0  0  0  0  0  0  0  0
  149.2690  157.4350  132.3720 F   0  0  0  0  0  0  0  0  0  0  0  0
  147.6240  155.9170  132.2660 F   0  0  0  0  0  0  0  0  0  0  0  0
  145.7490  157.7470  133.3540 C   0  0  0  0  0  0  0  0  0  0  0  0
  144.8360  158.7950  133.5180 C   0  0  0  0  0  0  0  0  0  0  0  0
  138.9773  158.2818  133.6798 H   0  0  0  0  0  0  0  0  0  0  0  0
  140.5594  158.1582  132.8381 H   0  0  0  0  0  0  0  0  0  0  0  0
  139.4304  156.7610  132.8381 H   0  0  0  0  0  0  0  0  0  0  0  0
  140.7960  159.0930  135.5550 H   0  0  0  0  0  0  0  0  0  0  0  0
  144.1139  161.9859  133.8425 H   0  0  0  0  0  0  0  0  0  0  0  0
  146.8959  161.5108  133.3690 H   0  0  0  0  0  0  0  0  0  0  0  0
  148.5845  159.6741  133.0419 H   0  0  0  0  0  0  0  0  0  0  0  0
  145.4146  156.6995  133.3839 H   0  0  0  0  0  0  0  0  0  0  0  0
  1  2  1  0
  2  3  1  0
  3  4  2  0
  3  5  1  0
  5  6  2  0
  5  7  1  0
  7  8  1  0
  8  9  1  0
  9 10  1  0
  9 11  2  0
  8 12  2  0
 12 13  1  0
 13 14  2  0
 14 15  1  0
 15 16  2  0
 16 17  1  0
 17 18  1  0
 17 19  1  0
 17 20  1  0
 16 21  1  0
 21 22  2  0
 22  7  1  0
 22 13  1  0
  1 23  1  0
  1 24  1  0
  1 25  1  0
 10 26  1  0
 12 27  1  0
 14 28  1  0
 15 29  1  0
 21 30  1  0
M  CHG  1  10  -1
M  END
>  <UniqueID>  (2) 
2

>  <SMILES>  (2) 
COC(=O)C(=O)n1c(C([NH-])=O)cc2ccc(C(F)(F)F)cc21

>  <Energy>  (2) 
68.03084949819791

>  <Genealogy>  (2) 
COC(=O)C(=O)n1c(C([NH-])=O)cc2ccc(C(F)(F)F)cc21 (protonated)
COC(=O)C(=O)n1c(C([NH-])=O)cc2ccc(C(F)(F)F)cc21 (3D coordinates assigned)
COC(=O)C(=O)n1c(C([NH-])=O)cc2ccc(C(F)(F)F)cc21 (optimized conformer: 68.03084949819791 kcal/mol)

>  <smiles>  (2) 
COC(=O)C(=O)n1c(C(N)=O)cc2ccc(C(F)(F)F)cc21

>  <score_type>  (2) 
oracle

>  <origin>  (2) 
adg

>  <m_score__min__energy>  (2) 
-5.4299999999999997

>  <m_primary>  (2) 
energy

$$$$
2:0
     RDKit          3D

 36 38  0  0  0  0  0  0  0  0999 V2000
  139.5120  158.2040  135.9860 N   0  0  0  0  0  0  0  0  0  0  0  0
  139.9230  158.4060  134.6350 C   0  0  0  0  0  0  0  0  0  0  0  0
  139.0990  158.2090  133.7040 O   0  0  0  0  0  0  0  0  0  0  0  0
  141.3170  158.8010  134.3420 C   0  0  0  0  0  0  0  0  0  0  0  0
  141.7420  160.1280  134.2950 C   0  0  0  0  0  0  0  0  0  0  0  0
  143.1010  160.0680  134.0860 C   0  0  0  0  0  0  0  0  0  0  0  0
  144.0310  161.0940  133.9510 C   0  0  0  0  0  0  0  0  0  0  0  0
  145.3700  160.7410  133.7160 C   0  0  0  0  0  0  0  0  0  0  0  0
  145.7540  159.3800  133.6070 C   0  0  0  0  0  0  0  0  0  0  0  0
  147.1320  159.0330  133.3660 N   0  0  0  0  0  0  0  0  0  0  0  0
  147.7770  157.9410  134.1020 C   0  0  0  0  0  0  0  0  0  0  0  0
  148.4840  156.9710  133.1330 C   0  0  0  0  0  0  0  0  0  0  0  0
  148.8820  157.6010  131.8550 N   0  0  0  0  0  0  0  0  0  0  0  0
  149.1910  159.0310  132.0000 C   0  0  0  0  0  0  0  0  0  0  0  0
  147.9300  159.8060  132.4060 C   0  0  0  0  0  0  0  0  0  0  0  0
  144.7800  158.3670  133.7580 C   0  0  0  0  0  0  0  0  0  0  0  0
  143.4560  158.7460  134.0100 C   0  0  0  0  0  0  0  0  0  0  0  0
  142.3710  157.9540  134.1620 N   0  0  0  0  0  0  0  0  0  0  0  0
  142.3470  156.5190  134.0840 C   0  0  0  0  0  0  0  0  0  0  0  0
  141.4710  155.9330  133.3930 O   0  0  0  0  0  0  0  0  0  0  0  0
  143.3050  155.7650  134.7490 O   0  0  0  0  0  0  0  0  0  0  0  0
  139.1250  158.9910  136.5520 H   0  0  0  0  0  0  0  0  0  0  0  0
  141.1229  161.0309  134.4022 H   0  0  0  0  0  0  0  0  0  0  0  0
  143.7271  162.1485  134.0260 H   0  0  0  0  0  0  0  0  0  0  0  0
  146.1301  161.5297  133.6153 H   0  0  0  0  0  0  0  0  0  0  0  0
  148.5192  158.3626  134.7959 H   0  0  0  0  0  0  0  0  0  0  0  0
  147.0064  157.3860  134.6571 H   0  0  0  0  0  0  0  0  0  0  0  0
  149.3873  156.5827  133.6262 H   0  0  0  0  0  0  0  0  0  0  0  0
  147.7658  156.1736  132.8914 H   0  0  0  0  0  0  0  0  0  0  0  0
  149.7280  157.1090  131.4830 H   0  0  0  0  0  0  0  0  0  0  0  0
  148.1120  157.4850  131.1540 H   0  0  0  0  0  0  0  0  0  0  0  0
  149.9618  159.1597  132.7741 H   0  0  0  0  0  0  0  0  0  0  0  0
  149.5572  159.4190  131.0380 H   0  0  0  0  0  0  0  0  0  0  0  0
  148.2254  160.7599  132.8674 H   0  0  0  0  0  0  0  0  0  0  0  0
  147.3225  159.9885  131.5073 H   0  0  0  0  0  0  0  0  0  0  0  0
  145.0559  157.3051  133.6793 H   0  0  0  0  0  0  0  0  0  0  0  0
  1  2  1  0
  2  3  2  0
  2  4  1  0
  4  5  2  0
  5  6  1  0
  6  7  2  0
  7  8  1  0
  8  9  2  0
  9 10  1  0
 10 11  1  0
 11 12  1  0
 12 13  1  0
 13 14  1  0
 14 15  1  0
  9 16  1  0
 16 17  2  0
 17 18  1  0
 18 19  1  0
 19 20  2  0
 19 21  1  0
 18  4  1  0
 17  6  1  0
 15 10  1  0
  1 22  1  0
  5 23  1  0
  7 24  1  0
  8 25  1  0
 11 26  1  0
 11 27  1  0
 12 28  1  0
 12 29  1  0
 13 30  1  0
 13 31  1  0
 14 32  1  0
 14 33  1  0
 15 34  1  0
 15 35  1  0
 16 36  1  0
M  CHG  3   1  -1  13   1  21  -1
M  END
>  <UniqueID>  (3) 
3

>  <SMILES>  (3) 
[NH-]C(=O)c1cc2ccc(N3CC[NH2+]CC3)cc2n1C(=O)[O-]

>  <Energy>  (3) 
85.00317277772136

>  <Genealogy>  (3) 
[NH-]C(=O)c1cc2ccc(N3CC[NH2+]CC3)cc2n1C(=O)[O-] (protonated)
[NH-]C(=O)c1cc2ccc(N3CC[NH2+]CC3)cc2n1C(=O)[O-] (3D coordinates assigned)
[NH-]C(=O)c1cc2ccc(N3CC[NH2+]CC3)cc2n1C(=O)[O-] (nonaromatic ring conformer: 85.00317277772136 kcal/mol)

>  <smiles>  (3) 
NC(=O)c1cc2ccc(N3CCNCC3)cc2n1C(=O)O

>  <score_type>  (3) 
oracle

>  <origin>  (3) 
adg

>  <m_score__min__energy>  (3) 
-6.6299999999999999

>  <m_primary>  (3) 
energy

$$$$
3:0
     RDKit          3D

 31 32  0  0  0  0  0  0  0  0999 V2000
  150.2458  158.9522  130.1715 H   0  0  0  0  0  0  0  0  0  0  0  0
  149.6020  159.2750  131.0030 C   0  0  0  0  0  0  0  0  0  0  0  0
  148.8670  160.5390  130.8360 C   0  0  0  0  0  0  0  0  0  0  0  0
  147.6140  160.5140  130.7160 O   0  0  0  0  0  0  0  0  0  0  0  0
  149.5360  161.7510  130.7160 O   0  0  0  0  0  0  0  0  0  0  0  0
  149.5520  158.4840  132.0850 C   0  0  0  0  0  0  0  0  0  0  0  0
  150.2907  157.6712  132.1465 H   0  0  0  0  0  0  0  0  0  0  0  0
  148.5920  158.6080  133.2020 C   0  0  0  0  0  0  0  0  0  0  0  0
  148.8630  159.4080  134.1370 O   0  0  0  0  0  0  0  0  0  0  0  0
  147.4040  157.7990  133.2880 N   0  0  0  0  0  0  0  0  0  0  0  0
  146.1240  158.2050  133.5310 C   0  0  0  0  0  0  0  0  0  0  0  0
  145.6720  159.6090  133.6290 C   0  0  0  0  0  0  0  0  0  0  0  0
  144.5160  159.8720  134.0530 O   0  0  0  0  0  0  0  0  0  0  0  0
  146.5460  160.6830  133.2780 N   0  0  0  0  0  0  0  0  0  0  0  0
  147.4910  160.5010  132.8730 H   0  0  0  0  0  0  0  0  0  0  0  0
  146.2300  161.6720  133.3840 H   0  0  0  0  0  0  0  0  0  0  0  0
  145.2630  157.1090  133.5710 C   0  0  0  0  0  0  0  0  0  0  0  0
  144.1794  157.1189  133.7600 H   0  0  0  0  0  0  0  0  0  0  0  0
  146.0560  156.0130  133.3240 C   0  0  0  0  0  0  0  0  0  0  0  0
  145.7210  154.6640  133.2490 C   0  0  0  0  0  0  0  0  0  0  0  0
  144.6815  154.3297  133.3822 H   0  0  0  0  0  0  0  0  0  0  0  0
  146.7510  153.7430  132.9980 C   0  0  0  0  0  0  0  0  0  0  0  0
  146.5181  152.6700  132.9311 H   0  0  0  0  0  0  0  0  0  0  0  0
  148.0880  154.1830  132.8300 C   0  0  0  0  0  0  0  0  0  0  0  0
  149.1770  153.1780  132.5780 C   0  0  0  0  0  0  0  0  0  0  0  0
  148.8854  152.5343  131.7351 H   0  0  0  0  0  0  0  0  0  0  0  0
  149.3660  152.4020  133.7070 F   0  0  0  0  0  0  0  0  0  0  0  0
  150.3550  153.8350  132.2720 F   0  0  0  0  0  0  0  0  0  0  0  0
  148.3900  155.5600  132.9110 C   0  0  0  0  0  0  0  0  0  0  0  0
  149.4224  155.9197  132.7895 H   0  0  0  0  0  0  0  0  0  0  0  0
  147.3410  156.4550  133.1500 C   0  0  0  0  0  0  0  0  0  0  0  0
  1  2  1  0
  2  3  1  0
  3  4  2  0
  3  5  1  0
  2  6  2  0
  6  7  1  0
  6  8  1  0
  8  9  2  0
  8 10  1  0
 10 11  1  0
 11 12  1  0
 12 13  2  0
 12 14  1  0
 14 15  1  0
 14 16  1  0
 11 17  2  0
 17 18  1  0
 17 19  1  0
 19 20  2  0
 20 21  1  0
 20 22  1  0
 22 23  1  0
 22 24  2  0
 24 25  1  0
 25 26  1  0
 25 27  1  0
 25 28  1  0
 24 29  1  0
 29 30  1  0
 29 31  2  0
 31 10  1  0
 31 19  1  0
M  CHG  1   5  -1
M  END
>  <UniqueID>  (4) 
4

>  <SMILES>  (4) 
NC(=O)c1cc2ccc(C(F)F)cc2n1C(=O)/C=C\C(=O)[O-]

>  <Energy>  (4) 
75.71644780900291

>  <Genealogy>  (4) 
NC(=O)c1cc2ccc(C(F)F)cc2n1C(=O)/C=C\C(=O)[O-] (protonated)
NC(=O)c1cc2ccc(C(F)F)cc2n1C(=O)/C=C\C(=O)[O-] (cis-trans isomerization)
NC(=O)c1cc2ccc(C(F)F)cc2n1C(=O)/C=C\C(=O)[O-] (3D coordinates assigned)
NC(=O)c1cc2ccc(C(F)F)cc2n1C(=O)/C=C\C(=O)[O-] (optimized conformer: 75.71644780900291 kcal/mol)

>  <smiles>  (4) 
NC(=O)c1cc2ccc(C(F)F)cc2n1C(=O)/C=C\C(=O)O

>  <score_type>  (4) 
oracle

>  <origin>  (4) 
adg

>  <m_score__min__energy>  (4) 
-6.6399999999999997

>  <m_primary>  (4) 
energy

$$$$
4:0
     RDKit          3D

 64 66  0  0  0  0  0  0  0  0999 V2000
  141.7550  153.1900  136.2950 C   0  0  0  0  0  0  0  0  0  0  0  0
  142.0460  154.6910  136.1530 C   0  0  0  0  0  0  0  0  0  0  0  0
  141.3150  155.4460  137.2810 C   0  0  0  0  0  0  0  0  0  0  0  0
  143.5680  154.9160  136.2430 C   0  0  0  0  0  0  0  0  0  0  0  0
  141.5510  155.0970  134.8710 O   0  0  0  0  0  0  0  0  0  0  0  0
  141.3580  154.2720  133.7520 C   0  0  0  0  0  0  0  0  0  0  0  0
  140.2700  154.2900  133.1140 O   0  0  0  0  0  0  0  0  0  0  0  0
  142.4100  153.3860  133.3380 N   0  0  0  0  0  0  0  0  0  0  0  0
  142.3450  152.0340  133.1830 C   0  0  0  0  0  0  0  0  0  0  0  0
  141.1200  151.2110  133.2580 C   0  0  0  0  0  0  0  0  0  0  0  0
  139.9050  151.6310  132.6310 N   0  0  0  0  0  0  0  0  0  0  0  0
  141.1570  150.0960  133.8410 O   0  0  0  0  0  0  0  0  0  0  0  0
  143.6010  151.5110  132.8900 C   0  0  0  0  0  0  0  0  0  0  0  0
  144.4460  152.5960  132.8550 C   0  0  0  0  0  0  0  0  0  0  0  0
  145.8160  152.6550  132.6200 C   0  0  0  0  0  0  0  0  0  0  0  0
  146.4440  153.9090  132.6800 C   0  0  0  0  0  0  0  0  0  0  0  0
  145.7010  155.0830  132.9830 C   0  0  0  0  0  0  0  0  0  0  0  0
  146.3770  156.4040  133.0620 C   0  0  0  0  0  0  0  0  0  0  0  0
  147.7400  156.6590  133.1670 C   0  0  0  0  0  0  0  0  0  0  0  0
  147.9440  157.9880  133.2560 N   0  0  0  0  0  0  0  0  0  0  0  0
  146.7590  158.5770  133.1990 N   0  0  0  0  0  0  0  0  0  0  0  0
  146.5560  160.0130  133.3630 C   0  0  0  0  0  0  0  0  0  0  0  0
  145.2330  160.3580  132.9950 O   0  0  0  0  0  0  0  0  0  0  0  0
  144.4090  160.4340  134.1440 C   0  0  0  0  0  0  0  0  0  0  0  0
  142.9770  160.7720  133.7320 C   0  0  0  0  0  0  0  0  0  0  0  0
  141.8010  159.3110  133.9130 Si  0  0  0  0  0  4  0  0  0  0  0  0
  140.2300  159.7030  132.9900 C   0  0  0  0  0  0  0  0  0  0  0  0
  141.3810  159.0160  135.7080 C   0  0  0  0  0  0  0  0  0  0  0  0
  142.5480  157.7600  133.1870 C   0  0  0  0  0  0  0  0  0  0  0  0
  145.7860  157.6540  133.0850 C   0  0  0  0  0  0  0  0  0  0  0  0
  144.3090  154.9770  133.2200 C   0  0  0  0  0  0  0  0  0  0  0  0
  143.7060  153.7160  133.1300 C   0  0  0  0  0  0  0  0  0  0  0  0
  141.7038  152.9257  137.3616 H   0  0  0  0  0  0  0  0  0  0  0  0
  140.7947  152.9554  135.8126 H   0  0  0  0  0  0  0  0  0  0  0  0
  142.5581  152.6136  135.8126 H   0  0  0  0  0  0  0  0  0  0  0  0
  141.6690  155.0804  138.2562 H   0  0  0  0  0  0  0  0  0  0  0  0
  141.5225  156.5229  137.1958 H   0  0  0  0  0  0  0  0  0  0  0  0
  140.2320  155.2734  137.1958 H   0  0  0  0  0  0  0  0  0  0  0  0
  143.8702  154.9607  137.2997 H   0  0  0  0  0  0  0  0  0  0  0  0
  144.0914  154.0855  135.7467 H   0  0  0  0  0  0  0  0  0  0  0  0
  143.8287  155.8624  135.7467 H   0  0  0  0  0  0  0  0  0  0  0  0
  139.0390  151.0560  132.7280 H   0  0  0  0  0  0  0  0  0  0  0  0
  139.8800  152.4720  132.0130 H   0  0  0  0  0  0  0  0  0  0  0  0
  143.8622  150.4557  132.7223 H   0  0  0  0  0  0  0  0  0  0  0  0
  146.3908  151.7448  132.3936 H   0  0  0  0  0  0  0  0  0  0  0  0
  147.5249  153.9845  132.4902 H   0  0  0  0  0  0  0  0  0  0  0  0
  148.5300  155.8936  133.1760 H   0  0  0  0  0  0  0  0  0  0  0  0
  146.7254  160.2875  134.4147 H   0  0  0  0  0  0  0  0  0  0  0  0
  147.2640  160.5547  132.7186 H   0  0  0  0  0  0  0  0  0  0  0  0
  144.4200  159.4658  134.6661 H   0  0  0  0  0  0  0  0  0  0  0  0
  144.7898  161.2199  134.8129 H   0  0  0  0  0  0  0  0  0  0  0  0
  142.6144  161.5955  134.3647 H   0  0  0  0  0  0  0  0  0  0  0  0
  142.9958  161.0523  132.6685 H   0  0  0  0  0  0  0  0  0  0  0  0
  139.4226  159.9045  133.7094 H   0  0  0  0  0  0  0  0  0  0  0  0
  140.3875  160.5894  132.3579 H   0  0  0  0  0  0  0  0  0  0  0  0
  139.9526  158.8465  132.3579 H   0  0  0  0  0  0  0  0  0  0  0  0
  142.1145  159.5312  136.3456 H   0  0  0  0  0  0  0  0  0  0  0  0
  140.3743  159.4065  135.9180 H   0  0  0  0  0  0  0  0  0  0  0  0
  141.4067  157.9365  135.9180 H   0  0  0  0  0  0  0  0  0  0  0  0
  142.8695  157.0925  134.0001 H   0  0  0  0  0  0  0  0  0  0  0  0
  141.7980  157.2474  132.5667 H   0  0  0  0  0  0  0  0  0  0  0  0
  143.4164  158.0269  132.5667 H   0  0  0  0  0  0  0  0  0  0  0  0
  144.7071  157.8587  133.0212 H   0  0  0  0  0  0  0  0  0  0  0  0
  143.7131  155.8672  133.4698 H   0  0  0  0  0  0  0  0  0  0  0  0
  1  2  1  0
  2  3  1  0
  2  4  1  0
  2  5  1  0
  5  6  1  0
  6  7  2  0
  6  8  1  0
  8  9  1  0
  9 10  1  0
 10 11  1  0
 10 12  2  0
  9 13  2  0
 13 14  1  0
 14 15  2  0
 15 16  1  0
 16 17  2  0
 17 18  1  0
 18 19  1  0
 19 20  2  0
 20 21  1  0
 21 22  1  0
 22 23  1  0
 23 24  1  0
 24 25  1  0
 25 26  1  0
 26 27  1  0
 26 28  1  0
 26 29  1  0
 21 30  1  0
 17 31  1  0
 31 32  2  0
 32  8  1  0
 32 14  1  0
 30 18  2  0
  1 33  1  0
  1 34  1  0
  1 35  1  0
  3 36  1  0
  3 37  1  0
  3 38  1  0
  4 39  1  0
  4 40  1  0
  4 41  1  0
 11 42  1  0
 11 43  1  0
 13 44  1  0
 15 45  1  0
 16 46  1  0
 19 47  1  0
 22 48  1  0
 22 49  1  0
 24 50  1  0
 24 51  1  0
 25 52  1  0
 25 53  1  0
 27 54  1  0
 27 55  1  0
 27 56  1  0
 28 57  1  0
 28 58  1  0
 28 59  1  0
 29 60  1  0
 29 61  1  0
 29 62  1  0
 30 63  1  0
 31 64  1  0
M  END
>  <UniqueID>  (5) 
5

>  <SMILES>  (5) 
CC(C)(C)OC(=O)n1c(C(N)=O)cc2ccc(-c3cnn(COCC[Si](C)(C)C)c3)cc21

>  <Energy>  (5) 
112.27169200608408

>  <Genealogy>  (5) 
CC(C)(C)OC(=O)n1c(C(N)=O)cc2ccc(-c3cnn(COCC[Si](C)(C)C)c3)cc21 (3D coordinates assigned)
CC(C)(C)OC(=O)n1c(C(N)=O)cc2ccc(-c3cnn(COCC[Si](C)(C)C)c3)cc21 (optimized conformer: 112.27169200608408 kcal/mol)

>  <smiles>  (5) 
CC(C)(C)OC(=O)n1c(C(N)=O)cc2ccc(-c3cnn(COCC[Si](C)(C)C)c3)cc21

>  <score_type>  (5) 
oracle

>  <origin>  (5) 
adg

>  <m_score__min__energy>  (5) 
-9.2599999999999998

>  <m_primary>  (5) 
energy

$$$$
5:0
     RDKit          3D

 40 41  0  0  0  0  0  0  0  0999 V2000
  147.9820  155.6880  134.0740 C   0  0  0  0  0  0  0  0  0  0  0  0
  147.6240  156.5690  132.8720 C   0  0  1  0  0  0  0  0  0  0  0  0
  146.2590  156.2930  132.4110 N   0  0  0  0  0  0  0  0  0  0  0  0
  147.7860  158.0210  133.2260 C   0  0  0  0  0  0  0  0  0  0  0  0
  148.5020  158.3570  134.2100 O   0  0  0  0  0  0  0  0  0  0  0  0
  147.1570  158.9930  132.4400 O   0  0  0  0  0  0  0  0  0  0  0  0
  146.0510  159.7650  132.9020 C   0  0  0  0  0  0  0  0  0  0  0  0
  144.8240  159.1290  132.5560 O   0  0  0  0  0  0  0  0  0  0  0  0
  143.6820  159.1890  133.3630 C   0  0  0  0  0  0  0  0  0  0  0  0
  143.4940  160.1730  134.1280 O   0  0  0  0  0  0  0  0  0  0  0  0
  142.7100  158.1320  133.3000 N   0  0  0  0  0  0  0  0  0  0  0  0
  142.8500  156.8390  133.7120 C   0  0  0  0  0  0  0  0  0  0  0  0
  144.0960  156.2110  134.2000 C   0  0  0  0  0  0  0  0  0  0  0  0
  145.2150  157.0260  134.5410 N   0  0  0  0  0  0  0  0  0  0  0  0
  144.1740  154.9630  134.3520 O   0  0  0  0  0  0  0  0  0  0  0  0
  141.6590  156.1380  133.5320 C   0  0  0  0  0  0  0  0  0  0  0  0
  140.7810  157.0460  132.9860 C   0  0  0  0  0  0  0  0  0  0  0  0
  139.4530  156.8870  132.6020 C   0  0  0  0  0  0  0  0  0  0  0  0
  138.7790  158.0030  132.0820 C   0  0  0  0  0  0  0  0  0  0  0  0
  139.4280  159.2600  131.9780 C   0  0  0  0  0  0  0  0  0  0  0  0
  138.7060  160.4420  131.3830 C   0  0  0  0  0  0  0  0  0  0  0  0
  138.9850  160.5120  130.0300 F   0  0  0  0  0  0  0  0  0  0  0  0
  137.3380  160.3170  131.5540 F   0  0  0  0  0  0  0  0  0  0  0  0
  139.1110  161.6190  131.9890 F   0  0  0  0  0  0  0  0  0  0  0  0
  140.7860  159.3760  132.3590 C   0  0  0  0  0  0  0  0  0  0  0  0
  141.4390  158.2410  132.8560 C   0  0  0  0  0  0  0  0  0  0  0  0
  147.7614  156.2307  135.0050 H   0  0  0  0  0  0  0  0  0  0  0  0
  147.3887  154.7624  134.0398 H   0  0  0  0  0  0  0  0  0  0  0  0
  149.0528  155.4386  134.0398 H   0  0  0  0  0  0  0  0  0  0  0  0
  148.3125  156.3318  132.0476 H   0  0  0  0  0  0  0  0  0  0  0  0
  146.2850  155.9000  131.4420 H   0  0  0  0  0  0  0  0  0  0  0  0
  145.6840  157.1680  132.4130 H   0  0  0  0  0  0  0  0  0  0  0  0
  145.8090  155.5880  133.0400 H   0  0  0  0  0  0  0  0  0  0  0  0
  146.1111  159.8665  133.9956 H   0  0  0  0  0  0  0  0  0  0  0  0
  146.0851  160.7573  132.4285 H   0  0  0  0  0  0  0  0  0  0  0  0
  145.6620  157.6470  133.8310 H   0  0  0  0  0  0  0  0  0  0  0  0
  141.4626  155.0832  133.7748 H   0  0  0  0  0  0  0  0  0  0  0  0
  138.9466  155.9157  132.7030 H   0  0  0  0  0  0  0  0  0  0  0  0
  137.7349  157.9016  131.7511 H   0  0  0  0  0  0  0  0  0  0  0  0
  141.3164  160.3353  132.2669 H   0  0  0  0  0  0  0  0  0  0  0  0
  1  2  1  0
  2  3  1  0
  2  4  1  0
  4  5  2  0
  4  6  1  0
  6  7  1  0
  7  8  1  0
  8  9  1  0
  9 10  2  0
  9 11  1  0
 11 12  1  0
 12 13  1  0
 13 14  1  0
 13 15  2  0
 12 16  2  0
 16 17  1  0
 17 18  2  0
 18 19  1  0
 19 20  2  0
 20 21  1  0
 21 22  1  0
 21 23  1  0
 21 24  1  0
 20 25  1  0
 25 26  2  0
 26 11  1  0
 26 17  1  0
  1 27  1  0
  1 28  1  0
  1 29  1  0
  2 30  1  6
  3 31  1  0
  3 32  1  0
  3 33  1  0
  7 34  1  0
  7 35  1  0
 14 36  1  0
 16 37  1  0
 18 38  1  0
 19 39  1  0
 25 40  1  0
M  CHG  2   3   1  14  -1
M  END
>  <UniqueID>  (6) 
6

>  <SMILES>  (6) 
C[C@@H]([NH3+])C(=O)OCOC(=O)n1c(C([NH-])=O)cc2ccc(C(F)(F)F)cc21

>  <Energy>  (6) 
72.17782960962768

>  <Genealogy>  (6) 
CC([NH3+])C(=O)OCOC(=O)n1c(C([NH-])=O)cc2ccc(C(F)(F)F)cc21 (protonated)
C[C@@H]([NH3+])C(=O)OCOC(=O)n1c(C([NH-])=O)cc2ccc(C(F)(F)F)cc21 (chirality)
C[C@@H]([NH3+])C(=O)OCOC(=O)n1c(C([NH-])=O)cc2ccc(C(F)(F)F)cc21 (3D coordinates assigned)
C[C@@H]([NH3+])C(=O)OCOC(=O)n1c(C([NH-])=O)cc2ccc(C(F)(F)F)cc21 (optimized conformer: 72.17782960962768 kcal/mol)

>  <smiles>  (6) 
CC(N)C(=O)OCOC(=O)n1c(C(N)=O)cc2ccc(C(F)(F)F)cc21

>  <score_type>  (6) 
oracle

>  <origin>  (6) 
adg

>  <m_score__min__energy>  (6) 
-5.0099999999999998

>  <m_primary>  (6) 
energy

$$$$
6:0
     RDKit          3D

 37 39  0  0  0  0  0  0  0  0999 V2000
  138.7440  158.2390  131.8600 C   0  0  0  0  0  0  0  0  0  0  0  0
  138.7340  157.8510  133.2290 O   0  0  0  0  0  0  0  0  0  0  0  0
  139.7880  158.0840  134.1260 C   0  0  0  0  0  0  0  0  0  0  0  0
  139.5720  157.8560  135.4860 C   0  0  0  0  0  0  0  0  0  0  0  0
  140.5660  158.0720  136.3860 N   0  0  0  0  0  0  0  0  0  0  0  0
  141.7930  158.5140  136.0070 C   0  0  0  0  0  0  0  0  0  0  0  0
  142.0710  158.7600  134.6510 C   0  0  0  0  0  0  0  0  0  0  0  0
  143.4100  159.2430  134.2260 C   0  0  0  0  0  0  0  0  0  0  0  0
  143.6700  160.6360  134.1200 C   0  0  0  0  0  0  0  0  0  0  0  0
  144.9360  161.1030  133.7300 C   0  0  0  0  0  0  0  0  0  0  0  0
  145.9210  160.1620  133.4450 C   0  0  0  0  0  0  0  0  0  0  0  0
  147.2320  160.3400  133.0700 C   0  0  0  0  0  0  0  0  0  0  0  0
  147.7540  159.0550  132.9280 C   0  0  0  0  0  0  0  0  0  0  0  0
  149.1260  158.7830  132.4510 C   0  0  0  0  0  0  0  0  0  0  0  0
  149.5470  157.4400  132.2280 N   0  0  0  0  0  0  0  0  0  0  0  0
  149.9440  159.7240  132.2710 O   0  0  0  0  0  0  0  0  0  0  0  0
  146.8020  158.1190  133.2120 N   0  0  0  0  0  0  0  0  0  0  0  0
  146.9470  156.6910  133.2370 C   0  0  0  0  0  0  0  0  0  0  0  0
  146.8650  156.0350  132.1630 O   0  0  0  0  0  0  0  0  0  0  0  0
  147.2010  156.0460  134.4540 O   0  0  0  0  0  0  0  0  0  0  0  0
  146.2940  155.2230  135.1330 C   0  0  0  0  0  0  0  0  0  0  0  0
  146.6630  154.1500  135.6840 O   0  0  0  0  0  0  0  0  0  0  0  0
  144.9590  155.5960  135.2000 O   0  0  0  0  0  0  0  0  0  0  0  0
  145.6850  158.8140  133.5220 C   0  0  0  0  0  0  0  0  0  0  0  0
  144.4400  158.3200  133.9260 C   0  0  0  0  0  0  0  0  0  0  0  0
  141.0520  158.5410  133.7100 C   0  0  0  0  0  0  0  0  0  0  0  0
  138.7723  159.3364  131.7901 H   0  0  0  0  0  0  0  0  0  0  0  0
  139.6316  157.8171  131.3658 H   0  0  0  0  0  0  0  0  0  0  0  0
  137.8359  157.8634  131.3658 H   0  0  0  0  0  0  0  0  0  0  0  0
  138.5904  157.4991  135.8311 H   0  0  0  0  0  0  0  0  0  0  0  0
  142.5730  158.6803  136.7646 H   0  0  0  0  0  0  0  0  0  0  0  0
  142.8705  161.3570  134.3460 H   0  0  0  0  0  0  0  0  0  0  0  0
  145.1428  162.1806  133.6521 H   0  0  0  0  0  0  0  0  0  0  0  0
  147.7574  161.2939  132.9150 H   0  0  0  0  0  0  0  0  0  0  0  0
  148.8910  156.7300  131.8340 H   0  0  0  0  0  0  0  0  0  0  0  0
  144.2654  157.2371  134.0087 H   0  0  0  0  0  0  0  0  0  0  0  0
  141.2428  158.7276  132.6429 H   0  0  0  0  0  0  0  0  0  0  0  0
  1  2  1  0
  2  3  1  0
  3  4  2  0
  4  5  1  0
  5  6  2  0
  6  7  1  0
  7  8  1  0
  8  9  2  0
  9 10  1  0
 10 11  2  0
 11 12  1  0
 12 13  2  0
 13 14  1  0
 14 15  1  0
 14 16  2  0
 13 17  1  0
 17 18  1  0
 18 19  2  0
 18 20  1  0
 20 21  1  0
 21 22  2  0
 21 23  1  0
 17 24  1  0
 24 25  2  0
  7 26  2  0
 26  3  1  0
 25  8  1  0
 24 11  1  0
  1 27  1  0
  1 28  1  0
  1 29  1  0
  4 30  1  0
  6 31  1  0
  9 32  1  0
 10 33  1  0
 12 34  1  0
 15 35  1  0
 25 36  1  0
 26 37  1  0
M  CHG  2  15  -1  23  -1
M  END
>  <UniqueID>  (7) 
7

>  <SMILES>  (7) 
COc1cncc(-c2ccc3cc(C([NH-])=O)n(C(=O)OC(=O)[O-])c3c2)c1

>  <Energy>  (7) 
84.96315297838495

>  <Genealogy>  (7) 
COc1cncc(-c2ccc3cc(C([NH-])=O)n(C(=O)OC(=O)[O-])c3c2)c1 (protonated)
COc1cncc(-c2ccc3cc(C([NH-])=O)n(C(=O)OC(=O)[O-])c3c2)c1 (3D coordinates assigned)
COc1cncc(-c2ccc3cc(C([NH-])=O)n(C(=O)OC(=O)[O-])c3c2)c1 (optimized conformer: 84.96315297838495 kcal/mol)

>  <smiles>  (7) 
COc1cncc(-c2ccc3cc(C(N)=O)n(C(=O)OC(=O)O)c3c2)c1

>  <score_type>  (7) 
oracle

>  <origin>  (7) 
adg

>  <m_score__min__energy>  (7) 
-6.9900000000000002

>  <m_primary>  (7) 
energy

$$$$
7:0
     RDKit          3D

 38 39  0  0  0  0  0  0  0  0999 V2000
  142.3330  157.0740  135.3340 C   0  0  0  0  0  0  0  0  0  0  0  0
  143.5790  157.0840  134.6490 O   0  0  0  0  0  0  0  0  0  0  0  0
  143.7900  157.8170  133.4760 C   0  0  0  0  0  0  0  0  0  0  0  0
  142.9800  157.7250  132.5140 O   0  0  0  0  0  0  0  0  0  0  0  0
  144.9460  158.6630  133.3620 N   0  0  0  0  0  0  0  0  0  0  0  0
  145.0070  160.0140  133.5290 C   0  0  0  0  0  0  0  0  0  0  0  0
  143.8540  160.9220  133.6960 C   0  0  0  0  0  0  0  0  0  0  0  0
  142.5290  160.4860  133.4040 N   0  0  0  0  0  0  0  0  0  0  0  0
  144.0450  162.1140  134.0570 O   0  0  0  0  0  0  0  0  0  0  0  0
  146.3240  160.4580  133.4360 C   0  0  0  0  0  0  0  0  0  0  0  0
  147.0730  159.3280  133.1970 C   0  0  0  0  0  0  0  0  0  0  0  0
  148.4450  159.1860  133.0220 C   0  0  0  0  0  0  0  0  0  0  0  0
  148.9500  157.8930  132.8130 C   0  0  0  0  0  0  0  0  0  0  0  0
  148.0910  156.7650  132.7930 C   0  0  0  0  0  0  0  0  0  0  0  0
  148.6690  155.4610  132.5750 N   0  0  0  0  0  0  0  0  0  0  0  0
  148.1870  154.2010  133.1460 C   0  0  0  0  0  0  0  0  0  0  0  0
  149.0390  153.0150  132.6610 C   0  0  1  0  0  0  0  0  0  0  0  0
  150.3590  153.4950  132.2420 N   0  0  0  0  0  0  0  0  0  0  0  0
  149.1680  151.9110  133.7250 C   0  0  0  0  0  0  0  0  0  0  0  0
  150.2640  151.1040  133.4740 F   0  0  0  0  0  0  0  0  0  0  0  0
  146.6970  156.9550  132.9740 C   0  0  0  0  0  0  0  0  0  0  0  0
  146.2190  158.2580  133.1580 C   0  0  0  0  0  0  0  0  0  0  0  0
  142.5113  157.0754  136.4195 H   0  0  0  0  0  0  0  0  0  0  0  0
  141.7547  157.9675  135.0562 H   0  0  0  0  0  0  0  0  0  0  0  0
  141.7691  156.1713  135.0562 H   0  0  0  0  0  0  0  0  0  0  0  0
  142.3460  159.7980  132.6400 H   0  0  0  0  0  0  0  0  0  0  0  0
  146.6880  161.4915  133.5329 H   0  0  0  0  0  0  0  0  0  0  0  0
  149.1136  160.0592  133.0465 H   0  0  0  0  0  0  0  0  0  0  0  0
  150.0305  157.7525  132.6622 H   0  0  0  0  0  0  0  0  0  0  0  0
  149.5020  155.3950  131.9460 H   0  0  0  0  0  0  0  0  0  0  0  0
  148.2420  154.2588  134.2431 H   0  0  0  0  0  0  0  0  0  0  0  0
  147.1482  154.0430  132.8204 H   0  0  0  0  0  0  0  0  0  0  0  0
  148.5251  152.5607  131.8010 H   0  0  0  0  0  0  0  0  0  0  0  0
  150.3580  153.6260  131.2040 H   0  0  0  0  0  0  0  0  0  0  0  0
  151.0810  152.7720  132.4660 H   0  0  0  0  0  0  0  0  0  0  0  0
  149.2840  152.3772  134.7145 H   0  0  0  0  0  0  0  0  0  0  0  0
  148.2613  151.2888  133.6953 H   0  0  0  0  0  0  0  0  0  0  0  0
  146.0073  156.0981  132.9699 H   0  0  0  0  0  0  0  0  0  0  0  0
  1  2  1  0
  2  3  1  0
  3  4  2  0
  3  5  1  0
  5  6  1  0
  6  7  1  0
  7  8  1  0
  7  9  2  0
  6 10  2  0
 10 11  1  0
 11 12  2  0
 12 13  1  0
 13 14  2  0
 14 15  1  0
 15 16  1  0
 16 17  1  0
 17 18  1  0
 17 19  1  0
 19 20  1  0
 14 21  1  0
 21 22  2  0
 22  5  1  0
 22 11  1  0
  1 23  1  0
  1 24  1  0
  1 25  1  0
  8 26  1  0
 10 27  1  0
 12 28  1  0
 13 29  1  0
 15 30  1  0
 16 31  1  0
 16 32  1  0
 17 33  1  6
 18 34  1  0
 18 35  1  0
 19 36  1  0
 19 37  1  0
 21 38  1  0
M  CHG  1   8  -1
M  END
>  <UniqueID>  (8) 
8

>  <SMILES>  (8) 
COC(=O)n1c(C([NH-])=O)cc2ccc(NC[C@@H](N)CF)cc21

>  <Energy>  (8) 
72.90549056108222

>  <Genealogy>  (8) 
COC(=O)n1c(C([NH-])=O)cc2ccc(NCC(N)CF)cc21 (protonated)
COC(=O)n1c(C([NH-])=O)cc2ccc(NC[C@@H](N)CF)cc21 (chirality)
COC(=O)n1c(C([NH-])=O)cc2ccc(NC[C@@H](N)CF)cc21 (3D coordinates assigned)
COC(=O)n1c(C([NH-])=O)cc2ccc(NC[C@@H](N)CF)cc21 (optimized conformer: 72.90549056108222 kcal/mol)

>  <smiles>  (8) 
COC(=O)n1c(C(N)=O)cc2ccc(NCC(N)CF)cc21

>  <score_type>  (8) 
oracle

>  <origin>  (8) 
adg

>  <m_score__min__energy>  (8) 
-6.2400000000000002

>  <m_primary>  (8) 
energy

$$$$
8:0
     RDKit          3D

 48 50  0  0  0  0  0  0  0  0999 V2000
  139.3180  155.5210  132.9240 C   0  0  0  0  0  0  0  0  0  0  0  0
  139.6870  156.9420  132.9450 N   0  0  0  0  0  0  0  0  0  0  0  0
  139.1810  157.7840  132.0000 C   0  0  0  0  0  0  0  0  0  0  0  0
  139.5180  159.1300  132.0070 C   0  0  0  0  0  0  0  0  0  0  0  0
  140.3800  159.6040  132.9910 C   0  0  0  0  0  0  0  0  0  0  0  0
  140.6820  160.8290  132.9940 O   0  0  0  0  0  0  0  0  0  0  0  0
  140.8890  158.7490  133.9360 N   0  0  0  0  0  0  0  0  0  0  0  0
  141.7790  159.2560  135.0010 C   0  0  0  0  0  0  0  0  0  0  0  0
  143.1580  159.5170  134.4540 C   0  0  0  0  0  0  0  0  0  0  0  0
  143.6080  160.8450  134.2500 C   0  0  0  0  0  0  0  0  0  0  0  0
  144.8880  161.0960  133.7270 C   0  0  0  0  0  0  0  0  0  0  0  0
  145.6860  160.0030  133.4040 C   0  0  0  0  0  0  0  0  0  0  0  0
  146.9700  159.9580  132.9100 C   0  0  0  0  0  0  0  0  0  0  0  0
  147.2740  158.6030  132.7940 C   0  0  0  0  0  0  0  0  0  0  0  0
  148.5430  158.0950  132.2310 C   0  0  0  0  0  0  0  0  0  0  0  0
  148.8110  156.6940  132.2340 N   0  0  0  0  0  0  0  0  0  0  0  0
  149.4080  158.8880  131.7760 O   0  0  0  0  0  0  0  0  0  0  0  0
  146.2210  157.8420  133.2030 N   0  0  0  0  0  0  0  0  0  0  0  0
  146.1590  156.4110  133.3100 C   0  0  0  0  0  0  0  0  0  0  0  0
  145.9480  155.7140  132.2800 O   0  0  0  0  0  0  0  0  0  0  0  0
  146.3020  155.8040  134.5620 O   0  0  0  0  0  0  0  0  0  0  0  0
  147.5640  155.4530  135.1260 C   0  0  0  0  0  0  0  0  0  0  0  0
  147.7700  153.9320  135.1380 C   0  0  0  0  0  0  0  0  0  0  0  0
  148.4680  153.4220  133.8700 C   0  0  0  0  0  0  0  0  0  0  0  0
  147.9570  154.0480  132.7230 O   0  0  0  0  0  0  0  0  0  0  0  0
  145.2570  158.7120  133.5740 C   0  0  0  0  0  0  0  0  0  0  0  0
  143.9970  158.4330  134.1130 C   0  0  0  0  0  0  0  0  0  0  0  0
  140.5370  157.4190  133.9100 C   0  0  0  0  0  0  0  0  0  0  0  0
  140.9970  156.6280  134.7810 O   0  0  0  0  0  0  0  0  0  0  0  0
  139.2221  155.1518  133.9557 H   0  0  0  0  0  0  0  0  0  0  0  0
  138.3584  155.3991  132.4003 H   0  0  0  0  0  0  0  0  0  0  0  0
  140.0970  154.9476  132.4003 H   0  0  0  0  0  0  0  0  0  0  0  0
  138.5017  157.3943  131.2275 H   0  0  0  0  0  0  0  0  0  0  0  0
  139.1100  159.8118  131.2463 H   0  0  0  0  0  0  0  0  0  0  0  0
  141.3656  160.1926  135.4033 H   0  0  0  0  0  0  0  0  0  0  0  0
  141.8485  158.5003  135.7973 H   0  0  0  0  0  0  0  0  0  0  0  0
  142.9487  161.6882  134.5036 H   0  0  0  0  0  0  0  0  0  0  0  0
  145.2478  162.1247  133.5776 H   0  0  0  0  0  0  0  0  0  0  0  0
  147.6185  160.8106  132.6599 H   0  0  0  0  0  0  0  0  0  0  0  0
  148.1040  156.0130  131.8820 H   0  0  0  0  0  0  0  0  0  0  0  0
  148.3636  155.9175  134.5303 H   0  0  0  0  0  0  0  0  0  0  0  0
  147.5906  155.8136  136.1649 H   0  0  0  0  0  0  0  0  0  0  0  0
  148.3855  153.6665  136.0102 H   0  0  0  0  0  0  0  0  0  0  0  0
  146.7769  153.4612  135.1844 H   0  0  0  0  0  0  0  0  0  0  0  0
  149.5451  153.6325  133.9440 H   0  0  0  0  0  0  0  0  0  0  0  0
  148.2893  152.3399  133.7852 H   0  0  0  0  0  0  0  0  0  0  0  0
  147.7480  154.9850  132.9790 H   0  0  0  0  0  0  0  0  0  0  0  0
  143.6675  157.3950  134.2676 H   0  0  0  0  0  0  0  0  0  0  0  0
  1  2  1  0
  2  3  1  0
  3  4  2  0
  4  5  1  0
  5  6  2  0
  5  7  1  0
  7  8  1  0
  8  9  1  0
  9 10  2  0
 10 11  1  0
 11 12  2  0
 12 13  1  0
 13 14  2  0
 14 15  1  0
 15 16  1  0
 15 17  2  0
 14 18  1  0
 18 19  1  0
 19 20  2  0
 19 21  1  0
 21 22  1  0
 22 23  1  0
 23 24  1  0
 24 25  1  0
 18 26  1  0
 26 27  2  0
  7 28  1  0
 28 29  2  0
 28  2  1  0
 27  9  1  0
 26 12  1  0
  1 30  1  0
  1 31  1  0
  1 32  1  0
  3 33  1  0
  4 34  1  0
  8 35  1  0
  8 36  1  0
 10 37  1  0
 11 38  1  0
 13 39  1  0
 16 40  1  0
 22 41  1  0
 22 42  1  0
 23 43  1  0
 23 44  1  0
 24 45  1  0
 24 46  1  0
 25 47  1  0
 27 48  1  0
M  CHG  1  16  -1
M  END
>  <UniqueID>  (9) 
9

>  <SMILES>  (9) 
Cn1ccc(=O)n(Cc2ccc3cc(C([NH-])=O)n(C(=O)OCCCO)c3c2)c1=O

>  <Energy>  (9) 
88.25027188243926

>  <Genealogy>  (9) 
Cn1ccc(=O)n(Cc2ccc3cc(C([NH-])=O)n(C(=O)OCCCO)c3c2)c1=O (protonated)
Cn1ccc(=O)n(Cc2ccc3cc(C([NH-])=O)n(C(=O)OCCCO)c3c2)c1=O (3D coordinates assigned)
Cn1ccc(=O)n(Cc2ccc3cc(C([NH-])=O)n(C(=O)OCCCO)c3c2)c1=O (optimized conformer: 88.25027188243926 kcal/mol)

>  <smiles>  (9) 
Cn1ccc(=O)n(Cc2ccc3cc(C(N)=O)n(C(=O)OCCCO)c3c2)c1=O

>  <score_type>  (9) 
oracle

>  <origin>  (9) 
adg

>  <m_score__min__energy>  (9) 
-6.7800000000000002

>  <m_primary>  (9) 
energy

$$$$
9:0
     RDKit          3D

 39 40  0  0  0  0  0  0  0  0999 V2000
  137.9990  148.9430  130.2270 C   0  0  0  0  0  0  0  0  0  0  0  0
  139.3110  148.9870  130.8800 N   0  0  0  0  0  0  0  0  0  0  0  0
  140.3980  148.1280  130.3950 C   0  0  0  0  0  0  0  0  0  0  0  0
  139.5160  149.9180  131.9670 C   0  0  0  0  0  0  0  0  0  0  0  0
  138.6510  150.8080  132.1950 O   0  0  0  0  0  0  0  0  0  0  0  0
  140.7130  149.8460  132.8830 C   0  0  0  0  0  0  0  0  0  0  0  0
  141.6650  151.0260  132.6470 C   0  0  0  0  0  0  0  0  0  0  0  0
  140.9390  152.2990  132.6080 N   0  0  0  0  0  0  0  0  0  0  0  0
  141.2470  153.4430  133.4260 C   0  0  0  0  0  0  0  0  0  0  0  0
  142.2940  153.3440  134.3760 C   0  0  0  0  0  0  0  0  0  0  0  0
  142.6520  154.4420  135.1730 C   0  0  0  0  0  0  0  0  0  0  0  0
  141.9410  155.6260  135.0100 C   0  0  0  0  0  0  0  0  0  0  0  0
  142.1000  156.8440  135.6270 C   0  0  0  0  0  0  0  0  0  0  0  0
  141.1260  157.6700  135.0710 C   0  0  0  0  0  0  0  0  0  0  0  0
  140.8900  159.0610  135.5150 C   0  0  0  0  0  0  0  0  0  0  0  0
  140.6320  159.3600  136.8840 N   0  0  0  0  0  0  0  0  0  0  0  0
  140.9660  160.0020  134.6810 O   0  0  0  0  0  0  0  0  0  0  0  0
  140.3980  156.9910  134.1390 N   0  0  0  0  0  0  0  0  0  0  0  0
  139.3690  157.5040  133.2790 C   0  0  0  0  0  0  0  0  0  0  0  0
  139.6420  157.8640  132.1030 O   0  0  0  0  0  0  0  0  0  0  0  0
  138.0560  157.5850  133.7270 O   0  0  0  0  0  0  0  0  0  0  0  0
  140.9090  155.7380  134.1160 C   0  0  0  0  0  0  0  0  0  0  0  0
  140.5410  154.6650  133.2960 C   0  0  0  0  0  0  0  0  0  0  0  0
  137.2093  148.9165  130.9923 H   0  0  0  0  0  0  0  0  0  0  0  0
  137.8716  149.8374  129.5994 H   0  0  0  0  0  0  0  0  0  0  0  0
  137.9318  148.0421  129.5994 H   0  0  0  0  0  0  0  0  0  0  0  0
  140.9384  147.7010  131.2527 H   0  0  0  0  0  0  0  0  0  0  0  0
  139.9782  147.3150  129.7844 H   0  0  0  0  0  0  0  0  0  0  0  0
  141.0920  148.7243  129.7844 H   0  0  0  0  0  0  0  0  0  0  0  0
  140.3674  149.8672  133.9271 H   0  0  0  0  0  0  0  0  0  0  0  0
  141.2564  148.9130  132.6728 H   0  0  0  0  0  0  0  0  0  0  0  0
  142.4026  151.0594  133.4623 H   0  0  0  0  0  0  0  0  0  0  0  0
  142.1623  150.8811  131.6766 H   0  0  0  0  0  0  0  0  0  0  0  0
  140.1350  152.3650  131.9440 H   0  0  0  0  0  0  0  0  0  0  0  0
  142.8339  152.3925  134.4903 H   0  0  0  0  0  0  0  0  0  0  0  0
  143.4702  154.3685  135.9045 H   0  0  0  0  0  0  0  0  0  0  0  0
  142.8396  157.1099  136.3966 H   0  0  0  0  0  0  0  0  0  0  0  0
  139.6580  159.3750  137.2560 H   0  0  0  0  0  0  0  0  0  0  0  0
  139.7230  154.7678  132.5678 H   0  0  0  0  0  0  0  0  0  0  0  0
  1  2  1  0
  2  3  1  0
  2  4  1  0
  4  5  2  0
  4  6  1  0
  6  7  1  0
  7  8  1  0
  8  9  1  0
  9 10  2  0
 10 11  1  0
 11 12  2  0
 12 13  1  0
 13 14  2  0
 14 15  1  0
 15 16  1  0
 15 17  2  0
 14 18  1  0
 18 19  1  0
 19 20  2  0
 19 21  1  0
 18 22  1  0
 22 23  2  0
 23  9  1  0
 22 12  1  0
  1 24  1  0
  1 25  1  0
  1 26  1  0
  3 27  1  0
  3 28  1  0
  3 29  1  0
  6 30  1  0
  6 31  1  0
  7 32  1  0
  7 33  1  0
  8 34  1  0
 10 35  1  0
 11 36  1  0
 13 37  1  0
 16 38  1  0
 23 39  1  0
M  CHG  2  16  -1  21  -1
M  END
>  <UniqueID>  (10) 
10

>  <SMILES>  (10) 
CN(C)C(=O)CCNc1ccc2cc(C([NH-])=O)n(C(=O)[O-])c2c1

>  <Energy>  (10) 
73.2952189332017

>  <Genealogy>  (10) 
CN(C)C(=O)CCNc1ccc2cc(C([NH-])=O)n(C(=O)[O-])c2c1 (protonated)
CN(C)C(=O)CCNc1ccc2cc(C([NH-])=O)n(C(=O)[O-])c2c1 (3D coordinates assigned)
CN(C)C(=O)CCNc1ccc2cc(C([NH-])=O)n(C(=O)[O-])c2c1 (optimized conformer: 73.2952189332017 kcal/mol)

>  <smiles>  (10) 
CN(C)C(=O)CCNc1ccc2cc(C(N)=O)n(C(=O)O)c2c1

>  <score_type>  (10) 
oracle

>  <origin>  (10) 
adg

>  <m_score__min__energy>  (10) 
-7.29

>  <m_primary>  (10) 
energy

$$$$
10:0
     RDKit          3D

 33 35  0  0  0  0  0  0  0  0999 V2000
  149.7800  157.8730  132.2060 C   0  0  0  0  0  0  0  0  0  0  0  0
  148.7360  158.9000  132.1190 N   0  0  0  0  0  0  0  0  0  0  0  0
  147.4060  158.6300  132.6230 C   0  0  0  0  0  0  0  0  0  0  0  0
  146.9650  157.2930  132.8150 C   0  0  0  0  0  0  0  0  0  0  0  0
  145.6790  157.0210  133.3110 C   0  0  0  0  0  0  0  0  0  0  0  0
  144.8480  158.0970  133.5990 C   0  0  0  0  0  0  0  0  0  0  0  0
  143.5720  158.1160  134.1110 C   0  0  0  0  0  0  0  0  0  0  0  0
  143.2320  159.4630  134.2050 C   0  0  0  0  0  0  0  0  0  0  0  0
  141.8980  159.9360  134.6330 C   0  0  0  0  0  0  0  0  0  0  0  0
  141.0250  160.5970  133.7210 N   0  0  0  0  0  0  0  0  0  0  0  0
  141.5050  159.7100  135.8080 O   0  0  0  0  0  0  0  0  0  0  0  0
  144.2620  160.2470  133.7760 N   0  0  0  0  0  0  0  0  0  0  0  0
  144.3450  161.6820  133.7890 C   0  0  0  0  0  0  0  0  0  0  0  0
  145.4000  162.2560  134.1680 O   0  0  0  0  0  0  0  0  0  0  0  0
  143.2700  162.4500  133.3600 O   0  0  0  0  0  0  0  0  0  0  0  0
  145.2430  159.3940  133.4050 C   0  0  0  0  0  0  0  0  0  0  0  0
  146.5260  159.6970  132.9340 C   0  0  0  0  0  0  0  0  0  0  0  0
  149.1150  160.2530  131.6920 C   0  0  0  0  0  0  0  0  0  0  0  0
  149.9670  160.2930  130.4310 C   0  0  0  0  0  0  0  0  0  0  0  0
  148.5000  160.6770  130.3670 C   0  0  0  0  0  0  0  0  0  0  0  0
  149.9971  157.6594  133.2630 H   0  0  0  0  0  0  0  0  0  0  0  0
  149.4330  156.9545  131.7101 H   0  0  0  0  0  0  0  0  0  0  0  0
  150.6927  158.2350  131.7101 H   0  0  0  0  0  0  0  0  0  0  0  0
  147.6400  156.4592  132.5719 H   0  0  0  0  0  0  0  0  0  0  0  0
  145.3397  155.9863  133.4669 H   0  0  0  0  0  0  0  0  0  0  0  0
  142.9516  157.2508  134.3876 H   0  0  0  0  0  0  0  0  0  0  0  0
  141.3210  161.4700  133.2320 H   0  0  0  0  0  0  0  0  0  0  0  0
  146.8449  160.7422  132.8078 H   0  0  0  0  0  0  0  0  0  0  0  0
  149.1884  160.6929  132.6975 H   0  0  0  0  0  0  0  0  0  0  0  0
  150.7428  161.0642  130.3158 H   0  0  0  0  0  0  0  0  0  0  0  0
  150.6056  159.5711  129.9009 H   0  0  0  0  0  0  0  0  0  0  0  0
  148.2131  161.7265  130.2050 H   0  0  0  0  0  0  0  0  0  0  0  0
  147.6360  160.3483  129.7708 H   0  0  0  0  0  0  0  0  0  0  0  0
  1  2  1  0
  2  3  1  0
  3  4  2  0
  4  5  1  0
  5  6  2  0
  6  7  1  0
  7  8  2  0
  8  9  1  0
  9 10  1  0
  9 11  2  0
  8 12  1  0
 12 13  1  0
 13 14  2  0
 13 15  1  0
 12 16  1  0
 16 17  2  0
  2 18  1  0
 18 19  1  0
 19 20  1  0
 17  3  1  0
 20 18  1  0
 16  6  1  0
  1 21  1  0
  1 22  1  0
  1 23  1  0
  4 24  1  0
  5 25  1  0
  7 26  1  0
 10 27  1  0
 17 28  1  0
 18 29  1  0
 19 30  1  0
 19 31  1  0
 20 32  1  0
 20 33  1  0
M  CHG  2  10  -1  15  -1
M  END
>  <UniqueID>  (11) 
11

>  <SMILES>  (11) 
CN(c1ccc2cc(C([NH-])=O)n(C(=O)[O-])c2c1)C1CC1

>  <Energy>  (11) 
339.9907395357596

>  <Genealogy>  (11) 
CN(c1ccc2cc(C([NH-])=O)n(C(=O)[O-])c2c1)C1CC1 (protonated)
CN(c1ccc2cc(C([NH-])=O)n(C(=O)[O-])c2c1)C1CC1 (3D coordinates assigned)
CN(c1ccc2cc(C([NH-])=O)n(C(=O)[O-])c2c1)C1CC1 (nonaromatic ring conformer: 339.9907395357596 kcal/mol)

>  <smiles>  (11) 
CN(c1ccc2cc(C(N)=O)n(C(=O)O)c2c1)C1CC1

>  <score_type>  (11) 
oracle

>  <origin>  (11) 
adg

>  <m_score__min__energy>  (11) 
-6.5899999999999999

>  <m_primary>  (11) 
energy

$$$$
11:0
     RDKit          3D

 36 38  0  0  0  0  0  0  0  0999 V2000
  149.8600  157.4540  132.2370 N   0  0  0  0  0  0  0  0  0  0  0  0
  148.9630  158.4010  131.6570 C   0  0  0  0  0  0  0  0  0  0  0  0
  149.2970  158.9970  130.5990 O   0  0  0  0  0  0  0  0  0  0  0  0
  147.6750  158.7350  132.3000 C   0  0  0  0  0  0  0  0  0  0  0  0
  147.2090  160.0380  132.4570 C   0  0  0  0  0  0  0  0  0  0  0  0
  146.0030  159.9150  133.1080 C   0  0  0  0  0  0  0  0  0  0  0  0
  145.0940  160.8940  133.4960 C   0  0  0  0  0  0  0  0  0  0  0  0
  143.9000  160.4800  134.1070 C   0  0  0  0  0  0  0  0  0  0  0  0
  143.6270  159.1010  134.3090 C   0  0  0  0  0  0  0  0  0  0  0  0
  142.3540  158.6720  134.9440 C   0  0  0  0  0  0  0  0  0  0  0  0
  141.4000  157.9390  134.2140 C   0  0  0  0  0  0  0  0  0  0  0  0
  140.2050  157.5350  134.8170 C   0  0  0  0  0  0  0  0  0  0  0  0
  139.9470  157.8600  136.1510 C   0  0  0  0  0  0  0  0  0  0  0  0
  138.7870  157.4680  136.7330 F   0  0  0  0  0  0  0  0  0  0  0  0
  140.8860  158.5880  136.8860 C   0  0  0  0  0  0  0  0  0  0  0  0
  142.0840  158.9920  136.2890 C   0  0  0  0  0  0  0  0  0  0  0  0
  144.5770  158.1370  133.8950 C   0  0  0  0  0  0  0  0  0  0  0  0
  145.7700  158.5800  133.3150 C   0  0  0  0  0  0  0  0  0  0  0  0
  146.7930  157.8410  132.8270 N   0  0  0  0  0  0  0  0  0  0  0  0
  146.8650  156.4070  132.7480 C   0  0  0  0  0  0  0  0  0  0  0  0
  147.9820  155.8350  132.8710 O   0  0  0  0  0  0  0  0  0  0  0  0
  145.6370  155.5670  132.5330 C   0  0  0  0  0  0  0  0  0  0  0  0
  145.9780  154.2290  132.2880 O   0  0  0  0  0  0  0  0  0  0  0  0
  150.7380  157.1920  131.7370 H   0  0  0  0  0  0  0  0  0  0  0  0
  149.7120  157.0870  133.2030 H   0  0  0  0  0  0  0  0  0  0  0  0
  147.6999  160.9666  132.1305 H   0  0  0  0  0  0  0  0  0  0  0  0
  145.3046  161.9607  133.3290 H   0  0  0  0  0  0  0  0  0  0  0  0
  143.1671  161.2326  134.4332 H   0  0  0  0  0  0  0  0  0  0  0  0
  141.5957  157.6823  133.1624 H   0  0  0  0  0  0  0  0  0  0  0  0
  139.4662  156.9599  134.2396 H   0  0  0  0  0  0  0  0  0  0  0  0
  140.6824  158.8438  137.9363 H   0  0  0  0  0  0  0  0  0  0  0  0
  142.8203  159.5633  136.8733 H   0  0  0  0  0  0  0  0  0  0  0  0
  144.3812  157.0626  134.0266 H   0  0  0  0  0  0  0  0  0  0  0  0
  145.0048  155.6180  133.4317 H   0  0  0  0  0  0  0  0  0  0  0  0
  145.0961  155.9560  131.6577 H   0  0  0  0  0  0  0  0  0  0  0  0
  146.8770  154.2370  131.8670 H   0  0  0  0  0  0  0  0  0  0  0  0
  1  2  1  0
  2  3  2  0
  2  4  1  0
  4  5  2  0
  5  6  1  0
  6  7  2  0
  7  8  1  0
  8  9  2  0
  9 10  1  0
 10 11  2  0
 11 12  1  0
 12 13  2  0
 13 14  1  0
 13 15  1  0
 15 16  2  0
  9 17  1  0
 17 18  2  0
 18 19  1  0
 19 20  1  0
 20 21  2  0
 20 22  1  0
 22 23  1  0
 19  4  1  0
 18  6  1  0
 16 10  1  0
  1 24  1  0
  1 25  1  0
  5 26  1  0
  7 27  1  0
  8 28  1  0
 11 29  1  0
 12 30  1  0
 15 31  1  0
 16 32  1  0
 17 33  1  0
 22 34  1  0
 22 35  1  0
 23 36  1  0
M  END
>  <UniqueID>  (12) 
12

>  <SMILES>  (12) 
NC(=O)c1cc2ccc(-c3ccc(F)cc3)cc2n1C(=O)CO

>  <Energy>  (12) 
83.83461990715236

>  <Genealogy>  (12) 
NC(=O)c1cc2ccc(-c3ccc(F)cc3)cc2n1C(=O)CO (3D coordinates assigned)
NC(=O)c1cc2ccc(-c3ccc(F)cc3)cc2n1C(=O)CO (optimized conformer: 83.83461990715236 kcal/mol)

>  <smiles>  (12) 
NC(=O)c1cc2ccc(-c3ccc(F)cc3)cc2n1C(=O)CO

>  <score_type>  (12) 
oracle

>  <origin>  (12) 
adg

>  <m_score__min__energy>  (12) 
-7.2000000000000002

>  <m_primary>  (12) 
energy

$$$$
12:0
     RDKit          3D

 42 43  0  0  0  0  0  0  0  0999 V2000
  139.9550  159.1880  131.6930 C   0  0  0  0  0  0  0  0  0  0  0  0
  140.1740  157.8950  132.2100 O   0  0  0  0  0  0  0  0  0  0  0  0
  139.8950  157.8870  133.5940 C   0  0  0  0  0  0  0  0  0  0  0  0
  140.5720  156.6800  134.2620 C   0  0  0  0  0  0  0  0  0  0  0  0
  141.1910  155.7490  133.2880 N   0  0  2  0  0  0  0  0  0  0  0  0
  140.2650  154.6460  132.9840 C   0  0  0  0  0  0  0  0  0  0  0  0
  142.4400  155.1910  133.7720 C   0  0  0  0  0  0  0  0  0  0  0  0
  142.4850  154.6170  134.8530 O   0  0  0  0  0  0  0  0  0  0  0  0
  143.6920  155.2790  132.9400 C   0  0  0  0  0  0  0  0  0  0  0  0
  144.3740  156.6010  133.1460 C   0  0  0  0  0  0  0  0  0  0  0  0
  145.7800  156.7080  133.0040 C   0  0  0  0  0  0  0  0  0  0  0  0
  146.4260  157.9410  133.1840 C   0  0  0  0  0  0  0  0  0  0  0  0
  145.6410  159.0500  133.4880 C   0  0  0  0  0  0  0  0  0  0  0  0
  146.0060  160.3580  133.7120 C   0  0  0  0  0  0  0  0  0  0  0  0
  144.8140  161.0380  133.9490 C   0  0  0  0  0  0  0  0  0  0  0  0
  144.7420  162.5020  134.1450 C   0  0  0  0  0  0  0  0  0  0  0  0
  143.8880  163.3100  133.3390 N   0  0  0  0  0  0  0  0  0  0  0  0
  145.4820  163.0530  135.0030 O   0  0  0  0  0  0  0  0  0  0  0  0
  143.7530  160.1840  133.8860 N   0  0  0  0  0  0  0  0  0  0  0  0
  142.3690  160.4740  134.1350 C   0  0  0  0  0  0  0  0  0  0  0  0
  141.7280  161.2300  133.3590 O   0  0  0  0  0  0  0  0  0  0  0  0
  141.7300  159.9420  135.2490 O   0  0  0  0  0  0  0  0  0  0  0  0
  144.2770  158.9700  133.6000 C   0  0  0  0  0  0  0  0  0  0  0  0
  143.6090  157.7500  133.4470 C   0  0  0  0  0  0  0  0  0  0  0  0
  139.8345  159.8994  132.5233 H   0  0  0  0  0  0  0  0  0  0  0  0
  140.8153  159.4868  131.0761 H   0  0  0  0  0  0  0  0  0  0  0  0
  139.0443  159.1868  131.0761 H   0  0  0  0  0  0  0  0  0  0  0  0
  140.2753  158.8144  134.0472 H   0  0  0  0  0  0  0  0  0  0  0  0
  138.8072  157.8170  133.7417 H   0  0  0  0  0  0  0  0  0  0  0  0
  141.3553  157.0489  134.9405 H   0  0  0  0  0  0  0  0  0  0  0  0
  139.7916  156.1217  134.7998 H   0  0  0  0  0  0  0  0  0  0  0  0
  141.3620  156.2660  132.3930 H   0  0  0  0  0  0  0  0  0  0  0  0
  139.8966  154.2072  133.9230 H   0  0  0  0  0  0  0  0  0  0  0  0
  139.4153  155.0307  132.4009 H   0  0  0  0  0  0  0  0  0  0  0  0
  140.7911  153.8758  132.4009 H   0  0  0  0  0  0  0  0  0  0  0  0
  144.3773  154.4697  133.2321 H   0  0  0  0  0  0  0  0  0  0  0  0
  143.4190  155.1833  131.8787 H   0  0  0  0  0  0  0  0  0  0  0  0
  146.3710  155.8157  132.7501 H   0  0  0  0  0  0  0  0  0  0  0  0
  147.5183  158.0284  133.0879 H   0  0  0  0  0  0  0  0  0  0  0  0
  147.0230  160.7772  133.7053 H   0  0  0  0  0  0  0  0  0  0  0  0
  142.9440  162.9720  133.0530 H   0  0  0  0  0  0  0  0  0  0  0  0
  142.5164  157.6872  133.5582 H   0  0  0  0  0  0  0  0  0  0  0  0
  1  2  1  0
  2  3  1  0
  3  4  1  0
  4  5  1  0
  5  6  1  0
  5  7  1  0
  7  8  2  0
  7  9  1  0
  9 10  1  0
 10 11  2  0
 11 12  1  0
 12 13  2  0
 13 14  1  0
 14 15  2  0
 15 16  1  0
 16 17  1  0
 16 18  2  0
 15 19  1  0
 19 20  1  0
 20 21  2  0
 20 22  1  0
 19 23  1  0
 23 24  2  0
 24 10  1  0
 23 13  1  0
  1 25  1  0
  1 26  1  0
  1 27  1  0
  3 28  1  0
  3 29  1  0
  4 30  1  0
  4 31  1  0
  5 32  1  6
  6 33  1  0
  6 34  1  0
  6 35  1  0
  9 36  1  0
  9 37  1  0
 11 38  1  0
 12 39  1  0
 14 40  1  0
 17 41  1  0
 24 42  1  0
M  CHG  3   5   1  17  -1  22  -1
M  END
>  <UniqueID>  (13) 
13

>  <SMILES>  (13) 
COCC[N@H+](C)C(=O)Cc1ccc2cc(C([NH-])=O)n(C(=O)[O-])c2c1

>  <Energy>  (13) 
77.54605325264501

>  <Genealogy>  (13) 
COCC[NH+](C)C(=O)Cc1ccc2cc(C([NH-])=O)n(C(=O)[O-])c2c1 (protonated)
COCC[N@H+](C)C(=O)Cc1ccc2cc(C([NH-])=O)n(C(=O)[O-])c2c1 (chirality)
COCC[N@H+](C)C(=O)Cc1ccc2cc(C([NH-])=O)n(C(=O)[O-])c2c1 (3D coordinates assigned)
COCC[N@H+](C)C(=O)Cc1ccc2cc(C([NH-])=O)n(C(=O)[O-])c2c1 (optimized conformer: 77.54605325264501 kcal/mol)

>  <smiles>  (13) 
COCCN(C)C(=O)Cc1ccc2cc(C(N)=O)n(C(=O)O)c2c1

>  <score_type>  (13) 
oracle

>  <origin>  (13) 
adg

>  <m_score__min__energy>  (13) 
-6.1699999999999999

>  <m_primary>  (13) 
energy

$$$$
13:0
     RDKit          3D

 38 40  0  0  0  0  0  0  0  0999 V2000
  149.7480  157.6510  131.8480 N   0  0  0  0  0  0  0  0  0  0  0  0
  149.2330  158.9540  132.1100 C   0  0  0  0  0  0  0  0  0  0  0  0
  149.9330  159.9620  131.8260 O   0  0  0  0  0  0  0  0  0  0  0  0
  147.8730  159.1390  132.6560 C   0  0  0  0  0  0  0  0  0  0  0  0
  147.3390  160.3850  132.9780 C   0  0  0  0  0  0  0  0  0  0  0  0
  146.0390  160.1390  133.3570 C   0  0  0  0  0  0  0  0  0  0  0  0
  145.0510  161.0180  133.7880 C   0  0  0  0  0  0  0  0  0  0  0  0
  143.8020  160.4830  134.1440 C   0  0  0  0  0  0  0  0  0  0  0  0
  143.5620  159.0850  134.0730 C   0  0  0  0  0  0  0  0  0  0  0  0
  142.2420  158.5290  134.4640 C   0  0  0  0  0  0  0  0  0  0  0  0
  141.7010  158.7930  135.7340 C   0  0  0  0  0  0  0  0  0  0  0  0
  140.4580  158.2610  136.0820 C   0  0  0  0  0  0  0  0  0  0  0  0
  139.7720  157.4920  135.1950 N   0  0  0  0  0  0  0  0  0  0  0  0
  140.2660  157.2190  133.9590 C   0  0  0  0  0  0  0  0  0  0  0  0
  139.5490  156.4520  133.1010 F   0  0  0  0  0  0  0  0  0  0  0  0
  141.5070  157.7300  133.5710 C   0  0  0  0  0  0  0  0  0  0  0  0
  144.5970  158.2260  133.6320 C   0  0  0  0  0  0  0  0  0  0  0  0
  145.8240  158.7890  133.2640 C   0  0  0  0  0  0  0  0  0  0  0  0
  146.9410  158.1590  132.8400 N   0  0  0  0  0  0  0  0  0  0  0  0
  147.1120  156.7420  132.6940 C   0  0  0  0  0  0  0  0  0  0  0  0
  146.9820  156.2080  131.5580 O   0  0  0  0  0  0  0  0  0  0  0  0
  147.4580  155.9670  133.8070 O   0  0  0  0  0  0  0  0  0  0  0  0
  147.4060  154.5410  133.8260 C   0  0  0  0  0  0  0  0  0  0  0  0
  148.5020  153.9450  132.9450 C   0  0  0  0  0  0  0  0  0  0  0  0
  149.4490  154.9250  132.6200 O   0  0  0  0  0  0  0  0  0  0  0  0
  149.1070  156.8470  131.6690 H   0  0  0  0  0  0  0  0  0  0  0  0
  147.8486  161.3590  132.9378 H   0  0  0  0  0  0  0  0  0  0  0  0
  145.2420  162.0996  133.8482 H   0  0  0  0  0  0  0  0  0  0  0  0
  142.9997  161.1553  134.4820 H   0  0  0  0  0  0  0  0  0  0  0  0
  142.2549  159.4165  136.4512 H   0  0  0  0  0  0  0  0  0  0  0  0
  140.0327  158.4644  137.0759 H   0  0  0  0  0  0  0  0  0  0  0  0
  141.9074  157.5080  132.5708 H   0  0  0  0  0  0  0  0  0  0  0  0
  144.4400  157.1385  133.5797 H   0  0  0  0  0  0  0  0  0  0  0  0
  147.5430  154.1892  134.8592 H   0  0  0  0  0  0  0  0  0  0  0  0
  146.4284  154.2193  133.4376 H   0  0  0  0  0  0  0  0  0  0  0  0
  148.9980  153.1260  133.4865 H   0  0  0  0  0  0  0  0  0  0  0  0
  148.0490  153.5629  132.0183 H   0  0  0  0  0  0  0  0  0  0  0  0
  148.9380  155.6850  132.2390 H   0  0  0  0  0  0  0  0  0  0  0  0
  1  2  1  0
  2  3  2  0
  2  4  1  0
  4  5  2  0
  5  6  1  0
  6  7  2  0
  7  8  1  0
  8  9  2  0
  9 10  1  0
 10 11  2  0
 11 12  1  0
 12 13  2  0
 13 14  1  0
 14 15  1  0
 14 16  2  0
  9 17  1  0
 17 18  2  0
 18 19  1  0
 19 20  1  0
 20 21  2  0
 20 22  1  0
 22 23  1  0
 23 24  1  0
 24 25  1  0
 19  4  1  0
 18  6  1  0
 16 10  1  0
  1 26  1  0
  5 27  1  0
  7 28  1  0
  8 29  1  0
 11 30  1  0
 12 31  1  0
 16 32  1  0
 17 33  1  0
 23 34  1  0
 23 35  1  0
 24 36  1  0
 24 37  1  0
 25 38  1  0
M  CHG  1   1  -1
M  END
>  <UniqueID>  (14) 
14

>  <SMILES>  (14) 
[NH-]C(=O)c1cc2ccc(-c3ccnc(F)c3)cc2n1C(=O)OCCO

>  <Energy>  (14) 
82.39905757847677

>  <Genealogy>  (14) 
[NH-]C(=O)c1cc2ccc(-c3ccnc(F)c3)cc2n1C(=O)OCCO (protonated)
[NH-]C(=O)c1cc2ccc(-c3ccnc(F)c3)cc2n1C(=O)OCCO (3D coordinates assigned)
[NH-]C(=O)c1cc2ccc(-c3ccnc(F)c3)cc2n1C(=O)OCCO (optimized conformer: 82.39905757847677 kcal/mol)

>  <smiles>  (14) 
NC(=O)c1cc2ccc(-c3ccnc(F)c3)cc2n1C(=O)OCCO

>  <score_type>  (14) 
oracle

>  <origin>  (14) 
adg

>  <m_score__min__energy>  (14) 
-6.5499999999999998

>  <m_primary>  (14) 
energy

$$$$
14:0
     RDKit          3D

 47 48  0  0  0  0  0  0  0  0999 V2000
  144.3900  154.5100  131.8830 C   0  0  0  0  0  0  0  0  0  0  0  0
  144.2960  154.8440  133.2590 O   0  0  0  0  0  0  0  0  0  0  0  0
  145.4220  155.0550  134.0600 C   0  0  0  0  0  0  0  0  0  0  0  0
  145.5410  154.4510  135.1600 O   0  0  0  0  0  0  0  0  0  0  0  0
  146.4590  155.9430  133.6150 N   0  0  0  0  0  0  0  0  0  0  0  0
  147.7650  155.6410  133.3530 C   0  0  0  0  0  0  0  0  0  0  0  0
  148.3540  154.2870  133.3480 C   0  0  0  0  0  0  0  0  0  0  0  0
  148.0090  153.3600  134.3750 N   0  0  0  0  0  0  0  0  0  0  0  0
  149.1910  153.9520  132.4660 O   0  0  0  0  0  0  0  0  0  0  0  0
  148.4750  156.7900  133.0040 C   0  0  0  0  0  0  0  0  0  0  0  0
  147.5550  157.8140  133.0620 C   0  0  0  0  0  0  0  0  0  0  0  0
  147.7210  159.1780  132.8410 C   0  0  0  0  0  0  0  0  0  0  0  0
  146.6130  160.0180  133.0420 C   0  0  0  0  0  0  0  0  0  0  0  0
  145.3700  159.4840  133.4760 C   0  0  0  0  0  0  0  0  0  0  0  0
  144.2370  160.4070  133.8480 C   0  0  0  0  0  0  0  0  0  0  0  0
  142.9610  159.6230  134.2050 C   0  0  0  0  0  0  0  0  0  0  0  0
  141.7270  160.1060  133.4380 C   0  0  0  0  0  0  0  0  0  0  0  0
  140.9520  158.9910  133.0090 O   0  0  0  0  0  0  0  0  0  0  0  0
  140.1010  158.2820  133.8630 C   0  0  0  0  0  0  0  0  0  0  0  0
  138.8530  158.3420  133.7000 O   0  0  0  0  0  0  0  0  0  0  0  0
  140.6520  157.4920  134.9330 N   0  0  0  0  0  0  0  0  0  0  0  0
  141.6230  156.4340  134.6310 C   0  0  0  0  0  0  0  0  0  0  0  0
  140.1770  157.6950  136.3110 C   0  0  0  0  0  0  0  0  0  0  0  0
  140.8370  158.9040  136.9040 C   0  0  0  0  0  0  0  0  0  0  0  0
  141.6290  158.7810  137.8760 O   0  0  0  0  0  0  0  0  0  0  0  0
  140.6090  160.1640  136.3620 O   0  0  0  0  0  0  0  0  0  0  0  0
  145.2320  158.0920  133.6650 C   0  0  0  0  0  0  0  0  0  0  0  0
  146.3480  157.2780  133.4370 C   0  0  0  0  0  0  0  0  0  0  0  0
  144.6867  153.4557  131.7810 H   0  0  0  0  0  0  0  0  0  0  0  0
  143.4135  154.6644  131.4007 H   0  0  0  0  0  0  0  0  0  0  0  0
  145.1426  155.1510  131.4007 H   0  0  0  0  0  0  0  0  0  0  0  0
  147.0280  153.0220  134.4840 H   0  0  0  0  0  0  0  0  0  0  0  0
  149.5402  156.8628  132.7394 H   0  0  0  0  0  0  0  0  0  0  0  0
  148.6904  159.5860  132.5187 H   0  0  0  0  0  0  0  0  0  0  0  0
  146.7087  161.0989  132.8618 H   0  0  0  0  0  0  0  0  0  0  0  0
  144.5392  161.0113  134.7160 H   0  0  0  0  0  0  0  0  0  0  0  0
  144.0162  161.0472  132.9812 H   0  0  0  0  0  0  0  0  0  0  0  0
  143.1254  158.5608  133.9711 H   0  0  0  0  0  0  0  0  0  0  0  0
  142.7659  159.7826  135.2757 H   0  0  0  0  0  0  0  0  0  0  0  0
  141.1162  160.7429  134.0948 H   0  0  0  0  0  0  0  0  0  0  0  0
  142.0514  160.6801  132.5575 H   0  0  0  0  0  0  0  0  0  0  0  0
  142.0099  156.0124  135.5704 H   0  0  0  0  0  0  0  0  0  0  0  0
  141.1318  155.6410  134.0481 H   0  0  0  0  0  0  0  0  0  0  0  0
  142.4552  156.8556  134.0481 H   0  0  0  0  0  0  0  0  0  0  0  0
  139.0868  157.8411  136.3035 H   0  0  0  0  0  0  0  0  0  0  0  0
  140.4288  156.8111  136.9154 H   0  0  0  0  0  0  0  0  0  0  0  0
  144.2726  157.6581  133.9831 H   0  0  0  0  0  0  0  0  0  0  0  0
  1  2  1  0
  2  3  1  0
  3  4  2  0
  3  5  1  0
  5  6  1  0
  6  7  1  0
  7  8  1  0
  7  9  2  0
  6 10  2  0
 10 11  1  0
 11 12  2  0
 12 13  1  0
 13 14  2  0
 14 15  1  0
 15 16  1  0
 16 17  1  0
 17 18  1  0
 18 19  1  0
 19 20  2  0
 19 21  1  0
 21 22  1  0
 21 23  1  0
 23 24  1  0
 24 25  2  0
 24 26  1  0
 14 27  1  0
 27 28  2  0
 28  5  1  0
 28 11  1  0
  1 29  1  0
  1 30  1  0
  1 31  1  0
  8 32  1  0
 10 33  1  0
 12 34  1  0
 13 35  1  0
 15 36  1  0
 15 37  1  0
 16 38  1  0
 16 39  1  0
 17 40  1  0
 17 41  1  0
 22 42  1  0
 22 43  1  0
 22 44  1  0
 23 45  1  0
 23 46  1  0
 27 47  1  0
M  CHG  2   8  -1  26  -1
M  END
>  <UniqueID>  (15) 
15

>  <SMILES>  (15) 
COC(=O)n1c(C([NH-])=O)cc2ccc(CCCOC(=O)N(C)CC(=O)[O-])cc21

>  <Energy>  (15) 
74.42382618763739

>  <Genealogy>  (15) 
COC(=O)n1c(C([NH-])=O)cc2ccc(CCCOC(=O)N(C)CC(=O)[O-])cc21 (protonated)
COC(=O)n1c(C([NH-])=O)cc2ccc(CCCOC(=O)N(C)CC(=O)[O-])cc21 (3D coordinates assigned)
COC(=O)n1c(C([NH-])=O)cc2ccc(CCCOC(=O)N(C)CC(=O)[O-])cc21 (optimized conformer: 74.42382618763739 kcal/mol)

>  <smiles>  (15) 
COC(=O)n1c(C(N)=O)cc2ccc(CCCOC(=O)N(C)CC(=O)O)cc21

>  <score_type>  (15) 
oracle

>  <origin>  (15) 
adg

>  <m_score__min__energy>  (15) 
-7.1299999999999999

>  <m_primary>  (15) 
energy

$$$$
15:0
     RDKit          3D

 40 43  0  0  0  0  0  0  0  0999 V2000
  144.0530  153.7350  132.5980 C   0  0  0  0  0  0  0  0  0  0  0  0
  144.7830  153.9960  133.8740 C   0  0  0  0  0  0  0  0  0  0  0  0
  145.8840  153.3850  134.2440 O   0  0  0  0  0  0  0  0  0  0  0  0
  146.2170  153.9120  135.3990 C   0  0  0  0  0  0  0  0  0  0  0  0
  147.2290  153.5640  136.0590 O   0  0  0  0  0  0  0  0  0  0  0  0
  145.3780  154.8450  135.7900 O   0  0  0  0  0  0  0  0  0  0  0  0
  144.4670  154.9250  134.8490 C   0  0  0  0  0  0  0  0  0  0  0  0
  143.3010  155.8670  134.8740 C   0  0  0  0  0  0  0  0  0  0  0  0
  143.7420  157.2180  134.7530 O   0  0  0  0  0  0  0  0  0  0  0  0
  144.0480  157.8180  133.5270 C   0  0  0  0  0  0  0  0  0  0  0  0
  143.2400  157.7450  132.5610 O   0  0  0  0  0  0  0  0  0  0  0  0
  145.2890  158.5180  133.3690 N   0  0  0  0  0  0  0  0  0  0  0  0
  145.4960  159.8640  133.3680 C   0  0  0  0  0  0  0  0  0  0  0  0
  144.4880  160.8960  133.6900 C   0  0  0  0  0  0  0  0  0  0  0  0
  143.1120  160.7010  133.3770 N   0  0  0  0  0  0  0  0  0  0  0  0
  144.8410  161.9470  134.2900 O   0  0  0  0  0  0  0  0  0  0  0  0
  146.8360  160.1510  133.1130 C   0  0  0  0  0  0  0  0  0  0  0  0
  147.4490  158.9270  132.9690 C   0  0  0  0  0  0  0  0  0  0  0  0
  148.7780  158.6170  132.7000 C   0  0  0  0  0  0  0  0  0  0  0  0
  149.1300  157.2620  132.5840 C   0  0  0  0  0  0  0  0  0  0  0  0
  148.1520  156.2420  132.7310 C   0  0  0  0  0  0  0  0  0  0  0  0
  148.5050  154.8100  132.6020 C   0  0  0  0  0  0  0  0  0  0  0  0
  147.6430  153.8010  132.3710 N   0  0  0  0  0  0  0  0  0  0  0  0
  148.3450  152.6820  132.3240 N   0  0  0  0  0  0  0  0  0  0  0  0
  149.6260  153.0450  132.5290 C   0  0  0  0  0  0  0  0  0  0  0  0
  149.7280  154.3430  132.6990 O   0  0  0  0  0  0  0  0  0  0  0  0
  146.8120  156.6020  133.0040 C   0  0  0  0  0  0  0  0  0  0  0  0
  146.4940  157.9580  133.1290 C   0  0  0  0  0  0  0  0  0  0  0  0
  143.0391  153.3725  132.8232 H   0  0  0  0  0  0  0  0  0  0  0  0
  143.9886  154.6658  132.0154 H   0  0  0  0  0  0  0  0  0  0  0  0
  144.5934  152.9744  132.0154 H   0  0  0  0  0  0  0  0  0  0  0  0
  142.6277  155.6306  134.0369 H   0  0  0  0  0  0  0  0  0  0  0  0
  142.7734  155.7516  135.8323 H   0  0  0  0  0  0  0  0  0  0  0  0
  142.8070  159.9260  132.7480 H   0  0  0  0  0  0  0  0  0  0  0  0
  147.3039  161.1440  133.0420 H   0  0  0  0  0  0  0  0  0  0  0  0
  149.5314  159.4097  132.5816 H   0  0  0  0  0  0  0  0  0  0  0  0
  150.1749  156.9875  132.3770 H   0  0  0  0  0  0  0  0  0  0  0  0
  146.6090  153.8480  132.2470 H   0  0  0  0  0  0  0  0  0  0  0  0
  150.4750  152.3459  132.5511 H   0  0  0  0  0  0  0  0  0  0  0  0
  146.0355  155.8310  133.1158 H   0  0  0  0  0  0  0  0  0  0  0  0
  1  2  1  0
  2  3  1  0
  3  4  1  0
  4  5  2  0
  4  6  1  0
  6  7  1  0
  7  8  1  0
  8  9  1  0
  9 10  1  0
 10 11  2  0
 10 12  1  0
 12 13  1  0
 13 14  1  0
 14 15  1  0
 14 16  2  0
 13 17  2  0
 17 18  1  0
 18 19  2  0
 19 20  1  0
 20 21  2  0
 21 22  1  0
 22 23  2  0
 23 24  1  0
 24 25  2  0
 25 26  1  0
 21 27  1  0
 27 28  2  0
  7  2  2  0
 28 12  1  0
 28 18  1  0
 26 22  1  0
  1 29  1  0
  1 30  1  0
  1 31  1  0
  8 32  1  0
  8 33  1  0
 15 34  1  0
 17 35  1  0
 19 36  1  0
 20 37  1  0
 23 38  1  0
 25 39  1  0
 27 40  1  0
M  CHG  2  15  -1  23   1
M  END
>  <UniqueID>  (16) 
16

>  <SMILES>  (16) 
Cc1oc(=O)oc1COC(=O)n1c(C([NH-])=O)cc2ccc(-c3[nH+]nco3)cc21

>  <Energy>  (16) 
148.7230517067079

>  <Genealogy>  (16) 
Cc1oc(=O)oc1COC(=O)n1c(C([NH-])=O)cc2ccc(-c3[nH+]nco3)cc21 (protonated)
Cc1oc(=O)oc1COC(=O)n1c(C([NH-])=O)cc2ccc(-c3[nH+]nco3)cc21 (3D coordinates assigned)
Cc1oc(=O)oc1COC(=O)n1c(C([NH-])=O)cc2ccc(-c3[nH+]nco3)cc21 (optimized conformer: 148.7230517067079 kcal/mol)

>  <smiles>  (16) 
Cc1oc(=O)oc1COC(=O)n1c(C(N)=O)cc2ccc(-c3nnco3)cc21

>  <score_type>  (16) 
oracle

>  <origin>  (16) 
adg

>  <m_score__min__energy>  (16) 
-6.9299999999999997

>  <m_primary>  (16) 
energy

$$$$
16:0
     RDKit          3D

 33 34  0  0  0  0  0  0  0  0999 V2000
  138.3630  158.1000  131.2580 N   0  0  0  0  0  0  0  0  0  0  0  0
  139.5960  158.6280  131.7530 C   0  0  0  0  0  0  0  0  0  0  0  0
  140.3480  159.2630  130.9670 O   0  0  0  0  0  0  0  0  0  0  0  0
  139.9800  158.4570  133.1730 C   0  0  0  0  0  0  0  0  0  0  0  0
  140.3040  159.5080  134.0300 C   0  0  0  0  0  0  0  0  0  0  0  0
  140.6660  158.9130  135.2180 C   0  0  0  0  0  0  0  0  0  0  0  0
  141.0770  159.4840  136.4180 C   0  0  0  0  0  0  0  0  0  0  0  0
  141.3660  158.6260  137.4920 C   0  0  0  0  0  0  0  0  0  0  0  0
  141.2140  157.2220  137.3600 C   0  0  0  0  0  0  0  0  0  0  0  0
  141.5620  156.3100  138.5090 C   0  0  0  0  0  0  0  0  0  0  0  0
  140.4300  155.6680  138.9820 F   0  0  0  0  0  0  0  0  0  0  0  0
  142.1170  157.0560  139.5310 F   0  0  0  0  0  0  0  0  0  0  0  0
  142.4710  155.3450  138.1100 F   0  0  0  0  0  0  0  0  0  0  0  0
  140.8160  156.6780  136.1150 C   0  0  0  0  0  0  0  0  0  0  0  0
  140.5560  157.5570  135.0570 C   0  0  0  0  0  0  0  0  0  0  0  0
  140.1430  157.2610  133.8070 N   0  0  0  0  0  0  0  0  0  0  0  0
  139.8680  155.9510  133.2860 C   0  0  0  0  0  0  0  0  0  0  0  0
  138.8190  155.7580  132.6130 O   0  0  0  0  0  0  0  0  0  0  0  0
  140.7910  154.8770  133.5240 N   0  0  0  0  0  0  0  0  0  0  0  0
  140.5410  153.5080  133.1690 C   0  0  0  0  0  0  0  0  0  0  0  0
  139.4590  153.1710  132.6160 O   0  0  0  0  0  0  0  0  0  0  0  0
  141.5860  152.4680  133.4320 C   0  0  0  0  0  0  0  0  0  0  0  0
  140.9880  151.2080  133.5580 O   0  0  0  0  0  0  0  0  0  0  0  0
  137.7410  157.5150  131.8580 H   0  0  0  0  0  0  0  0  0  0  0  0
  138.0870  158.2610  130.2640 H   0  0  0  0  0  0  0  0  0  0  0  0
  140.2763  160.5844  133.8049 H   0  0  0  0  0  0  0  0  0  0  0  0
  141.1728  160.5748  136.5228 H   0  0  0  0  0  0  0  0  0  0  0  0
  141.7142  159.0478  138.4464 H   0  0  0  0  0  0  0  0  0  0  0  0
  140.7135  155.5909  135.9823 H   0  0  0  0  0  0  0  0  0  0  0  0
  141.7060  155.1090  133.9730 H   0  0  0  0  0  0  0  0  0  0  0  0
  142.3003  152.4500  132.5957 H   0  0  0  0  0  0  0  0  0  0  0  0
  142.1114  152.7130  134.3669 H   0  0  0  0  0  0  0  0  0  0  0  0
  140.0210  151.3330  133.3720 H   0  0  0  0  0  0  0  0  0  0  0  0
  1  2  1  0
  2  3  2  0
  2  4  1  0
  4  5  2  0
  5  6  1  0
  6  7  2  0
  7  8  1  0
  8  9  2  0
  9 10  1  0
 10 11  1  0
 10 12  1  0
 10 13  1  0
  9 14  1  0
 14 15  2  0
 15 16  1  0
 16 17  1  0
 17 18  2  0
 17 19  1  0
 19 20  1  0
 20 21  2  0
 20 22  1  0
 22 23  1  0
 16  4  1  0
 15  6  1  0
  1 24  1  0
  1 25  1  0
  5 26  1  0
  7 27  1  0
  8 28  1  0
 14 29  1  0
 19 30  1  0
 22 31  1  0
 22 32  1  0
 23 33  1  0
M  END
>  <UniqueID>  (17) 
17

>  <SMILES>  (17) 
NC(=O)c1cc2ccc(C(F)(F)F)cc2n1C(=O)NC(=O)CO

>  <Energy>  (17) 
71.3862296651939

>  <Genealogy>  (17) 
NC(=O)c1cc2ccc(C(F)(F)F)cc2n1C(=O)NC(=O)CO (3D coordinates assigned)
NC(=O)c1cc2ccc(C(F)(F)F)cc2n1C(=O)NC(=O)CO (optimized conformer: 71.3862296651939 kcal/mol)

>  <smiles>  (17) 
NC(=O)c1cc2ccc(C(F)(F)F)cc2n1C(=O)NC(=O)CO

>  <score_type>  (17) 
oracle

>  <origin>  (17) 
adg

>  <m_score__min__energy>  (17) 
-6.6900000000000004

>  <m_primary>  (17) 
energy

$$$$
17:0
     RDKit          3D

 37 38  0  0  0  0  0  0  0  0999 V2000
  139.5110  159.5810  132.1100 C   0  0  0  0  0  0  0  0  0  0  0  0
  140.0280  158.7350  133.1130 O   0  0  0  0  0  0  0  0  0  0  0  0
  141.1990  158.0780  132.6600 C   0  0  0  0  0  0  0  0  0  0  0  0
  141.3520  156.7360  133.3700 C   0  0  2  0  0  0  0  0  0  0  0  0
  140.1070  156.2720  133.7590 F   0  0  0  0  0  0  0  0  0  0  0  0
  142.1870  156.8950  134.5130 O   0  0  0  0  0  0  0  0  0  0  0  0
  142.7730  158.1140  134.8680 C   0  0  0  0  0  0  0  0  0  0  0  0
  142.1980  158.8810  135.6870 O   0  0  0  0  0  0  0  0  0  0  0  0
  144.0200  158.5020  134.2720 N   0  0  0  0  0  0  0  0  0  0  0  0
  144.3510  159.7040  133.7170 C   0  0  0  0  0  0  0  0  0  0  0  0
  143.5190  160.9250  133.7300 C   0  0  0  0  0  0  0  0  0  0  0  0
  142.1020  160.8180  133.6080 N   0  0  0  0  0  0  0  0  0  0  0  0
  144.0460  162.0650  133.8090 O   0  0  0  0  0  0  0  0  0  0  0  0
  145.6430  159.6610  133.1960 C   0  0  0  0  0  0  0  0  0  0  0  0
  146.1010  158.3910  133.4590 C   0  0  0  0  0  0  0  0  0  0  0  0
  147.3230  157.7990  133.1490 C   0  0  0  0  0  0  0  0  0  0  0  0
  147.5170  156.4580  133.5190 C   0  0  0  0  0  0  0  0  0  0  0  0
  146.4950  155.7380  134.1860 C   0  0  0  0  0  0  0  0  0  0  0  0
  146.6970  154.2910  134.5390 C   0  0  0  0  0  0  0  0  0  0  0  0
  147.3070  154.1740  135.8970 C   0  0  0  0  0  0  0  0  0  0  0  0
  148.1000  155.0590  136.3140 O   0  0  0  0  0  0  0  0  0  0  0  0
  146.9640  153.1130  136.7250 O   0  0  0  0  0  0  0  0  0  0  0  0
  145.2630  156.3670  134.4690 C   0  0  0  0  0  0  0  0  0  0  0  0
  145.1050  157.7110  134.1080 C   0  0  0  0  0  0  0  0  0  0  0  0
  138.9920  160.4303  132.5783 H   0  0  0  0  0  0  0  0  0  0  0  0
  140.3353  159.9546  131.4847 H   0  0  0  0  0  0  0  0  0  0  0  0
  138.8025  159.0179  131.4847 H   0  0  0  0  0  0  0  0  0  0  0  0
  141.1261  157.9101  131.5753 H   0  0  0  0  0  0  0  0  0  0  0  0
  142.0744  158.7060  132.8822 H   0  0  0  0  0  0  0  0  0  0  0  0
  141.8106  156.0083  132.6843 H   0  0  0  0  0  0  0  0  0  0  0  0
  141.6000  159.9590  133.9260 H   0  0  0  0  0  0  0  0  0  0  0  0
  146.1822  160.4711  132.6831 H   0  0  0  0  0  0  0  0  0  0  0  0
  148.1116  158.3641  132.6306 H   0  0  0  0  0  0  0  0  0  0  0  0
  148.4714  155.9620  133.2888 H   0  0  0  0  0  0  0  0  0  0  0  0
  145.7253  153.7756  134.5311 H   0  0  0  0  0  0  0  0  0  0  0  0
  147.3708  153.8312  133.8010 H   0  0  0  0  0  0  0  0  0  0  0  0
  144.4480  155.8155  134.9605 H   0  0  0  0  0  0  0  0  0  0  0  0
  1  2  1  0
  2  3  1  0
  3  4  1  0
  4  5  1  0
  4  6  1  0
  6  7  1  0
  7  8  2  0
  7  9  1  0
  9 10  1  0
 10 11  1  0
 11 12  1  0
 11 13  2  0
 10 14  2  0
 14 15  1  0
 15 16  2  0
 16 17  1  0
 17 18  2  0
 18 19  1  0
 19 20  1  0
 20 21  2  0
 20 22  1  0
 18 23  1  0
 23 24  2  0
 24  9  1  0
 24 15  1  0
  1 25  1  0
  1 26  1  0
  1 27  1  0
  3 28  1  0
  3 29  1  0
  4 30  1  6
 12 31  1  0
 14 32  1  0
 16 33  1  0
 17 34  1  0
 19 35  1  0
 19 36  1  0
 23 37  1  0
M  CHG  2  12  -1  22  -1
M  END
>  <UniqueID>  (18) 
18

>  <SMILES>  (18) 
COC[C@H](F)OC(=O)n1c(C([NH-])=O)cc2ccc(CC(=O)[O-])cc21

>  <Energy>  (18) 
71.42960286248334

>  <Genealogy>  (18) 
COCC(F)OC(=O)n1c(C([NH-])=O)cc2ccc(CC(=O)[O-])cc21 (protonated)
COC[C@H](F)OC(=O)n1c(C([NH-])=O)cc2ccc(CC(=O)[O-])cc21 (chirality)
COC[C@H](F)OC(=O)n1c(C([NH-])=O)cc2ccc(CC(=O)[O-])cc21 (3D coordinates assigned)
COC[C@H](F)OC(=O)n1c(C([NH-])=O)cc2ccc(CC(=O)[O-])cc21 (optimized conformer: 71.42960286248334 kcal/mol)

>  <smiles>  (18) 
COCC(F)OC(=O)n1c(C(N)=O)cc2ccc(CC(=O)O)cc21

>  <score_type>  (18) 
oracle

>  <origin>  (18) 
adg

>  <m_score__min__energy>  (18) 
-6.2599999999999998

>  <m_primary>  (18) 
energy

$$$$
18:0
     RDKit          3D

 46 47  0  0  0  0  0  0  0  0999 V2000
  138.5010  159.6900  130.9590 C   0  0  0  0  0  0  0  0  0  0  0  0
  139.8490  159.2890  131.1690 O   0  0  0  0  0  0  0  0  0  0  0  0
  140.4720  159.3780  132.4170 C   0  0  0  0  0  0  0  0  0  0  0  0
  140.5790  160.4890  133.0070 O   0  0  0  0  0  0  0  0  0  0  0  0
  141.0760  158.1520  133.0310 C   0  0  0  0  0  0  0  0  0  0  0  0
  141.9120  158.4950  134.2710 C   0  0  0  0  0  0  0  0  0  0  0  0
  143.2870  158.9930  133.8980 C   0  0  0  0  0  0  0  0  0  0  0  0
  143.6030  160.3680  134.0280 C   0  0  0  0  0  0  0  0  0  0  0  0
  144.8980  160.8310  133.7440 C   0  0  0  0  0  0  0  0  0  0  0  0
  145.8510  159.9020  133.3340 C   0  0  0  0  0  0  0  0  0  0  0  0
  147.1840  160.0730  133.0390 C   0  0  0  0  0  0  0  0  0  0  0  0
  147.6560  158.8010  132.7150 C   0  0  0  0  0  0  0  0  0  0  0  0
  149.0340  158.5240  132.2500 C   0  0  0  0  0  0  0  0  0  0  0  0
  149.4340  157.1910  131.9120 N   0  0  0  0  0  0  0  0  0  0  0  0
  149.8810  159.4550  132.1850 O   0  0  0  0  0  0  0  0  0  0  0  0
  146.6530  157.8830  132.8020 N   0  0  0  0  0  0  0  0  0  0  0  0
  146.7580  156.4620  132.6300 C   0  0  0  0  0  0  0  0  0  0  0  0
  146.9650  155.9800  131.4820 O   0  0  0  0  0  0  0  0  0  0  0  0
  146.6120  155.6170  133.7330 O   0  0  0  0  0  0  0  0  0  0  0  0
  147.6830  155.3100  134.6190 C   0  0  0  0  0  0  0  0  0  0  0  0
  148.0400  153.8260  134.5160 C   0  0  0  0  0  0  0  0  0  0  0  0
  148.0770  153.3380  133.0620 C   0  0  0  0  0  0  0  0  0  0  0  0
  146.7670  153.1790  132.5890 O   0  0  0  0  0  0  0  0  0  0  0  0
  148.7410  154.2810  132.2650 O   0  0  0  0  0  0  0  0  0  0  0  0
  145.5550  158.5720  133.1860 C   0  0  0  0  0  0  0  0  0  0  0  0
  144.2780  158.0790  133.4780 C   0  0  0  0  0  0  0  0  0  0  0  0
  138.0066  159.8371  131.9306 H   0  0  0  0  0  0  0  0  0  0  0  0
  138.4829  160.6324  130.3920 H   0  0  0  0  0  0  0  0  0  0  0  0
  137.9707  158.9107  130.3920 H   0  0  0  0  0  0  0  0  0  0  0  0
  140.2687  157.4645  133.3237 H   0  0  0  0  0  0  0  0  0  0  0  0
  141.7388  157.6854  132.2873 H   0  0  0  0  0  0  0  0  0  0  0  0
  141.3935  159.2769  134.8452 H   0  0  0  0  0  0  0  0  0  0  0  0
  142.0299  157.5791  134.8687 H   0  0  0  0  0  0  0  0  0  0  0  0
  142.8284  161.0779  134.3537 H   0  0  0  0  0  0  0  0  0  0  0  0
  145.1523  161.8967  133.8426 H   0  0  0  0  0  0  0  0  0  0  0  0
  147.7557  161.0126  133.0552 H   0  0  0  0  0  0  0  0  0  0  0  0
  148.7400  156.4170  131.8530 H   0  0  0  0  0  0  0  0  0  0  0  0
  150.4220  156.9990  131.6350 H   0  0  0  0  0  0  0  0  0  0  0  0
  148.5617  155.9152  134.3514 H   0  0  0  0  0  0  0  0  0  0  0  0
  147.3738  155.5357  135.6502 H   0  0  0  0  0  0  0  0  0  0  0  0
  149.0303  153.6678  134.9680 H   0  0  0  0  0  0  0  0  0  0  0  0
  147.2626  153.2544  135.0442 H   0  0  0  0  0  0  0  0  0  0  0  0
  148.6087  152.3761  133.0161 H   0  0  0  0  0  0  0  0  0  0  0  0
  146.5020  154.0530  132.2020 H   0  0  0  0  0  0  0  0  0  0  0  0
  148.1780  154.4230  131.4590 H   0  0  0  0  0  0  0  0  0  0  0  0
  144.0521  157.0067  133.3827 H   0  0  0  0  0  0  0  0  0  0  0  0
  1  2  1  0
  2  3  1  0
  3  4  2  0
  3  5  1  0
  5  6  1  0
  6  7  1  0
  7  8  2  0
  8  9  1  0
  9 10  2  0
 10 11  1  0
 11 12  2  0
 12 13  1  0
 13 14  1  0
 13 15  2  0
 12 16  1  0
 16 17  1  0
 17 18  2  0
 17 19  1  0
 19 20  1  0
 20 21  1  0
 21 22  1  0
 22 23  1  0
 22 24  1  0
 16 25  1  0
 25 26  2  0
 26  7  1  0
 25 10  1  0
  1 27  1  0
  1 28  1  0
  1 29  1  0
  5 30  1  0
  5 31  1  0
  6 32  1  0
  6 33  1  0
  8 34  1  0
  9 35  1  0
 11 36  1  0
 14 37  1  0
 14 38  1  0
 20 39  1  0
 20 40  1  0
 21 41  1  0
 21 42  1  0
 22 43  1  0
 23 44  1  0
 24 45  1  0
 26 46  1  0
M  END
>  <UniqueID>  (19) 
19

>  <SMILES>  (19) 
COC(=O)CCc1ccc2cc(C(N)=O)n(C(=O)OCCC(O)O)c2c1

>  <Energy>  (19) 
72.10045532812579

>  <Genealogy>  (19) 
COC(=O)CCc1ccc2cc(C(N)=O)n(C(=O)OCCC(O)O)c2c1 (3D coordinates assigned)
COC(=O)CCc1ccc2cc(C(N)=O)n(C(=O)OCCC(O)O)c2c1 (optimized conformer: 72.10045532812579 kcal/mol)

>  <smiles>  (19) 
COC(=O)CCc1ccc2cc(C(N)=O)n(C(=O)OCCC(O)O)c2c1

>  <score_type>  (19) 
oracle

>  <origin>  (19) 
adg

>  <m_score__min__energy>  (19) 
-6.4400000000000004

>  <m_primary>  (19) 
energy

$$$$
19:0
     RDKit          3D

 43 44  0  0  0  0  0  0  0  0999 V2000
  139.4420  148.2680  130.1270 C   0  0  0  0  0  0  0  0  0  0  0  0
  140.3270  149.0140  130.7920 C   0  0  0  0  0  0  0  0  0  0  0  0
  139.9590  149.7010  132.0800 C   0  0  0  0  0  0  0  0  0  0  0  0
  139.8900  148.7610  133.0960 F   0  0  0  0  0  0  0  0  0  0  0  0
  138.7080  150.2810  131.9480 F   0  0  0  0  0  0  0  0  0  0  0  0
  140.9880  150.7550  132.4230 C   0  0  0  0  0  0  0  0  0  0  0  0
  142.3520  150.4000  132.5920 C   0  0  0  0  0  0  0  0  0  0  0  0
  143.3030  151.3620  132.9710 C   0  0  0  0  0  0  0  0  0  0  0  0
  142.8650  152.6650  133.1820 C   0  0  0  0  0  0  0  0  0  0  0  0
  143.5650  153.7770  133.5900 C   0  0  0  0  0  0  0  0  0  0  0  0
  142.6230  154.8000  133.6650 C   0  0  0  0  0  0  0  0  0  0  0  0
  142.9660  156.1990  133.9930 C   0  0  0  0  0  0  0  0  0  0  0  0
  142.5230  156.7690  135.2240 N   0  0  0  0  0  0  0  0  0  0  0  0
  143.6770  156.8880  133.2140 O   0  0  0  0  0  0  0  0  0  0  0  0
  141.3870  154.3390  133.3230 N   0  0  0  0  0  0  0  0  0  0  0  0
  140.1430  155.0560  133.3510 C   0  0  0  0  0  0  0  0  0  0  0  0
  139.0810  154.4890  132.9740 O   0  0  0  0  0  0  0  0  0  0  0  0
  140.1090  156.3720  133.8280 O   0  0  0  0  0  0  0  0  0  0  0  0
  139.3880  157.4190  133.1830 C   0  0  0  0  0  0  0  0  0  0  0  0
  140.1510  158.7140  133.2770 C   0  0  0  0  0  0  0  0  0  0  0  0
  139.7470  159.6830  132.6470 O   0  0  0  0  0  0  0  0  0  0  0  0
  141.3530  158.8170  134.0820 N   0  0  0  0  0  0  0  0  0  0  0  0
  141.0470  159.4110  135.3940 C   0  0  0  0  0  0  0  0  0  0  0  0
  142.3660  159.6150  133.3730 C   0  0  0  0  0  0  0  0  0  0  0  0
  141.5530  153.0290  133.0280 C   0  0  0  0  0  0  0  0  0  0  0  0
  140.5810  152.0880  132.6700 C   0  0  0  0  0  0  0  0  0  0  0  0
  139.7335  147.7754  129.1877 H   0  0  0  0  0  0  0  0  0  0  0  0
  138.4213  148.1459  130.5184 H   0  0  0  0  0  0  0  0  0  0  0  0
  141.3449  149.1290  130.3911 H   0  0  0  0  0  0  0  0  0  0  0  0
  142.6679  149.3598  132.4243 H   0  0  0  0  0  0  0  0  0  0  0  0
  144.3621  151.0928  133.0970 H   0  0  0  0  0  0  0  0  0  0  0  0
  144.6407  153.8438  133.8103 H   0  0  0  0  0  0  0  0  0  0  0  0
  141.5180  157.0140  135.3720 H   0  0  0  0  0  0  0  0  0  0  0  0
  139.2418  157.1600  132.1240 H   0  0  0  0  0  0  0  0  0  0  0  0
  138.4138  157.5409  133.6791 H   0  0  0  0  0  0  0  0  0  0  0  0
  141.7540  157.8640  134.2480 H   0  0  0  0  0  0  0  0  0  0  0  0
  141.3940  158.7374  136.1914 H   0  0  0  0  0  0  0  0  0  0  0  0
  141.5576  160.3810  135.4854 H   0  0  0  0  0  0  0  0  0  0  0  0
  139.9608  159.5584  135.4854 H   0  0  0  0  0  0  0  0  0  0  0  0
  143.0109  160.1230  134.1051 H   0  0  0  0  0  0  0  0  0  0  0  0
  142.9779  158.9537  132.7419 H   0  0  0  0  0  0  0  0  0  0  0  0
  141.8664  160.3648  132.7419 H   0  0  0  0  0  0  0  0  0  0  0  0
  139.5235  152.3780  132.5824 H   0  0  0  0  0  0  0  0  0  0  0  0
  1  2  2  0
  2  3  1  0
  3  4  1  0
  3  5  1  0
  3  6  1  0
  6  7  2  0
  7  8  1  0
  8  9  2  0
  9 10  1  0
 10 11  2  0
 11 12  1  0
 12 13  1  0
 12 14  2  0
 11 15  1  0
 15 16  1  0
 16 17  2  0
 16 18  1  0
 18 19  1  0
 19 20  1  0
 20 21  2  0
 20 22  1  0
 22 23  1  0
 22 24  1  0
 15 25  1  0
 25 26  2  0
 26  6  1  0
 25  9  1  0
  1 27  1  0
  1 28  1  0
  2 29  1  0
  7 30  1  0
  8 31  1  0
 10 32  1  0
 13 33  1  0
 19 34  1  0
 19 35  1  0
 22 36  1  0
 23 37  1  0
 23 38  1  0
 23 39  1  0
 24 40  1  0
 24 41  1  0
 24 42  1  0
 26 43  1  0
M  CHG  2  13  -1  22   1
M  END
>  <UniqueID>  (20) 
20

>  <SMILES>  (20) 
C=CC(F)(F)c1ccc2cc(C([NH-])=O)n(C(=O)OCC(=O)[NH+](C)C)c2c1

>  <Energy>  (20) 
76.69542892297233

>  <Genealogy>  (20) 
C=CC(F)(F)c1ccc2cc(C([NH-])=O)n(C(=O)OCC(=O)[NH+](C)C)c2c1 (protonated)
C=CC(F)(F)c1ccc2cc(C([NH-])=O)n(C(=O)OCC(=O)[NH+](C)C)c2c1 (3D coordinates assigned)
C=CC(F)(F)c1ccc2cc(C([NH-])=O)n(C(=O)OCC(=O)[NH+](C)C)c2c1 (optimized conformer: 76.69542892297233 kcal/mol)

>  <smiles>  (20) 
C=CC(F)(F)c1ccc2cc(C(N)=O)n(C(=O)OCC(=O)N(C)C)c2c1

>  <score_type>  (20) 
oracle

>  <origin>  (20) 
adg

>  <m_score__min__energy>  (20) 
-5.4699999999999998

>  <m_primary>  (20) 
energy

$$$$
20:0
     RDKit          3D

 31 32  0  0  0  0  0  0  0  0999 V2000
  146.4250  160.4840  132.9890 N   0  0  0  0  0  0  0  0  0  0  0  0
  145.5850  159.3980  133.3820 C   0  0  0  0  0  0  0  0  0  0  0  0
  144.4360  159.6450  133.8340 O   0  0  0  0  0  0  0  0  0  0  0  0
  146.0380  157.9980  133.2270 C   0  0  0  0  0  0  0  0  0  0  0  0
  145.1980  156.8910  133.3460 C   0  0  0  0  0  0  0  0  0  0  0  0
  146.0210  155.7950  133.2320 C   0  0  0  0  0  0  0  0  0  0  0  0
  145.7110  154.4390  133.2570 C   0  0  0  0  0  0  0  0  0  0  0  0
  146.7590  153.5200  133.0810 C   0  0  0  0  0  0  0  0  0  0  0  0
  148.0920  153.9660  132.8950 C   0  0  0  0  0  0  0  0  0  0  0  0
  149.1970  152.9720  132.6440 C   0  0  0  0  0  0  0  0  0  0  0  0
  149.4680  152.2430  133.7880 F   0  0  0  0  0  0  0  0  0  0  0  0
  150.3590  153.6190  132.2590 F   0  0  0  0  0  0  0  0  0  0  0  0
  148.8100  152.1060  131.6380 F   0  0  0  0  0  0  0  0  0  0  0  0
  148.3620  155.3550  132.8510 C   0  0  0  0  0  0  0  0  0  0  0  0
  147.3020  156.2470  133.0490 C   0  0  0  0  0  0  0  0  0  0  0  0
  147.3290  157.5990  133.0420 N   0  0  0  0  0  0  0  0  0  0  0  0
  148.4830  158.4280  132.8230 C   0  0  0  0  0  0  0  0  0  0  0  0
  148.9050  159.1790  133.7450 O   0  0  0  0  0  0  0  0  0  0  0  0
  149.1230  158.4120  131.5800 O   0  0  0  0  0  0  0  0  0  0  0  0
  149.9560  159.4730  131.1290 C   0  0  0  0  0  0  0  0  0  0  0  0
  149.1030  160.6340  130.7400 C   0  0  0  0  0  0  0  0  0  0  0  0
  149.6250  161.7590  130.5230 O   0  0  0  0  0  0  0  0  0  0  0  0
  147.7370  160.4610  130.5600 O   0  0  0  0  0  0  0  0  0  0  0  0
  147.4030  160.3240  132.6620 H   0  0  0  0  0  0  0  0  0  0  0  0
  146.0810  161.4680  133.0650 H   0  0  0  0  0  0  0  0  0  0  0  0
  144.1086  156.8939  133.4986 H   0  0  0  0  0  0  0  0  0  0  0  0
  144.6768  154.0968  133.4099 H   0  0  0  0  0  0  0  0  0  0  0  0
  146.5428  152.4415  133.0876 H   0  0  0  0  0  0  0  0  0  0  0  0
  149.3813  155.7246  132.6655 H   0  0  0  0  0  0  0  0  0  0  0  0
  150.6398  159.7729  131.9368 H   0  0  0  0  0  0  0  0  0  0  0  0
  150.5437  159.1387  130.2614 H   0  0  0  0  0  0  0  0  0  0  0  0
  1  2  1  0
  2  3  2  0
  2  4  1  0
  4  5  2  0
  5  6  1  0
  6  7  2  0
  7  8  1  0
  8  9  2  0
  9 10  1  0
 10 11  1  0
 10 12  1  0
 10 13  1  0
  9 14  1  0
 14 15  2  0
 15 16  1  0
 16 17  1  0
 17 18  2  0
 17 19  1  0
 19 20  1  0
 20 21  1  0
 21 22  2  0
 21 23  1  0
 16  4  1  0
 15  6  1  0
  1 24  1  0
  1 25  1  0
  5 26  1  0
  7 27  1  0
  8 28  1  0
 14 29  1  0
 20 30  1  0
 20 31  1  0
M  CHG  1  23  -1
M  END
>  <UniqueID>  (21) 
21

>  <SMILES>  (21) 
NC(=O)c1cc2ccc(C(F)(F)F)cc2n1C(=O)OCC(=O)[O-]

>  <Energy>  (21) 
67.34506112854852

>  <Genealogy>  (21) 
NC(=O)c1cc2ccc(C(F)(F)F)cc2n1C(=O)OCC(=O)[O-] (protonated)
NC(=O)c1cc2ccc(C(F)(F)F)cc2n1C(=O)OCC(=O)[O-] (3D coordinates assigned)
NC(=O)c1cc2ccc(C(F)(F)F)cc2n1C(=O)OCC(=O)[O-] (optimized conformer: 67.34506112854852 kcal/mol)

>  <smiles>  (21) 
NC(=O)c1cc2ccc(C(F)(F)F)cc2n1C(=O)OCC(=O)O

>  <score_type>  (21) 
oracle

>  <origin>  (21) 
adg

>  <m_score__min__energy>  (21) 
-5.7599999999999998

>  <m_primary>  (21) 
energy

$$$$
21:0
     RDKit          3D

 48 50  0  0  0  0  0  0  0  0999 V2000
  142.1710  149.9970  132.2580 C   0  0  0  0  0  0  0  0  0  0  0  0
  141.2840  150.1340  133.4570 C   0  0  0  0  0  0  0  0  0  0  0  0
  140.2600  149.4070  133.5490 O   0  0  0  0  0  0  0  0  0  0  0  0
  141.5520  151.0850  134.4960 N   0  0  0  0  0  0  0  0  0  0  0  0
  141.5350  152.5390  134.3400 C   0  0  0  0  0  0  0  0  0  0  0  0
  140.6100  152.9030  133.1670 C   0  0  0  0  0  0  0  0  0  0  0  0
  140.5430  154.4280  132.9900 C   0  0  0  0  0  0  0  0  0  0  0  0
  141.8720  155.0440  133.1190 N   0  0  0  0  0  0  0  0  0  0  0  0
  141.9850  156.4610  133.3530 C   0  0  0  0  0  0  0  0  0  0  0  0
  140.8380  157.2230  133.6940 C   0  0  0  0  0  0  0  0  0  0  0  0
  140.9390  158.6000  133.9520 C   0  0  0  0  0  0  0  0  0  0  0  0
  142.1960  159.1900  133.8600 C   0  0  0  0  0  0  0  0  0  0  0  0
  142.5820  160.4900  134.0900 C   0  0  0  0  0  0  0  0  0  0  0  0
  143.9570  160.5120  133.8720 C   0  0  0  0  0  0  0  0  0  0  0  0
  144.7690  161.7450  133.9300 C   0  0  0  0  0  0  0  0  0  0  0  0
  146.1840  161.6830  134.0880 N   0  0  0  0  0  0  0  0  0  0  0  0
  144.2120  162.8660  133.7890 O   0  0  0  0  0  0  0  0  0  0  0  0
  144.4070  159.2710  133.5270 N   0  0  0  0  0  0  0  0  0  0  0  0
  145.7650  158.8570  133.3190 C   0  0  0  0  0  0  0  0  0  0  0  0
  146.2950  158.0200  134.0980 O   0  0  0  0  0  0  0  0  0  0  0  0
  146.5050  159.4070  132.2650 O   0  0  0  0  0  0  0  0  0  0  0  0
  147.8870  159.7510  132.3810 C   0  0  0  0  0  0  0  0  0  0  0  0
  148.2660  159.7270  133.7300 O   0  0  0  0  0  0  0  0  0  0  0  0
  148.1140  161.0290  131.8530 O   0  0  0  0  0  0  0  0  0  0  0  0
  143.3150  158.4750  133.5220 C   0  0  0  0  0  0  0  0  0  0  0  0
  143.2460  157.0980  133.2790 C   0  0  0  0  0  0  0  0  0  0  0  0
  143.0650  154.1900  133.0730 C   0  0  0  0  0  0  0  0  0  0  0  0
  142.9740  153.0850  134.1380 C   0  0  0  0  0  0  0  0  0  0  0  0
  143.2087  149.8367  132.5860 H   0  0  0  0  0  0  0  0  0  0  0  0
  141.8408  149.1392  131.6537 H   0  0  0  0  0  0  0  0  0  0  0  0
  142.1150  150.9144  131.6537 H   0  0  0  0  0  0  0  0  0  0  0  0
  141.1435  153.0104  135.2535 H   0  0  0  0  0  0  0  0  0  0  0  0
  140.9989  152.4479  132.2442 H   0  0  0  0  0  0  0  0  0  0  0  0
  139.5994  152.5239  133.3790 H   0  0  0  0  0  0  0  0  0  0  0  0
  140.1392  154.6547  131.9922 H   0  0  0  0  0  0  0  0  0  0  0  0
  139.8941  154.8388  133.7775 H   0  0  0  0  0  0  0  0  0  0  0  0
  139.8571  156.7292  133.7572 H   0  0  0  0  0  0  0  0  0  0  0  0
  140.0521  159.1936  134.2185 H   0  0  0  0  0  0  0  0  0  0  0  0
  141.9403  161.3337  134.3839 H   0  0  0  0  0  0  0  0  0  0  0  0
  146.7910  161.2760  133.3420 H   0  0  0  0  0  0  0  0  0  0  0  0
  148.4847  159.0198  131.8170 H   0  0  0  0  0  0  0  0  0  0  0  0
  147.4420  159.9060  134.2540 H   0  0  0  0  0  0  0  0  0  0  0  0
  147.5270  161.6520  132.3550 H   0  0  0  0  0  0  0  0  0  0  0  0
  144.1523  156.5240  133.0359 H   0  0  0  0  0  0  0  0  0  0  0  0
  143.1423  153.7285  132.0775 H   0  0  0  0  0  0  0  0  0  0  0  0
  143.9535  154.8068  133.2735 H   0  0  0  0  0  0  0  0  0  0  0  0
  143.6232  152.2515  133.8317 H   0  0  0  0  0  0  0  0  0  0  0  0
  143.2895  153.5290  135.0937 H   0  0  0  0  0  0  0  0  0  0  0  0
  1  2  1  0
  2  3  2  0
  2  4  1  0
  4  5  1  0
  5  6  1  0
  6  7  1  0
  7  8  1  0
  8  9  1  0
  9 10  2  0
 10 11  1  0
 11 12  2  0
 12 13  1  0
 13 14  2  0
 14 15  1  0
 15 16  1  0
 15 17  2  0
 14 18  1  0
 18 19  1  0
 19 20  2  0
 19 21  1  0
 21 22  1  0
 22 23  1  0
 22 24  1  0
 18 25  1  0
 25 26  2  0
  8 27  1  0
 27 28  1  0
 28  5  1  0
 26  9  1  0
 25 12  1  0
  1 29  1  0
  1 30  1  0
  1 31  1  0
  5 32  1  0
  6 33  1  0
  6 34  1  0
  7 35  1  0
  7 36  1  0
 10 37  1  0
 11 38  1  0
 13 39  1  0
 16 40  1  0
 22 41  1  0
 23 42  1  0
 24 43  1  0
 26 44  1  0
 27 45  1  0
 27 46  1  0
 28 47  1  0
 28 48  1  0
M  CHG  2   4  -1  16  -1
M  END
>  <UniqueID>  (22) 
22

>  <SMILES>  (22) 
CC(=O)[N-]C1CCN(c2ccc3cc(C([NH-])=O)n(C(=O)OC(O)O)c3c2)CC1

>  <Energy>  (22) 
89.3561748807631

>  <Genealogy>  (22) 
CC(=O)[N-]C1CCN(c2ccc3cc(C([NH-])=O)n(C(=O)OC(O)O)c3c2)CC1 (protonated)
CC(=O)[N-]C1CCN(c2ccc3cc(C([NH-])=O)n(C(=O)OC(O)O)c3c2)CC1 (3D coordinates assigned)
CC(=O)[N-]C1CCN(c2ccc3cc(C([NH-])=O)n(C(=O)OC(O)O)c3c2)CC1 (nonaromatic ring conformer: 89.3561748807631 kcal/mol)

>  <smiles>  (22) 
CC(=O)NC1CCN(c2ccc3cc(C(N)=O)n(C(=O)OC(O)O)c3c2)CC1

>  <score_type>  (22) 
oracle

>  <origin>  (22) 
adg

>  <m_score__min__energy>  (22) 
-7.1699999999999999

>  <m_primary>  (22) 
energy

$$$$
22:0
     RDKit          3D

 37 39  0  0  0  0  0  0  0  0999 V2000
  139.1070  158.2650  131.6360 C   0  0  0  0  0  0  0  0  0  0  0  0
  139.8550  157.9400  132.6950 C   0  0  0  0  0  0  0  0  0  0  0  0
  139.6310  156.6600  133.4150 C   0  0  0  0  0  0  0  0  0  0  0  0
  138.7330  155.8650  133.0260 O   0  0  0  0  0  0  0  0  0  0  0  0
  140.4420  156.2880  134.5420 N   0  0  0  0  0  0  0  0  0  0  0  0
  140.6240  156.9600  135.7160 C   0  0  0  0  0  0  0  0  0  0  0  0
  139.8560  158.1510  136.1450 C   0  0  0  0  0  0  0  0  0  0  0  0
  140.3770  159.4690  135.9750 N   0  0  0  0  0  0  0  0  0  0  0  0
  138.7320  158.0080  136.6900 O   0  0  0  0  0  0  0  0  0  0  0  0
  141.5440  156.2850  136.5200 C   0  0  0  0  0  0  0  0  0  0  0  0
  141.9050  155.1660  135.8050 C   0  0  0  0  0  0  0  0  0  0  0  0
  142.7890  154.1390  136.1280 C   0  0  0  0  0  0  0  0  0  0  0  0
  142.9710  153.1060  135.1920 C   0  0  0  0  0  0  0  0  0  0  0  0
  142.2840  153.1250  133.9480 C   0  0  0  0  0  0  0  0  0  0  0  0
  142.4670  151.9830  132.9790 C   0  0  0  0  0  0  0  0  0  0  0  0
  143.7870  151.8810  132.5690 F   0  0  0  0  0  0  0  0  0  0  0  0
  142.1040  150.7870  133.5730 F   0  0  0  0  0  0  0  0  0  0  0  0
  141.6690  152.1960  131.8700 F   0  0  0  0  0  0  0  0  0  0  0  0
  141.3860  154.1810  133.6640 C   0  0  0  0  0  0  0  0  0  0  0  0
  141.2150  155.1860  134.6220 C   0  0  0  0  0  0  0  0  0  0  0  0
  140.8390  158.8790  133.1610 N   0  0  0  0  0  0  0  0  0  0  0  0
  140.5770  160.1320  133.4900 N   0  0  0  0  0  0  0  0  0  0  0  0
  141.7020  160.7120  133.8840 N   0  0  0  0  0  0  0  0  0  0  0  0
  142.7050  159.8510  133.8120 N   0  0  0  0  0  0  0  0  0  0  0  0
  142.1600  158.7110  133.3500 C   0  0  0  0  0  0  0  0  0  0  0  0
  142.9480  157.4740  133.0630 C   0  0  0  0  0  0  0  0  0  0  0  0
  139.2814  159.2154  131.1103 H   0  0  0  0  0  0  0  0  0  0  0  0
  138.3170  157.5821  131.2902 H   0  0  0  0  0  0  0  0  0  0  0  0
  139.8650  160.2930  136.3660 H   0  0  0  0  0  0  0  0  0  0  0  0
  141.2840  159.6440  135.4940 H   0  0  0  0  0  0  0  0  0  0  0  0
  141.9044  156.5844  137.5152 H   0  0  0  0  0  0  0  0  0  0  0  0
  143.3284  154.1364  137.0867 H   0  0  0  0  0  0  0  0  0  0  0  0
  143.6522  152.2743  135.4249 H   0  0  0  0  0  0  0  0  0  0  0  0
  140.8353  154.2110  132.7123 H   0  0  0  0  0  0  0  0  0  0  0  0
  143.2483  157.0025  134.0104 H   0  0  0  0  0  0  0  0  0  0  0  0
  142.3303  156.7719  132.4837 H   0  0  0  0  0  0  0  0  0  0  0  0
  143.8453  157.7370  132.4837 H   0  0  0  0  0  0  0  0  0  0  0  0
  1  2  2  0
  2  3  1  0
  3  4  2  0
  3  5  1  0
  5  6  1  0
  6  7  1  0
  7  8  1  0
  7  9  2  0
  6 10  2  0
 10 11  1  0
 11 12  2  0
 12 13  1  0
 13 14  2  0
 14 15  1  0
 15 16  1  0
 15 17  1  0
 15 18  1  0
 14 19  1  0
 19 20  2  0
  2 21  1  0
 21 22  1  0
 22 23  2  0
 23 24  1  0
 24 25  2  0
 25 26  1  0
 20  5  1  0
 25 21  1  0
 20 11  1  0
  1 27  1  0
  1 28  1  0
  8 29  1  0
  8 30  1  0
 10 31  1  0
 12 32  1  0
 13 33  1  0
 19 34  1  0
 26 35  1  0
 26 36  1  0
 26 37  1  0
M  END
>  <UniqueID>  (23) 
23

>  <SMILES>  (23) 
C=C(C(=O)n1c(C(N)=O)cc2ccc(C(F)(F)F)cc21)n1nnnc1C

>  <Energy>  (23) 
122.11798332429436

>  <Genealogy>  (23) 
C=C(C(=O)n1c(C(N)=O)cc2ccc(C(F)(F)F)cc21)n1nnnc1C (3D coordinates assigned)
C=C(C(=O)n1c(C(N)=O)cc2ccc(C(F)(F)F)cc21)n1nnnc1C (optimized conformer: 122.11798332429436 kcal/mol)

>  <smiles>  (23) 
C=C(C(=O)n1c(C(N)=O)cc2ccc(C(F)(F)F)cc21)n1nnnc1C

>  <score_type>  (23) 
oracle

>  <origin>  (23) 
adg

>  <m_score__min__energy>  (23) 
-7.0700000000000003

>  <m_primary>  (23) 
energy

$$$$
23:0
     RDKit          3D

 38 39  0  0  0  0  0  0  0  0999 V2000
  149.9850  159.4510  131.0850 C   0  0  0  0  0  0  0  0  0  0  0  0
  149.0900  158.9260  131.7010 C   0  0  0  0  0  0  0  0  0  0  0  0
  148.0220  158.2990  132.4360 C   0  0  0  0  0  0  0  0  0  0  0  0
  146.8130  159.0000  132.6600 C   0  0  0  0  0  0  0  0  0  0  0  0
  145.7670  158.4010  133.3830 C   0  0  0  0  0  0  0  0  0  0  0  0
  145.9600  157.1060  133.8570 C   0  0  0  0  0  0  0  0  0  0  0  0
  145.1280  156.2980  134.6010 C   0  0  0  0  0  0  0  0  0  0  0  0
  145.8410  155.1150  134.8060 C   0  0  0  0  0  0  0  0  0  0  0  0
  145.3140  153.9290  135.5200 C   0  0  0  0  0  0  0  0  0  0  0  0
  146.0190  153.3590  136.6220 N   0  0  0  0  0  0  0  0  0  0  0  0
  144.2200  153.4130  135.1690 O   0  0  0  0  0  0  0  0  0  0  0  0
  147.0610  155.1910  134.2020 N   0  0  0  0  0  0  0  0  0  0  0  0
  148.1080  154.2080  134.2230 C   0  0  0  0  0  0  0  0  0  0  0  0
  148.4930  153.7510  135.3310 O   0  0  0  0  0  0  0  0  0  0  0  0
  148.7000  153.7270  132.9530 C   0  0  0  0  0  0  0  0  0  0  0  0
  149.7100  154.3230  132.4960 O   0  0  0  0  0  0  0  0  0  0  0  0
  148.1890  152.6040  132.2160 N   0  0  0  0  0  0  0  0  0  0  0  0
  148.3890  151.1870  132.5070 C   0  0  0  0  0  0  0  0  0  0  0  0
  149.8280  150.9040  132.8120 C   0  0  0  0  0  0  0  0  0  0  0  0
  150.2360  150.9800  134.0040 O   0  0  0  0  0  0  0  0  0  0  0  0
  150.7120  150.6000  131.7690 O   0  0  0  0  0  0  0  0  0  0  0  0
  150.3360  150.6090  130.3940 C   0  0  0  0  0  0  0  0  0  0  0  0
  151.0830  149.5260  129.6220 C   0  0  0  0  0  0  0  0  0  0  0  0
  147.1220  156.4130  133.6320 C   0  0  0  0  0  0  0  0  0  0  0  0
  148.1870  156.9900  132.9320 C   0  0  0  0  0  0  0  0  0  0  0  0
  150.8009  159.9296  130.5235 H   0  0  0  0  0  0  0  0  0  0  0  0
  146.6913  160.0197  132.2659 H   0  0  0  0  0  0  0  0  0  0  0  0
  144.8253  158.9384  133.5686 H   0  0  0  0  0  0  0  0  0  0  0  0
  144.1150  156.5351  134.9584 H   0  0  0  0  0  0  0  0  0  0  0  0
  147.0110  153.0420  136.5540 H   0  0  0  0  0  0  0  0  0  0  0  0
  147.7746  150.9071  133.3754 H   0  0  0  0  0  0  0  0  0  0  0  0
  148.0941  150.6009  131.6241 H   0  0  0  0  0  0  0  0  0  0  0  0
  149.2540  150.4274  130.3146 H   0  0  0  0  0  0  0  0  0  0  0  0
  150.5919  151.5888  129.9645 H   0  0  0  0  0  0  0  0  0  0  0  0
  151.5606  148.8336  130.3309 H   0  0  0  0  0  0  0  0  0  0  0  0
  150.3742  148.9718  128.9892 H   0  0  0  0  0  0  0  0  0  0  0  0
  151.8529  149.9917  128.9892 H   0  0  0  0  0  0  0  0  0  0  0  0
  149.1254  156.4384  132.7734 H   0  0  0  0  0  0  0  0  0  0  0  0
  1  2  3  0
  2  3  1  0
  3  4  2  0
  4  5  1  0
  5  6  2  0
  6  7  1  0
  7  8  2  0
  8  9  1  0
  9 10  1  0
  9 11  2  0
  8 12  1  0
 12 13  1  0
 13 14  2  0
 13 15  1  0
 15 16  2  0
 15 17  1  0
 17 18  1  0
 18 19  1  0
 19 20  2  0
 19 21  1  0
 21 22  1  0
 22 23  1  0
 12 24  1  0
 24 25  2  0
 25  3  1  0
 24  6  1  0
  1 26  1  0
  4 27  1  0
  5 28  1  0
  7 29  1  0
 10 30  1  0
 18 31  1  0
 18 32  1  0
 22 33  1  0
 22 34  1  0
 23 35  1  0
 23 36  1  0
 23 37  1  0
 25 38  1  0
M  CHG  2  10  -1  17  -1
M  END
>  <UniqueID>  (24) 
24

>  <SMILES>  (24) 
C#Cc1ccc2cc(C([NH-])=O)n(C(=O)C(=O)[N-]CC(=O)OCC)c2c1

>  <Energy>  (24) 
72.16392148984161

>  <Genealogy>  (24) 
C#Cc1ccc2cc(C([NH-])=O)n(C(=O)C(=O)[N-]CC(=O)OCC)c2c1 (protonated)
C#Cc1ccc2cc(C([NH-])=O)n(C(=O)C(=O)[N-]CC(=O)OCC)c2c1 (3D coordinates assigned)
C#Cc1ccc2cc(C([NH-])=O)n(C(=O)C(=O)[N-]CC(=O)OCC)c2c1 (optimized conformer: 72.16392148984161 kcal/mol)

>  <smiles>  (24) 
C#Cc1ccc2cc(C(N)=O)n(C(=O)C(=O)NCC(=O)OCC)c2c1

>  <score_type>  (24) 
oracle

>  <origin>  (24) 
adg

>  <m_score__min__energy>  (24) 
-6.79

>  <m_primary>  (24) 
energy

$$$$
24:0
     RDKit          3D

 37 39  0  0  0  0  0  0  0  0999 V2000
  148.9650  158.9580  133.9840 N   0  0  0  0  0  0  0  0  0  0  0  0
  148.2790  157.8950  133.3200 C   0  0  0  0  0  0  0  0  0  0  0  0
  148.9500  157.0190  132.7120 O   0  0  0  0  0  0  0  0  0  0  0  0
  146.8030  157.7980  133.3720 C   0  0  0  0  0  0  0  0  0  0  0  0
  146.1040  156.5930  133.3350 C   0  0  0  0  0  0  0  0  0  0  0  0
  144.7750  156.9440  133.3080 C   0  0  0  0  0  0  0  0  0  0  0  0
  143.6380  156.1400  133.2780 C   0  0  0  0  0  0  0  0  0  0  0  0
  142.3840  156.7710  133.2830 C   0  0  0  0  0  0  0  0  0  0  0  0
  142.2880  158.1840  133.3270 C   0  0  0  0  0  0  0  0  0  0  0  0
  140.9950  158.8170  133.3500 N   0  0  0  0  0  0  0  0  0  0  0  0
  140.4600  159.3120  134.6270 C   0  0  0  0  0  0  0  0  0  0  0  0
  139.5830  158.2500  135.2890 C   0  0  0  0  0  0  0  0  0  0  0  0
  139.7390  156.9440  134.6530 N   0  0  0  0  0  0  0  0  0  0  0  0
  139.4010  156.5970  133.3030 C   0  0  0  0  0  0  0  0  0  0  0  0
  139.2600  155.3790  133.0160 O   0  0  0  0  0  0  0  0  0  0  0  0
  139.0940  157.6260  132.2450 C   0  0  0  0  0  0  0  0  0  0  0  0
  140.1520  158.7300  132.1460 C   0  0  0  0  0  0  0  0  0  0  0  0
  143.4630  158.9670  133.3570 C   0  0  0  0  0  0  0  0  0  0  0  0
  144.7000  158.3120  133.3310 C   0  0  0  0  0  0  0  0  0  0  0  0
  145.9390  158.8520  133.3710 N   0  0  0  0  0  0  0  0  0  0  0  0
  146.2590  160.2510  133.4610 C   0  0  0  0  0  0  0  0  0  0  0  0
  145.4940  161.0410  134.0760 O   0  0  0  0  0  0  0  0  0  0  0  0
  147.4070  160.7510  132.8590 O   0  0  0  0  0  0  0  0  0  0  0  0
  148.4440  159.7320  134.4510 H   0  0  0  0  0  0  0  0  0  0  0  0
  150.0090  158.9950  133.9730 H   0  0  0  0  0  0  0  0  0  0  0  0
  146.5258  155.5771  133.3288 H   0  0  0  0  0  0  0  0  0  0  0  0
  143.7202  155.0434  133.2512 H   0  0  0  0  0  0  0  0  0  0  0  0
  141.4678  156.1631  133.2525 H   0  0  0  0  0  0  0  0  0  0  0  0
  141.2959  159.5602  135.2975 H   0  0  0  0  0  0  0  0  0  0  0  0
  139.8497  160.2065  134.4336 H   0  0  0  0  0  0  0  0  0  0  0  0
  139.8647  158.1658  136.3490 H   0  0  0  0  0  0  0  0  0  0  0  0
  138.5327  158.5589  135.1824 H   0  0  0  0  0  0  0  0  0  0  0  0
  139.0287  157.1171  131.2720 H   0  0  0  0  0  0  0  0  0  0  0  0
  138.1461  158.1083  132.5259 H   0  0  0  0  0  0  0  0  0  0  0  0
  140.7966  158.5233  131.2790 H   0  0  0  0  0  0  0  0  0  0  0  0
  139.6235  159.6889  132.0397 H   0  0  0  0  0  0  0  0  0  0  0  0
  143.4076  160.0648  133.3997 H   0  0  0  0  0  0  0  0  0  0  0  0
  1  2  1  0
  2  3  2  0
  2  4  1  0
  4  5  2  0
  5  6  1  0
  6  7  2  0
  7  8  1  0
  8  9  2  0
  9 10  1  0
 10 11  1  0
 11 12  1  0
 12 13  1  0
 13 14  1  0
 14 15  2  0
 14 16  1  0
 16 17  1  0
  9 18  1  0
 18 19  2  0
 19 20  1  0
 20 21  1  0
 21 22  2  0
 21 23  1  0
 20  4  1  0
 19  6  1  0
 17 10  1  0
  1 24  1  0
  1 25  1  0
  5 26  1  0
  7 27  1  0
  8 28  1  0
 11 29  1  0
 11 30  1  0
 12 31  1  0
 12 32  1  0
 16 33  1  0
 16 34  1  0
 17 35  1  0
 17 36  1  0
 18 37  1  0
M  CHG  2  13  -1  23  -1
M  END
>  <UniqueID>  (25) 
25

>  <SMILES>  (25) 
NC(=O)c1cc2ccc(N3CC[N-]C(=O)CC3)cc2n1C(=O)[O-]

>  <Energy>  (25) 
86.02133370347447

>  <Genealogy>  (25) 
NC(=O)c1cc2ccc(N3CC[N-]C(=O)CC3)cc2n1C(=O)[O-] (protonated)
NC(=O)c1cc2ccc(N3CC[N-]C(=O)CC3)cc2n1C(=O)[O-] (3D coordinates assigned)
NC(=O)c1cc2ccc(N3CC[N-]C(=O)CC3)cc2n1C(=O)[O-] (nonaromatic ring conformer: 86.02133370347447 kcal/mol)

>  <smiles>  (25) 
NC(=O)c1cc2ccc(N3CCNC(=O)CC3)cc2n1C(=O)O

>  <score_type>  (25) 
oracle

>  <origin>  (25) 
adg

>  <m_score__min__energy>  (25) 
-5.1500000000000004

>  <m_primary>  (25) 
energy

$$$$
25:0
     RDKit          3D

 44 46  0  0  0  0  0  0  0  0999 V2000
  142.9680  153.9280  134.8880 N   0  0  0  0  0  0  0  0  0  0  0  0
  142.0940  154.8460  135.5510 C   0  0  0  0  0  0  0  0  0  0  0  0
  141.8730  154.7040  136.7870 O   0  0  0  0  0  0  0  0  0  0  0  0
  141.4580  155.9740  134.8220 C   0  0  0  0  0  0  0  0  0  0  0  0
  141.7230  157.3170  135.1110 C   0  0  0  0  0  0  0  0  0  0  0  0
  140.9830  158.0400  134.1960 C   0  0  0  0  0  0  0  0  0  0  0  0
  140.8790  159.4160  134.0050 C   0  0  0  0  0  0  0  0  0  0  0  0
  140.0450  159.8780  132.9670 C   0  0  0  0  0  0  0  0  0  0  0  0
  139.3110  158.9650  132.1640 C   0  0  0  0  0  0  0  0  0  0  0  0
  138.3610  159.4460  131.0910 C   0  0  0  0  0  0  0  0  0  0  0  0
  137.0790  158.9990  131.3760 F   0  0  0  0  0  0  0  0  0  0  0  0
  138.7310  158.9870  129.8350 F   0  0  0  0  0  0  0  0  0  0  0  0
  138.3570  160.8340  131.0630 F   0  0  0  0  0  0  0  0  0  0  0  0
  139.4590  157.5740  132.3780 C   0  0  0  0  0  0  0  0  0  0  0  0
  140.3170  157.1430  133.3960 C   0  0  0  0  0  0  0  0  0  0  0  0
  140.5850  155.8730  133.7770 N   0  0  0  0  0  0  0  0  0  0  0  0
  140.1070  154.6940  133.1130 C   0  0  0  0  0  0  0  0  0  0  0  0
  138.8610  154.5200  132.9770 O   0  0  0  0  0  0  0  0  0  0  0  0
  141.0150  153.7330  132.6330 O   0  0  0  0  0  0  0  0  0  0  0  0
  140.9720  152.3950  133.0540 C   0  0  0  0  0  0  0  0  0  0  0  0
  140.9830  152.1230  134.2900 O   0  0  0  0  0  0  0  0  0  0  0  0
  140.8150  151.3420  132.0700 N   0  0  1  0  0  0  0  0  0  0  0  0
  141.8590  150.2800  132.2240 C   0  0  0  0  0  0  0  0  0  0  0  0
  141.3630  148.8780  131.8160 C   0  0  0  0  0  0  0  0  0  0  0  0
  140.3640  148.9680  130.6520 C   0  0  1  0  0  0  0  0  0  0  0  0
  139.9790  147.6840  130.2240 O   0  0  0  0  0  0  0  0  0  0  0  0
  139.1340  149.8270  131.0310 C   0  0  0  0  0  0  0  0  0  0  0  0
  139.4400  150.8020  132.1900 C   0  0  0  0  0  0  0  0  0  0  0  0
  142.6790  153.4450  134.0070 H   0  0  0  0  0  0  0  0  0  0  0  0
  142.3806  157.7128  135.8990 H   0  0  0  0  0  0  0  0  0  0  0  0
  141.4309  160.1204  134.6447 H   0  0  0  0  0  0  0  0  0  0  0  0
  139.9616  160.9582  132.7766 H   0  0  0  0  0  0  0  0  0  0  0  0
  138.9121  156.8481  131.7583 H   0  0  0  0  0  0  0  0  0  0  0  0
  140.9070  151.7700  131.1170 H   0  0  0  0  0  0  0  0  0  0  0  0
  142.1718  150.2473  133.2781 H   0  0  0  0  0  0  0  0  0  0  0  0
  142.6918  150.5402  131.5542 H   0  0  0  0  0  0  0  0  0  0  0  0
  140.8700  148.4052  132.6782 H   0  0  0  0  0  0  0  0  0  0  0  0
  142.2273  148.2795  131.4923 H   0  0  0  0  0  0  0  0  0  0  0  0
  140.8674  149.4685  129.8117 H   0  0  0  0  0  0  0  0  0  0  0  0
  140.6190  147.4000  129.5230 H   0  0  0  0  0  0  0  0  0  0  0  0
  138.3154  149.1588  131.3366 H   0  0  0  0  0  0  0  0  0  0  0  0
  138.8544  150.4246  130.1509 H   0  0  0  0  0  0  0  0  0  0  0  0
  139.3440  150.2675  133.1466 H   0  0  0  0  0  0  0  0  0  0  0  0
  138.7264  151.6380  132.1471 H   0  0  0  0  0  0  0  0  0  0  0  0
  1  2  1  0
  2  3  2  0
  2  4  1  0
  4  5  2  0
  5  6  1  0
  6  7  2  0
  7  8  1  0
  8  9  2  0
  9 10  1  0
 10 11  1  0
 10 12  1  0
 10 13  1  0
  9 14  1  0
 14 15  2  0
 15 16  1  0
 16 17  1  0
 17 18  2  0
 17 19  1  0
 19 20  1  0
 20 21  2  0
 20 22  1  0
 22 23  1  0
 23 24  1  0
 24 25  1  0
 25 26  1  0
 25 27  1  0
 27 28  1  0
 16  4  1  0
 28 22  1  0
 15  6  1  0
  1 29  1  0
  5 30  1  0
  7 31  1  0
  8 32  1  0
 14 33  1  0
 22 34  1  6
 23 35  1  0
 23 36  1  0
 24 37  1  0
 24 38  1  0
 25 39  1  6
 26 40  1  0
 27 41  1  0
 27 42  1  0
 28 43  1  0
 28 44  1  0
M  CHG  2   1  -1  22   1
M  END
>  <UniqueID>  (26) 
26

>  <SMILES>  (26) 
[NH-]C(=O)c1cc2ccc(C(F)(F)F)cc2n1C(=O)OC(=O)[NH+]1CCC(O)CC1

>  <Energy>  (26) 
98.50716678651929

>  <Genealogy>  (26) 
[NH-]C(=O)c1cc2ccc(C(F)(F)F)cc2n1C(=O)OC(=O)[NH+]1CCC(O)CC1 (protonated)
[NH-]C(=O)c1cc2ccc(C(F)(F)F)cc2n1C(=O)OC(=O)[NH+]1CCC(O)CC1 (3D coordinates assigned)
[NH-]C(=O)c1cc2ccc(C(F)(F)F)cc2n1C(=O)OC(=O)[NH+]1CCC(O)CC1 (nonaromatic ring conformer: 98.50716678651929 kcal/mol)

>  <smiles>  (26) 
NC(=O)c1cc2ccc(C(F)(F)F)cc2n1C(=O)OC(=O)N1CCC(O)CC1

>  <score_type>  (26) 
oracle

>  <origin>  (26) 
adg

>  <m_score__min__energy>  (26) 
-7.6299999999999999

>  <m_primary>  (26) 
energy

$$$$
26:0
     RDKit          3D

 29 30  0  0  0  0  0  0  0  0999 V2000
  146.2240  152.8170  133.0770 N   0  0  0  0  0  0  0  0  0  0  0  0
  146.2070  153.8830  134.0280 C   0  0  0  0  0  0  0  0  0  0  0  0
  145.7170  153.6820  135.1710 O   0  0  0  0  0  0  0  0  0  0  0  0
  146.6920  155.2320  133.6740 C   0  0  0  0  0  0  0  0  0  0  0  0
  145.9970  156.3990  133.9790 C   0  0  0  0  0  0  0  0  0  0  0  0
  146.7410  157.4180  133.4310 C   0  0  0  0  0  0  0  0  0  0  0  0
  146.5180  158.7910  133.4410 C   0  0  0  0  0  0  0  0  0  0  0  0
  147.4700  159.6180  132.8240 C   0  0  0  0  0  0  0  0  0  0  0  0
  148.6300  159.0630  132.2290 C   0  0  0  0  0  0  0  0  0  0  0  0
  149.6300  159.9550  131.5540 C   0  0  0  0  0  0  0  0  0  0  0  0
  149.2220  160.1170  129.8280 Cl  0  0  0  0  0  0  0  0  0  0  0  0
  148.8180  157.6630  132.2280 C   0  0  0  0  0  0  0  0  0  0  0  0
  147.8420  156.8600  132.8320 C   0  0  0  0  0  0  0  0  0  0  0  0
  147.8270  155.5150  132.9750 N   0  0  0  0  0  0  0  0  0  0  0  0
  148.8600  154.5940  132.5870 C   0  0  0  0  0  0  0  0  0  0  0  0
  150.0110  155.0190  132.2970 O   0  0  0  0  0  0  0  0  0  0  0  0
  148.5830  153.2240  132.5340 O   0  0  0  0  0  0  0  0  0  0  0  0
  149.5590  152.2310  132.8260 C   0  0  0  0  0  0  0  0  0  0  0  0
  149.6240  151.0660  131.4850 Cl  0  0  0  0  0  0  0  0  0  0  0  0
  145.9170  151.8590  133.3570 H   0  0  0  0  0  0  0  0  0  0  0  0
  146.4660  152.9910  132.0760 H   0  0  0  0  0  0  0  0  0  0  0  0
  145.0542  156.4874  134.5387 H   0  0  0  0  0  0  0  0  0  0  0  0
  145.6226  159.2160  133.9180 H   0  0  0  0  0  0  0  0  0  0  0  0
  147.3140  160.7067  132.8023 H   0  0  0  0  0  0  0  0  0  0  0  0
  149.6134  160.9474  132.0283 H   0  0  0  0  0  0  0  0  0  0  0  0
  150.6338  159.5156  131.6511 H   0  0  0  0  0  0  0  0  0  0  0  0
  149.7089  157.2144  131.7643 H   0  0  0  0  0  0  0  0  0  0  0  0
  150.5432  152.7068  132.9484 H   0  0  0  0  0  0  0  0  0  0  0  0
  149.2900  151.7098  133.7566 H   0  0  0  0  0  0  0  0  0  0  0  0
  1  2  1  0
  2  3  2  0
  2  4  1  0
  4  5  2  0
  5  6  1  0
  6  7  2  0
  7  8  1  0
  8  9  2  0
  9 10  1  0
 10 11  1  0
  9 12  1  0
 12 13  2  0
 13 14  1  0
 14 15  1  0
 15 16  2  0
 15 17  1  0
 17 18  1  0
 18 19  1  0
 14  4  1  0
 13  6  1  0
  1 20  1  0
  1 21  1  0
  5 22  1  0
  7 23  1  0
  8 24  1  0
 10 25  1  0
 10 26  1  0
 12 27  1  0
 18 28  1  0
 18 29  1  0
M  END
>  <UniqueID>  (27) 
27

>  <SMILES>  (27) 
NC(=O)c1cc2ccc(CCl)cc2n1C(=O)OCCl

>  <Energy>  (27) 
65.12373109884633

>  <Genealogy>  (27) 
NC(=O)c1cc2ccc(CCl)cc2n1C(=O)OCCl (3D coordinates assigned)
NC(=O)c1cc2ccc(CCl)cc2n1C(=O)OCCl (optimized conformer: 65.12373109884633 kcal/mol)

>  <smiles>  (27) 
NC(=O)c1cc2ccc(CCl)cc2n1C(=O)OCCl

>  <score_type>  (27) 
oracle

>  <origin>  (27) 
adg

>  <m_score__min__energy>  (27) 
-6.8899999999999997

>  <m_primary>  (27) 
energy

$$$$
27:0
     RDKit          3D

 51 54  0  0  0  0  0  0  0  0999 V2000
  140.2870  157.2500  135.0980 C   0  0  0  0  0  0  0  0  0  0  0  0
  139.9280  157.5580  133.6320 C   0  0  0  0  0  0  0  0  0  0  0  0
  140.4700  158.9380  133.2170 C   0  0  0  0  0  0  0  0  0  0  0  0
  138.3990  157.5590  133.4830 C   0  0  0  0  0  0  0  0  0  0  0  0
  140.4350  156.5340  132.7630 O   0  0  0  0  0  0  0  0  0  0  0  0
  140.4050  155.1510  133.0000 C   0  0  0  0  0  0  0  0  0  0  0  0
  139.3100  154.5370  133.1130 O   0  0  0  0  0  0  0  0  0  0  0  0
  141.6410  154.4290  133.1180 N   0  0  0  0  0  0  0  0  0  0  0  0
  142.8900  154.9440  133.2940 C   0  0  0  0  0  0  0  0  0  0  0  0
  143.2130  156.3590  133.5600 C   0  0  0  0  0  0  0  0  0  0  0  0
  142.8790  157.3840  132.6210 N   0  0  0  0  0  0  0  0  0  0  0  0
  143.7440  156.6770  134.6570 O   0  0  0  0  0  0  0  0  0  0  0  0
  143.8480  153.9360  133.2370 C   0  0  0  0  0  0  0  0  0  0  0  0
  143.1400  152.7730  133.0340 C   0  0  0  0  0  0  0  0  0  0  0  0
  143.5910  151.4680  132.8760 C   0  0  0  0  0  0  0  0  0  0  0  0
  142.6410  150.4640  132.6320 C   0  0  0  0  0  0  0  0  0  0  0  0
  141.2520  150.7730  132.5530 C   0  0  0  0  0  0  0  0  0  0  0  0
  140.1810  149.7370  132.2310 C   0  0  2  0  0  0  0  0  0  0  0  0
  140.6630  148.2830  131.9810 C   0  0  0  0  0  0  0  0  0  0  0  0
  140.1380  147.9170  130.6420 N   0  0  0  0  0  0  0  0  0  0  0  0
  138.6640  147.7930  130.7600 C   0  0  0  0  0  0  0  0  0  0  0  0
  138.1370  149.2370  130.9080 C   0  0  0  0  0  0  0  0  0  0  0  0
  139.4480  150.0340  130.9090 C   0  0  2  0  0  0  0  0  0  0  0  0
  140.2400  149.1930  129.9460 C   0  0  0  0  0  0  0  0  0  0  0  0
  140.8440  152.1210  132.7000 C   0  0  0  0  0  0  0  0  0  0  0  0
  141.8110  153.0970  132.9640 C   0  0  0  0  0  0  0  0  0  0  0  0
  139.6234  157.8193  135.7654 H   0  0  0  0  0  0  0  0  0  0  0  0
  140.1622  156.1737  135.2877 H   0  0  0  0  0  0  0  0  0  0  0  0
  141.3318  157.5370  135.2877 H   0  0  0  0  0  0  0  0  0  0  0  0
  140.7013  159.5269  134.1169 H   0  0  0  0  0  0  0  0  0  0  0  0
  141.3840  158.8082  132.6188 H   0  0  0  0  0  0  0  0  0  0  0  0
  139.7120  159.4649  132.6188 H   0  0  0  0  0  0  0  0  0  0  0  0
  137.9335  157.5593  134.4796 H   0  0  0  0  0  0  0  0  0  0  0  0
  138.0849  158.4574  132.9313 H   0  0  0  0  0  0  0  0  0  0  0  0
  138.0838  156.6611  132.9313 H   0  0  0  0  0  0  0  0  0  0  0  0
  143.1530  158.3740  132.8080 H   0  0  0  0  0  0  0  0  0  0  0  0
  142.2860  157.1800  131.7870 H   0  0  0  0  0  0  0  0  0  0  0  0
  144.9383  154.0453  133.3336 H   0  0  0  0  0  0  0  0  0  0  0  0
  144.6627  151.2286  132.9404 H   0  0  0  0  0  0  0  0  0  0  0  0
  142.9733  149.4238  132.4999 H   0  0  0  0  0  0  0  0  0  0  0  0
  139.5733  149.8099  133.1450 H   0  0  0  0  0  0  0  0  0  0  0  0
  141.7619  148.2353  131.9895 H   0  0  0  0  0  0  0  0  0  0  0  0
  140.3068  147.5947  132.7616 H   0  0  0  0  0  0  0  0  0  0  0  0
  138.2448  147.3216  129.8588 H   0  0  0  0  0  0  0  0  0  0  0  0
  138.3753  147.1644  131.6153 H   0  0  0  0  0  0  0  0  0  0  0  0
  137.4938  149.5201  130.0618 H   0  0  0  0  0  0  0  0  0  0  0  0
  137.5091  149.3996  131.7964 H   0  0  0  0  0  0  0  0  0  0  0  0
  139.3227  151.1112  130.7250 H   0  0  0  0  0  0  0  0  0  0  0  0
  139.7784  149.1592  128.9481 H   0  0  0  0  0  0  0  0  0  0  0  0
  141.2614  149.5420  129.7341 H   0  0  0  0  0  0  0  0  0  0  0  0
  139.7830  152.3965  132.6080 H   0  0  0  0  0  0  0  0  0  0  0  0
  1  2  1  0
  2  3  1  0
  2  4  1  0
  2  5  1  0
  5  6  1  0
  6  7  2  0
  6  8  1  0
  8  9  1  0
  9 10  1  0
 10 11  1  0
 10 12  2  0
  9 13  2  0
 13 14  1  0
 14 15  2  0
 15 16  1  0
 16 17  2  0
 17 18  1  0
 18 19  1  0
 20 19  1  0
 20 21  1  0
 21 22  1  0
 22 23  1  0
 23 24  1  0
 17 25  1  0
 25 26  2  0
 26  8  1  0
 26 14  1  0
 23 18  1  0
 24 20  1  0
  1 27  1  0
  1 28  1  0
  1 29  1  0
  3 30  1  0
  3 31  1  0
  3 32  1  0
  4 33  1  0
  4 34  1  0
  4 35  1  0
 11 36  1  0
 11 37  1  0
 13 38  1  0
 15 39  1  0
 16 40  1  0
 18 41  1  1
 19 42  1  0
 19 43  1  0
 21 44  1  0
 21 45  1  0
 22 46  1  0
 22 47  1  0
 23 48  1  6
 24 49  1  0
 24 50  1  0
 25 51  1  0
M  END
>  <UniqueID>  (28) 
28

>  <SMILES>  (28) 
CC(C)(C)OC(=O)n1c(C(N)=O)cc2ccc([C@@H]3C[N@@]4CCC3C4)cc21

>  <Energy>  (28) 
120.37137896654075

>  <Genealogy>  (28) 
CC(C)(C)OC(=O)n1c(C(N)=O)cc2ccc([C@@H]3C[N@@]4CCC3C4)cc21 (chirality)
CC(C)(C)OC(=O)n1c(C(N)=O)cc2ccc([C@@H]3C[N@@]4CCC3C4)cc21 (3D coordinates assigned)
CC(C)(C)OC(=O)n1c(C(N)=O)cc2ccc([C@@H]3C[N@@]4CCC3C4)cc21 (nonaromatic ring conformer: 120.37137896654075 kcal/mol)

>  <smiles>  (28) 
CC(C)(C)OC(=O)n1c(C(N)=O)cc2ccc(C3CN4CCC3C4)cc21

>  <score_type>  (28) 
oracle

>  <origin>  (28) 
adg

>  <m_score__min__energy>  (28) 
-9.0299999999999994

>  <m_primary>  (28) 
energy

$$$$
28:0
     RDKit          3D

 46 47  0  0  0  0  0  0  0  0999 V2000
  142.2090  155.5130  135.3300 C   0  0  0  0  0  0  0  0  0  0  0  0
  142.0550  155.7050  133.8840 N   0  0  0  0  0  0  0  0  0  0  0  0
  141.4900  156.9640  133.3610 C   0  0  0  0  0  0  0  0  0  0  0  0
  139.9390  156.9750  133.4010 C   0  0  0  0  0  0  0  0  0  0  0  0
  139.4790  157.5380  134.7620 C   0  0  0  0  0  0  0  0  0  0  0  0
  139.3750  157.8490  132.2610 C   0  0  0  0  0  0  0  0  0  0  0  0
  139.4710  155.6550  133.2670 O   0  0  0  0  0  0  0  0  0  0  0  0
  142.5800  154.6920  133.0040 C   0  0  0  0  0  0  0  0  0  0  0  0
  141.8460  153.7220  132.6820 O   0  0  0  0  0  0  0  0  0  0  0  0
  143.9560  154.7620  132.4660 C   0  0  0  0  0  0  0  0  0  0  0  0
  144.1620  154.5950  131.2340 O   0  0  0  0  0  0  0  0  0  0  0  0
  145.1300  155.0120  133.3720 C   0  0  0  0  0  0  0  0  0  0  0  0
  145.5400  156.4580  133.3100 C   0  0  0  0  0  0  0  0  0  0  0  0
  146.8760  156.8080  132.9870 C   0  0  0  0  0  0  0  0  0  0  0  0
  147.2860  158.1520  132.9940 C   0  0  0  0  0  0  0  0  0  0  0  0
  146.3430  159.1210  133.3340 C   0  0  0  0  0  0  0  0  0  0  0  0
  146.4740  160.4870  133.4220 C   0  0  0  0  0  0  0  0  0  0  0  0
  145.2210  160.9540  133.8100 C   0  0  0  0  0  0  0  0  0  0  0  0
  144.9420  162.3730  134.1050 C   0  0  0  0  0  0  0  0  0  0  0  0
  143.9280  163.0630  133.3770 N   0  0  0  0  0  0  0  0  0  0  0  0
  145.6150  162.9960  134.9670 O   0  0  0  0  0  0  0  0  0  0  0  0
  144.3450  159.9180  133.9490 N   0  0  0  0  0  0  0  0  0  0  0  0
  142.9440  159.9850  134.2650 C   0  0  0  0  0  0  0  0  0  0  0  0
  142.4970  159.4190  135.2980 O   0  0  0  0  0  0  0  0  0  0  0  0
  142.0680  160.6670  133.4290 O   0  0  0  0  0  0  0  0  0  0  0  0
  145.0490  158.8020  133.6560 C   0  0  0  0  0  0  0  0  0  0  0  0
  144.6070  157.4710  133.6370 C   0  0  0  0  0  0  0  0  0  0  0  0
  141.6078  156.2625  135.8655 H   0  0  0  0  0  0  0  0  0  0  0  0
  141.8667  154.5043  135.6045 H   0  0  0  0  0  0  0  0  0  0  0  0
  143.2680  155.6282  135.6045 H   0  0  0  0  0  0  0  0  0  0  0  0
  141.8655  157.7999  133.9695 H   0  0  0  0  0  0  0  0  0  0  0  0
  141.8001  157.0610  132.3101 H   0  0  0  0  0  0  0  0  0  0  0  0
  139.9485  156.9634  135.5741 H   0  0  0  0  0  0  0  0  0  0  0  0
  139.7758  158.5942  134.8411 H   0  0  0  0  0  0  0  0  0  0  0  0
  138.3848  157.4577  134.8411 H   0  0  0  0  0  0  0  0  0  0  0  0
  138.8256  158.7004  132.6892 H   0  0  0  0  0  0  0  0  0  0  0  0
  140.2034  158.2218  131.6406 H   0  0  0  0  0  0  0  0  0  0  0  0
  138.6940  157.2478  131.6406 H   0  0  0  0  0  0  0  0  0  0  0  0
  140.2060  155.1010  132.8900 H   0  0  0  0  0  0  0  0  0  0  0  0
  144.8512  154.7580  134.4053 H   0  0  0  0  0  0  0  0  0  0  0  0
  145.9738  154.3869  133.0443 H   0  0  0  0  0  0  0  0  0  0  0  0
  147.5982  156.0196  132.7285 H   0  0  0  0  0  0  0  0  0  0  0  0
  148.3190  158.4310  132.7391 H   0  0  0  0  0  0  0  0  0  0  0  0
  147.3771  161.0841  133.2272 H   0  0  0  0  0  0  0  0  0  0  0  0
  143.0290  162.5890  133.1300 H   0  0  0  0  0  0  0  0  0  0  0  0
  143.5616  157.2207  133.8703 H   0  0  0  0  0  0  0  0  0  0  0  0
  1  2  1  0
  2  3  1  0
  3  4  1  0
  4  5  1  0
  4  6  1  0
  4  7  1  0
  2  8  1  0
  8  9  2  0
  8 10  1  0
 10 11  2  0
 10 12  1  0
 12 13  1  0
 13 14  2  0
 14 15  1  0
 15 16  2  0
 16 17  1  0
 17 18  2  0
 18 19  1  0
 19 20  1  0
 19 21  2  0
 18 22  1  0
 22 23  1  0
 23 24  2  0
 23 25  1  0
 22 26  1  0
 26 27  2  0
 27 13  1  0
 26 16  1  0
  1 28  1  0
  1 29  1  0
  1 30  1  0
  3 31  1  0
  3 32  1  0
  5 33  1  0
  5 34  1  0
  5 35  1  0
  6 36  1  0
  6 37  1  0
  6 38  1  0
  7 39  1  0
 12 40  1  0
 12 41  1  0
 14 42  1  0
 15 43  1  0
 17 44  1  0
 20 45  1  0
 27 46  1  0
M  CHG  2  20  -1  25  -1
M  END
>  <UniqueID>  (29) 
29

>  <SMILES>  (29) 
CN(CC(C)(C)O)C(=O)C(=O)Cc1ccc2cc(C([NH-])=O)n(C(=O)[O-])c2c1

>  <Energy>  (29) 
79.79976988908963

>  <Genealogy>  (29) 
CN(CC(C)(C)O)C(=O)C(=O)Cc1ccc2cc(C([NH-])=O)n(C(=O)[O-])c2c1 (protonated)
CN(CC(C)(C)O)C(=O)C(=O)Cc1ccc2cc(C([NH-])=O)n(C(=O)[O-])c2c1 (3D coordinates assigned)
CN(CC(C)(C)O)C(=O)C(=O)Cc1ccc2cc(C([NH-])=O)n(C(=O)[O-])c2c1 (optimized conformer: 79.79976988908963 kcal/mol)

>  <smiles>  (29) 
CN(CC(C)(C)O)C(=O)C(=O)Cc1ccc2cc(C(N)=O)n(C(=O)O)c2c1

>  <score_type>  (29) 
oracle

>  <origin>  (29) 
adg

>  <m_score__min__energy>  (29) 
-8.0999999999999996

>  <m_primary>  (29) 
energy

$$$$
29:0
     RDKit          3D

 34 36  0  0  0  0  0  0  0  0999 V2000
  148.5150  157.4730  134.0040 N   0  0  0  0  0  0  0  0  0  0  0  0
  147.9600  158.7260  133.6010 C   0  0  0  0  0  0  0  0  0  0  0  0
  148.7180  159.6090  133.1150 O   0  0  0  0  0  0  0  0  0  0  0  0
  146.5080  158.9830  133.6830 C   0  0  0  0  0  0  0  0  0  0  0  0
  145.9550  160.2610  133.6970 C   0  0  0  0  0  0  0  0  0  0  0  0
  144.5930  160.0660  133.7130 C   0  0  0  0  0  0  0  0  0  0  0  0
  143.5580  160.9940  133.7450 C   0  0  0  0  0  0  0  0  0  0  0  0
  142.2400  160.5130  133.7940 C   0  0  0  0  0  0  0  0  0  0  0  0
  141.9750  159.1170  133.8200 C   0  0  0  0  0  0  0  0  0  0  0  0
  140.5860  158.6010  133.8850 C   0  0  0  0  0  0  0  0  0  0  0  0
  139.7400  158.3420  132.8220 C   0  0  0  0  0  0  0  0  0  0  0  0
  138.5820  157.8850  133.4120 C   0  0  0  0  0  0  0  0  0  0  0  0
  138.7330  157.8730  134.7480 N   0  0  0  0  0  0  0  0  0  0  0  0
  139.9490  158.3080  135.0370 N   0  0  0  0  0  0  0  0  0  0  0  0
  143.0590  158.2060  133.7880 C   0  0  0  0  0  0  0  0  0  0  0  0
  144.3610  158.7140  133.7160 C   0  0  0  0  0  0  0  0  0  0  0  0
  145.5300  158.0350  133.7020 N   0  0  0  0  0  0  0  0  0  0  0  0
  145.6950  156.6110  133.8030 C   0  0  0  0  0  0  0  0  0  0  0  0
  146.3340  155.9880  132.9110 O   0  0  0  0  0  0  0  0  0  0  0  0
  145.1440  155.9210  134.8890 O   0  0  0  0  0  0  0  0  0  0  0  0
  145.4320  154.5550  135.1750 C   0  0  0  0  0  0  0  0  0  0  0  0
  146.7540  154.4340  135.8640 C   0  0  0  0  0  0  0  0  0  0  0  0
  147.6380  155.3140  135.6920 O   0  0  0  0  0  0  0  0  0  0  0  0
  147.0000  153.3680  136.7200 O   0  0  0  0  0  0  0  0  0  0  0  0
  147.9010  156.6640  134.2460 H   0  0  0  0  0  0  0  0  0  0  0  0
  149.5480  157.3250  133.9790 H   0  0  0  0  0  0  0  0  0  0  0  0
  146.4921  161.2210  133.6956 H   0  0  0  0  0  0  0  0  0  0  0  0
  143.7660  162.0741  133.7323 H   0  0  0  0  0  0  0  0  0  0  0  0
  141.4021  161.2254  133.8125 H   0  0  0  0  0  0  0  0  0  0  0  0
  139.9452  158.4715  131.7491 H   0  0  0  0  0  0  0  0  0  0  0  0
  137.6738  157.5773  132.8731 H   0  0  0  0  0  0  0  0  0  0  0  0
  142.8811  157.1209  133.8191 H   0  0  0  0  0  0  0  0  0  0  0  0
  144.6451  154.1474  135.8266 H   0  0  0  0  0  0  0  0  0  0  0  0
  145.4693  153.9928  134.2302 H   0  0  0  0  0  0  0  0  0  0  0  0
  1  2  1  0
  2  3  2  0
  2  4  1  0
  4  5  2  0
  5  6  1  0
  6  7  2  0
  7  8  1  0
  8  9  2  0
  9 10  1  0
 10 11  2  0
 11 12  1  0
 12 13  2  0
 13 14  1  0
  9 15  1  0
 15 16  2  0
 16 17  1  0
 17 18  1  0
 18 19  2  0
 18 20  1  0
 20 21  1  0
 21 22  1  0
 22 23  2  0
 22 24  1  0
 17  4  1  0
 16  6  1  0
 14 10  1  0
  1 25  1  0
  1 26  1  0
  5 27  1  0
  7 28  1  0
  8 29  1  0
 11 30  1  0
 12 31  1  0
 15 32  1  0
 21 33  1  0
 21 34  1  0
M  CHG  2  14  -1  24  -1
M  END
>  <UniqueID>  (30) 
30

>  <SMILES>  (30) 
NC(=O)c1cc2ccc(-c3ccn[n-]3)cc2n1C(=O)OCC(=O)[O-]

>  <Energy>  (30) 
104.18706778561427

>  <Genealogy>  (30) 
NC(=O)c1cc2ccc(-c3ccn[n-]3)cc2n1C(=O)OCC(=O)[O-] (protonated)
NC(=O)c1cc2ccc(-c3ccn[n-]3)cc2n1C(=O)OCC(=O)[O-] (3D coordinates assigned)
NC(=O)c1cc2ccc(-c3ccn[n-]3)cc2n1C(=O)OCC(=O)[O-] (optimized conformer: 104.18706778561427 kcal/mol)

>  <smiles>  (30) 
NC(=O)c1cc2ccc(-c3ccn[nH]3)cc2n1C(=O)OCC(=O)O

>  <score_type>  (30) 
oracle

>  <origin>  (30) 
adg

>  <m_score__min__energy>  (30) 
-7.0099999999999998

>  <m_primary>  (30) 
energy

$$$$
30:0
     RDKit          3D

 30 31  0  0  0  0  0  0  0  0999 V2000
  148.8930  154.6360  132.6080 C   0  0  0  0  0  0  0  0  0  0  0  0
  147.6310  155.3930  132.8970 C   0  0  0  0  0  0  0  0  0  0  0  0
  146.4530  154.6960  133.2610 C   0  0  0  0  0  0  0  0  0  0  0  0
  145.2710  155.3960  133.5580 C   0  0  0  0  0  0  0  0  0  0  0  0
  145.3050  156.7860  133.5020 C   0  0  0  0  0  0  0  0  0  0  0  0
  144.3040  157.7040  133.7200 C   0  0  0  0  0  0  0  0  0  0  0  0
  144.8960  158.9500  133.5240 C   0  0  0  0  0  0  0  0  0  0  0  0
  144.1890  160.2290  133.7430 C   0  0  0  0  0  0  0  0  0  0  0  0
  144.9050  161.4590  133.8200 N   0  0  0  0  0  0  0  0  0  0  0  0
  142.9400  160.2300  133.9130 O   0  0  0  0  0  0  0  0  0  0  0  0
  146.2100  158.8080  133.1920 N   0  0  0  0  0  0  0  0  0  0  0  0
  147.1360  159.8410  132.8170 C   0  0  0  0  0  0  0  0  0  0  0  0
  147.7130  160.5240  133.7060 O   0  0  0  0  0  0  0  0  0  0  0  0
  147.4070  160.0700  131.4640 O   0  0  0  0  0  0  0  0  0  0  0  0
  148.5160  160.8430  131.0230 C   0  0  0  0  0  0  0  0  0  0  0  0
  149.6380  159.9300  130.6620 C   0  0  0  0  0  0  0  0  0  0  0  0
  150.3090  160.1340  129.6160 O   0  0  0  0  0  0  0  0  0  0  0  0
  149.9820  158.8840  131.5080 O   0  0  0  0  0  0  0  0  0  0  0  0
  146.4460  157.4770  133.1850 C   0  0  0  0  0  0  0  0  0  0  0  0
  147.6320  156.8050  132.8650 C   0  0  0  0  0  0  0  0  0  0  0  0
  149.3729  154.3481  133.5550 H   0  0  0  0  0  0  0  0  0  0  0  0
  148.6539  153.7321  132.0285 H   0  0  0  0  0  0  0  0  0  0  0  0
  149.5779  155.2725  132.0285 H   0  0  0  0  0  0  0  0  0  0  0  0
  146.4633  153.5972  133.3117 H   0  0  0  0  0  0  0  0  0  0  0  0
  144.3477  154.8617  133.8264 H   0  0  0  0  0  0  0  0  0  0  0  0
  143.2581  157.4981  133.9915 H   0  0  0  0  0  0  0  0  0  0  0  0
  145.8350  161.5690  133.3590 H   0  0  0  0  0  0  0  0  0  0  0  0
  148.2252  161.4344  130.1423 H   0  0  0  0  0  0  0  0  0  0  0  0
  148.8363  161.5218  131.8272 H   0  0  0  0  0  0  0  0  0  0  0  0
  148.5412  157.3625  132.5956 H   0  0  0  0  0  0  0  0  0  0  0  0
  1  2  1  0
  2  3  2  0
  3  4  1  0
  4  5  2  0
  5  6  1  0
  6  7  2  0
  7  8  1  0
  8  9  1  0
  8 10  2  0
  7 11  1  0
 11 12  1  0
 12 13  2  0
 12 14  1  0
 14 15  1  0
 15 16  1  0
 16 17  2  0
 16 18  1  0
 11 19  1  0
 19 20  2  0
 20  2  1  0
 19  5  1  0
  1 21  1  0
  1 22  1  0
  1 23  1  0
  3 24  1  0
  4 25  1  0
  6 26  1  0
  9 27  1  0
 15 28  1  0
 15 29  1  0
 20 30  1  0
M  CHG  2   9  -1  18  -1
M  END
>  <UniqueID>  (31) 
31

>  <SMILES>  (31) 
Cc1ccc2cc(C([NH-])=O)n(C(=O)OCC(=O)[O-])c2c1

>  <Energy>  (31) 
65.66697616584565

>  <Genealogy>  (31) 
Cc1ccc2cc(C([NH-])=O)n(C(=O)OCC(=O)[O-])c2c1 (protonated)
Cc1ccc2cc(C([NH-])=O)n(C(=O)OCC(=O)[O-])c2c1 (3D coordinates assigned)
Cc1ccc2cc(C([NH-])=O)n(C(=O)OCC(=O)[O-])c2c1 (optimized conformer: 65.66697616584565 kcal/mol)

>  <smiles>  (31) 
Cc1ccc2cc(C(N)=O)n(C(=O)OCC(=O)O)c2c1

>  <score_type>  (31) 
oracle

>  <origin>  (31) 
adg

>  <m_score__min__energy>  (31) 
-6.1900000000000004

>  <m_primary>  (31) 
energy

$$$$
31:0
     RDKit          3D

 51 52  0  0  0  0  0  0  0  0999 V2000
  147.6450  151.7350  132.2600 C   0  0  0  0  0  0  0  0  0  0  0  0
  148.6210  152.6340  133.0420 C   0  0  0  0  0  0  0  0  0  0  0  0
  149.9450  152.7890  132.2650 C   0  0  0  0  0  0  0  0  0  0  0  0
  147.9240  153.9690  133.4730 C   0  0  1  0  0  0  0  0  0  0  0  0
  147.4650  154.8160  132.3400 N   0  0  0  0  0  0  0  0  0  0  0  0
  147.4130  156.2400  132.6010 C   0  0  0  0  0  0  0  0  0  0  0  0
  148.6040  157.0140  132.5900 C   0  0  0  0  0  0  0  0  0  0  0  0
  148.5740  158.3920  132.8620 C   0  0  0  0  0  0  0  0  0  0  0  0
  147.3470  158.9670  133.1740 C   0  0  0  0  0  0  0  0  0  0  0  0
  147.0280  160.2760  133.4540 C   0  0  0  0  0  0  0  0  0  0  0  0
  145.6550  160.2790  133.6920 C   0  0  0  0  0  0  0  0  0  0  0  0
  144.8980  161.4840  134.0970 C   0  0  0  0  0  0  0  0  0  0  0  0
  143.5260  161.6150  133.7350 N   0  0  0  0  0  0  0  0  0  0  0  0
  145.4580  162.4120  134.7350 O   0  0  0  0  0  0  0  0  0  0  0  0
  145.1470  159.0210  133.5660 N   0  0  0  0  0  0  0  0  0  0  0  0
  143.7710  158.6160  133.6410 C   0  0  0  0  0  0  0  0  0  0  0  0
  143.2520  157.9930  132.6780 O   0  0  0  0  0  0  0  0  0  0  0  0
  143.0180  158.9410  134.7780 O   0  0  0  0  0  0  0  0  0  0  0  0
  141.5960  158.8160  134.9200 C   0  0  0  0  0  0  0  0  0  0  0  0
  140.8730  159.6510  133.8460 C   0  0  0  0  0  0  0  0  0  0  0  0
  141.1660  157.3370  134.8410 C   0  0  0  0  0  0  0  0  0  0  0  0
  141.2280  159.3640  136.3080 C   0  0  0  0  0  0  0  0  0  0  0  0
  146.1960  158.2300  133.2500 C   0  0  0  0  0  0  0  0  0  0  0  0
  146.1950  156.8590  132.9770 C   0  0  0  0  0  0  0  0  0  0  0  0
  146.8830  153.8320  134.5670 C   0  0  0  0  0  0  0  0  0  0  0  0
  147.2510  153.5480  135.7380 O   0  0  0  0  0  0  0  0  0  0  0  0
  145.5340  154.0530  134.3210 O   0  0  0  0  0  0  0  0  0  0  0  0
  147.0254  151.1642  132.9673 H   0  0  0  0  0  0  0  0  0  0  0  0
  146.9978  152.3600  131.6271 H   0  0  0  0  0  0  0  0  0  0  0  0
  148.2148  151.0387  131.6271 H   0  0  0  0  0  0  0  0  0  0  0  0
  148.9056  152.1579  133.9919 H   0  0  0  0  0  0  0  0  0  0  0  0
  150.7784  152.8866  132.9763 H   0  0  0  0  0  0  0  0  0  0  0  0
  150.1047  151.9034  131.6324 H   0  0  0  0  0  0  0  0  0  0  0  0
  149.8959  153.6875  131.6324 H   0  0  0  0  0  0  0  0  0  0  0  0
  148.7465  154.5267  133.9447 H   0  0  0  0  0  0  0  0  0  0  0  0
  146.5260  154.4750  132.0280 H   0  0  0  0  0  0  0  0  0  0  0  0
  148.1080  154.6630  131.5270 H   0  0  0  0  0  0  0  0  0  0  0  0
  149.5644  156.5271  132.3651 H   0  0  0  0  0  0  0  0  0  0  0  0
  149.4921  158.9969  132.8292 H   0  0  0  0  0  0  0  0  0  0  0  0
  147.7117  161.1372  133.4836 H   0  0  0  0  0  0  0  0  0  0  0  0
  142.9100  160.7750  133.6470 H   0  0  0  0  0  0  0  0  0  0  0  0
  140.2277  160.3963  134.3339 H   0  0  0  0  0  0  0  0  0  0  0  0
  141.6165  160.1644  133.2186 H   0  0  0  0  0  0  0  0  0  0  0  0
  140.2586  158.9885  133.2186 H   0  0  0  0  0  0  0  0  0  0  0  0
  141.0489  156.9344  135.8580 H   0  0  0  0  0  0  0  0  0  0  0  0
  140.2087  157.2616  134.3044 H   0  0  0  0  0  0  0  0  0  0  0  0
  141.9336  156.7601  134.3044 H   0  0  0  0  0  0  0  0  0  0  0  0
  141.6623  158.7172  137.0845 H   0  0  0  0  0  0  0  0  0  0  0  0
  141.6248  160.3842  136.4164 H   0  0  0  0  0  0  0  0  0  0  0  0
  140.1335  159.3828  136.4164 H   0  0  0  0  0  0  0  0  0  0  0  0
  145.2675  156.2725  133.0525 H   0  0  0  0  0  0  0  0  0  0  0  0
  1  2  1  0
  2  3  1  0
  2  4  1  0
  4  5  1  0
  5  6  1  0
  6  7  2  0
  7  8  1  0
  8  9  2  0
  9 10  1  0
 10 11  2  0
 11 12  1  0
 12 13  1  0
 12 14  2  0
 11 15  1  0
 15 16  1  0
 16 17  2  0
 16 18  1  0
 18 19  1  0
 19 20  1  0
 19 21  1  0
 19 22  1  0
 15 23  1  0
 23 24  2  0
  4 25  1  0
 25 26  2  0
 25 27  1  0
 24  6  1  0
 23  9  1  0
  1 28  1  0
  1 29  1  0
  1 30  1  0
  2 31  1  0
  3 32  1  0
  3 33  1  0
  3 34  1  0
  4 35  1  1
  5 36  1  0
  5 37  1  0
  7 38  1  0
  8 39  1  0
 10 40  1  0
 13 41  1  0
 20 42  1  0
 20 43  1  0
 20 44  1  0
 21 45  1  0
 21 46  1  0
 21 47  1  0
 22 48  1  0
 22 49  1  0
 22 50  1  0
 24 51  1  0
M  CHG  3   5   1  13  -1  27  -1
M  END
>  <UniqueID>  (32) 
32

>  <SMILES>  (32) 
CC(C)[C@@H]([NH2+]c1ccc2cc(C([NH-])=O)n(C(=O)OC(C)(C)C)c2c1)C(=O)[O-]

>  <Energy>  (32) 
93.24615806411744

>  <Genealogy>  (32) 
CC(C)C([NH2+]c1ccc2cc(C([NH-])=O)n(C(=O)OC(C)(C)C)c2c1)C(=O)[O-] (protonated)
CC(C)[C@@H]([NH2+]c1ccc2cc(C([NH-])=O)n(C(=O)OC(C)(C)C)c2c1)C(=O)[O-] (chirality)
CC(C)[C@@H]([NH2+]c1ccc2cc(C([NH-])=O)n(C(=O)OC(C)(C)C)c2c1)C(=O)[O-] (3D coordinates assigned)
CC(C)[C@@H]([NH2+]c1ccc2cc(C([NH-])=O)n(C(=O)OC(C)(C)C)c2c1)C(=O)[O-] (optimized conformer: 93.24615806411744 kcal/mol)

>  <smiles>  (32) 
CC(C)C(Nc1ccc2cc(C(N)=O)n(C(=O)OC(C)(C)C)c2c1)C(=O)O

>  <score_type>  (32) 
oracle

>  <origin>  (32) 
adg

>  <m_score__min__energy>  (32) 
-8

>  <m_primary>  (32) 
energy

$$$$
32:0
     RDKit          3D

 34 35  0  0  0  0  0  0  0  0999 V2000
  140.5030  157.1490  135.7180 C   0  0  0  0  0  0  0  0  0  0  0  0
  141.1210  157.2690  134.3900 N   0  0  0  0  0  0  0  0  0  0  0  0
  140.3530  156.5130  133.3880 C   0  0  0  0  0  0  0  0  0  0  0  0
  142.4890  156.7990  134.4410 C   0  0  0  0  0  0  0  0  0  0  0  0
  142.8700  156.0670  135.3970 O   0  0  0  0  0  0  0  0  0  0  0  0
  143.4770  157.2040  133.4180 C   0  0  0  0  0  0  0  0  0  0  0  0
  143.7250  156.4440  132.4430 O   0  0  0  0  0  0  0  0  0  0  0  0
  144.1550  158.4650  133.5180 N   0  0  0  0  0  0  0  0  0  0  0  0
  143.6010  159.6930  133.7180 C   0  0  0  0  0  0  0  0  0  0  0  0
  142.1710  159.9620  133.9800 C   0  0  0  0  0  0  0  0  0  0  0  0
  141.2570  160.0640  132.8910 N   0  0  0  0  0  0  0  0  0  0  0  0
  141.7500  160.1220  135.1550 O   0  0  0  0  0  0  0  0  0  0  0  0
  144.5850  160.6810  133.6950 C   0  0  0  0  0  0  0  0  0  0  0  0
  145.7670  160.0130  133.4690 C   0  0  0  0  0  0  0  0  0  0  0  0
  147.0640  160.5030  133.3350 C   0  0  0  0  0  0  0  0  0  0  0  0
  148.0920  159.5810  133.0740 C   0  0  0  0  0  0  0  0  0  0  0  0
  147.8060  158.1990  132.9470 C   0  0  0  0  0  0  0  0  0  0  0  0
  148.8590  157.2730  132.6710 N   0  0  0  0  0  0  0  0  0  0  0  0
  146.4810  157.7390  133.0870 C   0  0  0  0  0  0  0  0  0  0  0  0
  145.4800  158.6770  133.3630 C   0  0  0  0  0  0  0  0  0  0  0  0
  141.2688  157.2977  136.4936 H   0  0  0  0  0  0  0  0  0  0  0  0
  139.7177  157.9114  135.8272 H   0  0  0  0  0  0  0  0  0  0  0  0
  140.0600  156.1481  135.8272 H   0  0  0  0  0  0  0  0  0  0  0  0
  141.0960  158.2760  134.1070 H   0  0  0  0  0  0  0  0  0  0  0  0
  139.6584  155.8292  133.8978 H   0  0  0  0  0  0  0  0  0  0  0  0
  139.7832  157.2124  132.7586 H   0  0  0  0  0  0  0  0  0  0  0  0
  141.0433  155.9323  132.7586 H   0  0  0  0  0  0  0  0  0  0  0  0
  141.5210  159.7380  131.9350 H   0  0  0  0  0  0  0  0  0  0  0  0
  144.4460  161.7639  133.8290 H   0  0  0  0  0  0  0  0  0  0  0  0
  147.2769  161.5780  133.4305 H   0  0  0  0  0  0  0  0  0  0  0  0
  149.1279  159.9353  132.9674 H   0  0  0  0  0  0  0  0  0  0  0  0
  149.6290  157.1180  133.3600 H   0  0  0  0  0  0  0  0  0  0  0  0
  148.8760  156.7360  131.7760 H   0  0  0  0  0  0  0  0  0  0  0  0
  146.2402  156.6708  132.9821 H   0  0  0  0  0  0  0  0  0  0  0  0
  1  2  1  0
  2  3  1  0
  2  4  1  0
  4  5  2  0
  4  6  1  0
  6  7  2  0
  6  8  1  0
  8  9  1  0
  9 10  1  0
 10 11  1  0
 10 12  2  0
  9 13  2  0
 13 14  1  0
 14 15  2  0
 15 16  1  0
 16 17  2  0
 17 18  1  0
 17 19  1  0
 19 20  2  0
 20  8  1  0
 20 14  1  0
  1 21  1  0
  1 22  1  0
  1 23  1  0
  2 24  1  0
  3 25  1  0
  3 26  1  0
  3 27  1  0
 11 28  1  0
 13 29  1  0
 15 30  1  0
 16 31  1  0
 18 32  1  0
 18 33  1  0
 19 34  1  0
M  CHG  2   2   1  11  -1
M  END
>  <UniqueID>  (33) 
33

>  <SMILES>  (33) 
C[NH+](C)C(=O)C(=O)n1c(C([NH-])=O)cc2ccc(N)cc21

>  <Energy>  (33) 
73.31721167145696

>  <Genealogy>  (33) 
C[NH+](C)C(=O)C(=O)n1c(C([NH-])=O)cc2ccc(N)cc21 (protonated)
C[NH+](C)C(=O)C(=O)n1c(C([NH-])=O)cc2ccc(N)cc21 (3D coordinates assigned)
C[NH+](C)C(=O)C(=O)n1c(C([NH-])=O)cc2ccc(N)cc21 (optimized conformer: 73.31721167145696 kcal/mol)

>  <smiles>  (33) 
CN(C)C(=O)C(=O)n1c(C(N)=O)cc2ccc(N)cc21

>  <score_type>  (33) 
oracle

>  <origin>  (33) 
adg

>  <m_score__min__energy>  (33) 
-6.0700000000000003

>  <m_primary>  (33) 
energy

$$$$
33:0
     RDKit          3D

 45 46  0  0  0  0  0  0  0  0999 V2000
  144.3630  154.6720  131.7470 C   0  0  0  0  0  0  0  0  0  0  0  0
  144.2980  155.1370  133.1390 N   0  0  0  0  0  0  0  0  0  0  0  0
  144.5830  154.1680  134.2090 C   0  0  0  0  0  0  0  0  0  0  0  0
  145.2520  154.8570  135.3990 C   0  0  0  0  0  0  0  0  0  0  0  0
  147.0200  154.6630  135.3020 Cl  0  0  0  0  0  0  0  0  0  0  0  0
  143.9310  156.5100  133.4350 C   0  0  0  0  0  0  0  0  0  0  0  0
  142.6010  156.8480  133.8160 C   0  0  0  0  0  0  0  0  0  0  0  0
  142.2390  158.1770  134.0910 C   0  0  0  0  0  0  0  0  0  0  0  0
  143.2190  159.1560  133.9860 C   0  0  0  0  0  0  0  0  0  0  0  0
  143.1350  160.5170  134.1710 C   0  0  0  0  0  0  0  0  0  0  0  0
  144.4170  161.0030  133.9230 C   0  0  0  0  0  0  0  0  0  0  0  0
  144.7960  162.4220  134.0940 C   0  0  0  0  0  0  0  0  0  0  0  0
  145.8450  162.7990  134.9830 N   0  0  0  0  0  0  0  0  0  0  0  0
  144.1540  163.3170  133.4820 O   0  0  0  0  0  0  0  0  0  0  0  0
  145.2580  159.9830  133.5900 N   0  0  0  0  0  0  0  0  0  0  0  0
  146.6320  160.0660  133.1850 C   0  0  0  0  0  0  0  0  0  0  0  0
  147.2920  161.1120  133.4270 O   0  0  0  0  0  0  0  0  0  0  0  0
  147.2120  158.9900  132.4970 O   0  0  0  0  0  0  0  0  0  0  0  0
  148.2830  158.1600  132.9620 C   0  0  0  0  0  0  0  0  0  0  0  0
  149.5580  158.6150  132.2340 C   0  0  0  0  0  0  0  0  0  0  0  0
  148.4870  158.3380  134.4790 C   0  0  0  0  0  0  0  0  0  0  0  0
  148.0140  156.6820  132.6180 C   0  0  0  0  0  0  0  0  0  0  0  0
  144.5090  158.8590  133.6360 C   0  0  0  0  0  0  0  0  0  0  0  0
  144.8940  157.5470  133.3380 C   0  0  0  0  0  0  0  0  0  0  0  0
  144.5153  153.5827  131.7310 H   0  0  0  0  0  0  0  0  0  0  0  0
  143.4217  154.9182  131.2338 H   0  0  0  0  0  0  0  0  0  0  0  0
  145.2007  155.1669  131.2338 H   0  0  0  0  0  0  0  0  0  0  0  0
  143.6400  153.7091  134.5410 H   0  0  0  0  0  0  0  0  0  0  0  0
  145.2648  153.3990  133.8169 H   0  0  0  0  0  0  0  0  0  0  0  0
  145.0021  155.9282  135.3871 H   0  0  0  0  0  0  0  0  0  0  0  0
  144.8896  154.3991  136.3312 H   0  0  0  0  0  0  0  0  0  0  0  0
  141.8438  156.0542  133.8963 H   0  0  0  0  0  0  0  0  0  0  0  0
  141.2098  158.4350  134.3810 H   0  0  0  0  0  0  0  0  0  0  0  0
  142.2449  161.0978  134.4545 H   0  0  0  0  0  0  0  0  0  0  0  0
  146.8440  162.7430  134.6880 H   0  0  0  0  0  0  0  0  0  0  0  0
  150.3248  158.8886  132.9737 H   0  0  0  0  0  0  0  0  0  0  0  0
  149.9327  157.7951  131.6036 H   0  0  0  0  0  0  0  0  0  0  0  0
  149.3290  159.4869  131.6036 H   0  0  0  0  0  0  0  0  0  0  0  0
  147.7663  157.7091  135.0222 H   0  0  0  0  0  0  0  0  0  0  0  0
  149.5107  158.0392  134.7489 H   0  0  0  0  0  0  0  0  0  0  0  0
  148.3297  159.3927  134.7489 H   0  0  0  0  0  0  0  0  0  0  0  0
  147.9086  156.1026  133.5471 H   0  0  0  0  0  0  0  0  0  0  0  0
  147.0871  156.6051  132.0307 H   0  0  0  0  0  0  0  0  0  0  0  0
  148.8544  156.2834  132.0307 H   0  0  0  0  0  0  0  0  0  0  0  0
  145.9271  157.3234  133.0334 H   0  0  0  0  0  0  0  0  0  0  0  0
  1  2  1  0
  2  3  1  0
  3  4  1  0
  4  5  1  0
  2  6  1  0
  6  7  2  0
  7  8  1  0
  8  9  2  0
  9 10  1  0
 10 11  2  0
 11 12  1  0
 12 13  1  0
 12 14  2  0
 11 15  1  0
 15 16  1  0
 16 17  2  0
 16 18  1  0
 18 19  1  0
 19 20  1  0
 19 21  1  0
 19 22  1  0
 15 23  1  0
 23 24  2  0
 24  6  1  0
 23  9  1  0
  1 25  1  0
  1 26  1  0
  1 27  1  0
  3 28  1  0
  3 29  1  0
  4 30  1  0
  4 31  1  0
  7 32  1  0
  8 33  1  0
 10 34  1  0
 13 35  1  0
 20 36  1  0
 20 37  1  0
 20 38  1  0
 21 39  1  0
 21 40  1  0
 21 41  1  0
 22 42  1  0
 22 43  1  0
 22 44  1  0
 24 45  1  0
M  CHG  1  13  -1
M  END
>  <UniqueID>  (34) 
34

>  <SMILES>  (34) 
CN(CCCl)c1ccc2cc(C([NH-])=O)n(C(=O)OC(C)(C)C)c2c1

>  <Energy>  (34) 
78.25146712147027

>  <Genealogy>  (34) 
CN(CCCl)c1ccc2cc(C([NH-])=O)n(C(=O)OC(C)(C)C)c2c1 (protonated)
CN(CCCl)c1ccc2cc(C([NH-])=O)n(C(=O)OC(C)(C)C)c2c1 (3D coordinates assigned)
CN(CCCl)c1ccc2cc(C([NH-])=O)n(C(=O)OC(C)(C)C)c2c1 (optimized conformer: 78.25146712147027 kcal/mol)

>  <smiles>  (34) 
CN(CCCl)c1ccc2cc(C(N)=O)n(C(=O)OC(C)(C)C)c2c1

>  <score_type>  (34) 
oracle

>  <origin>  (34) 
adg

>  <m_score__min__energy>  (34) 
-7.0899999999999999

>  <m_primary>  (34) 
energy

$$$$
34:0
     RDKit          3D

 35 37  0  0  0  0  0  0  0  0999 V2000
  149.1690  157.2110  131.9090 N   0  0  0  0  0  0  0  0  0  0  0  0
  148.7920  158.5370  132.2840 C   0  0  0  0  0  0  0  0  0  0  0  0
  149.6190  159.4770  132.1430 O   0  0  0  0  0  0  0  0  0  0  0  0
  147.4310  158.8370  132.7720 C   0  0  0  0  0  0  0  0  0  0  0  0
  146.9640  160.1290  132.9900 C   0  0  0  0  0  0  0  0  0  0  0  0
  145.6520  159.9810  133.3770 C   0  0  0  0  0  0  0  0  0  0  0  0
  144.7130  160.9430  133.7330 C   0  0  0  0  0  0  0  0  0  0  0  0
  143.4390  160.5060  134.1290 C   0  0  0  0  0  0  0  0  0  0  0  0
  143.1280  159.1220  134.1730 C   0  0  0  0  0  0  0  0  0  0  0  0
  141.7870  158.6730  134.6050 C   0  0  0  0  0  0  0  0  0  0  0  0
  140.7910  158.3530  133.7500 N   0  0  0  0  0  0  0  0  0  0  0  0
  139.7930  158.0140  134.5070 O   0  0  0  0  0  0  0  0  0  0  0  0
  140.1510  158.1190  135.7590 C   0  0  0  0  0  0  0  0  0  0  0  0
  139.3920  157.8570  136.7290 O   0  0  0  0  0  0  0  0  0  0  0  0
  141.4200  158.5380  135.9000 N   0  0  0  0  0  0  0  0  0  0  0  0
  144.1110  158.1750  133.8040 C   0  0  0  0  0  0  0  0  0  0  0  0
  145.3670  158.6390  133.3920 C   0  0  0  0  0  0  0  0  0  0  0  0
  146.4530  157.9210  133.0250 N   0  0  0  0  0  0  0  0  0  0  0  0
  146.5850  156.4900  133.0300 C   0  0  0  0  0  0  0  0  0  0  0  0
  145.7800  155.7770  132.3710 O   0  0  0  0  0  0  0  0  0  0  0  0
  147.6130  155.8920  133.7670 O   0  0  0  0  0  0  0  0  0  0  0  0
  147.5460  154.5480  134.2330 C   0  0  0  0  0  0  0  0  0  0  0  0
  148.2870  153.6340  133.2680 C   0  0  0  0  0  0  0  0  0  0  0  0
  148.4810  154.2920  132.0470 O   0  0  0  0  0  0  0  0  0  0  0  0
  150.1470  157.0100  131.6070 H   0  0  0  0  0  0  0  0  0  0  0  0
  148.4630  156.4440  131.8570 H   0  0  0  0  0  0  0  0  0  0  0  0
  147.5243  161.0688  132.8771 H   0  0  0  0  0  0  0  0  0  0  0  0
  144.9611  162.0143  133.7052 H   0  0  0  0  0  0  0  0  0  0  0  0
  142.6732  161.2446  134.4083 H   0  0  0  0  0  0  0  0  0  0  0  0
  143.8942  157.0972  133.8397 H   0  0  0  0  0  0  0  0  0  0  0  0
  148.0099  154.4824  135.2282 H   0  0  0  0  0  0  0  0  0  0  0  0
  146.4931  154.2357  134.2954 H   0  0  0  0  0  0  0  0  0  0  0  0
  149.2634  153.3644  133.6969 H   0  0  0  0  0  0  0  0  0  0  0  0
  147.6924  152.7239  133.1001 H   0  0  0  0  0  0  0  0  0  0  0  0
  147.6350  154.7740  131.8570 H   0  0  0  0  0  0  0  0  0  0  0  0
  1  2  1  0
  2  3  2  0
  2  4  1  0
  4  5  2  0
  5  6  1  0
  6  7  2  0
  7  8  1  0
  8  9  2  0
  9 10  1  0
 10 11  2  0
 11 12  1  0
 12 13  1  0
 13 14  2  0
 13 15  1  0
  9 16  1  0
 16 17  2  0
 17 18  1  0
 18 19  1  0
 19 20  2  0
 19 21  1  0
 21 22  1  0
 22 23  1  0
 23 24  1  0
 18  4  1  0
 17  6  1  0
 15 10  1  0
  1 25  1  0
  1 26  1  0
  5 27  1  0
  7 28  1  0
  8 29  1  0
 16 30  1  0
 22 31  1  0
 22 32  1  0
 23 33  1  0
 23 34  1  0
 24 35  1  0
M  CHG  1  15  -1
M  END
>  <UniqueID>  (35) 
35

>  <SMILES>  (35) 
NC(=O)c1cc2ccc(-c3noc(=O)[n-]3)cc2n1C(=O)OCCO

>  <Energy>  (35) 
106.11239085361082

>  <Genealogy>  (35) 
NC(=O)c1cc2ccc(-c3noc(=O)[n-]3)cc2n1C(=O)OCCO (protonated)
NC(=O)c1cc2ccc(-c3noc(=O)[n-]3)cc2n1C(=O)OCCO (3D coordinates assigned)
NC(=O)c1cc2ccc(-c3noc(=O)[n-]3)cc2n1C(=O)OCCO (optimized conformer: 106.11239085361082 kcal/mol)

>  <smiles>  (35) 
NC(=O)c1cc2ccc(-c3noc(=O)[nH]3)cc2n1C(=O)OCCO

>  <score_type>  (35) 
oracle

>  <origin>  (35) 
adg

>  <m_score__min__energy>  (35) 
-6.8799999999999999

>  <m_primary>  (35) 
energy

$$$$
35:0
     RDKit          3D

 35 37  0  0  0  0  0  0  0  0999 V2000
  148.9810  157.3440  131.8550 N   0  0  0  0  0  0  0  0  0  0  0  0
  148.6880  158.5460  132.5680 C   0  0  0  0  0  0  0  0  0  0  0  0
  149.6210  159.3520  132.8300 O   0  0  0  0  0  0  0  0  0  0  0  0
  147.3030  158.8930  132.9470 C   0  0  0  0  0  0  0  0  0  0  0  0
  146.8810  160.1950  133.1970 C   0  0  0  0  0  0  0  0  0  0  0  0
  145.5330  160.0970  133.4520 C   0  0  0  0  0  0  0  0  0  0  0  0
  144.6110  161.0880  133.7780 C   0  0  0  0  0  0  0  0  0  0  0  0
  143.2850  160.6980  134.0290 C   0  0  0  0  0  0  0  0  0  0  0  0
  142.9090  159.3340  133.9600 C   0  0  0  0  0  0  0  0  0  0  0  0
  141.4950  158.9180  134.2490 C   0  0  0  0  0  0  0  0  0  0  0  0
  140.6890  159.2200  133.1670 F   0  0  0  0  0  0  0  0  0  0  0  0
  141.0310  159.5870  135.3670 F   0  0  0  0  0  0  0  0  0  0  0  0
  143.8730  158.3550  133.6300 C   0  0  0  0  0  0  0  0  0  0  0  0
  145.1830  158.7730  133.3640 C   0  0  0  0  0  0  0  0  0  0  0  0
  146.2630  158.0190  133.0560 N   0  0  0  0  0  0  0  0  0  0  0  0
  146.3250  156.5850  132.9870 C   0  0  0  0  0  0  0  0  0  0  0  0
  145.3140  155.9280  132.6210 O   0  0  0  0  0  0  0  0  0  0  0  0
  147.5010  155.9290  133.3760 O   0  0  0  0  0  0  0  0  0  0  0  0
  147.8420  154.6120  133.0400 C   0  0  0  0  0  0  0  0  0  0  0  0
  147.0010  153.4990  133.0220 C   0  0  0  0  0  0  0  0  0  0  0  0
  147.6500  152.3310  132.6060 C   0  0  0  0  0  0  0  0  0  0  0  0
  148.9880  152.5370  132.2960 C   0  0  0  0  0  0  0  0  0  0  0  0
  149.8950  151.5310  131.8360 N   0  0  0  0  0  0  0  0  0  0  0  0
  149.9570  151.2480  130.6230 O   0  0  0  0  0  0  0  0  0  0  0  0
  150.7080  150.8700  132.7260 O   0  0  0  0  0  0  0  0  0  0  0  0
  149.3780  154.1590  132.5270 S   0  0  0  0  0  0  0  0  0  0  0  0
  148.2180  156.7410  131.4770 H   0  0  0  0  0  0  0  0  0  0  0  0
  149.9710  157.0940  131.6360 H   0  0  0  0  0  0  0  0  0  0  0  0
  147.4945  161.1080  133.1918 H   0  0  0  0  0  0  0  0  0  0  0  0
  144.9118  162.1444  133.8372 H   0  0  0  0  0  0  0  0  0  0  0  0
  142.5317  161.4588  134.2815 H   0  0  0  0  0  0  0  0  0  0  0  0
  141.4696  157.8339  134.4335 H   0  0  0  0  0  0  0  0  0  0  0  0
  143.6011  157.2902  133.5832 H   0  0  0  0  0  0  0  0  0  0  0  0
  145.9387  153.5357  133.3052 H   0  0  0  0  0  0  0  0  0  0  0  0
  147.1526  151.3526  132.5323 H   0  0  0  0  0  0  0  0  0  0  0  0
  1  2  1  0
  2  3  2  0
  2  4  1  0
  4  5  2  0
  5  6  1  0
  6  7  2  0
  7  8  1  0
  8  9  2  0
  9 10  1  0
 10 11  1  0
 10 12  1  0
  9 13  1  0
 13 14  2  0
 14 15  1  0
 15 16  1  0
 16 17  2  0
 16 18  1  0
 18 19  1  0
 19 20  2  0
 20 21  1  0
 21 22  2  0
 22 23  1  0
 23 24  2  0
 23 25  1  0
 22 26  1  0
 15  4  1  0
 26 19  1  0
 14  6  1  0
  1 27  1  0
  1 28  1  0
  5 29  1  0
  7 30  1  0
  8 31  1  0
 10 32  1  0
 13 33  1  0
 20 34  1  0
 21 35  1  0
M  CHG  2  23   1  25  -1
M  END
>  <UniqueID>  (36) 
36

>  <SMILES>  (36) 
NC(=O)c1cc2ccc(C(F)F)cc2n1C(=O)Oc1ccc([N+](=O)[O-])s1

>  <Energy>  (36) 
106.34609363477378

>  <Genealogy>  (36) 
NC(=O)c1cc2ccc(C(F)F)cc2n1C(=O)Oc1ccc([N+](=O)[O-])s1 (3D coordinates assigned)
NC(=O)c1cc2ccc(C(F)F)cc2n1C(=O)Oc1ccc([N+](=O)[O-])s1 (optimized conformer: 106.34609363477378 kcal/mol)

>  <smiles>  (36) 
NC(=O)c1cc2ccc(C(F)F)cc2n1C(=O)Oc1ccc([N+](=O)[O-])s1

>  <score_type>  (36) 
oracle

>  <origin>  (36) 
adg

>  <m_score__min__energy>  (36) 
-7.7800000000000002

>  <m_primary>  (36) 
energy

$$$$
36:0
     RDKit          3D

 43 44  0  0  0  0  0  0  0  0999 V2000
  148.4920  159.6560  133.3650 C   0  0  0  0  0  0  0  0  0  0  0  0
  148.2890  158.8650  132.1400 N   0  0  0  0  0  0  0  0  0  0  0  0
  149.0650  159.4560  131.0320 C   0  0  0  0  0  0  0  0  0  0  0  0
  148.6730  157.4560  132.3800 C   0  0  0  0  0  0  0  0  0  0  0  0
  147.6210  156.7120  133.1610 C   0  0  0  0  0  0  0  0  0  0  0  0
  147.9800  155.8500  134.0070 O   0  0  0  0  0  0  0  0  0  0  0  0
  146.2300  157.0120  132.9610 N   0  0  0  0  0  0  0  0  0  0  0  0
  145.1600  156.3840  133.6860 C   0  0  0  0  0  0  0  0  0  0  0  0
  145.3920  155.4270  134.4720 O   0  0  0  0  0  0  0  0  0  0  0  0
  143.8130  156.8540  133.5210 N   0  0  0  0  0  0  0  0  0  0  0  0
  143.3870  158.1410  133.3740 C   0  0  0  0  0  0  0  0  0  0  0  0
  144.2270  159.3530  133.4900 C   0  0  0  0  0  0  0  0  0  0  0  0
  145.3470  159.5570  132.6320 N   0  0  0  0  0  0  0  0  0  0  0  0
  143.9740  160.2030  134.3840 O   0  0  0  0  0  0  0  0  0  0  0  0
  142.0100  158.1780  133.1620 C   0  0  0  0  0  0  0  0  0  0  0  0
  141.6010  156.8640  133.1880 C   0  0  0  0  0  0  0  0  0  0  0  0
  140.3320  156.3130  133.0190 C   0  0  0  0  0  0  0  0  0  0  0  0
  140.2090  154.9130  133.0670 C   0  0  0  0  0  0  0  0  0  0  0  0
  141.3490  154.1020  133.2700 C   0  0  0  0  0  0  0  0  0  0  0  0
  141.2160  152.6700  133.3110 C   0  0  0  0  0  0  0  0  0  0  0  0
  141.1120  151.4700  133.3470 C   0  0  0  0  0  0  0  0  0  0  0  0
  140.9800  150.0110  133.3950 C   0  0  0  0  0  0  0  0  0  0  0  0
  139.6960  149.6310  132.9810 O   0  0  0  0  0  0  0  0  0  0  0  0
  142.6200  154.6890  133.4320 C   0  0  0  0  0  0  0  0  0  0  0  0
  142.7100  156.0850  133.4030 C   0  0  0  0  0  0  0  0  0  0  0  0
  148.3281  159.0172  134.2453 H   0  0  0  0  0  0  0  0  0  0  0  0
  149.5198  160.0477  133.3825 H   0  0  0  0  0  0  0  0  0  0  0  0
  147.7799  160.4942  133.3825 H   0  0  0  0  0  0  0  0  0  0  0  0
  147.2700  158.9080  131.8950 H   0  0  0  0  0  0  0  0  0  0  0  0
  149.8770  160.0744  131.4421 H   0  0  0  0  0  0  0  0  0  0  0  0
  149.4923  158.6524  130.4141 H   0  0  0  0  0  0  0  0  0  0  0  0
  148.4039  160.0815  130.4141 H   0  0  0  0  0  0  0  0  0  0  0  0
  148.8160  156.9563  131.4105 H   0  0  0  0  0  0  0  0  0  0  0  0
  149.6018  157.4515  132.9693 H   0  0  0  0  0  0  0  0  0  0  0  0
  145.9770  157.7360  132.2530 H   0  0  0  0  0  0  0  0  0  0  0  0
  145.5510  160.4980  132.2300 H   0  0  0  0  0  0  0  0  0  0  0  0
  141.3830  159.0684  133.0068 H   0  0  0  0  0  0  0  0  0  0  0  0
  139.4534  156.9538  132.8531 H   0  0  0  0  0  0  0  0  0  0  0  0
  139.2203  154.4463  132.9459 H   0  0  0  0  0  0  0  0  0  0  0  0
  141.7271  149.5557  132.7283 H   0  0  0  0  0  0  0  0  0  0  0  0
  141.1423  149.6680  134.4275 H   0  0  0  0  0  0  0  0  0  0  0  0
  139.0840  150.3680  133.2400 H   0  0  0  0  0  0  0  0  0  0  0  0
  143.5158  154.0673  133.5771 H   0  0  0  0  0  0  0  0  0  0  0  0
  1  2  1  0
  2  3  1  0
  2  4  1  0
  4  5  1  0
  5  6  2  0
  5  7  1  0
  7  8  1  0
  8  9  2  0
  8 10  1  0
 10 11  1  0
 11 12  1  0
 12 13  1  0
 12 14  2  0
 11 15  2  0
 15 16  1  0
 16 17  2  0
 17 18  1  0
 18 19  2  0
 19 20  1  0
 20 21  3  0
 21 22  1  0
 22 23  1  0
 19 24  1  0
 24 25  2  0
 25 10  1  0
 25 16  1  0
  1 26  1  0
  1 27  1  0
  1 28  1  0
  2 29  1  0
  3 30  1  0
  3 31  1  0
  3 32  1  0
  4 33  1  0
  4 34  1  0
  7 35  1  0
 13 36  1  0
 15 37  1  0
 17 38  1  0
 18 39  1  0
 22 40  1  0
 22 41  1  0
 23 42  1  0
 24 43  1  0
M  CHG  2   2   1  13  -1
M  END
>  <UniqueID>  (37) 
37

>  <SMILES>  (37) 
C[NH+](C)CC(=O)NC(=O)n1c(C([NH-])=O)cc2ccc(C#CCO)cc21

>  <Energy>  (37) 
76.19541522852091

>  <Genealogy>  (37) 
C[NH+](C)CC(=O)NC(=O)n1c(C([NH-])=O)cc2ccc(C#CCO)cc21 (protonated)
C[NH+](C)CC(=O)NC(=O)n1c(C([NH-])=O)cc2ccc(C#CCO)cc21 (3D coordinates assigned)
C[NH+](C)CC(=O)NC(=O)n1c(C([NH-])=O)cc2ccc(C#CCO)cc21 (optimized conformer: 76.19541522852091 kcal/mol)

>  <smiles>  (37) 
CN(C)CC(=O)NC(=O)n1c(C(N)=O)cc2ccc(C#CCO)cc21

>  <score_type>  (37) 
oracle

>  <origin>  (37) 
adg

>  <m_score__min__energy>  (37) 
-7.2699999999999996

>  <m_primary>  (37) 
energy

$$$$
37:0
     RDKit          3D

 34 35  0  0  0  0  0  0  0  0999 V2000
  139.5080  159.8040  132.1170 C   0  0  0  0  0  0  0  0  0  0  0  0
  140.5040  160.0580  133.1480 N   0  0  0  0  0  0  0  0  0  0  0  0
  141.7500  159.3600  133.2080 C   0  0  0  0  0  0  0  0  0  0  0  0
  141.8550  158.1980  132.7310 O   0  0  0  0  0  0  0  0  0  0  0  0
  142.9430  160.0340  133.8000 C   0  0  0  0  0  0  0  0  0  0  0  0
  144.0960  159.6790  133.0480 O   0  0  0  0  0  0  0  0  0  0  0  0
  145.3970  159.9460  133.4850 C   0  0  0  0  0  0  0  0  0  0  0  0
  145.6490  161.0050  134.1220 O   0  0  0  0  0  0  0  0  0  0  0  0
  146.4540  159.0230  133.1770 N   0  0  0  0  0  0  0  0  0  0  0  0
  146.6020  157.7400  133.6140 C   0  0  0  0  0  0  0  0  0  0  0  0
  145.6060  156.9620  134.3820 C   0  0  0  0  0  0  0  0  0  0  0  0
  144.2100  157.1110  134.1370 N   0  0  0  0  0  0  0  0  0  0  0  0
  145.9960  156.1170  135.2310 O   0  0  0  0  0  0  0  0  0  0  0  0
  147.8070  157.2060  133.1630 C   0  0  0  0  0  0  0  0  0  0  0  0
  148.3940  158.2040  132.4210 C   0  0  0  0  0  0  0  0  0  0  0  0
  149.6080  158.2170  131.7390 C   0  0  0  0  0  0  0  0  0  0  0  0
  149.9760  159.3970  131.0720 C   0  0  0  0  0  0  0  0  0  0  0  0
  149.1400  160.5400  131.1160 C   0  0  0  0  0  0  0  0  0  0  0  0
  149.5300  161.7850  130.3760 C   0  0  0  0  0  0  0  0  0  0  0  0
  147.9090  160.4860  131.8050 C   0  0  0  0  0  0  0  0  0  0  0  0
  147.5580  159.2910  132.4460 C   0  0  0  0  0  0  0  0  0  0  0  0
  138.5455  159.5585  132.5896 H   0  0  0  0  0  0  0  0  0  0  0  0
  139.3910  160.7011  131.4912 H   0  0  0  0  0  0  0  0  0  0  0  0
  139.8349  158.9605  131.4912 H   0  0  0  0  0  0  0  0  0  0  0  0
  142.8037  161.1247  133.7687 H   0  0  0  0  0  0  0  0  0  0  0  0
  143.0688  159.7159  134.8455 H   0  0  0  0  0  0  0  0  0  0  0  0
  143.8640  157.5510  133.2550 H   0  0  0  0  0  0  0  0  0  0  0  0
  148.2047  156.1993  133.3589 H   0  0  0  0  0  0  0  0  0  0  0  0
  150.2588  157.3303  131.7231 H   0  0  0  0  0  0  0  0  0  0  0  0
  150.9213  159.4340  130.5107 H   0  0  0  0  0  0  0  0  0  0  0  0
  149.7783  162.5776  131.0972 H   0  0  0  0  0  0  0  0  0  0  0  0
  150.4059  161.5767  129.7441 H   0  0  0  0  0  0  0  0  0  0  0  0
  148.6918  162.1137  129.7441 H   0  0  0  0  0  0  0  0  0  0  0  0
  147.2423  161.3603  131.8376 H   0  0  0  0  0  0  0  0  0  0  0  0
  1  2  1  0
  2  3  1  0
  3  4  2  0
  3  5  1  0
  5  6  1  0
  6  7  1  0
  7  8  2  0
  7  9  1  0
  9 10  1  0
 10 11  1  0
 11 12  1  0
 11 13  2  0
 10 14  2  0
 14 15  1  0
 15 16  2  0
 16 17  1  0
 17 18  2  0
 18 19  1  0
 18 20  1  0
 20 21  2  0
 21  9  1  0
 21 15  1  0
  1 22  1  0
  1 23  1  0
  1 24  1  0
  5 25  1  0
  5 26  1  0
 12 27  1  0
 14 28  1  0
 16 29  1  0
 17 30  1  0
 19 31  1  0
 19 32  1  0
 19 33  1  0
 20 34  1  0
M  CHG  2   2  -1  12  -1
M  END
>  <UniqueID>  (38) 
38

>  <SMILES>  (38) 
C[N-]C(=O)COC(=O)n1c(C([NH-])=O)cc2ccc(C)cc21

>  <Energy>  (38) 
66.54687347214166

>  <Genealogy>  (38) 
C[N-]C(=O)COC(=O)n1c(C([NH-])=O)cc2ccc(C)cc21 (protonated)
C[N-]C(=O)COC(=O)n1c(C([NH-])=O)cc2ccc(C)cc21 (3D coordinates assigned)
C[N-]C(=O)COC(=O)n1c(C([NH-])=O)cc2ccc(C)cc21 (optimized conformer: 66.54687347214166 kcal/mol)

>  <smiles>  (38) 
CNC(=O)COC(=O)n1c(C(N)=O)cc2ccc(C)cc21

>  <score_type>  (38) 
oracle

>  <origin>  (38) 
adg

>  <m_score__min__energy>  (38) 
-6.0300000000000002

>  <m_primary>  (38) 
energy

$$$$
38:0
     RDKit          3D

 31 32  0  0  0  0  0  0  0  0999 V2000
  139.1040  156.3160  132.6330 N   0  0  0  0  0  0  0  0  0  0  0  0
  140.3890  155.9790  133.1570 C   0  0  0  0  0  0  0  0  0  0  0  0
  140.5910  154.8150  133.5950 O   0  0  0  0  0  0  0  0  0  0  0  0
  141.4650  156.9860  133.2530 C   0  0  0  0  0  0  0  0  0  0  0  0
  142.8190  156.6730  133.1670 C   0  0  0  0  0  0  0  0  0  0  0  0
  143.4800  157.8610  133.3690 C   0  0  0  0  0  0  0  0  0  0  0  0
  144.8450  158.1360  133.3730 C   0  0  0  0  0  0  0  0  0  0  0  0
  145.2480  159.4670  133.5700 C   0  0  0  0  0  0  0  0  0  0  0  0
  144.2890  160.4930  133.7500 C   0  0  0  0  0  0  0  0  0  0  0  0
  144.7440  161.9140  133.9370 C   0  0  0  0  0  0  0  0  0  0  0  0
  145.1330  162.1080  135.2490 F   0  0  0  0  0  0  0  0  0  0  0  0
  143.7070  162.7780  133.6340 F   0  0  0  0  0  0  0  0  0  0  0  0
  142.9120  160.1790  133.7340 C   0  0  0  0  0  0  0  0  0  0  0  0
  142.5370  158.8410  133.5580 C   0  0  0  0  0  0  0  0  0  0  0  0
  141.2930  158.3180  133.4850 N   0  0  0  0  0  0  0  0  0  0  0  0
  140.0540  159.0450  133.5310 C   0  0  0  0  0  0  0  0  0  0  0  0
  139.0870  158.5950  134.2040 O   0  0  0  0  0  0  0  0  0  0  0  0
  139.9260  160.2480  132.8280 O   0  0  0  0  0  0  0  0  0  0  0  0
  138.9890  160.4410  131.7710 C   0  0  0  0  0  0  0  0  0  0  0  0
  138.3860  159.1330  131.3650 C   0  0  0  0  0  0  0  0  0  0  0  0
  137.2890  158.7650  131.8590 O   0  0  0  0  0  0  0  0  0  0  0  0
  139.0500  158.3080  130.4660 O   0  0  0  0  0  0  0  0  0  0  0  0
  138.8490  157.3060  132.4240 H   0  0  0  0  0  0  0  0  0  0  0  0
  138.3690  155.5800  132.5350 H   0  0  0  0  0  0  0  0  0  0  0  0
  143.2647  155.6853  132.9777 H   0  0  0  0  0  0  0  0  0  0  0  0
  145.5850  157.3354  133.2264 H   0  0  0  0  0  0  0  0  0  0  0  0
  146.3196  159.7148  133.5846 H   0  0  0  0  0  0  0  0  0  0  0  0
  145.5946  162.1127  133.2684 H   0  0  0  0  0  0  0  0  0  0  0  0
  142.1530  160.9657  133.8567 H   0  0  0  0  0  0  0  0  0  0  0  0
  138.1917  161.1176  132.1122 H   0  0  0  0  0  0  0  0  0  0  0  0
  139.5104  160.8779  130.9065 H   0  0  0  0  0  0  0  0  0  0  0  0
  1  2  1  0
  2  3  2  0
  2  4  1  0
  4  5  2  0
  5  6  1  0
  6  7  2  0
  7  8  1  0
  8  9  2  0
  9 10  1  0
 10 11  1  0
 10 12  1  0
  9 13  1  0
 13 14  2  0
 14 15  1  0
 15 16  1  0
 16 17  2  0
 16 18  1  0
 18 19  1  0
 19 20  1  0
 20 21  2  0
 20 22  1  0
 15  4  1  0
 14  6  1  0
  1 23  1  0
  1 24  1  0
  5 25  1  0
  7 26  1  0
  8 27  1  0
 10 28  1  0
 13 29  1  0
 19 30  1  0
 19 31  1  0
M  CHG  1  22  -1
M  END
>  <UniqueID>  (39) 
39

>  <SMILES>  (39) 
NC(=O)c1cc2ccc(C(F)F)cc2n1C(=O)OCC(=O)[O-]

>  <Energy>  (39) 
68.07229919931981

>  <Genealogy>  (39) 
NC(=O)c1cc2ccc(C(F)F)cc2n1C(=O)OCC(=O)[O-] (protonated)
NC(=O)c1cc2ccc(C(F)F)cc2n1C(=O)OCC(=O)[O-] (3D coordinates assigned)
NC(=O)c1cc2ccc(C(F)F)cc2n1C(=O)OCC(=O)[O-] (optimized conformer: 68.07229919931981 kcal/mol)

>  <smiles>  (39) 
NC(=O)c1cc2ccc(C(F)F)cc2n1C(=O)OCC(=O)O

>  <score_type>  (39) 
oracle

>  <origin>  (39) 
adg

>  <m_score__min__energy>  (39) 
-5.8600000000000003

>  <m_primary>  (39) 
energy

$$$$
39:0
     RDKit          3D

 42 43  0  0  0  0  0  0  0  0999 V2000
  149.9760  159.7410  130.7420 C   0  0  0  0  0  0  0  0  0  0  0  0
  149.7530  159.0190  131.9470 O   0  0  0  0  0  0  0  0  0  0  0  0
  148.8510  159.4470  132.9240 C   0  0  0  0  0  0  0  0  0  0  0  0
  148.8700  158.9470  134.0820 O   0  0  0  0  0  0  0  0  0  0  0  0
  147.8230  160.4770  132.5770 C   0  0  0  0  0  0  0  0  0  0  0  0
  146.4440  159.8300  132.4360 C   0  0  0  0  0  0  0  0  0  0  0  0
  145.6890  160.0010  133.6340 O   0  0  0  0  0  0  0  0  0  0  0  0
  144.3090  159.7770  133.7140 C   0  0  0  0  0  0  0  0  0  0  0  0
  143.5020  160.7440  133.6580 O   0  0  0  0  0  0  0  0  0  0  0  0
  143.8120  158.4360  133.8410 N   0  0  0  0  0  0  0  0  0  0  0  0
  142.5140  158.0380  133.9570 C   0  0  0  0  0  0  0  0  0  0  0  0
  141.3240  158.8980  133.7960 C   0  0  0  0  0  0  0  0  0  0  0  0
  141.2000  159.7780  132.6820 N   0  0  0  0  0  0  0  0  0  0  0  0
  140.3810  158.8220  134.6290 O   0  0  0  0  0  0  0  0  0  0  0  0
  142.4420  156.6630  134.1700 C   0  0  0  0  0  0  0  0  0  0  0  0
  143.7460  156.2250  134.1760 C   0  0  0  0  0  0  0  0  0  0  0  0
  144.2610  154.9450  134.3540 C   0  0  0  0  0  0  0  0  0  0  0  0
  145.6570  154.7870  134.3390 C   0  0  0  0  0  0  0  0  0  0  0  0
  146.5070  155.9080  134.1650 C   0  0  0  0  0  0  0  0  0  0  0  0
  148.0010  155.7220  134.1290 C   0  0  0  0  0  0  0  0  0  0  0  0
  148.4840  155.5320  132.6850 C   0  0  0  0  0  0  0  0  0  0  0  0
  149.5740  156.4510  132.3650 N   0  0  0  0  0  0  0  0  0  0  0  0
  145.9490  157.1910  133.9750 C   0  0  0  0  0  0  0  0  0  0  0  0
  144.5550  157.3150  133.9760 C   0  0  0  0  0  0  0  0  0  0  0  0
  150.2928  160.7666  130.9823 H   0  0  0  0  0  0  0  0  0  0  0  0
  150.7620  159.2423  130.1559 H   0  0  0  0  0  0  0  0  0  0  0  0
  149.0457  159.7724  130.1559 H   0  0  0  0  0  0  0  0  0  0  0  0
  147.7875  161.2356  133.3727 H   0  0  0  0  0  0  0  0  0  0  0  0
  148.0965  160.9448  131.6197 H   0  0  0  0  0  0  0  0  0  0  0  0
  145.9070  160.3003  131.5991 H   0  0  0  0  0  0  0  0  0  0  0  0
  146.5727  158.7542  132.2462 H   0  0  0  0  0  0  0  0  0  0  0  0
  142.0440  160.1140  132.1660 H   0  0  0  0  0  0  0  0  0  0  0  0
  141.5345  156.0561  134.3048 H   0  0  0  0  0  0  0  0  0  0  0  0
  143.5950  154.0822  134.5021 H   0  0  0  0  0  0  0  0  0  0  0  0
  146.0939  153.7852  134.4633 H   0  0  0  0  0  0  0  0  0  0  0  0
  148.4869  156.6101  134.5594 H   0  0  0  0  0  0  0  0  0  0  0  0
  148.2623  154.8268  134.7124 H   0  0  0  0  0  0  0  0  0  0  0  0
  148.8380  154.4982  132.5586 H   0  0  0  0  0  0  0  0  0  0  0  0
  147.6432  155.7408  132.0071 H   0  0  0  0  0  0  0  0  0  0  0  0
  149.6380  157.1760  133.1180 H   0  0  0  0  0  0  0  0  0  0  0  0
  149.3480  156.9440  131.4690 H   0  0  0  0  0  0  0  0  0  0  0  0
  146.5935  158.0706  133.8299 H   0  0  0  0  0  0  0  0  0  0  0  0
  1  2  1  0
  2  3  1  0
  3  4  2  0
  3  5  1  0
  5  6  1  0
  6  7  1  0
  7  8  1  0
  8  9  2  0
  8 10  1  0
 10 11  1  0
 11 12  1  0
 12 13  1  0
 12 14  2  0
 11 15  2  0
 15 16  1  0
 16 17  2  0
 17 18  1  0
 18 19  2  0
 19 20  1  0
 20 21  1  0
 21 22  1  0
 19 23  1  0
 23 24  2  0
 24 10  1  0
 24 16  1  0
  1 25  1  0
  1 26  1  0
  1 27  1  0
  5 28  1  0
  5 29  1  0
  6 30  1  0
  6 31  1  0
 13 32  1  0
 15 33  1  0
 17 34  1  0
 18 35  1  0
 20 36  1  0
 20 37  1  0
 21 38  1  0
 21 39  1  0
 22 40  1  0
 22 41  1  0
 23 42  1  0
M  CHG  1  13  -1
M  END
>  <UniqueID>  (40) 
40

>  <SMILES>  (40) 
COC(=O)CCOC(=O)n1c(C([NH-])=O)cc2ccc(CCN)cc21

>  <Energy>  (40) 
70.56544475994164

>  <Genealogy>  (40) 
COC(=O)CCOC(=O)n1c(C([NH-])=O)cc2ccc(CCN)cc21 (protonated)
COC(=O)CCOC(=O)n1c(C([NH-])=O)cc2ccc(CCN)cc21 (3D coordinates assigned)
COC(=O)CCOC(=O)n1c(C([NH-])=O)cc2ccc(CCN)cc21 (optimized conformer: 70.56544475994164 kcal/mol)

>  <smiles>  (40) 
COC(=O)CCOC(=O)n1c(C(N)=O)cc2ccc(CCN)cc21

>  <score_type>  (40) 
oracle

>  <origin>  (40) 
adg

>  <m_score__min__energy>  (40) 
-6.3899999999999997

>  <m_primary>  (40) 
energy

$$$$
40:0
     RDKit          3D

 34 35  0  0  0  0  0  0  0  0999 V2000
  149.0760  158.2680  131.2250 N   0  0  0  0  0  0  0  0  0  0  0  0
  148.5190  159.0860  132.2510 C   0  0  0  0  0  0  0  0  0  0  0  0
  149.1670  160.0840  132.6640 O   0  0  0  0  0  0  0  0  0  0  0  0
  147.1720  158.8120  132.7930 C   0  0  0  0  0  0  0  0  0  0  0  0
  146.1720  159.7780  132.8850 C   0  0  0  0  0  0  0  0  0  0  0  0
  145.0620  159.1110  133.3500 C   0  0  0  0  0  0  0  0  0  0  0  0
  143.7850  159.5880  133.6330 C   0  0  0  0  0  0  0  0  0  0  0  0
  142.8380  158.6770  134.1280 C   0  0  0  0  0  0  0  0  0  0  0  0
  143.1850  157.3210  134.3460 C   0  0  0  0  0  0  0  0  0  0  0  0
  142.1570  156.3490  134.8570 C   0  0  0  0  0  0  0  0  0  0  0  0
  142.5660  155.8260  136.2000 C   0  0  0  0  0  0  0  0  0  0  0  0
  143.7550  155.0500  136.3420 N   0  0  0  0  0  0  0  0  0  0  0  0
  141.8770  156.1060  137.2180 O   0  0  0  0  0  0  0  0  0  0  0  0
  144.4890  156.8710  134.0380 C   0  0  0  0  0  0  0  0  0  0  0  0
  145.4070  157.7960  133.5280 C   0  0  0  0  0  0  0  0  0  0  0  0
  146.7010  157.5970  133.1920 N   0  0  0  0  0  0  0  0  0  0  0  0
  147.4390  156.3740  133.3350 C   0  0  0  0  0  0  0  0  0  0  0  0
  147.8120  155.7410  132.3100 O   0  0  0  0  0  0  0  0  0  0  0  0
  147.7200  155.8780  134.6140 O   0  0  0  0  0  0  0  0  0  0  0  0
  147.7080  154.4900  134.9370 C   0  0  0  0  0  0  0  0  0  0  0  0
  146.3160  154.0390  135.2430 C   0  0  0  0  0  0  0  0  0  0  0  0
  145.4760  153.9060  134.3130 O   0  0  0  0  0  0  0  0  0  0  0  0
  145.9510  153.7370  136.5490 O   0  0  0  0  0  0  0  0  0  0  0  0
  148.7960  157.2680  131.1240 H   0  0  0  0  0  0  0  0  0  0  0  0
  146.2528  160.8469  132.6382 H   0  0  0  0  0  0  0  0  0  0  0  0
  143.5261  160.6452  133.4738 H   0  0  0  0  0  0  0  0  0  0  0  0
  141.8163  159.0198  134.3487 H   0  0  0  0  0  0  0  0  0  0  0  0
  141.1863  156.8589  134.9453 H   0  0  0  0  0  0  0  0  0  0  0  0
  142.0752  155.5080  134.1527 H   0  0  0  0  0  0  0  0  0  0  0  0
  144.3470  154.8260  135.5100 H   0  0  0  0  0  0  0  0  0  0  0  0
  144.0480  154.7000  137.2800 H   0  0  0  0  0  0  0  0  0  0  0  0
  144.7750  155.8205  134.1952 H   0  0  0  0  0  0  0  0  0  0  0  0
  148.0957  153.9156  134.0828 H   0  0  0  0  0  0  0  0  0  0  0  0
  148.3399  154.3237  135.8219 H   0  0  0  0  0  0  0  0  0  0  0  0
  1  2  1  0
  2  3  2  0
  2  4  1  0
  4  5  2  0
  5  6  1  0
  6  7  2  0
  7  8  1  0
  8  9  2  0
  9 10  1  0
 10 11  1  0
 11 12  1  0
 11 13  2  0
  9 14  1  0
 14 15  2  0
 15 16  1  0
 16 17  1  0
 17 18  2  0
 17 19  1  0
 19 20  1  0
 20 21  1  0
 21 22  2  0
 21 23  1  0
 16  4  1  0
 15  6  1  0
  1 24  1  0
  5 25  1  0
  7 26  1  0
  8 27  1  0
 10 28  1  0
 10 29  1  0
 12 30  1  0
 12 31  1  0
 14 32  1  0
 20 33  1  0
 20 34  1  0
M  CHG  2   1  -1  23  -1
M  END
>  <UniqueID>  (41) 
41

>  <SMILES>  (41) 
[NH-]C(=O)c1cc2ccc(CC(N)=O)cc2n1C(=O)OCC(=O)[O-]

>  <Energy>  (41) 
67.88180799978116

>  <Genealogy>  (41) 
[NH-]C(=O)c1cc2ccc(CC(N)=O)cc2n1C(=O)OCC(=O)[O-] (protonated)
[NH-]C(=O)c1cc2ccc(CC(N)=O)cc2n1C(=O)OCC(=O)[O-] (3D coordinates assigned)
[NH-]C(=O)c1cc2ccc(CC(N)=O)cc2n1C(=O)OCC(=O)[O-] (optimized conformer: 67.88180799978116 kcal/mol)

>  <smiles>  (41) 
NC(=O)Cc1ccc2cc(C(N)=O)n(C(=O)OCC(=O)O)c2c1

>  <score_type>  (41) 
oracle

>  <origin>  (41) 
adg

>  <m_score__min__energy>  (41) 
-5.7699999999999996

>  <m_primary>  (41) 
energy

$$$$
41:0
     RDKit          3D

 37 38  0  0  0  0  0  0  0  0999 V2000
  149.7310  151.2930  133.5680 C   0  0  0  0  0  0  0  0  0  0  0  0
  149.6010  152.1710  132.3660 C   0  0  0  0  0  0  0  0  0  0  0  0
  149.8890  151.7190  131.2270 O   0  0  0  0  0  0  0  0  0  0  0  0
  149.1490  153.5290  132.4960 C   0  0  0  0  0  0  0  0  0  0  0  0
  148.7710  154.6680  132.6060 C   0  0  0  0  0  0  0  0  0  0  0  0
  148.3190  156.0280  132.7400 C   0  0  0  0  0  0  0  0  0  0  0  0
  149.2280  157.0940  132.5480 C   0  0  0  0  0  0  0  0  0  0  0  0
  148.8010  158.4260  132.6880 C   0  0  0  0  0  0  0  0  0  0  0  0
  147.4650  158.6520  133.0080 C   0  0  0  0  0  0  0  0  0  0  0  0
  146.7940  159.8350  133.2250 C   0  0  0  0  0  0  0  0  0  0  0  0
  145.4830  159.4680  133.5220 C   0  0  0  0  0  0  0  0  0  0  0  0
  144.3960  160.4440  133.7400 C   0  0  0  0  0  0  0  0  0  0  0  0
  143.0620  160.1190  133.3570 N   0  0  0  0  0  0  0  0  0  0  0  0
  144.6240  161.5520  134.2950 O   0  0  0  0  0  0  0  0  0  0  0  0
  145.3490  158.1110  133.4970 N   0  0  0  0  0  0  0  0  0  0  0  0
  144.1830  157.3310  133.8040 C   0  0  0  0  0  0  0  0  0  0  0  0
  143.1600  157.4070  133.0690 O   0  0  0  0  0  0  0  0  0  0  0  0
  144.1790  156.5090  134.9370 O   0  0  0  0  0  0  0  0  0  0  0  0
  144.2790  155.0850  134.8750 C   0  0  1  0  0  0  0  0  0  0  0  0
  144.2480  154.6440  133.4160 C   0  0  0  0  0  0  0  0  0  0  0  0
  145.5480  154.6210  135.5280 C   0  0  0  0  0  0  0  0  0  0  0  0
  145.6550  153.4360  135.9430 O   0  0  0  0  0  0  0  0  0  0  0  0
  146.5980  155.5110  135.7130 O   0  0  0  0  0  0  0  0  0  0  0  0
  146.5700  157.6270  133.1780 C   0  0  0  0  0  0  0  0  0  0  0  0
  146.9730  156.2910  133.0640 C   0  0  0  0  0  0  0  0  0  0  0  0
  149.6407  151.9028  134.4790 H   0  0  0  0  0  0  0  0  0  0  0  0
  148.9355  150.5333  133.5549 H   0  0  0  0  0  0  0  0  0  0  0  0
  150.7125  150.7964  133.5549 H   0  0  0  0  0  0  0  0  0  0  0  0
  150.2751  156.8798  132.2877 H   0  0  0  0  0  0  0  0  0  0  0  0
  149.5005  159.2635  132.5491 H   0  0  0  0  0  0  0  0  0  0  0  0
  147.2058  160.8538  133.1746 H   0  0  0  0  0  0  0  0  0  0  0  0
  142.8760  159.4740  132.5560 H   0  0  0  0  0  0  0  0  0  0  0  0
  143.4301  154.6375  135.4128 H   0  0  0  0  0  0  0  0  0  0  0  0
  144.1709  153.5478  133.3658 H   0  0  0  0  0  0  0  0  0  0  0  0
  143.3794  155.0960  132.9147 H   0  0  0  0  0  0  0  0  0  0  0  0
  145.1713  154.9700  132.9147 H   0  0  0  0  0  0  0  0  0  0  0  0
  146.2589  155.4696  133.2229 H   0  0  0  0  0  0  0  0  0  0  0  0
  1  2  1  0
  2  3  2  0
  2  4  1  0
  4  5  3  0
  5  6  1  0
  6  7  2  0
  7  8  1  0
  8  9  2  0
  9 10  1  0
 10 11  2  0
 11 12  1  0
 12 13  1  0
 12 14  2  0
 11 15  1  0
 15 16  1  0
 16 17  2  0
 16 18  1  0
 18 19  1  0
 19 20  1  0
 19 21  1  0
 21 22  2  0
 21 23  1  0
 15 24  1  0
 24 25  2  0
 25  6  1  0
 24  9  1  0
  1 26  1  0
  1 27  1  0
  1 28  1  0
  7 29  1  0
  8 30  1  0
 10 31  1  0
 13 32  1  0
 19 33  1  1
 20 34  1  0
 20 35  1  0
 20 36  1  0
 25 37  1  0
M  CHG  2  13  -1  23  -1
M  END
>  <UniqueID>  (42) 
42

>  <SMILES>  (42) 
CC(=O)C#Cc1ccc2cc(C([NH-])=O)n(C(=O)O[C@@H](C)C(=O)[O-])c2c1

>  <Energy>  (42) 
64.6618637340271

>  <Genealogy>  (42) 
CC(=O)C#Cc1ccc2cc(C([NH-])=O)n(C(=O)OC(C)C(=O)[O-])c2c1 (protonated)
CC(=O)C#Cc1ccc2cc(C([NH-])=O)n(C(=O)O[C@@H](C)C(=O)[O-])c2c1 (chirality)
CC(=O)C#Cc1ccc2cc(C([NH-])=O)n(C(=O)O[C@@H](C)C(=O)[O-])c2c1 (3D coordinates assigned)
CC(=O)C#Cc1ccc2cc(C([NH-])=O)n(C(=O)O[C@@H](C)C(=O)[O-])c2c1 (optimized conformer: 64.6618637340271 kcal/mol)

>  <smiles>  (42) 
CC(=O)C#Cc1ccc2cc(C(N)=O)n(C(=O)OC(C)C(=O)O)c2c1

>  <score_type>  (42) 
oracle

>  <origin>  (42) 
adg

>  <m_score__min__energy>  (42) 
-7.4699999999999998

>  <m_primary>  (42) 
energy

$$$$
42:0
     RDKit          3D

 43 44  0  0  0  0  0  0  0  0999 V2000
  137.7120  158.9310  131.4820 C   0  0  0  0  0  0  0  0  0  0  0  0
  139.1190  159.4380  131.8440 C   0  0  0  0  0  0  0  0  0  0  0  0
  140.1240  158.9900  130.7630 C   0  0  0  0  0  0  0  0  0  0  0  0
  139.1070  160.9800  131.9020 C   0  0  0  0  0  0  0  0  0  0  0  0
  139.5130  158.8610  133.1890 C   0  0  0  0  0  0  0  0  0  0  0  0
  138.6980  158.1330  133.8220 O   0  0  0  0  0  0  0  0  0  0  0  0
  140.7450  159.1940  133.7660 O   0  0  0  0  0  0  0  0  0  0  0  0
  141.3970  158.3660  134.7220 C   0  0  0  0  0  0  0  0  0  0  0  0
  142.7960  158.6230  134.6880 O   0  0  0  0  0  0  0  0  0  0  0  0
  143.5780  158.4440  133.5430 C   0  0  0  0  0  0  0  0  0  0  0  0
  143.1410  157.7630  132.5760 O   0  0  0  0  0  0  0  0  0  0  0  0
  144.8960  159.0130  133.4870 N   0  0  0  0  0  0  0  0  0  0  0  0
  145.2430  160.3330  133.5260 C   0  0  0  0  0  0  0  0  0  0  0  0
  144.3330  161.4630  133.8050 C   0  0  0  0  0  0  0  0  0  0  0  0
  142.9200  161.3130  133.6940 N   0  0  0  0  0  0  0  0  0  0  0  0
  144.8070  162.5610  134.2000 O   0  0  0  0  0  0  0  0  0  0  0  0
  146.6180  160.4820  133.3630 C   0  0  0  0  0  0  0  0  0  0  0  0
  147.1120  159.2040  133.2340 C   0  0  0  0  0  0  0  0  0  0  0  0
  148.4200  158.7640  133.0520 C   0  0  0  0  0  0  0  0  0  0  0  0
  148.6400  157.3820  132.9340 C   0  0  0  0  0  0  0  0  0  0  0  0
  147.5560  156.4710  132.9910 C   0  0  0  0  0  0  0  0  0  0  0  0
  147.8120  154.9960  132.8620 C   0  0  0  0  0  0  0  0  0  0  0  0
  149.1390  154.7780  132.5390 F   0  0  0  0  0  0  0  0  0  0  0  0
  147.5230  154.3680  134.0600 F   0  0  0  0  0  0  0  0  0  0  0  0
  146.2430  156.9550  133.1770 C   0  0  0  0  0  0  0  0  0  0  0  0
  146.0540  158.3360  133.3120 C   0  0  0  0  0  0  0  0  0  0  0  0
  137.1472  158.7275  132.4037 H   0  0  0  0  0  0  0  0  0  0  0  0
  137.1870  159.6965  130.8917 H   0  0  0  0  0  0  0  0  0  0  0  0
  137.7960  158.0066  130.8917 H   0  0  0  0  0  0  0  0  0  0  0  0
  141.0267  158.5876  131.2458 H   0  0  0  0  0  0  0  0  0  0  0  0
  139.6653  158.2111  130.1361 H   0  0  0  0  0  0  0  0  0  0  0  0
  140.3967  159.8518  130.1361 H   0  0  0  0  0  0  0  0  0  0  0  0
  139.1044  161.3074  132.9521 H   0  0  0  0  0  0  0  0  0  0  0  0
  140.0021  161.3729  131.3976 H   0  0  0  0  0  0  0  0  0  0  0  0
  138.2059  161.3589  131.3976 H   0  0  0  0  0  0  0  0  0  0  0  0
  141.0069  158.5866  135.7265 H   0  0  0  0  0  0  0  0  0  0  0  0
  141.2100  157.3086  134.4833 H   0  0  0  0  0  0  0  0  0  0  0  0
  142.4930  160.3860  133.4790 H   0  0  0  0  0  0  0  0  0  0  0  0
  147.1885  161.4222  133.3419 H   0  0  0  0  0  0  0  0  0  0  0  0
  149.2560  159.4772  133.0021 H   0  0  0  0  0  0  0  0  0  0  0  0
  149.6634  157.0031  132.7960 H   0  0  0  0  0  0  0  0  0  0  0  0
  147.1705  154.5869  132.0676 H   0  0  0  0  0  0  0  0  0  0  0  0
  145.3883  156.2636  133.2150 H   0  0  0  0  0  0  0  0  0  0  0  0
  1  2  1  0
  2  3  1  0
  2  4  1  0
  2  5  1  0
  5  6  2  0
  5  7  1  0
  7  8  1  0
  8  9  1  0
  9 10  1  0
 10 11  2  0
 10 12  1  0
 12 13  1  0
 13 14  1  0
 14 15  1  0
 14 16  2  0
 13 17  2  0
 17 18  1  0
 18 19  2  0
 19 20  1  0
 20 21  2  0
 21 22  1  0
 22 23  1  0
 22 24  1  0
 21 25  1  0
 25 26  2  0
 26 12  1  0
 26 18  1  0
  1 27  1  0
  1 28  1  0
  1 29  1  0
  3 30  1  0
  3 31  1  0
  3 32  1  0
  4 33  1  0
  4 34  1  0
  4 35  1  0
  8 36  1  0
  8 37  1  0
 15 38  1  0
 17 39  1  0
 19 40  1  0
 20 41  1  0
 22 42  1  0
 25 43  1  0
M  CHG  1  15  -1
M  END
>  <UniqueID>  (43) 
43

>  <SMILES>  (43) 
CC(C)(C)C(=O)OCOC(=O)n1c(C([NH-])=O)cc2ccc(C(F)F)cc21

>  <Energy>  (43) 
72.97723783697238

>  <Genealogy>  (43) 
CC(C)(C)C(=O)OCOC(=O)n1c(C([NH-])=O)cc2ccc(C(F)F)cc21 (protonated)
CC(C)(C)C(=O)OCOC(=O)n1c(C([NH-])=O)cc2ccc(C(F)F)cc21 (3D coordinates assigned)
CC(C)(C)C(=O)OCOC(=O)n1c(C([NH-])=O)cc2ccc(C(F)F)cc21 (optimized conformer: 72.97723783697238 kcal/mol)

>  <smiles>  (43) 
CC(C)(C)C(=O)OCOC(=O)n1c(C(N)=O)cc2ccc(C(F)F)cc21

>  <score_type>  (43) 
oracle

>  <origin>  (43) 
adg

>  <m_score__min__energy>  (43) 
-6.4800000000000004

>  <m_primary>  (43) 
energy

$$$$
43:0
     RDKit          3D

 33 34  0  0  0  0  0  0  0  0999 V2000
  148.4910  156.9090  132.5920 C   0  0  0  0  0  0  0  0  0  0  0  0
  147.6880  157.9110  133.3020 N   0  0  0  0  0  0  0  0  0  0  0  0
  148.3050  159.1930  133.6850 C   0  0  0  0  0  0  0  0  0  0  0  0
  147.8100  160.3330  132.7940 C   0  0  0  0  0  0  0  0  0  0  0  0
  146.9740  161.1830  133.5280 O   0  0  0  0  0  0  0  0  0  0  0  0
  146.3110  157.6140  133.6350 C   0  0  0  0  0  0  0  0  0  0  0  0
  145.9310  156.2930  133.9940 C   0  0  0  0  0  0  0  0  0  0  0  0
  144.6030  155.9910  134.3370 C   0  0  0  0  0  0  0  0  0  0  0  0
  143.6700  157.0220  134.3040 C   0  0  0  0  0  0  0  0  0  0  0  0
  142.3290  157.0100  134.6110 C   0  0  0  0  0  0  0  0  0  0  0  0
  141.8940  158.3180  134.4110 C   0  0  0  0  0  0  0  0  0  0  0  0
  140.4820  158.7350  134.5500 C   0  0  0  0  0  0  0  0  0  0  0  0
  139.8050  158.5420  135.7900 N   0  0  0  0  0  0  0  0  0  0  0  0
  139.8560  159.2270  133.5750 O   0  0  0  0  0  0  0  0  0  0  0  0
  142.9280  159.1100  134.0040 N   0  0  0  0  0  0  0  0  0  0  0  0
  142.9110  160.5240  133.7530 C   0  0  0  0  0  0  0  0  0  0  0  0
  141.8180  161.1250  133.5690 O   0  0  0  0  0  0  0  0  0  0  0  0
  144.0950  161.2480  133.7340 O   0  0  0  0  0  0  0  0  0  0  0  0
  144.0080  158.2990  133.9410 C   0  0  0  0  0  0  0  0  0  0  0  0
  145.3270  158.6320  133.6120 C   0  0  0  0  0  0  0  0  0  0  0  0
  149.0055  156.2670  133.3222 H   0  0  0  0  0  0  0  0  0  0  0  0
  147.8339  156.2927  131.9608 H   0  0  0  0  0  0  0  0  0  0  0  0
  149.2356  157.4161  131.9608 H   0  0  0  0  0  0  0  0  0  0  0  0
  148.0472  159.4170  134.7306 H   0  0  0  0  0  0  0  0  0  0  0  0
  149.3948  159.1048  133.5645 H   0  0  0  0  0  0  0  0  0  0  0  0
  148.6724  160.9039  132.4194 H   0  0  0  0  0  0  0  0  0  0  0  0
  147.2464  159.9128  131.9480 H   0  0  0  0  0  0  0  0  0  0  0  0
  146.1270  161.2460  133.0150 H   0  0  0  0  0  0  0  0  0  0  0  0
  146.6880  155.4950  134.0035 H   0  0  0  0  0  0  0  0  0  0  0  0
  144.3097  154.9701  134.6231 H   0  0  0  0  0  0  0  0  0  0  0  0
  141.7283  156.1506  134.9435 H   0  0  0  0  0  0  0  0  0  0  0  0
  139.4880  159.3580  136.3600 H   0  0  0  0  0  0  0  0  0  0  0  0
  145.5940  159.6641  133.3409 H   0  0  0  0  0  0  0  0  0  0  0  0
  1  2  1  0
  2  3  1  0
  3  4  1  0
  4  5  1  0
  2  6  1  0
  6  7  2  0
  7  8  1  0
  8  9  2  0
  9 10  1  0
 10 11  2  0
 11 12  1  0
 12 13  1  0
 12 14  2  0
 11 15  1  0
 15 16  1  0
 16 17  2  0
 16 18  1  0
 15 19  1  0
 19 20  2  0
 20  6  1  0
 19  9  1  0
  1 21  1  0
  1 22  1  0
  1 23  1  0
  3 24  1  0
  3 25  1  0
  4 26  1  0
  4 27  1  0
  5 28  1  0
  7 29  1  0
  8 30  1  0
 10 31  1  0
 13 32  1  0
 20 33  1  0
M  CHG  2  13  -1  18  -1
M  END
>  <UniqueID>  (44) 
44

>  <SMILES>  (44) 
CN(CCO)c1ccc2cc(C([NH-])=O)n(C(=O)[O-])c2c1

>  <Energy>  (44) 
72.26662188831764

>  <Genealogy>  (44) 
CN(CCO)c1ccc2cc(C([NH-])=O)n(C(=O)[O-])c2c1 (protonated)
CN(CCO)c1ccc2cc(C([NH-])=O)n(C(=O)[O-])c2c1 (3D coordinates assigned)
CN(CCO)c1ccc2cc(C([NH-])=O)n(C(=O)[O-])c2c1 (optimized conformer: 72.26662188831764 kcal/mol)

>  <smiles>  (44) 
CN(CCO)c1ccc2cc(C(N)=O)n(C(=O)O)c2c1

>  <score_type>  (44) 
oracle

>  <origin>  (44) 
adg

>  <m_score__min__energy>  (44) 
-5.9500000000000002

>  <m_primary>  (44) 
energy

$$$$
44:0
     RDKit          3D

 33 35  0  0  0  0  0  0  0  0999 V2000
  145.4860  152.9900  134.5380 N   0  0  0  0  0  0  0  0  0  0  0  0
  146.3660  153.8820  135.2180 C   0  0  0  0  0  0  0  0  0  0  0  0
  146.6930  153.6340  136.4090 O   0  0  0  0  0  0  0  0  0  0  0  0
  146.8710  155.1040  134.5580 C   0  0  0  0  0  0  0  0  0  0  0  0
  146.4220  156.3890  134.8580 C   0  0  0  0  0  0  0  0  0  0  0  0
  147.0970  157.2210  133.9920 C   0  0  0  0  0  0  0  0  0  0  0  0
  147.0490  158.6060  133.8630 C   0  0  0  0  0  0  0  0  0  0  0  0
  147.8820  159.2070  132.9050 C   0  0  0  0  0  0  0  0  0  0  0  0
  148.7460  158.4180  132.1010 C   0  0  0  0  0  0  0  0  0  0  0  0
  149.6490  159.0660  131.0930 C   0  0  0  0  0  0  0  0  0  0  0  0
  149.0380  159.0650  129.8520 F   0  0  0  0  0  0  0  0  0  0  0  0
  149.9140  160.3700  131.4720 F   0  0  0  0  0  0  0  0  0  0  0  0
  148.7690  157.0160  132.2660 C   0  0  0  0  0  0  0  0  0  0  0  0
  147.9170  156.4440  133.2150 C   0  0  0  0  0  0  0  0  0  0  0  0
  147.7860  155.1420  133.5490 N   0  0  0  0  0  0  0  0  0  0  0  0
  148.5290  154.0350  133.0140 C   0  0  0  0  0  0  0  0  0  0  0  0
  149.4830  154.2800  132.2240 O   0  0  0  0  0  0  0  0  0  0  0  0
  148.1400  152.6620  133.2880 N   0  0  2  0  0  0  0  0  0  0  0  0
  149.2920  151.7190  133.3070 C   0  0  0  0  0  0  0  0  0  0  0  0
  149.0110  150.7520  132.2140 C   0  0  0  0  0  0  0  0  0  0  0  0
  149.7590  149.7910  131.8920 O   0  0  0  0  0  0  0  0  0  0  0  0
  147.8210  151.0230  131.5900 O   0  0  0  0  0  0  0  0  0  0  0  0
  147.3090  152.1290  132.2350 C   0  0  0  0  0  0  0  0  0  0  0  0
  146.1640  152.5850  131.9710 O   0  0  0  0  0  0  0  0  0  0  0  0
  145.8570  152.2370  133.9160 H   0  0  0  0  0  0  0  0  0  0  0  0
  145.6859  156.6772  135.6229 H   0  0  0  0  0  0  0  0  0  0  0  0
  146.3794  159.2112  134.4918 H   0  0  0  0  0  0  0  0  0  0  0  0
  147.8648  160.2993  132.7765 H   0  0  0  0  0  0  0  0  0  0  0  0
  150.5918  158.5018  131.0393 H   0  0  0  0  0  0  0  0  0  0  0  0
  149.4413  156.3889  131.6622 H   0  0  0  0  0  0  0  0  0  0  0  0
  147.6120  152.6130  134.1880 H   0  0  0  0  0  0  0  0  0  0  0  0
  150.2340  152.2545  133.1176 H   0  0  0  0  0  0  0  0  0  0  0  0
  149.4048  151.2218  134.2817 H   0  0  0  0  0  0  0  0  0  0  0  0
  1  2  1  0
  2  3  2  0
  2  4  1  0
  4  5  2  0
  5  6  1  0
  6  7  2  0
  7  8  1  0
  8  9  2  0
  9 10  1  0
 10 11  1  0
 10 12  1  0
  9 13  1  0
 13 14  2  0
 14 15  1  0
 15 16  1  0
 16 17  2  0
 16 18  1  0
 18 19  1  0
 19 20  1  0
 20 21  2  0
 20 22  1  0
 22 23  1  0
 23 24  2  0
 15  4  1  0
 23 18  1  0
 14  6  1  0
  1 25  1  0
  5 26  1  0
  7 27  1  0
  8 28  1  0
 10 29  1  0
 13 30  1  0
 18 31  1  1
 19 32  1  0
 19 33  1  0
M  CHG  2   1  -1  18   1
M  END
>  <UniqueID>  (45) 
45

>  <SMILES>  (45) 
[NH-]C(=O)c1cc2ccc(C(F)F)cc2n1C(=O)[N@@H+]1CC(=O)OC1=O

>  <Energy>  (45) 
94.2723082763724

>  <Genealogy>  (45) 
[NH-]C(=O)c1cc2ccc(C(F)F)cc2n1C(=O)[NH+]1CC(=O)OC1=O (protonated)
[NH-]C(=O)c1cc2ccc(C(F)F)cc2n1C(=O)[N@@H+]1CC(=O)OC1=O (chirality)
[NH-]C(=O)c1cc2ccc(C(F)F)cc2n1C(=O)[N@@H+]1CC(=O)OC1=O (3D coordinates assigned)
[NH-]C(=O)c1cc2ccc(C(F)F)cc2n1C(=O)[N@@H+]1CC(=O)OC1=O (nonaromatic ring conformer: 94.2723082763724 kcal/mol)

>  <smiles>  (45) 
NC(=O)c1cc2ccc(C(F)F)cc2n1C(=O)N1CC(=O)OC1=O

>  <score_type>  (45) 
oracle

>  <origin>  (45) 
adg

>  <m_score__min__energy>  (45) 
-6.2599999999999998

>  <m_primary>  (45) 
energy

$$$$
45:0
     RDKit          3D

 43 44  0  0  0  0  0  0  0  0999 V2000
  144.8300  152.3230  132.5360 C   0  0  0  0  0  0  0  0  0  0  0  0
  143.9850  153.5170  132.6460 N   0  0  0  0  0  0  0  0  0  0  0  0
  144.5640  154.8540  132.4640 C   0  0  0  0  0  0  0  0  0  0  0  0
  144.5520  155.6350  133.7480 C   0  0  0  0  0  0  0  0  0  0  0  0
  144.7700  155.0520  134.8420 O   0  0  0  0  0  0  0  0  0  0  0  0
  144.2750  157.0410  133.7380 N   0  0  0  0  0  0  0  0  0  0  0  0
  143.1010  157.6600  134.0480 C   0  0  0  0  0  0  0  0  0  0  0  0
  141.8420  156.9940  134.4510 C   0  0  0  0  0  0  0  0  0  0  0  0
  141.8330  155.8130  135.2540 N   0  0  0  0  0  0  0  0  0  0  0  0
  140.7440  157.4650  134.0500 O   0  0  0  0  0  0  0  0  0  0  0  0
  143.2640  159.0430  134.0380 C   0  0  0  0  0  0  0  0  0  0  0  0
  144.5880  159.2540  133.7250 C   0  0  0  0  0  0  0  0  0  0  0  0
  145.3070  160.4420  133.6230 C   0  0  0  0  0  0  0  0  0  0  0  0
  146.6850  160.3560  133.3600 C   0  0  0  0  0  0  0  0  0  0  0  0
  147.3190  159.0940  133.2380 C   0  0  0  0  0  0  0  0  0  0  0  0
  148.7880  159.0140  132.9510 C   0  0  0  0  0  0  0  0  0  0  0  0
  149.1840  159.7650  130.9910 I   0  0  0  0  0  0  0  0  0  0  0  0
  146.5540  157.9120  133.3450 C   0  0  0  0  0  0  0  0  0  0  0  0
  145.1790  158.0290  133.5670 C   0  0  0  0  0  0  0  0  0  0  0  0
  142.5690  153.3660  132.8540 C   0  0  0  0  0  0  0  0  0  0  0  0
  141.8270  152.9800  131.9080 O   0  0  0  0  0  0  0  0  0  0  0  0
  142.0160  153.6460  134.1070 O   0  0  0  0  0  0  0  0  0  0  0  0
  142.4230  152.9810  135.3000 C   0  0  0  0  0  0  0  0  0  0  0  0
  141.7540  153.5300  136.4110 O   0  0  0  0  0  0  0  0  0  0  0  0
  141.3570  152.2770  137.5000 P   0  0  0  0  0  0  0  0  0  0  0  0
  142.5910  151.8360  138.2540 O   0  0  0  0  0  0  0  0  0  0  0  0
  140.2130  152.8540  138.6040 O   0  0  0  0  0  0  0  0  0  0  0  0
  140.6990  150.9540  136.6740 O   0  0  0  0  0  0  0  0  0  0  0  0
  145.0861  151.9611  133.5427 H   0  0  0  0  0  0  0  0  0  0  0  0
  144.2856  151.5374  131.9914 H   0  0  0  0  0  0  0  0  0  0  0  0
  145.7519  152.5751  131.9914 H   0  0  0  0  0  0  0  0  0  0  0  0
  145.6029  154.7502  132.1177 H   0  0  0  0  0  0  0  0  0  0  0  0
  143.9584  155.3961  131.7228 H   0  0  0  0  0  0  0  0  0  0  0  0
  142.6960  155.2500  135.4070 H   0  0  0  0  0  0  0  0  0  0  0  0
  140.9270  155.4210  135.5930 H   0  0  0  0  0  0  0  0  0  0  0  0
  142.4970  159.8057  134.2379 H   0  0  0  0  0  0  0  0  0  0  0  0
  144.8123  161.4169  133.7444 H   0  0  0  0  0  0  0  0  0  0  0  0
  147.2769  161.2764  133.2478 H   0  0  0  0  0  0  0  0  0  0  0  0
  149.3378  159.6149  133.6903 H   0  0  0  0  0  0  0  0  0  0  0  0
  149.1132  157.9649  133.0106 H   0  0  0  0  0  0  0  0  0  0  0  0
  147.0284  156.9236  133.2558 H   0  0  0  0  0  0  0  0  0  0  0  0
  142.1804  151.9110  135.2212 H   0  0  0  0  0  0  0  0  0  0  0  0
  143.5074  153.1096  135.4324 H   0  0  0  0  0  0  0  0  0  0  0  0
  1  2  1  0
  2  3  1  0
  3  4  1  0
  4  5  2  0
  4  6  1  0
  6  7  1  0
  7  8  1  0
  8  9  1  0
  8 10  2  0
  7 11  2  0
 11 12  1  0
 12 13  2  0
 13 14  1  0
 14 15  2  0
 15 16  1  0
 16 17  1  0
 15 18  1  0
 18 19  2  0
  2 20  1  0
 20 21  2  0
 20 22  1  0
 22 23  1  0
 23 24  1  0
 24 25  1  0
 25 26  2  0
 25 27  1  0
 25 28  1  0
 19  6  1  0
 19 12  1  0
  1 29  1  0
  1 30  1  0
  1 31  1  0
  3 32  1  0
  3 33  1  0
  9 34  1  0
  9 35  1  0
 11 36  1  0
 13 37  1  0
 14 38  1  0
 16 39  1  0
 16 40  1  0
 18 41  1  0
 23 42  1  0
 23 43  1  0
M  CHG  2  27  -1  28  -1
M  END
>  <UniqueID>  (46) 
46

>  <SMILES>  (46) 
CN(CC(=O)n1c(C(N)=O)cc2ccc(CI)cc21)C(=O)OCOP(=O)([O-])[O-]

>  <Energy>  (46) 
76.88493079142671

>  <Genealogy>  (46) 
CN(CC(=O)n1c(C(N)=O)cc2ccc(CI)cc21)C(=O)OCOP(=O)([O-])[O-] (protonated)
CN(CC(=O)n1c(C(N)=O)cc2ccc(CI)cc21)C(=O)OCOP(=O)([O-])[O-] (3D coordinates assigned)
CN(CC(=O)n1c(C(N)=O)cc2ccc(CI)cc21)C(=O)OCOP(=O)([O-])[O-] (optimized conformer: 76.88493079142671 kcal/mol)

>  <smiles>  (46) 
CN(CC(=O)n1c(C(N)=O)cc2ccc(CI)cc21)C(=O)OCOP(=O)(O)O

>  <score_type>  (46) 
oracle

>  <origin>  (46) 
adg

>  <m_score__min__energy>  (46) 
-8.2899999999999991

>  <m_primary>  (46) 
energy

$$$$
46:0
     RDKit          3D

 38 39  0  0  0  0  0  0  0  0999 V2000
  140.7370  159.4890  136.5670 C   0  0  0  0  0  0  0  0  0  0  0  0
  140.6850  159.5750  135.1480 O   0  0  0  0  0  0  0  0  0  0  0  0
  140.1730  158.5480  134.3500 C   0  0  0  0  0  0  0  0  0  0  0  0
  139.2810  157.7740  134.7940 O   0  0  0  0  0  0  0  0  0  0  0  0
  140.7170  158.3410  132.9690 C   0  0  1  0  0  0  0  0  0  0  0  0
  141.3470  159.5220  132.5460 O   0  0  0  0  0  0  0  0  0  0  0  0
  141.7180  157.1820  132.9590 C   0  0  0  0  0  0  0  0  0  0  0  0
  143.0470  157.6890  132.8720 O   0  0  0  0  0  0  0  0  0  0  0  0
  143.6510  158.4120  133.9050 C   0  0  0  0  0  0  0  0  0  0  0  0
  143.0670  158.5420  135.0150 O   0  0  0  0  0  0  0  0  0  0  0  0
  144.9510  158.9880  133.7040 N   0  0  0  0  0  0  0  0  0  0  0  0
  145.2680  160.3110  133.6040 C   0  0  0  0  0  0  0  0  0  0  0  0
  144.3500  161.4430  133.8460 C   0  0  0  0  0  0  0  0  0  0  0  0
  142.9420  161.2510  133.7310 N   0  0  0  0  0  0  0  0  0  0  0  0
  144.7950  162.5890  134.1170 O   0  0  0  0  0  0  0  0  0  0  0  0
  146.6220  160.4690  133.3200 C   0  0  0  0  0  0  0  0  0  0  0  0
  147.1320  159.1930  133.2510 C   0  0  0  0  0  0  0  0  0  0  0  0
  148.4290  158.7610  132.9930 C   0  0  0  0  0  0  0  0  0  0  0  0
  148.6690  157.3780  132.9600 C   0  0  0  0  0  0  0  0  0  0  0  0
  147.6110  156.4530  133.1570 C   0  0  0  0  0  0  0  0  0  0  0  0
  147.8880  154.9710  133.1550 C   0  0  0  0  0  0  0  0  0  0  0  0
  148.1070  154.5130  134.4420 F   0  0  0  0  0  0  0  0  0  0  0  0
  146.8180  154.2730  132.6240 F   0  0  0  0  0  0  0  0  0  0  0  0
  149.0130  154.7200  132.3900 F   0  0  0  0  0  0  0  0  0  0  0  0
  146.3110  156.9330  133.4390 C   0  0  0  0  0  0  0  0  0  0  0  0
  146.1040  158.3170  133.4850 C   0  0  0  0  0  0  0  0  0  0  0  0
  140.2151  160.3521  137.0060 H   0  0  0  0  0  0  0  0  0  0  0  0
  140.2495  158.5595  136.8961 H   0  0  0  0  0  0  0  0  0  0  0  0
  141.7866  159.4889  136.8961 H   0  0  0  0  0  0  0  0  0  0  0  0
  139.8924  158.0927  132.2846 H   0  0  0  0  0  0  0  0  0  0  0  0
  142.0780  159.7050  133.1930 H   0  0  0  0  0  0  0  0  0  0  0  0
  141.6101  156.5990  133.8855 H   0  0  0  0  0  0  0  0  0  0  0  0
  141.5183  156.5388  132.0892 H   0  0  0  0  0  0  0  0  0  0  0  0
  142.4740  160.4290  134.1750 H   0  0  0  0  0  0  0  0  0  0  0  0
  147.1681  161.4136  133.1804 H   0  0  0  0  0  0  0  0  0  0  0  0
  149.2421  159.4813  132.8200 H   0  0  0  0  0  0  0  0  0  0  0  0
  149.6888  157.0073  132.7794 H   0  0  0  0  0  0  0  0  0  0  0  0
  145.4806  156.2343  133.6183 H   0  0  0  0  0  0  0  0  0  0  0  0
  1  2  1  0
  2  3  1  0
  3  4  2  0
  3  5  1  0
  5  6  1  0
  5  7  1  0
  7  8  1  0
  8  9  1  0
  9 10  2  0
  9 11  1  0
 11 12  1  0
 12 13  1  0
 13 14  1  0
 13 15  2  0
 12 16  2  0
 16 17  1  0
 17 18  2  0
 18 19  1  0
 19 20  2  0
 20 21  1  0
 21 22  1  0
 21 23  1  0
 21 24  1  0
 20 25  1  0
 25 26  2  0
 26 11  1  0
 26 17  1  0
  1 27  1  0
  1 28  1  0
  1 29  1  0
  5 30  1  6
  6 31  1  0
  7 32  1  0
  7 33  1  0
 14 34  1  0
 16 35  1  0
 18 36  1  0
 19 37  1  0
 25 38  1  0
M  CHG  1  14  -1
M  END
>  <UniqueID>  (47) 
47

>  <SMILES>  (47) 
COC(=O)[C@@H](O)COC(=O)n1c(C([NH-])=O)cc2ccc(C(F)(F)F)cc21

>  <Energy>  (47) 
70.32481968294856

>  <Genealogy>  (47) 
COC(=O)[C@@H](O)COC(=O)n1c(C([NH-])=O)cc2ccc(C(F)(F)F)cc21 (protonated)
COC(=O)[C@@H](O)COC(=O)n1c(C([NH-])=O)cc2ccc(C(F)(F)F)cc21 (3D coordinates assigned)
COC(=O)[C@@H](O)COC(=O)n1c(C([NH-])=O)cc2ccc(C(F)(F)F)cc21 (optimized conformer: 70.32481968294856 kcal/mol)

>  <smiles>  (47) 
COC(=O)[C@@H](O)COC(=O)n1c(C(N)=O)cc2ccc(C(F)(F)F)cc21

>  <score_type>  (47) 
oracle

>  <origin>  (47) 
adg

>  <m_score__min__energy>  (47) 
-5.0999999999999996

>  <m_primary>  (47) 
energy

$$$$
47:0
     RDKit          3D

 36 37  0  0  0  0  0  0  0  0999 V2000
  145.3570  161.6070  134.1190 C   0  0  0  0  0  0  0  0  0  0  0  0
  144.7700  160.2790  133.6550 C   0  0  0  0  0  0  0  0  0  0  0  0
  145.8640  159.2870  133.3650 C   0  0  0  0  0  0  0  0  0  0  0  0
  147.1270  159.7370  132.9090 C   0  0  0  0  0  0  0  0  0  0  0  0
  148.1620  158.8220  132.6510 C   0  0  0  0  0  0  0  0  0  0  0  0
  147.9100  157.4720  132.8750 C   0  0  0  0  0  0  0  0  0  0  0  0
  148.7210  156.3780  132.6780 C   0  0  0  0  0  0  0  0  0  0  0  0
  147.9550  155.2800  133.0560 C   0  0  0  0  0  0  0  0  0  0  0  0
  148.4670  153.8950  133.0550 C   0  0  0  0  0  0  0  0  0  0  0  0
  147.7990  152.8590  133.7760 N   0  0  0  0  0  0  0  0  0  0  0  0
  149.5420  153.6340  132.4530 O   0  0  0  0  0  0  0  0  0  0  0  0
  146.7140  155.6730  133.4610 N   0  0  0  0  0  0  0  0  0  0  0  0
  145.6040  154.8250  133.8030 C   0  0  0  0  0  0  0  0  0  0  0  0
  144.7720  154.4820  132.9190 O   0  0  0  0  0  0  0  0  0  0  0  0
  145.4510  154.3830  135.1210 O   0  0  0  0  0  0  0  0  0  0  0  0
  146.4370  154.5970  136.1280 C   0  0  0  0  0  0  0  0  0  0  0  0
  146.9620  153.3660  136.5620 O   0  0  0  0  0  0  0  0  0  0  0  0
  147.9700  153.6340  137.9150 P   0  0  0  0  0  0  0  0  0  0  0  0
  148.9560  154.7440  137.6230 O   0  0  0  0  0  0  0  0  0  0  0  0
  147.0100  154.0850  139.2300 O   0  0  0  0  0  0  0  0  0  0  0  0
  148.8120  152.2200  138.3110 O   0  0  0  0  0  0  0  0  0  0  0  0
  146.7020  157.0210  133.3450 C   0  0  0  0  0  0  0  0  0  0  0  0
  145.6470  157.9090  133.5900 C   0  0  0  0  0  0  0  0  0  0  0  0
  145.3706  161.6377  135.2185 H   0  0  0  0  0  0  0  0  0  0  0  0
  146.3835  161.7077  133.7367 H   0  0  0  0  0  0  0  0  0  0  0  0
  144.7405  162.4339  133.7367 H   0  0  0  0  0  0  0  0  0  0  0  0
  144.1177  159.8770  134.4442 H   0  0  0  0  0  0  0  0  0  0  0  0
  144.1934  160.4494  132.7338 H   0  0  0  0  0  0  0  0  0  0  0  0
  147.2995  160.8125  132.7553 H   0  0  0  0  0  0  0  0  0  0  0  0
  149.1412  159.1626  132.2833 H   0  0  0  0  0  0  0  0  0  0  0  0
  149.7547  156.3728  132.3018 H   0  0  0  0  0  0  0  0  0  0  0  0
  147.0010  153.0740  134.4150 H   0  0  0  0  0  0  0  0  0  0  0  0
  148.1520  151.8780  133.7310 H   0  0  0  0  0  0  0  0  0  0  0  0
  147.2494  155.2137  135.7161 H   0  0  0  0  0  0  0  0  0  0  0  0
  145.9723  155.1108  136.9825 H   0  0  0  0  0  0  0  0  0  0  0  0
  144.6737  157.5428  133.9486 H   0  0  0  0  0  0  0  0  0  0  0  0
  1  2  1  0
  2  3  1  0
  3  4  2  0
  4  5  1  0
  5  6  2  0
  6  7  1  0
  7  8  2  0
  8  9  1  0
  9 10  1  0
  9 11  2  0
  8 12  1  0
 12 13  1  0
 13 14  2  0
 13 15  1  0
 15 16  1  0
 16 17  1  0
 17 18  1  0
 18 19  2  0
 18 20  1  0
 18 21  1  0
 12 22  1  0
 22 23  2  0
 23  3  1  0
 22  6  1  0
  1 24  1  0
  1 25  1  0
  1 26  1  0
  2 27  1  0
  2 28  1  0
  4 29  1  0
  5 30  1  0
  7 31  1  0
 10 32  1  0
 10 33  1  0
 16 34  1  0
 16 35  1  0
 23 36  1  0
M  CHG  2  20  -1  21  -1
M  END
>  <UniqueID>  (48) 
48

>  <SMILES>  (48) 
CCc1ccc2cc(C(N)=O)n(C(=O)OCOP(=O)([O-])[O-])c2c1

>  <Energy>  (48) 
69.79791337500122

>  <Genealogy>  (48) 
CCc1ccc2cc(C(N)=O)n(C(=O)OCOP(=O)([O-])[O-])c2c1 (protonated)
CCc1ccc2cc(C(N)=O)n(C(=O)OCOP(=O)([O-])[O-])c2c1 (3D coordinates assigned)
CCc1ccc2cc(C(N)=O)n(C(=O)OCOP(=O)([O-])[O-])c2c1 (optimized conformer: 69.79791337500122 kcal/mol)

>  <smiles>  (48) 
CCc1ccc2cc(C(N)=O)n(C(=O)OCOP(=O)(O)O)c2c1

>  <score_type>  (48) 
oracle

>  <origin>  (48) 
adg

>  <m_score__min__energy>  (48) 
-7.04

>  <m_primary>  (48) 
energy

$$$$
48:0
     RDKit          3D

 34 35  0  0  0  0  0  0  0  0999 V2000
  143.5310  155.3180  133.0400 N   0  0  0  0  0  0  0  0  0  0  0  0
  143.5410  154.0680  133.7300 C   0  0  0  0  0  0  0  0  0  0  0  0
  144.1970  153.9590  134.8000 O   0  0  0  0  0  0  0  0  0  0  0  0
  142.7440  152.9210  133.2480 C   0  0  0  0  0  0  0  0  0  0  0  0
  143.2880  151.6650  132.9960 C   0  0  0  0  0  0  0  0  0  0  0  0
  142.2240  150.8760  132.6300 C   0  0  0  0  0  0  0  0  0  0  0  0
  142.1920  149.5370  132.2550 C   0  0  0  0  0  0  0  0  0  0  0  0
  140.9550  148.9840  131.8860 C   0  0  0  0  0  0  0  0  0  0  0  0
  139.7770  149.7730  131.8830 C   0  0  0  0  0  0  0  0  0  0  0  0
  138.5340  149.1620  131.4830 N   0  0  0  0  0  0  0  0  0  0  0  0
  137.9850  149.2050  130.1270 C   0  0  0  0  0  0  0  0  0  0  0  0
  138.8670  148.4010  129.1640 C   0  0  0  0  0  0  0  0  0  0  0  0
  139.2130  147.0210  129.7310 C   0  0  0  0  0  0  0  0  0  0  0  0
  138.3240  146.6630  130.7550 O   0  0  0  0  0  0  0  0  0  0  0  0
  139.8510  151.1330  132.2740 C   0  0  0  0  0  0  0  0  0  0  0  0
  141.0940  151.6520  132.6580 C   0  0  0  0  0  0  0  0  0  0  0  0
  141.3980  152.9150  133.0340 N   0  0  0  0  0  0  0  0  0  0  0  0
  140.5040  154.0410  133.0740 C   0  0  0  0  0  0  0  0  0  0  0  0
  140.9570  155.2100  133.1920 O   0  0  0  0  0  0  0  0  0  0  0  0
  139.1310  153.8540  132.9800 O   0  0  0  0  0  0  0  0  0  0  0  0
  142.8690  155.4930  132.2520 H   0  0  0  0  0  0  0  0  0  0  0  0
  144.1300  156.1050  133.3730 H   0  0  0  0  0  0  0  0  0  0  0  0
  144.3441  151.3674  133.0733 H   0  0  0  0  0  0  0  0  0  0  0  0
  143.1087  148.9291  132.2477 H   0  0  0  0  0  0  0  0  0  0  0  0
  140.8993  147.9245  131.5954 H   0  0  0  0  0  0  0  0  0  0  0  0
  137.9660  148.6700  132.2100 H   0  0  0  0  0  0  0  0  0  0  0  0
  136.9719  148.7766  130.1330 H   0  0  0  0  0  0  0  0  0  0  0  0
  137.9526  150.2515  129.7897 H   0  0  0  0  0  0  0  0  0  0  0  0
  138.3300  148.2712  128.2128 H   0  0  0  0  0  0  0  0  0  0  0  0
  139.8053  148.9554  129.0145 H   0  0  0  0  0  0  0  0  0  0  0  0
  139.1528  146.2751  128.9248 H   0  0  0  0  0  0  0  0  0  0  0  0
  140.2310  147.0570  130.1462 H   0  0  0  0  0  0  0  0  0  0  0  0
  137.8230  145.8690  130.4330 H   0  0  0  0  0  0  0  0  0  0  0  0
  138.9522  151.7671  132.2759 H   0  0  0  0  0  0  0  0  0  0  0  0
  1  2  1  0
  2  3  2  0
  2  4  1  0
  4  5  2  0
  5  6  1  0
  6  7  2  0
  7  8  1  0
  8  9  2  0
  9 10  1  0
 10 11  1  0
 11 12  1  0
 12 13  1  0
 13 14  1  0
  9 15  1  0
 15 16  2  0
 16 17  1  0
 17 18  1  0
 18 19  2  0
 18 20  1  0
 17  4  1  0
 16  6  1  0
  1 21  1  0
  1 22  1  0
  5 23  1  0
  7 24  1  0
  8 25  1  0
 10 26  1  0
 11 27  1  0
 11 28  1  0
 12 29  1  0
 12 30  1  0
 13 31  1  0
 13 32  1  0
 14 33  1  0
 15 34  1  0
M  CHG  1  20  -1
M  END
>  <UniqueID>  (49) 
49

>  <SMILES>  (49) 
NC(=O)c1cc2ccc(NCCCO)cc2n1C(=O)[O-]

>  <Energy>  (49) 
69.61319936836612

>  <Genealogy>  (49) 
NC(=O)c1cc2ccc(NCCCO)cc2n1C(=O)[O-] (protonated)
NC(=O)c1cc2ccc(NCCCO)cc2n1C(=O)[O-] (3D coordinates assigned)
NC(=O)c1cc2ccc(NCCCO)cc2n1C(=O)[O-] (optimized conformer: 69.61319936836612 kcal/mol)

>  <smiles>  (49) 
NC(=O)c1cc2ccc(NCCCO)cc2n1C(=O)O

>  <score_type>  (49) 
oracle

>  <origin>  (49) 
adg

>  <m_score__min__energy>  (49) 
-6.4299999999999997

>  <m_primary>  (49) 
energy

$$$$
49:0
     RDKit          3D

 39 40  0  0  0  0  0  0  0  0999 V2000
  142.8300  150.6630  132.6820 C   0  0  0  0  0  0  0  0  0  0  0  0
  142.9920  152.1080  132.8750 N   0  0  0  0  0  0  0  0  0  0  0  0
  141.8560  152.9180  133.3290 C   0  0  0  0  0  0  0  0  0  0  0  0
  144.2850  152.7060  132.6260 C   0  0  0  0  0  0  0  0  0  0  0  0
  145.2720  151.9670  132.3550 O   0  0  0  0  0  0  0  0  0  0  0  0
  144.4920  154.1960  132.6180 C   0  0  0  0  0  0  0  0  0  0  0  0
  145.5520  154.5740  133.6110 C   0  0  0  0  0  0  0  0  0  0  0  0
  145.5120  154.0880  134.7740 O   0  0  0  0  0  0  0  0  0  0  0  0
  146.6430  155.4310  133.2380 N   0  0  0  0  0  0  0  0  0  0  0  0
  147.9350  155.0840  132.9790 C   0  0  0  0  0  0  0  0  0  0  0  0
  148.4560  153.7070  132.8670 C   0  0  0  0  0  0  0  0  0  0  0  0
  147.7290  152.5930  133.3860 N   0  0  0  0  0  0  0  0  0  0  0  0
  149.5440  153.5040  132.2640 O   0  0  0  0  0  0  0  0  0  0  0  0
  148.7180  156.2200  132.7870 C   0  0  0  0  0  0  0  0  0  0  0  0
  147.8550  157.2850  132.9240 C   0  0  0  0  0  0  0  0  0  0  0  0
  148.0990  158.6520  132.8490 C   0  0  0  0  0  0  0  0  0  0  0  0
  147.0210  159.5260  133.0700 C   0  0  0  0  0  0  0  0  0  0  0  0
  145.7330  159.0210  133.3800 C   0  0  0  0  0  0  0  0  0  0  0  0
  144.5830  159.9650  133.5950 C   0  0  0  0  0  0  0  0  0  0  0  0
  145.0780  161.2460  134.1080 C   0  0  0  0  0  0  0  0  0  0  0  0
  145.4700  162.2580  134.5130 N   0  0  0  0  0  0  0  0  0  0  0  0
  145.5230  157.6250  133.4420 C   0  0  0  0  0  0  0  0  0  0  0  0
  146.6090  156.7800  133.1960 C   0  0  0  0  0  0  0  0  0  0  0  0
  142.7743  150.1662  133.6618 H   0  0  0  0  0  0  0  0  0  0  0  0
  141.9046  150.4696  132.1197 H   0  0  0  0  0  0  0  0  0  0  0  0
  143.6897  150.2695  132.1197 H   0  0  0  0  0  0  0  0  0  0  0  0
  141.8334  152.9341  134.4286 H   0  0  0  0  0  0  0  0  0  0  0  0
  141.9629  153.9449  132.9494 H   0  0  0  0  0  0  0  0  0  0  0  0
  140.9200  152.4823  132.9494 H   0  0  0  0  0  0  0  0  0  0  0  0
  144.8048  154.5146  131.6127 H   0  0  0  0  0  0  0  0  0  0  0  0
  143.5490  154.6923  132.8910 H   0  0  0  0  0  0  0  0  0  0  0  0
  148.1410  151.6350  133.3460 H   0  0  0  0  0  0  0  0  0  0  0  0
  146.7490  152.6990  133.7310 H   0  0  0  0  0  0  0  0  0  0  0  0
  149.7961  156.2585  132.5718 H   0  0  0  0  0  0  0  0  0  0  0  0
  149.1044  159.0371  132.6237 H   0  0  0  0  0  0  0  0  0  0  0  0
  147.1780  160.6126  133.0018 H   0  0  0  0  0  0  0  0  0  0  0  0
  144.0638  160.1309  132.6395 H   0  0  0  0  0  0  0  0  0  0  0  0
  143.8868  159.5271  134.3255 H   0  0  0  0  0  0  0  0  0  0  0  0
  144.5304  157.2138  133.6778 H   0  0  0  0  0  0  0  0  0  0  0  0
  1  2  1  0
  2  3  1  0
  2  4  1  0
  4  5  2  0
  4  6  1  0
  6  7  1  0
  7  8  2  0
  7  9  1  0
  9 10  1  0
 10 11  1  0
 11 12  1  0
 11 13  2  0
 10 14  2  0
 14 15  1  0
 15 16  2  0
 16 17  1  0
 17 18  2  0
 18 19  1  0
 19 20  1  0
 20 21  3  0
 18 22  1  0
 22 23  2  0
 23  9  1  0
 23 15  1  0
  1 24  1  0
  1 25  1  0
  1 26  1  0
  3 27  1  0
  3 28  1  0
  3 29  1  0
  6 30  1  0
  6 31  1  0
 12 32  1  0
 12 33  1  0
 14 34  1  0
 16 35  1  0
 17 36  1  0
 19 37  1  0
 19 38  1  0
 22 39  1  0
M  END
>  <UniqueID>  (50) 
50

>  <SMILES>  (50) 
CN(C)C(=O)CC(=O)n1c(C(N)=O)cc2ccc(CC#N)cc21

>  <Energy>  (50) 
71.97951896482805

>  <Genealogy>  (50) 
CN(C)C(=O)CC(=O)n1c(C(N)=O)cc2ccc(CC#N)cc21 (3D coordinates assigned)
CN(C)C(=O)CC(=O)n1c(C(N)=O)cc2ccc(CC#N)cc21 (optimized conformer: 71.97951896482805 kcal/mol)

>  <smiles>  (50) 
CN(C)C(=O)CC(=O)n1c(C(N)=O)cc2ccc(CC#N)cc21

>  <score_type>  (50) 
oracle

>  <origin>  (50) 
adg

>  <m_score__min__energy>  (50) 
-7.2199999999999998

>  <m_primary>  (50) 
energy

$$$$
50:0
     RDKit          3D

 40 42  0  0  0  0  0  0  0  0999 V2000
  149.6320  151.9510  132.2370 C   0  0  0  0  0  0  0  0  0  0  0  0
  148.6400  152.9530  132.6030 N   0  0  0  0  0  0  0  0  0  0  0  0
  148.8090  154.2880  132.5590 C   0  0  0  0  0  0  0  0  0  0  0  0
  147.6690  154.8900  133.0730 C   0  0  0  0  0  0  0  0  0  0  0  0
  147.4020  156.3440  133.2260 C   0  0  0  0  0  0  0  0  0  0  0  0
  148.4780  157.2630  133.3700 C   0  0  0  0  0  0  0  0  0  0  0  0
  148.2360  158.6370  133.5290 C   0  0  0  0  0  0  0  0  0  0  0  0
  146.9150  159.0720  133.5330 C   0  0  0  0  0  0  0  0  0  0  0  0
  146.4010  160.3390  133.6930 C   0  0  0  0  0  0  0  0  0  0  0  0
  145.0190  160.1880  133.6210 C   0  0  0  0  0  0  0  0  0  0  0  0
  144.0720  161.3230  133.6630 C   0  0  0  0  0  0  0  0  0  0  0  0
  142.6970  161.1100  133.3550 N   0  0  0  0  0  0  0  0  0  0  0  0
  144.4580  162.4740  134.0000 O   0  0  0  0  0  0  0  0  0  0  0  0
  144.6910  158.8780  133.4310 N   0  0  0  0  0  0  0  0  0  0  0  0
  143.3800  158.2970  133.3510 C   0  0  0  0  0  0  0  0  0  0  0  0
  143.0930  157.5170  132.4030 O   0  0  0  0  0  0  0  0  0  0  0  0
  142.4200  158.6220  134.3140 O   0  0  0  0  0  0  0  0  0  0  0  0
  141.0780  158.1510  134.2520 C   0  0  0  0  0  0  0  0  0  0  0  0
  140.2530  159.0580  133.3450 C   0  0  0  0  0  0  0  0  0  0  0  0
  140.8860  159.2170  132.1040 O   0  0  0  0  0  0  0  0  0  0  0  0
  145.8650  158.2100  133.3760 C   0  0  0  0  0  0  0  0  0  0  0  0
  146.0720  156.8320  133.2350 C   0  0  0  0  0  0  0  0  0  0  0  0
  146.8390  153.8330  133.4290 C   0  0  0  0  0  0  0  0  0  0  0  0
  147.4620  152.6780  133.1370 N   0  0  0  0  0  0  0  0  0  0  0  0
  150.0650  151.5136  133.1487 H   0  0  0  0  0  0  0  0  0  0  0  0
  149.1518  151.1595  131.6430 H   0  0  0  0  0  0  0  0  0  0  0  0
  150.4283  152.4233  131.6430 H   0  0  0  0  0  0  0  0  0  0  0  0
  149.6988  154.8122  132.1803 H   0  0  0  0  0  0  0  0  0  0  0  0
  149.5136  156.8924  133.3566 H   0  0  0  0  0  0  0  0  0  0  0  0
  149.0667  159.3483  133.6469 H   0  0  0  0  0  0  0  0  0  0  0  0
  146.9629  161.2723  133.8453 H   0  0  0  0  0  0  0  0  0  0  0  0
  142.3860  160.2480  132.8550 H   0  0  0  0  0  0  0  0  0  0  0  0
  141.0687  157.1270  133.8504 H   0  0  0  0  0  0  0  0  0  0  0  0
  140.6442  158.1569  135.2628 H   0  0  0  0  0  0  0  0  0  0  0  0
  139.2605  158.6097  133.1905 H   0  0  0  0  0  0  0  0  0  0  0  0
  140.1531  160.0438  133.8228 H   0  0  0  0  0  0  0  0  0  0  0  0
  141.8560  159.3240  132.2910 H   0  0  0  0  0  0  0  0  0  0  0  0
  145.2202  156.1434  133.1334 H   0  0  0  0  0  0  0  0  0  0  0  0
  145.8381  153.9263  133.8757 H   0  0  0  0  0  0  0  0  0  0  0  0
  147.0910  151.7170  133.3090 H   0  0  0  0  0  0  0  0  0  0  0  0
  1  2  1  0
  2  3  1  0
  3  4  2  0
  4  5  1  0
  5  6  2  0
  6  7  1  0
  7  8  2  0
  8  9  1  0
  9 10  2  0
 10 11  1  0
 11 12  1  0
 11 13  2  0
 10 14  1  0
 14 15  1  0
 15 16  2  0
 15 17  1  0
 17 18  1  0
 18 19  1  0
 19 20  1  0
 14 21  1  0
 21 22  2  0
  4 23  1  0
 23 24  2  0
 24  2  1  0
 22  5  1  0
 21  8  1  0
  1 25  1  0
  1 26  1  0
  1 27  1  0
  3 28  1  0
  6 29  1  0
  7 30  1  0
  9 31  1  0
 12 32  1  0
 18 33  1  0
 18 34  1  0
 19 35  1  0
 19 36  1  0
 20 37  1  0
 22 38  1  0
 23 39  1  0
 24 40  1  0
M  CHG  2  12  -1  24   1
M  END
>  <UniqueID>  (51) 
51

>  <SMILES>  (51) 
Cn1cc(-c2ccc3cc(C([NH-])=O)n(C(=O)OCCO)c3c2)c[nH+]1

>  <Energy>  (51) 
107.40534245963346

>  <Genealogy>  (51) 
Cn1cc(-c2ccc3cc(C([NH-])=O)n(C(=O)OCCO)c3c2)c[nH+]1 (protonated)
Cn1cc(-c2ccc3cc(C([NH-])=O)n(C(=O)OCCO)c3c2)c[nH+]1 (3D coordinates assigned)
Cn1cc(-c2ccc3cc(C([NH-])=O)n(C(=O)OCCO)c3c2)c[nH+]1 (optimized conformer: 107.40534245963346 kcal/mol)

>  <smiles>  (51) 
Cn1cc(-c2ccc3cc(C(N)=O)n(C(=O)OCCO)c3c2)cn1

>  <score_type>  (51) 
oracle

>  <origin>  (51) 
adg

>  <m_score__min__energy>  (51) 
-6.9400000000000004

>  <m_primary>  (51) 
energy

$$$$
51:0
     RDKit          3D

 36 37  0  0  0  0  0  0  0  0999 V2000
  144.3440  159.0130  133.3260 C   0  0  0  0  0  0  0  0  0  0  0  0
  145.1730  160.0160  133.2950 C   0  0  0  0  0  0  0  0  0  0  0  0
  144.5080  161.2930  133.4280 O   0  0  0  0  0  0  0  0  0  0  0  0
  146.5890  160.0900  133.1530 C   0  0  0  0  0  0  0  0  0  0  0  0
  147.0740  161.2820  133.4270 O   0  0  0  0  0  0  0  0  0  0  0  0
  147.5730  159.1590  132.7960 N   0  0  0  0  0  0  0  0  0  0  0  0
  148.5180  159.1290  131.8690 C   0  0  0  0  0  0  0  0  0  0  0  0
  149.1400  160.2360  131.1230 C   0  0  0  0  0  0  0  0  0  0  0  0
  148.4850  161.4620  130.8460 N   0  0  0  0  0  0  0  0  0  0  0  0
  150.3280  160.1330  130.6910 O   0  0  0  0  0  0  0  0  0  0  0  0
  149.0980  157.8580  131.7550 C   0  0  0  0  0  0  0  0  0  0  0  0
  148.4720  157.0890  132.6650 C   0  0  0  0  0  0  0  0  0  0  0  0
  148.6630  155.7450  132.9690 C   0  0  0  0  0  0  0  0  0  0  0  0
  147.9040  155.1450  133.9460 C   0  0  0  0  0  0  0  0  0  0  0  0
  146.9770  155.9030  134.5940 C   0  0  0  0  0  0  0  0  0  0  0  0
  146.1580  155.2530  135.6500 C   0  0  0  0  0  0  0  0  0  0  0  0
  146.2860  153.7600  135.5930 C   0  0  0  0  0  0  0  0  0  0  0  0
  145.8360  153.1020  134.6110 O   0  0  0  0  0  0  0  0  0  0  0  0
  146.9190  153.1620  136.6730 O   0  0  0  0  0  0  0  0  0  0  0  0
  148.1220  153.6440  137.2360 C   0  0  0  0  0  0  0  0  0  0  0  0
  146.7930  157.2540  134.2820 C   0  0  0  0  0  0  0  0  0  0  0  0
  147.5480  157.8790  133.2980 C   0  0  0  0  0  0  0  0  0  0  0  0
  144.7220  157.9840  133.2347 H   0  0  0  0  0  0  0  0  0  0  0  0
  143.2654  159.1943  133.4435 H   0  0  0  0  0  0  0  0  0  0  0  0
  145.0520  162.1460  133.3180 H   0  0  0  0  0  0  0  0  0  0  0  0
  147.7720  161.8970  131.4890 H   0  0  0  0  0  0  0  0  0  0  0  0
  148.6920  161.9930  129.9710 H   0  0  0  0  0  0  0  0  0  0  0  0
  149.8985  157.5526  131.0651 H   0  0  0  0  0  0  0  0  0  0  0  0
  149.4220  155.1616  132.4272 H   0  0  0  0  0  0  0  0  0  0  0  0
  148.0418  154.0829  134.1969 H   0  0  0  0  0  0  0  0  0  0  0  0
  146.4978  155.6050  136.6352 H   0  0  0  0  0  0  0  0  0  0  0  0
  145.1033  155.5188  135.4860 H   0  0  0  0  0  0  0  0  0  0  0  0
  148.0506  153.6154  138.3333 H   0  0  0  0  0  0  0  0  0  0  0  0
  148.9600  153.0122  136.9065 H   0  0  0  0  0  0  0  0  0  0  0  0
  148.2919  154.6796  136.9065 H   0  0  0  0  0  0  0  0  0  0  0  0
  146.0341  157.8339  134.8277 H   0  0  0  0  0  0  0  0  0  0  0  0
  1  2  2  0
  2  3  1  0
  2  4  1  0
  4  5  2  0
  4  6  1  0
  6  7  1  0
  7  8  1  0
  8  9  1  0
  8 10  2  0
  7 11  2  0
 11 12  1  0
 12 13  2  0
 13 14  1  0
 14 15  2  0
 15 16  1  0
 16 17  1  0
 17 18  2  0
 17 19  1  0
 19 20  1  0
 15 21  1  0
 21 22  2  0
 22  6  1  0
 22 12  1  0
  1 23  1  0
  1 24  1  0
  3 25  1  0
  9 26  1  0
  9 27  1  0
 11 28  1  0
 13 29  1  0
 14 30  1  0
 16 31  1  0
 16 32  1  0
 20 33  1  0
 20 34  1  0
 20 35  1  0
 21 36  1  0
M  END
>  <smiles>  (52) 
C=C(O)C(=O)n1c(C(N)=O)cc2ccc(CC(=O)OC)cc21

>  <score_type>  (52) 
oracle

>  <origin>  (52) 
adg

>  <m_score__min__energy>  (52) 
-7.0499999999999998

>  <m_primary>  (52) 
energy

$$$$
52:0
     RDKit          3D

 43 44  0  0  0  0  0  0  0  0999 V2000
  149.6200  152.5350  131.8390 C   0  0  0  0  0  0  0  0  0  0  0  0
  148.2890  152.7080  132.4240 N   0  0  0  0  0  0  0  0  0  0  0  0
  147.2640  151.6770  132.2220 C   0  0  0  0  0  0  0  0  0  0  0  0
  148.0080  153.9170  133.1660 C   0  0  0  0  0  0  0  0  0  0  0  0
  148.8610  154.8470  133.1820 O   0  0  0  0  0  0  0  0  0  0  0  0
  146.7090  154.1340  133.9060 C   0  0  0  0  0  0  0  0  0  0  0  0
  146.4680  155.6170  134.2290 C   0  0  0  0  0  0  0  0  0  0  0  0
  146.4640  156.5080  133.0130 C   0  0  0  0  0  0  0  0  0  0  0  0
  146.6480  156.0270  131.8640 O   0  0  0  0  0  0  0  0  0  0  0  0
  146.3710  157.9320  133.1700 N   0  0  0  0  0  0  0  0  0  0  0  0
  147.3320  158.8620  132.9020 C   0  0  0  0  0  0  0  0  0  0  0  0
  148.7230  158.5860  132.4650 C   0  0  0  0  0  0  0  0  0  0  0  0
  149.0980  157.3410  131.8740 N   0  0  0  0  0  0  0  0  0  0  0  0
  149.6080  159.4580  132.6670 O   0  0  0  0  0  0  0  0  0  0  0  0
  146.8310  160.1470  133.0910 C   0  0  0  0  0  0  0  0  0  0  0  0
  145.5240  159.9770  133.4820 C   0  0  0  0  0  0  0  0  0  0  0  0
  144.5430  160.9250  133.7660 C   0  0  0  0  0  0  0  0  0  0  0  0
  143.2540  160.4630  134.0810 C   0  0  0  0  0  0  0  0  0  0  0  0
  142.9690  159.0740  134.0990 C   0  0  0  0  0  0  0  0  0  0  0  0
  141.5700  158.5980  134.3640 C   0  0  0  0  0  0  0  0  0  0  0  0
  141.2160  158.8280  135.7970 C   0  0  0  0  0  0  0  0  0  0  0  0
  141.2850  157.8830  136.6260 O   0  0  0  0  0  0  0  0  0  0  0  0
  140.7570  160.0740  136.2050 O   0  0  0  0  0  0  0  0  0  0  0  0
  143.9860  158.1450  133.7910 C   0  0  0  0  0  0  0  0  0  0  0  0
  145.2660  158.6310  133.5120 C   0  0  0  0  0  0  0  0  0  0  0  0
  150.3642  152.4383  132.6432 H   0  0  0  0  0  0  0  0  0  0  0  0
  149.6321  151.6277  131.2171 H   0  0  0  0  0  0  0  0  0  0  0  0
  149.8636  153.4090  131.2171 H   0  0  0  0  0  0  0  0  0  0  0  0
  146.9073  151.3182  133.1988 H   0  0  0  0  0  0  0  0  0  0  0  0
  146.4213  152.1033  131.6579 H   0  0  0  0  0  0  0  0  0  0  0  0
  147.6952  150.8368  131.6579 H   0  0  0  0  0  0  0  0  0  0  0  0
  145.8802  153.7676  133.2824 H   0  0  0  0  0  0  0  0  0  0  0  0
  146.7657  153.5851  134.8576 H   0  0  0  0  0  0  0  0  0  0  0  0
  145.4935  155.7095  134.7307 H   0  0  0  0  0  0  0  0  0  0  0  0
  147.3009  155.9470  134.8672 H   0  0  0  0  0  0  0  0  0  0  0  0
  148.4510  156.5270  131.8530 H   0  0  0  0  0  0  0  0  0  0  0  0
  150.0860  157.1920  131.5680 H   0  0  0  0  0  0  0  0  0  0  0  0
  147.3676  161.0977  132.9560 H   0  0  0  0  0  0  0  0  0  0  0  0
  144.7705  162.0010  133.7443 H   0  0  0  0  0  0  0  0  0  0  0  0
  142.4585  161.1855  134.3158 H   0  0  0  0  0  0  0  0  0  0  0  0
  140.8689  159.1515  133.7220 H   0  0  0  0  0  0  0  0  0  0  0  0
  141.5065  157.5221  134.1441 H   0  0  0  0  0  0  0  0  0  0  0  0
  143.7762  157.0654  133.7711 H   0  0  0  0  0  0  0  0  0  0  0  0
  1  2  1  0
  2  3  1  0
  2  4  1  0
  4  5  2  0
  4  6  1  0
  6  7  1  0
  7  8  1  0
  8  9  2  0
  8 10  1  0
 10 11  1  0
 11 12  1  0
 12 13  1  0
 12 14  2  0
 11 15  2  0
 15 16  1  0
 16 17  2  0
 17 18  1  0
 18 19  2  0
 19 20  1  0
 20 21  1  0
 21 22  2  0
 21 23  1  0
 19 24  1  0
 24 25  2  0
 25 10  1  0
 25 16  1  0
  1 26  1  0
  1 27  1  0
  1 28  1  0
  3 29  1  0
  3 30  1  0
  3 31  1  0
  6 32  1  0
  6 33  1  0
  7 34  1  0
  7 35  1  0
 13 36  1  0
 13 37  1  0
 15 38  1  0
 17 39  1  0
 18 40  1  0
 20 41  1  0
 20 42  1  0
 24 43  1  0
M  CHG  1  23  -1
M  END
>  <UniqueID>  (53) 
52

>  <SMILES>  (53) 
CN(C)C(=O)CCC(=O)n1c(C(N)=O)cc2ccc(CC(=O)[O-])cc21

>  <Energy>  (53) 
78.62506704618026

>  <Genealogy>  (53) 
CN(C)C(=O)CCC(=O)n1c(C(N)=O)cc2ccc(CC(=O)[O-])cc21 (protonated)
CN(C)C(=O)CCC(=O)n1c(C(N)=O)cc2ccc(CC(=O)[O-])cc21 (3D coordinates assigned)
CN(C)C(=O)CCC(=O)n1c(C(N)=O)cc2ccc(CC(=O)[O-])cc21 (optimized conformer: 78.62506704618026 kcal/mol)

>  <smiles>  (53) 
CN(C)C(=O)CCC(=O)n1c(C(N)=O)cc2ccc(CC(=O)O)cc21

>  <score_type>  (53) 
oracle

>  <origin>  (53) 
adg

>  <m_score__min__energy>  (53) 
-7

>  <m_primary>  (53) 
energy

$$$$
53:0
     RDKit          3D

 45 46  0  0  0  0  0  0  0  0999 V2000
  142.8340  161.2550  133.7260 N   0  0  0  0  0  0  0  0  0  0  0  0
  144.2500  161.4040  133.7990 C   0  0  0  0  0  0  0  0  0  0  0  0
  144.7370  162.5250  134.1020 O   0  0  0  0  0  0  0  0  0  0  0  0
  145.1480  160.2510  133.5800 C   0  0  0  0  0  0  0  0  0  0  0  0
  146.5330  160.3710  133.4720 C   0  0  0  0  0  0  0  0  0  0  0  0
  147.0060  159.0820  133.3740 C   0  0  0  0  0  0  0  0  0  0  0  0
  148.3090  158.6130  133.2460 C   0  0  0  0  0  0  0  0  0  0  0  0
  148.5040  157.2250  133.1420 C   0  0  0  0  0  0  0  0  0  0  0  0
  147.3970  156.3370  133.1380 C   0  0  0  0  0  0  0  0  0  0  0  0
  147.6130  154.8450  133.0750 C   0  0  0  0  0  0  0  0  0  0  0  0
  146.4720  154.2410  132.5810 F   0  0  0  0  0  0  0  0  0  0  0  0
  147.8880  154.3330  134.3310 F   0  0  0  0  0  0  0  0  0  0  0  0
  148.6770  154.5430  132.2440 F   0  0  0  0  0  0  0  0  0  0  0  0
  146.0900  156.8520  133.2870 C   0  0  0  0  0  0  0  0  0  0  0  0
  145.9270  158.2370  133.4150 C   0  0  0  0  0  0  0  0  0  0  0  0
  144.7790  158.9400  133.5400 N   0  0  0  0  0  0  0  0  0  0  0  0
  143.4520  158.3900  133.5580 C   0  0  0  0  0  0  0  0  0  0  0  0
  143.0430  157.7100  132.5770 O   0  0  0  0  0  0  0  0  0  0  0  0
  142.6440  158.5830  134.6840 O   0  0  0  0  0  0  0  0  0  0  0  0
  141.3020  158.9840  134.6600 C   0  0  0  0  0  0  0  0  0  0  0  0
  140.8000  159.6410  135.6120 O   0  0  0  0  0  0  0  0  0  0  0  0
  140.4410  158.5950  133.4960 C   0  0  0  0  0  0  0  0  0  0  0  0
  139.4470  157.4980  133.8900 C   0  0  0  0  0  0  0  0  0  0  0  0
  139.9810  156.1460  133.5290 C   0  0  0  0  0  0  0  0  0  0  0  0
  139.2170  155.3040  132.9840 O   0  0  0  0  0  0  0  0  0  0  0  0
  141.3590  155.8260  133.7660 N   0  0  0  0  0  0  0  0  0  0  0  0
  141.9110  154.4920  133.5320 C   0  0  0  0  0  0  0  0  0  0  0  0
  143.4420  154.5070  133.5890 C   0  0  0  0  0  0  0  0  0  0  0  0
  143.9350  154.8870  134.9520 C   0  0  0  0  0  0  0  0  0  0  0  0
  143.5230  155.9400  135.5040 O   0  0  0  0  0  0  0  0  0  0  0  0
  144.8120  154.0510  135.6320 O   0  0  0  0  0  0  0  0  0  0  0  0
  142.3090  160.7410  134.4680 H   0  0  0  0  0  0  0  0  0  0  0  0
  147.1229  161.2994  133.4663 H   0  0  0  0  0  0  0  0  0  0  0  0
  149.1617  159.3077  133.2267 H   0  0  0  0  0  0  0  0  0  0  0  0
  149.5248  156.8230  133.0629 H   0  0  0  0  0  0  0  0  0  0  0  0
  145.2194  156.1798  133.3022 H   0  0  0  0  0  0  0  0  0  0  0  0
  139.8836  159.4780  133.1501 H   0  0  0  0  0  0  0  0  0  0  0  0
  141.0886  158.2094  132.6948 H   0  0  0  0  0  0  0  0  0  0  0  0
  139.2742  157.5401  134.9755 H   0  0  0  0  0  0  0  0  0  0  0  0
  138.5046  157.6628  133.3472 H   0  0  0  0  0  0  0  0  0  0  0  0
  142.0030  156.5780  134.1030 H   0  0  0  0  0  0  0  0  0  0  0  0
  141.5301  153.8060  134.3029 H   0  0  0  0  0  0  0  0  0  0  0  0
  141.6034  154.1591  132.5297 H   0  0  0  0  0  0  0  0  0  0  0  0
  143.8192  153.5045  133.3387 H   0  0  0  0  0  0  0  0  0  0  0  0
  143.8078  155.2531  132.8683 H   0  0  0  0  0  0  0  0  0  0  0  0
  1  2  1  0
  2  3  2  0
  2  4  1  0
  4  5  2  0
  5  6  1  0
  6  7  2  0
  7  8  1  0
  8  9  2  0
  9 10  1  0
 10 11  1  0
 10 12  1  0
 10 13  1  0
  9 14  1  0
 14 15  2  0
 15 16  1  0
 16 17  1  0
 17 18  2  0
 17 19  1  0
 19 20  1  0
 20 21  2  0
 20 22  1  0
 22 23  1  0
 23 24  1  0
 24 25  2  0
 24 26  1  0
 26 27  1  0
 27 28  1  0
 28 29  1  0
 29 30  2  0
 29 31  1  0
 16  4  1  0
 15  6  1  0
  1 32  1  0
  5 33  1  0
  7 34  1  0
  8 35  1  0
 14 36  1  0
 22 37  1  0
 22 38  1  0
 23 39  1  0
 23 40  1  0
 26 41  1  0
 27 42  1  0
 27 43  1  0
 28 44  1  0
 28 45  1  0
M  CHG  2   1  -1  31  -1
M  END
>  <UniqueID>  (54) 
53

>  <SMILES>  (54) 
[NH-]C(=O)c1cc2ccc(C(F)(F)F)cc2n1C(=O)OC(=O)CCC(=O)NCCC(=O)[O-]

>  <Energy>  (54) 
75.42661142134513

>  <Genealogy>  (54) 
[NH-]C(=O)c1cc2ccc(C(F)(F)F)cc2n1C(=O)OC(=O)CCC(=O)NCCC(=O)[O-] (protonated)
[NH-]C(=O)c1cc2ccc(C(F)(F)F)cc2n1C(=O)OC(=O)CCC(=O)NCCC(=O)[O-] (3D coordinates assigned)
[NH-]C(=O)c1cc2ccc(C(F)(F)F)cc2n1C(=O)OC(=O)CCC(=O)NCCC(=O)[O-] (optimized conformer: 75.42661142134513 kcal/mol)

>  <smiles>  (54) 
NC(=O)c1cc2ccc(C(F)(F)F)cc2n1C(=O)OC(=O)CCC(=O)NCCC(=O)O

>  <score_type>  (54) 
oracle

>  <origin>  (54) 
adg

>  <m_score__min__energy>  (54) 
-7.6699999999999999

>  <m_primary>  (54) 
energy

$$$$
54:0
     RDKit          3D

 48 49  0  0  0  0  0  0  0  0999 V2000
  149.6070  151.6510  131.6010 C   0  0  0  0  0  0  0  0  0  0  0  0
  149.0060  151.7450  133.0020 C   0  0  0  0  0  0  0  0  0  0  0  0
  149.7360  150.8050  133.9660 C   0  0  0  0  0  0  0  0  0  0  0  0
  149.1100  153.0940  133.4550 O   0  0  0  0  0  0  0  0  0  0  0  0
  148.5970  154.1940  132.7550 C   0  0  0  0  0  0  0  0  0  0  0  0
  149.3690  155.0480  132.2380 O   0  0  0  0  0  0  0  0  0  0  0  0
  147.1140  154.3620  132.6170 C   0  0  0  0  0  0  0  0  0  0  0  0
  146.7690  155.7390  132.4890 O   0  0  0  0  0  0  0  0  0  0  0  0
  146.5080  156.5690  133.5850 C   0  0  0  0  0  0  0  0  0  0  0  0
  146.4020  156.0710  134.7390 O   0  0  0  0  0  0  0  0  0  0  0  0
  146.3440  157.9850  133.3950 N   0  0  0  0  0  0  0  0  0  0  0  0
  147.2850  158.8830  132.9890 C   0  0  0  0  0  0  0  0  0  0  0  0
  148.6690  158.5610  132.6140 C   0  0  0  0  0  0  0  0  0  0  0  0
  148.9660  157.3880  131.8580 N   0  0  0  0  0  0  0  0  0  0  0  0
  149.5950  159.3600  132.9170 O   0  0  0  0  0  0  0  0  0  0  0  0
  146.7870  160.1800  133.0390 C   0  0  0  0  0  0  0  0  0  0  0  0
  145.4830  160.0500  133.4630 C   0  0  0  0  0  0  0  0  0  0  0  0
  144.5050  161.0180  133.6550 C   0  0  0  0  0  0  0  0  0  0  0  0
  143.2310  160.5950  134.0690 C   0  0  0  0  0  0  0  0  0  0  0  0
  142.9490  159.2180  134.2830 C   0  0  0  0  0  0  0  0  0  0  0  0
  141.6260  158.7930  134.6980 N   0  0  0  0  0  0  0  0  0  0  0  0
  141.1860  158.9970  136.0840 C   0  0  0  0  0  0  0  0  0  0  0  0
  140.6940  158.1740  133.7450 C   0  0  0  0  0  0  0  0  0  0  0  0
  139.8970  159.2190  133.0240 C   0  0  0  0  0  0  0  0  0  0  0  0
  138.7420  158.9490  132.6000 O   0  0  0  0  0  0  0  0  0  0  0  0
  140.4060  160.5000  132.8610 O   0  0  0  0  0  0  0  0  0  0  0  0
  143.9790  158.2670  134.0760 C   0  0  0  0  0  0  0  0  0  0  0  0
  145.2410  158.7180  133.6740 C   0  0  0  0  0  0  0  0  0  0  0  0
  150.6911  151.4814  131.6777 H   0  0  0  0  0  0  0  0  0  0  0  0
  149.1426  150.8146  131.0581 H   0  0  0  0  0  0  0  0  0  0  0  0
  149.4201  152.5893  131.0581 H   0  0  0  0  0  0  0  0  0  0  0  0
  147.9490  151.4422  132.9688 H   0  0  0  0  0  0  0  0  0  0  0  0
  149.5104  151.0955  135.0027 H   0  0  0  0  0  0  0  0  0  0  0  0
  149.4016  149.7713  133.7938 H   0  0  0  0  0  0  0  0  0  0  0  0
  150.8203  150.8731  133.7938 H   0  0  0  0  0  0  0  0  0  0  0  0
  146.7716  153.8201  131.7231 H   0  0  0  0  0  0  0  0  0  0  0  0
  146.6288  153.9599  133.5186 H   0  0  0  0  0  0  0  0  0  0  0  0
  148.1990  156.7760  131.4990 H   0  0  0  0  0  0  0  0  0  0  0  0
  149.9540  157.1530  131.6190 H   0  0  0  0  0  0  0  0  0  0  0  0
  147.3199  161.1103  132.7928 H   0  0  0  0  0  0  0  0  0  0  0  0
  144.7217  162.0834  133.4879 H   0  0  0  0  0  0  0  0  0  0  0  0
  142.4389  161.3411  134.2302 H   0  0  0  0  0  0  0  0  0  0  0  0
  141.9642  158.6362  136.7726 H   0  0  0  0  0  0  0  0  0  0  0  0
  141.0099  160.0686  136.2588 H   0  0  0  0  0  0  0  0  0  0  0  0
  140.2543  158.4390  136.2588 H   0  0  0  0  0  0  0  0  0  0  0  0
  141.2657  157.5867  133.0114 H   0  0  0  0  0  0  0  0  0  0  0  0
  140.0020  157.5240  134.3005 H   0  0  0  0  0  0  0  0  0  0  0  0
  143.7899  157.1942  134.2285 H   0  0  0  0  0  0  0  0  0  0  0  0
  1  2  1  0
  2  3  1  0
  2  4  1  0
  4  5  1  0
  5  6  2  0
  5  7  1  0
  7  8  1  0
  8  9  1  0
  9 10  2  0
  9 11  1  0
 11 12  1  0
 12 13  1  0
 13 14  1  0
 13 15  2  0
 12 16  2  0
 16 17  1  0
 17 18  2  0
 18 19  1  0
 19 20  2  0
 20 21  1  0
 21 22  1  0
 21 23  1  0
 23 24  1  0
 24 25  2  0
 24 26  1  0
 20 27  1  0
 27 28  2  0
 28 11  1  0
 28 17  1  0
  1 29  1  0
  1 30  1  0
  1 31  1  0
  2 32  1  0
  3 33  1  0
  3 34  1  0
  3 35  1  0
  7 36  1  0
  7 37  1  0
 14 38  1  0
 14 39  1  0
 16 40  1  0
 18 41  1  0
 19 42  1  0
 22 43  1  0
 22 44  1  0
 22 45  1  0
 23 46  1  0
 23 47  1  0
 27 48  1  0
M  CHG  1  26  -1
M  END
>  <UniqueID>  (55) 
54

>  <SMILES>  (55) 
CC(C)OC(=O)COC(=O)n1c(C(N)=O)cc2ccc(N(C)CC(=O)[O-])cc21

>  <Energy>  (55) 
81.60381403472701

>  <Genealogy>  (55) 
CC(C)OC(=O)COC(=O)n1c(C(N)=O)cc2ccc(N(C)CC(=O)[O-])cc21 (protonated)
CC(C)OC(=O)COC(=O)n1c(C(N)=O)cc2ccc(N(C)CC(=O)[O-])cc21 (3D coordinates assigned)
CC(C)OC(=O)COC(=O)n1c(C(N)=O)cc2ccc(N(C)CC(=O)[O-])cc21 (optimized conformer: 81.60381403472701 kcal/mol)

>  <smiles>  (55) 
CC(C)OC(=O)COC(=O)n1c(C(N)=O)cc2ccc(N(C)CC(=O)O)cc21

>  <score_type>  (55) 
oracle

>  <origin>  (55) 
adg

>  <m_score__min__energy>  (55) 
-7.2999999999999998

>  <m_primary>  (55) 
energy

$$$$
55:0
     RDKit          3D

 39 40  0  0  0  0  0  0  0  0999 V2000
  140.2920  159.1930  133.4590 C   0  0  0  0  0  0  0  0  0  0  0  0
  141.2440  158.8180  134.5160 N   0  0  0  0  0  0  0  0  0  0  0  0
  140.9950  159.5900  135.7430 C   0  0  0  0  0  0  0  0  0  0  0  0
  141.1570  157.3980  134.7900 C   0  0  0  0  0  0  0  0  0  0  0  0
  140.0660  156.8460  134.8570 O   0  0  0  0  0  0  0  0  0  0  0  0
  142.4060  156.5810  134.9880 C   0  0  0  0  0  0  0  0  0  0  0  0
  143.5630  157.3980  134.8250 O   0  0  0  0  0  0  0  0  0  0  0  0
  143.9450  157.9490  133.5960 C   0  0  0  0  0  0  0  0  0  0  0  0
  143.1690  157.8930  132.6020 O   0  0  0  0  0  0  0  0  0  0  0  0
  145.2080  158.6170  133.4800 N   0  0  0  0  0  0  0  0  0  0  0  0
  145.4440  159.9600  133.4750 C   0  0  0  0  0  0  0  0  0  0  0  0
  144.4530  161.0150  133.7710 C   0  0  0  0  0  0  0  0  0  0  0  0
  143.0550  160.7450  133.7130 N   0  0  0  0  0  0  0  0  0  0  0  0
  144.8460  162.1590  134.1230 O   0  0  0  0  0  0  0  0  0  0  0  0
  146.7890  160.2180  133.2170 C   0  0  0  0  0  0  0  0  0  0  0  0
  147.3750  158.9820  133.0660 C   0  0  0  0  0  0  0  0  0  0  0  0
  148.6950  158.6460  132.7730 C   0  0  0  0  0  0  0  0  0  0  0  0
  149.0110  157.2840  132.6320 C   0  0  0  0  0  0  0  0  0  0  0  0
  148.0110  156.2920  132.7790 C   0  0  0  0  0  0  0  0  0  0  0  0
  148.3490  154.8380  132.6080 C   0  0  0  0  0  0  0  0  0  0  0  0
  149.6830  154.7070  132.2640 F   0  0  0  0  0  0  0  0  0  0  0  0
  148.1160  154.1630  133.7920 F   0  0  0  0  0  0  0  0  0  0  0  0
  146.6840  156.6710  133.0770 C   0  0  0  0  0  0  0  0  0  0  0  0
  146.4010  158.0330  133.2290 C   0  0  0  0  0  0  0  0  0  0  0  0
  139.3614  159.5596  133.9169 H   0  0  0  0  0  0  0  0  0  0  0  0
  140.7306  159.9856  132.8349 H   0  0  0  0  0  0  0  0  0  0  0  0
  140.0722  158.3143  132.8349 H   0  0  0  0  0  0  0  0  0  0  0  0
  142.2090  159.0500  134.1790 H   0  0  0  0  0  0  0  0  0  0  0  0
  141.1985  158.9591  136.6208 H   0  0  0  0  0  0  0  0  0  0  0  0
  141.6549  160.4698  135.7629 H   0  0  0  0  0  0  0  0  0  0  0  0
  139.9454  159.9184  135.7629 H   0  0  0  0  0  0  0  0  0  0  0  0
  142.4033  156.1539  136.0017 H   0  0  0  0  0  0  0  0  0  0  0  0
  142.4288  155.7752  134.2395 H   0  0  0  0  0  0  0  0  0  0  0  0
  142.6890  159.9120  133.2010 H   0  0  0  0  0  0  0  0  0  0  0  0
  147.2783  161.2008  133.1486 H   0  0  0  0  0  0  0  0  0  0  0  0
  149.4655  159.4223  132.6557 H   0  0  0  0  0  0  0  0  0  0  0  0
  150.0451  156.9855  132.4053 H   0  0  0  0  0  0  0  0  0  0  0  0
  147.7196  154.4134  131.8120 H   0  0  0  0  0  0  0  0  0  0  0  0
  145.8927  155.9149  133.1869 H   0  0  0  0  0  0  0  0  0  0  0  0
  1  2  1  0
  2  3  1  0
  2  4  1  0
  4  5  2  0
  4  6  1  0
  6  7  1  0
  7  8  1  0
  8  9  2  0
  8 10  1  0
 10 11  1  0
 11 12  1  0
 12 13  1  0
 12 14  2  0
 11 15  2  0
 15 16  1  0
 16 17  2  0
 17 18  1  0
 18 19  2  0
 19 20  1  0
 20 21  1  0
 20 22  1  0
 19 23  1  0
 23 24  2  0
 24 10  1  0
 24 16  1  0
  1 25  1  0
  1 26  1  0
  1 27  1  0
  2 28  1  0
  3 29  1  0
  3 30  1  0
  3 31  1  0
  6 32  1  0
  6 33  1  0
 13 34  1  0
 15 35  1  0
 17 36  1  0
 18 37  1  0
 20 38  1  0
 23 39  1  0
M  CHG  2   2   1  13  -1
M  END
>  <UniqueID>  (56) 
55

>  <SMILES>  (56) 
C[NH+](C)C(=O)COC(=O)n1c(C([NH-])=O)cc2ccc(C(F)F)cc21

>  <Energy>  (56) 
73.89253814939327

>  <Genealogy>  (56) 
C[NH+](C)C(=O)COC(=O)n1c(C([NH-])=O)cc2ccc(C(F)F)cc21 (protonated)
C[NH+](C)C(=O)COC(=O)n1c(C([NH-])=O)cc2ccc(C(F)F)cc21 (3D coordinates assigned)
C[NH+](C)C(=O)COC(=O)n1c(C([NH-])=O)cc2ccc(C(F)F)cc21 (optimized conformer: 73.89253814939327 kcal/mol)

>  <smiles>  (56) 
CN(C)C(=O)COC(=O)n1c(C(N)=O)cc2ccc(C(F)F)cc21

>  <score_type>  (56) 
oracle

>  <origin>  (56) 
adg

>  <m_score__min__energy>  (56) 
-5.2000000000000002

>  <m_primary>  (56) 
energy

$$$$
56:0
     RDKit          3D

 46 48  0  0  0  0  0  0  0  0999 V2000
  140.7880  159.3630  136.7330 C   0  0  0  0  0  0  0  0  0  0  0  0
  140.6090  159.6060  135.3420 O   0  0  0  0  0  0  0  0  0  0  0  0
  140.0820  158.6460  134.4720 C   0  0  0  0  0  0  0  0  0  0  0  0
  139.1860  157.8470  134.8610 O   0  0  0  0  0  0  0  0  0  0  0  0
  140.6030  158.5590  133.0770 C   0  0  0  0  0  0  0  0  0  0  0  0
  141.5060  157.4210  132.9730 N   0  0  0  0  0  0  0  0  0  0  0  0
  142.9370  157.4730  133.0580 C   0  0  0  0  0  0  0  0  0  0  0  0
  143.6080  156.7700  132.2570 O   0  0  0  0  0  0  0  0  0  0  0  0
  143.6560  158.3080  134.0460 C   0  0  0  0  0  0  0  0  0  0  0  0
  143.1810  158.4960  135.1960 O   0  0  0  0  0  0  0  0  0  0  0  0
  144.9040  158.9280  133.6940 N   0  0  0  0  0  0  0  0  0  0  0  0
  145.1880  160.2590  133.6430 C   0  0  0  0  0  0  0  0  0  0  0  0
  144.2170  161.3560  133.8390 C   0  0  0  0  0  0  0  0  0  0  0  0
  142.8190  161.0920  133.7540 N   0  0  0  0  0  0  0  0  0  0  0  0
  144.6090  162.5250  134.0980 O   0  0  0  0  0  0  0  0  0  0  0  0
  146.5310  160.4580  133.3250 C   0  0  0  0  0  0  0  0  0  0  0  0
  147.0660  159.1970  133.1870 C   0  0  0  0  0  0  0  0  0  0  0  0
  148.3650  158.7990  132.8880 C   0  0  0  0  0  0  0  0  0  0  0  0
  148.6370  157.4210  132.8370 C   0  0  0  0  0  0  0  0  0  0  0  0
  147.6140  156.4770  133.0930 C   0  0  0  0  0  0  0  0  0  0  0  0
  147.9030  155.0790  133.0500 N   0  0  0  0  0  0  0  0  0  0  0  0
  149.0010  154.2060  132.5960 C   0  0  0  0  0  0  0  0  0  0  0  0
  148.3470  152.9160  132.9780 C   0  0  0  0  0  0  0  0  0  0  0  0
  149.0240  152.2910  134.0490 O   0  0  0  0  0  0  0  0  0  0  0  0
  149.6680  151.1320  133.5720 C   0  0  0  0  0  0  0  0  0  0  0  0
  147.2420  153.8180  133.4340 C   0  0  0  0  0  0  0  0  0  0  0  0
  146.3080  156.9140  133.3940 C   0  0  0  0  0  0  0  0  0  0  0  0
  146.0620  158.2910  133.4190 C   0  0  0  0  0  0  0  0  0  0  0  0
  140.2330  160.1164  137.3112 H   0  0  0  0  0  0  0  0  0  0  0  0
  140.4115  158.3597  136.9814 H   0  0  0  0  0  0  0  0  0  0  0  0
  141.8578  159.4251  136.9814 H   0  0  0  0  0  0  0  0  0  0  0  0
  139.7636  158.4276  132.3783 H   0  0  0  0  0  0  0  0  0  0  0  0
  141.1434  159.4837  132.8260 H   0  0  0  0  0  0  0  0  0  0  0  0
  142.3790  160.3380  134.3260 H   0  0  0  0  0  0  0  0  0  0  0  0
  147.0528  161.4194  133.2089 H   0  0  0  0  0  0  0  0  0  0  0  0
  149.1552  159.5401  132.6973 H   0  0  0  0  0  0  0  0  0  0  0  0
  149.6526  157.0736  132.5963 H   0  0  0  0  0  0  0  0  0  0  0  0
  149.1860  154.2842  131.5145 H   0  0  0  0  0  0  0  0  0  0  0  0
  150.0009  154.4024  133.0102 H   0  0  0  0  0  0  0  0  0  0  0  0
  148.1977  152.0607  132.3026 H   0  0  0  0  0  0  0  0  0  0  0  0
  150.0061  150.5235  134.4238 H   0  0  0  0  0  0  0  0  0  0  0  0
  148.9652  150.5476  132.9600 H   0  0  0  0  0  0  0  0  0  0  0  0
  150.5354  151.4201  132.9600 H   0  0  0  0  0  0  0  0  0  0  0  0
  146.3021  153.6477  132.8885 H   0  0  0  0  0  0  0  0  0  0  0  0
  146.9150  153.7214  134.4798 H   0  0  0  0  0  0  0  0  0  0  0  0
  145.5046  156.1924  133.6034 H   0  0  0  0  0  0  0  0  0  0  0  0
  1  2  1  0
  2  3  1  0
  3  4  2  0
  3  5  1  0
  5  6  1  0
  6  7  1  0
  7  8  2  0
  7  9  1  0
  9 10  2  0
  9 11  1  0
 11 12  1  0
 12 13  1  0
 13 14  1  0
 13 15  2  0
 12 16  2  0
 16 17  1  0
 17 18  2  0
 18 19  1  0
 19 20  2  0
 20 21  1  0
 21 22  1  0
 22 23  1  0
 23 24  1  0
 24 25  1  0
 23 26  1  0
 20 27  1  0
 27 28  2  0
 28 11  1  0
 28 17  1  0
 26 21  1  0
  1 29  1  0
  1 30  1  0
  1 31  1  0
  5 32  1  0
  5 33  1  0
 14 34  1  0
 16 35  1  0
 18 36  1  0
 19 37  1  0
 22 38  1  0
 22 39  1  0
 23 40  1  0
 25 41  1  0
 25 42  1  0
 25 43  1  0
 26 44  1  0
 26 45  1  0
 27 46  1  0
M  CHG  2   6  -1  14  -1
M  END
>  <UniqueID>  (57) 
56

>  <SMILES>  (57) 
COC(=O)C[N-]C(=O)C(=O)n1c(C([NH-])=O)cc2ccc(N3CC(OC)C3)cc21

>  <Energy>  (57) 
127.18718457521025

>  <Genealogy>  (57) 
COC(=O)C[N-]C(=O)C(=O)n1c(C([NH-])=O)cc2ccc(N3CC(OC)C3)cc21 (protonated)
COC(=O)C[N-]C(=O)C(=O)n1c(C([NH-])=O)cc2ccc(N3CC(OC)C3)cc21 (3D coordinates assigned)
COC(=O)C[N-]C(=O)C(=O)n1c(C([NH-])=O)cc2ccc(N3CC(OC)C3)cc21 (nonaromatic ring conformer: 127.18718457521025 kcal/mol)

>  <smiles>  (57) 
COC(=O)CNC(=O)C(=O)n1c(C(N)=O)cc2ccc(N3CC(OC)C3)cc21

>  <score_type>  (57) 
oracle

>  <origin>  (57) 
adg

>  <m_score__min__energy>  (57) 
-7.0999999999999996

>  <m_primary>  (57) 
energy

$$$$
57:0
     RDKit          3D

 40 42  0  0  0  0  0  0  0  0999 V2000
  143.8760  152.8740  139.8330 C   0  0  0  0  0  0  0  0  0  0  0  0
  142.8130  153.9110  139.6860 C   0  0  0  0  0  0  0  0  0  0  0  0
  142.7550  154.7920  138.6640 N   0  0  0  0  0  0  0  0  0  0  0  0
  141.6430  155.5820  138.7110 C   0  0  0  0  0  0  0  0  0  0  0  0
  141.3660  156.6310  137.6990 C   0  0  0  0  0  0  0  0  0  0  0  0
  141.4750  158.0040  138.0430 C   0  0  0  0  0  0  0  0  0  0  0  0
  141.2250  159.0070  137.0910 C   0  0  0  0  0  0  0  0  0  0  0  0
  140.8620  158.6130  135.8080 C   0  0  0  0  0  0  0  0  0  0  0  0
  140.5890  159.3730  134.6940 C   0  0  0  0  0  0  0  0  0  0  0  0
  140.2930  158.4570  133.6860 C   0  0  0  0  0  0  0  0  0  0  0  0
  139.8530  158.8520  132.3310 C   0  0  0  0  0  0  0  0  0  0  0  0
  138.7240  158.2140  131.7380 N   0  0  0  0  0  0  0  0  0  0  0  0
  140.4850  159.7210  131.6740 O   0  0  0  0  0  0  0  0  0  0  0  0
  140.3880  157.1810  134.1570 N   0  0  0  0  0  0  0  0  0  0  0  0
  140.2140  155.9550  133.4300 C   0  0  0  0  0  0  0  0  0  0  0  0
  139.0740  155.6410  132.9900 O   0  0  0  0  0  0  0  0  0  0  0  0
  141.3180  155.1290  133.1890 O   0  0  0  0  0  0  0  0  0  0  0  0
  141.6350  153.9890  133.9840 C   0  0  0  0  0  0  0  0  0  0  0  0
  143.1240  153.9820  134.3390 C   0  0  0  0  0  0  0  0  0  0  0  0
  143.3120  154.0960  135.8170 C   0  0  0  0  0  0  0  0  0  0  0  0
  142.8590  153.2060  136.5850 O   0  0  0  0  0  0  0  0  0  0  0  0
  143.9450  155.2100  136.3540 O   0  0  0  0  0  0  0  0  0  0  0  0
  140.7340  157.2950  135.4590 C   0  0  0  0  0  0  0  0  0  0  0  0
  140.9940  156.2740  136.3800 C   0  0  0  0  0  0  0  0  0  0  0  0
  140.7940  155.3100  139.7870 C   0  0  0  0  0  0  0  0  0  0  0  0
  141.4680  154.0530  140.6810 S   0  0  0  0  0  0  0  0  0  0  0  0
  144.0641  152.6905  140.9012 H   0  0  0  0  0  0  0  0  0  0  0  0
  143.5466  151.9406  139.3531 H   0  0  0  0  0  0  0  0  0  0  0  0
  144.8009  153.2264  139.3531 H   0  0  0  0  0  0  0  0  0  0  0  0
  143.4730  154.8310  137.9070 H   0  0  0  0  0  0  0  0  0  0  0  0
  141.7587  158.2863  139.0676 H   0  0  0  0  0  0  0  0  0  0  0  0
  141.3138  160.0717  137.3530 H   0  0  0  0  0  0  0  0  0  0  0  0
  140.6017  160.4701  134.6156 H   0  0  0  0  0  0  0  0  0  0  0  0
  138.2030  157.4650  132.2470 H   0  0  0  0  0  0  0  0  0  0  0  0
  141.0419  154.0169  134.9100 H   0  0  0  0  0  0  0  0  0  0  0  0
  141.4008  153.0792  133.4118 H   0  0  0  0  0  0  0  0  0  0  0  0
  143.5749  153.0419  133.9885 H   0  0  0  0  0  0  0  0  0  0  0  0
  143.6090  154.8409  133.8522 H   0  0  0  0  0  0  0  0  0  0  0  0
  140.9113  155.2173  136.0859 H   0  0  0  0  0  0  0  0  0  0  0  0
  139.8494  155.8274  140.0109 H   0  0  0  0  0  0  0  0  0  0  0  0
  1  2  1  0
  2  3  2  0
  3  4  1  0
  4  5  1  0
  5  6  2  0
  6  7  1  0
  7  8  2  0
  8  9  1  0
  9 10  2  0
 10 11  1  0
 11 12  1  0
 11 13  2  0
 10 14  1  0
 14 15  1  0
 15 16  2  0
 15 17  1  0
 17 18  1  0
 18 19  1  0
 19 20  1  0
 20 21  2  0
 20 22  1  0
 14 23  1  0
 23 24  2  0
  4 25  2  0
 25 26  1  0
 26  2  1  0
 24  5  1  0
 23  8  1  0
  1 27  1  0
  1 28  1  0
  1 29  1  0
  3 30  1  0
  6 31  1  0
  7 32  1  0
  9 33  1  0
 12 34  1  0
 18 35  1  0
 18 36  1  0
 19 37  1  0
 19 38  1  0
 24 39  1  0
 25 40  1  0
M  CHG  3   3   1  12  -1  22  -1
M  END
>  <UniqueID>  (58) 
57

>  <SMILES>  (58) 
Cc1[nH+]c(-c2ccc3cc(C([NH-])=O)n(C(=O)OCCC(=O)[O-])c3c2)cs1

>  <Energy>  (58) 
107.36572825443888

>  <Genealogy>  (58) 
Cc1[nH+]c(-c2ccc3cc(C([NH-])=O)n(C(=O)OCCC(=O)[O-])c3c2)cs1 (protonated)
Cc1[nH+]c(-c2ccc3cc(C([NH-])=O)n(C(=O)OCCC(=O)[O-])c3c2)cs1 (3D coordinates assigned)
Cc1[nH+]c(-c2ccc3cc(C([NH-])=O)n(C(=O)OCCC(=O)[O-])c3c2)cs1 (optimized conformer: 107.36572825443888 kcal/mol)

>  <smiles>  (58) 
Cc1nc(-c2ccc3cc(C(N)=O)n(C(=O)OCCC(=O)O)c3c2)cs1

>  <score_type>  (58) 
oracle

>  <origin>  (58) 
adg

>  <m_score__min__energy>  (58) 
-6.0899999999999999

>  <m_primary>  (58) 
energy

$$$$
58:0
     RDKit          3D

 29 30  0  0  0  0  0  0  0  0999 V2000
  147.3510  155.3110  132.0300 N   0  0  0  0  0  0  0  0  0  0  0  0
  146.1090  155.5240  132.7040 C   0  0  0  0  0  0  0  0  0  0  0  0
  145.3620  154.5390  132.9470 O   0  0  0  0  0  0  0  0  0  0  0  0
  145.6570  156.8830  133.0630 C   0  0  0  0  0  0  0  0  0  0  0  0
  144.3210  157.2160  133.2680 C   0  0  0  0  0  0  0  0  0  0  0  0
  144.3190  158.5700  133.5130 C   0  0  0  0  0  0  0  0  0  0  0  0
  143.2570  159.4260  133.7900 C   0  0  0  0  0  0  0  0  0  0  0  0
  143.5480  160.7780  134.0350 C   0  0  0  0  0  0  0  0  0  0  0  0
  144.8860  161.2420  134.0200 C   0  0  0  0  0  0  0  0  0  0  0  0
  145.1820  162.6920  134.2620 C   0  0  0  0  0  0  0  0  0  0  0  0
  145.5180  162.8800  135.5890 F   0  0  0  0  0  0  0  0  0  0  0  0
  145.9380  160.3470  133.7230 C   0  0  0  0  0  0  0  0  0  0  0  0
  145.6180  159.0090  133.4610 C   0  0  0  0  0  0  0  0  0  0  0  0
  146.4530  157.9820  133.1870 N   0  0  0  0  0  0  0  0  0  0  0  0
  147.8890  158.0290  133.1550 C   0  0  0  0  0  0  0  0  0  0  0  0
  148.5590  157.0350  133.5480 O   0  0  0  0  0  0  0  0  0  0  0  0
  148.5380  159.1770  132.6910 O   0  0  0  0  0  0  0  0  0  0  0  0
  149.5020  159.1580  131.6430 C   0  0  0  0  0  0  0  0  0  0  0  0
  149.2380  160.8430  130.3520 I   0  0  0  0  0  0  0  0  0  0  0  0
  147.6740  154.3400  131.8230 H   0  0  0  0  0  0  0  0  0  0  0  0
  147.9090  156.1120  131.6610 H   0  0  0  0  0  0  0  0  0  0  0  0
  143.4528  156.5412  133.2401 H   0  0  0  0  0  0  0  0  0  0  0  0
  142.2218  159.0551  133.8162 H   0  0  0  0  0  0  0  0  0  0  0  0
  142.7291  161.4831  134.2405 H   0  0  0  0  0  0  0  0  0  0  0  0
  146.0209  163.0061  133.6236 H   0  0  0  0  0  0  0  0  0  0  0  0
  144.2922  163.2922  134.0213 H   0  0  0  0  0  0  0  0  0  0  0  0
  146.9821  160.6924  133.6982 H   0  0  0  0  0  0  0  0  0  0  0  0
  150.5114  159.1906  132.0790 H   0  0  0  0  0  0  0  0  0  0  0  0
  149.3719  158.2365  131.0565 H   0  0  0  0  0  0  0  0  0  0  0  0
  1  2  1  0
  2  3  2  0
  2  4  1  0
  4  5  2  0
  5  6  1  0
  6  7  2  0
  7  8  1  0
  8  9  2  0
  9 10  1  0
 10 11  1  0
  9 12  1  0
 12 13  2  0
 13 14  1  0
 14 15  1  0
 15 16  2  0
 15 17  1  0
 17 18  1  0
 18 19  1  0
 14  4  1  0
 13  6  1  0
  1 20  1  0
  1 21  1  0
  5 22  1  0
  7 23  1  0
  8 24  1  0
 10 25  1  0
 10 26  1  0
 12 27  1  0
 18 28  1  0
 18 29  1  0
M  END
>  <UniqueID>  (59) 
58

>  <SMILES>  (59) 
NC(=O)c1cc2ccc(CF)cc2n1C(=O)OCI

>  <Energy>  (59) 
66.10792116674664

>  <Genealogy>  (59) 
NC(=O)c1cc2ccc(CF)cc2n1C(=O)OCI (3D coordinates assigned)
NC(=O)c1cc2ccc(CF)cc2n1C(=O)OCI (optimized conformer: 66.10792116674664 kcal/mol)

>  <smiles>  (59) 
NC(=O)c1cc2ccc(CF)cc2n1C(=O)OCI

>  <score_type>  (59) 
oracle

>  <origin>  (59) 
adg

>  <m_score__min__energy>  (59) 
-6.7999999999999998

>  <m_primary>  (59) 
energy

$$$$
59:0
     RDKit          3D

 41 43  0  0  0  0  0  0  0  0999 V2000
  142.7980  155.1910  138.4930 N   0  0  0  0  0  0  0  0  0  0  0  0
  141.6610  154.9100  137.6740 C   0  0  0  0  0  0  0  0  0  0  0  0
  140.5360  155.3530  138.0290 O   0  0  0  0  0  0  0  0  0  0  0  0
  141.7830  154.1120  136.4300 C   0  0  0  0  0  0  0  0  0  0  0  0
  142.0940  154.6260  135.1690 C   0  0  0  0  0  0  0  0  0  0  0  0
  142.0920  153.5400  134.3180 C   0  0  0  0  0  0  0  0  0  0  0  0
  142.3550  153.4650  132.9550 C   0  0  0  0  0  0  0  0  0  0  0  0
  142.3080  152.1990  132.3440 C   0  0  0  0  0  0  0  0  0  0  0  0
  141.9860  151.0430  133.0990 C   0  0  0  0  0  0  0  0  0  0  0  0
  142.0140  149.6840  132.4560 C   0  0  0  0  0  0  0  0  0  0  0  0
  140.6980  149.4160  131.7780 C   0  0  0  0  0  0  0  0  0  0  0  0
  139.5890  150.2370  132.0250 C   0  0  0  0  0  0  0  0  0  0  0  0
  138.3860  149.9440  131.4700 N   0  0  0  0  0  0  0  0  0  0  0  0
  138.2100  148.8630  130.6630 C   0  0  0  0  0  0  0  0  0  0  0  0
  139.2890  148.0070  130.3810 C   0  0  0  0  0  0  0  0  0  0  0  0
  139.1140  146.8280  129.5050 C   0  0  0  0  0  0  0  0  0  0  0  0
  139.5090  145.6910  129.8760 O   0  0  0  0  0  0  0  0  0  0  0  0
  138.5100  146.9560  128.2590 O   0  0  0  0  0  0  0  0  0  0  0  0
  140.5380  148.2930  130.9530 C   0  0  0  0  0  0  0  0  0  0  0  0
  141.7200  151.1610  134.4810 C   0  0  0  0  0  0  0  0  0  0  0  0
  141.7840  152.4300  135.0590 C   0  0  0  0  0  0  0  0  0  0  0  0
  141.5970  152.7640  136.3500 N   0  0  0  0  0  0  0  0  0  0  0  0
  141.2890  151.8590  137.4150 C   0  0  0  0  0  0  0  0  0  0  0  0
  140.6040  150.8290  137.1820 O   0  0  0  0  0  0  0  0  0  0  0  0
  141.7740  152.1420  138.8040 C   0  0  0  0  0  0  0  0  0  0  0  0
  143.2420  151.8720  138.9020 C   0  0  0  0  0  0  0  0  0  0  0  0
  144.0710  152.6930  138.4280 O   0  0  0  0  0  0  0  0  0  0  0  0
  143.6950  150.6900  139.4760 O   0  0  0  0  0  0  0  0  0  0  0  0
  143.7450  154.8160  138.2710 H   0  0  0  0  0  0  0  0  0  0  0  0
  142.6900  155.7670  139.3570 H   0  0  0  0  0  0  0  0  0  0  0  0
  142.2976  155.6753  134.9092 H   0  0  0  0  0  0  0  0  0  0  0  0
  142.5924  154.3675  132.3726 H   0  0  0  0  0  0  0  0  0  0  0  0
  142.5233  152.1048  131.2694 H   0  0  0  0  0  0  0  0  0  0  0  0
  142.8228  149.6486  131.7113 H   0  0  0  0  0  0  0  0  0  0  0  0
  142.1883  148.9197  133.2276 H   0  0  0  0  0  0  0  0  0  0  0  0
  139.6943  151.1214  132.6706 H   0  0  0  0  0  0  0  0  0  0  0  0
  137.2200  148.6580  130.2296 H   0  0  0  0  0  0  0  0  0  0  0  0
  141.3955  147.6335  130.7535 H   0  0  0  0  0  0  0  0  0  0  0  0
  141.4692  150.2769  135.0855 H   0  0  0  0  0  0  0  0  0  0  0  0
  141.5812  153.1970  139.0486 H   0  0  0  0  0  0  0  0  0  0  0  0
  141.2404  151.4898  139.5110 H   0  0  0  0  0  0  0  0  0  0  0  0
  1  2  1  0
  2  3  2  0
  2  4  1  0
  4  5  2  0
  5  6  1  0
  6  7  2  0
  7  8  1  0
  8  9  2  0
  9 10  1  0
 10 11  1  0
 11 12  2  0
 12 13  1  0
 13 14  2  0
 14 15  1  0
 15 16  1  0
 16 17  2  0
 16 18  1  0
 15 19  2  0
  9 20  1  0
 20 21  2  0
 21 22  1  0
 22 23  1  0
 23 24  2  0
 23 25  1  0
 25 26  1  0
 26 27  2  0
 26 28  1  0
 22  4  1  0
 21  6  1  0
 19 11  1  0
  1 29  1  0
  1 30  1  0
  5 31  1  0
  7 32  1  0
  8 33  1  0
 10 34  1  0
 10 35  1  0
 12 36  1  0
 14 37  1  0
 19 38  1  0
 20 39  1  0
 25 40  1  0
 25 41  1  0
M  CHG  2  18  -1  28  -1
M  END
>  <UniqueID>  (60) 
59

>  <SMILES>  (60) 
NC(=O)c1cc2ccc(Cc3cncc(C(=O)[O-])c3)cc2n1C(=O)CC(=O)[O-]

>  <Energy>  (60) 
81.36729551826994

>  <Genealogy>  (60) 
NC(=O)c1cc2ccc(Cc3cncc(C(=O)[O-])c3)cc2n1C(=O)CC(=O)[O-] (protonated)
NC(=O)c1cc2ccc(Cc3cncc(C(=O)[O-])c3)cc2n1C(=O)CC(=O)[O-] (3D coordinates assigned)
NC(=O)c1cc2ccc(Cc3cncc(C(=O)[O-])c3)cc2n1C(=O)CC(=O)[O-] (optimized conformer: 81.36729551826994 kcal/mol)

>  <smiles>  (60) 
NC(=O)c1cc2ccc(Cc3cncc(C(=O)O)c3)cc2n1C(=O)CC(=O)O

>  <score_type>  (60) 
oracle

>  <origin>  (60) 
adg

>  <m_score__min__energy>  (60) 
-8.6799999999999997

>  <m_primary>  (60) 
energy

$$$$
60:0
     RDKit          3D

 36 37  0  0  0  0  0  0  0  0999 V2000
  139.7840  159.6280  136.7000 H   0  0  0  0  0  0  0  0  0  0  0  0
  140.6240  159.7220  137.3140 N   0  0  0  0  0  0  0  0  0  0  0  0
  141.2850  158.5720  137.8350 C   0  0  0  0  0  0  0  0  0  0  0  0
  141.7690  158.6130  138.9970 O   0  0  0  0  0  0  0  0  0  0  0  0
  141.3680  157.3400  137.0240 C   0  0  0  0  0  0  0  0  0  0  0  0
  142.0040  156.1750  137.4500 C   0  0  0  0  0  0  0  0  0  0  0  0
  142.4745  155.9911  138.4271 H   0  0  0  0  0  0  0  0  0  0  0  0
  141.9180  155.3030  136.3870 C   0  0  0  0  0  0  0  0  0  0  0  0
  142.3750  153.9950  136.2620 C   0  0  0  0  0  0  0  0  0  0  0  0
  142.9130  153.5012  137.0847 H   0  0  0  0  0  0  0  0  0  0  0  0
  142.1280  153.3240  135.0520 C   0  0  0  0  0  0  0  0  0  0  0  0
  142.4816  152.2907  134.9207 H   0  0  0  0  0  0  0  0  0  0  0  0
  141.4280  153.9650  133.9990 C   0  0  0  0  0  0  0  0  0  0  0  0
  141.1600  153.2260  132.7200 C   0  0  0  0  0  0  0  0  0  0  0  0
  141.3881  153.8837  131.8683 H   0  0  0  0  0  0  0  0  0  0  0  0
  139.8300  152.8490  132.6720 F   0  0  0  0  0  0  0  0  0  0  0  0
  141.9570  152.0970  132.6580 F   0  0  0  0  0  0  0  0  0  0  0  0
  140.9770  155.2940  134.1650 C   0  0  0  0  0  0  0  0  0  0  0  0
  140.4240  155.8063  133.3640 H   0  0  0  0  0  0  0  0  0  0  0  0
  141.2520  155.9410  135.3740 C   0  0  0  0  0  0  0  0  0  0  0  0
  140.9090  157.1930  135.7490 N   0  0  0  0  0  0  0  0  0  0  0  0
  140.1580  158.1380  134.9690 C   0  0  0  0  0  0  0  0  0  0  0  0
  138.8990  158.1380  135.0380 O   0  0  0  0  0  0  0  0  0  0  0  0
  140.8590  159.1500  134.1430 C   0  0  0  0  0  0  0  0  0  0  0  0
  140.5520  159.3640  132.8460 C   0  0  0  0  0  0  0  0  0  0  0  0
  141.0743  160.1792  132.3238 H   0  0  0  0  0  0  0  0  0  0  0  0
  139.5620  158.5780  132.0790 C   0  0  0  0  0  0  0  0  0  0  0  0
  139.5880  157.4793  132.1255 H   0  0  0  0  0  0  0  0  0  0  0  0
  138.6410  159.1810  131.3340 C   0  0  0  0  0  0  0  0  0  0  0  0
  137.9116  158.5817  130.7694 H   0  0  0  0  0  0  0  0  0  0  0  0
  138.6083  160.2793  131.2821 H   0  0  0  0  0  0  0  0  0  0  0  0
  141.9460  159.8720  134.7510 N   0  0  0  0  0  0  0  0  0  0  0  0
  141.7510  160.4480  135.6000 H   0  0  0  0  0  0  0  0  0  0  0  0
  143.2520  159.9960  134.1750 C   0  0  0  0  0  0  0  0  0  0  0  0
  144.0579  160.4623  134.7607 H   0  0  0  0  0  0  0  0  0  0  0  0
  143.4950  159.5810  133.0100 O   0  0  0  0  0  0  0  0  0  0  0  0
  1  2  1  0
  2  3  1  0
  3  4  2  0
  3  5  1  0
  5  6  2  0
  6  7  1  0
  6  8  1  0
  8  9  2  0
  9 10  1  0
  9 11  1  0
 11 12  1  0
 11 13  2  0
 13 14  1  0
 14 15  1  0
 14 16  1  0
 14 17  1  0
 13 18  1  0
 18 19  1  0
 18 20  2  0
 20 21  1  0
 21 22  1  0
 22 23  2  0
 22 24  1  0
 24 25  2  0
 25 26  1  0
 25 27  1  0
 27 28  1  0
 27 29  2  0
 29 30  1  0
 29 31  1  0
 24 32  1  0
 32 33  1  0
 32 34  1  0
 34 35  1  0
 34 36  2  0
 21  5  1  0
 20  8  1  0
M  CHG  1   2  -1
M  END
>  <UniqueID>  (61) 
60

>  <SMILES>  (61) 
C=C/C=C(/NC=O)C(=O)n1c(C([NH-])=O)cc2ccc(C(F)F)cc21

>  <Energy>  (61) 
81.20585458767718

>  <Genealogy>  (61) 
C=C/C=C(/NC=O)C(=O)n1c(C([NH-])=O)cc2ccc(C(F)F)cc21 (protonated)
C=C/C=C(/NC=O)C(=O)n1c(C([NH-])=O)cc2ccc(C(F)F)cc21 (cis-trans isomerization)
C=C/C=C(/NC=O)C(=O)n1c(C([NH-])=O)cc2ccc(C(F)F)cc21 (3D coordinates assigned)
C=C/C=C(/NC=O)C(=O)n1c(C([NH-])=O)cc2ccc(C(F)F)cc21 (optimized conformer: 81.20585458767718 kcal/mol)

>  <smiles>  (61) 
C=C/C=C(/NC=O)C(=O)n1c(C(N)=O)cc2ccc(C(F)F)cc21

>  <score_type>  (61) 
oracle

>  <origin>  (61) 
adg

>  <m_score__min__energy>  (61) 
-6.6600000000000001

>  <m_primary>  (61) 
energy

$$$$
61:0
     RDKit          3D

 34 35  0  0  0  0  0  0  0  0999 V2000
  148.1020  160.7380  131.0600 C   0  0  0  0  0  0  0  0  0  0  0  0
  149.2540  159.8320  131.0980 N   0  0  0  0  0  0  0  0  0  0  0  0
  150.2700  159.9050  130.0430 C   0  0  0  0  0  0  0  0  0  0  0  0
  149.3610  158.7910  132.0960 C   0  0  0  0  0  0  0  0  0  0  0  0
  150.1390  157.8190  131.8950 O   0  0  0  0  0  0  0  0  0  0  0  0
  148.5920  158.8160  133.3600 C   0  0  0  0  0  0  0  0  0  0  0  0
  149.1680  159.0610  134.4530 O   0  0  0  0  0  0  0  0  0  0  0  0
  147.1850  158.5220  133.3580 N   0  0  0  0  0  0  0  0  0  0  0  0
  146.5890  157.3030  133.2340 C   0  0  0  0  0  0  0  0  0  0  0  0
  147.2830  156.0260  132.9620 C   0  0  0  0  0  0  0  0  0  0  0  0
  148.6650  155.8870  133.2840 N   0  0  0  0  0  0  0  0  0  0  0  0
  146.6630  155.0470  132.4680 O   0  0  0  0  0  0  0  0  0  0  0  0
  145.2050  157.4250  133.3430 C   0  0  0  0  0  0  0  0  0  0  0  0
  144.9710  158.7660  133.5400 C   0  0  0  0  0  0  0  0  0  0  0  0
  143.7750  159.4480  133.7390 C   0  0  0  0  0  0  0  0  0  0  0  0
  143.8340  160.8360  133.9530 C   0  0  0  0  0  0  0  0  0  0  0  0
  145.0800  161.5170  133.9570 C   0  0  0  0  0  0  0  0  0  0  0  0
  145.1330  162.9950  134.2490 C   0  0  0  0  0  0  0  0  0  0  0  0
  146.2960  163.5220  133.7210 F   0  0  0  0  0  0  0  0  0  0  0  0
  144.0470  163.6450  133.6870 F   0  0  0  0  0  0  0  0  0  0  0  0
  145.1140  163.2230  135.6150 F   0  0  0  0  0  0  0  0  0  0  0  0
  146.2750  160.7830  133.7790 C   0  0  0  0  0  0  0  0  0  0  0  0
  146.1830  159.4070  133.5460 C   0  0  0  0  0  0  0  0  0  0  0  0
  147.7928  160.9812  132.0872 H   0  0  0  0  0  0  0  0  0  0  0  0
  148.3797  161.6623  130.5321 H   0  0  0  0  0  0  0  0  0  0  0  0
  147.2692  160.2503  130.5321 H   0  0  0  0  0  0  0  0  0  0  0  0
  151.2682  159.9767  130.4996 H   0  0  0  0  0  0  0  0  0  0  0  0
  150.2163  159.0007  129.4190 H   0  0  0  0  0  0  0  0  0  0  0  0
  150.0876  160.7924  129.4190 H   0  0  0  0  0  0  0  0  0  0  0  0
  149.2380  156.7160  133.5580 H   0  0  0  0  0  0  0  0  0  0  0  0
  144.4581  156.6196  133.2840 H   0  0  0  0  0  0  0  0  0  0  0  0
  142.8118  158.9169  133.7292 H   0  0  0  0  0  0  0  0  0  0  0  0
  142.9048  161.4008  134.1192 H   0  0  0  0  0  0  0  0  0  0  0  0
  147.2542  161.2823  133.8227 H   0  0  0  0  0  0  0  0  0  0  0  0
  1  2  1  0
  2  3  1  0
  2  4  1  0
  4  5  2  0
  4  6  1  0
  6  7  2  0
  6  8  1  0
  8  9  1  0
  9 10  1  0
 10 11  1  0
 10 12  2  0
  9 13  2  0
 13 14  1  0
 14 15  2  0
 15 16  1  0
 16 17  2  0
 17 18  1  0
 18 19  1  0
 18 20  1  0
 18 21  1  0
 17 22  1  0
 22 23  2  0
 23  8  1  0
 23 14  1  0
  1 24  1  0
  1 25  1  0
  1 26  1  0
  3 27  1  0
  3 28  1  0
  3 29  1  0
 11 30  1  0
 13 31  1  0
 15 32  1  0
 16 33  1  0
 22 34  1  0
M  CHG  1  11  -1
M  END
>  <UniqueID>  (62) 
61

>  <SMILES>  (62) 
CN(C)C(=O)C(=O)n1c(C([NH-])=O)cc2ccc(C(F)(F)F)cc21

>  <Energy>  (62) 
74.05439760792117

>  <Genealogy>  (62) 
CN(C)C(=O)C(=O)n1c(C([NH-])=O)cc2ccc(C(F)(F)F)cc21 (protonated)
CN(C)C(=O)C(=O)n1c(C([NH-])=O)cc2ccc(C(F)(F)F)cc21 (3D coordinates assigned)
CN(C)C(=O)C(=O)n1c(C([NH-])=O)cc2ccc(C(F)(F)F)cc21 (optimized conformer: 74.05439760792117 kcal/mol)

>  <smiles>  (62) 
CN(C)C(=O)C(=O)n1c(C(N)=O)cc2ccc(C(F)(F)F)cc21

>  <score_type>  (62) 
oracle

>  <origin>  (62) 
adg

>  <m_score__min__energy>  (62) 
-6.1200000000000001

>  <m_primary>  (62) 
energy

$$$$
62:0
     RDKit          3D

 49 50  0  0  0  0  0  0  0  0999 V2000
  139.5890  156.5140  133.0230 C   0  0  0  0  0  0  0  0  0  0  0  0
  139.2100  157.6740  133.7550 O   0  0  0  0  0  0  0  0  0  0  0  0
  140.0940  158.7280  134.0030 C   0  0  0  0  0  0  0  0  0  0  0  0
  140.3510  159.5790  133.1080 O   0  0  0  0  0  0  0  0  0  0  0  0
  140.6920  158.8770  135.3640 C   0  0  0  0  0  0  0  0  0  0  0  0
  142.0790  158.4290  135.3510 N   0  0  0  0  0  0  0  0  0  0  0  0
  142.4650  157.0530  135.4540 C   0  0  0  0  0  0  0  0  0  0  0  0
  142.0140  156.3300  136.3840 O   0  0  0  0  0  0  0  0  0  0  0  0
  143.4320  156.4790  134.4630 C   0  0  0  0  0  0  0  0  0  0  0  0
  143.6940  157.4110  133.3080 C   0  0  0  0  0  0  0  0  0  0  0  0
  142.8730  157.5080  132.3550 O   0  0  0  0  0  0  0  0  0  0  0  0
  144.9350  158.1270  133.2370 N   0  0  0  0  0  0  0  0  0  0  0  0
  145.1290  159.4630  133.4250 C   0  0  0  0  0  0  0  0  0  0  0  0
  144.0710  160.4690  133.6620 C   0  0  0  0  0  0  0  0  0  0  0  0
  142.7210  160.2510  133.2500 N   0  0  0  0  0  0  0  0  0  0  0  0
  144.3760  161.5640  134.2060 O   0  0  0  0  0  0  0  0  0  0  0  0
  146.4880  159.7680  133.3910 C   0  0  0  0  0  0  0  0  0  0  0  0
  147.1270  158.5680  133.1780 C   0  0  0  0  0  0  0  0  0  0  0  0
  148.4860  158.2770  133.0960 C   0  0  0  0  0  0  0  0  0  0  0  0
  148.8650  156.9330  132.9420 C   0  0  0  0  0  0  0  0  0  0  0  0
  147.8850  155.9150  132.8910 C   0  0  0  0  0  0  0  0  0  0  0  0
  148.2830  154.5390  132.7620 C   0  0  0  0  0  0  0  0  0  0  0  0
  148.6100  153.3830  132.6560 C   0  0  0  0  0  0  0  0  0  0  0  0
  149.0040  151.9670  132.5180 C   0  0  0  0  0  0  0  0  0  0  0  0
  147.7690  151.1210  132.1640 C   0  0  0  0  0  0  0  0  0  0  0  0
  149.6040  151.4850  133.8420 C   0  0  0  0  0  0  0  0  0  0  0  0
  149.9800  151.8390  131.5130 O   0  0  0  0  0  0  0  0  0  0  0  0
  146.5160  156.2410  132.9810 C   0  0  0  0  0  0  0  0  0  0  0  0
  146.1660  157.5900  133.1010 C   0  0  0  0  0  0  0  0  0  0  0  0
  139.8523  155.7080  133.7237 H   0  0  0  0  0  0  0  0  0  0  0  0
  138.7501  156.1897  132.3897 H   0  0  0  0  0  0  0  0  0  0  0  0
  140.4576  156.7476  132.3897 H   0  0  0  0  0  0  0  0  0  0  0  0
  140.6535  159.9343  135.6650 H   0  0  0  0  0  0  0  0  0  0  0  0
  140.1215  158.2648  136.0780 H   0  0  0  0  0  0  0  0  0  0  0  0
  144.3838  156.2758  134.9756 H   0  0  0  0  0  0  0  0  0  0  0  0
  142.9879  155.5585  134.0564 H   0  0  0  0  0  0  0  0  0  0  0  0
  142.4620  159.4520  132.6340 H   0  0  0  0  0  0  0  0  0  0  0  0
  141.9890  160.9610  133.4680 H   0  0  0  0  0  0  0  0  0  0  0  0
  146.9520  160.7583  133.5094 H   0  0  0  0  0  0  0  0  0  0  0  0
  149.2405  159.0756  133.1502 H   0  0  0  0  0  0  0  0  0  0  0  0
  149.9303  156.6711  132.8606 H   0  0  0  0  0  0  0  0  0  0  0  0
  147.2777  150.7845  133.0889 H   0  0  0  0  0  0  0  0  0  0  0  0
  147.0655  151.7278  131.5750 H   0  0  0  0  0  0  0  0  0  0  0  0
  148.0806  150.2458  131.5750 H   0  0  0  0  0  0  0  0  0  0  0  0
  149.0487  151.9311  134.6802 H   0  0  0  0  0  0  0  0  0  0  0  0
  149.5347  150.3886  133.8984 H   0  0  0  0  0  0  0  0  0  0  0  0
  150.6596  151.7890  133.8984 H   0  0  0  0  0  0  0  0  0  0  0  0
  150.8170  152.2680  131.8390 H   0  0  0  0  0  0  0  0  0  0  0  0
  145.7451  155.4566  132.9575 H   0  0  0  0  0  0  0  0  0  0  0  0
  1  2  1  0
  2  3  1  0
  3  4  2  0
  3  5  1  0
  5  6  1  0
  6  7  1  0
  7  8  2  0
  7  9  1  0
  9 10  1  0
 10 11  2  0
 10 12  1  0
 12 13  1  0
 13 14  1  0
 14 15  1  0
 14 16  2  0
 13 17  2  0
 17 18  1  0
 18 19  2  0
 19 20  1  0
 20 21  2  0
 21 22  1  0
 22 23  3  0
 23 24  1  0
 24 25  1  0
 24 26  1  0
 24 27  1  0
 21 28  1  0
 28 29  2  0
 29 12  1  0
 29 18  1  0
  1 30  1  0
  1 31  1  0
  1 32  1  0
  5 33  1  0
  5 34  1  0
  9 35  1  0
  9 36  1  0
 15 37  1  0
 15 38  1  0
 17 39  1  0
 19 40  1  0
 20 41  1  0
 25 42  1  0
 25 43  1  0
 25 44  1  0
 26 45  1  0
 26 46  1  0
 26 47  1  0
 27 48  1  0
 28 49  1  0
M  CHG  1   6  -1
M  END
>  <UniqueID>  (63) 
62

>  <SMILES>  (63) 
COC(=O)C[N-]C(=O)CC(=O)n1c(C(N)=O)cc2ccc(C#CC(C)(C)O)cc21

>  <Energy>  (63) 
77.01887906155525

>  <Genealogy>  (63) 
COC(=O)C[N-]C(=O)CC(=O)n1c(C(N)=O)cc2ccc(C#CC(C)(C)O)cc21 (protonated)
COC(=O)C[N-]C(=O)CC(=O)n1c(C(N)=O)cc2ccc(C#CC(C)(C)O)cc21 (3D coordinates assigned)
COC(=O)C[N-]C(=O)CC(=O)n1c(C(N)=O)cc2ccc(C#CC(C)(C)O)cc21 (optimized conformer: 77.01887906155525 kcal/mol)

>  <smiles>  (63) 
COC(=O)CNC(=O)CC(=O)n1c(C(N)=O)cc2ccc(C#CC(C)(C)O)cc21

>  <score_type>  (63) 
oracle

>  <origin>  (63) 
adg

>  <m_score__min__energy>  (63) 
-8.3300000000000001

>  <m_primary>  (63) 
energy

$$$$
63:0
     RDKit          3D

 42 43  0  0  0  0  0  0  0  0999 V2000
  140.9850  159.3340  136.6720 C   0  0  0  0  0  0  0  0  0  0  0  0
  141.3980  158.6240  135.3690 C   0  0  0  0  0  0  0  0  0  0  0  0
  141.1190  157.1210  135.5120 C   0  0  0  0  0  0  0  0  0  0  0  0
  140.5910  159.1680  134.1740 C   0  0  0  0  0  0  0  0  0  0  0  0
  142.8050  158.7730  135.1350 O   0  0  0  0  0  0  0  0  0  0  0  0
  143.4830  158.5040  133.9370 C   0  0  0  0  0  0  0  0  0  0  0  0
  142.9510  157.8090  133.0310 O   0  0  0  0  0  0  0  0  0  0  0  0
  144.8140  159.0090  133.7560 N   0  0  0  0  0  0  0  0  0  0  0  0
  145.2130  160.3060  133.6290 C   0  0  0  0  0  0  0  0  0  0  0  0
  144.3570  161.4990  133.8040 C   0  0  0  0  0  0  0  0  0  0  0  0
  142.9380  161.4040  133.7140 N   0  0  0  0  0  0  0  0  0  0  0  0
  144.8850  162.6080  134.0840 O   0  0  0  0  0  0  0  0  0  0  0  0
  146.5850  160.3750  133.3920 C   0  0  0  0  0  0  0  0  0  0  0  0
  147.0190  159.0690  133.3870 C   0  0  0  0  0  0  0  0  0  0  0  0
  148.2970  158.5510  133.1980 C   0  0  0  0  0  0  0  0  0  0  0  0
  148.4530  157.1550  133.2250 C   0  0  0  0  0  0  0  0  0  0  0  0
  147.3350  156.3080  133.4250 C   0  0  0  0  0  0  0  0  0  0  0  0
  147.5130  154.8120  133.4730 C   0  0  0  0  0  0  0  0  0  0  0  0
  146.5940  154.1630  134.5160 C   0  0  0  0  0  0  0  0  0  0  0  0
  147.2390  154.1200  135.8680 C   0  0  0  0  0  0  0  0  0  0  0  0
  148.0490  155.0200  136.2130 O   0  0  0  0  0  0  0  0  0  0  0  0
  146.9780  153.0620  136.7280 O   0  0  0  0  0  0  0  0  0  0  0  0
  146.0540  156.8700  133.6190 C   0  0  0  0  0  0  0  0  0  0  0  0
  145.9320  158.2650  133.6080 C   0  0  0  0  0  0  0  0  0  0  0  0
  141.3278  158.7447  137.5352 H   0  0  0  0  0  0  0  0  0  0  0  0
  141.4425  160.3338  136.7057 H   0  0  0  0  0  0  0  0  0  0  0  0
  139.8898  159.4306  136.7057 H   0  0  0  0  0  0  0  0  0  0  0  0
  141.0700  156.8570  136.5787 H   0  0  0  0  0  0  0  0  0  0  0  0
  140.1605  156.8785  135.0299 H   0  0  0  0  0  0  0  0  0  0  0  0
  141.9266  156.5507  135.0299 H   0  0  0  0  0  0  0  0  0  0  0  0
  139.7322  159.7469  134.5446 H   0  0  0  0  0  0  0  0  0  0  0  0
  141.2344  159.8174  133.5622 H   0  0  0  0  0  0  0  0  0  0  0  0
  140.2304  158.3279  133.5622 H   0  0  0  0  0  0  0  0  0  0  0  0
  142.4520  160.4920  133.8570 H   0  0  0  0  0  0  0  0  0  0  0  0
  147.1914  161.2803  133.2412 H   0  0  0  0  0  0  0  0  0  0  0  0
  149.1587  159.2144  133.0325 H   0  0  0  0  0  0  0  0  0  0  0  0
  149.4523  156.7156  133.0896 H   0  0  0  0  0  0  0  0  0  0  0  0
  147.2795  154.3935  132.4829 H   0  0  0  0  0  0  0  0  0  0  0  0
  148.5548  154.6001  133.7556 H   0  0  0  0  0  0  0  0  0  0  0  0
  145.6629  154.7448  134.5829 H   0  0  0  0  0  0  0  0  0  0  0  0
  146.3892  153.1297  134.1991 H   0  0  0  0  0  0  0  0  0  0  0  0
  145.1743  156.2282  133.7748 H   0  0  0  0  0  0  0  0  0  0  0  0
  1  2  1  0
  2  3  1  0
  2  4  1  0
  2  5  1  0
  5  6  1  0
  6  7  2  0
  6  8  1  0
  8  9  1  0
  9 10  1  0
 10 11  1  0
 10 12  2  0
  9 13  2  0
 13 14  1  0
 14 15  2  0
 15 16  1  0
 16 17  2  0
 17 18  1  0
 18 19  1  0
 19 20  1  0
 20 21  2  0
 20 22  1  0
 17 23  1  0
 23 24  2  0
 24  8  1  0
 24 14  1  0
  1 25  1  0
  1 26  1  0
  1 27  1  0
  3 28  1  0
  3 29  1  0
  3 30  1  0
  4 31  1  0
  4 32  1  0
  4 33  1  0
 11 34  1  0
 13 35  1  0
 15 36  1  0
 16 37  1  0
 18 38  1  0
 18 39  1  0
 19 40  1  0
 19 41  1  0
 23 42  1  0
M  CHG  2  11  -1  22  -1
M  END
>  <UniqueID>  (64) 
63

>  <SMILES>  (64) 
CC(C)(C)OC(=O)n1c(C([NH-])=O)cc2ccc(CCC(=O)[O-])cc21

>  <Energy>  (64) 
72.4115919000551

>  <Genealogy>  (64) 
CC(C)(C)OC(=O)n1c(C([NH-])=O)cc2ccc(CCC(=O)[O-])cc21 (protonated)
CC(C)(C)OC(=O)n1c(C([NH-])=O)cc2ccc(CCC(=O)[O-])cc21 (3D coordinates assigned)
CC(C)(C)OC(=O)n1c(C([NH-])=O)cc2ccc(CCC(=O)[O-])cc21 (optimized conformer: 72.4115919000551 kcal/mol)

>  <smiles>  (64) 
CC(C)(C)OC(=O)n1c(C(N)=O)cc2ccc(CCC(=O)O)cc21

>  <score_type>  (64) 
oracle

>  <origin>  (64) 
adg

>  <m_score__min__energy>  (64) 
-7.1100000000000003

>  <m_primary>  (64) 
energy

$$$$
64:0
     RDKit          3D

 32 33  0  0  0  0  0  0  0  0999 V2000
  144.7020  160.6790  133.6890 C   0  0  0  0  0  0  0  0  0  0  0  0
  145.4070  159.7530  133.5750 N   0  0  0  0  0  0  0  0  0  0  0  0
  146.2580  158.6570  133.4570 C   0  0  0  0  0  0  0  0  0  0  0  0
  147.6180  158.8370  133.6020 C   0  0  0  0  0  0  0  0  0  0  0  0
  148.4600  157.7510  133.4870 C   0  0  0  0  0  0  0  0  0  0  0  0
  147.9260  156.5020  133.2280 C   0  0  0  0  0  0  0  0  0  0  0  0
  148.5160  155.2760  133.0670 C   0  0  0  0  0  0  0  0  0  0  0  0
  147.5390  154.3010  132.8190 C   0  0  0  0  0  0  0  0  0  0  0  0
  147.8590  152.9200  132.6080 C   0  0  0  0  0  0  0  0  0  0  0  0
  146.7900  151.9840  132.3230 N   0  0  0  0  0  0  0  0  0  0  0  0
  148.9970  152.3990  132.6390 O   0  0  0  0  0  0  0  0  0  0  0  0
  146.3710  154.9550  132.8330 N   0  0  0  0  0  0  0  0  0  0  0  0
  145.0850  154.3920  132.6280 C   0  0  0  0  0  0  0  0  0  0  0  0
  144.6960  153.8630  131.5580 O   0  0  0  0  0  0  0  0  0  0  0  0
  144.1340  154.3940  133.6580 O   0  0  0  0  0  0  0  0  0  0  0  0
  143.6460  153.2050  134.2380 C   0  0  0  0  0  0  0  0  0  0  0  0
  143.1540  151.9810  133.0060 P   0  0  0  0  0  0  0  0  0  0  0  0
  142.3560  150.8910  133.7300 O   0  0  0  0  0  0  0  0  0  0  0  0
  144.4460  151.2060  132.2780 O   0  0  0  0  0  0  0  0  0  0  0  0
  142.0730  152.6720  131.9100 O   0  0  0  0  0  0  0  0  0  0  0  0
  146.5720  156.2790  133.0770 C   0  0  0  0  0  0  0  0  0  0  0  0
  145.7520  157.3820  133.1970 C   0  0  0  0  0  0  0  0  0  0  0  0
  148.0269  159.8373  133.8074 H   0  0  0  0  0  0  0  0  0  0  0  0
  149.5469  157.8771  133.6003 H   0  0  0  0  0  0  0  0  0  0  0  0
  149.5977  155.0845  133.1239 H   0  0  0  0  0  0  0  0  0  0  0  0
  146.6300  151.1400  132.8890 H   0  0  0  0  0  0  0  0  0  0  0  0
  146.2050  152.2570  131.4870 H   0  0  0  0  0  0  0  0  0  0  0  0
  144.4356  152.7714  134.8693 H   0  0  0  0  0  0  0  0  0  0  0  0
  142.7525  153.4637  134.8251 H   0  0  0  0  0  0  0  0  0  0  0  0
  144.7890  151.6690  131.4780 H   0  0  0  0  0  0  0  0  0  0  0  0
  142.6240  153.2400  131.2980 H   0  0  0  0  0  0  0  0  0  0  0  0
  144.6654  157.2528  133.0843 H   0  0  0  0  0  0  0  0  0  0  0  0
  1  2  3  0
  2  3  1  0
  3  4  2  0
  4  5  1  0
  5  6  2  0
  6  7  1  0
  7  8  2  0
  8  9  1  0
  9 10  1  0
  9 11  2  0
  8 12  1  0
 12 13  1  0
 13 14  2  0
 13 15  1  0
 15 16  1  0
 16 17  1  0
 17 18  2  0
 17 19  1  0
 17 20  1  0
 12 21  1  0
 21 22  2  0
 22  3  1  0
 21  6  1  0
  4 23  1  0
  5 24  1  0
  7 25  1  0
 10 26  1  0
 10 27  1  0
 16 28  1  0
 16 29  1  0
 19 30  1  0
 20 31  1  0
 22 32  1  0
M  CHG  2   1  -1   2   1
M  END
>  <smiles>  (65) 
[C-]#[N+]c1ccc2cc(C(N)=O)n(C(=O)OCP(=O)(O)O)c2c1

>  <score_type>  (65) 
oracle

>  <origin>  (65) 
adg

>  <m_score__min__energy>  (65) 
-6.4500000000000002

>  <m_primary>  (65) 
energy

$$$$
65:0
     RDKit          3D

 39 41  0  0  0  0  0  0  0  0999 V2000
  146.2370  152.1940  132.5800 N   0  0  0  0  0  0  0  0  0  0  0  0
  144.8310  151.9110  132.5710 C   0  0  0  0  0  0  0  0  0  0  0  0
  144.5350  150.7140  132.3590 O   0  0  0  0  0  0  0  0  0  0  0  0
  143.8890  152.9880  132.7970 C   0  0  0  0  0  0  0  0  0  0  0  0
  142.5150  152.7580  132.9040 C   0  0  0  0  0  0  0  0  0  0  0  0
  141.8750  153.9540  133.1150 C   0  0  0  0  0  0  0  0  0  0  0  0
  140.5380  154.2600  133.2850 C   0  0  0  0  0  0  0  0  0  0  0  0
  140.1650  155.5610  133.4810 C   0  0  0  0  0  0  0  0  0  0  0  0
  141.1240  156.5470  133.5080 C   0  0  0  0  0  0  0  0  0  0  0  0
  140.7170  157.9770  133.7230 C   0  0  0  0  0  0  0  0  0  0  0  0
  139.9240  158.4860  132.5740 C   0  0  0  0  0  0  0  0  0  0  0  0
  140.1700  159.5310  131.7630 N   0  0  0  0  0  0  0  0  0  0  0  0
  139.1730  159.6310  130.8410 C   0  0  0  0  0  0  0  0  0  0  0  0
  138.2930  158.5970  131.1170 C   0  0  0  0  0  0  0  0  0  0  0  0
  138.7660  157.9060  132.1780 N   0  0  0  0  0  0  0  0  0  0  0  0
  142.4610  156.2130  133.3330 C   0  0  0  0  0  0  0  0  0  0  0  0
  142.8750  154.9040  133.1320 C   0  0  0  0  0  0  0  0  0  0  0  0
  144.0860  154.3130  132.9400 N   0  0  0  0  0  0  0  0  0  0  0  0
  145.3070  155.0060  132.9030 C   0  0  0  0  0  0  0  0  0  0  0  0
  145.9630  155.2730  131.8630 O   0  0  0  0  0  0  0  0  0  0  0  0
  145.8840  155.4580  134.0900 O   0  0  0  0  0  0  0  0  0  0  0  0
  147.2840  155.3750  134.3120 C   0  0  0  0  0  0  0  0  0  0  0  0
  147.8970  154.2430  133.5590 C   0  0  0  0  0  0  0  0  0  0  0  0
  147.9840  153.1040  134.0540 O   0  0  0  0  0  0  0  0  0  0  0  0
  148.3990  154.4220  132.2620 O   0  0  0  0  0  0  0  0  0  0  0  0
  146.9450  151.4840  132.8760 H   0  0  0  0  0  0  0  0  0  0  0  0
  146.6170  153.1320  132.2900 H   0  0  0  0  0  0  0  0  0  0  0  0
  142.0247  151.7760  132.8309 H   0  0  0  0  0  0  0  0  0  0  0  0
  139.7798  153.4633  133.2628 H   0  0  0  0  0  0  0  0  0  0  0  0
  139.1040  155.8177  133.6163 H   0  0  0  0  0  0  0  0  0  0  0  0
  140.1087  158.0439  134.6371 H   0  0  0  0  0  0  0  0  0  0  0  0
  141.6264  158.5886  133.8182 H   0  0  0  0  0  0  0  0  0  0  0  0
  139.0843  160.3800  130.0403 H   0  0  0  0  0  0  0  0  0  0  0  0
  137.3668  158.3760  130.5663 H   0  0  0  0  0  0  0  0  0  0  0  0
  138.3050  157.0570  132.6190 H   0  0  0  0  0  0  0  0  0  0  0  0
  143.2162  157.0125  133.3545 H   0  0  0  0  0  0  0  0  0  0  0  0
  147.7528  156.3151  133.9858 H   0  0  0  0  0  0  0  0  0  0  0  0
  147.4508  155.2023  135.3855 H   0  0  0  0  0  0  0  0  0  0  0  0
  147.7800  154.5020  131.4610 H   0  0  0  0  0  0  0  0  0  0  0  0
  1  2  1  0
  2  3  2  0
  2  4  1  0
  4  5  2  0
  5  6  1  0
  6  7  2  0
  7  8  1  0
  8  9  2  0
  9 10  1  0
 10 11  1  0
 11 12  2  0
 12 13  1  0
 13 14  2  0
 14 15  1  0
  9 16  1  0
 16 17  2  0
 17 18  1  0
 18 19  1  0
 19 20  2  0
 19 21  1  0
 21 22  1  0
 22 23  1  0
 23 24  2  0
 23 25  1  0
 18  4  1  0
 17  6  1  0
 15 11  1  0
  1 26  1  0
  1 27  1  0
  5 28  1  0
  7 29  1  0
  8 30  1  0
 10 31  1  0
 10 32  1  0
 13 33  1  0
 14 34  1  0
 15 35  1  0
 16 36  1  0
 22 37  1  0
 22 38  1  0
 25 39  1  0
M  END
>  <smiles>  (66) 
NC(=O)c1cc2ccc(Cc3ncc[nH]3)cc2n1C(=O)OCC(=O)O

>  <score_type>  (66) 
oracle

>  <origin>  (66) 
adg

>  <m_score__min__energy>  (66) 
-7.7000000000000002

>  <m_primary>  (66) 
energy

$$$$
66:0
     RDKit          3D

 31 33  0  0  0  0  0  0  0  0999 V2000
  149.5970  161.2390  130.1320 C   0  0  0  0  0  0  0  0  0  0  0  0
  149.0570  160.2540  131.0610 N   0  0  0  0  0  0  0  0  0  0  0  0
  147.7700  160.1510  131.4370 C   0  0  0  0  0  0  0  0  0  0  0  0
  147.6490  159.0480  132.2630 C   0  0  0  0  0  0  0  0  0  0  0  0
  146.4190  158.5350  132.9190 C   0  0  0  0  0  0  0  0  0  0  0  0
  146.3360  157.1780  133.3320 C   0  0  0  0  0  0  0  0  0  0  0  0
  145.1750  156.6790  133.9430 C   0  0  0  0  0  0  0  0  0  0  0  0
  144.1120  157.5540  134.1390 C   0  0  0  0  0  0  0  0  0  0  0  0
  142.8680  157.3270  134.6800 C   0  0  0  0  0  0  0  0  0  0  0  0
  142.2090  158.5530  134.6170 C   0  0  0  0  0  0  0  0  0  0  0  0
  140.8610  158.7780  135.1790 C   0  0  0  0  0  0  0  0  0  0  0  0
  140.6840  159.0730  136.5620 N   0  0  0  0  0  0  0  0  0  0  0  0
  139.8490  158.6610  134.4380 O   0  0  0  0  0  0  0  0  0  0  0  0
  143.0100  159.4980  134.0500 N   0  0  0  0  0  0  0  0  0  0  0  0
  142.6680  160.8550  133.7220 C   0  0  0  0  0  0  0  0  0  0  0  0
  143.5560  161.7480  133.7020 O   0  0  0  0  0  0  0  0  0  0  0  0
  141.3590  161.1890  133.3950 O   0  0  0  0  0  0  0  0  0  0  0  0
  144.1730  158.8710  133.7650 C   0  0  0  0  0  0  0  0  0  0  0  0
  145.3110  159.3910  133.1360 C   0  0  0  0  0  0  0  0  0  0  0  0
  148.9310  158.5190  132.3290 C   0  0  0  0  0  0  0  0  0  0  0  0
  149.7660  159.2670  131.5830 N   0  0  0  0  0  0  0  0  0  0  0  0
  150.0506  162.0663  130.6975 H   0  0  0  0  0  0  0  0  0  0  0  0
  150.3615  160.7652  129.4987 H   0  0  0  0  0  0  0  0  0  0  0  0
  148.7864  161.6287  129.4987 H   0  0  0  0  0  0  0  0  0  0  0  0
  146.9547  160.8268  131.1393 H   0  0  0  0  0  0  0  0  0  0  0  0
  147.1940  156.5088  133.1706 H   0  0  0  0  0  0  0  0  0  0  0  0
  145.1080  155.6270  134.2574 H   0  0  0  0  0  0  0  0  0  0  0  0
  142.4766  156.3791  135.0778 H   0  0  0  0  0  0  0  0  0  0  0  0
  139.7720  159.4330  136.9220 H   0  0  0  0  0  0  0  0  0  0  0  0
  145.3440  160.4431  132.8167 H   0  0  0  0  0  0  0  0  0  0  0  0
  149.2202  157.6260  132.9026 H   0  0  0  0  0  0  0  0  0  0  0  0
  1  2  1  0
  2  3  1  0
  3  4  2  0
  4  5  1  0
  5  6  2  0
  6  7  1  0
  7  8  2  0
  8  9  1  0
  9 10  2  0
 10 11  1  0
 11 12  1  0
 11 13  2  0
 10 14  1  0
 14 15  1  0
 15 16  2  0
 15 17  1  0
 14 18  1  0
 18 19  2  0
  4 20  1  0
 20 21  2  0
 21  2  1  0
 19  5  1  0
 18  8  1  0
  1 22  1  0
  1 23  1  0
  1 24  1  0
  3 25  1  0
  6 26  1  0
  7 27  1  0
  9 28  1  0
 12 29  1  0
 19 30  1  0
 20 31  1  0
M  CHG  2  12  -1  17  -1
M  END
>  <UniqueID>  (67) 
64

>  <SMILES>  (67) 
Cn1cc(-c2ccc3cc(C([NH-])=O)n(C(=O)[O-])c3c2)cn1

>  <Energy>  (67) 
104.53678605838427

>  <Genealogy>  (67) 
Cn1cc(-c2ccc3cc(C([NH-])=O)n(C(=O)[O-])c3c2)cn1 (protonated)
Cn1cc(-c2ccc3cc(C([NH-])=O)n(C(=O)[O-])c3c2)cn1 (3D coordinates assigned)
Cn1cc(-c2ccc3cc(C([NH-])=O)n(C(=O)[O-])c3c2)cn1 (optimized conformer: 104.53678605838427 kcal/mol)

>  <smiles>  (67) 
Cn1cc(-c2ccc3cc(C(N)=O)n(C(=O)O)c3c2)cn1

>  <score_type>  (67) 
oracle

>  <origin>  (67) 
adg

>  <m_score__min__energy>  (67) 
-7.1200000000000001

>  <m_primary>  (67) 
energy

$$$$
67:0
     RDKit          3D

 51 52  0  0  0  0  0  0  0  0999 V2000
  148.7400  159.3560  133.6020 C   0  0  0  0  0  0  0  0  0  0  0  0
  148.4260  158.5060  132.3560 C   0  0  0  0  0  0  0  0  0  0  0  0
  149.1220  157.1440  132.4960 C   0  0  0  0  0  0  0  0  0  0  0  0
  148.9400  159.1990  131.0800 C   0  0  0  0  0  0  0  0  0  0  0  0
  147.0180  158.2530  132.2580 O   0  0  0  0  0  0  0  0  0  0  0  0
  146.0000  158.9380  132.9370 C   0  0  0  0  0  0  0  0  0  0  0  0
  145.6020  160.0730  132.5570 O   0  0  0  0  0  0  0  0  0  0  0  0
  145.3390  158.2730  134.1000 C   0  0  0  0  0  0  0  0  0  0  0  0
  145.7560  156.7950  134.1640 C   0  0  0  0  0  0  0  0  0  0  0  0
  145.8140  156.1710  132.8310 N   0  0  0  0  0  0  0  0  0  0  0  0
  145.2270  154.8510  132.8250 C   0  0  0  0  0  0  0  0  0  0  0  0
  146.0370  153.7050  132.6100 C   0  0  0  0  0  0  0  0  0  0  0  0
  145.4740  152.4180  132.6050 C   0  0  0  0  0  0  0  0  0  0  0  0
  144.1000  152.3040  132.7950 C   0  0  0  0  0  0  0  0  0  0  0  0
  143.2980  151.1870  132.8310 C   0  0  0  0  0  0  0  0  0  0  0  0
  142.0020  151.6670  133.0210 C   0  0  0  0  0  0  0  0  0  0  0  0
  140.8060  150.7990  133.0160 C   0  0  0  0  0  0  0  0  0  0  0  0
  139.8120  150.9220  132.0020 N   0  0  0  0  0  0  0  0  0  0  0  0
  140.6810  149.9040  133.8950 O   0  0  0  0  0  0  0  0  0  0  0  0
  142.0080  153.0270  133.1130 N   0  0  0  0  0  0  0  0  0  0  0  0
  140.8950  153.9130  133.3070 C   0  0  0  0  0  0  0  0  0  0  0  0
  139.7320  153.5480  132.9790 O   0  0  0  0  0  0  0  0  0  0  0  0
  141.1090  155.1680  133.8820 O   0  0  0  0  0  0  0  0  0  0  0  0
  141.0010  156.3840  133.1530 C   0  0  0  0  0  0  0  0  0  0  0  0
  142.2110  157.2190  133.4140 C   0  0  0  0  0  0  0  0  0  0  0  0
  142.3410  157.8250  134.5100 O   0  0  0  0  0  0  0  0  0  0  0  0
  143.1950  157.3360  132.4410 O   0  0  0  0  0  0  0  0  0  0  0  0
  143.2980  153.4000  132.9760 C   0  0  0  0  0  0  0  0  0  0  0  0
  143.8360  154.6900  133.0280 C   0  0  0  0  0  0  0  0  0  0  0  0
  148.5241  158.7715  134.5085 H   0  0  0  0  0  0  0  0  0  0  0  0
  149.8026  159.6405  133.5936 H   0  0  0  0  0  0  0  0  0  0  0  0
  148.1176  160.2629  133.5936 H   0  0  0  0  0  0  0  0  0  0  0  0
  149.2451  156.9030  133.5622 H   0  0  0  0  0  0  0  0  0  0  0  0
  148.5099  156.3681  132.0130 H   0  0  0  0  0  0  0  0  0  0  0  0
  150.1094  157.1855  132.0130 H   0  0  0  0  0  0  0  0  0  0  0  0
  149.5742  160.0540  131.3572 H   0  0  0  0  0  0  0  0  0  0  0  0
  149.5278  158.4839  130.4858 H   0  0  0  0  0  0  0  0  0  0  0  0
  148.0851  159.5540  130.4858 H   0  0  0  0  0  0  0  0  0  0  0  0
  145.6417  158.7779  135.0292 H   0  0  0  0  0  0  0  0  0  0  0  0
  144.2473  158.3364  133.9809 H   0  0  0  0  0  0  0  0  0  0  0  0
  146.7505  156.7281  134.6292 H   0  0  0  0  0  0  0  0  0  0  0  0
  144.9989  156.2576  134.7539 H   0  0  0  0  0  0  0  0  0  0  0  0
  145.3430  156.7960  132.1340 H   0  0  0  0  0  0  0  0  0  0  0  0
  146.8170  156.0870  132.5450 H   0  0  0  0  0  0  0  0  0  0  0  0
  147.1178  153.8263  132.4455 H   0  0  0  0  0  0  0  0  0  0  0  0
  146.1007  151.5265  132.4553 H   0  0  0  0  0  0  0  0  0  0  0  0
  143.6121  150.1375  132.7311 H   0  0  0  0  0  0  0  0  0  0  0  0
  139.5260  151.8600  131.6420 H   0  0  0  0  0  0  0  0  0  0  0  0
  140.9304  156.1638  132.0776 H   0  0  0  0  0  0  0  0  0  0  0  0
  140.0995  156.9281  133.4712 H   0  0  0  0  0  0  0  0  0  0  0  0
  143.1919  155.5602  133.2224 H   0  0  0  0  0  0  0  0  0  0  0  0
  1  2  1  0
  2  3  1  0
  2  4  1  0
  2  5  1  0
  5  6  1  0
  6  7  2  0
  6  8  1  0
  8  9  1  0
  9 10  1  0
 10 11  1  0
 11 12  2  0
 12 13  1  0
 13 14  2  0
 14 15  1  0
 15 16  2  0
 16 17  1  0
 17 18  1  0
 17 19  2  0
 16 20  1  0
 20 21  1  0
 21 22  2  0
 21 23  1  0
 23 24  1  0
 24 25  1  0
 25 26  2  0
 25 27  1  0
 20 28  1  0
 28 29  2  0
 29 11  1  0
 28 14  1  0
  1 30  1  0
  1 31  1  0
  1 32  1  0
  3 33  1  0
  3 34  1  0
  3 35  1  0
  4 36  1  0
  4 37  1  0
  4 38  1  0
  8 39  1  0
  8 40  1  0
  9 41  1  0
  9 42  1  0
 10 43  1  0
 10 44  1  0
 12 45  1  0
 13 46  1  0
 15 47  1  0
 18 48  1  0
 24 49  1  0
 24 50  1  0
 29 51  1  0
M  CHG  3  10   1  18  -1  27  -1
M  END
>  <UniqueID>  (68) 
65

>  <SMILES>  (68) 
CC(C)(C)OC(=O)CC[NH2+]c1ccc2cc(C([NH-])=O)n(C(=O)OCC(=O)[O-])c2c1

>  <Energy>  (68) 
79.41467257374683

>  <Genealogy>  (68) 
CC(C)(C)OC(=O)CC[NH2+]c1ccc2cc(C([NH-])=O)n(C(=O)OCC(=O)[O-])c2c1 (protonated)
CC(C)(C)OC(=O)CC[NH2+]c1ccc2cc(C([NH-])=O)n(C(=O)OCC(=O)[O-])c2c1 (3D coordinates assigned)
CC(C)(C)OC(=O)CC[NH2+]c1ccc2cc(C([NH-])=O)n(C(=O)OCC(=O)[O-])c2c1 (optimized conformer: 79.41467257374683 kcal/mol)

>  <smiles>  (68) 
CC(C)(C)OC(=O)CCNc1ccc2cc(C(N)=O)n(C(=O)OCC(=O)O)c2c1

>  <score_type>  (68) 
oracle

>  <origin>  (68) 
adg

>  <m_score__min__energy>  (68) 
-6.4800000000000004

>  <m_primary>  (68) 
energy

$$$$
68:0
     RDKit          3D

 41 42  0  0  0  0  0  0  0  0999 V2000
  139.7830  159.3090  130.6970 C   0  0  0  0  0  0  0  0  0  0  0  0
  140.3770  159.4730  132.0210 N   0  0  0  0  0  0  0  0  0  0  0  0
  139.6920  158.2820  133.1230 P   0  0  1  0  0  0  0  0  0  0  0  0
  138.1870  158.2510  132.9750 O   0  0  0  0  0  0  0  0  0  0  0  0
  140.3120  156.7500  132.7570 O   0  0  0  0  0  0  0  0  0  0  0  0
  140.1070  158.6670  134.7330 O   0  0  0  0  0  0  0  0  0  0  0  0
  140.6030  157.5050  135.3560 C   0  0  0  0  0  0  0  0  0  0  0  0
  142.1150  157.6370  135.5200 C   0  0  0  0  0  0  0  0  0  0  0  0
  142.7950  156.9600  134.4650 O   0  0  0  0  0  0  0  0  0  0  0  0
  143.2900  157.6090  133.3260 C   0  0  0  0  0  0  0  0  0  0  0  0
  142.6770  157.5280  132.2280 O   0  0  0  0  0  0  0  0  0  0  0  0
  144.4930  158.3870  133.4190 N   0  0  0  0  0  0  0  0  0  0  0  0
  144.6040  159.7430  133.4920 C   0  0  0  0  0  0  0  0  0  0  0  0
  143.4900  160.6980  133.6700 C   0  0  0  0  0  0  0  0  0  0  0  0
  142.1420  160.2440  133.7420 N   0  0  0  0  0  0  0  0  0  0  0  0
  143.7360  161.9250  133.8080 O   0  0  0  0  0  0  0  0  0  0  0  0
  145.9440  160.1270  133.4560 C   0  0  0  0  0  0  0  0  0  0  0  0
  146.6560  158.9530  133.3650 C   0  0  0  0  0  0  0  0  0  0  0  0
  148.0300  158.7430  133.2820 C   0  0  0  0  0  0  0  0  0  0  0  0
  148.4880  157.4210  133.1620 C   0  0  0  0  0  0  0  0  0  0  0  0
  147.5730  156.3400  133.1200 C   0  0  0  0  0  0  0  0  0  0  0  0
  148.0840  154.9360  132.9730 C   0  0  0  0  0  0  0  0  0  0  0  0
  149.4190  154.9620  132.6120 F   0  0  0  0  0  0  0  0  0  0  0  0
  147.9490  154.2610  134.1730 F   0  0  0  0  0  0  0  0  0  0  0  0
  146.1850  156.5910  133.2050 C   0  0  0  0  0  0  0  0  0  0  0  0
  145.7580  157.9170  133.3430 C   0  0  0  0  0  0  0  0  0  0  0  0
  138.7275  159.0176  130.8022 H   0  0  0  0  0  0  0  0  0  0  0  0
  139.8480  160.2587  130.1458 H   0  0  0  0  0  0  0  0  0  0  0  0
  140.3261  158.5272  130.1458 H   0  0  0  0  0  0  0  0  0  0  0  0
  141.3980  159.2610  131.9420 H   0  0  0  0  0  0  0  0  0  0  0  0
  141.2940  156.8490  132.8430 H   0  0  0  0  0  0  0  0  0  0  0  0
  140.1336  157.3870  136.3438 H   0  0  0  0  0  0  0  0  0  0  0  0
  140.3712  156.6243  134.7391 H   0  0  0  0  0  0  0  0  0  0  0  0
  142.3890  158.7022  135.5019 H   0  0  0  0  0  0  0  0  0  0  0  0
  142.4086  157.1850  136.4789 H   0  0  0  0  0  0  0  0  0  0  0  0
  141.8970  159.2500  133.5340 H   0  0  0  0  0  0  0  0  0  0  0  0
  146.3461  161.1502  133.4925 H   0  0  0  0  0  0  0  0  0  0  0  0
  148.7351  159.5869  133.3096 H   0  0  0  0  0  0  0  0  0  0  0  0
  149.5682  157.2226  133.1000 H   0  0  0  0  0  0  0  0  0  0  0  0
  147.5015  154.4211  132.1948 H   0  0  0  0  0  0  0  0  0  0  0  0
  145.4588  155.7658  133.1638 H   0  0  0  0  0  0  0  0  0  0  0  0
  1  2  1  0
  2  3  1  0
  3  4  2  0
  3  5  1  6
  3  6  1  0
  6  7  1  0
  7  8  1  0
  8  9  1  0
  9 10  1  0
 10 11  2  0
 10 12  1  0
 12 13  1  0
 13 14  1  0
 14 15  1  0
 14 16  2  0
 13 17  2  0
 17 18  1  0
 18 19  2  0
 19 20  1  0
 20 21  2  0
 21 22  1  0
 22 23  1  0
 22 24  1  0
 21 25  1  0
 25 26  2  0
 26 12  1  0
 26 18  1  0
  1 27  1  0
  1 28  1  0
  1 29  1  0
  2 30  1  0
  5 31  1  0
  7 32  1  0
  7 33  1  0
  8 34  1  0
  8 35  1  0
 15 36  1  0
 17 37  1  0
 19 38  1  0
 20 39  1  0
 22 40  1  0
 25 41  1  0
M  CHG  1  15  -1
M  END
>  <UniqueID>  (69) 
66

>  <SMILES>  (69) 
CN[P@@](=O)(O)OCCOC(=O)n1c(C([NH-])=O)cc2ccc(C(F)F)cc21

>  <Energy>  (69) 
70.38556467049004

>  <Genealogy>  (69) 
CNP(=O)(O)OCCOC(=O)n1c(C([NH-])=O)cc2ccc(C(F)F)cc21 (protonated)
CN[P@@](=O)(O)OCCOC(=O)n1c(C([NH-])=O)cc2ccc(C(F)F)cc21 (chirality)
CN[P@@](=O)(O)OCCOC(=O)n1c(C([NH-])=O)cc2ccc(C(F)F)cc21 (3D coordinates assigned)
CN[P@@](=O)(O)OCCOC(=O)n1c(C([NH-])=O)cc2ccc(C(F)F)cc21 (optimized conformer: 70.38556467049004 kcal/mol)

>  <smiles>  (69) 
CNP(=O)(O)OCCOC(=O)n1c(C(N)=O)cc2ccc(C(F)F)cc21

>  <score_type>  (69) 
oracle

>  <origin>  (69) 
adg

>  <m_score__min__energy>  (69) 
-6

>  <m_primary>  (69) 
energy

$$$$
69:0
     RDKit          3D

 31 33  0  0  0  0  0  0  0  0999 V2000
  141.7770  157.6480  132.9750 C   0  0  0  0  0  0  0  0  0  0  0  0
  143.1660  157.6270  132.6700 O   0  0  0  0  0  0  0  0  0  0  0  0
  144.1560  157.6790  133.6560 C   0  0  0  0  0  0  0  0  0  0  0  0
  144.0050  157.0540  134.7420 O   0  0  0  0  0  0  0  0  0  0  0  0
  145.3590  158.4280  133.4210 N   0  0  0  0  0  0  0  0  0  0  0  0
  145.5340  159.7780  133.4920 C   0  0  0  0  0  0  0  0  0  0  0  0
  144.4690  160.7830  133.6980 C   0  0  0  0  0  0  0  0  0  0  0  0
  143.1190  160.4610  133.3690 N   0  0  0  0  0  0  0  0  0  0  0  0
  144.7310  161.9100  134.1940 O   0  0  0  0  0  0  0  0  0  0  0  0
  146.8670  160.1110  133.2570 C   0  0  0  0  0  0  0  0  0  0  0  0
  147.5070  158.9130  133.0330 C   0  0  0  0  0  0  0  0  0  0  0  0
  148.8450  158.6530  132.7580 C   0  0  0  0  0  0  0  0  0  0  0  0
  149.2370  157.3140  132.5950 C   0  0  0  0  0  0  0  0  0  0  0  0
  148.2940  156.2590  132.7170 C   0  0  0  0  0  0  0  0  0  0  0  0
  148.7020  154.8410  132.5600 C   0  0  0  0  0  0  0  0  0  0  0  0
  149.9840  154.4230  132.6110 N   0  0  0  0  0  0  0  0  0  0  0  0
  149.9340  153.1360  132.4340 O   0  0  0  0  0  0  0  0  0  0  0  0
  148.6890  152.7520  132.2780 C   0  0  0  0  0  0  0  0  0  0  0  0
  147.8620  153.8070  132.3520 N   0  0  0  0  0  0  0  0  0  0  0  0
  146.9420  156.5690  132.9990 C   0  0  0  0  0  0  0  0  0  0  0  0
  146.5770  157.9140  133.1360 C   0  0  0  0  0  0  0  0  0  0  0  0
  141.6413  157.6500  134.0666 H   0  0  0  0  0  0  0  0  0  0  0  0
  141.3213  158.5531  132.5472 H   0  0  0  0  0  0  0  0  0  0  0  0
  141.2941  156.7570  132.5472 H   0  0  0  0  0  0  0  0  0  0  0  0
  142.8990  159.7890  132.6000 H   0  0  0  0  0  0  0  0  0  0  0  0
  147.3126  161.1167  133.2517 H   0  0  0  0  0  0  0  0  0  0  0  0
  149.5747  159.4715  132.6707 H   0  0  0  0  0  0  0  0  0  0  0  0
  150.2879  157.0795  132.3700 H   0  0  0  0  0  0  0  0  0  0  0  0
  148.3684  151.7132  132.1104 H   0  0  0  0  0  0  0  0  0  0  0  0
  146.8230  153.7980  132.2640 H   0  0  0  0  0  0  0  0  0  0  0  0
  146.1937  155.7702  133.1082 H   0  0  0  0  0  0  0  0  0  0  0  0
  1  2  1  0
  2  3  1  0
  3  4  2  0
  3  5  1  0
  5  6  1  0
  6  7  1  0
  7  8  1  0
  7  9  2  0
  6 10  2  0
 10 11  1  0
 11 12  2  0
 12 13  1  0
 13 14  2  0
 14 15  1  0
 15 16  2  0
 16 17  1  0
 17 18  1  0
 18 19  2  0
 14 20  1  0
 20 21  2  0
 21  5  1  0
 21 11  1  0
 19 15  1  0
  1 22  1  0
  1 23  1  0
  1 24  1  0
  8 25  1  0
 10 26  1  0
 12 27  1  0
 13 28  1  0
 18 29  1  0
 19 30  1  0
 20 31  1  0
M  CHG  2   8  -1  19   1
M  END
>  <UniqueID>  (70) 
67

>  <SMILES>  (70) 
COC(=O)n1c(C([NH-])=O)cc2ccc(-c3noc[nH+]3)cc21

>  <Energy>  (70) 
106.39903668126088

>  <Genealogy>  (70) 
COC(=O)n1c(C([NH-])=O)cc2ccc(-c3noc[nH+]3)cc21 (protonated)
COC(=O)n1c(C([NH-])=O)cc2ccc(-c3noc[nH+]3)cc21 (3D coordinates assigned)
COC(=O)n1c(C([NH-])=O)cc2ccc(-c3noc[nH+]3)cc21 (optimized conformer: 106.39903668126088 kcal/mol)

>  <smiles>  (70) 
COC(=O)n1c(C(N)=O)cc2ccc(-c3ncon3)cc21

>  <score_type>  (70) 
oracle

>  <origin>  (70) 
adg

>  <m_score__min__energy>  (70) 
-6.1299999999999999

>  <m_primary>  (70) 
energy

$$$$
70:0
     RDKit          3D

 40 42  0  0  0  0  0  0  0  0999 V2000
  148.8770  158.1320  131.8000 N   0  0  0  0  0  0  0  0  0  0  0  0
  148.3850  158.7860  132.9660 C   0  0  0  0  0  0  0  0  0  0  0  0
  149.2010  159.2060  133.8290 O   0  0  0  0  0  0  0  0  0  0  0  0
  146.9320  158.9290  133.2010 C   0  0  0  0  0  0  0  0  0  0  0  0
  146.2870  160.1620  133.2900 C   0  0  0  0  0  0  0  0  0  0  0  0
  144.9780  159.8660  133.5920 C   0  0  0  0  0  0  0  0  0  0  0  0
  143.8870  160.7130  133.7690 C   0  0  0  0  0  0  0  0  0  0  0  0
  142.6360  160.1290  134.0270 C   0  0  0  0  0  0  0  0  0  0  0  0
  142.4990  158.7210  134.1100 C   0  0  0  0  0  0  0  0  0  0  0  0
  141.1460  158.1050  134.3260 C   0  0  0  0  0  0  0  0  0  0  0  0
  140.2760  158.4200  133.1990 N   0  0  0  0  0  0  0  0  0  0  0  0
  139.8820  159.6430  132.8050 C   0  0  0  0  0  0  0  0  0  0  0  0
  139.0070  159.4370  131.7610 C   0  0  0  0  0  0  0  0  0  0  0  0
  138.3400  160.4900  130.9360 C   0  0  0  0  0  0  0  0  0  0  0  0
  137.2210  159.9530  130.2840 O   0  0  0  0  0  0  0  0  0  0  0  0
  138.8990  158.1110  131.5450 N   0  0  0  0  0  0  0  0  0  0  0  0
  139.6720  157.5160  132.4430 N   0  0  0  0  0  0  0  0  0  0  0  0
  143.6270  157.8940  133.9140 C   0  0  0  0  0  0  0  0  0  0  0  0
  144.8640  158.5020  133.6720 C   0  0  0  0  0  0  0  0  0  0  0  0
  146.0550  157.9120  133.4320 N   0  0  0  0  0  0  0  0  0  0  0  0
  146.2990  156.5020  133.3250 C   0  0  0  0  0  0  0  0  0  0  0  0
  146.8330  156.0320  132.2830 O   0  0  0  0  0  0  0  0  0  0  0  0
  145.9630  155.6560  134.3900 O   0  0  0  0  0  0  0  0  0  0  0  0
  146.9220  154.8900  135.1120 C   0  0  0  0  0  0  0  0  0  0  0  0
  146.2370  153.9310  136.0330 C   0  0  0  0  0  0  0  0  0  0  0  0
  144.9910  153.9930  136.1970 O   0  0  0  0  0  0  0  0  0  0  0  0
  146.9780  152.9870  136.7350 O   0  0  0  0  0  0  0  0  0  0  0  0
  148.4850  157.2130  131.4940 H   0  0  0  0  0  0  0  0  0  0  0  0
  146.7303  161.1588  133.1488 H   0  0  0  0  0  0  0  0  0  0  0  0
  144.0014  161.8054  133.7086 H   0  0  0  0  0  0  0  0  0  0  0  0
  141.7537  160.7710  134.1660 H   0  0  0  0  0  0  0  0  0  0  0  0
  141.2510  157.0135  134.4127 H   0  0  0  0  0  0  0  0  0  0  0  0
  140.7056  158.5087  135.2496 H   0  0  0  0  0  0  0  0  0  0  0  0
  140.1938  160.6091  133.2286 H   0  0  0  0  0  0  0  0  0  0  0  0
  138.0196  161.3153  131.5889 H   0  0  0  0  0  0  0  0  0  0  0  0
  139.0509  160.8628  130.1839 H   0  0  0  0  0  0  0  0  0  0  0  0
  137.2950  158.9650  130.3620 H   0  0  0  0  0  0  0  0  0  0  0  0
  143.5354  156.7984  133.9507 H   0  0  0  0  0  0  0  0  0  0  0  0
  147.5457  154.3275  134.4016 H   0  0  0  0  0  0  0  0  0  0  0  0
  147.5477  155.5712  135.7073 H   0  0  0  0  0  0  0  0  0  0  0  0
  1  2  1  0
  2  3  2  0
  2  4  1  0
  4  5  2  0
  5  6  1  0
  6  7  2  0
  7  8  1  0
  8  9  2  0
  9 10  1  0
 10 11  1  0
 11 12  1  0
 12 13  2  0
 13 14  1  0
 14 15  1  0
 13 16  1  0
 16 17  2  0
  9 18  1  0
 18 19  2  0
 19 20  1  0
 20 21  1  0
 21 22  2  0
 21 23  1  0
 23 24  1  0
 24 25  1  0
 25 26  2  0
 25 27  1  0
 20  4  1  0
 19  6  1  0
 17 11  1  0
  1 28  1  0
  5 29  1  0
  7 30  1  0
  8 31  1  0
 10 32  1  0
 10 33  1  0
 12 34  1  0
 14 35  1  0
 14 36  1  0
 15 37  1  0
 18 38  1  0
 24 39  1  0
 24 40  1  0
M  CHG  2   1  -1  27  -1
M  END
>  <UniqueID>  (71) 
68

>  <SMILES>  (71) 
[NH-]C(=O)c1cc2ccc(Cn3cc(CO)nn3)cc2n1C(=O)OCC(=O)[O-]

>  <Energy>  (71) 
110.9537411991129

>  <Genealogy>  (71) 
[NH-]C(=O)c1cc2ccc(Cn3cc(CO)nn3)cc2n1C(=O)OCC(=O)[O-] (protonated)
[NH-]C(=O)c1cc2ccc(Cn3cc(CO)nn3)cc2n1C(=O)OCC(=O)[O-] (3D coordinates assigned)
[NH-]C(=O)c1cc2ccc(Cn3cc(CO)nn3)cc2n1C(=O)OCC(=O)[O-] (optimized conformer: 110.9537411991129 kcal/mol)

>  <smiles>  (71) 
NC(=O)c1cc2ccc(Cn3cc(CO)nn3)cc2n1C(=O)OCC(=O)O

>  <score_type>  (71) 
oracle

>  <origin>  (71) 
adg

>  <m_score__min__energy>  (71) 
-7.6100000000000003

>  <m_primary>  (71) 
energy

$$$$
71:0
     RDKit          3D

 38 39  0  0  0  0  0  0  0  0999 V2000
  147.4420  157.7110  134.0400 C   0  0  0  0  0  0  0  0  0  0  0  0
  147.0380  159.0410  133.5670 N   0  0  0  0  0  0  0  0  0  0  0  0
  148.0630  159.9470  133.0340 C   0  0  0  0  0  0  0  0  0  0  0  0
  145.6470  159.4550  133.6250 C   0  0  0  0  0  0  0  0  0  0  0  0
  145.3020  160.8330  133.7360 C   0  0  0  0  0  0  0  0  0  0  0  0
  143.9590  161.2430  133.7840 C   0  0  0  0  0  0  0  0  0  0  0  0
  142.9750  160.2650  133.7300 C   0  0  0  0  0  0  0  0  0  0  0  0
  141.6030  160.3860  133.7300 C   0  0  0  0  0  0  0  0  0  0  0  0
  141.1170  159.0820  133.6390 C   0  0  0  0  0  0  0  0  0  0  0  0
  139.6800  158.7190  133.6530 C   0  0  0  0  0  0  0  0  0  0  0  0
  138.9810  158.5370  134.8850 N   0  0  0  0  0  0  0  0  0  0  0  0
  139.0610  158.5500  132.5680 O   0  0  0  0  0  0  0  0  0  0  0  0
  142.1500  158.1940  133.5970 N   0  0  0  0  0  0  0  0  0  0  0  0
  142.0680  156.7680  133.4450 C   0  0  0  0  0  0  0  0  0  0  0  0
  142.8310  156.1830  132.6300 O   0  0  0  0  0  0  0  0  0  0  0  0
  141.0950  155.9800  134.2160 C   0  0  0  0  0  0  0  0  0  0  0  0
  139.9570  155.7360  133.7310 O   0  0  0  0  0  0  0  0  0  0  0  0
  141.4470  155.4970  135.4790 O   0  0  0  0  0  0  0  0  0  0  0  0
  141.9860  156.3320  136.4970 C   0  0  0  0  0  0  0  0  0  0  0  0
  141.0120  157.4160  136.8130 C   0  0  0  0  0  0  0  0  0  0  0  0
  139.8240  157.1300  137.1170 O   0  0  0  0  0  0  0  0  0  0  0  0
  141.3980  158.7470  136.7190 O   0  0  0  0  0  0  0  0  0  0  0  0
  143.2790  158.9330  133.6450 C   0  0  0  0  0  0  0  0  0  0  0  0
  144.6050  158.4940  133.5700 C   0  0  0  0  0  0  0  0  0  0  0  0
  147.4458  157.6985  135.1399 H   0  0  0  0  0  0  0  0  0  0  0  0
  146.7321  156.9580  133.6672 H   0  0  0  0  0  0  0  0  0  0  0  0
  148.4508  157.4801  133.6672 H   0  0  0  0  0  0  0  0  0  0  0  0
  148.6011  160.4226  133.8672 H   0  0  0  0  0  0  0  0  0  0  0  0
  148.7728  159.3757  132.4177 H   0  0  0  0  0  0  0  0  0  0  0  0
  147.5831  160.7215  132.4177 H   0  0  0  0  0  0  0  0  0  0  0  0
  146.1002  161.5882  133.7849 H   0  0  0  0  0  0  0  0  0  0  0  0
  143.6948  162.3079  133.8621 H   0  0  0  0  0  0  0  0  0  0  0  0
  141.0154  161.3140  133.7892 H   0  0  0  0  0  0  0  0  0  0  0  0
  139.4330  158.7310  135.8050 H   0  0  0  0  0  0  0  0  0  0  0  0
  137.9780  158.2460  134.8780 H   0  0  0  0  0  0  0  0  0  0  0  0
  142.1759  155.7339  137.4004 H   0  0  0  0  0  0  0  0  0  0  0  0
  142.9302  156.7755  136.1480 H   0  0  0  0  0  0  0  0  0  0  0  0
  144.8356  157.4231  133.4702 H   0  0  0  0  0  0  0  0  0  0  0  0
  1  2  1  0
  2  3  1  0
  2  4  1  0
  4  5  2  0
  5  6  1  0
  6  7  2  0
  7  8  1  0
  8  9  2  0
  9 10  1  0
 10 11  1  0
 10 12  2  0
  9 13  1  0
 13 14  1  0
 14 15  2  0
 14 16  1  0
 16 17  2  0
 16 18  1  0
 18 19  1  0
 19 20  1  0
 20 21  2  0
 20 22  1  0
 13 23  1  0
 23 24  2  0
 24  4  1  0
 23  7  1  0
  1 25  1  0
  1 26  1  0
  1 27  1  0
  3 28  1  0
  3 29  1  0
  3 30  1  0
  5 31  1  0
  6 32  1  0
  8 33  1  0
 11 34  1  0
 11 35  1  0
 19 36  1  0
 19 37  1  0
 24 38  1  0
M  CHG  1  22  -1
M  END
>  <UniqueID>  (72) 
69

>  <SMILES>  (72) 
CN(C)c1ccc2cc(C(N)=O)n(C(=O)C(=O)OCC(=O)[O-])c2c1

>  <Energy>  (72) 
74.9090474609363

>  <Genealogy>  (72) 
CN(C)c1ccc2cc(C(N)=O)n(C(=O)C(=O)OCC(=O)[O-])c2c1 (protonated)
CN(C)c1ccc2cc(C(N)=O)n(C(=O)C(=O)OCC(=O)[O-])c2c1 (3D coordinates assigned)
CN(C)c1ccc2cc(C(N)=O)n(C(=O)C(=O)OCC(=O)[O-])c2c1 (optimized conformer: 74.9090474609363 kcal/mol)

>  <smiles>  (72) 
CN(C)c1ccc2cc(C(N)=O)n(C(=O)C(=O)OCC(=O)O)c2c1

>  <score_type>  (72) 
oracle

>  <origin>  (72) 
adg

>  <m_score__min__energy>  (72) 
-6.1699999999999999

>  <m_primary>  (72) 
energy

$$$$
72:0
     RDKit          3D

 46 48  0  0  0  0  0  0  0  0999 V2000
  149.2220  153.7490  132.2550 C   0  0  0  0  0  0  0  0  0  0  0  0
  148.5870  154.5980  133.1850 O   0  0  0  0  0  0  0  0  0  0  0  0
  147.9690  153.8170  134.1860 C   0  0  0  0  0  0  0  0  0  0  0  0
  146.6000  154.4120  134.5350 C   0  0  1  0  0  0  0  0  0  0  0  0
  146.2370  154.1290  135.9980 C   0  0  0  0  0  0  0  0  0  0  0  0
  146.6450  155.8210  134.3100 O   0  0  0  0  0  0  0  0  0  0  0  0
  145.7580  156.5010  133.4690 C   0  0  0  0  0  0  0  0  0  0  0  0
  145.0570  155.8660  132.6340 O   0  0  0  0  0  0  0  0  0  0  0  0
  145.6360  157.9290  133.5700 N   0  0  0  0  0  0  0  0  0  0  0  0
  146.6340  158.8570  133.5390 C   0  0  0  0  0  0  0  0  0  0  0  0
  148.0840  158.5610  133.5410 C   0  0  0  0  0  0  0  0  0  0  0  0
  148.5760  157.3160  133.0400 N   0  0  0  0  0  0  0  0  0  0  0  0
  148.9050  159.4210  133.9570 O   0  0  0  0  0  0  0  0  0  0  0  0
  146.1040  160.1450  133.5970 C   0  0  0  0  0  0  0  0  0  0  0  0
  144.7400  159.9750  133.6690 C   0  0  0  0  0  0  0  0  0  0  0  0
  143.7230  160.9220  133.7260 C   0  0  0  0  0  0  0  0  0  0  0  0
  142.3960  160.4630  133.7590 C   0  0  0  0  0  0  0  0  0  0  0  0
  142.1090  159.0740  133.7370 C   0  0  0  0  0  0  0  0  0  0  0  0
  140.7120  158.5880  133.7410 C   0  0  0  0  0  0  0  0  0  0  0  0
  139.9710  158.2810  132.6170 C   0  0  0  0  0  0  0  0  0  0  0  0
  138.7480  157.8670  133.1060 C   0  0  0  0  0  0  0  0  0  0  0  0
  138.7600  157.9090  134.4520 N   0  0  0  0  0  0  0  0  0  0  0  0
  139.9530  158.3370  134.8340 N   0  0  0  0  0  0  0  0  0  0  0  0
  140.3340  158.4680  136.2360 C   0  0  0  0  0  0  0  0  0  0  0  0
  143.1700  158.1450  133.6600 C   0  0  0  0  0  0  0  0  0  0  0  0
  144.4830  158.6300  133.6490 C   0  0  0  0  0  0  0  0  0  0  0  0
  149.7967  152.9806  132.7929 H   0  0  0  0  0  0  0  0  0  0  0  0
  148.4631  153.2642  131.6234 H   0  0  0  0  0  0  0  0  0  0  0  0
  149.9015  154.3400  131.6234 H   0  0  0  0  0  0  0  0  0  0  0  0
  147.8376  152.7887  133.8182 H   0  0  0  0  0  0  0  0  0  0  0  0
  148.6027  153.8099  135.0851 H   0  0  0  0  0  0  0  0  0  0  0  0
  145.8310  153.9488  133.8993 H   0  0  0  0  0  0  0  0  0  0  0  0
  146.9304  154.6696  136.6590 H   0  0  0  0  0  0  0  0  0  0  0  0
  145.2079  154.4655  136.1921 H   0  0  0  0  0  0  0  0  0  0  0  0
  146.3123  153.0489  136.1921 H   0  0  0  0  0  0  0  0  0  0  0  0
  149.6040  157.1340  133.0080 H   0  0  0  0  0  0  0  0  0  0  0  0
  147.9270  156.5570  132.7390 H   0  0  0  0  0  0  0  0  0  0  0  0
  146.6581  161.0952  133.5873 H   0  0  0  0  0  0  0  0  0  0  0  0
  143.9510  161.9979  133.7447 H   0  0  0  0  0  0  0  0  0  0  0  0
  141.5703  161.1885  133.8024 H   0  0  0  0  0  0  0  0  0  0  0  0
  140.2854  158.3508  131.5652 H   0  0  0  0  0  0  0  0  0  0  0  0
  137.8935  157.5508  132.4897 H   0  0  0  0  0  0  0  0  0  0  0  0
  139.4872  158.1768  136.8748 H   0  0  0  0  0  0  0  0  0  0  0  0
  141.1931  157.8136  136.4452 H   0  0  0  0  0  0  0  0  0  0  0  0
  140.6090  159.5123  136.4452 H   0  0  0  0  0  0  0  0  0  0  0  0
  142.9691  157.0647  133.6098 H   0  0  0  0  0  0  0  0  0  0  0  0
  1  2  1  0
  2  3  1  0
  3  4  1  0
  4  5  1  0
  4  6  1  0
  6  7  1  0
  7  8  2  0
  7  9  1  0
  9 10  1  0
 10 11  1  0
 11 12  1  0
 11 13  2  0
 10 14  2  0
 14 15  1  0
 15 16  2  0
 16 17  1  0
 17 18  2  0
 18 19  1  0
 19 20  2  0
 20 21  1  0
 21 22  2  0
 22 23  1  0
 23 24  1  0
 18 25  1  0
 25 26  2  0
 26  9  1  0
 26 15  1  0
 23 19  1  0
  1 27  1  0
  1 28  1  0
  1 29  1  0
  3 30  1  0
  3 31  1  0
  4 32  1  6
  5 33  1  0
  5 34  1  0
  5 35  1  0
 12 36  1  0
 12 37  1  0
 14 38  1  0
 16 39  1  0
 17 40  1  0
 20 41  1  0
 21 42  1  0
 24 43  1  0
 24 44  1  0
 24 45  1  0
 25 46  1  0
M  END
>  <UniqueID>  (73) 
70

>  <SMILES>  (73) 
COC[C@@H](C)OC(=O)n1c(C(N)=O)cc2ccc(-c3ccnn3C)cc21

>  <Energy>  (73) 
115.48345903208002

>  <Genealogy>  (73) 
COC[C@@H](C)OC(=O)n1c(C(N)=O)cc2ccc(-c3ccnn3C)cc21 (chirality)
COC[C@@H](C)OC(=O)n1c(C(N)=O)cc2ccc(-c3ccnn3C)cc21 (3D coordinates assigned)
COC[C@@H](C)OC(=O)n1c(C(N)=O)cc2ccc(-c3ccnn3C)cc21 (optimized conformer: 115.48345903208002 kcal/mol)

>  <smiles>  (73) 
COCC(C)OC(=O)n1c(C(N)=O)cc2ccc(-c3ccnn3C)cc21

>  <score_type>  (73) 
oracle

>  <origin>  (73) 
adg

>  <m_score__min__energy>  (73) 
-7.6200000000000001

>  <m_primary>  (73) 
energy

$$$$
73:0
     RDKit          3D

 45 47  0  0  0  0  0  0  0  0999 V2000
  139.5580  157.8690  136.4530 C   0  0  0  0  0  0  0  0  0  0  0  0
  141.0890  158.7780  136.4470 S   0  0  0  0  0  0  0  0  0  0  0  0
  142.2350  157.8750  136.0880 O   0  0  0  0  0  0  0  0  0  0  0  0
  141.3160  159.3250  137.8280 O   0  0  0  0  0  0  0  0  0  0  0  0
  141.0050  160.1070  135.3340 N   0  0  0  0  0  0  0  0  0  0  0  0
  141.5840  160.1400  134.0240 C   0  0  0  0  0  0  0  0  0  0  0  0
  142.3160  161.1150  133.7140 O   0  0  0  0  0  0  0  0  0  0  0  0
  141.3640  159.0730  133.0270 C   0  0  0  0  0  0  0  0  0  0  0  0
  140.6930  159.3070  131.9870 O   0  0  0  0  0  0  0  0  0  0  0  0
  141.8870  157.7530  133.2500 N   0  0  0  0  0  0  0  0  0  0  0  0
  141.1950  156.5810  133.3160 C   0  0  0  0  0  0  0  0  0  0  0  0
  139.7240  156.4460  133.3090 C   0  0  0  0  0  0  0  0  0  0  0  0
  139.1280  155.1930  132.9830 N   0  0  0  0  0  0  0  0  0  0  0  0
  138.9850  157.4180  133.6150 O   0  0  0  0  0  0  0  0  0  0  0  0
  142.0710  155.5050  133.4520 C   0  0  0  0  0  0  0  0  0  0  0  0
  143.3310  156.0600  133.4630 C   0  0  0  0  0  0  0  0  0  0  0  0
  144.5790  155.4480  133.5490 C   0  0  0  0  0  0  0  0  0  0  0  0
  145.7180  156.2680  133.4970 C   0  0  0  0  0  0  0  0  0  0  0  0
  145.5940  157.6750  133.3630 C   0  0  0  0  0  0  0  0  0  0  0  0
  146.7680  158.5050  133.2920 N   0  0  0  0  0  0  0  0  0  0  0  0
  146.6720  159.9070  132.8640 C   0  0  0  0  0  0  0  0  0  0  0  0
  147.5880  160.1710  131.6580 C   0  0  0  0  0  0  0  0  0  0  0  0
  148.8960  159.3500  131.6910 C   0  0  0  0  0  0  0  0  0  0  0  0
  149.2260  158.8260  133.0930 C   0  0  0  0  0  0  0  0  0  0  0  0
  148.0860  157.9350  133.6100 C   0  0  0  0  0  0  0  0  0  0  0  0
  144.3100  158.2550  133.2690 C   0  0  0  0  0  0  0  0  0  0  0  0
  143.1930  157.4170  133.3400 C   0  0  0  0  0  0  0  0  0  0  0  0
  139.2457  157.6836  137.4913 H   0  0  0  0  0  0  0  0  0  0  0  0
  138.7827  158.4532  135.9357 H   0  0  0  0  0  0  0  0  0  0  0  0
  139.6997  156.9086  135.9357 H   0  0  0  0  0  0  0  0  0  0  0  0
  138.1640  155.1440  132.5840 H   0  0  0  0  0  0  0  0  0  0  0  0
  141.8109  154.4393  133.5332 H   0  0  0  0  0  0  0  0  0  0  0  0
  144.6698  154.3568  133.6543 H   0  0  0  0  0  0  0  0  0  0  0  0
  146.7179  155.8141  133.5609 H   0  0  0  0  0  0  0  0  0  0  0  0
  145.6319  160.1282  132.5826 H   0  0  0  0  0  0  0  0  0  0  0  0
  146.9880  160.5532  133.6962 H   0  0  0  0  0  0  0  0  0  0  0  0
  147.0386  159.9152  130.7400 H   0  0  0  0  0  0  0  0  0  0  0  0
  147.8702  161.2337  131.6906 H   0  0  0  0  0  0  0  0  0  0  0  0
  148.7914  158.4927  131.0097 H   0  0  0  0  0  0  0  0  0  0  0  0
  149.7156  160.0153  131.3818 H   0  0  0  0  0  0  0  0  0  0  0  0
  150.1554  158.2391  133.0518 H   0  0  0  0  0  0  0  0  0  0  0  0
  149.3504  159.6803  133.7747 H   0  0  0  0  0  0  0  0  0  0  0  0
  148.1682  156.9427  133.1425 H   0  0  0  0  0  0  0  0  0  0  0  0
  148.1749  157.8619  134.7040 H   0  0  0  0  0  0  0  0  0  0  0  0
  144.1912  159.3413  133.1428 H   0  0  0  0  0  0  0  0  0  0  0  0
  1  2  1  0
  2  3  2  0
  2  4  2  0
  2  5  1  0
  5  6  1  0
  6  7  2  0
  6  8  1  0
  8  9  2  0
  8 10  1  0
 10 11  1  0
 11 12  1  0
 12 13  1  0
 12 14  2  0
 11 15  2  0
 15 16  1  0
 16 17  2  0
 17 18  1  0
 18 19  2  0
 19 20  1  0
 20 21  1  0
 21 22  1  0
 22 23  1  0
 23 24  1  0
 24 25  1  0
 19 26  1  0
 26 27  2  0
 27 10  1  0
 27 16  1  0
 25 20  1  0
  1 28  1  0
  1 29  1  0
  1 30  1  0
 13 31  1  0
 15 32  1  0
 17 33  1  0
 18 34  1  0
 21 35  1  0
 21 36  1  0
 22 37  1  0
 22 38  1  0
 23 39  1  0
 23 40  1  0
 24 41  1  0
 24 42  1  0
 25 43  1  0
 25 44  1  0
 26 45  1  0
M  CHG  2   5  -1  13  -1
M  END
>  <UniqueID>  (74) 
71

>  <SMILES>  (74) 
CS(=O)(=O)[N-]C(=O)C(=O)n1c(C([NH-])=O)cc2ccc(N3CCCCC3)cc21

>  <Energy>  (74) 
89.60205483632365

>  <Genealogy>  (74) 
CS(=O)(=O)[N-]C(=O)C(=O)n1c(C([NH-])=O)cc2ccc(N3CCCCC3)cc21 (protonated)
CS(=O)(=O)[N-]C(=O)C(=O)n1c(C([NH-])=O)cc2ccc(N3CCCCC3)cc21 (3D coordinates assigned)
CS(=O)(=O)[N-]C(=O)C(=O)n1c(C([NH-])=O)cc2ccc(N3CCCCC3)cc21 (nonaromatic ring conformer: 89.60205483632365 kcal/mol)

>  <smiles>  (74) 
CS(=O)(=O)NC(=O)C(=O)n1c(C(N)=O)cc2ccc(N3CCCCC3)cc21

>  <score_type>  (74) 
oracle

>  <origin>  (74) 
adg

>  <m_score__min__energy>  (74) 
-8.5299999999999994

>  <m_primary>  (74) 
energy

$$$$
74:0
     RDKit          3D

 39 40  0  0  0  0  0  0  0  0999 V2000
  140.0060  158.4980  134.2880 C   0  0  0  0  0  0  0  0  0  0  0  0
  141.4200  158.9210  134.0190 C   0  0  0  0  0  0  0  0  0  0  0  0
  141.7580  160.2960  134.0030 C   0  0  0  0  0  0  0  0  0  0  0  0
  143.0740  160.7060  133.7300 C   0  0  0  0  0  0  0  0  0  0  0  0
  144.0200  159.7210  133.4540 C   0  0  0  0  0  0  0  0  0  0  0  0
  145.3640  159.8360  133.1820 C   0  0  0  0  0  0  0  0  0  0  0  0
  145.8170  158.5290  132.9970 C   0  0  0  0  0  0  0  0  0  0  0  0
  147.2030  158.1740  132.6150 C   0  0  0  0  0  0  0  0  0  0  0  0
  147.4750  156.9900  131.8630 N   0  0  0  0  0  0  0  0  0  0  0  0
  148.1640  158.9080  132.9690 O   0  0  0  0  0  0  0  0  0  0  0  0
  144.7900  157.6460  133.1450 N   0  0  0  0  0  0  0  0  0  0  0  0
  144.8530  156.2120  133.0830 C   0  0  0  0  0  0  0  0  0  0  0  0
  145.9260  155.6240  133.3900 O   0  0  0  0  0  0  0  0  0  0  0  0
  143.7030  155.4610  132.6650 N   0  0  0  0  0  0  0  0  0  0  0  0
  143.6110  154.0310  132.7190 C   0  0  0  0  0  0  0  0  0  0  0  0
  144.5610  153.3420  133.1840 O   0  0  0  0  0  0  0  0  0  0  0  0
  142.4480  153.4080  132.2530 O   0  0  0  0  0  0  0  0  0  0  0  0
  141.2990  153.1780  133.0700 C   0  0  2  0  0  0  0  0  0  0  0  0
  140.6060  151.8950  132.6070 C   0  0  0  0  0  0  0  0  0  0  0  0
  141.4970  151.1080  131.8630 O   0  0  0  0  0  0  0  0  0  0  0  0
  140.3570  154.3450  132.9830 C   0  0  0  0  0  0  0  0  0  0  0  0
  139.1130  154.1570  132.9380 O   0  0  0  0  0  0  0  0  0  0  0  0
  140.8560  155.6420  132.9870 O   0  0  0  0  0  0  0  0  0  0  0  0
  143.6980  158.3890  133.4300 C   0  0  0  0  0  0  0  0  0  0  0  0
  142.4020  157.9510  133.7200 C   0  0  0  0  0  0  0  0  0  0  0  0
  139.8386  158.4479  135.3740 H   0  0  0  0  0  0  0  0  0  0  0  0
  139.3139  159.2284  133.8436 H   0  0  0  0  0  0  0  0  0  0  0  0
  139.8287  157.5075  133.8436 H   0  0  0  0  0  0  0  0  0  0  0  0
  140.9833  161.0501  134.2062 H   0  0  0  0  0  0  0  0  0  0  0  0
  143.3487  161.7711  133.7340 H   0  0  0  0  0  0  0  0  0  0  0  0
  145.9556  160.7615  133.1230 H   0  0  0  0  0  0  0  0  0  0  0  0
  146.7060  156.3890  131.4950 H   0  0  0  0  0  0  0  0  0  0  0  0
  148.4610  156.7310  131.6330 H   0  0  0  0  0  0  0  0  0  0  0  0
  142.8800  155.9850  132.2910 H   0  0  0  0  0  0  0  0  0  0  0  0
  141.6092  153.0663  134.1194 H   0  0  0  0  0  0  0  0  0  0  0  0
  140.2659  151.3276  133.4859 H   0  0  0  0  0  0  0  0  0  0  0  0
  139.7447  152.1586  131.9756 H   0  0  0  0  0  0  0  0  0  0  0  0
  142.1730  151.7330  131.4940 H   0  0  0  0  0  0  0  0  0  0  0  0
  142.1540  156.8793  133.7154 H   0  0  0  0  0  0  0  0  0  0  0  0
  1  2  1  0
  2  3  2  0
  3  4  1  0
  4  5  2  0
  5  6  1  0
  6  7  2  0
  7  8  1  0
  8  9  1  0
  8 10  2  0
  7 11  1  0
 11 12  1  0
 12 13  2  0
 12 14  1  0
 14 15  1  0
 15 16  2  0
 15 17  1  0
 17 18  1  0
 18 19  1  0
 19 20  1  0
 18 21  1  0
 21 22  2  0
 21 23  1  0
 11 24  1  0
 24 25  2  0
 25  2  1  0
 24  5  1  0
  1 26  1  0
  1 27  1  0
  1 28  1  0
  3 29  1  0
  4 30  1  0
  6 31  1  0
  9 32  1  0
  9 33  1  0
 14 34  1  0
 18 35  1  1
 19 36  1  0
 19 37  1  0
 20 38  1  0
 25 39  1  0
M  CHG  1  23  -1
M  END
>  <UniqueID>  (75) 
72

>  <SMILES>  (75) 
Cc1ccc2cc(C(N)=O)n(C(=O)NC(=O)O[C@H](CO)C(=O)[O-])c2c1

>  <Energy>  (75) 
73.08749486106032

>  <Genealogy>  (75) 
Cc1ccc2cc(C(N)=O)n(C(=O)NC(=O)OC(CO)C(=O)[O-])c2c1 (protonated)
Cc1ccc2cc(C(N)=O)n(C(=O)NC(=O)O[C@H](CO)C(=O)[O-])c2c1 (chirality)
Cc1ccc2cc(C(N)=O)n(C(=O)NC(=O)O[C@H](CO)C(=O)[O-])c2c1 (3D coordinates assigned)
Cc1ccc2cc(C(N)=O)n(C(=O)NC(=O)O[C@H](CO)C(=O)[O-])c2c1 (optimized conformer: 73.08749486106032 kcal/mol)

>  <smiles>  (75) 
Cc1ccc2cc(C(N)=O)n(C(=O)NC(=O)OC(CO)C(=O)O)c2c1

>  <score_type>  (75) 
oracle

>  <origin>  (75) 
adg

>  <m_score__min__energy>  (75) 
-6.79

>  <m_primary>  (75) 
energy

$$$$
75:0
     RDKit          3D

 32 33  0  0  0  0  0  0  0  0999 V2000
  144.1340  161.5570  133.7280 C   0  0  0  0  0  0  0  0  0  0  0  0
  143.7710  160.1070  133.6090 C   0  0  0  0  0  0  0  0  0  0  0  0
  144.7830  159.1160  133.6600 C   0  0  0  0  0  0  0  0  0  0  0  0
  144.4510  157.7510  133.5970 C   0  0  0  0  0  0  0  0  0  0  0  0
  143.1060  157.4120  133.4890 C   0  0  0  0  0  0  0  0  0  0  0  0
  142.5050  156.1740  133.4390 C   0  0  0  0  0  0  0  0  0  0  0  0
  141.1360  156.4300  133.3560 C   0  0  0  0  0  0  0  0  0  0  0  0
  140.0980  155.3830  133.2140 C   0  0  0  0  0  0  0  0  0  0  0  0
  138.7330  155.7300  132.9810 N   0  0  0  0  0  0  0  0  0  0  0  0
  140.4110  154.1670  133.3190 O   0  0  0  0  0  0  0  0  0  0  0  0
  140.9040  157.7720  133.3490 N   0  0  0  0  0  0  0  0  0  0  0  0
  139.6320  158.4420  133.3410 C   0  0  0  0  0  0  0  0  0  0  0  0
  138.8510  158.2950  134.3200 O   0  0  0  0  0  0  0  0  0  0  0  0
  139.2530  159.3000  132.2460 N   0  0  0  0  0  0  0  0  0  0  0  0
  139.6700  160.7040  132.2580 C   0  0  0  0  0  0  0  0  0  0  0  0
  138.3290  158.8490  131.2360 C   0  0  0  0  0  0  0  0  0  0  0  0
  138.3550  157.6590  130.8230 O   0  0  0  0  0  0  0  0  0  0  0  0
  137.3750  159.7180  130.7180 O   0  0  0  0  0  0  0  0  0  0  0  0
  142.1170  158.3590  133.4370 C   0  0  0  0  0  0  0  0  0  0  0  0
  142.4160  159.7240  133.5170 C   0  0  0  0  0  0  0  0  0  0  0  0
  144.2028  161.8317  134.7909 H   0  0  0  0  0  0  0  0  0  0  0  0
  145.1040  161.7334  133.2402 H   0  0  0  0  0  0  0  0  0  0  0  0
  143.3615  162.1696  133.2402 H   0  0  0  0  0  0  0  0  0  0  0  0
  145.8372  159.4172  133.7496 H   0  0  0  0  0  0  0  0  0  0  0  0
  145.2304  156.9755  133.6320 H   0  0  0  0  0  0  0  0  0  0  0  0
  142.9994  155.1916  133.4600 H   0  0  0  0  0  0  0  0  0  0  0  0
  138.4400  156.7190  132.8250 H   0  0  0  0  0  0  0  0  0  0  0  0
  138.0060  154.9830  132.9220 H   0  0  0  0  0  0  0  0  0  0  0  0
  139.7720  161.0473  133.2981 H   0  0  0  0  0  0  0  0  0  0  0  0
  140.6366  160.8038  131.7425 H   0  0  0  0  0  0  0  0  0  0  0  0
  138.9146  161.3153  131.7425 H   0  0  0  0  0  0  0  0  0  0  0  0
  141.6156  160.4785  133.5084 H   0  0  0  0  0  0  0  0  0  0  0  0
  1  2  1  0
  2  3  2  0
  3  4  1  0
  4  5  2  0
  5  6  1  0
  6  7  2  0
  7  8  1  0
  8  9  1  0
  8 10  2  0
  7 11  1  0
 11 12  1  0
 12 13  2  0
 12 14  1  0
 14 15  1  0
 14 16  1  0
 16 17  2  0
 16 18  1  0
 11 19  1  0
 19 20  2  0
 20  2  1  0
 19  5  1  0
  1 21  1  0
  1 22  1  0
  1 23  1  0
  3 24  1  0
  4 25  1  0
  6 26  1  0
  9 27  1  0
  9 28  1  0
 15 29  1  0
 15 30  1  0
 15 31  1  0
 20 32  1  0
M  CHG  1  18  -1
M  END
>  <UniqueID>  (76) 
73

>  <SMILES>  (76) 
Cc1ccc2cc(C(N)=O)n(C(=O)N(C)C(=O)[O-])c2c1

>  <Energy>  (76) 
72.00822037549688

>  <Genealogy>  (76) 
Cc1ccc2cc(C(N)=O)n(C(=O)N(C)C(=O)[O-])c2c1 (protonated)
Cc1ccc2cc(C(N)=O)n(C(=O)N(C)C(=O)[O-])c2c1 (3D coordinates assigned)
Cc1ccc2cc(C(N)=O)n(C(=O)N(C)C(=O)[O-])c2c1 (optimized conformer: 72.00822037549688 kcal/mol)

>  <smiles>  (76) 
Cc1ccc2cc(C(N)=O)n(C(=O)N(C)C(=O)O)c2c1

>  <score_type>  (76) 
oracle

>  <origin>  (76) 
adg

>  <m_score__min__energy>  (76) 
-6.3700000000000001

>  <m_primary>  (76) 
energy

$$$$
76:0
     RDKit          3D

 50 52  0  0  0  0  0  0  0  0999 V2000
  139.5710  155.9330  132.9900 C   0  0  0  0  0  0  0  0  0  0  0  0
  140.4670  154.7480  133.1500 C   0  0  0  0  0  0  0  0  0  0  0  0
  140.0160  153.4790  133.1110 N   0  0  0  0  0  0  0  0  0  0  0  0
  141.0540  152.6820  133.3060 N   0  0  0  0  0  0  0  0  0  0  0  0
  140.9790  151.2250  133.2610 C   0  0  0  0  0  0  0  0  0  0  0  0
  140.5890  150.7620  131.8610 C   0  0  0  0  0  0  0  0  0  0  0  0
  140.4790  149.3590  131.8520 O   0  0  0  0  0  0  0  0  0  0  0  0
  139.3670  148.9030  130.6570 S   0  0  0  0  0  0  0  0  0  0  0  0
  139.4090  147.1450  130.3620 C   0  0  0  0  0  0  0  0  0  0  0  0
  139.6530  149.6390  129.3760 O   0  0  0  0  0  0  0  0  0  0  0  0
  137.9870  149.2700  131.1260 O   0  0  0  0  0  0  0  0  0  0  0  0
  142.1780  153.4090  133.4510 C   0  0  0  0  0  0  0  0  0  0  0  0
  141.8450  154.7460  133.3490 C   0  0  0  0  0  0  0  0  0  0  0  0
  142.7790  155.8910  133.4390 C   0  0  0  0  0  0  0  0  0  0  0  0
  144.1740  155.6740  133.2920 C   0  0  0  0  0  0  0  0  0  0  0  0
  145.0800  156.7470  133.3580 C   0  0  0  0  0  0  0  0  0  0  0  0
  144.5650  158.0220  133.5700 C   0  0  0  0  0  0  0  0  0  0  0  0
  145.2100  159.2340  133.6520 C   0  0  0  0  0  0  0  0  0  0  0  0
  144.2030  160.1750  133.8580 C   0  0  0  0  0  0  0  0  0  0  0  0
  144.4670  161.6110  134.0930 C   0  0  0  0  0  0  0  0  0  0  0  0
  143.5840  162.5910  133.5510 N   0  0  0  0  0  0  0  0  0  0  0  0
  145.4840  161.9850  134.7350 O   0  0  0  0  0  0  0  0  0  0  0  0
  142.9820  159.5680  133.8930 N   0  0  0  0  0  0  0  0  0  0  0  0
  141.6910  160.1810  134.0410 C   0  0  0  0  0  0  0  0  0  0  0  0
  141.1380  160.7350  133.0520 O   0  0  0  0  0  0  0  0  0  0  0  0
  141.0390  160.1310  135.2770 O   0  0  0  0  0  0  0  0  0  0  0  0
  141.1950  159.0470  136.1860 C   0  0  0  0  0  0  0  0  0  0  0  0
  140.0510  158.1040  136.0270 C   0  0  0  0  0  0  0  0  0  0  0  0
  139.9000  157.1520  136.8380 O   0  0  0  0  0  0  0  0  0  0  0  0
  139.1710  158.2460  134.9610 O   0  0  0  0  0  0  0  0  0  0  0  0
  143.2230  158.2500  133.7190 C   0  0  0  0  0  0  0  0  0  0  0  0
  142.2970  157.2040  133.6350 C   0  0  0  0  0  0  0  0  0  0  0  0
  139.2842  156.3124  133.9819 H   0  0  0  0  0  0  0  0  0  0  0  0
  140.1010  156.7212  132.4352 H   0  0  0  0  0  0  0  0  0  0  0  0
  138.6682  155.6378  132.4352 H   0  0  0  0  0  0  0  0  0  0  0  0
  141.9599  150.8021  133.5237 H   0  0  0  0  0  0  0  0  0  0  0  0
  140.2186  150.8818  133.9780 H   0  0  0  0  0  0  0  0  0  0  0  0
  139.6234  151.2086  131.5813 H   0  0  0  0  0  0  0  0  0  0  0  0
  141.3574  151.0773  131.1398 H   0  0  0  0  0  0  0  0  0  0  0  0
  139.4217  146.6120  131.3241 H   0  0  0  0  0  0  0  0  0  0  0  0
  138.5177  146.8478  129.7899 H   0  0  0  0  0  0  0  0  0  0  0  0
  140.3135  146.8907  129.7899 H   0  0  0  0  0  0  0  0  0  0  0  0
  143.1878  153.0075  133.6214 H   0  0  0  0  0  0  0  0  0  0  0  0
  144.5507  154.6542  133.1245 H   0  0  0  0  0  0  0  0  0  0  0  0
  146.1620  156.5836  133.2456 H   0  0  0  0  0  0  0  0  0  0  0  0
  146.2911  159.4208  133.5720 H   0  0  0  0  0  0  0  0  0  0  0  0
  142.6130  162.3360  133.2630 H   0  0  0  0  0  0  0  0  0  0  0  0
  142.1374  158.5211  135.9729 H   0  0  0  0  0  0  0  0  0  0  0  0
  141.2171  159.4300  137.2169 H   0  0  0  0  0  0  0  0  0  0  0  0
  141.2179  157.4001  133.7197 H   0  0  0  0  0  0  0  0  0  0  0  0
  1  2  1  0
  2  3  2  0
  3  4  1  0
  4  5  1  0
  5  6  1  0
  6  7  1  0
  7  8  1  0
  8  9  1  0
  8 10  2  0
  8 11  2  0
  4 12  1  0
 12 13  2  0
 13 14  1  0
 14 15  2  0
 15 16  1  0
 16 17  2  0
 17 18  1  0
 18 19  2  0
 19 20  1  0
 20 21  1  0
 20 22  2  0
 19 23  1  0
 23 24  1  0
 24 25  2  0
 24 26  1  0
 26 27  1  0
 27 28  1  0
 28 29  2  0
 28 30  1  0
 23 31  1  0
 31 32  2  0
 13  2  1  0
 32 14  1  0
 31 17  1  0
  1 33  1  0
  1 34  1  0
  1 35  1  0
  5 36  1  0
  5 37  1  0
  6 38  1  0
  6 39  1  0
  9 40  1  0
  9 41  1  0
  9 42  1  0
 12 43  1  0
 15 44  1  0
 16 45  1  0
 18 46  1  0
 21 47  1  0
 27 48  1  0
 27 49  1  0
 32 50  1  0
M  CHG  2  21  -1  30  -1
M  END
>  <UniqueID>  (77) 
74

>  <SMILES>  (77) 
Cc1nn(CCOS(C)(=O)=O)cc1-c1ccc2cc(C([NH-])=O)n(C(=O)OCC(=O)[O-])c2c1

>  <Energy>  (77) 
113.76871855565226

>  <Genealogy>  (77) 
Cc1nn(CCOS(C)(=O)=O)cc1-c1ccc2cc(C([NH-])=O)n(C(=O)OCC(=O)[O-])c2c1 (protonated)
Cc1nn(CCOS(C)(=O)=O)cc1-c1ccc2cc(C([NH-])=O)n(C(=O)OCC(=O)[O-])c2c1 (3D coordinates assigned)
Cc1nn(CCOS(C)(=O)=O)cc1-c1ccc2cc(C([NH-])=O)n(C(=O)OCC(=O)[O-])c2c1 (optimized conformer: 113.76871855565226 kcal/mol)

>  <smiles>  (77) 
Cc1nn(CCOS(C)(=O)=O)cc1-c1ccc2cc(C(N)=O)n(C(=O)OCC(=O)O)c2c1

>  <score_type>  (77) 
oracle

>  <origin>  (77) 
adg

>  <m_score__min__energy>  (77) 
-9.0399999999999991

>  <m_primary>  (77) 
energy

$$$$
77:0
     RDKit          3D

 44 46  0  0  0  0  0  0  0  0999 V2000
  139.5480  158.4590  132.2440 C   0  0  0  0  0  0  0  0  0  0  0  0
  138.9250  157.4770  133.1510 N   0  0  1  0  0  0  0  0  0  0  0  0
  139.5250  156.1460  132.9960 C   0  0  0  0  0  0  0  0  0  0  0  0
  140.6620  156.0330  134.0020 C   0  0  0  0  0  0  0  0  0  0  0  0
  140.4050  157.1270  135.0410 C   0  0  1  0  0  0  0  0  0  0  0  0
  141.4780  158.0530  135.0670 O   0  0  0  0  0  0  0  0  0  0  0  0
  142.7040  157.3910  134.8350 C   0  0  0  0  0  0  0  0  0  0  0  0
  143.2930  157.9280  133.5700 C   0  0  0  0  0  0  0  0  0  0  0  0
  142.6820  157.7800  132.4780 O   0  0  0  0  0  0  0  0  0  0  0  0
  144.4800  158.7270  133.6200 N   0  0  0  0  0  0  0  0  0  0  0  0
  144.5740  160.0830  133.6660 C   0  0  0  0  0  0  0  0  0  0  0  0
  143.4330  161.0190  133.7410 C   0  0  0  0  0  0  0  0  0  0  0  0
  142.1000  160.5140  133.8200 N   0  0  0  0  0  0  0  0  0  0  0  0
  143.6210  162.2640  133.7250 O   0  0  0  0  0  0  0  0  0  0  0  0
  145.9130  160.4770  133.6330 C   0  0  0  0  0  0  0  0  0  0  0  0
  146.6370  159.3060  133.5590 C   0  0  0  0  0  0  0  0  0  0  0  0
  148.0090  159.1010  133.4540 C   0  0  0  0  0  0  0  0  0  0  0  0
  148.4720  157.7770  133.3410 C   0  0  0  0  0  0  0  0  0  0  0  0
  147.5600  156.6860  133.3480 C   0  0  0  0  0  0  0  0  0  0  0  0
  148.0580  155.2740  133.1590 C   0  0  0  0  0  0  0  0  0  0  0  0
  149.3300  155.2690  132.6120 F   0  0  0  0  0  0  0  0  0  0  0  0
  148.1080  154.6130  134.3730 F   0  0  0  0  0  0  0  0  0  0  0  0
  147.2010  154.5980  132.3120 F   0  0  0  0  0  0  0  0  0  0  0  0
  146.1730  156.9390  133.4360 C   0  0  0  0  0  0  0  0  0  0  0  0
  145.7450  158.2650  133.5540 C   0  0  0  0  0  0  0  0  0  0  0  0
  139.1390  157.8400  134.5620 C   0  0  0  0  0  0  0  0  0  0  0  0
  140.0446  159.2417  132.8363 H   0  0  0  0  0  0  0  0  0  0  0  0
  140.2905  157.9527  131.6096 H   0  0  0  0  0  0  0  0  0  0  0  0
  138.7737  158.9150  131.6096 H   0  0  0  0  0  0  0  0  0  0  0  0
  137.8980  157.4310  132.9440 H   0  0  0  0  0  0  0  0  0  0  0  0
  138.7712  155.3696  133.1933 H   0  0  0  0  0  0  0  0  0  0  0  0
  139.9010  156.0089  131.9714 H   0  0  0  0  0  0  0  0  0  0  0  0
  140.6552  155.0418  134.4789 H   0  0  0  0  0  0  0  0  0  0  0  0
  141.6438  156.1525  133.5206 H   0  0  0  0  0  0  0  0  0  0  0  0
  140.3039  156.7068  136.0525 H   0  0  0  0  0  0  0  0  0  0  0  0
  143.3914  157.5758  135.6736 H   0  0  0  0  0  0  0  0  0  0  0  0
  142.5397  156.3069  134.7473 H   0  0  0  0  0  0  0  0  0  0  0  0
  141.8780  159.5370  133.5280 H   0  0  0  0  0  0  0  0  0  0  0  0
  146.3067  161.5038  133.6602 H   0  0  0  0  0  0  0  0  0  0  0  0
  148.7106  159.9482  133.4591 H   0  0  0  0  0  0  0  0  0  0  0  0
  149.5508  157.5839  133.2463 H   0  0  0  0  0  0  0  0  0  0  0  0
  145.4471  156.1128  133.4123 H   0  0  0  0  0  0  0  0  0  0  0  0
  138.2774  157.5190  135.1659 H   0  0  0  0  0  0  0  0  0  0  0  0
  139.2486  158.9295  134.6663 H   0  0  0  0  0  0  0  0  0  0  0  0
  1  2  1  0
  2  3  1  0
  3  4  1  0
  4  5  1  0
  5  6  1  0
  6  7  1  0
  7  8  1  0
  8  9  2  0
  8 10  1  0
 10 11  1  0
 11 12  1  0
 12 13  1  0
 12 14  2  0
 11 15  2  0
 15 16  1  0
 16 17  2  0
 17 18  1  0
 18 19  2  0
 19 20  1  0
 20 21  1  0
 20 22  1  0
 20 23  1  0
 19 24  1  0
 24 25  2  0
  5 26  1  0
 26  2  1  0
 25 10  1  0
 25 16  1  0
  1 27  1  0
  1 28  1  0
  1 29  1  0
  2 30  1  6
  3 31  1  0
  3 32  1  0
  4 33  1  0
  4 34  1  0
  5 35  1  1
  7 36  1  0
  7 37  1  0
 13 38  1  0
 15 39  1  0
 17 40  1  0
 18 41  1  0
 24 42  1  0
 26 43  1  0
 26 44  1  0
M  CHG  2   2   1  13  -1
M  END
>  <UniqueID>  (78) 
75

>  <SMILES>  (78) 
C[N@H+]1CC[C@@H](OCC(=O)n2c(C([NH-])=O)cc3ccc(C(F)(F)F)cc32)C1

>  <Energy>  (78) 
89.27809714138282

>  <Genealogy>  (78) 
C[NH+]1CCC(OCC(=O)n2c(C([NH-])=O)cc3ccc(C(F)(F)F)cc32)C1 (protonated)
C[N@H+]1CC[C@@H](OCC(=O)n2c(C([NH-])=O)cc3ccc(C(F)(F)F)cc32)C1 (chirality)
C[N@H+]1CC[C@@H](OCC(=O)n2c(C([NH-])=O)cc3ccc(C(F)(F)F)cc32)C1 (3D coordinates assigned)
C[N@H+]1CC[C@@H](OCC(=O)n2c(C([NH-])=O)cc3ccc(C(F)(F)F)cc32)C1 (nonaromatic ring conformer: 89.27809714138282 kcal/mol)

>  <smiles>  (78) 
CN1CCC(OCC(=O)n2c(C(N)=O)cc3ccc(C(F)(F)F)cc32)C1

>  <score_type>  (78) 
oracle

>  <origin>  (78) 
adg

>  <m_score__min__energy>  (78) 
-6.75

>  <m_primary>  (78) 
energy

$$$$
78:0
     RDKit          3D

 38 39  0  0  0  0  0  0  0  0999 V2000
  139.4920  159.9070  132.0540 C   0  0  0  0  0  0  0  0  0  0  0  0
  139.9510  159.7450  133.3780 O   0  0  0  0  0  0  0  0  0  0  0  0
  139.8590  158.3880  133.7550 C   0  0  0  0  0  0  0  0  0  0  0  0
  140.2780  158.2450  135.2140 C   0  0  0  0  0  0  0  0  0  0  0  0
  141.7280  158.3920  135.3230 N   0  0  0  0  0  0  0  0  0  0  0  0
  142.6590  157.4660  134.7520 C   0  0  0  0  0  0  0  0  0  0  0  0
  142.9110  156.3740  135.3400 O   0  0  0  0  0  0  0  0  0  0  0  0
  143.3310  157.8080  133.4830 C   0  0  0  0  0  0  0  0  0  0  0  0
  142.7890  157.4880  132.3880 O   0  0  0  0  0  0  0  0  0  0  0  0
  144.5740  158.5290  133.4670 N   0  0  0  0  0  0  0  0  0  0  0  0
  144.7670  159.8760  133.5280 C   0  0  0  0  0  0  0  0  0  0  0  0
  143.7000  160.8880  133.7160 C   0  0  0  0  0  0  0  0  0  0  0  0
  142.3200  160.5140  133.6490 N   0  0  0  0  0  0  0  0  0  0  0  0
  144.0020  162.0980  133.9220 O   0  0  0  0  0  0  0  0  0  0  0  0
  146.1310  160.1710  133.5070 C   0  0  0  0  0  0  0  0  0  0  0  0
  146.7690  158.9530  133.4350 C   0  0  0  0  0  0  0  0  0  0  0  0
  148.1250  158.6520  133.4050 C   0  0  0  0  0  0  0  0  0  0  0  0
  148.4980  157.3000  133.3290 C   0  0  0  0  0  0  0  0  0  0  0  0
  147.5140  156.2780  133.2660 C   0  0  0  0  0  0  0  0  0  0  0  0
  147.9090  154.8230  133.2240 C   0  0  0  0  0  0  0  0  0  0  0  0
  149.0850  154.6420  132.5120 F   0  0  0  0  0  0  0  0  0  0  0  0
  148.0910  154.3600  134.5180 F   0  0  0  0  0  0  0  0  0  0  0  0
  146.9120  154.0790  132.6140 F   0  0  0  0  0  0  0  0  0  0  0  0
  146.1460  156.6250  133.3250 C   0  0  0  0  0  0  0  0  0  0  0  0
  145.8050  157.9800  133.4140 C   0  0  0  0  0  0  0  0  0  0  0  0
  138.4548  160.2731  132.0677 H   0  0  0  0  0  0  0  0  0  0  0  0
  140.1306  160.6341  131.5309 H   0  0  0  0  0  0  0  0  0  0  0  0
  139.5327  158.9402  131.5309 H   0  0  0  0  0  0  0  0  0  0  0  0
  138.8219  158.0418  133.6342 H   0  0  0  0  0  0  0  0  0  0  0  0
  140.5203  157.7814  133.1188 H   0  0  0  0  0  0  0  0  0  0  0  0
  139.7847  159.0233  135.8148 H   0  0  0  0  0  0  0  0  0  0  0  0
  139.9821  157.2523  135.5840 H   0  0  0  0  0  0  0  0  0  0  0  0
  141.5770  161.2350  133.7790 H   0  0  0  0  0  0  0  0  0  0  0  0
  142.0290  159.5250  133.4970 H   0  0  0  0  0  0  0  0  0  0  0  0
  146.5978  161.1665  133.5408 H   0  0  0  0  0  0  0  0  0  0  0  0
  148.8833  159.4481  133.4397 H   0  0  0  0  0  0  0  0  0  0  0  0
  149.5642  157.0298  133.3181 H   0  0  0  0  0  0  0  0  0  0  0  0
  145.3669  155.8488  133.3016 H   0  0  0  0  0  0  0  0  0  0  0  0
  1  2  1  0
  2  3  1  0
  3  4  1  0
  4  5  1  0
  5  6  1  0
  6  7  2  0
  6  8  1  0
  8  9  2  0
  8 10  1  0
 10 11  1  0
 11 12  1  0
 12 13  1  0
 12 14  2  0
 11 15  2  0
 15 16  1  0
 16 17  2  0
 17 18  1  0
 18 19  2  0
 19 20  1  0
 20 21  1  0
 20 22  1  0
 20 23  1  0
 19 24  1  0
 24 25  2  0
 25 10  1  0
 25 16  1  0
  1 26  1  0
  1 27  1  0
  1 28  1  0
  3 29  1  0
  3 30  1  0
  4 31  1  0
  4 32  1  0
 13 33  1  0
 13 34  1  0
 15 35  1  0
 17 36  1  0
 18 37  1  0
 24 38  1  0
M  CHG  1   5  -1
M  END
>  <UniqueID>  (79) 
76

>  <SMILES>  (79) 
COCC[N-]C(=O)C(=O)n1c(C(N)=O)cc2ccc(C(F)(F)F)cc21

>  <Energy>  (79) 
74.3522556456273

>  <Genealogy>  (79) 
COCC[N-]C(=O)C(=O)n1c(C(N)=O)cc2ccc(C(F)(F)F)cc21 (protonated)
COCC[N-]C(=O)C(=O)n1c(C(N)=O)cc2ccc(C(F)(F)F)cc21 (3D coordinates assigned)
COCC[N-]C(=O)C(=O)n1c(C(N)=O)cc2ccc(C(F)(F)F)cc21 (optimized conformer: 74.3522556456273 kcal/mol)

>  <smiles>  (79) 
COCCNC(=O)C(=O)n1c(C(N)=O)cc2ccc(C(F)(F)F)cc21

>  <score_type>  (79) 
oracle

>  <origin>  (79) 
adg

>  <m_score__min__energy>  (79) 
-5.8600000000000003

>  <m_primary>  (79) 
energy

$$$$
79:0
     RDKit          3D

 44 46  0  0  0  0  0  0  0  0999 V2000
  138.9790  157.4950  133.3230 N   0  0  0  0  0  0  0  0  0  0  0  0
  140.0620  156.5750  133.4260 C   0  0  0  0  0  0  0  0  0  0  0  0
  139.8240  155.3370  133.4020 O   0  0  0  0  0  0  0  0  0  0  0  0
  141.4590  157.0510  133.4980 C   0  0  0  0  0  0  0  0  0  0  0  0
  142.5640  156.2150  133.3400 C   0  0  0  0  0  0  0  0  0  0  0  0
  143.6590  157.0490  133.3670 C   0  0  0  0  0  0  0  0  0  0  0  0
  145.0140  156.7530  133.2410 C   0  0  0  0  0  0  0  0  0  0  0  0
  145.9300  157.8160  133.3130 C   0  0  0  0  0  0  0  0  0  0  0  0
  145.4790  159.1440  133.5290 C   0  0  0  0  0  0  0  0  0  0  0  0
  146.4620  160.2840  133.5680 C   0  0  0  0  0  0  0  0  0  0  0  0
  147.8550  159.7650  133.3330 C   0  0  0  0  0  0  0  0  0  0  0  0
  148.3910  159.0540  134.2290 O   0  0  0  0  0  0  0  0  0  0  0  0
  148.5610  160.0020  132.0980 N   0  0  0  0  0  0  0  0  0  0  0  0
  148.1040  160.8780  131.0310 C   0  0  0  0  0  0  0  0  0  0  0  0
  149.2350  160.9140  130.0110 C   0  0  0  0  0  0  0  0  0  0  0  0
  150.1410  159.7340  130.3430 C   0  0  0  0  0  0  0  0  0  0  0  0
  149.8260  159.3590  131.7860 C   0  0  0  0  0  0  0  0  0  0  0  0
  144.0960  159.4030  133.6540 C   0  0  0  0  0  0  0  0  0  0  0  0
  143.2050  158.3300  133.5480 C   0  0  0  0  0  0  0  0  0  0  0  0
  141.8560  158.3490  133.6310 N   0  0  0  0  0  0  0  0  0  0  0  0
  141.0360  159.5030  133.8830 C   0  0  0  0  0  0  0  0  0  0  0  0
  140.3430  159.9990  132.9510 O   0  0  0  0  0  0  0  0  0  0  0  0
  140.9890  160.0520  135.1680 O   0  0  0  0  0  0  0  0  0  0  0  0
  141.2910  159.3160  136.3500 C   0  0  0  0  0  0  0  0  0  0  0  0
  140.3070  158.2050  136.5370 C   0  0  0  0  0  0  0  0  0  0  0  0
  140.6270  157.1780  137.1890 O   0  0  0  0  0  0  0  0  0  0  0  0
  139.0460  158.2890  135.9570 O   0  0  0  0  0  0  0  0  0  0  0  0
  139.0250  158.4330  133.7790 H   0  0  0  0  0  0  0  0  0  0  0  0
  142.5612  155.1216  133.2194 H   0  0  0  0  0  0  0  0  0  0  0  0
  145.3566  155.7187  133.0897 H   0  0  0  0  0  0  0  0  0  0  0  0
  147.0060  157.6170  133.2010 H   0  0  0  0  0  0  0  0  0  0  0  0
  146.2070  161.0129  132.7846 H   0  0  0  0  0  0  0  0  0  0  0  0
  146.4168  160.7686  134.5545 H   0  0  0  0  0  0  0  0  0  0  0  0
  147.1875  160.4778  130.5729 H   0  0  0  0  0  0  0  0  0  0  0  0
  147.8655  161.8839  131.4070 H   0  0  0  0  0  0  0  0  0  0  0  0
  148.8335  160.8122  128.9920 H   0  0  0  0  0  0  0  0  0  0  0  0
  149.7838  161.8664  130.0528 H   0  0  0  0  0  0  0  0  0  0  0  0
  149.9287  158.8881  129.6727 H   0  0  0  0  0  0  0  0  0  0  0  0
  151.2028  159.9914  130.2151 H   0  0  0  0  0  0  0  0  0  0  0  0
  149.7353  158.2674  131.8865 H   0  0  0  0  0  0  0  0  0  0  0  0
  150.6234  159.6835  132.4707 H   0  0  0  0  0  0  0  0  0  0  0  0
  143.7283  160.4246  133.8306 H   0  0  0  0  0  0  0  0  0  0  0  0
  142.3031  158.8936  136.2655 H   0  0  0  0  0  0  0  0  0  0  0  0
  141.2352  159.9921  137.2159 H   0  0  0  0  0  0  0  0  0  0  0  0
  1  2  1  0
  2  3  2  0
  2  4  1  0
  4  5  2  0
  5  6  1  0
  6  7  2  0
  7  8  1  0
  8  9  2  0
  9 10  1  0
 10 11  1  0
 11 12  2  0
 11 13  1  0
 13 14  1  0
 14 15  1  0
 15 16  1  0
 16 17  1  0
  9 18  1  0
 18 19  2  0
 19 20  1  0
 20 21  1  0
 21 22  2  0
 21 23  1  0
 23 24  1  0
 24 25  1  0
 25 26  2  0
 25 27  1  0
 20  4  1  0
 19  6  1  0
 17 13  1  0
  1 28  1  0
  5 29  1  0
  7 30  1  0
  8 31  1  0
 10 32  1  0
 10 33  1  0
 14 34  1  0
 14 35  1  0
 15 36  1  0
 15 37  1  0
 16 38  1  0
 16 39  1  0
 17 40  1  0
 17 41  1  0
 18 42  1  0
 24 43  1  0
 24 44  1  0
M  CHG  2   1  -1  27  -1
M  END
>  <UniqueID>  (80) 
77

>  <SMILES>  (80) 
[NH-]C(=O)c1cc2ccc(CC(=O)N3CCCC3)cc2n1C(=O)OCC(=O)[O-]

>  <Energy>  (80) 
79.4075365683448

>  <Genealogy>  (80) 
[NH-]C(=O)c1cc2ccc(CC(=O)N3CCCC3)cc2n1C(=O)OCC(=O)[O-] (protonated)
[NH-]C(=O)c1cc2ccc(CC(=O)N3CCCC3)cc2n1C(=O)OCC(=O)[O-] (3D coordinates assigned)
[NH-]C(=O)c1cc2ccc(CC(=O)N3CCCC3)cc2n1C(=O)OCC(=O)[O-] (nonaromatic ring conformer: 79.4075365683448 kcal/mol)

>  <smiles>  (80) 
NC(=O)c1cc2ccc(CC(=O)N3CCCC3)cc2n1C(=O)OCC(=O)O

>  <score_type>  (80) 
oracle

>  <origin>  (80) 
adg

>  <m_score__min__energy>  (80) 
-8.2599999999999998

>  <m_primary>  (80) 
energy

$$$$
80:0
     RDKit          3D

 37 38  0  0  0  0  0  0  0  0999 V2000
  144.7360  153.3040  132.2450 C   0  0  0  0  0  0  0  0  0  0  0  0
  144.5710  154.7640  131.8400 C   0  0  0  0  0  0  0  0  0  0  0  0
  145.5240  155.5830  132.5170 O   0  0  0  0  0  0  0  0  0  0  0  0
  145.2060  156.3830  133.6200 C   0  0  0  0  0  0  0  0  0  0  0  0
  145.0170  155.8610  134.7530 O   0  0  0  0  0  0  0  0  0  0  0  0
  145.0910  157.8060  133.4610 N   0  0  0  0  0  0  0  0  0  0  0  0
  146.0840  158.6910  133.1610 C   0  0  0  0  0  0  0  0  0  0  0  0
  147.4670  158.3400  132.7800 C   0  0  0  0  0  0  0  0  0  0  0  0
  147.7380  157.2450  131.9040 N   0  0  0  0  0  0  0  0  0  0  0  0
  148.4220  159.0530  133.1890 O   0  0  0  0  0  0  0  0  0  0  0  0
  145.6110  159.9980  133.2100 C   0  0  0  0  0  0  0  0  0  0  0  0
  144.2790  159.8900  133.5380 C   0  0  0  0  0  0  0  0  0  0  0  0
  143.3230  160.8820  133.7340 C   0  0  0  0  0  0  0  0  0  0  0  0
  142.0280  160.4860  134.1050 C   0  0  0  0  0  0  0  0  0  0  0  0
  141.7100  159.1120  134.2820 C   0  0  0  0  0  0  0  0  0  0  0  0
  140.3180  158.6860  134.7020 C   0  0  1  0  0  0  0  0  0  0  0  0
  139.8810  157.4120  133.9680 C   0  0  0  0  0  0  0  0  0  0  0  0
  140.2370  158.5300  136.1960 C   0  0  0  0  0  0  0  0  0  0  0  0
  139.5290  157.6260  136.7150 O   0  0  0  0  0  0  0  0  0  0  0  0
  140.9950  159.3580  137.0160 O   0  0  0  0  0  0  0  0  0  0  0  0
  142.7120  158.1350  134.0770 C   0  0  0  0  0  0  0  0  0  0  0  0
  143.9890  158.5580  133.6860 C   0  0  0  0  0  0  0  0  0  0  0  0
  144.7447  153.2266  133.3422 H   0  0  0  0  0  0  0  0  0  0  0  0
  143.8987  152.7150  131.8425 H   0  0  0  0  0  0  0  0  0  0  0  0
  145.6836  152.9167  131.8425 H   0  0  0  0  0  0  0  0  0  0  0  0
  144.7205  154.8573  130.7542 H   0  0  0  0  0  0  0  0  0  0  0  0
  143.5589  155.0963  132.1142 H   0  0  0  0  0  0  0  0  0  0  0  0
  148.7250  156.9860  131.6800 H   0  0  0  0  0  0  0  0  0  0  0  0
  146.9670  156.7440  131.4100 H   0  0  0  0  0  0  0  0  0  0  0  0
  146.1802  160.9211  133.0259 H   0  0  0  0  0  0  0  0  0  0  0  0
  143.5743  161.9448  133.6022 H   0  0  0  0  0  0  0  0  0  0  0  0
  141.2503  161.2482  134.2605 H   0  0  0  0  0  0  0  0  0  0  0  0
  139.6131  159.4797  134.4135 H   0  0  0  0  0  0  0  0  0  0  0  0
  139.6155  156.6380  134.7032 H   0  0  0  0  0  0  0  0  0  0  0  0
  139.0075  157.6336  133.3372 H   0  0  0  0  0  0  0  0  0  0  0  0
  140.7066  157.0508  133.3372 H   0  0  0  0  0  0  0  0  0  0  0  0
  142.4934  157.0666  134.2214 H   0  0  0  0  0  0  0  0  0  0  0  0
  1  2  1  0
  2  3  1  0
  3  4  1  0
  4  5  2  0
  4  6  1  0
  6  7  1  0
  7  8  1  0
  8  9  1  0
  8 10  2  0
  7 11  2  0
 11 12  1  0
 12 13  2  0
 13 14  1  0
 14 15  2  0
 15 16  1  0
 16 17  1  0
 16 18  1  0
 18 19  2  0
 18 20  1  0
 15 21  1  0
 21 22  2  0
 22  6  1  0
 22 12  1  0
  1 23  1  0
  1 24  1  0
  1 25  1  0
  2 26  1  0
  2 27  1  0
  9 28  1  0
  9 29  1  0
 11 30  1  0
 13 31  1  0
 14 32  1  0
 16 33  1  6
 17 34  1  0
 17 35  1  0
 17 36  1  0
 21 37  1  0
M  CHG  1  20  -1
M  END
>  <UniqueID>  (81) 
78

>  <SMILES>  (81) 
CCOC(=O)n1c(C(N)=O)cc2ccc([C@@H](C)C(=O)[O-])cc21

>  <Energy>  (81) 
71.0960908883125

>  <Genealogy>  (81) 
CCOC(=O)n1c(C(N)=O)cc2ccc(C(C)C(=O)[O-])cc21 (protonated)
CCOC(=O)n1c(C(N)=O)cc2ccc([C@@H](C)C(=O)[O-])cc21 (chirality)
CCOC(=O)n1c(C(N)=O)cc2ccc([C@@H](C)C(=O)[O-])cc21 (3D coordinates assigned)
CCOC(=O)n1c(C(N)=O)cc2ccc([C@@H](C)C(=O)[O-])cc21 (optimized conformer: 71.0960908883125 kcal/mol)

>  <smiles>  (81) 
CCOC(=O)n1c(C(N)=O)cc2ccc(C(C)C(=O)O)cc21

>  <score_type>  (81) 
oracle

>  <origin>  (81) 
adg

>  <m_score__min__energy>  (81) 
-6.7999999999999998

>  <m_primary>  (81) 
energy

$$$$
81:0
     RDKit          3D

 40 42  0  0  0  0  0  0  0  0999 V2000
  138.7460  158.2850  135.6740 N   0  0  0  0  0  0  0  0  0  0  0  0
  139.1790  157.5480  134.5300 C   0  0  0  0  0  0  0  0  0  0  0  0
  138.3210  157.1040  133.7220 O   0  0  0  0  0  0  0  0  0  0  0  0
  140.6130  157.3540  134.2430 C   0  0  0  0  0  0  0  0  0  0  0  0
  141.1850  156.1070  134.0090 C   0  0  0  0  0  0  0  0  0  0  0  0
  142.5060  156.3620  133.7210 C   0  0  0  0  0  0  0  0  0  0  0  0
  143.5390  155.4800  133.4180 C   0  0  0  0  0  0  0  0  0  0  0  0
  144.8190  156.0160  133.1980 C   0  0  0  0  0  0  0  0  0  0  0  0
  145.0440  157.4110  133.2990 C   0  0  0  0  0  0  0  0  0  0  0  0
  146.3590  157.9480  133.0810 N   0  0  0  0  0  0  0  0  0  0  0  0
  146.6580  159.3410  133.4260 C   0  0  0  0  0  0  0  0  0  0  0  0
  147.3790  160.0140  132.2580 C   0  0  0  0  0  0  0  0  0  0  0  0
  148.5190  159.2070  131.7900 N   0  0  0  0  0  0  0  0  0  0  0  0
  149.5700  159.8140  131.0040 C   0  0  0  0  0  0  0  0  0  0  0  0
  150.7490  159.3750  131.1040 O   0  0  0  0  0  0  0  0  0  0  0  0
  149.3220  160.9270  130.0670 C   0  0  0  0  0  0  0  0  0  0  0  0
  149.6020  160.8280  128.8440 O   0  0  0  0  0  0  0  0  0  0  0  0
  148.8080  162.1270  130.5460 O   0  0  0  0  0  0  0  0  0  0  0  0
  148.7240  157.8520  132.3240 C   0  0  0  0  0  0  0  0  0  0  0  0
  147.3910  157.1080  132.4580 C   0  0  0  0  0  0  0  0  0  0  0  0
  143.9700  158.2750  133.6090 C   0  0  0  0  0  0  0  0  0  0  0  0
  142.7000  157.7170  133.7990 C   0  0  0  0  0  0  0  0  0  0  0  0
  141.5450  158.3430  134.1220 N   0  0  0  0  0  0  0  0  0  0  0  0
  141.3730  159.7440  134.3950 C   0  0  0  0  0  0  0  0  0  0  0  0
  141.5790  160.5980  133.4930 O   0  0  0  0  0  0  0  0  0  0  0  0
  140.9830  160.1730  135.6570 O   0  0  0  0  0  0  0  0  0  0  0  0
  137.7270  158.3910  135.8740 H   0  0  0  0  0  0  0  0  0  0  0  0
  139.4280  158.8020  136.2730 H   0  0  0  0  0  0  0  0  0  0  0  0
  140.6872  155.1268  134.0463 H   0  0  0  0  0  0  0  0  0  0  0  0
  143.3590  154.3968  133.3528 H   0  0  0  0  0  0  0  0  0  0  0  0
  145.6541  155.3463  132.9450 H   0  0  0  0  0  0  0  0  0  0  0  0
  145.7199  159.8761  133.6347 H   0  0  0  0  0  0  0  0  0  0  0  0
  147.3022  159.3669  134.3173 H   0  0  0  0  0  0  0  0  0  0  0  0
  146.6694  160.1454  131.4278 H   0  0  0  0  0  0  0  0  0  0  0  0
  147.7625  160.9856  132.6029 H   0  0  0  0  0  0  0  0  0  0  0  0
  149.3816  157.2923  131.6426 H   0  0  0  0  0  0  0  0  0  0  0  0
  149.1821  157.9333  133.3208 H   0  0  0  0  0  0  0  0  0  0  0  0
  147.0488  156.8069  131.4569 H   0  0  0  0  0  0  0  0  0  0  0  0
  147.5520  156.2300  133.1008 H   0  0  0  0  0  0  0  0  0  0  0  0
  144.1278  159.3599  133.6989 H   0  0  0  0  0  0  0  0  0  0  0  0
  1  2  1  0
  2  3  2  0
  2  4  1  0
  4  5  2  0
  5  6  1  0
  6  7  2  0
  7  8  1  0
  8  9  2  0
  9 10  1  0
 10 11  1  0
 11 12  1  0
 12 13  1  0
 13 14  1  0
 14 15  2  0
 14 16  1  0
 16 17  2  0
 16 18  1  0
 13 19  1  0
 19 20  1  0
  9 21  1  0
 21 22  2  0
 22 23  1  0
 23 24  1  0
 24 25  2  0
 24 26  1  0
 23  4  1  0
 22  6  1  0
 20 10  1  0
  1 27  1  0
  1 28  1  0
  5 29  1  0
  7 30  1  0
  8 31  1  0
 11 32  1  0
 11 33  1  0
 12 34  1  0
 12 35  1  0
 19 36  1  0
 19 37  1  0
 20 38  1  0
 20 39  1  0
 21 40  1  0
M  CHG  2  18  -1  26  -1
M  END
>  <UniqueID>  (82) 
79

>  <SMILES>  (82) 
NC(=O)c1cc2ccc(N3CCN(C(=O)C(=O)[O-])CC3)cc2n1C(=O)[O-]

>  <Energy>  (82) 
88.26769186163817

>  <Genealogy>  (82) 
NC(=O)c1cc2ccc(N3CCN(C(=O)C(=O)[O-])CC3)cc2n1C(=O)[O-] (protonated)
NC(=O)c1cc2ccc(N3CCN(C(=O)C(=O)[O-])CC3)cc2n1C(=O)[O-] (3D coordinates assigned)
NC(=O)c1cc2ccc(N3CCN(C(=O)C(=O)[O-])CC3)cc2n1C(=O)[O-] (nonaromatic ring conformer: 88.26769186163817 kcal/mol)

>  <smiles>  (82) 
NC(=O)c1cc2ccc(N3CCN(C(=O)C(=O)O)CC3)cc2n1C(=O)O

>  <score_type>  (82) 
oracle

>  <origin>  (82) 
adg

>  <m_score__min__energy>  (82) 
-7.8499999999999996

>  <m_primary>  (82) 
energy

$$$$
82:0
     RDKit          3D

 40 41  0  0  0  0  0  0  0  0999 V2000
  147.8563  154.2818  135.4908 H   0  0  0  0  0  0  0  0  0  0  0  0
  147.7400  154.7700  134.5120 C   0  0  0  0  0  0  0  0  0  0  0  0
  148.4810  154.2050  133.3830 C   0  0  0  0  0  0  0  0  0  0  0  0
  148.3850  152.9700  133.1310 O   0  0  0  0  0  0  0  0  0  0  0  0
  149.3270  155.0040  132.6160 O   0  0  0  0  0  0  0  0  0  0  0  0
  146.9310  155.8360  134.4450 C   0  0  0  0  0  0  0  0  0  0  0  0
  146.5467  156.2337  135.3959 H   0  0  0  0  0  0  0  0  0  0  0  0
  146.5060  156.5300  133.1990 C   0  0  0  0  0  0  0  0  0  0  0  0
  146.2470  155.8790  132.1490 O   0  0  0  0  0  0  0  0  0  0  0  0
  146.3510  157.9580  133.1920 N   0  0  0  0  0  0  0  0  0  0  0  0
  147.3140  158.8870  132.9300 C   0  0  0  0  0  0  0  0  0  0  0  0
  148.6890  158.5890  132.4820 C   0  0  0  0  0  0  0  0  0  0  0  0
  149.6140  159.4240  132.6770 O   0  0  0  0  0  0  0  0  0  0  0  0
  149.0020  157.3320  131.8680 N   0  0  0  0  0  0  0  0  0  0  0  0
  148.2610  156.6250  131.6620 H   0  0  0  0  0  0  0  0  0  0  0  0
  149.9800  157.1110  131.5780 H   0  0  0  0  0  0  0  0  0  0  0  0
  146.7990  160.1770  133.0750 C   0  0  0  0  0  0  0  0  0  0  0  0
  147.3314  161.1284  132.9284 H   0  0  0  0  0  0  0  0  0  0  0  0
  145.4810  160.0040  133.4410 C   0  0  0  0  0  0  0  0  0  0  0  0
  144.5040  160.9440  133.7310 C   0  0  0  0  0  0  0  0  0  0  0  0
  144.7208  162.0207  133.6695 H   0  0  0  0  0  0  0  0  0  0  0  0
  143.2280  160.4850  134.1060 C   0  0  0  0  0  0  0  0  0  0  0  0
  142.4368  161.2149  134.3325 H   0  0  0  0  0  0  0  0  0  0  0  0
  142.9410  159.0890  134.1980 C   0  0  0  0  0  0  0  0  0  0  0  0
  141.5530  158.5540  134.6240 C   0  0  0  0  0  0  0  0  0  0  0  0
  141.5150  157.0140  134.7600 C   0  0  0  0  0  0  0  0  0  0  0  0
  141.5082  156.7401  135.8253 H   0  0  0  0  0  0  0  0  0  0  0  0
  140.6070  156.6254  134.2757 H   0  0  0  0  0  0  0  0  0  0  0  0
  142.4027  156.5811  134.2757 H   0  0  0  0  0  0  0  0  0  0  0  0
  141.1650  159.1500  135.9930 C   0  0  0  0  0  0  0  0  0  0  0  0
  141.5749  158.5204  136.7965 H   0  0  0  0  0  0  0  0  0  0  0  0
  141.5744  160.1673  136.0793 H   0  0  0  0  0  0  0  0  0  0  0  0
  140.0690  159.1873  136.0793 H   0  0  0  0  0  0  0  0  0  0  0  0
  140.5020  158.9560  133.5740 C   0  0  0  0  0  0  0  0  0  0  0  0
  139.5908  159.3045  134.0821 H   0  0  0  0  0  0  0  0  0  0  0  0
  140.9029  159.7643  132.9447 H   0  0  0  0  0  0  0  0  0  0  0  0
  140.2612  158.0865  132.9447 H   0  0  0  0  0  0  0  0  0  0  0  0
  143.9870  158.1690  133.9110 C   0  0  0  0  0  0  0  0  0  0  0  0
  143.8167  157.0863  134.0046 H   0  0  0  0  0  0  0  0  0  0  0  0
  145.2360  158.6570  133.5080 C   0  0  0  0  0  0  0  0  0  0  0  0
  1  2  1  0
  2  3  1  0
  3  4  2  0
  3  5  1  0
  2  6  2  0
  6  7  1  0
  6  8  1  0
  8  9  2  0
  8 10  1  0
 10 11  1  0
 11 12  1  0
 12 13  2  0
 12 14  1  0
 14 15  1  0
 14 16  1  0
 11 17  2  0
 17 18  1  0
 17 19  1  0
 19 20  2  0
 20 21  1  0
 20 22  1  0
 22 23  1  0
 22 24  2  0
 24 25  1  0
 25 26  1  0
 26 27  1  0
 26 28  1  0
 26 29  1  0
 25 30  1  0
 30 31  1  0
 30 32  1  0
 30 33  1  0
 25 34  1  0
 34 35  1  0
 34 36  1  0
 34 37  1  0
 24 38  1  0
 38 39  1  0
 38 40  2  0
 40 10  1  0
 40 19  1  0
M  CHG  1   5  -1
M  END
>  <UniqueID>  (83) 
80

>  <SMILES>  (83) 
CC(C)(C)c1ccc2cc(C(N)=O)n(C(=O)/C=C\C(=O)[O-])c2c1

>  <Energy>  (83) 
88.37794152361353

>  <Genealogy>  (83) 
CC(C)(C)c1ccc2cc(C(N)=O)n(C(=O)/C=C\C(=O)[O-])c2c1 (protonated)
CC(C)(C)c1ccc2cc(C(N)=O)n(C(=O)/C=C\C(=O)[O-])c2c1 (cis-trans isomerization)
CC(C)(C)c1ccc2cc(C(N)=O)n(C(=O)/C=C\C(=O)[O-])c2c1 (3D coordinates assigned)
CC(C)(C)c1ccc2cc(C(N)=O)n(C(=O)/C=C\C(=O)[O-])c2c1 (optimized conformer: 88.37794152361353 kcal/mol)

>  <smiles>  (83) 
CC(C)(C)c1ccc2cc(C(N)=O)n(C(=O)/C=C\C(=O)O)c2c1

>  <score_type>  (83) 
oracle

>  <origin>  (83) 
adg

>  <m_score__min__energy>  (83) 
-7.7999999999999998

>  <m_primary>  (83) 
energy

$$$$
83:0
     RDKit          3D

 43 45  0  0  0  0  0  0  0  0999 V2000
  138.7570  160.4840  131.5730 C   0  0  0  0  0  0  0  0  0  0  0  0
  139.0110  158.9690  131.5300 C   0  0  2  0  0  0  0  0  0  0  0  0
  138.3940  158.4520  130.3720 O   0  0  0  0  0  0  0  0  0  0  0  0
  138.4590  158.2810  132.7830 C   0  0  0  0  0  0  0  0  0  0  0  0
  139.5020  157.2350  133.1290 C   0  0  0  0  0  0  0  0  0  0  0  0
  140.8010  157.7400  132.6620 N   0  0  2  0  0  0  0  0  0  0  0  0
  141.4980  158.4240  133.7350 C   0  0  0  0  0  0  0  0  0  0  0  0
  140.8880  158.7130  134.8020 O   0  0  0  0  0  0  0  0  0  0  0  0
  142.9380  158.7460  133.6300 C   0  0  0  0  0  0  0  0  0  0  0  0
  143.3090  159.9380  133.4600 O   0  0  0  0  0  0  0  0  0  0  0  0
  143.9210  157.7010  133.6640 N   0  0  0  0  0  0  0  0  0  0  0  0
  143.7370  156.3810  133.9490 C   0  0  0  0  0  0  0  0  0  0  0  0
  142.4790  155.7650  134.4200 C   0  0  0  0  0  0  0  0  0  0  0  0
  141.5630  155.1770  133.5020 N   0  0  0  0  0  0  0  0  0  0  0  0
  142.1920  155.7900  135.6470 O   0  0  0  0  0  0  0  0  0  0  0  0
  144.9340  155.6820  133.8040 C   0  0  0  0  0  0  0  0  0  0  0  0
  145.8650  156.6250  133.4280 C   0  0  0  0  0  0  0  0  0  0  0  0
  147.2220  156.4860  133.1550 C   0  0  0  0  0  0  0  0  0  0  0  0
  147.9380  157.6360  132.7790 C   0  0  0  0  0  0  0  0  0  0  0  0
  147.2860  158.8920  132.6610 C   0  0  0  0  0  0  0  0  0  0  0  0
  148.0750  160.1250  132.2980 C   0  0  0  0  0  0  0  0  0  0  0  0
  149.4210  159.9380  132.5610 F   0  0  0  0  0  0  0  0  0  0  0  0
  147.9330  160.4170  130.9520 F   0  0  0  0  0  0  0  0  0  0  0  0
  147.6140  161.1950  133.0410 F   0  0  0  0  0  0  0  0  0  0  0  0
  145.9100  158.9930  132.9710 C   0  0  0  0  0  0  0  0  0  0  0  0
  145.2280  157.8340  133.3530 C   0  0  0  0  0  0  0  0  0  0  0  0
  140.5220  158.6490  131.5290 C   0  0  0  0  0  0  0  0  0  0  0  0
  138.7012  160.8168  132.6199 H   0  0  0  0  0  0  0  0  0  0  0  0
  139.5798  161.0083  131.0649 H   0  0  0  0  0  0  0  0  0  0  0  0
  137.8082  160.7113  131.0649 H   0  0  0  0  0  0  0  0  0  0  0  0
  137.4680  158.8090  130.3270 H   0  0  0  0  0  0  0  0  0  0  0  0
  138.3441  159.0030  133.6049 H   0  0  0  0  0  0  0  0  0  0  0  0
  137.4640  157.8423  132.6168 H   0  0  0  0  0  0  0  0  0  0  0  0
  139.5292  157.0764  134.2172 H   0  0  0  0  0  0  0  0  0  0  0  0
  139.2631  156.2742  132.6496 H   0  0  0  0  0  0  0  0  0  0  0  0
  141.3760  156.9360  132.3150 H   0  0  0  0  0  0  0  0  0  0  0  0
  141.3870  155.6070  132.5670 H   0  0  0  0  0  0  0  0  0  0  0  0
  145.1001  154.6055  133.9573 H   0  0  0  0  0  0  0  0  0  0  0  0
  147.7189  155.5076  133.2309 H   0  0  0  0  0  0  0  0  0  0  0  0
  149.0162  157.5620  132.5738 H   0  0  0  0  0  0  0  0  0  0  0  0
  145.3889  159.9600  132.9130 H   0  0  0  0  0  0  0  0  0  0  0  0
  141.0997  159.5778  131.6454 H   0  0  0  0  0  0  0  0  0  0  0  0
  140.8098  158.1735  130.5797 H   0  0  0  0  0  0  0  0  0  0  0  0
  1  2  1  0
  2  3  1  6
  2  4  1  0
  4  5  1  0
  5  6  1  0
  6  7  1  0
  7  8  2  0
  7  9  1  0
  9 10  2  0
  9 11  1  0
 11 12  1  0
 12 13  1  0
 13 14  1  0
 13 15  2  0
 12 16  2  0
 16 17  1  0
 17 18  2  0
 18 19  1  0
 19 20  2  0
 20 21  1  0
 21 22  1  0
 21 23  1  0
 21 24  1  0
 20 25  1  0
 25 26  2  0
  6 27  1  0
 27  2  1  0
 26 11  1  0
 26 17  1  0
  1 28  1  0
  1 29  1  0
  1 30  1  0
  3 31  1  0
  4 32  1  0
  4 33  1  0
  5 34  1  0
  5 35  1  0
  6 36  1  6
 14 37  1  0
 16 38  1  0
 18 39  1  0
 19 40  1  0
 25 41  1  0
 27 42  1  0
 27 43  1  0
M  CHG  2   6   1  14  -1
M  END
>  <UniqueID>  (84) 
81

>  <SMILES>  (84) 
C[C@]1(O)CC[N@H+](C(=O)C(=O)n2c(C([NH-])=O)cc3ccc(C(F)(F)F)cc32)C1

>  <Energy>  (84) 
91.06148590752215

>  <Genealogy>  (84) 
CC1(O)CC[NH+](C(=O)C(=O)n2c(C([NH-])=O)cc3ccc(C(F)(F)F)cc32)C1 (protonated)
C[C@]1(O)CC[N@H+](C(=O)C(=O)n2c(C([NH-])=O)cc3ccc(C(F)(F)F)cc32)C1 (chirality)
C[C@]1(O)CC[N@H+](C(=O)C(=O)n2c(C([NH-])=O)cc3ccc(C(F)(F)F)cc32)C1 (3D coordinates assigned)
C[C@]1(O)CC[N@H+](C(=O)C(=O)n2c(C([NH-])=O)cc3ccc(C(F)(F)F)cc32)C1 (nonaromatic ring conformer: 91.06148590752215 kcal/mol)

>  <smiles>  (84) 
CC1(O)CCN(C(=O)C(=O)n2c(C(N)=O)cc3ccc(C(F)(F)F)cc32)C1

>  <score_type>  (84) 
oracle

>  <origin>  (84) 
adg

>  <m_score__min__energy>  (84) 
-6.5999999999999996

>  <m_primary>  (84) 
energy

$$$$
84:0
     RDKit          3D

 50 52  0  0  0  0  0  0  0  0999 V2000
  140.8840  156.5330  137.6750 C   0  0  0  0  0  0  0  0  0  0  0  0
  141.2580  157.6820  136.8480 N   0  0  0  0  0  0  0  0  0  0  0  0
  141.1360  159.0330  137.3980 C   0  0  0  0  0  0  0  0  0  0  0  0
  141.8570  157.4520  135.5620 C   0  0  0  0  0  0  0  0  0  0  0  0
  142.8060  156.6250  135.4610 O   0  0  0  0  0  0  0  0  0  0  0  0
  141.3430  158.1190  134.3030 C   0  0  0  0  0  0  0  0  0  0  0  0
  140.0960  157.5780  133.8660 O   0  0  0  0  0  0  0  0  0  0  0  0
  139.9100  156.2370  133.5150 C   0  0  0  0  0  0  0  0  0  0  0  0
  138.7490  155.7810  133.3280 O   0  0  0  0  0  0  0  0  0  0  0  0
  141.0590  155.3860  133.3880 N   0  0  0  0  0  0  0  0  0  0  0  0
  141.0060  154.0000  133.0280 C   0  0  0  0  0  0  0  0  0  0  0  0
  139.9240  153.4850  132.6340 O   0  0  0  0  0  0  0  0  0  0  0  0
  142.1970  153.1960  133.1000 N   0  0  0  0  0  0  0  0  0  0  0  0
  142.3010  151.8400  133.0020 C   0  0  0  0  0  0  0  0  0  0  0  0
  141.1730  150.8930  132.8950 C   0  0  0  0  0  0  0  0  0  0  0  0
  140.1970  151.0480  131.8650 N   0  0  0  0  0  0  0  0  0  0  0  0
  141.0620  149.9340  133.7020 O   0  0  0  0  0  0  0  0  0  0  0  0
  143.6400  151.4560  132.9430 C   0  0  0  0  0  0  0  0  0  0  0  0
  144.3610  152.6270  133.0190 C   0  0  0  0  0  0  0  0  0  0  0  0
  145.7350  152.8340  132.9960 C   0  0  0  0  0  0  0  0  0  0  0  0
  146.2050  154.1550  133.0700 C   0  0  0  0  0  0  0  0  0  0  0  0
  145.3010  155.2430  133.1780 C   0  0  0  0  0  0  0  0  0  0  0  0
  145.8120  156.6340  133.2360 C   0  0  0  0  0  0  0  0  0  0  0  0
  147.1860  156.9140  133.1640 C   0  0  0  0  0  0  0  0  0  0  0  0
  147.6240  158.1990  133.2040 N   0  0  0  0  0  0  0  0  0  0  0  0
  146.7540  159.2370  133.3250 C   0  0  0  0  0  0  0  0  0  0  0  0
  147.2390  160.5810  133.3630 N   0  0  0  0  0  0  0  0  0  0  0  0
  145.4210  158.9940  133.4100 N   0  0  0  0  0  0  0  0  0  0  0  0
  144.9360  157.7260  133.3650 C   0  0  0  0  0  0  0  0  0  0  0  0
  143.9090  154.9860  133.2130 C   0  0  0  0  0  0  0  0  0  0  0  0
  143.4710  153.6620  133.1140 C   0  0  0  0  0  0  0  0  0  0  0  0
  140.9716  156.8023  138.7379 H   0  0  0  0  0  0  0  0  0  0  0  0
  139.8457  156.2448  137.4542 H   0  0  0  0  0  0  0  0  0  0  0  0
  141.5537  155.6888  137.4542 H   0  0  0  0  0  0  0  0  0  0  0  0
  141.1405  158.9833  138.4969 H   0  0  0  0  0  0  0  0  0  0  0  0
  141.9824  159.6463  137.0552 H   0  0  0  0  0  0  0  0  0  0  0  0
  140.1934  159.4847  137.0552 H   0  0  0  0  0  0  0  0  0  0  0  0
  141.2111  159.1928  134.5017 H   0  0  0  0  0  0  0  0  0  0  0  0
  142.0809  157.9419  133.5066 H   0  0  0  0  0  0  0  0  0  0  0  0
  141.9890  155.8060  133.6290 H   0  0  0  0  0  0  0  0  0  0  0  0
  139.4030  150.3810  131.7880 H   0  0  0  0  0  0  0  0  0  0  0  0
  140.2210  151.8600  131.2140 H   0  0  0  0  0  0  0  0  0  0  0  0
  144.0367  150.4339  132.8545 H   0  0  0  0  0  0  0  0  0  0  0  0
  146.4339  151.9878  132.9220 H   0  0  0  0  0  0  0  0  0  0  0  0
  147.2875  154.3487  133.0439 H   0  0  0  0  0  0  0  0  0  0  0  0
  147.9097  156.0904  133.0750 H   0  0  0  0  0  0  0  0  0  0  0  0
  147.9120  160.8800  134.1070 H   0  0  0  0  0  0  0  0  0  0  0  0
  146.9130  161.2810  132.6610 H   0  0  0  0  0  0  0  0  0  0  0  0
  143.8517  157.5526  133.4299 H   0  0  0  0  0  0  0  0  0  0  0  0
  143.1878  155.8102  133.3159 H   0  0  0  0  0  0  0  0  0  0  0  0
  1  2  1  0
  2  3  1  0
  2  4  1  0
  4  5  2  0
  4  6  1  0
  6  7  1  0
  7  8  1  0
  8  9  2  0
  8 10  1  0
 10 11  1  0
 11 12  2  0
 11 13  1  0
 13 14  1  0
 14 15  1  0
 15 16  1  0
 15 17  2  0
 14 18  2  0
 18 19  1  0
 19 20  2  0
 20 21  1  0
 21 22  2  0
 22 23  1  0
 23 24  2  0
 24 25  1  0
 25 26  2  0
 26 27  1  0
 26 28  1  0
 28 29  2  0
 22 30  1  0
 30 31  2  0
 31 13  1  0
 31 19  1  0
 29 23  1  0
  1 32  1  0
  1 33  1  0
  1 34  1  0
  3 35  1  0
  3 36  1  0
  3 37  1  0
  6 38  1  0
  6 39  1  0
 10 40  1  0
 16 41  1  0
 16 42  1  0
 18 43  1  0
 20 44  1  0
 21 45  1  0
 24 46  1  0
 27 47  1  0
 27 48  1  0
 29 49  1  0
 30 50  1  0
M  END
>  <UniqueID>  (85) 
82

>  <SMILES>  (85) 
CN(C)C(=O)COC(=O)NC(=O)n1c(C(N)=O)cc2ccc(-c3cnc(N)nc3)cc21

>  <Energy>  (85) 
98.29846767856057

>  <Genealogy>  (85) 
CN(C)C(=O)COC(=O)NC(=O)n1c(C(N)=O)cc2ccc(-c3cnc(N)nc3)cc21 (3D coordinates assigned)
CN(C)C(=O)COC(=O)NC(=O)n1c(C(N)=O)cc2ccc(-c3cnc(N)nc3)cc21 (optimized conformer: 98.29846767856057 kcal/mol)

>  <smiles>  (85) 
CN(C)C(=O)COC(=O)NC(=O)n1c(C(N)=O)cc2ccc(-c3cnc(N)nc3)cc21

>  <score_type>  (85) 
oracle

>  <origin>  (85) 
adg

>  <m_score__min__energy>  (85) 
-8.6400000000000006

>  <m_primary>  (85) 
energy

$$$$
85:0
     RDKit          3D

 38 40  0  0  0  0  0  0  0  0999 V2000
  140.8110  159.2720  134.9220 N   0  0  0  0  0  0  0  0  0  0  0  0
  141.5630  160.0330  133.9810 C   0  0  0  0  0  0  0  0  0  0  0  0
  141.0030  160.9810  133.3650 O   0  0  0  0  0  0  0  0  0  0  0  0
  143.0010  159.7680  133.7620 C   0  0  0  0  0  0  0  0  0  0  0  0
  143.9740  160.7650  133.7840 C   0  0  0  0  0  0  0  0  0  0  0  0
  145.1730  160.1070  133.6420 C   0  0  0  0  0  0  0  0  0  0  0  0
  146.4690  160.6110  133.5820 C   0  0  0  0  0  0  0  0  0  0  0  0
  147.5220  159.7010  133.3960 C   0  0  0  0  0  0  0  0  0  0  0  0
  147.2680  158.3100  133.2840 C   0  0  0  0  0  0  0  0  0  0  0  0
  148.4030  157.3500  133.0270 C   0  0  0  0  0  0  0  0  0  0  0  0
  147.9670  156.3460  132.1840 F   0  0  0  0  0  0  0  0  0  0  0  0
  148.8420  156.7850  134.2120 F   0  0  0  0  0  0  0  0  0  0  0  0
  149.4710  158.0030  132.4380 F   0  0  0  0  0  0  0  0  0  0  0  0
  145.9350  157.8400  133.3240 C   0  0  0  0  0  0  0  0  0  0  0  0
  144.9060  158.7670  133.5300 C   0  0  0  0  0  0  0  0  0  0  0  0
  143.5750  158.5420  133.5970 N   0  0  0  0  0  0  0  0  0  0  0  0
  142.9200  157.2730  133.4420 C   0  0  0  0  0  0  0  0  0  0  0  0
  143.2270  156.5170  132.4800 O   0  0  0  0  0  0  0  0  0  0  0  0
  141.9600  156.8710  134.3750 O   0  0  0  0  0  0  0  0  0  0  0  0
  140.7020  156.3210  133.9980 C   0  0  0  0  0  0  0  0  0  0  0  0
  140.1890  157.0260  132.8740 O   0  0  0  0  0  0  0  0  0  0  0  0
  139.1020  157.9020  132.9590 C   0  0  0  0  0  0  0  0  0  0  0  0
  138.3600  157.9080  133.9790 O   0  0  0  0  0  0  0  0  0  0  0  0
  138.8240  158.8220  131.8500 C   0  0  0  0  0  0  0  0  0  0  0  0
  137.5920  159.3050  131.4620 C   0  0  0  0  0  0  0  0  0  0  0  0
  137.8400  160.1250  130.3800 C   0  0  0  0  0  0  0  0  0  0  0  0
  139.1300  160.1430  130.1220 O   0  0  0  0  0  0  0  0  0  0  0  0
  139.7500  159.3710  130.9860 C   0  0  0  0  0  0  0  0  0  0  0  0
  140.3940  158.3530  134.6570 H   0  0  0  0  0  0  0  0  0  0  0  0
  143.8165  161.8483  133.8920 H   0  0  0  0  0  0  0  0  0  0  0  0
  146.6625  161.6896  133.6774 H   0  0  0  0  0  0  0  0  0  0  0  0
  148.5561  160.0712  133.3364 H   0  0  0  0  0  0  0  0  0  0  0  0
  145.7115  156.7706  133.1962 H   0  0  0  0  0  0  0  0  0  0  0  0
  140.8300  155.2601  133.7371 H   0  0  0  0  0  0  0  0  0  0  0  0
  139.9977  156.4120  134.8381 H   0  0  0  0  0  0  0  0  0  0  0  0
  136.6163  159.0832  131.9190 H   0  0  0  0  0  0  0  0  0  0  0  0
  137.0744  160.6800  129.8179 H   0  0  0  0  0  0  0  0  0  0  0  0
  140.8347  159.1909  131.0159 H   0  0  0  0  0  0  0  0  0  0  0  0
  1  2  1  0
  2  3  2  0
  2  4  1  0
  4  5  2  0
  5  6  1  0
  6  7  2  0
  7  8  1  0
  8  9  2  0
  9 10  1  0
 10 11  1  0
 10 12  1  0
 10 13  1  0
  9 14  1  0
 14 15  2  0
 15 16  1  0
 16 17  1  0
 17 18  2  0
 17 19  1  0
 19 20  1  0
 20 21  1  0
 21 22  1  0
 22 23  2  0
 22 24  1  0
 24 25  1  0
 25 26  2  0
 26 27  1  0
 27 28  1  0
 16  4  1  0
 28 24  2  0
 15  6  1  0
  1 29  1  0
  5 30  1  0
  7 31  1  0
  8 32  1  0
 14 33  1  0
 20 34  1  0
 20 35  1  0
 25 36  1  0
 26 37  1  0
 28 38  1  0
M  CHG  1   1  -1
M  END
>  <UniqueID>  (86) 
83

>  <SMILES>  (86) 
[NH-]C(=O)c1cc2ccc(C(F)(F)F)cc2n1C(=O)OCOC(=O)c1ccoc1

>  <Energy>  (86) 
102.23597568296526

>  <Genealogy>  (86) 
[NH-]C(=O)c1cc2ccc(C(F)(F)F)cc2n1C(=O)OCOC(=O)c1ccoc1 (protonated)
[NH-]C(=O)c1cc2ccc(C(F)(F)F)cc2n1C(=O)OCOC(=O)c1ccoc1 (3D coordinates assigned)
[NH-]C(=O)c1cc2ccc(C(F)(F)F)cc2n1C(=O)OCOC(=O)c1ccoc1 (optimized conformer: 102.23597568296526 kcal/mol)

>  <smiles>  (86) 
NC(=O)c1cc2ccc(C(F)(F)F)cc2n1C(=O)OCOC(=O)c1ccoc1

>  <score_type>  (86) 
oracle

>  <origin>  (86) 
adg

>  <m_score__min__energy>  (86) 
-6.2000000000000002

>  <m_primary>  (86) 
energy

$$$$
86:0
     RDKit          3D

 38 39  0  0  0  0  0  0  0  0999 V2000
  139.7060  158.2000  135.5910 C   0  0  0  0  0  0  0  0  0  0  0  0
  140.6810  159.2240  135.1170 C   0  0  0  0  0  0  0  0  0  0  0  0
  141.5170  159.7130  135.9240 O   0  0  0  0  0  0  0  0  0  0  0  0
  140.6280  159.6780  133.7610 N   0  0  0  0  0  0  0  0  0  0  0  0
  140.7850  158.7970  132.6100 C   0  0  0  0  0  0  0  0  0  0  0  0
  141.6340  157.5800  132.9790 C   0  0  0  0  0  0  0  0  0  0  0  0
  143.0150  157.8400  132.7320 O   0  0  0  0  0  0  0  0  0  0  0  0
  143.9950  157.8100  133.7300 C   0  0  0  0  0  0  0  0  0  0  0  0
  143.8030  157.1570  134.7910 O   0  0  0  0  0  0  0  0  0  0  0  0
  145.2300  158.5200  133.5370 N   0  0  0  0  0  0  0  0  0  0  0  0
  145.4160  159.8710  133.5250 C   0  0  0  0  0  0  0  0  0  0  0  0
  144.3930  160.8810  133.8720 C   0  0  0  0  0  0  0  0  0  0  0  0
  143.0390  160.4940  134.1150 N   0  0  0  0  0  0  0  0  0  0  0  0
  144.7020  162.1010  133.9280 O   0  0  0  0  0  0  0  0  0  0  0  0
  146.7430  160.1780  133.2280 C   0  0  0  0  0  0  0  0  0  0  0  0
  147.3690  158.9640  133.0590 C   0  0  0  0  0  0  0  0  0  0  0  0
  148.6930  158.6800  132.7380 C   0  0  0  0  0  0  0  0  0  0  0  0
  149.0610  157.3310  132.5980 C   0  0  0  0  0  0  0  0  0  0  0  0
  148.1050  156.3000  132.7740 C   0  0  0  0  0  0  0  0  0  0  0  0
  148.5160  154.8650  132.6020 C   0  0  0  0  0  0  0  0  0  0  0  0
  149.8620  154.8010  132.2900 F   0  0  0  0  0  0  0  0  0  0  0  0
  148.2860  154.1690  133.7740 F   0  0  0  0  0  0  0  0  0  0  0  0
  146.7690  156.6270  133.0990 C   0  0  0  0  0  0  0  0  0  0  0  0
  146.4350  157.9790  133.2500 C   0  0  0  0  0  0  0  0  0  0  0  0
  139.6936  158.1870  136.6909 H   0  0  0  0  0  0  0  0  0  0  0  0
  138.7022  158.4482  135.2159 H   0  0  0  0  0  0  0  0  0  0  0  0
  140.0031  157.2095  135.2159 H   0  0  0  0  0  0  0  0  0  0  0  0
  139.7933  158.4585  132.2753 H   0  0  0  0  0  0  0  0  0  0  0  0
  141.2886  159.3509  131.8041 H   0  0  0  0  0  0  0  0  0  0  0  0
  141.4940  157.3511  134.0458 H   0  0  0  0  0  0  0  0  0  0  0  0
  141.3173  156.7256  132.3628 H   0  0  0  0  0  0  0  0  0  0  0  0
  142.3160  161.2200  134.3220 H   0  0  0  0  0  0  0  0  0  0  0  0
  142.7560  159.4910  134.1320 H   0  0  0  0  0  0  0  0  0  0  0  0
  147.1939  161.1780  133.1461 H   0  0  0  0  0  0  0  0  0  0  0  0
  149.4283  159.4861  132.5983 H   0  0  0  0  0  0  0  0  0  0  0  0
  150.1010  157.0730  132.3495 H   0  0  0  0  0  0  0  0  0  0  0  0
  147.9269  154.4173  131.7881 H   0  0  0  0  0  0  0  0  0  0  0  0
  146.0113  155.8404  133.2299 H   0  0  0  0  0  0  0  0  0  0  0  0
  1  2  1  0
  2  3  2  0
  2  4  1  0
  4  5  1  0
  5  6  1  0
  6  7  1  0
  7  8  1  0
  8  9  2  0
  8 10  1  0
 10 11  1  0
 11 12  1  0
 12 13  1  0
 12 14  2  0
 11 15  2  0
 15 16  1  0
 16 17  2  0
 17 18  1  0
 18 19  2  0
 19 20  1  0
 20 21  1  0
 20 22  1  0
 19 23  1  0
 23 24  2  0
 24 10  1  0
 24 16  1  0
  1 25  1  0
  1 26  1  0
  1 27  1  0
  5 28  1  0
  5 29  1  0
  6 30  1  0
  6 31  1  0
 13 32  1  0
 13 33  1  0
 15 34  1  0
 17 35  1  0
 18 36  1  0
 20 37  1  0
 23 38  1  0
M  CHG  1   4  -1
M  END
>  <UniqueID>  (87) 
84

>  <SMILES>  (87) 
CC(=O)[N-]CCOC(=O)n1c(C(N)=O)cc2ccc(C(F)F)cc21

>  <Energy>  (87) 
69.34403709739121

>  <Genealogy>  (87) 
CC(=O)[N-]CCOC(=O)n1c(C(N)=O)cc2ccc(C(F)F)cc21 (protonated)
CC(=O)[N-]CCOC(=O)n1c(C(N)=O)cc2ccc(C(F)F)cc21 (3D coordinates assigned)
CC(=O)[N-]CCOC(=O)n1c(C(N)=O)cc2ccc(C(F)F)cc21 (optimized conformer: 69.34403709739121 kcal/mol)

>  <smiles>  (87) 
CC(=O)NCCOC(=O)n1c(C(N)=O)cc2ccc(C(F)F)cc21

>  <score_type>  (87) 
oracle

>  <origin>  (87) 
adg

>  <m_score__min__energy>  (87) 
-5.71

>  <m_primary>  (87) 
energy

$$$$
87:0
     RDKit          3D

 45 46  0  0  0  0  0  0  0  0999 V2000
  139.1610  157.5210  132.6820 C   0  0  0  0  0  0  0  0  0  0  0  0
  140.0750  156.8270  133.5200 O   0  0  0  0  0  0  0  0  0  0  0  0
  140.3700  155.4680  133.3550 C   0  0  0  0  0  0  0  0  0  0  0  0
  139.4670  154.6740  132.9720 O   0  0  0  0  0  0  0  0  0  0  0  0
  141.7800  154.9870  133.6780 C   0  0  2  0  0  0  0  0  0  0  0  0
  141.7300  153.4740  133.9760 C   0  0  0  0  0  0  0  0  0  0  0  0
  142.5020  155.7320  134.7660 N   0  0  2  0  0  0  0  0  0  0  0  0
  141.6450  156.2620  135.8480 C   0  0  0  0  0  0  0  0  0  0  0  0
  143.4230  156.7640  134.2990 C   0  0  0  0  0  0  0  0  0  0  0  0
  142.9080  158.0540  133.9850 C   0  0  0  0  0  0  0  0  0  0  0  0
  143.7380  159.0740  133.4940 C   0  0  0  0  0  0  0  0  0  0  0  0
  145.0840  158.7810  133.3020 C   0  0  0  0  0  0  0  0  0  0  0  0
  146.1060  159.5820  132.8500 C   0  0  0  0  0  0  0  0  0  0  0  0
  147.2400  158.7720  132.8540 C   0  0  0  0  0  0  0  0  0  0  0  0
  148.5580  159.2160  132.3540 C   0  0  0  0  0  0  0  0  0  0  0  0
  149.1180  158.6060  131.1920 N   0  0  0  0  0  0  0  0  0  0  0  0
  149.2060  160.1160  132.9500 O   0  0  0  0  0  0  0  0  0  0  0  0
  146.9290  157.5190  133.2950 N   0  0  0  0  0  0  0  0  0  0  0  0
  147.8240  156.4150  133.5050 C   0  0  0  0  0  0  0  0  0  0  0  0
  148.7280  156.1680  132.6580 O   0  0  0  0  0  0  0  0  0  0  0  0
  147.6700  155.5980  134.6280 O   0  0  0  0  0  0  0  0  0  0  0  0
  147.2230  154.2500  134.5470 C   0  0  0  0  0  0  0  0  0  0  0  0
  146.3870  153.9380  135.7420 C   0  0  0  0  0  0  0  0  0  0  0  0
  146.8940  153.3470  136.7310 O   0  0  0  0  0  0  0  0  0  0  0  0
  145.0290  154.2310  135.7320 O   0  0  0  0  0  0  0  0  0  0  0  0
  145.6040  157.5430  133.5630 C   0  0  0  0  0  0  0  0  0  0  0  0
  144.8050  156.5120  134.0730 C   0  0  0  0  0  0  0  0  0  0  0  0
  138.4381  158.0699  133.3033 H   0  0  0  0  0  0  0  0  0  0  0  0
  139.7118  158.2305  132.0470 H   0  0  0  0  0  0  0  0  0  0  0  0
  138.6256  156.7998  132.0470 H   0  0  0  0  0  0  0  0  0  0  0  0
  142.3846  155.2019  132.7846 H   0  0  0  0  0  0  0  0  0  0  0  0
  141.7247  153.3146  135.0644 H   0  0  0  0  0  0  0  0  0  0  0  0
  140.8171  153.0440  133.5380 H   0  0  0  0  0  0  0  0  0  0  0  0
  142.6125  152.9847  133.5380 H   0  0  0  0  0  0  0  0  0  0  0  0
  143.1130  155.0150  135.2290 H   0  0  0  0  0  0  0  0  0  0  0  0
  142.0780  155.9942  136.8231 H   0  0  0  0  0  0  0  0  0  0  0  0
  141.5821  157.3569  135.7629 H   0  0  0  0  0  0  0  0  0  0  0  0
  140.6373  155.8292  135.7629 H   0  0  0  0  0  0  0  0  0  0  0  0
  141.8364  158.2555  134.1304 H   0  0  0  0  0  0  0  0  0  0  0  0
  143.3368  160.0730  133.2683 H   0  0  0  0  0  0  0  0  0  0  0  0
  146.0421  160.6381  132.5491 H   0  0  0  0  0  0  0  0  0  0  0  0
  149.1210  157.5680  131.0790 H   0  0  0  0  0  0  0  0  0  0  0  0
  146.6246  154.1150  133.6339 H   0  0  0  0  0  0  0  0  0  0  0  0
  148.0904  153.5742  134.5161 H   0  0  0  0  0  0  0  0  0  0  0  0
  145.2379  155.5254  134.2948 H   0  0  0  0  0  0  0  0  0  0  0  0
  1  2  1  0
  2  3  1  0
  3  4  2  0
  3  5  1  0
  5  6  1  0
  5  7  1  0
  7  8  1  0
  7  9  1  0
  9 10  2  0
 10 11  1  0
 11 12  2  0
 12 13  1  0
 13 14  2  0
 14 15  1  0
 15 16  1  0
 15 17  2  0
 14 18  1  0
 18 19  1  0
 19 20  2  0
 19 21  1  0
 21 22  1  0
 22 23  1  0
 23 24  2  0
 23 25  1  0
 18 26  1  0
 26 27  2  0
 27  9  1  0
 26 12  1  0
  1 28  1  0
  1 29  1  0
  1 30  1  0
  5 31  1  6
  6 32  1  0
  6 33  1  0
  6 34  1  0
  7 35  1  1
  8 36  1  0
  8 37  1  0
  8 38  1  0
 10 39  1  0
 11 40  1  0
 13 41  1  0
 16 42  1  0
 22 43  1  0
 22 44  1  0
 27 45  1  0
M  CHG  3   7   1  16  -1  25  -1
M  END
>  <UniqueID>  (88) 
85

>  <SMILES>  (88) 
COC(=O)[C@H](C)[N@H+](C)c1ccc2cc(C([NH-])=O)n(C(=O)OCC(=O)[O-])c2c1

>  <Energy>  (88) 
93.38905789323387

>  <Genealogy>  (88) 
COC(=O)C(C)[NH+](C)c1ccc2cc(C([NH-])=O)n(C(=O)OCC(=O)[O-])c2c1 (protonated)
COC(=O)[C@H](C)[N@H+](C)c1ccc2cc(C([NH-])=O)n(C(=O)OCC(=O)[O-])c2c1 (chirality)
COC(=O)[C@H](C)[N@H+](C)c1ccc2cc(C([NH-])=O)n(C(=O)OCC(=O)[O-])c2c1 (3D coordinates assigned)
COC(=O)[C@H](C)[N@H+](C)c1ccc2cc(C([NH-])=O)n(C(=O)OCC(=O)[O-])c2c1 (optimized conformer: 93.38905789323387 kcal/mol)

>  <smiles>  (88) 
COC(=O)C(C)N(C)c1ccc2cc(C(N)=O)n(C(=O)OCC(=O)O)c2c1

>  <score_type>  (88) 
oracle

>  <origin>  (88) 
adg

>  <m_score__min__energy>  (88) 
-6.04

>  <m_primary>  (88) 
energy

$$$$
88:0
     RDKit          3D

 31 32  0  0  0  0  0  0  0  0999 V2000
  145.2560  160.6140  132.9880 N   0  0  0  0  0  0  0  0  0  0  0  0
  144.7460  159.5020  133.7260 C   0  0  0  0  0  0  0  0  0  0  0  0
  143.7410  159.6640  134.4680 O   0  0  0  0  0  0  0  0  0  0  0  0
  145.3340  158.1550  133.5840 C   0  0  0  0  0  0  0  0  0  0  0  0
  144.5710  156.9950  133.4760 C   0  0  0  0  0  0  0  0  0  0  0  0
  145.4810  155.9790  133.3000 C   0  0  0  0  0  0  0  0  0  0  0  0
  145.2720  154.6130  133.1420 C   0  0  0  0  0  0  0  0  0  0  0  0
  146.3990  153.7850  133.0110 C   0  0  0  0  0  0  0  0  0  0  0  0
  147.7090  154.3280  133.0680 C   0  0  0  0  0  0  0  0  0  0  0  0
  148.9080  153.4310  132.8900 C   0  0  0  0  0  0  0  0  0  0  0  0
  149.1880  152.7510  134.0630 F   0  0  0  0  0  0  0  0  0  0  0  0
  148.6460  152.5140  131.8890 F   0  0  0  0  0  0  0  0  0  0  0  0
  150.0250  154.1710  132.5420 F   0  0  0  0  0  0  0  0  0  0  0  0
  147.8780  155.7240  133.2090 C   0  0  0  0  0  0  0  0  0  0  0  0
  146.7370  156.5300  133.3160 C   0  0  0  0  0  0  0  0  0  0  0  0
  146.6630  157.8690  133.4920 N   0  0  0  0  0  0  0  0  0  0  0  0
  147.7610  158.7780  133.6780 C   0  0  0  0  0  0  0  0  0  0  0  0
  148.6310  158.5400  134.5580 O   0  0  0  0  0  0  0  0  0  0  0  0
  147.8510  159.9230  132.8740 O   0  0  0  0  0  0  0  0  0  0  0  0
  148.1320  159.9250  131.5020 C   0  0  0  0  0  0  0  0  0  0  0  0
  147.3480  160.4660  130.6740 O   0  0  0  0  0  0  0  0  0  0  0  0
  149.3950  159.2840  131.0250 C   0  0  0  0  0  0  0  0  0  0  0  0
  150.3900  160.2400  130.9400 F   0  0  0  0  0  0  0  0  0  0  0  0
  149.2110  158.7090  129.7780 F   0  0  0  0  0  0  0  0  0  0  0  0
  149.7810  158.3050  131.9200 F   0  0  0  0  0  0  0  0  0  0  0  0
  144.8570  161.5670  133.1340 H   0  0  0  0  0  0  0  0  0  0  0  0
  145.9780  160.4820  132.2440 H   0  0  0  0  0  0  0  0  0  0  0  0
  143.4753  156.9097  133.5217 H   0  0  0  0  0  0  0  0  0  0  0  0
  144.2552  154.1940  133.1203 H   0  0  0  0  0  0  0  0  0  0  0  0
  146.2647  152.7034  132.8625 H   0  0  0  0  0  0  0  0  0  0  0  0
  148.8840  156.1683  133.2342 H   0  0  0  0  0  0  0  0  0  0  0  0
  1  2  1  0
  2  3  2  0
  2  4  1  0
  4  5  2  0
  5  6  1  0
  6  7  2  0
  7  8  1  0
  8  9  2  0
  9 10  1  0
 10 11  1  0
 10 12  1  0
 10 13  1  0
  9 14  1  0
 14 15  2  0
 15 16  1  0
 16 17  1  0
 17 18  2  0
 17 19  1  0
 19 20  1  0
 20 21  2  0
 20 22  1  0
 22 23  1  0
 22 24  1  0
 22 25  1  0
 16  4  1  0
 15  6  1  0
  1 26  1  0
  1 27  1  0
  5 28  1  0
  7 29  1  0
  8 30  1  0
 14 31  1  0
M  END
>  <UniqueID>  (89) 
86

>  <SMILES>  (89) 
NC(=O)c1cc2ccc(C(F)(F)F)cc2n1C(=O)OC(=O)C(F)(F)F

>  <Energy>  (89) 
71.05783657611431

>  <Genealogy>  (89) 
NC(=O)c1cc2ccc(C(F)(F)F)cc2n1C(=O)OC(=O)C(F)(F)F (3D coordinates assigned)
NC(=O)c1cc2ccc(C(F)(F)F)cc2n1C(=O)OC(=O)C(F)(F)F (optimized conformer: 71.05783657611431 kcal/mol)

>  <smiles>  (89) 
NC(=O)c1cc2ccc(C(F)(F)F)cc2n1C(=O)OC(=O)C(F)(F)F

>  <score_type>  (89) 
oracle

>  <origin>  (89) 
adg

>  <m_score__min__energy>  (89) 
-6.1100000000000003

>  <m_primary>  (89) 
energy

$$$$
89:0
     RDKit          3D

 38 39  0  0  0  0  0  0  0  0999 V2000
  147.1160  152.6100  132.6430 C   0  0  0  0  0  0  0  0  0  0  0  0
  148.4170  153.2790  132.5290 N   0  0  0  0  0  0  0  0  0  0  0  0
  149.6420  152.4830  132.3950 C   0  0  0  0  0  0  0  0  0  0  0  0
  148.5160  154.7190  132.5690 C   0  0  0  0  0  0  0  0  0  0  0  0
  149.6570  155.2620  132.5760 O   0  0  0  0  0  0  0  0  0  0  0  0
  147.2840  155.5850  132.6740 C   0  0  0  0  0  0  0  0  0  0  0  0
  147.4910  156.7520  133.6010 C   0  0  0  0  0  0  0  0  0  0  0  0
  148.1900  156.6020  134.6390 O   0  0  0  0  0  0  0  0  0  0  0  0
  146.8300  158.0030  133.3620 N   0  0  0  0  0  0  0  0  0  0  0  0
  147.3450  159.1250  132.7840 C   0  0  0  0  0  0  0  0  0  0  0  0
  148.7640  159.3180  132.4090 C   0  0  0  0  0  0  0  0  0  0  0  0
  149.7200  158.2740  132.6010 N   0  0  0  0  0  0  0  0  0  0  0  0
  149.1390  160.4050  131.8960 O   0  0  0  0  0  0  0  0  0  0  0  0
  146.3630  160.1100  132.6800 C   0  0  0  0  0  0  0  0  0  0  0  0
  145.2260  159.5520  133.2220 C   0  0  0  0  0  0  0  0  0  0  0  0
  143.9540  160.0890  133.3860 C   0  0  0  0  0  0  0  0  0  0  0  0
  142.9680  159.2780  133.9740 C   0  0  0  0  0  0  0  0  0  0  0  0
  143.2620  157.9460  134.3670 C   0  0  0  0  0  0  0  0  0  0  0  0
  142.2070  157.1010  135.0350 C   0  0  0  0  0  0  0  0  0  0  0  0
  141.3390  156.5700  134.0950 F   0  0  0  0  0  0  0  0  0  0  0  0
  141.4680  157.8550  135.9290 F   0  0  0  0  0  0  0  0  0  0  0  0
  142.8190  156.0650  135.7170 F   0  0  0  0  0  0  0  0  0  0  0  0
  144.5750  157.4470  134.2060 C   0  0  0  0  0  0  0  0  0  0  0  0
  145.5360  158.2810  133.6270 C   0  0  0  0  0  0  0  0  0  0  0  0
  146.8626  152.4797  133.7054 H   0  0  0  0  0  0  0  0  0  0  0  0
  146.3444  153.2231  132.1545 H   0  0  0  0  0  0  0  0  0  0  0  0
  147.1658  151.6257  132.1545 H   0  0  0  0  0  0  0  0  0  0  0  0
  150.0276  152.2324  133.3943 H   0  0  0  0  0  0  0  0  0  0  0  0
  149.4191  151.5567  131.8451 H   0  0  0  0  0  0  0  0  0  0  0  0
  150.3978  153.0630  131.8451 H   0  0  0  0  0  0  0  0  0  0  0  0
  147.0323  155.9668  131.6736 H   0  0  0  0  0  0  0  0  0  0  0  0
  146.4696  154.9682  133.0818 H   0  0  0  0  0  0  0  0  0  0  0  0
  150.7110  158.4110  132.2990 H   0  0  0  0  0  0  0  0  0  0  0  0
  149.4650  157.3830  133.0810 H   0  0  0  0  0  0  0  0  0  0  0  0
  146.4731  161.1187  132.2552 H   0  0  0  0  0  0  0  0  0  0  0  0
  143.7264  161.1164  133.0656 H   0  0  0  0  0  0  0  0  0  0  0  0
  141.9564  159.6803  134.1315 H   0  0  0  0  0  0  0  0  0  0  0  0
  144.8340  156.4277  134.5284 H   0  0  0  0  0  0  0  0  0  0  0  0
  1  2  1  0
  2  3  1  0
  2  4  1  0
  4  5  2  0
  4  6  1  0
  6  7  1  0
  7  8  2  0
  7  9  1  0
  9 10  1  0
 10 11  1  0
 11 12  1  0
 11 13  2  0
 10 14  2  0
 14 15  1  0
 15 16  2  0
 16 17  1  0
 17 18  2  0
 18 19  1  0
 19 20  1  0
 19 21  1  0
 19 22  1  0
 18 23  1  0
 23 24  2  0
 24  9  1  0
 24 15  1  0
  1 25  1  0
  1 26  1  0
  1 27  1  0
  3 28  1  0
  3 29  1  0
  3 30  1  0
  6 31  1  0
  6 32  1  0
 12 33  1  0
 12 34  1  0
 14 35  1  0
 16 36  1  0
 17 37  1  0
 23 38  1  0
M  END
>  <UniqueID>  (90) 
87

>  <SMILES>  (90) 
CN(C)C(=O)CC(=O)n1c(C(N)=O)cc2ccc(C(F)(F)F)cc21

>  <Energy>  (90) 
75.1680417780828

>  <Genealogy>  (90) 
CN(C)C(=O)CC(=O)n1c(C(N)=O)cc2ccc(C(F)(F)F)cc21 (3D coordinates assigned)
CN(C)C(=O)CC(=O)n1c(C(N)=O)cc2ccc(C(F)(F)F)cc21 (optimized conformer: 75.1680417780828 kcal/mol)

>  <smiles>  (90) 
CN(C)C(=O)CC(=O)n1c(C(N)=O)cc2ccc(C(F)(F)F)cc21

>  <score_type>  (90) 
oracle

>  <origin>  (90) 
adg

>  <m_score__min__energy>  (90) 
-6.75

>  <m_primary>  (90) 
energy

$$$$
90:0
     RDKit          3D

 43 44  0  0  0  0  0  0  0  0999 V2000
  144.3470  153.5830  133.7690 C   0  0  0  0  0  0  0  0  0  0  0  0
  143.8450  153.4790  135.0960 O   0  0  0  0  0  0  0  0  0  0  0  0
  142.7940  154.2680  135.5690 C   0  0  0  0  0  0  0  0  0  0  0  0
  141.6460  154.1790  135.0520 O   0  0  0  0  0  0  0  0  0  0  0  0
  143.0320  155.1760  136.6500 N   0  0  0  0  0  0  0  0  0  0  0  0
  141.9960  156.0560  137.1890 C   0  0  0  0  0  0  0  0  0  0  0  0
  141.7120  157.2220  136.2370 C   0  0  0  0  0  0  0  0  0  0  0  0
  142.3050  156.9910  134.9160 N   0  0  0  0  0  0  0  0  0  0  0  0
  143.3500  157.8150  134.3660 C   0  0  0  0  0  0  0  0  0  0  0  0
  143.1380  159.1890  134.0680 C   0  0  0  0  0  0  0  0  0  0  0  0
  144.1680  159.9710  133.5200 C   0  0  0  0  0  0  0  0  0  0  0  0
  145.3980  159.3650  133.2890 C   0  0  0  0  0  0  0  0  0  0  0  0
  146.5500  159.8800  132.7420 C   0  0  0  0  0  0  0  0  0  0  0  0
  147.4600  158.8260  132.7360 C   0  0  0  0  0  0  0  0  0  0  0  0
  148.8660  158.9670  132.3040 C   0  0  0  0  0  0  0  0  0  0  0  0
  149.6630  157.8220  132.0120 N   0  0  0  0  0  0  0  0  0  0  0  0
  149.3870  160.1130  132.2390 O   0  0  0  0  0  0  0  0  0  0  0  0
  146.8900  157.6990  133.2510 N   0  0  0  0  0  0  0  0  0  0  0  0
  147.4600  156.3840  133.3270 C   0  0  0  0  0  0  0  0  0  0  0  0
  147.7320  155.7540  132.2690 O   0  0  0  0  0  0  0  0  0  0  0  0
  147.7310  155.8160  134.5780 O   0  0  0  0  0  0  0  0  0  0  0  0
  147.6970  154.4130  134.8240 C   0  0  0  0  0  0  0  0  0  0  0  0
  146.8180  154.1110  135.9960 C   0  0  0  0  0  0  0  0  0  0  0  0
  145.8370  154.8530  136.2620 O   0  0  0  0  0  0  0  0  0  0  0  0
  147.0690  152.9920  136.7800 O   0  0  0  0  0  0  0  0  0  0  0  0
  145.6280  158.0470  133.5870 C   0  0  0  0  0  0  0  0  0  0  0  0
  144.6160  157.2390  134.1160 C   0  0  0  0  0  0  0  0  0  0  0  0
  145.4237  153.8060  133.8007 H   0  0  0  0  0  0  0  0  0  0  0  0
  144.1849  152.6322  133.2401 H   0  0  0  0  0  0  0  0  0  0  0  0
  143.8206  154.3912  133.2401 H   0  0  0  0  0  0  0  0  0  0  0  0
  143.9730  155.1720  137.1050 H   0  0  0  0  0  0  0  0  0  0  0  0
  141.0720  155.4768  137.3331 H   0  0  0  0  0  0  0  0  0  0  0  0
  142.3493  156.4654  138.1469 H   0  0  0  0  0  0  0  0  0  0  0  0
  140.6236  157.3362  136.1257 H   0  0  0  0  0  0  0  0  0  0  0  0
  142.1586  158.1328  136.6624 H   0  0  0  0  0  0  0  0  0  0  0  0
  141.9530  156.1940  134.3380 H   0  0  0  0  0  0  0  0  0  0  0  0
  142.1570  159.6443  134.2687 H   0  0  0  0  0  0  0  0  0  0  0  0
  144.0063  161.0323  133.2805 H   0  0  0  0  0  0  0  0  0  0  0  0
  146.7171  160.9069  132.3849 H   0  0  0  0  0  0  0  0  0  0  0  0
  149.2690  157.0150  131.4800 H   0  0  0  0  0  0  0  0  0  0  0  0
  147.3048  153.8983  133.9345 H   0  0  0  0  0  0  0  0  0  0  0  0
  148.7169  154.0640  135.0432 H   0  0  0  0  0  0  0  0  0  0  0  0
  144.8019  156.1768  134.3330 H   0  0  0  0  0  0  0  0  0  0  0  0
  1  2  1  0
  2  3  1  0
  3  4  2  0
  3  5  1  0
  5  6  1  0
  6  7  1  0
  7  8  1  0
  8  9  1  0
  9 10  2  0
 10 11  1  0
 11 12  2  0
 12 13  1  0
 13 14  2  0
 14 15  1  0
 15 16  1  0
 15 17  2  0
 14 18  1  0
 18 19  1  0
 19 20  2  0
 19 21  1  0
 21 22  1  0
 22 23  1  0
 23 24  2  0
 23 25  1  0
 18 26  1  0
 26 27  2  0
 27  9  1  0
 26 12  1  0
  1 28  1  0
  1 29  1  0
  1 30  1  0
  5 31  1  0
  6 32  1  0
  6 33  1  0
  7 34  1  0
  7 35  1  0
  8 36  1  0
 10 37  1  0
 11 38  1  0
 13 39  1  0
 16 40  1  0
 22 41  1  0
 22 42  1  0
 27 43  1  0
M  CHG  2  16  -1  25  -1
M  END
>  <UniqueID>  (91) 
88

>  <SMILES>  (91) 
COC(=O)NCCNc1ccc2cc(C([NH-])=O)n(C(=O)OCC(=O)[O-])c2c1

>  <Energy>  (91) 
72.78525261339337

>  <Genealogy>  (91) 
COC(=O)NCCNc1ccc2cc(C([NH-])=O)n(C(=O)OCC(=O)[O-])c2c1 (protonated)
COC(=O)NCCNc1ccc2cc(C([NH-])=O)n(C(=O)OCC(=O)[O-])c2c1 (3D coordinates assigned)
COC(=O)NCCNc1ccc2cc(C([NH-])=O)n(C(=O)OCC(=O)[O-])c2c1 (optimized conformer: 72.78525261339337 kcal/mol)

>  <smiles>  (91) 
COC(=O)NCCNc1ccc2cc(C(N)=O)n(C(=O)OCC(=O)O)c2c1

>  <score_type>  (91) 
oracle

>  <origin>  (91) 
adg

>  <m_score__min__energy>  (91) 
-7.1500000000000004

>  <m_primary>  (91) 
energy

$$$$
91:0
     RDKit          3D

 48 50  0  0  0  0  0  0  0  0999 V2000
  149.8940  153.4040  132.2430 C   0  0  0  0  0  0  0  0  0  0  0  0
  149.4070  152.0280  132.7420 C   0  0  0  0  0  0  0  0  0  0  0  0
  150.3930  150.9280  132.2990 C   0  0  0  0  0  0  0  0  0  0  0  0
  149.3240  152.0410  134.1480 O   0  0  0  0  0  0  0  0  0  0  0  0
  147.9900  151.7430  132.1960 C   0  0  0  0  0  0  0  0  0  0  0  0
  146.9770  152.3540  132.9960 O   0  0  0  0  0  0  0  0  0  0  0  0
  145.6080  152.2810  132.7130 C   0  0  0  0  0  0  0  0  0  0  0  0
  145.1730  151.4560  131.8650 O   0  0  0  0  0  0  0  0  0  0  0  0
  144.6980  153.1750  133.3720 N   0  0  0  0  0  0  0  0  0  0  0  0
  145.0020  154.2750  134.1170 C   0  0  0  0  0  0  0  0  0  0  0  0
  146.3580  154.6910  134.5340 C   0  0  0  0  0  0  0  0  0  0  0  0
  147.1630  153.8060  135.3100 N   0  0  0  0  0  0  0  0  0  0  0  0
  146.8260  155.8060  134.1860 O   0  0  0  0  0  0  0  0  0  0  0  0
  143.8390  154.9340  134.5120 C   0  0  0  0  0  0  0  0  0  0  0  0
  142.8050  154.1960  133.9810 C   0  0  0  0  0  0  0  0  0  0  0  0
  141.4320  154.4060  134.0480 C   0  0  0  0  0  0  0  0  0  0  0  0
  140.5930  153.5010  133.3760 C   0  0  0  0  0  0  0  0  0  0  0  0
  141.1390  152.4100  132.6440 C   0  0  0  0  0  0  0  0  0  0  0  0
  140.3000  151.4750  131.9350 N   0  0  0  0  0  0  0  0  0  0  0  0
  140.0690  150.0880  132.3670 C   0  0  2  0  0  0  0  0  0  0  0  0
  141.1550  149.1830  131.8530 C   0  0  0  0  0  0  0  0  0  0  0  0
  140.6010  148.6860  130.5290 C   0  0  0  0  0  0  0  0  0  0  0  0
  139.2110  148.9160  130.4780 O   0  0  0  0  0  0  0  0  0  0  0  0
  138.8340  149.5010  131.7020 C   0  0  0  0  0  0  0  0  0  0  0  0
  142.5410  152.2350  132.6040 C   0  0  0  0  0  0  0  0  0  0  0  0
  143.3490  153.1410  133.2990 C   0  0  0  0  0  0  0  0  0  0  0  0
  150.1217  154.0473  133.1057 H   0  0  0  0  0  0  0  0  0  0  0  0
  150.8005  153.2733  131.6337 H   0  0  0  0  0  0  0  0  0  0  0  0
  149.1071  153.8726  131.6337 H   0  0  0  0  0  0  0  0  0  0  0  0
  150.8263  150.4446  133.1871 H   0  0  0  0  0  0  0  0  0  0  0  0
  149.8592  150.1779  131.6970 H   0  0  0  0  0  0  0  0  0  0  0  0
  151.1968  151.3769  131.6970 H   0  0  0  0  0  0  0  0  0  0  0  0
  148.3830  152.2370  134.4010 H   0  0  0  0  0  0  0  0  0  0  0  0
  147.9184  152.1357  131.1710 H   0  0  0  0  0  0  0  0  0  0  0  0
  147.8298  150.6549  132.2165 H   0  0  0  0  0  0  0  0  0  0  0  0
  147.4790  152.8890  134.9230 H   0  0  0  0  0  0  0  0  0  0  0  0
  143.7634  155.8486  135.1185 H   0  0  0  0  0  0  0  0  0  0  0  0
  141.0153  155.2548  134.6100 H   0  0  0  0  0  0  0  0  0  0  0  0
  139.5023  153.6375  133.4163 H   0  0  0  0  0  0  0  0  0  0  0  0
  139.8190  151.8170  131.0720 H   0  0  0  0  0  0  0  0  0  0  0  0
  140.0007  150.1338  133.4639 H   0  0  0  0  0  0  0  0  0  0  0  0
  142.0926  149.7385  131.7038 H   0  0  0  0  0  0  0  0  0  0  0  0
  141.4002  148.3676  132.5494 H   0  0  0  0  0  0  0  0  0  0  0  0
  141.0908  149.2229  129.7033 H   0  0  0  0  0  0  0  0  0  0  0  0
  140.7949  147.6073  130.4354 H   0  0  0  0  0  0  0  0  0  0  0  0
  138.0985  150.2983  131.5194 H   0  0  0  0  0  0  0  0  0  0  0  0
  138.3839  148.7400  132.3564 H   0  0  0  0  0  0  0  0  0  0  0  0
  142.9873  151.4039  132.0383 H   0  0  0  0  0  0  0  0  0  0  0  0
  1  2  1  0
  2  3  1  0
  2  4  1  0
  2  5  1  0
  5  6  1  0
  6  7  1  0
  7  8  2  0
  7  9  1  0
  9 10  1  0
 10 11  1  0
 11 12  1  0
 11 13  2  0
 10 14  2  0
 14 15  1  0
 15 16  2  0
 16 17  1  0
 17 18  2  0
 18 19  1  0
 19 20  1  0
 20 21  1  0
 21 22  1  0
 22 23  1  0
 23 24  1  0
 18 25  1  0
 25 26  2  0
 26  9  1  0
 26 15  1  0
 24 20  1  0
  1 27  1  0
  1 28  1  0
  1 29  1  0
  3 30  1  0
  3 31  1  0
  3 32  1  0
  4 33  1  0
  5 34  1  0
  5 35  1  0
 12 36  1  0
 14 37  1  0
 16 38  1  0
 17 39  1  0
 19 40  1  0
 20 41  1  1
 21 42  1  0
 21 43  1  0
 22 44  1  0
 22 45  1  0
 24 46  1  0
 24 47  1  0
 25 48  1  0
M  CHG  1  12  -1
M  END
>  <UniqueID>  (92) 
89

>  <SMILES>  (92) 
CC(C)(O)COC(=O)n1c(C([NH-])=O)cc2ccc(N[C@@H]3CCOC3)cc21

>  <Energy>  (92) 
84.48149645279297

>  <Genealogy>  (92) 
CC(C)(O)COC(=O)n1c(C([NH-])=O)cc2ccc(N[C@@H]3CCOC3)cc21 (protonated)
CC(C)(O)COC(=O)n1c(C([NH-])=O)cc2ccc(N[C@@H]3CCOC3)cc21 (3D coordinates assigned)
CC(C)(O)COC(=O)n1c(C([NH-])=O)cc2ccc(N[C@@H]3CCOC3)cc21 (nonaromatic ring conformer: 84.48149645279297 kcal/mol)

>  <smiles>  (92) 
CC(C)(O)COC(=O)n1c(C(N)=O)cc2ccc(N[C@@H]3CCOC3)cc21

>  <score_type>  (92) 
oracle

>  <origin>  (92) 
adg

>  <m_score__min__energy>  (92) 
-7.5499999999999998

>  <m_primary>  (92) 
energy

$$$$
92:0
     RDKit          3D

 41 42  0  0  0  0  0  0  0  0999 V2000
  139.5900  156.1230  133.3090 C   0  0  0  0  0  0  0  0  0  0  0  0
  138.7540  157.2720  133.3680 O   0  0  0  0  0  0  0  0  0  0  0  0
  138.8980  158.3510  132.4880 C   0  0  0  0  0  0  0  0  0  0  0  0
  137.9530  158.6900  131.7240 O   0  0  0  0  0  0  0  0  0  0  0  0
  140.1700  159.1380  132.4820 C   0  0  0  0  0  0  0  0  0  0  0  0
  140.6480  159.3230  133.8460 N   0  0  0  0  0  0  0  0  0  0  0  0
  141.9680  158.9650  134.2660 C   0  0  0  0  0  0  0  0  0  0  0  0
  142.9450  159.7250  134.0170 O   0  0  0  0  0  0  0  0  0  0  0  0
  142.1850  157.6970  135.0300 C   0  0  0  0  0  0  0  0  0  0  0  0
  141.6730  157.8280  136.4060 N   0  0  0  0  0  0  0  0  0  0  0  0
  141.3660  159.1780  136.9080 C   0  0  0  0  0  0  0  0  0  0  0  0
  141.4310  156.6570  137.2440 C   0  0  0  0  0  0  0  0  0  0  0  0
  141.0480  156.7950  138.6110 C   0  0  0  0  0  0  0  0  0  0  0  0
  140.8220  155.6730  139.4220 C   0  0  0  0  0  0  0  0  0  0  0  0
  140.9800  154.4140  138.8590 C   0  0  0  0  0  0  0  0  0  0  0  0
  140.7990  153.1690  139.4150 C   0  0  0  0  0  0  0  0  0  0  0  0
  141.0810  152.2670  138.3960 C   0  0  0  0  0  0  0  0  0  0  0  0
  141.0850  150.7990  138.5840 C   0  0  0  0  0  0  0  0  0  0  0  0
  140.0900  150.0020  137.9430 N   0  0  0  0  0  0  0  0  0  0  0  0
  141.9330  150.2420  139.3320 O   0  0  0  0  0  0  0  0  0  0  0  0
  141.4230  152.9280  137.2530 N   0  0  0  0  0  0  0  0  0  0  0  0
  141.7330  152.3640  135.9650 C   0  0  0  0  0  0  0  0  0  0  0  0
  142.6420  152.8690  135.2510 O   0  0  0  0  0  0  0  0  0  0  0  0
  141.0520  151.2430  135.5110 O   0  0  0  0  0  0  0  0  0  0  0  0
  141.3570  154.2430  137.5560 C   0  0  0  0  0  0  0  0  0  0  0  0
  141.5770  155.3420  136.7160 C   0  0  0  0  0  0  0  0  0  0  0  0
  139.8308  155.7920  134.3300 H   0  0  0  0  0  0  0  0  0  0  0  0
  139.0666  155.3157  132.7757 H   0  0  0  0  0  0  0  0  0  0  0  0
  140.5191  156.3726  132.7757 H   0  0  0  0  0  0  0  0  0  0  0  0
  140.9304  158.5969  131.8998 H   0  0  0  0  0  0  0  0  0  0  0  0
  139.9834  160.1225  132.0281 H   0  0  0  0  0  0  0  0  0  0  0  0
  141.6571  156.8751  134.5243 H   0  0  0  0  0  0  0  0  0  0  0  0
  143.2640  157.4871  135.0709 H   0  0  0  0  0  0  0  0  0  0  0  0
  141.3680  159.1694  138.0080 H   0  0  0  0  0  0  0  0  0  0  0  0
  142.1261  159.8856  136.5455 H   0  0  0  0  0  0  0  0  0  0  0  0
  140.3746  159.4873  136.5455 H   0  0  0  0  0  0  0  0  0  0  0  0
  140.9274  157.8016  139.0379 H   0  0  0  0  0  0  0  0  0  0  0  0
  140.5275  155.7877  140.4756 H   0  0  0  0  0  0  0  0  0  0  0  0
  140.4956  152.9367  140.4465 H   0  0  0  0  0  0  0  0  0  0  0  0
  140.0840  149.8780  136.9080 H   0  0  0  0  0  0  0  0  0  0  0  0
  141.8586  155.1918  135.6633 H   0  0  0  0  0  0  0  0  0  0  0  0
  1  2  1  0
  2  3  1  0
  3  4  2  0
  3  5  1  0
  5  6  1  0
  6  7  1  0
  7  8  2  0
  7  9  1  0
  9 10  1  0
 10 11  1  0
 10 12  1  0
 12 13  2  0
 13 14  1  0
 14 15  2  0
 15 16  1  0
 16 17  2  0
 17 18  1  0
 18 19  1  0
 18 20  2  0
 17 21  1  0
 21 22  1  0
 22 23  2  0
 22 24  1  0
 21 25  1  0
 25 26  2  0
 26 12  1  0
 25 15  1  0
  1 27  1  0
  1 28  1  0
  1 29  1  0
  5 30  1  0
  5 31  1  0
  9 32  1  0
  9 33  1  0
 11 34  1  0
 11 35  1  0
 11 36  1  0
 13 37  1  0
 14 38  1  0
 16 39  1  0
 19 40  1  0
 26 41  1  0
M  CHG  3   6  -1  19  -1  24  -1
M  END
>  <UniqueID>  (93) 
90

>  <SMILES>  (93) 
COC(=O)C[N-]C(=O)CN(C)c1ccc2cc(C([NH-])=O)n(C(=O)[O-])c2c1

>  <Energy>  (93) 
74.25860364011619

>  <Genealogy>  (93) 
COC(=O)C[N-]C(=O)CN(C)c1ccc2cc(C([NH-])=O)n(C(=O)[O-])c2c1 (protonated)
COC(=O)C[N-]C(=O)CN(C)c1ccc2cc(C([NH-])=O)n(C(=O)[O-])c2c1 (3D coordinates assigned)
COC(=O)C[N-]C(=O)CN(C)c1ccc2cc(C([NH-])=O)n(C(=O)[O-])c2c1 (optimized conformer: 74.25860364011619 kcal/mol)

>  <smiles>  (93) 
COC(=O)CNC(=O)CN(C)c1ccc2cc(C(N)=O)n(C(=O)O)c2c1

>  <score_type>  (93) 
oracle

>  <origin>  (93) 
adg

>  <m_score__min__energy>  (93) 
-6.6699999999999999

>  <m_primary>  (93) 
energy

$$$$
93:0
     RDKit          3D

 40 41  0  0  0  0  0  0  0  0999 V2000
  148.6260  161.3060  130.7580 C   0  0  0  0  0  0  0  0  0  0  0  0
  148.3900  160.0370  131.5200 C   0  0  0  0  0  0  0  0  0  0  0  0
  149.4620  159.1430  131.7610 C   0  0  0  0  0  0  0  0  0  0  0  0
  149.2590  157.9630  132.4970 C   0  0  0  0  0  0  0  0  0  0  0  0
  147.9820  157.7150  132.9920 C   0  0  0  0  0  0  0  0  0  0  0  0
  147.5020  156.6440  133.7120 C   0  0  0  0  0  0  0  0  0  0  0  0
  146.1510  156.9190  133.9280 C   0  0  0  0  0  0  0  0  0  0  0  0
  145.2500  156.0430  134.7060 C   0  0  0  0  0  0  0  0  0  0  0  0
  145.7600  155.1710  135.7100 N   0  0  0  0  0  0  0  0  0  0  0  0
  144.0140  156.0450  134.4620 O   0  0  0  0  0  0  0  0  0  0  0  0
  145.8140  158.1140  133.3640 N   0  0  0  0  0  0  0  0  0  0  0  0
  144.5140  158.7170  133.2990 C   0  0  0  0  0  0  0  0  0  0  0  0
  143.6160  158.1630  132.6090 O   0  0  0  0  0  0  0  0  0  0  0  0
  144.2340  159.9640  134.0480 C   0  0  0  0  0  0  0  0  0  0  0  0
  144.9960  160.9520  133.8820 O   0  0  0  0  0  0  0  0  0  0  0  0
  143.1360  160.1010  134.9610 N   0  0  0  0  0  0  0  0  0  0  0  0
  141.8330  159.4600  134.8450 C   0  0  0  0  0  0  0  0  0  0  0  0
  141.0890  160.0500  133.6820 C   0  0  0  0  0  0  0  0  0  0  0  0
  141.3340  161.2440  133.3570 O   0  0  0  0  0  0  0  0  0  0  0  0
  140.0810  159.3050  132.9630 N   0  0  0  0  0  0  0  0  0  0  0  0
  139.3540  159.9610  131.8710 C   0  0  0  0  0  0  0  0  0  0  0  0
  139.7800  157.9120  133.3110 C   0  0  0  0  0  0  0  0  0  0  0  0
  146.9430  158.5850  132.7920 C   0  0  0  0  0  0  0  0  0  0  0  0
  147.1100  159.7590  132.0500 C   0  0  0  0  0  0  0  0  0  0  0  0
  148.7801  162.1348  131.4647 H   0  0  0  0  0  0  0  0  0  0  0  0
  149.5185  161.1930  130.1251 H   0  0  0  0  0  0  0  0  0  0  0  0
  147.7525  161.5215  130.1251 H   0  0  0  0  0  0  0  0  0  0  0  0
  150.4631  159.3746  131.3683 H   0  0  0  0  0  0  0  0  0  0  0  0
  150.0837  157.2574  132.6762 H   0  0  0  0  0  0  0  0  0  0  0  0
  148.0641  155.7594  134.0460 H   0  0  0  0  0  0  0  0  0  0  0  0
  145.4370  155.2440  136.7000 H   0  0  0  0  0  0  0  0  0  0  0  0
  141.9681  158.3802  134.6846 H   0  0  0  0  0  0  0  0  0  0  0  0
  141.2594  159.6234  135.7693 H   0  0  0  0  0  0  0  0  0  0  0  0
  138.5990  160.6423  132.2904 H   0  0  0  0  0  0  0  0  0  0  0  0
  140.0606  160.5332  131.2518 H   0  0  0  0  0  0  0  0  0  0  0  0
  138.8572  159.1996  131.2518 H   0  0  0  0  0  0  0  0  0  0  0  0
  139.7567  157.8043  134.4055 H   0  0  0  0  0  0  0  0  0  0  0  0
  138.8009  157.6333  132.8942 H   0  0  0  0  0  0  0  0  0  0  0  0
  140.5567  157.2539  132.8942 H   0  0  0  0  0  0  0  0  0  0  0  0
  146.2679  160.4469  131.8837 H   0  0  0  0  0  0  0  0  0  0  0  0
  1  2  1  0
  2  3  2  0
  3  4  1  0
  4  5  2  0
  5  6  1  0
  6  7  2  0
  7  8  1  0
  8  9  1  0
  8 10  2  0
  7 11  1  0
 11 12  1  0
 12 13  2  0
 12 14  1  0
 14 15  2  0
 14 16  1  0
 16 17  1  0
 17 18  1  0
 18 19  2  0
 18 20  1  0
 20 21  1  0
 20 22  1  0
 11 23  1  0
 23 24  2  0
 24  2  1  0
 23  5  1  0
  1 25  1  0
  1 26  1  0
  1 27  1  0
  3 28  1  0
  4 29  1  0
  6 30  1  0
  9 31  1  0
 17 32  1  0
 17 33  1  0
 21 34  1  0
 21 35  1  0
 21 36  1  0
 22 37  1  0
 22 38  1  0
 22 39  1  0
 24 40  1  0
M  CHG  2   9  -1  16  -1
M  END
>  <UniqueID>  (94) 
91

>  <SMILES>  (94) 
Cc1ccc2cc(C([NH-])=O)n(C(=O)C(=O)[N-]CC(=O)N(C)C)c2c1

>  <Energy>  (94) 
75.43576757146158

>  <Genealogy>  (94) 
Cc1ccc2cc(C([NH-])=O)n(C(=O)C(=O)[N-]CC(=O)N(C)C)c2c1 (protonated)
Cc1ccc2cc(C([NH-])=O)n(C(=O)C(=O)[N-]CC(=O)N(C)C)c2c1 (3D coordinates assigned)
Cc1ccc2cc(C([NH-])=O)n(C(=O)C(=O)[N-]CC(=O)N(C)C)c2c1 (optimized conformer: 75.43576757146158 kcal/mol)

>  <smiles>  (94) 
Cc1ccc2cc(C(N)=O)n(C(=O)C(=O)NCC(=O)N(C)C)c2c1

>  <score_type>  (94) 
oracle

>  <origin>  (94) 
adg

>  <m_score__min__energy>  (94) 
-7.2400000000000002

>  <m_primary>  (94) 
energy

$$$$
94:0
     RDKit          3D

 35 36  0  0  0  0  0  0  0  0999 V2000
  141.0220  156.8040  134.0700 C   0  0  0  0  0  0  0  0  0  0  0  0
  141.0690  158.3170  134.3160 C   0  0  1  0  0  0  0  0  0  0  0  0
  140.6080  158.6660  135.7050 C   0  0  0  0  0  0  0  0  0  0  0  0
  141.3580  159.3360  136.4650 O   0  0  0  0  0  0  0  0  0  0  0  0
  139.3830  158.2140  136.1830 O   0  0  0  0  0  0  0  0  0  0  0  0
  142.4570  158.8670  134.0570 C   0  0  0  0  0  0  0  0  0  0  0  0
  142.6600  160.2690  133.9860 C   0  0  0  0  0  0  0  0  0  0  0  0
  143.9370  160.8010  133.7450 C   0  0  0  0  0  0  0  0  0  0  0  0
  144.9930  159.9110  133.5700 C   0  0  0  0  0  0  0  0  0  0  0  0
  146.3280  160.1570  133.3490 C   0  0  0  0  0  0  0  0  0  0  0  0
  146.9250  158.9010  133.2620 C   0  0  0  0  0  0  0  0  0  0  0  0
  148.3530  158.7010  132.9410 C   0  0  0  0  0  0  0  0  0  0  0  0
  148.7520  157.8630  131.8600 N   0  0  0  0  0  0  0  0  0  0  0  0
  149.2320  159.3200  133.5970 O   0  0  0  0  0  0  0  0  0  0  0  0
  145.9960  157.9170  133.4310 N   0  0  0  0  0  0  0  0  0  0  0  0
  146.2250  156.5020  133.5130 C   0  0  0  0  0  0  0  0  0  0  0  0
  146.7000  155.8810  132.5230 O   0  0  0  0  0  0  0  0  0  0  0  0
  145.8970  155.8110  134.6850 O   0  0  0  0  0  0  0  0  0  0  0  0
  146.1060  154.4130  134.8370 C   0  0  0  0  0  0  0  0  0  0  0  0
  147.0760  154.1790  135.9460 C   0  0  0  0  0  0  0  0  0  0  0  0
  147.9560  155.0410  136.2090 O   0  0  0  0  0  0  0  0  0  0  0  0
  146.9720  153.0370  136.7310 O   0  0  0  0  0  0  0  0  0  0  0  0
  144.8180  158.5530  133.6170 C   0  0  0  0  0  0  0  0  0  0  0  0
  143.5590  157.9960  133.8740 C   0  0  0  0  0  0  0  0  0  0  0  0
  141.0056  156.2760  135.0349 H   0  0  0  0  0  0  0  0  0  0  0  0
  140.1156  156.5533  133.4994 H   0  0  0  0  0  0  0  0  0  0  0  0
  141.9111  156.4975  133.4994 H   0  0  0  0  0  0  0  0  0  0  0  0
  140.3737  158.7874  133.6051 H   0  0  0  0  0  0  0  0  0  0  0  0
  141.8057  160.9486  134.1215 H   0  0  0  0  0  0  0  0  0  0  0  0
  144.0980  161.8880  133.6960 H   0  0  0  0  0  0  0  0  0  0  0  0
  146.8198  161.1369  133.2599 H   0  0  0  0  0  0  0  0  0  0  0  0
  148.1080  157.1390  131.4740 H   0  0  0  0  0  0  0  0  0  0  0  0
  145.1507  153.9220  135.0742 H   0  0  0  0  0  0  0  0  0  0  0  0
  146.5070  153.9957  133.9015 H   0  0  0  0  0  0  0  0  0  0  0  0
  143.4287  156.9053  133.9325 H   0  0  0  0  0  0  0  0  0  0  0  0
  1  2  1  0
  2  3  1  0
  3  4  2  0
  3  5  1  0
  2  6  1  0
  6  7  2  0
  7  8  1  0
  8  9  2  0
  9 10  1  0
 10 11  2  0
 11 12  1  0
 12 13  1  0
 12 14  2  0
 11 15  1  0
 15 16  1  0
 16 17  2  0
 16 18  1  0
 18 19  1  0
 19 20  1  0
 20 21  2  0
 20 22  1  0
 15 23  1  0
 23 24  2  0
 24  6  1  0
 23  9  1  0
  1 25  1  0
  1 26  1  0
  1 27  1  0
  2 28  1  6
  7 29  1  0
  8 30  1  0
 10 31  1  0
 13 32  1  0
 19 33  1  0
 19 34  1  0
 24 35  1  0
M  CHG  3   5  -1  13  -1  22  -1
M  END
>  <UniqueID>  (95) 
92

>  <SMILES>  (95) 
C[C@@H](C(=O)[O-])c1ccc2cc(C([NH-])=O)n(C(=O)OCC(=O)[O-])c2c1

>  <Energy>  (95) 
69.7365050987095

>  <Genealogy>  (95) 
CC(C(=O)[O-])c1ccc2cc(C([NH-])=O)n(C(=O)OCC(=O)[O-])c2c1 (protonated)
C[C@@H](C(=O)[O-])c1ccc2cc(C([NH-])=O)n(C(=O)OCC(=O)[O-])c2c1 (chirality)
C[C@@H](C(=O)[O-])c1ccc2cc(C([NH-])=O)n(C(=O)OCC(=O)[O-])c2c1 (3D coordinates assigned)
C[C@@H](C(=O)[O-])c1ccc2cc(C([NH-])=O)n(C(=O)OCC(=O)[O-])c2c1 (optimized conformer: 69.7365050987095 kcal/mol)

>  <smiles>  (95) 
CC(C(=O)O)c1ccc2cc(C(N)=O)n(C(=O)OCC(=O)O)c2c1

>  <score_type>  (95) 
oracle

>  <origin>  (95) 
adg

>  <m_score__min__energy>  (95) 
-6.7699999999999996

>  <m_primary>  (95) 
energy

$$$$
95:0
     RDKit          3D

 48 49  0  0  0  0  0  0  0  0999 V2000
  149.6170  159.9140  130.6180 C   0  0  0  0  0  0  0  0  0  0  0  0
  149.0230  158.6560  130.8430 O   0  0  0  0  0  0  0  0  0  0  0  0
  149.5160  158.1140  132.0510 C   0  0  0  0  0  0  0  0  0  0  0  0
  148.3670  157.4910  132.8430 C   0  0  0  0  0  0  0  0  0  0  0  0
  147.3120  158.5150  133.1700 C   0  0  0  0  0  0  0  0  0  0  0  0
  147.6720  159.8680  133.3910 C   0  0  0  0  0  0  0  0  0  0  0  0
  146.6870  160.8390  133.6450 C   0  0  0  0  0  0  0  0  0  0  0  0
  145.3580  160.4270  133.6710 C   0  0  0  0  0  0  0  0  0  0  0  0
  144.2050  161.1630  133.8370 C   0  0  0  0  0  0  0  0  0  0  0  0
  143.1620  160.2450  133.7220 C   0  0  0  0  0  0  0  0  0  0  0  0
  141.7370  160.6020  133.8850 C   0  0  0  0  0  0  0  0  0  0  0  0
  140.7730  159.6180  134.2500 N   0  0  0  0  0  0  0  0  0  0  0  0
  141.3720  161.8000  133.7420 O   0  0  0  0  0  0  0  0  0  0  0  0
  143.6510  158.9940  133.4960 N   0  0  0  0  0  0  0  0  0  0  0  0
  142.9120  157.8030  133.1960 C   0  0  0  0  0  0  0  0  0  0  0  0
  142.0500  157.8170  132.2760 O   0  0  0  0  0  0  0  0  0  0  0  0
  143.1130  156.6520  133.9740 O   0  0  0  0  0  0  0  0  0  0  0  0
  142.0740  155.8480  134.5480 C   0  0  0  0  0  0  0  0  0  0  0  0
  142.5040  155.4850  135.9750 C   0  0  0  0  0  0  0  0  0  0  0  0
  141.9010  154.5530  133.7280 C   0  0  0  0  0  0  0  0  0  0  0  0
  140.7830  156.6330  134.6240 C   0  0  0  0  0  0  0  0  0  0  0  0
  140.4940  157.2840  135.6660 O   0  0  0  0  0  0  0  0  0  0  0  0
  139.9420  156.6780  133.5040 O   0  0  0  0  0  0  0  0  0  0  0  0
  138.7820  157.5020  133.4250 C   0  0  0  0  0  0  0  0  0  0  0  0
  138.7850  158.2650  132.1740 C   0  0  0  0  0  0  0  0  0  0  0  0
  138.7890  158.8680  131.1850 N   0  0  0  0  0  0  0  0  0  0  0  0
  144.9940  159.1220  133.4670 C   0  0  0  0  0  0  0  0  0  0  0  0
  145.9520  158.1380  133.1970 C   0  0  0  0  0  0  0  0  0  0  0  0
  149.8423  160.3910  131.5832 H   0  0  0  0  0  0  0  0  0  0  0  0
  150.5484  159.7830  130.0476 H   0  0  0  0  0  0  0  0  0  0  0  0
  148.9240  160.5499  130.0476 H   0  0  0  0  0  0  0  0  0  0  0  0
  150.2660  157.3415  131.8259 H   0  0  0  0  0  0  0  0  0  0  0  0
  149.9777  158.9145  132.6477 H   0  0  0  0  0  0  0  0  0  0  0  0
  147.9134  156.6871  132.2447 H   0  0  0  0  0  0  0  0  0  0  0  0
  148.7699  157.0929  133.7860 H   0  0  0  0  0  0  0  0  0  0  0  0
  148.7318  160.1612  133.3636 H   0  0  0  0  0  0  0  0  0  0  0  0
  146.9584  161.8909  133.8177 H   0  0  0  0  0  0  0  0  0  0  0  0
  144.1246  162.2445  134.0211 H   0  0  0  0  0  0  0  0  0  0  0  0
  140.8850  158.6210  133.9590 H   0  0  0  0  0  0  0  0  0  0  0  0
  141.8696  156.0206  136.6966 H   0  0  0  0  0  0  0  0  0  0  0  0
  142.3960  154.4008  136.1259 H   0  0  0  0  0  0  0  0  0  0  0  0
  143.5548  155.7733  136.1259 H   0  0  0  0  0  0  0  0  0  0  0  0
  141.7869  153.6987  134.4115 H   0  0  0  0  0  0  0  0  0  0  0  0
  141.0061  154.6373  133.0939 H   0  0  0  0  0  0  0  0  0  0  0  0
  142.7866  154.3995  133.0939 H   0  0  0  0  0  0  0  0  0  0  0  0
  137.8835  156.8684  133.4616 H   0  0  0  0  0  0  0  0  0  0  0  0
  138.7828  158.2036  134.2722 H   0  0  0  0  0  0  0  0  0  0  0  0
  145.6524  157.0962  133.0104 H   0  0  0  0  0  0  0  0  0  0  0  0
  1  2  1  0
  2  3  1  0
  3  4  1  0
  4  5  1  0
  5  6  2  0
  6  7  1  0
  7  8  2  0
  8  9  1  0
  9 10  2  0
 10 11  1  0
 11 12  1  0
 11 13  2  0
 10 14  1  0
 14 15  1  0
 15 16  2  0
 15 17  1  0
 17 18  1  0
 18 19  1  0
 18 20  1  0
 18 21  1  0
 21 22  2  0
 21 23  1  0
 23 24  1  0
 24 25  1  0
 25 26  3  0
 14 27  1  0
 27 28  2  0
 28  5  1  0
 27  8  1  0
  1 29  1  0
  1 30  1  0
  1 31  1  0
  3 32  1  0
  3 33  1  0
  4 34  1  0
  4 35  1  0
  6 36  1  0
  7 37  1  0
  9 38  1  0
 12 39  1  0
 19 40  1  0
 19 41  1  0
 19 42  1  0
 20 43  1  0
 20 44  1  0
 20 45  1  0
 24 46  1  0
 24 47  1  0
 28 48  1  0
M  CHG  1  12  -1
M  END
>  <UniqueID>  (96) 
93

>  <SMILES>  (96) 
COCCc1ccc2cc(C([NH-])=O)n(C(=O)OC(C)(C)C(=O)OCC#N)c2c1

>  <Energy>  (96) 
77.57931677480039

>  <Genealogy>  (96) 
COCCc1ccc2cc(C([NH-])=O)n(C(=O)OC(C)(C)C(=O)OCC#N)c2c1 (protonated)
COCCc1ccc2cc(C([NH-])=O)n(C(=O)OC(C)(C)C(=O)OCC#N)c2c1 (3D coordinates assigned)
COCCc1ccc2cc(C([NH-])=O)n(C(=O)OC(C)(C)C(=O)OCC#N)c2c1 (optimized conformer: 77.57931677480039 kcal/mol)

>  <smiles>  (96) 
COCCc1ccc2cc(C(N)=O)n(C(=O)OC(C)(C)C(=O)OCC#N)c2c1

>  <score_type>  (96) 
oracle

>  <origin>  (96) 
adg

>  <m_score__min__energy>  (96) 
-7.2599999999999998

>  <m_primary>  (96) 
energy

$$$$
96:0
     RDKit          3D

 39 40  0  0  0  0  0  0  0  0999 V2000
  141.1050  148.3990  132.5370 C   0  0  0  0  0  0  0  0  0  0  0  0
  140.5890  149.7720  132.4280 N   0  0  0  0  0  0  0  0  0  0  0  0
  139.1700  149.9660  132.1010 C   0  0  0  0  0  0  0  0  0  0  0  0
  141.4640  150.9150  132.6450 C   0  0  0  0  0  0  0  0  0  0  0  0
  142.8710  150.7420  132.7860 C   0  0  0  0  0  0  0  0  0  0  0  0
  143.7220  151.8390  133.0000 C   0  0  0  0  0  0  0  0  0  0  0  0
  143.1560  153.1050  133.0560 C   0  0  0  0  0  0  0  0  0  0  0  0
  143.7480  154.3270  133.2700 C   0  0  0  0  0  0  0  0  0  0  0  0
  142.7090  155.2510  133.2240 C   0  0  0  0  0  0  0  0  0  0  0  0
  142.9130  156.7080  133.3320 C   0  0  0  0  0  0  0  0  0  0  0  0
  142.2530  157.6140  132.4460 N   0  0  0  0  0  0  0  0  0  0  0  0
  143.7270  157.1590  134.1800 O   0  0  0  0  0  0  0  0  0  0  0  0
  141.5180  154.6260  133.0080 N   0  0  0  0  0  0  0  0  0  0  0  0
  140.2120  155.2260  132.9980 C   0  0  0  0  0  0  0  0  0  0  0  0
  139.1810  154.4980  132.9880 O   0  0  0  0  0  0  0  0  0  0  0  0
  140.0900  156.6220  132.9980 O   0  0  0  0  0  0  0  0  0  0  0  0
  138.9110  157.3110  133.4110 C   0  0  0  0  0  0  0  0  0  0  0  0
  138.7510  158.6220  132.6380 C   0  0  0  0  0  0  0  0  0  0  0  0
  140.0870  159.2240  132.3360 C   0  0  0  0  0  0  0  0  0  0  0  0
  140.6030  159.0850  131.1950 O   0  0  0  0  0  0  0  0  0  0  0  0
  140.7610  159.9460  133.3140 O   0  0  0  0  0  0  0  0  0  0  0  0
  141.8110  153.3090  132.9050 C   0  0  0  0  0  0  0  0  0  0  0  0
  140.9340  152.2330  132.7200 C   0  0  0  0  0  0  0  0  0  0  0  0
  141.2066  148.1287  133.5984 H   0  0  0  0  0  0  0  0  0  0  0  0
  140.4064  147.7048  132.0471 H   0  0  0  0  0  0  0  0  0  0  0  0
  142.0879  148.3367  132.0471 H   0  0  0  0  0  0  0  0  0  0  0  0
  138.5871  150.0457  133.0305 H   0  0  0  0  0  0  0  0  0  0  0  0
  139.0518  150.8887  131.5138 H   0  0  0  0  0  0  0  0  0  0  0  0
  138.8085  149.1089  131.5138 H   0  0  0  0  0  0  0  0  0  0  0  0
  143.2991  149.7305  132.7262 H   0  0  0  0  0  0  0  0  0  0  0  0
  144.8064  151.6986  133.1198 H   0  0  0  0  0  0  0  0  0  0  0  0
  144.8153  154.5308  133.4411 H   0  0  0  0  0  0  0  0  0  0  0  0
  141.7130  157.2640  131.6240 H   0  0  0  0  0  0  0  0  0  0  0  0
  142.3720  158.6430  132.5650 H   0  0  0  0  0  0  0  0  0  0  0  0
  138.0353  156.6723  133.2236 H   0  0  0  0  0  0  0  0  0  0  0  0
  138.9935  157.5410  134.4835 H   0  0  0  0  0  0  0  0  0  0  0  0
  138.2231  158.4224  131.6938 H   0  0  0  0  0  0  0  0  0  0  0  0
  138.1760  159.3284  133.2547 H   0  0  0  0  0  0  0  0  0  0  0  0
  139.8509  152.4045  132.6339 H   0  0  0  0  0  0  0  0  0  0  0  0
  1  2  1  0
  2  3  1  0
  2  4  1  0
  4  5  2  0
  5  6  1  0
  6  7  2  0
  7  8  1  0
  8  9  2  0
  9 10  1  0
 10 11  1  0
 10 12  2  0
  9 13  1  0
 13 14  1  0
 14 15  2  0
 14 16  1  0
 16 17  1  0
 17 18  1  0
 18 19  1  0
 19 20  2  0
 19 21  1  0
 13 22  1  0
 22 23  2  0
 23  4  1  0
 22  7  1  0
  1 24  1  0
  1 25  1  0
  1 26  1  0
  3 27  1  0
  3 28  1  0
  3 29  1  0
  5 30  1  0
  6 31  1  0
  8 32  1  0
 11 33  1  0
 11 34  1  0
 17 35  1  0
 17 36  1  0
 18 37  1  0
 18 38  1  0
 23 39  1  0
M  CHG  1  21  -1
M  END
>  <UniqueID>  (97) 
94

>  <SMILES>  (97) 
CN(C)c1ccc2cc(C(N)=O)n(C(=O)OCCC(=O)[O-])c2c1

>  <Energy>  (97) 
75.15711734142673

>  <Genealogy>  (97) 
CN(C)c1ccc2cc(C(N)=O)n(C(=O)OCCC(=O)[O-])c2c1 (protonated)
CN(C)c1ccc2cc(C(N)=O)n(C(=O)OCCC(=O)[O-])c2c1 (3D coordinates assigned)
CN(C)c1ccc2cc(C(N)=O)n(C(=O)OCCC(=O)[O-])c2c1 (optimized conformer: 75.15711734142673 kcal/mol)

>  <smiles>  (97) 
CN(C)c1ccc2cc(C(N)=O)n(C(=O)OCCC(=O)O)c2c1

>  <score_type>  (97) 
oracle

>  <origin>  (97) 
adg

>  <m_score__min__energy>  (97) 
-6.8600000000000003

>  <m_primary>  (97) 
energy

$$$$
