0:0
     RDKit          3D

 43 45  0  0  0  0  0  0  0  0999 V2000
  146.1020  157.8010  133.6950 C   0  0  0  0  0  0  0  0  0  0  0  0
  145.4560  159.0320  133.1420 C   0  0  0  0  0  0  0  0  0  0  0  0
  146.0810  159.7320  132.3020 O   0  0  0  0  0  0  0  0  0  0  0  0
  144.1070  159.3760  133.4950 N   0  0  0  0  0  0  0  0  0  0  0  0
  143.6150  160.5930  133.8600 C   0  0  0  0  0  0  0  0  0  0  0  0
  144.3540  161.8730  133.8250 C   0  0  0  0  0  0  0  0  0  0  0  0
  145.7530  161.9180  134.0870 N   0  0  0  0  0  0  0  0  0  0  0  0
  143.7480  162.9350  133.5190 O   0  0  0  0  0  0  0  0  0  0  0  0
  142.2690  160.4910  134.2060 C   0  0  0  0  0  0  0  0  0  0  0  0
  141.9470  159.1640  134.0280 C   0  0  0  0  0  0  0  0  0  0  0  0
  140.7420  158.4980  134.2290 C   0  0  0  0  0  0  0  0  0  0  0  0
  140.7040  157.1150  133.9830 C   0  0  0  0  0  0  0  0  0  0  0  0
  141.8640  156.4210  133.5470 C   0  0  0  0  0  0  0  0  0  0  0  0
  141.8150  154.9580  133.2970 C   0  0  0  0  0  0  0  0  0  0  0  0
  140.6030  154.2530  133.3770 C   0  0  0  0  0  0  0  0  0  0  0  0
  140.5700  152.8790  133.1400 C   0  0  0  0  0  0  0  0  0  0  0  0
  141.7540  152.2020  132.8100 C   0  0  0  0  0  0  0  0  0  0  0  0
  141.7480  150.7380  132.5780 C   0  0  0  0  0  0  0  0  0  0  0  0
  142.7320  150.0570  132.9780 O   0  0  0  0  0  0  0  0  0  0  0  0
  140.6620  150.0680  131.9000 N   0  0  0  0  0  0  0  0  0  0  0  0
  140.9040  148.7490  131.3070 C   0  0  0  0  0  0  0  0  0  0  0  0
  139.3060  150.6280  131.8890 C   0  0  0  0  0  0  0  0  0  0  0  0
  142.9200  152.9030  132.7450 N   0  0  0  0  0  0  0  0  0  0  0  0
  142.9790  154.2410  132.9750 C   0  0  0  0  0  0  0  0  0  0  0  0
  143.0700  157.1380  133.3540 C   0  0  0  0  0  0  0  0  0  0  0  0
  143.0730  158.5140  133.5960 C   0  0  0  0  0  0  0  0  0  0  0  0
  146.0822  157.8387  134.7942 H   0  0  0  0  0  0  0  0  0  0  0  0
  145.5541  156.9122  133.3487 H   0  0  0  0  0  0  0  0  0  0  0  0
  147.1447  157.7470  133.3487 H   0  0  0  0  0  0  0  0  0  0  0  0
  146.4460  161.6060  133.3700 H   0  0  0  0  0  0  0  0  0  0  0  0
  141.6051  161.2985  134.5484 H   0  0  0  0  0  0  0  0  0  0  0  0
  139.8463  159.0377  134.5701 H   0  0  0  0  0  0  0  0  0  0  0  0
  139.7640  156.5629  134.1300 H   0  0  0  0  0  0  0  0  0  0  0  0
  139.6748  154.7873  133.6279 H   0  0  0  0  0  0  0  0  0  0  0  0
  139.6203  152.3286  133.2114 H   0  0  0  0  0  0  0  0  0  0  0  0
  141.0402  148.0066  132.1072 H   0  0  0  0  0  0  0  0  0  0  0  0
  140.0433  148.4633  130.6845 H   0  0  0  0  0  0  0  0  0  0  0  0
  141.8101  148.7875  130.6845 H   0  0  0  0  0  0  0  0  0  0  0  0
  138.9599  150.7709  132.9233 H   0  0  0  0  0  0  0  0  0  0  0  0
  139.3135  151.5966  131.3677 H   0  0  0  0  0  0  0  0  0  0  0  0
  138.6279  149.9363  131.3677 H   0  0  0  0  0  0  0  0  0  0  0  0
  143.9437  154.7654  132.9087 H   0  0  0  0  0  0  0  0  0  0  0  0
  143.9834  156.6233  133.0212 H   0  0  0  0  0  0  0  0  0  0  0  0
  1  2  1  0
  2  3  2  0
  2  4  1  0
  4  5  1  0
  5  6  1  0
  6  7  1  0
  6  8  2  0
  5  9  2  0
  9 10  1  0
 10 11  2  0
 11 12  1  0
 12 13  2  0
 13 14  1  0
 14 15  2  0
 15 16  1  0
 16 17  2  0
 17 18  1  0
 18 19  2  0
 18 20  1  0
 20 21  1  0
 20 22  1  0
 17 23  1  0
 23 24  2  0
 13 25  1  0
 25 26  2  0
 26  4  1  0
 26 10  1  0
 24 14  1  0
  1 27  1  0
  1 28  1  0
  1 29  1  0
  7 30  1  0
  9 31  1  0
 11 32  1  0
 12 33  1  0
 15 34  1  0
 16 35  1  0
 21 36  1  0
 21 37  1  0
 21 38  1  0
 22 39  1  0
 22 40  1  0
 22 41  1  0
 24 42  1  0
 25 43  1  0
M  CHG  1   7  -1
M  END
>  <UniqueID>  (1) 
1

>  <SMILES>  (1) 
CC(=O)n1c(C([NH-])=O)cc2ccc(-c3ccc(C(=O)N(C)C)nc3)cc21

>  <Energy>  (1) 
91.52804864292278

>  <Genealogy>  (1) 
CC(=O)n1c(C([NH-])=O)cc2ccc(-c3ccc(C(=O)N(C)C)nc3)cc21 (protonated)
CC(=O)n1c(C([NH-])=O)cc2ccc(-c3ccc(C(=O)N(C)C)nc3)cc21 (3D coordinates assigned)
CC(=O)n1c(C([NH-])=O)cc2ccc(-c3ccc(C(=O)N(C)C)nc3)cc21 (optimized conformer: 91.52804864292278 kcal/mol)

>  <smiles>  (1) 
CC(=O)n1c(C(N)=O)cc2ccc(-c3ccc(C(=O)N(C)C)nc3)cc21

>  <score_type>  (1) 
oracle

>  <origin>  (1) 
adg

>  <m_score__min__energy>  (1) 
-7.9800000000000004

>  <m_primary>  (1) 
energy

$$$$
1:0
     RDKit          3D

 30 32  0  0  0  0  0  0  0  0999 V2000
  149.5890  161.5600  130.0780 C   0  0  0  0  0  0  0  0  0  0  0  0
  149.0880  160.5540  131.0550 C   0  0  0  0  0  0  0  0  0  0  0  0
  147.7840  160.3110  131.2850 N   0  0  0  0  0  0  0  0  0  0  0  0
  147.8550  159.3640  132.2460 C   0  0  0  0  0  0  0  0  0  0  0  0
  146.6700  158.7340  132.8690 C   0  0  0  0  0  0  0  0  0  0  0  0
  146.6810  157.3520  133.1880 C   0  0  0  0  0  0  0  0  0  0  0  0
  145.5580  156.7390  133.7660 C   0  0  0  0  0  0  0  0  0  0  0  0
  144.4430  157.5300  134.0240 C   0  0  0  0  0  0  0  0  0  0  0  0
  143.2170  157.1840  134.5420 C   0  0  0  0  0  0  0  0  0  0  0  0
  142.4820  158.3660  134.5640 C   0  0  0  0  0  0  0  0  0  0  0  0
  141.1130  158.4590  135.1080 C   0  0  0  0  0  0  0  0  0  0  0  0
  140.6110  159.6830  135.6450 N   0  0  0  0  0  0  0  0  0  0  0  0
  140.3930  157.4250  135.1500 O   0  0  0  0  0  0  0  0  0  0  0  0
  143.2160  159.4010  134.0660 N   0  0  0  0  0  0  0  0  0  0  0  0
  142.7740  160.7470  133.8190 C   0  0  0  0  0  0  0  0  0  0  0  0
  143.6080  161.6860  133.7400 O   0  0  0  0  0  0  0  0  0  0  0  0
  141.4220  161.0270  133.6650 O   0  0  0  0  0  0  0  0  0  0  0  0
  144.4180  158.8720  133.7420 C   0  0  0  0  0  0  0  0  0  0  0  0
  145.5160  159.5040  133.1440 C   0  0  0  0  0  0  0  0  0  0  0  0
  149.1270  159.0620  132.5770 N   0  0  0  0  0  0  0  0  0  0  0  0
  149.8590  159.8210  131.8200 O   0  0  0  0  0  0  0  0  0  0  0  0
  150.0157  162.4168  130.6201 H   0  0  0  0  0  0  0  0  0  0  0  0
  150.3647  161.1028  129.4461 H   0  0  0  0  0  0  0  0  0  0  0  0
  148.7567  161.9036  129.4461 H   0  0  0  0  0  0  0  0  0  0  0  0
  147.5801  156.7534  132.9800 H   0  0  0  0  0  0  0  0  0  0  0  0
  145.5597  155.6658  134.0076 H   0  0  0  0  0  0  0  0  0  0  0  0
  142.8876  156.1867  134.8690 H   0  0  0  0  0  0  0  0  0  0  0  0
  139.6270  159.7400  135.9900 H   0  0  0  0  0  0  0  0  0  0  0  0
  141.2360  160.5080  135.7800 H   0  0  0  0  0  0  0  0  0  0  0  0
  145.4814  160.5747  132.8940 H   0  0  0  0  0  0  0  0  0  0  0  0
  1  2  1  0
  2  3  2  0
  3  4  1  0
  4  5  1  0
  5  6  2  0
  6  7  1  0
  7  8  2  0
  8  9  1  0
  9 10  2  0
 10 11  1  0
 11 12  1  0
 11 13  2  0
 10 14  1  0
 14 15  1  0
 15 16  2  0
 15 17  1  0
 14 18  1  0
 18 19  2  0
  4 20  2  0
 20 21  1  0
 21  2  1  0
 19  5  1  0
 18  8  1  0
  1 22  1  0
  1 23  1  0
  1 24  1  0
  6 25  1  0
  7 26  1  0
  9 27  1  0
 12 28  1  0
 12 29  1  0
 19 30  1  0
M  CHG  1  17  -1
M  END
>  <UniqueID>  (2) 
2

>  <SMILES>  (2) 
Cc1nc(-c2ccc3cc(C(N)=O)n(C(=O)[O-])c3c2)no1

>  <Energy>  (2) 
104.66945666314174

>  <Genealogy>  (2) 
Cc1nc(-c2ccc3cc(C(N)=O)n(C(=O)[O-])c3c2)no1 (protonated)
Cc1nc(-c2ccc3cc(C(N)=O)n(C(=O)[O-])c3c2)no1 (3D coordinates assigned)
Cc1nc(-c2ccc3cc(C(N)=O)n(C(=O)[O-])c3c2)no1 (optimized conformer: 104.66945666314174 kcal/mol)

>  <smiles>  (2) 
Cc1nc(-c2ccc3cc(C(N)=O)n(C(=O)O)c3c2)no1

>  <score_type>  (2) 
oracle

>  <origin>  (2) 
adg

>  <m_score__min__energy>  (2) 
-6.75

>  <m_primary>  (2) 
energy

$$$$
2:0
     RDKit          3D

 49 51  0  0  0  0  0  0  0  0999 V2000
  137.2810  159.0810  131.3900 C   0  0  0  0  0  0  0  0  0  0  0  0
  138.6740  158.7580  131.9450 C   0  0  0  0  0  0  0  0  0  0  0  0
  138.8310  157.5830  132.9350 C   0  0  0  0  0  0  0  0  0  0  0  0
  139.9890  156.8070  132.6250 O   0  0  0  0  0  0  0  0  0  0  0  0
  140.1340  155.4610  132.9790 C   0  0  0  0  0  0  0  0  0  0  0  0
  139.1220  154.7350  133.1710 O   0  0  0  0  0  0  0  0  0  0  0  0
  141.4480  154.9020  133.1240 N   0  0  0  0  0  0  0  0  0  0  0  0
  142.6190  155.5680  133.3220 C   0  0  0  0  0  0  0  0  0  0  0  0
  142.7490  157.0300  133.5330 C   0  0  0  0  0  0  0  0  0  0  0  0
  142.3070  157.9570  132.5390 N   0  0  0  0  0  0  0  0  0  0  0  0
  143.2710  157.4720  134.5910 O   0  0  0  0  0  0  0  0  0  0  0  0
  143.6810  154.6640  133.3800 C   0  0  0  0  0  0  0  0  0  0  0  0
  143.1140  153.4220  133.1990 C   0  0  0  0  0  0  0  0  0  0  0  0
  143.7070  152.1690  133.1430 C   0  0  0  0  0  0  0  0  0  0  0  0
  142.8820  151.0590  132.9010 C   0  0  0  0  0  0  0  0  0  0  0  0
  141.4760  151.2040  132.7080 C   0  0  0  0  0  0  0  0  0  0  0  0
  140.6200  149.9550  132.4040 C   0  0  0  0  0  0  0  0  0  0  0  0
  140.2770  149.2460  133.7330 C   0  0  0  0  0  0  0  0  0  0  0  0
  141.3480  148.9210  131.5080 C   0  0  0  0  0  0  0  0  0  0  0  0
  139.3050  150.3740  131.6970 C   0  0  0  0  0  0  0  0  0  0  0  0
  139.5040  150.5270  130.3160 O   0  0  0  0  0  0  0  0  0  0  0  0
  140.9210  152.5120  132.7830 C   0  0  0  0  0  0  0  0  0  0  0  0
  141.7690  153.5930  133.0450 C   0  0  0  0  0  0  0  0  0  0  0  0
  139.8550  159.0230  131.0110 C   0  0  0  0  0  0  0  0  0  0  0  0
  139.5830  159.9630  132.1800 C   0  0  0  0  0  0  0  0  0  0  0  0
  136.5825  159.2430  132.2241 H   0  0  0  0  0  0  0  0  0  0  0  0
  137.3337  159.9908  130.7739 H   0  0  0  0  0  0  0  0  0  0  0  0
  136.9279  158.2409  130.7739 H   0  0  0  0  0  0  0  0  0  0  0  0
  138.9275  157.9822  133.9554 H   0  0  0  0  0  0  0  0  0  0  0  0
  137.9439  156.9371  132.8575 H   0  0  0  0  0  0  0  0  0  0  0  0
  141.7940  157.6440  131.6820 H   0  0  0  0  0  0  0  0  0  0  0  0
  142.4400  158.9830  132.6890 H   0  0  0  0  0  0  0  0  0  0  0  0
  144.7450  154.8947  133.5370 H   0  0  0  0  0  0  0  0  0  0  0  0
  144.7913  152.0488  133.2840 H   0  0  0  0  0  0  0  0  0  0  0  0
  143.3298  150.0551  132.8593 H   0  0  0  0  0  0  0  0  0  0  0  0
  140.5841  149.8809  134.5772 H   0  0  0  0  0  0  0  0  0  0  0  0
  139.1928  149.0673  133.7841 H   0  0  0  0  0  0  0  0  0  0  0  0
  140.8098  148.2850  133.7841 H   0  0  0  0  0  0  0  0  0  0  0  0
  141.8654  148.1861  132.1422 H   0  0  0  0  0  0  0  0  0  0  0  0
  140.6133  148.4044  130.8729 H   0  0  0  0  0  0  0  0  0  0  0  0
  142.0820  149.4386  130.8729 H   0  0  0  0  0  0  0  0  0  0  0  0
  138.5424  149.5997  131.8671 H   0  0  0  0  0  0  0  0  0  0  0  0
  138.9747  151.3374  132.1127 H   0  0  0  0  0  0  0  0  0  0  0  0
  139.9220  151.4190  130.1760 H   0  0  0  0  0  0  0  0  0  0  0  0
  139.8423  152.6705  132.6373 H   0  0  0  0  0  0  0  0  0  0  0  0
  140.7320  158.3594  131.0316 H   0  0  0  0  0  0  0  0  0  0  0  0
  139.9745  159.1475  129.9246 H   0  0  0  0  0  0  0  0  0  0  0  0
  140.2641  159.9776  133.0436 H   0  0  0  0  0  0  0  0  0  0  0  0
  139.4253  161.0465  132.2855 H   0  0  0  0  0  0  0  0  0  0  0  0
  1  2  1  0
  2  3  1  0
  3  4  1  0
  4  5  1  0
  5  6  2  0
  5  7  1  0
  7  8  1  0
  8  9  1  0
  9 10  1  0
  9 11  2  0
  8 12  2  0
 12 13  1  0
 13 14  2  0
 14 15  1  0
 15 16  2  0
 16 17  1  0
 17 18  1  0
 17 19  1  0
 17 20  1  0
 20 21  1  0
 16 22  1  0
 22 23  2  0
  2 24  1  0
 24 25  1  0
 25  2  1  0
 23  7  1  0
 23 13  1  0
  1 26  1  0
  1 27  1  0
  1 28  1  0
  3 29  1  0
  3 30  1  0
 10 31  1  0
 10 32  1  0
 12 33  1  0
 14 34  1  0
 15 35  1  0
 18 36  1  0
 18 37  1  0
 18 38  1  0
 19 39  1  0
 19 40  1  0
 19 41  1  0
 20 42  1  0
 20 43  1  0
 21 44  1  0
 22 45  1  0
 24 46  1  0
 24 47  1  0
 25 48  1  0
 25 49  1  0
M  END
>  <UniqueID>  (3) 
3

>  <SMILES>  (3) 
CC1(COC(=O)n2c(C(N)=O)cc3ccc(C(C)(C)CO)cc32)CC1

>  <Energy>  (3) 
355.18912598951425

>  <Genealogy>  (3) 
CC1(COC(=O)n2c(C(N)=O)cc3ccc(C(C)(C)CO)cc32)CC1 (3D coordinates assigned)
CC1(COC(=O)n2c(C(N)=O)cc3ccc(C(C)(C)CO)cc32)CC1 (nonaromatic ring conformer: 355.18912598951425 kcal/mol)

>  <smiles>  (3) 
CC1(COC(=O)n2c(C(N)=O)cc3ccc(C(C)(C)CO)cc32)CC1

>  <score_type>  (3) 
oracle

>  <origin>  (3) 
adg

>  <m_score__min__energy>  (3) 
-8.3000000000000007

>  <m_primary>  (3) 
energy

$$$$
3:0
     RDKit          3D

 53 55  0  0  0  0  0  0  0  0999 V2000
  141.4650  155.9540  136.7690 C   0  0  0  0  0  0  0  0  0  0  0  0
  140.9990  157.4030  136.5220 C   0  0  0  0  0  0  0  0  0  0  0  0
  139.4820  157.5360  136.7770 C   0  0  0  0  0  0  0  0  0  0  0  0
  141.7460  158.3350  137.4910 C   0  0  0  0  0  0  0  0  0  0  0  0
  141.3170  157.8240  135.1840 O   0  0  0  0  0  0  0  0  0  0  0  0
  141.5420  159.1480  134.7700 C   0  0  0  0  0  0  0  0  0  0  0  0
  140.7710  160.0740  135.1420 O   0  0  0  0  0  0  0  0  0  0  0  0
  142.6760  159.4500  133.9360 N   0  0  0  0  0  0  0  0  0  0  0  0
  143.1350  160.8350  133.7670 C   0  0  0  0  0  0  0  0  0  0  0  0
  144.5970  160.9050  134.1850 C   0  0  0  0  0  0  0  0  0  0  0  0
  145.4060  159.9400  133.4230 N   0  0  0  0  0  0  0  0  0  0  0  0
  146.8370  160.1300  133.3440 C   0  0  0  0  0  0  0  0  0  0  0  0
  147.3580  161.2250  133.7030 O   0  0  0  0  0  0  0  0  0  0  0  0
  147.6870  159.1020  132.8210 N   0  0  0  0  0  0  0  0  0  0  0  0
  148.6800  159.2210  131.8980 C   0  0  0  0  0  0  0  0  0  0  0  0
  149.1000  160.4760  131.2360 C   0  0  0  0  0  0  0  0  0  0  0  0
  150.1280  160.4790  130.2480 N   0  0  0  0  0  0  0  0  0  0  0  0
  148.5530  161.5650  131.5570 O   0  0  0  0  0  0  0  0  0  0  0  0
  149.2630  157.9770  131.6530 C   0  0  0  0  0  0  0  0  0  0  0  0
  148.5930  157.0910  132.4700 C   0  0  0  0  0  0  0  0  0  0  0  0
  148.7890  155.7290  132.6760 C   0  0  0  0  0  0  0  0  0  0  0  0
  147.9770  155.0810  133.6220 C   0  0  0  0  0  0  0  0  0  0  0  0
  147.0010  155.8050  134.3600 C   0  0  0  0  0  0  0  0  0  0  0  0
  146.1100  155.1070  135.3530 C   0  0  0  0  0  0  0  0  0  0  0  0
  146.7660  154.8850  136.5520 F   0  0  0  0  0  0  0  0  0  0  0  0
  144.9880  155.8760  135.6080 F   0  0  0  0  0  0  0  0  0  0  0  0
  145.7120  153.8890  134.8320 F   0  0  0  0  0  0  0  0  0  0  0  0
  146.8140  157.1810  134.1030 C   0  0  0  0  0  0  0  0  0  0  0  0
  147.6390  157.7970  133.1570 C   0  0  0  0  0  0  0  0  0  0  0  0
  144.7450  158.8690  132.6510 C   0  0  0  0  0  0  0  0  0  0  0  0
  143.4790  158.3550  133.3710 C   0  0  0  0  0  0  0  0  0  0  0  0
  141.5249  155.7676  137.8514 H   0  0  0  0  0  0  0  0  0  0  0  0
  140.7462  155.2554  136.3159 H   0  0  0  0  0  0  0  0  0  0  0  0
  142.4563  155.8053  136.3159 H   0  0  0  0  0  0  0  0  0  0  0  0
  139.2924  157.5526  137.8604 H   0  0  0  0  0  0  0  0  0  0  0  0
  139.1149  158.4698  136.3261 H   0  0  0  0  0  0  0  0  0  0  0  0
  138.9580  156.6803  136.3261 H   0  0  0  0  0  0  0  0  0  0  0  0
  141.5155  158.0474  138.5274 H   0  0  0  0  0  0  0  0  0  0  0  0
  142.8292  158.2504  137.3193 H   0  0  0  0  0  0  0  0  0  0  0  0
  141.4276  159.3738  137.3193 H   0  0  0  0  0  0  0  0  0  0  0  0
  143.0340  161.1350  132.7135 H   0  0  0  0  0  0  0  0  0  0  0  0
  142.5298  161.5144  134.3852 H   0  0  0  0  0  0  0  0  0  0  0  0
  144.9769  161.9204  133.9988 H   0  0  0  0  0  0  0  0  0  0  0  0
  144.6697  160.6587  135.2546 H   0  0  0  0  0  0  0  0  0  0  0  0
  151.0720  160.8710  130.4500 H   0  0  0  0  0  0  0  0  0  0  0  0
  150.0833  157.7511  130.9558 H   0  0  0  0  0  0  0  0  0  0  0  0
  149.5568  155.1760  132.1150 H   0  0  0  0  0  0  0  0  0  0  0  0
  148.0978  154.0012  133.7936 H   0  0  0  0  0  0  0  0  0  0  0  0
  146.0390  157.7536  134.6336 H   0  0  0  0  0  0  0  0  0  0  0  0
  144.4606  159.2626  131.6640 H   0  0  0  0  0  0  0  0  0  0  0  0
  145.4496  158.0306  132.5485 H   0  0  0  0  0  0  0  0  0  0  0  0
  142.8621  157.7997  132.6491 H   0  0  0  0  0  0  0  0  0  0  0  0
  143.8021  157.7106  134.2019 H   0  0  0  0  0  0  0  0  0  0  0  0
  1  2  1  0
  2  3  1  0
  2  4  1  0
  2  5  1  0
  5  6  1  0
  6  7  2  0
  6  8  1  0
  8  9  1  0
  9 10  1  0
 10 11  1  0
 11 12  1  0
 12 13  2  0
 12 14  1  0
 14 15  1  0
 15 16  1  0
 16 17  1  0
 16 18  2  0
 15 19  2  0
 19 20  1  0
 20 21  2  0
 21 22  1  0
 22 23  2  0
 23 24  1  0
 24 25  1  0
 24 26  1  0
 24 27  1  0
 23 28  1  0
 28 29  2  0
 11 30  1  0
 30 31  1  0
 31  8  1  0
 29 14  1  0
 29 20  1  0
  1 32  1  0
  1 33  1  0
  1 34  1  0
  3 35  1  0
  3 36  1  0
  3 37  1  0
  4 38  1  0
  4 39  1  0
  4 40  1  0
  9 41  1  0
  9 42  1  0
 10 43  1  0
 10 44  1  0
 17 45  1  0
 19 46  1  0
 21 47  1  0
 22 48  1  0
 28 49  1  0
 30 50  1  0
 30 51  1  0
 31 52  1  0
 31 53  1  0
M  CHG  1  17  -1
M  END
>  <UniqueID>  (4) 
4

>  <SMILES>  (4) 
CC(C)(C)OC(=O)N1CCN(C(=O)n2c(C([NH-])=O)cc3ccc(C(F)(F)F)cc32)CC1

>  <Energy>  (4) 
91.5272778365402

>  <Genealogy>  (4) 
CC(C)(C)OC(=O)N1CCN(C(=O)n2c(C([NH-])=O)cc3ccc(C(F)(F)F)cc32)CC1 (protonated)
CC(C)(C)OC(=O)N1CCN(C(=O)n2c(C([NH-])=O)cc3ccc(C(F)(F)F)cc32)CC1 (3D coordinates assigned)
CC(C)(C)OC(=O)N1CCN(C(=O)n2c(C([NH-])=O)cc3ccc(C(F)(F)F)cc32)CC1 (nonaromatic ring conformer: 91.5272778365402 kcal/mol)

>  <smiles>  (4) 
CC(C)(C)OC(=O)N1CCN(C(=O)n2c(C(N)=O)cc3ccc(C(F)(F)F)cc32)CC1

>  <score_type>  (4) 
oracle

>  <origin>  (4) 
adg

>  <m_score__min__energy>  (4) 
-7.8099999999999996

>  <m_primary>  (4) 
energy

$$$$
4:0
     RDKit          3D

 42 44  0  0  0  0  0  0  0  0999 V2000
  140.5920  157.4540  135.6820 C   0  0  0  0  0  0  0  0  0  0  0  0
  140.7800  157.7020  134.1680 C   0  0  0  0  0  0  0  0  0  0  0  0
  139.9270  156.6690  133.3990 C   0  0  0  0  0  0  0  0  0  0  0  0
  140.2810  159.0860  133.7570 C   0  0  0  0  0  0  0  0  0  0  0  0
  140.6110  160.0910  134.4450 O   0  0  0  0  0  0  0  0  0  0  0  0
  139.5430  159.3100  132.5500 N   0  0  0  0  0  0  0  0  0  0  0  0
  139.0290  160.5030  131.8480 C   0  0  0  0  0  0  0  0  0  0  0  0
  138.4730  159.7650  130.6690 C   0  0  0  0  0  0  0  0  0  0  0  0
  137.0670  159.8100  130.5740 O   0  0  0  0  0  0  0  0  0  0  0  0
  138.9990  158.5660  131.3940 C   0  0  0  0  0  0  0  0  0  0  0  0
  142.2880  157.5860  133.8640 C   0  0  0  0  0  0  0  0  0  0  0  0
  142.9230  156.3470  133.5560 C   0  0  0  0  0  0  0  0  0  0  0  0
  144.3010  156.2840  133.2910 C   0  0  0  0  0  0  0  0  0  0  0  0
  145.0350  157.4610  133.3520 C   0  0  0  0  0  0  0  0  0  0  0  0
  146.3710  157.6840  133.1170 C   0  0  0  0  0  0  0  0  0  0  0  0
  146.5590  159.0500  133.3150 C   0  0  0  0  0  0  0  0  0  0  0  0
  147.8820  159.7060  133.2450 C   0  0  0  0  0  0  0  0  0  0  0  0
  148.1040  160.8200  132.3840 N   0  0  0  0  0  0  0  0  0  0  0  0
  148.8150  159.3070  133.9910 O   0  0  0  0  0  0  0  0  0  0  0  0
  145.3810  159.6500  133.6500 N   0  0  0  0  0  0  0  0  0  0  0  0
  145.1310  161.0490  133.8530 C   0  0  0  0  0  0  0  0  0  0  0  0
  146.0800  161.8330  134.1220 O   0  0  0  0  0  0  0  0  0  0  0  0
  143.8430  161.5570  133.7300 O   0  0  0  0  0  0  0  0  0  0  0  0
  144.4600  158.6610  133.6720 C   0  0  0  0  0  0  0  0  0  0  0  0
  143.0870  158.7590  133.9200 C   0  0  0  0  0  0  0  0  0  0  0  0
  141.1611  158.2047  136.2500 H   0  0  0  0  0  0  0  0  0  0  0  0
  139.5248  157.5330  135.9368 H   0  0  0  0  0  0  0  0  0  0  0  0
  140.9563  156.4478  135.9368 H   0  0  0  0  0  0  0  0  0  0  0  0
  139.3958  156.0257  134.1159 H   0  0  0  0  0  0  0  0  0  0  0  0
  139.1963  157.1947  132.7667 H   0  0  0  0  0  0  0  0  0  0  0  0
  140.5814  156.0510  132.7667 H   0  0  0  0  0  0  0  0  0  0  0  0
  138.2541  161.0324  132.4217 H   0  0  0  0  0  0  0  0  0  0  0  0
  139.7464  161.3108  131.6411 H   0  0  0  0  0  0  0  0  0  0  0  0
  138.7117  160.0054  129.6225 H   0  0  0  0  0  0  0  0  0  0  0  0
  136.7320  158.9270  130.2620 H   0  0  0  0  0  0  0  0  0  0  0  0
  138.2053  157.8597  131.6787 H   0  0  0  0  0  0  0  0  0  0  0  0
  139.6940  157.9132  130.8456 H   0  0  0  0  0  0  0  0  0  0  0  0
  142.3237  155.4251  133.5254 H   0  0  0  0  0  0  0  0  0  0  0  0
  144.7854  155.3283  133.0420 H   0  0  0  0  0  0  0  0  0  0  0  0
  147.1308  156.9410  132.8328 H   0  0  0  0  0  0  0  0  0  0  0  0
  147.6100  161.7270  132.5420 H   0  0  0  0  0  0  0  0  0  0  0  0
  142.6317  159.7323  134.1555 H   0  0  0  0  0  0  0  0  0  0  0  0
  1  2  1  0
  2  3  1  0
  2  4  1  0
  4  5  2  0
  4  6  1  0
  6  7  1  0
  7  8  1  0
  8  9  1  0
  8 10  1  0
  2 11  1  0
 11 12  2  0
 12 13  1  0
 13 14  2  0
 14 15  1  0
 15 16  2  0
 16 17  1  0
 17 18  1  0
 17 19  2  0
 16 20  1  0
 20 21  1  0
 21 22  2  0
 21 23  1  0
 20 24  1  0
 24 25  2  0
 10  6  1  0
 25 11  1  0
 24 14  1  0
  1 26  1  0
  1 27  1  0
  1 28  1  0
  3 29  1  0
  3 30  1  0
  3 31  1  0
  7 32  1  0
  7 33  1  0
  8 34  1  0
  9 35  1  0
 10 36  1  0
 10 37  1  0
 12 38  1  0
 13 39  1  0
 15 40  1  0
 18 41  1  0
 25 42  1  0
M  CHG  2  18  -1  23  -1
M  END
>  <UniqueID>  (5) 
5

>  <SMILES>  (5) 
CC(C)(C(=O)N1CC(O)C1)c1ccc2cc(C([NH-])=O)n(C(=O)[O-])c2c1

>  <Energy>  (5) 
134.84358641865217

>  <Genealogy>  (5) 
CC(C)(C(=O)N1CC(O)C1)c1ccc2cc(C([NH-])=O)n(C(=O)[O-])c2c1 (protonated)
CC(C)(C(=O)N1CC(O)C1)c1ccc2cc(C([NH-])=O)n(C(=O)[O-])c2c1 (3D coordinates assigned)
CC(C)(C(=O)N1CC(O)C1)c1ccc2cc(C([NH-])=O)n(C(=O)[O-])c2c1 (nonaromatic ring conformer: 134.84358641865217 kcal/mol)

>  <smiles>  (5) 
CC(C)(C(=O)N1CC(O)C1)c1ccc2cc(C(N)=O)n(C(=O)O)c2c1

>  <score_type>  (5) 
oracle

>  <origin>  (5) 
adg

>  <m_score__min__energy>  (5) 
-8.1099999999999994

>  <m_primary>  (5) 
energy

$$$$
5:0
     RDKit          3D

 40 42  0  0  0  0  0  0  0  0999 V2000
  144.5100  156.4730  133.9290 N   0  0  0  0  0  0  0  0  0  0  0  0
  145.8820  156.6840  134.2670 C   0  0  0  0  0  0  0  0  0  0  0  0
  146.3410  156.1780  135.3240 O   0  0  0  0  0  0  0  0  0  0  0  0
  146.7540  157.5380  133.4350 C   0  0  0  0  0  0  0  0  0  0  0  0
  147.9340  157.0840  132.8550 C   0  0  0  0  0  0  0  0  0  0  0  0
  148.4740  158.1800  132.2240 C   0  0  0  0  0  0  0  0  0  0  0  0
  149.6400  158.2920  131.4720 C   0  0  0  0  0  0  0  0  0  0  0  0
  149.9360  159.5400  130.8990 C   0  0  0  0  0  0  0  0  0  0  0  0
  149.0700  160.6440  131.0870 C   0  0  0  0  0  0  0  0  0  0  0  0
  149.3690  161.9560  130.4240 C   0  0  0  0  0  0  0  0  0  0  0  0
  149.7550  161.7340  129.1160 F   0  0  0  0  0  0  0  0  0  0  0  0
  147.8850  160.4890  131.8410 C   0  0  0  0  0  0  0  0  0  0  0  0
  147.6250  159.2400  132.4210 C   0  0  0  0  0  0  0  0  0  0  0  0
  146.5580  158.8590  133.1620 N   0  0  0  0  0  0  0  0  0  0  0  0
  145.4150  159.6640  133.5010 C   0  0  0  0  0  0  0  0  0  0  0  0
  145.5590  160.8950  133.7350 O   0  0  0  0  0  0  0  0  0  0  0  0
  144.1460  159.0780  133.5710 O   0  0  0  0  0  0  0  0  0  0  0  0
  142.9330  159.8260  133.5210 C   0  0  0  0  0  0  0  0  0  0  0  0
  141.9870  159.4120  134.6530 C   0  0  0  0  0  0  0  0  0  0  0  0
  141.1600  158.1690  134.2760 C   0  0  0  0  0  0  0  0  0  0  0  0
  141.6020  157.5170  132.9840 C   0  0  0  0  0  0  0  0  0  0  0  0
  142.0110  156.3400  133.6360 O   0  0  0  0  0  0  0  0  0  0  0  0
  141.6340  156.8680  134.8850 C   0  0  0  0  0  0  0  0  0  0  0  0
  143.9200  155.8360  134.5090 H   0  0  0  0  0  0  0  0  0  0  0  0
  144.0560  157.0070  133.1560 H   0  0  0  0  0  0  0  0  0  0  0  0
  148.3472  156.0653  132.8930 H   0  0  0  0  0  0  0  0  0  0  0  0
  150.3088  157.4302  131.3308 H   0  0  0  0  0  0  0  0  0  0  0  0
  150.8496  159.6606  130.2984 H   0  0  0  0  0  0  0  0  0  0  0  0
  148.4685  162.5876  130.4383 H   0  0  0  0  0  0  0  0  0  0  0  0
  150.1815  162.4632  130.9649 H   0  0  0  0  0  0  0  0  0  0  0  0
  147.1845  161.3273  131.9694 H   0  0  0  0  0  0  0  0  0  0  0  0
  143.1659  160.8965  133.6199 H   0  0  0  0  0  0  0  0  0  0  0  0
  142.4375  159.6273  132.5592 H   0  0  0  0  0  0  0  0  0  0  0  0
  142.5818  159.1861  135.5503 H   0  0  0  0  0  0  0  0  0  0  0  0
  141.2916  160.2433  134.8410 H   0  0  0  0  0  0  0  0  0  0  0  0
  140.1608  158.5921  134.4565 H   0  0  0  0  0  0  0  0  0  0  0  0
  140.7803  157.3590  132.2699 H   0  0  0  0  0  0  0  0  0  0  0  0
  142.3215  158.0456  132.3414 H   0  0  0  0  0  0  0  0  0  0  0  0
  140.8328  156.2976  135.3777 H   0  0  0  0  0  0  0  0  0  0  0  0
  142.3780  156.9003  135.6946 H   0  0  0  0  0  0  0  0  0  0  0  0
  1  2  1  0
  2  3  2  0
  2  4  1  0
  4  5  2  0
  5  6  1  0
  6  7  2  0
  7  8  1  0
  8  9  2  0
  9 10  1  0
 10 11  1  0
  9 12  1  0
 12 13  2  0
 13 14  1  0
 14 15  1  0
 15 16  2  0
 15 17  1  0
 17 18  1  0
 18 19  1  0
 19 20  1  0
 20 21  1  0
 21 22  1  0
 22 23  1  0
 14  4  1  0
 23 20  1  0
 13  6  1  0
  1 24  1  0
  1 25  1  0
  5 26  1  0
  7 27  1  0
  8 28  1  0
 10 29  1  0
 10 30  1  0
 12 31  1  0
 18 32  1  0
 18 33  1  0
 19 34  1  0
 19 35  1  0
 20 36  1  0
 21 37  1  0
 21 38  1  0
 23 39  1  0
 23 40  1  0
M  END
>  <UniqueID>  (6) 
6

>  <SMILES>  (6) 
NC(=O)c1cc2ccc(CF)cc2n1C(=O)OCCC1COC1

>  <Energy>  (6) 
137.67786663833147

>  <Genealogy>  (6) 
NC(=O)c1cc2ccc(CF)cc2n1C(=O)OCCC1COC1 (3D coordinates assigned)
NC(=O)c1cc2ccc(CF)cc2n1C(=O)OCCC1COC1 (nonaromatic ring conformer: 137.67786663833147 kcal/mol)

>  <smiles>  (6) 
NC(=O)c1cc2ccc(CF)cc2n1C(=O)OCCC1COC1

>  <score_type>  (6) 
oracle

>  <origin>  (6) 
adg

>  <m_score__min__energy>  (6) 
-6.75

>  <m_primary>  (6) 
energy

$$$$
6:0
     RDKit          3D

 49 50  0  0  0  0  0  0  0  0999 V2000
  137.7243  148.3660  130.0106 H   0  0  0  0  0  0  0  0  0  0  0  0
  138.7680  148.3020  130.3520 C   0  0  0  0  0  0  0  0  0  0  0  0
  139.3578  147.3955  130.1511 H   0  0  0  0  0  0  0  0  0  0  0  0
  139.3170  149.3210  131.0080 C   0  0  0  0  0  0  0  0  0  0  0  0
  138.7209  150.2242  131.2051 H   0  0  0  0  0  0  0  0  0  0  0  0
  140.7170  149.2550  131.4750 C   0  0  0  0  0  0  0  0  0  0  0  0
  141.3117  148.3761  131.1855 H   0  0  0  0  0  0  0  0  0  0  0  0
  141.3130  150.1900  132.2260 C   0  0  0  0  0  0  0  0  0  0  0  0
  142.3344  149.9909  132.5824 H   0  0  0  0  0  0  0  0  0  0  0  0
  140.6830  151.4760  132.6070 C   0  0  0  0  0  0  0  0  0  0  0  0
  139.5848  151.5385  132.6063 H   0  0  0  0  0  0  0  0  0  0  0  0
  141.3840  152.5720  132.9540 C   0  0  0  0  0  0  0  0  0  0  0  0
  142.8910  152.5700  132.9980 C   0  0  0  0  0  0  0  0  0  0  0  0
  143.2272  152.5696  134.0454 H   0  0  0  0  0  0  0  0  0  0  0  0
  143.2715  151.6714  132.4904 H   0  0  0  0  0  0  0  0  0  0  0  0
  143.2738  153.4676  132.4904 H   0  0  0  0  0  0  0  0  0  0  0  0
  140.6340  153.8210  133.3560 C   0  0  0  0  0  0  0  0  0  0  0  0
  139.6570  153.8342  132.8506 H   0  0  0  0  0  0  0  0  0  0  0  0
  140.4984  153.8167  134.4476 H   0  0  0  0  0  0  0  0  0  0  0  0
  141.3670  154.9880  132.9890 O   0  0  0  0  0  0  0  0  0  0  0  0
  142.0950  155.7580  133.9030 C   0  0  0  0  0  0  0  0  0  0  0  0
  142.7840  155.1990  134.8000 O   0  0  0  0  0  0  0  0  0  0  0  0
  142.0390  157.1900  133.8320 N   0  0  0  0  0  0  0  0  0  0  0  0
  140.9370  157.9810  133.9420 C   0  0  0  0  0  0  0  0  0  0  0  0
  139.5380  157.5090  133.9970 C   0  0  0  0  0  0  0  0  0  0  0  0
  138.7310  158.0570  134.7940 O   0  0  0  0  0  0  0  0  0  0  0  0
  139.0680  156.4840  133.1200 N   0  0  0  0  0  0  0  0  0  0  0  0
  138.0890  156.1300  133.2050 H   0  0  0  0  0  0  0  0  0  0  0  0
  139.6550  156.1390  132.3290 H   0  0  0  0  0  0  0  0  0  0  0  0
  141.2950  159.3260  133.9310 C   0  0  0  0  0  0  0  0  0  0  0  0
  140.6270  160.1959  134.0152 H   0  0  0  0  0  0  0  0  0  0  0  0
  142.6650  159.3340  133.7920 C   0  0  0  0  0  0  0  0  0  0  0  0
  143.5500  160.4020  133.7320 C   0  0  0  0  0  0  0  0  0  0  0  0
  143.1876  161.4398  133.7726 H   0  0  0  0  0  0  0  0  0  0  0  0
  144.9210  160.1200  133.6180 C   0  0  0  0  0  0  0  0  0  0  0  0
  145.6413  160.9494  133.5610 H   0  0  0  0  0  0  0  0  0  0  0  0
  145.3940  158.7760  133.5750 C   0  0  0  0  0  0  0  0  0  0  0  0
  146.8140  158.4940  133.4680 N   0  0  0  0  0  0  0  0  0  0  0  0
  147.3160  157.1240  133.6290 C   0  0  0  0  0  0  0  0  0  0  0  0
  147.4023  156.8886  134.7000 H   0  0  0  0  0  0  0  0  0  0  0  0
  146.6176  156.4194  133.1538 H   0  0  0  0  0  0  0  0  0  0  0  0
  148.3043  157.0374  133.1538 H   0  0  0  0  0  0  0  0  0  0  0  0
  147.7720  159.5730  133.1960 C   0  0  0  0  0  0  0  0  0  0  0  0
  148.1388  159.9861  134.1472 H   0  0  0  0  0  0  0  0  0  0  0  0
  148.6191  159.1743  132.6185 H   0  0  0  0  0  0  0  0  0  0  0  0
  147.2758  160.3669  132.6185 H   0  0  0  0  0  0  0  0  0  0  0  0
  144.4500  157.7190  133.6440 C   0  0  0  0  0  0  0  0  0  0  0  0
  144.7817  156.6703  133.6262 H   0  0  0  0  0  0  0  0  0  0  0  0
  143.0900  158.0340  133.7350 C   0  0  0  0  0  0  0  0  0  0  0  0
  1  2  1  0
  2  3  1  0
  2  4  2  0
  4  5  1  0
  4  6  1  0
  6  7  1  0
  6  8  2  0
  8  9  1  0
  8 10  1  0
 10 11  1  0
 10 12  2  0
 12 13  1  0
 13 14  1  0
 13 15  1  0
 13 16  1  0
 12 17  1  0
 17 18  1  0
 17 19  1  0
 17 20  1  0
 20 21  1  0
 21 22  2  0
 21 23  1  0
 23 24  1  0
 24 25  1  0
 25 26  2  0
 25 27  1  0
 27 28  1  0
 27 29  1  0
 24 30  2  0
 30 31  1  0
 30 32  1  0
 32 33  2  0
 33 34  1  0
 33 35  1  0
 35 36  1  0
 35 37  2  0
 37 38  1  0
 38 39  1  0
 39 40  1  0
 39 41  1  0
 39 42  1  0
 38 43  1  0
 43 44  1  0
 43 45  1  0
 43 46  1  0
 37 47  1  0
 47 48  1  0
 47 49  2  0
 49 23  1  0
 49 32  1  0
M  END
>  <UniqueID>  (7) 
7

>  <SMILES>  (7) 
C=C/C=C\C=C(/C)COC(=O)n1c(C(N)=O)cc2ccc(N(C)C)cc21

>  <Energy>  (7) 
83.86469365587324

>  <Genealogy>  (7) 
C=C/C=C\C=C(/C)COC(=O)n1c(C(N)=O)cc2ccc(N(C)C)cc21 (cis-trans isomerization)
C=C/C=C\C=C(/C)COC(=O)n1c(C(N)=O)cc2ccc(N(C)C)cc21 (3D coordinates assigned)
C=C/C=C\C=C(/C)COC(=O)n1c(C(N)=O)cc2ccc(N(C)C)cc21 (optimized conformer: 83.86469365587324 kcal/mol)

>  <smiles>  (7) 
C=C/C=C\C=C(/C)COC(=O)n1c(C(N)=O)cc2ccc(N(C)C)cc21

>  <score_type>  (7) 
oracle

>  <origin>  (7) 
adg

>  <m_score__min__energy>  (7) 
-8.5500000000000007

>  <m_primary>  (7) 
energy

$$$$
7:0
     RDKit          3D

 58 60  0  0  0  0  0  0  0  0999 V2000
  144.3780  161.1430  134.0820 C   0  0  0  0  0  0  0  0  0  0  0  0
  145.3330  160.2480  133.8320 C   0  0  0  0  0  0  0  0  0  0  0  0
  145.0570  158.9120  133.2460 C   0  0  0  0  0  0  0  0  0  0  0  0
  143.9460  158.7030  132.6940 O   0  0  0  0  0  0  0  0  0  0  0  0
  146.0400  157.8670  133.2380 N   0  0  0  0  0  0  0  0  0  0  0  0
  147.3660  157.9690  132.9480 C   0  0  0  0  0  0  0  0  0  0  0  0
  148.0670  159.2220  132.5990 C   0  0  0  0  0  0  0  0  0  0  0  0
  147.5160  160.1230  131.6410 N   0  0  0  0  0  0  0  0  0  0  0  0
  149.1530  159.4950  133.1590 O   0  0  0  0  0  0  0  0  0  0  0  0
  147.9630  156.7000  132.9590 C   0  0  0  0  0  0  0  0  0  0  0  0
  146.9400  155.8180  133.2530 C   0  0  0  0  0  0  0  0  0  0  0  0
  146.9430  154.4220  133.3150 C   0  0  0  0  0  0  0  0  0  0  0  0
  145.7190  153.7690  133.5560 C   0  0  0  0  0  0  0  0  0  0  0  0
  144.5240  154.5190  133.7260 C   0  0  0  0  0  0  0  0  0  0  0  0
  143.2640  153.8380  133.8920 N   0  0  0  0  0  0  0  0  0  0  0  0
  142.0430  154.6360  134.0360 C   0  0  0  0  0  0  0  0  0  0  0  0
  140.9630  154.2100  133.0190 C   0  0  0  0  0  0  0  0  0  0  0  0
  140.6210  152.7100  133.0330 C   0  0  0  0  0  0  0  0  0  0  0  0
  141.5380  151.8850  132.1980 N   0  0  2  0  0  0  0  0  0  0  0  0
  140.8050  150.7050  131.6030 C   0  0  0  0  0  0  0  0  0  0  0  0
  141.6620  149.3980  131.7060 C   0  0  0  0  0  0  0  0  0  0  0  0
  141.2410  148.5230  132.9020 C   0  0  0  0  0  0  0  0  0  0  0  0
  139.3670  150.4830  132.1780 C   0  0  0  0  0  0  0  0  0  0  0  0
  138.5260  149.4810  131.3610 C   0  0  0  0  0  0  0  0  0  0  0  0
  142.8620  151.5470  132.8330 C   0  0  0  0  0  0  0  0  0  0  0  0
  143.2550  152.3750  134.1000 C   0  0  0  0  0  0  0  0  0  0  0  0
  144.5680  155.9370  133.6630 C   0  0  0  0  0  0  0  0  0  0  0  0
  145.7950  156.5510  133.4180 C   0  0  0  0  0  0  0  0  0  0  0  0
  144.6391  162.1188  134.5175 H   0  0  0  0  0  0  0  0  0  0  0  0
  143.3285  160.9060  133.8529 H   0  0  0  0  0  0  0  0  0  0  0  0
  146.3740  160.5111  134.0708 H   0  0  0  0  0  0  0  0  0  0  0  0
  146.5290  160.4970  131.7540 H   0  0  0  0  0  0  0  0  0  0  0  0
  149.0199  156.4581  132.7733 H   0  0  0  0  0  0  0  0  0  0  0  0
  147.8732  153.8506  133.1797 H   0  0  0  0  0  0  0  0  0  0  0  0
  145.6876  152.6709  133.6131 H   0  0  0  0  0  0  0  0  0  0  0  0
  141.6474  154.5028  135.0537 H   0  0  0  0  0  0  0  0  0  0  0  0
  142.2963  155.6898  133.8479 H   0  0  0  0  0  0  0  0  0  0  0  0
  140.0440  154.7728  133.2396 H   0  0  0  0  0  0  0  0  0  0  0  0
  141.3741  154.4251  132.0216 H   0  0  0  0  0  0  0  0  0  0  0  0
  140.6760  152.3498  134.0709 H   0  0  0  0  0  0  0  0  0  0  0  0
  139.6119  152.6036  132.6082 H   0  0  0  0  0  0  0  0  0  0  0  0
  141.7720  152.5210  131.3980 H   0  0  0  0  0  0  0  0  0  0  0  0
  140.6599  150.9559  130.5419 H   0  0  0  0  0  0  0  0  0  0  0  0
  141.5366  148.8175  130.7801 H   0  0  0  0  0  0  0  0  0  0  0  0
  142.7118  149.6915  131.8534 H   0  0  0  0  0  0  0  0  0  0  0  0
  141.4899  149.0403  133.8403 H   0  0  0  0  0  0  0  0  0  0  0  0
  140.1569  148.3414  132.8598 H   0  0  0  0  0  0  0  0  0  0  0  0
  141.7756  147.5626  132.8598 H   0  0  0  0  0  0  0  0  0  0  0  0
  139.4580  150.1040  133.2066 H   0  0  0  0  0  0  0  0  0  0  0  0
  138.8480  151.4519  132.1349 H   0  0  0  0  0  0  0  0  0  0  0  0
  137.9729  148.8220  132.0464 H   0  0  0  0  0  0  0  0  0  0  0  0
  137.8147  150.0306  130.7269 H   0  0  0  0  0  0  0  0  0  0  0  0
  139.1906  148.8758  130.7269 H   0  0  0  0  0  0  0  0  0  0  0  0
  142.8339  150.4859  133.1217 H   0  0  0  0  0  0  0  0  0  0  0  0
  143.6212  151.7921  132.0757 H   0  0  0  0  0  0  0  0  0  0  0  0
  142.5346  152.1451  134.8988 H   0  0  0  0  0  0  0  0  0  0  0  0
  144.2851  152.0872  134.3572 H   0  0  0  0  0  0  0  0  0  0  0  0
  143.6562  156.5360  133.8041 H   0  0  0  0  0  0  0  0  0  0  0  0
  1  2  2  0
  2  3  1  0
  3  4  2  0
  3  5  1  0
  5  6  1  0
  6  7  1  0
  7  8  1  0
  7  9  2  0
  6 10  2  0
 10 11  1  0
 11 12  2  0
 12 13  1  0
 13 14  2  0
 14 15  1  0
 15 16  1  0
 16 17  1  0
 17 18  1  0
 18 19  1  0
 19 20  1  0
 20 21  1  0
 21 22  1  0
 20 23  1  0
 23 24  1  0
 19 25  1  0
 25 26  1  0
 14 27  1  0
 27 28  2  0
 28  5  1  0
 28 11  1  0
 26 15  1  0
  1 29  1  0
  1 30  1  0
  2 31  1  0
  8 32  1  0
 10 33  1  0
 12 34  1  0
 13 35  1  0
 16 36  1  0
 16 37  1  0
 17 38  1  0
 17 39  1  0
 18 40  1  0
 18 41  1  0
 19 42  1  6
 20 43  1  0
 21 44  1  0
 21 45  1  0
 22 46  1  0
 22 47  1  0
 22 48  1  0
 23 49  1  0
 23 50  1  0
 24 51  1  0
 24 52  1  0
 24 53  1  0
 25 54  1  0
 25 55  1  0
 26 56  1  0
 26 57  1  0
 27 58  1  0
M  CHG  2   8  -1  19   1
M  END
>  <UniqueID>  (8) 
8

>  <SMILES>  (8) 
C=CC(=O)n1c(C([NH-])=O)cc2ccc(N3CCC[N@H+](C(CC)CC)CC3)cc21

>  <Energy>  (8) 
123.34233009682303

>  <Genealogy>  (8) 
C=CC(=O)n1c(C([NH-])=O)cc2ccc(N3CCC[NH+](C(CC)CC)CC3)cc21 (protonated)
C=CC(=O)n1c(C([NH-])=O)cc2ccc(N3CCC[N@H+](C(CC)CC)CC3)cc21 (chirality)
C=CC(=O)n1c(C([NH-])=O)cc2ccc(N3CCC[N@H+](C(CC)CC)CC3)cc21 (3D coordinates assigned)
C=CC(=O)n1c(C([NH-])=O)cc2ccc(N3CCC[N@H+](C(CC)CC)CC3)cc21 (nonaromatic ring conformer: 123.34233009682303 kcal/mol)

>  <smiles>  (8) 
C=CC(=O)n1c(C(N)=O)cc2ccc(N3CCCN(C(CC)CC)CC3)cc21

>  <score_type>  (8) 
oracle

>  <origin>  (8) 
adg

>  <m_score__min__energy>  (8) 
-6.29

>  <m_primary>  (8) 
energy

$$$$
8:0
     RDKit          3D

 31 32  0  0  0  0  0  0  0  0999 V2000
  149.3350  162.9430  129.9800 C   0  0  0  0  0  0  0  0  0  0  0  0
  148.7740  161.7650  130.5450 O   0  0  0  0  0  0  0  0  0  0  0  0
  149.3320  160.4980  130.3500 C   0  0  0  0  0  0  0  0  0  0  0  0
  149.2230  159.9090  129.2400 O   0  0  0  0  0  0  0  0  0  0  0  0
  150.0210  159.8170  131.4880 C   0  0  0  0  0  0  0  0  0  0  0  0
  149.0460  158.9540  132.2380 C   0  0  0  0  0  0  0  0  0  0  0  0
  147.9700  159.5460  132.9430 C   0  0  0  0  0  0  0  0  0  0  0  0
  147.0400  158.7500  133.6300 C   0  0  0  0  0  0  0  0  0  0  0  0
  147.2000  157.3680  133.5780 C   0  0  0  0  0  0  0  0  0  0  0  0
  146.4630  156.3710  134.1760 C   0  0  0  0  0  0  0  0  0  0  0  0
  147.0740  155.1820  133.7890 C   0  0  0  0  0  0  0  0  0  0  0  0
  146.5630  153.8490  134.1640 C   0  0  0  0  0  0  0  0  0  0  0  0
  146.4210  152.8110  133.1930 N   0  0  0  0  0  0  0  0  0  0  0  0
  146.1920  153.6400  135.3490 O   0  0  0  0  0  0  0  0  0  0  0  0
  148.1550  155.4300  132.9960 N   0  0  0  0  0  0  0  0  0  0  0  0
  149.1060  154.4760  132.4920 C   0  0  0  0  0  0  0  0  0  0  0  0
  150.2960  154.8210  132.2700 O   0  0  0  0  0  0  0  0  0  0  0  0
  148.7230  153.1640  132.2410 O   0  0  0  0  0  0  0  0  0  0  0  0
  148.2170  156.7750  132.8730 C   0  0  0  0  0  0  0  0  0  0  0  0
  149.1710  157.5470  132.1980 C   0  0  0  0  0  0  0  0  0  0  0  0
  149.6569  163.6188  130.7860 H   0  0  0  0  0  0  0  0  0  0  0  0
  150.2020  162.6746  129.3584 H   0  0  0  0  0  0  0  0  0  0  0  0
  148.5802  163.4469  129.3584 H   0  0  0  0  0  0  0  0  0  0  0  0
  150.8364  159.1904  131.0975 H   0  0  0  0  0  0  0  0  0  0  0  0
  150.4284  160.5777  132.1702 H   0  0  0  0  0  0  0  0  0  0  0  0
  147.8618  160.6406  132.9524 H   0  0  0  0  0  0  0  0  0  0  0  0
  146.2106  159.2041  134.1920 H   0  0  0  0  0  0  0  0  0  0  0  0
  145.5802  156.4888  134.8215 H   0  0  0  0  0  0  0  0  0  0  0  0
  146.5570  153.0020  132.1760 H   0  0  0  0  0  0  0  0  0  0  0  0
  146.0930  151.8640  133.4830 H   0  0  0  0  0  0  0  0  0  0  0  0
  149.9971  157.0699  131.6503 H   0  0  0  0  0  0  0  0  0  0  0  0
  1  2  1  0
  2  3  1  0
  3  4  2  0
  3  5  1  0
  5  6  1  0
  6  7  2  0
  7  8  1  0
  8  9  2  0
  9 10  1  0
 10 11  2  0
 11 12  1  0
 12 13  1  0
 12 14  2  0
 11 15  1  0
 15 16  1  0
 16 17  2  0
 16 18  1  0
 15 19  1  0
 19 20  2  0
 20  6  1  0
 19  9  1  0
  1 21  1  0
  1 22  1  0
  1 23  1  0
  5 24  1  0
  5 25  1  0
  7 26  1  0
  8 27  1  0
 10 28  1  0
 13 29  1  0
 13 30  1  0
 20 31  1  0
M  CHG  1  18  -1
M  END
>  <UniqueID>  (9) 
9

>  <SMILES>  (9) 
COC(=O)Cc1ccc2cc(C(N)=O)n(C(=O)[O-])c2c1

>  <Energy>  (9) 
67.26250062963874

>  <Genealogy>  (9) 
COC(=O)Cc1ccc2cc(C(N)=O)n(C(=O)[O-])c2c1 (protonated)
COC(=O)Cc1ccc2cc(C(N)=O)n(C(=O)[O-])c2c1 (3D coordinates assigned)
COC(=O)Cc1ccc2cc(C(N)=O)n(C(=O)[O-])c2c1 (optimized conformer: 67.26250062963874 kcal/mol)

>  <smiles>  (9) 
COC(=O)Cc1ccc2cc(C(N)=O)n(C(=O)O)c2c1

>  <score_type>  (9) 
oracle

>  <origin>  (9) 
adg

>  <m_score__min__energy>  (9) 
-6.21

>  <m_primary>  (9) 
energy

$$$$
9:0
     RDKit          3D

 31 33  0  0  0  0  0  0  0  0999 V2000
  148.9770  157.4410  131.8630 N   0  0  0  0  0  0  0  0  0  0  0  0
  148.6820  158.5900  132.6580 C   0  0  0  0  0  0  0  0  0  0  0  0
  149.6080  159.3900  132.9540 O   0  0  0  0  0  0  0  0  0  0  0  0
  147.3000  158.8920  133.0820 C   0  0  0  0  0  0  0  0  0  0  0  0
  146.7720  160.1790  133.1080 C   0  0  0  0  0  0  0  0  0  0  0  0
  145.4590  160.0250  133.4890 C   0  0  0  0  0  0  0  0  0  0  0  0
  144.4710  160.9820  133.6910 C   0  0  0  0  0  0  0  0  0  0  0  0
  143.2080  160.5460  134.1220 C   0  0  0  0  0  0  0  0  0  0  0  0
  142.9550  159.1680  134.3530 C   0  0  0  0  0  0  0  0  0  0  0  0
  141.6200  158.7190  134.8220 C   0  0  0  0  0  0  0  0  0  0  0  0
  140.6460  158.2740  133.9110 C   0  0  0  0  0  0  0  0  0  0  0  0
  139.3950  157.8570  134.3670 C   0  0  0  0  0  0  0  0  0  0  0  0
  139.1220  157.8850  135.7340 C   0  0  0  0  0  0  0  0  0  0  0  0
  140.0690  158.3160  136.6090 N   0  0  0  0  0  0  0  0  0  0  0  0
  141.2950  158.7290  136.1900 C   0  0  0  0  0  0  0  0  0  0  0  0
  143.9890  158.2260  134.1370 C   0  0  0  0  0  0  0  0  0  0  0  0
  145.2320  158.6870  133.6860 C   0  0  0  0  0  0  0  0  0  0  0  0
  146.3580  157.9760  133.4440 N   0  0  0  0  0  0  0  0  0  0  0  0
  146.5490  156.5660  133.6500 C   0  0  0  0  0  0  0  0  0  0  0  0
  146.4470  156.0680  134.8020 O   0  0  0  0  0  0  0  0  0  0  0  0
  146.8580  155.7360  132.5790 O   0  0  0  0  0  0  0  0  0  0  0  0
  149.9640  157.2240  131.6030 H   0  0  0  0  0  0  0  0  0  0  0  0
  148.2150  156.8520  131.4630 H   0  0  0  0  0  0  0  0  0  0  0  0
  147.2931  161.1190  132.8739 H   0  0  0  0  0  0  0  0  0  0  0  0
  144.6729  162.0494  133.5182 H   0  0  0  0  0  0  0  0  0  0  0  0
  142.4050  161.2805  134.2826 H   0  0  0  0  0  0  0  0  0  0  0  0
  140.8711  158.2545  132.8344 H   0  0  0  0  0  0  0  0  0  0  0  0
  138.6318  157.5096  133.6551 H   0  0  0  0  0  0  0  0  0  0  0  0
  138.1394  157.5580  136.1049 H   0  0  0  0  0  0  0  0  0  0  0  0
  142.0369  159.0730  136.9257 H   0  0  0  0  0  0  0  0  0  0  0  0
  143.8198  157.1545  134.3195 H   0  0  0  0  0  0  0  0  0  0  0  0
  1  2  1  0
  2  3  2  0
  2  4  1  0
  4  5  2  0
  5  6  1  0
  6  7  2  0
  7  8  1  0
  8  9  2  0
  9 10  1  0
 10 11  2  0
 11 12  1  0
 12 13  2  0
 13 14  1  0
 14 15  2  0
  9 16  1  0
 16 17  2  0
 17 18  1  0
 18 19  1  0
 19 20  2  0
 19 21  1  0
 18  4  1  0
 17  6  1  0
 15 10  1  0
  1 22  1  0
  1 23  1  0
  5 24  1  0
  7 25  1  0
  8 26  1  0
 11 27  1  0
 12 28  1  0
 13 29  1  0
 15 30  1  0
 16 31  1  0
M  CHG  1  21  -1
M  END
>  <UniqueID>  (10) 
10

>  <SMILES>  (10) 
NC(=O)c1cc2ccc(-c3cccnc3)cc2n1C(=O)[O-]

>  <Energy>  (10) 
80.04805640560141

>  <Genealogy>  (10) 
NC(=O)c1cc2ccc(-c3cccnc3)cc2n1C(=O)[O-] (protonated)
NC(=O)c1cc2ccc(-c3cccnc3)cc2n1C(=O)[O-] (3D coordinates assigned)
NC(=O)c1cc2ccc(-c3cccnc3)cc2n1C(=O)[O-] (optimized conformer: 80.04805640560141 kcal/mol)

>  <smiles>  (10) 
NC(=O)c1cc2ccc(-c3cccnc3)cc2n1C(=O)O

>  <score_type>  (10) 
oracle

>  <origin>  (10) 
adg

>  <m_score__min__energy>  (10) 
-6.9699999999999998

>  <m_primary>  (10) 
energy

$$$$
10:0
     RDKit          3D

 52 54  0  0  0  0  0  0  0  0999 V2000
  139.8350  158.1540  136.7630 N   0  0  0  0  0  0  0  0  0  0  0  0
  140.1480  158.2040  135.3750 C   0  0  0  0  0  0  0  0  0  0  0  0
  139.2650  157.8940  134.5310 O   0  0  0  0  0  0  0  0  0  0  0  0
  141.5010  158.5850  134.9140 C   0  0  0  0  0  0  0  0  0  0  0  0
  141.9150  159.9020  134.7130 C   0  0  0  0  0  0  0  0  0  0  0  0
  143.2050  159.8110  134.2390 C   0  0  0  0  0  0  0  0  0  0  0  0
  144.1000  160.8120  133.8710 C   0  0  0  0  0  0  0  0  0  0  0  0
  145.3710  160.4220  133.4140 C   0  0  0  0  0  0  0  0  0  0  0  0
  145.7260  159.0500  133.3460 C   0  0  0  0  0  0  0  0  0  0  0  0
  147.0720  158.6470  132.8120 C   0  0  0  0  0  0  0  0  0  0  0  0
  148.1250  159.7000  133.1720 C   0  0  0  0  0  0  0  0  0  0  0  0
  149.2780  159.6970  132.1590 C   0  0  0  0  0  0  0  0  0  0  0  0
  148.8350  160.2260  130.7900 C   0  0  0  0  0  0  0  0  0  0  0  0
  148.7480  161.6850  130.7990 N   0  0  0  0  0  0  0  0  0  0  0  0
  144.7890  158.0640  133.7270 C   0  0  0  0  0  0  0  0  0  0  0  0
  143.5310  158.4830  134.1690 C   0  0  0  0  0  0  0  0  0  0  0  0
  142.4970  157.7210  134.5760 N   0  0  0  0  0  0  0  0  0  0  0  0
  142.5030  156.2930  134.7180 C   0  0  0  0  0  0  0  0  0  0  0  0
  142.8050  155.7970  135.8380 O   0  0  0  0  0  0  0  0  0  0  0  0
  142.1820  155.4280  133.6060 N   0  0  0  0  0  0  0  0  0  0  0  0
  140.8080  154.9180  133.4230 C   0  0  0  0  0  0  0  0  0  0  0  0
  140.7800  153.4340  133.0000 C   0  0  0  0  0  0  0  0  0  0  0  0
  141.8300  152.5390  133.6870 C   0  0  0  0  0  0  0  0  0  0  0  0
  143.1260  152.5030  132.9870 N   0  0  0  0  0  0  0  0  0  0  0  0
  143.9700  153.7040  133.1370 C   0  0  0  0  0  0  0  0  0  0  0  0
  143.2770  155.0110  132.7040 C   0  0  0  0  0  0  0  0  0  0  0  0
  139.4710  158.9960  137.2620 H   0  0  0  0  0  0  0  0  0  0  0  0
  141.3344  160.8185  134.8945 H   0  0  0  0  0  0  0  0  0  0  0  0
  143.8215  161.8742  133.9358 H   0  0  0  0  0  0  0  0  0  0  0  0
  146.0976  161.1883  133.1060 H   0  0  0  0  0  0  0  0  0  0  0  0
  147.3613  157.6803  133.2499 H   0  0  0  0  0  0  0  0  0  0  0  0
  147.0113  158.5621  131.7170 H   0  0  0  0  0  0  0  0  0  0  0  0
  147.6529  160.6935  133.1760 H   0  0  0  0  0  0  0  0  0  0  0  0
  148.5322  159.4615  134.1656 H   0  0  0  0  0  0  0  0  0  0  0  0
  150.0893  160.3339  132.5412 H   0  0  0  0  0  0  0  0  0  0  0  0
  149.6174  158.6586  132.0306 H   0  0  0  0  0  0  0  0  0  0  0  0
  149.5654  159.9133  130.0293 H   0  0  0  0  0  0  0  0  0  0  0  0
  147.8409  159.8156  130.5590 H   0  0  0  0  0  0  0  0  0  0  0  0
  148.2940  161.9910  129.9100 H   0  0  0  0  0  0  0  0  0  0  0  0
  148.1030  161.9590  131.5750 H   0  0  0  0  0  0  0  0  0  0  0  0
  145.0427  156.9948  133.6772 H   0  0  0  0  0  0  0  0  0  0  0  0
  140.2628  155.0246  134.3724 H   0  0  0  0  0  0  0  0  0  0  0  0
  140.3383  155.5037  132.6190 H   0  0  0  0  0  0  0  0  0  0  0  0
  139.7834  153.0316  133.2342 H   0  0  0  0  0  0  0  0  0  0  0  0
  141.0179  153.4168  131.9262 H   0  0  0  0  0  0  0  0  0  0  0  0
  141.9961  152.9180  134.7062 H   0  0  0  0  0  0  0  0  0  0  0  0
  141.4323  151.5134  133.6805 H   0  0  0  0  0  0  0  0  0  0  0  0
  142.9490  152.3570  131.9650 H   0  0  0  0  0  0  0  0  0  0  0  0
  144.2553  153.7971  134.1953 H   0  0  0  0  0  0  0  0  0  0  0  0
  144.8390  153.5687  132.4763 H   0  0  0  0  0  0  0  0  0  0  0  0
  144.0304  155.8120  132.6784 H   0  0  0  0  0  0  0  0  0  0  0  0
  142.8286  154.8263  131.7167 H   0  0  0  0  0  0  0  0  0  0  0  0
  1  2  1  0
  2  3  2  0
  2  4  1  0
  4  5  2  0
  5  6  1  0
  6  7  2  0
  7  8  1  0
  8  9  2  0
  9 10  1  0
 10 11  1  0
 11 12  1  0
 12 13  1  0
 13 14  1  0
  9 15  1  0
 15 16  2  0
 16 17  1  0
 17 18  1  0
 18 19  2  0
 18 20  1  0
 20 21  1  0
 21 22  1  0
 22 23  1  0
 23 24  1  0
 24 25  1  0
 25 26  1  0
 17  4  1  0
 26 20  1  0
 16  6  1  0
  1 27  1  0
  5 28  1  0
  7 29  1  0
  8 30  1  0
 10 31  1  0
 10 32  1  0
 11 33  1  0
 11 34  1  0
 12 35  1  0
 12 36  1  0
 13 37  1  0
 13 38  1  0
 14 39  1  0
 14 40  1  0
 15 41  1  0
 21 42  1  0
 21 43  1  0
 22 44  1  0
 22 45  1  0
 23 46  1  0
 23 47  1  0
 24 48  1  0
 25 49  1  0
 25 50  1  0
 26 51  1  0
 26 52  1  0
M  CHG  1   1  -1
M  END
>  <UniqueID>  (11) 
11

>  <SMILES>  (11) 
[NH-]C(=O)c1cc2ccc(CCCCN)cc2n1C(=O)N1CCCNCC1

>  <Energy>  (11) 
93.80816615490126

>  <Genealogy>  (11) 
[NH-]C(=O)c1cc2ccc(CCCCN)cc2n1C(=O)N1CCCNCC1 (protonated)
[NH-]C(=O)c1cc2ccc(CCCCN)cc2n1C(=O)N1CCCNCC1 (3D coordinates assigned)
[NH-]C(=O)c1cc2ccc(CCCCN)cc2n1C(=O)N1CCCNCC1 (nonaromatic ring conformer: 93.80816615490126 kcal/mol)

>  <smiles>  (11) 
NCCCCc1ccc2cc(C(N)=O)n(C(=O)N3CCCNCC3)c2c1

>  <score_type>  (11) 
oracle

>  <origin>  (11) 
adg

>  <m_score__min__energy>  (11) 
-6.7599999999999998

>  <m_primary>  (11) 
energy

$$$$
11:0
     RDKit          3D

 43 45  0  0  0  0  0  0  0  0999 V2000
  139.1510  160.6400  132.0730 N   0  0  0  0  0  0  0  0  0  0  0  0
  140.2380  160.1240  132.8370 C   0  0  0  0  0  0  0  0  0  0  0  0
  141.0250  160.9270  133.4070 O   0  0  0  0  0  0  0  0  0  0  0  0
  140.4880  158.6710  132.9210 C   0  0  0  0  0  0  0  0  0  0  0  0
  139.4870  157.7130  132.7760 C   0  0  0  0  0  0  0  0  0  0  0  0
  140.1000  156.5050  133.0090 C   0  0  0  0  0  0  0  0  0  0  0  0
  139.5780  155.2150  132.9780 C   0  0  0  0  0  0  0  0  0  0  0  0
  140.4520  154.1430  133.2220 C   0  0  0  0  0  0  0  0  0  0  0  0
  141.8230  154.3780  133.4950 C   0  0  0  0  0  0  0  0  0  0  0  0
  142.7590  153.2190  133.7050 C   0  0  0  0  0  0  0  0  0  0  0  0
  144.2060  153.7160  133.8390 C   0  0  0  0  0  0  0  0  0  0  0  0
  144.7500  154.3070  132.5210 C   0  0  0  0  0  0  0  0  0  0  0  0
  145.4000  155.6300  132.7130 N   0  0  0  0  0  0  0  0  0  0  0  0
  145.5100  155.9900  134.1400 C   0  0  0  0  0  0  0  0  0  0  0  0
  146.9090  155.6060  134.6190 C   0  0  0  0  0  0  0  0  0  0  0  0
  147.6770  155.2110  133.3730 C   0  0  0  0  0  0  0  0  0  0  0  0
  146.7850  155.6250  132.2170 C   0  0  0  0  0  0  0  0  0  0  0  0
  142.3210  155.7010  133.5060 C   0  0  0  0  0  0  0  0  0  0  0  0
  141.4230  156.7500  133.2760 C   0  0  0  0  0  0  0  0  0  0  0  0
  141.6790  158.0770  133.2230 N   0  0  0  0  0  0  0  0  0  0  0  0
  142.9650  158.7000  133.3650 C   0  0  0  0  0  0  0  0  0  0  0  0
  143.9460  158.2950  132.6870 O   0  0  0  0  0  0  0  0  0  0  0  0
  143.1460  159.7370  134.2700 O   0  0  0  0  0  0  0  0  0  0  0  0
  138.6990  161.5460  132.3250 H   0  0  0  0  0  0  0  0  0  0  0  0
  138.4296  157.8866  132.5276 H   0  0  0  0  0  0  0  0  0  0  0  0
  138.5123  155.0403  132.7686 H   0  0  0  0  0  0  0  0  0  0  0  0
  140.0692  153.1120  133.2011 H   0  0  0  0  0  0  0  0  0  0  0  0
  142.4732  152.6841  134.6227 H   0  0  0  0  0  0  0  0  0  0  0  0
  142.6923  152.5452  132.8381 H   0  0  0  0  0  0  0  0  0  0  0  0
  144.2418  154.4937  134.6161 H   0  0  0  0  0  0  0  0  0  0  0  0
  144.8339  152.8524  134.1035 H   0  0  0  0  0  0  0  0  0  0  0  0
  145.4890  153.6091  132.1005 H   0  0  0  0  0  0  0  0  0  0  0  0
  143.8959  154.4507  131.8428 H   0  0  0  0  0  0  0  0  0  0  0  0
  144.8650  156.3710  132.2020 H   0  0  0  0  0  0  0  0  0  0  0  0
  145.3571  157.0722  134.2645 H   0  0  0  0  0  0  0  0  0  0  0  0
  144.7465  155.4588  134.7273 H   0  0  0  0  0  0  0  0  0  0  0  0
  147.3933  156.4614  135.1126 H   0  0  0  0  0  0  0  0  0  0  0  0
  146.8758  154.7861  135.3516 H   0  0  0  0  0  0  0  0  0  0  0  0
  148.6400  155.7407  133.3277 H   0  0  0  0  0  0  0  0  0  0  0  0
  147.9088  154.1359  133.3528 H   0  0  0  0  0  0  0  0  0  0  0  0
  147.0635  156.6303  131.8680 H   0  0  0  0  0  0  0  0  0  0  0  0
  146.8937  154.9286  131.3725 H   0  0  0  0  0  0  0  0  0  0  0  0
  143.3868  155.9010  133.6905 H   0  0  0  0  0  0  0  0  0  0  0  0
  1  2  1  0
  2  3  2  0
  2  4  1  0
  4  5  2  0
  5  6  1  0
  6  7  2  0
  7  8  1  0
  8  9  2  0
  9 10  1  0
 10 11  1  0
 11 12  1  0
 12 13  1  0
 13 14  1  0
 14 15  1  0
 15 16  1  0
 16 17  1  0
  9 18  1  0
 18 19  2  0
 19 20  1  0
 20 21  1  0
 21 22  2  0
 21 23  1  0
 20  4  1  0
 19  6  1  0
 17 13  1  0
  1 24  1  0
  5 25  1  0
  7 26  1  0
  8 27  1  0
 10 28  1  0
 10 29  1  0
 11 30  1  0
 11 31  1  0
 12 32  1  0
 12 33  1  0
 13 34  1  0
 14 35  1  0
 14 36  1  0
 15 37  1  0
 15 38  1  0
 16 39  1  0
 16 40  1  0
 17 41  1  0
 17 42  1  0
 18 43  1  0
M  CHG  3   1  -1  13   1  23  -1
M  END
>  <UniqueID>  (12) 
12

>  <SMILES>  (12) 
[NH-]C(=O)c1cc2ccc(CCC[NH+]3CCCC3)cc2n1C(=O)[O-]

>  <Energy>  (12) 
85.51833063476711

>  <Genealogy>  (12) 
[NH-]C(=O)c1cc2ccc(CCC[NH+]3CCCC3)cc2n1C(=O)[O-] (protonated)
[NH-]C(=O)c1cc2ccc(CCC[NH+]3CCCC3)cc2n1C(=O)[O-] (3D coordinates assigned)
[NH-]C(=O)c1cc2ccc(CCC[NH+]3CCCC3)cc2n1C(=O)[O-] (nonaromatic ring conformer: 85.51833063476711 kcal/mol)

>  <smiles>  (12) 
NC(=O)c1cc2ccc(CCCN3CCCC3)cc2n1C(=O)O

>  <score_type>  (12) 
oracle

>  <origin>  (12) 
adg

>  <m_score__min__energy>  (12) 
-6.8600000000000003

>  <m_primary>  (12) 
energy

$$$$
12:0
     RDKit          3D

 34 35  0  0  0  0  0  0  0  0999 V2000
  148.9380  161.5220  130.8280 C   0  0  0  0  0  0  0  0  0  0  0  0
  149.5810  159.9250  130.3690 S   0  0  0  0  0  0  0  0  0  0  0  0
  148.5310  159.1960  129.5800 O   0  0  0  0  0  0  0  0  0  0  0  0
  150.8020  160.1030  129.5100 O   0  0  0  0  0  0  0  0  0  0  0  0
  149.9770  158.9620  131.8280 C   0  0  0  0  0  0  0  0  0  0  0  0
  149.1920  159.4030  133.0710 C   0  0  0  0  0  0  0  0  0  0  0  0
  147.8320  158.7620  133.1540 C   0  0  0  0  0  0  0  0  0  0  0  0
  147.6970  157.3560  133.0330 C   0  0  0  0  0  0  0  0  0  0  0  0
  146.4330  156.7480  133.1190 C   0  0  0  0  0  0  0  0  0  0  0  0
  145.3280  157.5680  133.3340 C   0  0  0  0  0  0  0  0  0  0  0  0
  143.9950  157.2440  133.4280 C   0  0  0  0  0  0  0  0  0  0  0  0
  143.3370  158.4530  133.6330 C   0  0  0  0  0  0  0  0  0  0  0  0
  141.8810  158.5560  133.8500 C   0  0  0  0  0  0  0  0  0  0  0  0
  141.0600  159.3520  132.9930 N   0  0  0  0  0  0  0  0  0  0  0  0
  141.3600  157.9790  134.8400 O   0  0  0  0  0  0  0  0  0  0  0  0
  144.2240  159.4880  133.6500 N   0  0  0  0  0  0  0  0  0  0  0  0
  143.9260  160.8930  133.7270 C   0  0  0  0  0  0  0  0  0  0  0  0
  142.8000  161.3250  133.3640 O   0  0  0  0  0  0  0  0  0  0  0  0
  144.8770  161.7900  134.1970 O   0  0  0  0  0  0  0  0  0  0  0  0
  145.4410  158.9280  133.4690 C   0  0  0  0  0  0  0  0  0  0  0  0
  146.6850  159.5620  133.3620 C   0  0  0  0  0  0  0  0  0  0  0  0
  148.9055  161.6028  131.9245 H   0  0  0  0  0  0  0  0  0  0  0  0
  149.5889  162.3100  130.4214 H   0  0  0  0  0  0  0  0  0  0  0  0
  147.9226  161.6391  130.4214 H   0  0  0  0  0  0  0  0  0  0  0  0
  149.7457  157.9061  131.6241 H   0  0  0  0  0  0  0  0  0  0  0  0
  151.0449  159.1153  132.0427 H   0  0  0  0  0  0  0  0  0  0  0  0
  149.7670  159.1269  133.9672 H   0  0  0  0  0  0  0  0  0  0  0  0
  149.0442  160.4909  133.0033 H   0  0  0  0  0  0  0  0  0  0  0  0
  148.5902  156.7350  132.8702 H   0  0  0  0  0  0  0  0  0  0  0  0
  146.3199  155.6584  133.0196 H   0  0  0  0  0  0  0  0  0  0  0  0
  143.5448  156.2429  133.3564 H   0  0  0  0  0  0  0  0  0  0  0  0
  141.4810  159.9750  132.2690 H   0  0  0  0  0  0  0  0  0  0  0  0
  140.0270  159.3830  133.1370 H   0  0  0  0  0  0  0  0  0  0  0  0
  146.7678  160.6562  133.4380 H   0  0  0  0  0  0  0  0  0  0  0  0
  1  2  1  0
  2  3  2  0
  2  4  2  0
  2  5  1  0
  5  6  1  0
  6  7  1  0
  7  8  2  0
  8  9  1  0
  9 10  2  0
 10 11  1  0
 11 12  2  0
 12 13  1  0
 13 14  1  0
 13 15  2  0
 12 16  1  0
 16 17  1  0
 17 18  2  0
 17 19  1  0
 16 20  1  0
 20 21  2  0
 21  7  1  0
 20 10  1  0
  1 22  1  0
  1 23  1  0
  1 24  1  0
  5 25  1  0
  5 26  1  0
  6 27  1  0
  6 28  1  0
  8 29  1  0
  9 30  1  0
 11 31  1  0
 14 32  1  0
 14 33  1  0
 21 34  1  0
M  CHG  1  19  -1
M  END
>  <UniqueID>  (13) 
13

>  <SMILES>  (13) 
CS(=O)(=O)CCc1ccc2cc(C(N)=O)n(C(=O)[O-])c2c1

>  <Energy>  (13) 
64.6733669586277

>  <Genealogy>  (13) 
CS(=O)(=O)CCc1ccc2cc(C(N)=O)n(C(=O)[O-])c2c1 (protonated)
CS(=O)(=O)CCc1ccc2cc(C(N)=O)n(C(=O)[O-])c2c1 (3D coordinates assigned)
CS(=O)(=O)CCc1ccc2cc(C(N)=O)n(C(=O)[O-])c2c1 (optimized conformer: 64.6733669586277 kcal/mol)

>  <smiles>  (13) 
CS(=O)(=O)CCc1ccc2cc(C(N)=O)n(C(=O)O)c2c1

>  <score_type>  (13) 
oracle

>  <origin>  (13) 
adg

>  <m_score__min__energy>  (13) 
-7.1399999999999997

>  <m_primary>  (13) 
energy

$$$$
13:0
     RDKit          3D

 42 43  0  0  0  0  0  0  0  0999 V2000
  140.3900  155.7500  134.2900 N   0  0  0  0  0  0  0  0  0  0  0  0
  140.8880  156.7480  133.4030 C   0  0  0  0  0  0  0  0  0  0  0  0
  140.0950  157.3200  132.6110 O   0  0  0  0  0  0  0  0  0  0  0  0
  142.3310  157.0690  133.3900 C   0  0  0  0  0  0  0  0  0  0  0  0
  143.3260  156.1160  133.1820 C   0  0  0  0  0  0  0  0  0  0  0  0
  144.5060  156.8230  133.1500 C   0  0  0  0  0  0  0  0  0  0  0  0
  145.8130  156.3730  132.9910 C   0  0  0  0  0  0  0  0  0  0  0  0
  146.8460  157.3240  133.0330 C   0  0  0  0  0  0  0  0  0  0  0  0
  146.5580  158.7020  133.2210 C   0  0  0  0  0  0  0  0  0  0  0  0
  147.6810  159.7080  133.3210 C   0  0  0  0  0  0  0  0  0  0  0  0
  148.5640  159.3480  134.3270 F   0  0  0  0  0  0  0  0  0  0  0  0
  147.1780  160.9610  133.6340 F   0  0  0  0  0  0  0  0  0  0  0  0
  148.4100  159.7800  132.0150 C   0  0  0  0  0  0  0  0  0  0  0  0
  149.5640  159.2860  131.9040 O   0  0  0  0  0  0  0  0  0  0  0  0
  147.7920  160.3350  130.9010 O   0  0  0  0  0  0  0  0  0  0  0  0
  145.2160  159.1140  133.4000 C   0  0  0  0  0  0  0  0  0  0  0  0
  144.2070  158.1460  133.3370 C   0  0  0  0  0  0  0  0  0  0  0  0
  142.8740  158.3160  133.4900 N   0  0  0  0  0  0  0  0  0  0  0  0
  142.2030  159.5520  133.7810 C   0  0  0  0  0  0  0  0  0  0  0  0
  142.8200  160.6440  133.6650 O   0  0  0  0  0  0  0  0  0  0  0  0
  140.8490  159.5370  134.2500 N   0  0  0  0  0  0  0  0  0  0  0  0
  140.4460  158.9910  135.5420 C   0  0  0  0  0  0  0  0  0  0  0  0
  141.4570  159.3520  136.6350 C   0  0  0  0  0  0  0  0  0  0  0  0
  141.7200  158.2100  137.5050 N   0  0  0  0  0  0  0  0  0  0  0  0
  141.5630  156.8530  137.0890 C   0  0  0  0  0  0  0  0  0  0  0  0
  140.5040  156.2400  137.3910 O   0  0  0  0  0  0  0  0  0  0  0  0
  142.5790  156.2240  136.3560 O   0  0  0  0  0  0  0  0  0  0  0  0
  142.7410  154.8390  136.2280 C   0  0  0  0  0  0  0  0  0  0  0  0
  141.7540  154.0570  136.3130 O   0  0  0  0  0  0  0  0  0  0  0  0
  144.1150  154.2780  136.0570 C   0  0  0  0  0  0  0  0  0  0  0  0
  145.0210  155.2960  135.8220 F   0  0  0  0  0  0  0  0  0  0  0  0
  144.4890  153.5980  137.2020 F   0  0  0  0  0  0  0  0  0  0  0  0
  144.1220  153.4050  134.9860 F   0  0  0  0  0  0  0  0  0  0  0  0
  140.7390  155.6820  135.2720 H   0  0  0  0  0  0  0  0  0  0  0  0
  143.1959  155.0297  133.0677 H   0  0  0  0  0  0  0  0  0  0  0  0
  146.0306  155.3058  132.8372 H   0  0  0  0  0  0  0  0  0  0  0  0
  147.8902  156.9976  132.9190 H   0  0  0  0  0  0  0  0  0  0  0  0
  144.9715  160.1705  133.5844 H   0  0  0  0  0  0  0  0  0  0  0  0
  139.4620  159.4008  135.8137 H   0  0  0  0  0  0  0  0  0  0  0  0
  140.3997  157.8952  135.4582 H   0  0  0  0  0  0  0  0  0  0  0  0
  142.3988  159.6685  136.1629 H   0  0  0  0  0  0  0  0  0  0  0  0
  141.0374  160.1661  137.2442 H   0  0  0  0  0  0  0  0  0  0  0  0
  1  2  1  0
  2  3  2  0
  2  4  1  0
  4  5  2  0
  5  6  1  0
  6  7  2  0
  7  8  1  0
  8  9  2  0
  9 10  1  0
 10 11  1  0
 10 12  1  0
 10 13  1  0
 13 14  2  0
 13 15  1  0
  9 16  1  0
 16 17  2  0
 17 18  1  0
 18 19  1  0
 19 20  2  0
 19 21  1  0
 21 22  1  0
 22 23  1  0
 23 24  1  0
 24 25  1  0
 25 26  2  0
 25 27  1  0
 27 28  1  0
 28 29  2  0
 28 30  1  0
 30 31  1  0
 30 32  1  0
 30 33  1  0
 18  4  1  0
 17  6  1  0
  1 34  1  0
  5 35  1  0
  7 36  1  0
  8 37  1  0
 16 38  1  0
 22 39  1  0
 22 40  1  0
 23 41  1  0
 23 42  1  0
M  CHG  4   1  -1  15  -1  21  -1  24  -1
M  END
>  <UniqueID>  (14) 
14

>  <SMILES>  (14) 
[NH-]C(=O)c1cc2ccc(C(F)(F)C(=O)[O-])cc2n1C(=O)[N-]CC[N-]C(=O)OC(=O)C(F)(F)F

>  <Energy>  (14) 
74.75858105736819

>  <Genealogy>  (14) 
[NH-]C(=O)c1cc2ccc(C(F)(F)C(=O)[O-])cc2n1C(=O)[N-]CC[N-]C(=O)OC(=O)C(F)(F)F (protonated)
[NH-]C(=O)c1cc2ccc(C(F)(F)C(=O)[O-])cc2n1C(=O)[N-]CC[N-]C(=O)OC(=O)C(F)(F)F (3D coordinates assigned)
[NH-]C(=O)c1cc2ccc(C(F)(F)C(=O)[O-])cc2n1C(=O)[N-]CC[N-]C(=O)OC(=O)C(F)(F)F (optimized conformer: 74.75858105736819 kcal/mol)

>  <smiles>  (14) 
NC(=O)c1cc2ccc(C(F)(F)C(=O)O)cc2n1C(=O)NCCNC(=O)OC(=O)C(F)(F)F

>  <score_type>  (14) 
oracle

>  <origin>  (14) 
adg

>  <m_score__min__energy>  (14) 
-7.25

>  <m_primary>  (14) 
energy

$$$$
14:0
     RDKit          3D

 47 49  0  0  0  0  0  0  0  0999 V2000
  149.9780  159.8530  129.6290 C   0  0  0  0  0  0  0  0  0  0  0  0
  149.0060  159.7580  130.7550 C   0  0  0  0  0  0  0  0  0  0  0  0
  148.8280  158.6730  131.5930 C   0  0  0  0  0  0  0  0  0  0  0  0
  147.7900  159.0640  132.4160 C   0  0  0  0  0  0  0  0  0  0  0  0
  147.1580  158.2500  133.4690 C   0  0  0  0  0  0  0  0  0  0  0  0
  147.8490  157.8500  134.4440 O   0  0  0  0  0  0  0  0  0  0  0  0
  145.7720  157.8780  133.3790 N   0  0  0  0  0  0  0  0  0  0  0  0
  144.6800  158.6800  133.5180 C   0  0  0  0  0  0  0  0  0  0  0  0
  144.7020  160.1480  133.6840 C   0  0  0  0  0  0  0  0  0  0  0  0
  145.9290  160.8110  133.9800 N   0  0  0  0  0  0  0  0  0  0  0  0
  143.6430  160.8230  133.5920 O   0  0  0  0  0  0  0  0  0  0  0  0
  143.5080  157.9290  133.4210 C   0  0  0  0  0  0  0  0  0  0  0  0
  143.9220  156.6300  133.2180 C   0  0  0  0  0  0  0  0  0  0  0  0
  143.1780  155.4630  133.0480 C   0  0  0  0  0  0  0  0  0  0  0  0
  143.8780  154.2570  132.8580 C   0  0  0  0  0  0  0  0  0  0  0  0
  145.2920  154.2470  132.8580 C   0  0  0  0  0  0  0  0  0  0  0  0
  146.0190  153.0290  132.6270 C   0  0  0  0  0  0  0  0  0  0  0  0
  146.6810  152.0440  132.4190 C   0  0  0  0  0  0  0  0  0  0  0  0
  147.5390  150.8810  132.1760 C   0  0  0  0  0  0  0  0  0  0  0  0
  148.8340  150.9600  133.0020 C   0  0  0  0  0  0  0  0  0  0  0  0
  149.9410  151.5840  132.2390 N   0  0  0  0  0  0  0  0  0  0  0  0
  149.9850  151.0990  130.8460 C   0  0  0  0  0  0  0  0  0  0  0  0
  149.7830  153.0480  132.2360 C   0  0  0  0  0  0  0  0  0  0  0  0
  146.0120  155.4400  133.0480 C   0  0  0  0  0  0  0  0  0  0  0  0
  145.2920  156.6280  133.2040 C   0  0  0  0  0  0  0  0  0  0  0  0
  147.4050  160.3080  132.0700 N   0  0  0  0  0  0  0  0  0  0  0  0
  148.1430  160.6960  131.0730 O   0  0  0  0  0  0  0  0  0  0  0  0
  150.9968  159.9526  130.0315 H   0  0  0  0  0  0  0  0  0  0  0  0
  149.9146  158.9444  129.0122 H   0  0  0  0  0  0  0  0  0  0  0  0
  149.7399  160.7321  129.0122 H   0  0  0  0  0  0  0  0  0  0  0  0
  149.3821  157.7228  131.6022 H   0  0  0  0  0  0  0  0  0  0  0  0
  146.2620  161.6100  133.3960 H   0  0  0  0  0  0  0  0  0  0  0  0
  142.4733  158.2957  133.4916 H   0  0  0  0  0  0  0  0  0  0  0  0
  142.0783  155.4844  133.0620 H   0  0  0  0  0  0  0  0  0  0  0  0
  143.3233  153.3189  132.7090 H   0  0  0  0  0  0  0  0  0  0  0  0
  146.9920  149.9679  132.4535 H   0  0  0  0  0  0  0  0  0  0  0  0
  147.8078  150.8644  131.1095 H   0  0  0  0  0  0  0  0  0  0  0  0
  148.6434  151.5584  133.9051 H   0  0  0  0  0  0  0  0  0  0  0  0
  149.1353  149.9343  133.2611 H   0  0  0  0  0  0  0  0  0  0  0  0
  150.0844  150.0035  130.8421 H   0  0  0  0  0  0  0  0  0  0  0  0
  149.0572  151.3848  130.3287 H   0  0  0  0  0  0  0  0  0  0  0  0
  150.8462  151.5471  130.3287 H   0  0  0  0  0  0  0  0  0  0  0  0
  149.7434  153.4147  133.2723 H   0  0  0  0  0  0  0  0  0  0  0  0
  150.6367  153.5079  131.7167 H   0  0  0  0  0  0  0  0  0  0  0  0
  148.8508  153.3151  131.7167 H   0  0  0  0  0  0  0  0  0  0  0  0
  147.1117  155.4383  133.0732 H   0  0  0  0  0  0  0  0  0  0  0  0
  146.6450  160.8780  132.5040 H   0  0  0  0  0  0  0  0  0  0  0  0
  1  2  1  0
  2  3  2  0
  3  4  1  0
  4  5  1  0
  5  6  2  0
  5  7  1  0
  7  8  1  0
  8  9  1  0
  9 10  1  0
  9 11  2  0
  8 12  2  0
 12 13  1  0
 13 14  2  0
 14 15  1  0
 15 16  2  0
 16 17  1  0
 17 18  3  0
 18 19  1  0
 19 20  1  0
 20 21  1  0
 21 22  1  0
 21 23  1  0
 16 24  1  0
 24 25  2  0
  4 26  2  0
 26 27  1  0
 27  2  1  0
 25  7  1  0
 25 13  1  0
  1 28  1  0
  1 29  1  0
  1 30  1  0
  3 31  1  0
 10 32  1  0
 12 33  1  0
 14 34  1  0
 15 35  1  0
 19 36  1  0
 19 37  1  0
 20 38  1  0
 20 39  1  0
 22 40  1  0
 22 41  1  0
 22 42  1  0
 23 43  1  0
 23 44  1  0
 23 45  1  0
 24 46  1  0
 26 47  1  0
M  CHG  2  10  -1  26   1
M  END
>  <UniqueID>  (15) 
15

>  <SMILES>  (15) 
Cc1cc(C(=O)n2c(C([NH-])=O)cc3ccc(C#CCCN(C)C)cc32)[nH+]o1

>  <Energy>  (15) 
111.85875000186216

>  <Genealogy>  (15) 
Cc1cc(C(=O)n2c(C([NH-])=O)cc3ccc(C#CCCN(C)C)cc32)[nH+]o1 (protonated)
Cc1cc(C(=O)n2c(C([NH-])=O)cc3ccc(C#CCCN(C)C)cc32)[nH+]o1 (3D coordinates assigned)
Cc1cc(C(=O)n2c(C([NH-])=O)cc3ccc(C#CCCN(C)C)cc32)[nH+]o1 (optimized conformer: 111.85875000186216 kcal/mol)

>  <smiles>  (15) 
Cc1cc(C(=O)n2c(C(N)=O)cc3ccc(C#CCCN(C)C)cc32)no1

>  <score_type>  (15) 
oracle

>  <origin>  (15) 
adg

>  <m_score__min__energy>  (15) 
-8.8599999999999994

>  <m_primary>  (15) 
energy

$$$$
15:0
     RDKit          3D

 30 31  0  0  0  0  0  0  0  0999 V2000
  147.7860  152.9070  133.7260 N   0  0  0  0  0  0  0  0  0  0  0  0
  148.5590  153.9050  133.0600 C   0  0  0  0  0  0  0  0  0  0  0  0
  149.6330  153.5710  132.4910 O   0  0  0  0  0  0  0  0  0  0  0  0
  148.1060  155.3150  133.0130 C   0  0  0  0  0  0  0  0  0  0  0  0
  148.9030  156.3870  132.6080 C   0  0  0  0  0  0  0  0  0  0  0  0
  148.1290  157.5090  132.7990 C   0  0  0  0  0  0  0  0  0  0  0  0
  148.4140  158.8510  132.5570 C   0  0  0  0  0  0  0  0  0  0  0  0
  147.4140  159.7980  132.8330 C   0  0  0  0  0  0  0  0  0  0  0  0
  146.1530  159.3910  133.3410 C   0  0  0  0  0  0  0  0  0  0  0  0
  145.0820  160.4040  133.6240 C   0  0  0  0  0  0  0  0  0  0  0  0
  145.6160  161.4580  134.3450 F   0  0  0  0  0  0  0  0  0  0  0  0
  144.0680  159.8170  134.3580 F   0  0  0  0  0  0  0  0  0  0  0  0
  145.9010  158.0210  133.5740 C   0  0  0  0  0  0  0  0  0  0  0  0
  146.9200  157.1040  133.2990 C   0  0  0  0  0  0  0  0  0  0  0  0
  146.8910  155.7630  133.4340 N   0  0  0  0  0  0  0  0  0  0  0  0
  145.7690  154.9850  133.8760 C   0  0  0  0  0  0  0  0  0  0  0  0
  145.3160  154.0680  133.1380 O   0  0  0  0  0  0  0  0  0  0  0  0
  145.2030  155.1760  135.2490 C   0  0  0  0  0  0  0  0  0  0  0  0
  145.5230  153.9870  136.0960 C   0  0  0  0  0  0  0  0  0  0  0  0
  144.6020  153.3650  136.6880 O   0  0  0  0  0  0  0  0  0  0  0  0
  146.8440  153.5950  136.2730 O   0  0  0  0  0  0  0  0  0  0  0  0
  146.9240  153.1510  134.2630 H   0  0  0  0  0  0  0  0  0  0  0  0
  148.1000  151.9120  133.7190 H   0  0  0  0  0  0  0  0  0  0  0  0
  149.9310  156.3442  132.2189 H   0  0  0  0  0  0  0  0  0  0  0  0
  149.3929  159.1598  132.1616 H   0  0  0  0  0  0  0  0  0  0  0  0
  147.6102  160.8654  132.6536 H   0  0  0  0  0  0  0  0  0  0  0  0
  144.6782  160.7770  132.6712 H   0  0  0  0  0  0  0  0  0  0  0  0
  144.9283  157.6842  133.9618 H   0  0  0  0  0  0  0  0  0  0  0  0
  145.6413  156.0769  135.7030 H   0  0  0  0  0  0  0  0  0  0  0  0
  144.1112  155.2907  135.1800 H   0  0  0  0  0  0  0  0  0  0  0  0
  1  2  1  0
  2  3  2  0
  2  4  1  0
  4  5  2  0
  5  6  1  0
  6  7  2  0
  7  8  1  0
  8  9  2  0
  9 10  1  0
 10 11  1  0
 10 12  1  0
  9 13  1  0
 13 14  2  0
 14 15  1  0
 15 16  1  0
 16 17  2  0
 16 18  1  0
 18 19  1  0
 19 20  2  0
 19 21  1  0
 15  4  1  0
 14  6  1  0
  1 22  1  0
  1 23  1  0
  5 24  1  0
  7 25  1  0
  8 26  1  0
 10 27  1  0
 13 28  1  0
 18 29  1  0
 18 30  1  0
M  CHG  1  21  -1
M  END
>  <UniqueID>  (16) 
16

>  <SMILES>  (16) 
NC(=O)c1cc2ccc(C(F)F)cc2n1C(=O)CC(=O)[O-]

>  <Energy>  (16) 
67.40776895932218

>  <Genealogy>  (16) 
NC(=O)c1cc2ccc(C(F)F)cc2n1C(=O)CC(=O)[O-] (protonated)
NC(=O)c1cc2ccc(C(F)F)cc2n1C(=O)CC(=O)[O-] (3D coordinates assigned)
NC(=O)c1cc2ccc(C(F)F)cc2n1C(=O)CC(=O)[O-] (optimized conformer: 67.40776895932218 kcal/mol)

>  <smiles>  (16) 
NC(=O)c1cc2ccc(C(F)F)cc2n1C(=O)CC(=O)O

>  <score_type>  (16) 
oracle

>  <origin>  (16) 
adg

>  <m_score__min__energy>  (16) 
-5.9500000000000002

>  <m_primary>  (16) 
energy

$$$$
16:0
     RDKit          3D

 49 51  0  0  0  0  0  0  0  0999 V2000
  138.7920  160.7760  130.1190 C   0  0  0  0  0  0  0  0  0  0  0  0
  138.6460  159.8600  131.2440 N   0  0  0  0  0  0  0  0  0  0  0  0
  137.6030  159.0420  131.4900 C   0  0  0  0  0  0  0  0  0  0  0  0
  137.8350  158.2390  132.5480 N   0  0  0  0  0  0  0  0  0  0  0  0
  139.0760  158.5510  132.9810 C   0  0  0  0  0  0  0  0  0  0  0  0
  139.7610  157.8930  134.1180 C   0  0  0  0  0  0  0  0  0  0  0  0
  139.8420  158.5320  135.3840 C   0  0  0  0  0  0  0  0  0  0  0  0
  140.4790  157.9040  136.4680 C   0  0  0  0  0  0  0  0  0  0  0  0
  141.0260  156.6420  136.2620 C   0  0  0  0  0  0  0  0  0  0  0  0
  141.6730  155.7970  137.1380 C   0  0  0  0  0  0  0  0  0  0  0  0
  141.9840  154.6600  136.3930 C   0  0  0  0  0  0  0  0  0  0  0  0
  142.7350  153.5060  136.9300 C   0  0  0  0  0  0  0  0  0  0  0  0
  144.1450  153.4020  136.7530 N   0  0  0  0  0  0  0  0  0  0  0  0
  142.1280  152.6120  137.5780 O   0  0  0  0  0  0  0  0  0  0  0  0
  141.5450  154.7990  135.1120 N   0  0  0  0  0  0  0  0  0  0  0  0
  141.5900  153.8350  134.0530 C   0  0  0  0  0  0  0  0  0  0  0  0
  140.9910  154.0690  132.9690 O   0  0  0  0  0  0  0  0  0  0  0  0
  142.2380  152.5030  134.2690 C   0  0  0  0  0  0  0  0  0  0  0  0
  143.6800  152.6190  134.0290 N   0  0  0  0  0  0  0  0  0  0  0  0
  143.9890  152.9280  132.6240 C   0  0  0  0  0  0  0  0  0  0  0  0
  144.4880  154.3700  132.4380 C   0  0  0  0  0  0  0  0  0  0  0  0
  145.4500  154.9040  133.8470 S   0  0  0  0  0  0  0  0  0  0  0  0
  146.6120  156.1640  133.3660 C   0  0  0  0  0  0  0  0  0  0  0  0
  144.5210  155.4670  134.8860 O   0  0  0  0  0  0  0  0  0  0  0  0
  146.1920  153.7350  134.4320 O   0  0  0  0  0  0  0  0  0  0  0  0
  140.9630  156.0140  135.0480 C   0  0  0  0  0  0  0  0  0  0  0  0
  140.3270  156.6060  133.9530 C   0  0  0  0  0  0  0  0  0  0  0  0
  139.5760  159.5500  132.1650 C   0  0  0  0  0  0  0  0  0  0  0  0
  140.8230  160.0840  132.2000 F   0  0  0  0  0  0  0  0  0  0  0  0
  138.9547  161.7966  130.4959 H   0  0  0  0  0  0  0  0  0  0  0  0
  139.6527  160.4699  129.5062 H   0  0  0  0  0  0  0  0  0  0  0  0
  137.8788  160.7526  129.5062 H   0  0  0  0  0  0  0  0  0  0  0  0
  136.6752  159.0310  130.8992 H   0  0  0  0  0  0  0  0  0  0  0  0
  137.1780  157.5290  132.9390 H   0  0  0  0  0  0  0  0  0  0  0  0
  139.4007  159.5307  135.5176 H   0  0  0  0  0  0  0  0  0  0  0  0
  140.5430  158.3958  137.4498 H   0  0  0  0  0  0  0  0  0  0  0  0
  141.8965  155.9806  138.1993 H   0  0  0  0  0  0  0  0  0  0  0  0
  144.5790  153.5150  135.8110 H   0  0  0  0  0  0  0  0  0  0  0  0
  142.0634  152.1733  135.3038 H   0  0  0  0  0  0  0  0  0  0  0  0
  141.8075  151.7675  133.5735 H   0  0  0  0  0  0  0  0  0  0  0  0
  144.0720  153.3700  134.6470 H   0  0  0  0  0  0  0  0  0  0  0  0
  144.7689  152.2361  132.2733 H   0  0  0  0  0  0  0  0  0  0  0  0
  143.0612  152.8164  132.0438 H   0  0  0  0  0  0  0  0  0  0  0  0
  145.1146  154.4198  131.5353 H   0  0  0  0  0  0  0  0  0  0  0  0
  143.6151  155.0321  132.3393 H   0  0  0  0  0  0  0  0  0  0  0  0
  147.0413  156.6295  134.2654 H   0  0  0  0  0  0  0  0  0  0  0  0
  147.4166  155.7116  132.7677 H   0  0  0  0  0  0  0  0  0  0  0  0
  146.0961  156.9294  132.7677 H   0  0  0  0  0  0  0  0  0  0  0  0
  140.2677  156.0843  132.9864 H   0  0  0  0  0  0  0  0  0  0  0  0
  1  2  1  0
  2  3  1  0
  3  4  2  0
  4  5  1  0
  5  6  1  0
  6  7  2  0
  7  8  1  0
  8  9  2  0
  9 10  1  0
 10 11  2  0
 11 12  1  0
 12 13  1  0
 12 14  2  0
 11 15  1  0
 15 16  1  0
 16 17  2  0
 16 18  1  0
 18 19  1  0
 19 20  1  0
 20 21  1  0
 21 22  1  0
 22 23  1  0
 22 24  2  0
 22 25  2  0
 15 26  1  0
 26 27  2  0
  5 28  2  0
 28 29  1  0
 28  2  1  0
 27  6  1  0
 26  9  1  0
  1 30  1  0
  1 31  1  0
  1 32  1  0
  3 33  1  0
  4 34  1  0
  7 35  1  0
  8 36  1  0
 10 37  1  0
 13 38  1  0
 18 39  1  0
 18 40  1  0
 19 41  1  0
 20 42  1  0
 20 43  1  0
 21 44  1  0
 21 45  1  0
 23 46  1  0
 23 47  1  0
 23 48  1  0
 27 49  1  0
M  CHG  2   4   1  13  -1
M  END
>  <UniqueID>  (17) 
17

>  <SMILES>  (17) 
Cn1c[nH+]c(-c2ccc3cc(C([NH-])=O)n(C(=O)CNCCS(C)(=O)=O)c3c2)c1F

>  <Energy>  (17) 
114.4349005350512

>  <Genealogy>  (17) 
Cn1c[nH+]c(-c2ccc3cc(C([NH-])=O)n(C(=O)CNCCS(C)(=O)=O)c3c2)c1F (protonated)
Cn1c[nH+]c(-c2ccc3cc(C([NH-])=O)n(C(=O)CNCCS(C)(=O)=O)c3c2)c1F (3D coordinates assigned)
Cn1c[nH+]c(-c2ccc3cc(C([NH-])=O)n(C(=O)CNCCS(C)(=O)=O)c3c2)c1F (optimized conformer: 114.4349005350512 kcal/mol)

>  <smiles>  (17) 
Cn1cnc(-c2ccc3cc(C(N)=O)n(C(=O)CNCCS(C)(=O)=O)c3c2)c1F

>  <score_type>  (17) 
oracle

>  <origin>  (17) 
adg

>  <m_score__min__energy>  (17) 
-8.0099999999999998

>  <m_primary>  (17) 
energy

$$$$
17:0
     RDKit          3D

 56 58  0  0  0  0  0  0  0  0999 V2000
  141.2560  157.3350  136.2890 C   0  0  0  0  0  0  0  0  0  0  0  0
  141.7500  157.3180  134.9070 N   0  0  0  0  0  0  0  0  0  0  0  0
  141.0810  156.4370  133.9370 C   0  0  0  0  0  0  0  0  0  0  0  0
  139.6200  156.8620  133.7340 C   0  0  0  0  0  0  0  0  0  0  0  0
  139.4900  157.9600  132.7200 C   0  0  0  0  0  0  0  0  0  0  0  0
  140.5210  158.7100  132.1810 C   0  0  0  0  0  0  0  0  0  0  0  0
  140.0050  159.6690  131.3880 N   0  0  0  0  0  0  0  0  0  0  0  0
  138.6880  159.5440  131.4140 N   0  0  0  0  0  0  0  0  0  0  0  0
  137.7730  160.4560  130.7420 C   0  0  0  0  0  0  0  0  0  0  0  0
  138.3340  158.5370  132.2330 C   0  0  0  0  0  0  0  0  0  0  0  0
  142.8380  158.1920  134.5090 C   0  0  0  0  0  0  0  0  0  0  0  0
  142.6700  159.6060  134.5130 C   0  0  0  0  0  0  0  0  0  0  0  0
  143.7130  160.4600  134.1180 C   0  0  0  0  0  0  0  0  0  0  0  0
  144.9190  159.8870  133.7330 C   0  0  0  0  0  0  0  0  0  0  0  0
  146.0800  160.4780  133.2890 C   0  0  0  0  0  0  0  0  0  0  0  0
  146.9590  159.4260  133.0400 C   0  0  0  0  0  0  0  0  0  0  0  0
  148.3690  159.6050  132.6290 C   0  0  0  0  0  0  0  0  0  0  0  0
  149.4220  158.9270  133.3170 N   0  0  0  0  0  0  0  0  0  0  0  0
  148.6530  160.3390  131.6450 O   0  0  0  0  0  0  0  0  0  0  0  0
  146.3610  158.2320  133.3170 N   0  0  0  0  0  0  0  0  0  0  0  0
  146.9030  156.9130  133.1500 C   0  0  0  0  0  0  0  0  0  0  0  0
  148.0930  156.6770  133.4950 O   0  0  0  0  0  0  0  0  0  0  0  0
  146.1060  155.9110  132.5790 O   0  0  0  0  0  0  0  0  0  0  0  0
  145.8810  154.5960  133.1050 C   0  0  0  0  0  0  0  0  0  0  0  0
  145.5180  154.7590  134.5890 C   0  0  0  0  0  0  0  0  0  0  0  0
  144.7040  153.9220  132.3750 C   0  0  0  0  0  0  0  0  0  0  0  0
  147.1550  153.7400  132.9910 C   0  0  0  0  0  0  0  0  0  0  0  0
  145.1130  158.5330  133.7400 C   0  0  0  0  0  0  0  0  0  0  0  0
  144.0850  157.6550  134.1000 C   0  0  0  0  0  0  0  0  0  0  0  0
  142.1085  157.3056  136.9835 H   0  0  0  0  0  0  0  0  0  0  0  0
  140.6755  158.2537  136.4596 H   0  0  0  0  0  0  0  0  0  0  0  0
  140.6137  156.4584  136.4596 H   0  0  0  0  0  0  0  0  0  0  0  0
  141.6101  156.4926  132.9742 H   0  0  0  0  0  0  0  0  0  0  0  0
  141.0988  155.4075  134.3240 H   0  0  0  0  0  0  0  0  0  0  0  0
  139.0413  155.9916  133.3912 H   0  0  0  0  0  0  0  0  0  0  0  0
  139.2393  157.2396  134.6945 H   0  0  0  0  0  0  0  0  0  0  0  0
  141.5925  158.5485  132.3703 H   0  0  0  0  0  0  0  0  0  0  0  0
  137.2036  161.0235  131.4929 H   0  0  0  0  0  0  0  0  0  0  0  0
  138.3461  161.1528  130.1128 H   0  0  0  0  0  0  0  0  0  0  0  0
  137.0781  159.8806  130.1128 H   0  0  0  0  0  0  0  0  0  0  0  0
  137.3057  158.2281  132.4723 H   0  0  0  0  0  0  0  0  0  0  0  0
  141.7086  160.0362  134.8303 H   0  0  0  0  0  0  0  0  0  0  0  0
  143.5788  161.5518  134.1136 H   0  0  0  0  0  0  0  0  0  0  0  0
  146.2730  161.5530  133.1584 H   0  0  0  0  0  0  0  0  0  0  0  0
  150.4080  159.0270  132.9920 H   0  0  0  0  0  0  0  0  0  0  0  0
  149.2340  158.3640  134.1770 H   0  0  0  0  0  0  0  0  0  0  0  0
  146.3452  154.3875  135.2117 H   0  0  0  0  0  0  0  0  0  0  0  0
  145.3424  155.8224  134.8089 H   0  0  0  0  0  0  0  0  0  0  0  0
  144.6065  154.1838  134.8089 H   0  0  0  0  0  0  0  0  0  0  0  0
  143.9973  153.5173  133.1144 H   0  0  0  0  0  0  0  0  0  0  0  0
  144.1908  154.6631  131.7446 H   0  0  0  0  0  0  0  0  0  0  0  0
  145.0834  153.1043  131.7446 H   0  0  0  0  0  0  0  0  0  0  0  0
  147.5223  153.4932  133.9981 H   0  0  0  0  0  0  0  0  0  0  0  0
  146.9257  152.8120  132.4467 H   0  0  0  0  0  0  0  0  0  0  0  0
  147.9275  154.3030  132.4467 H   0  0  0  0  0  0  0  0  0  0  0  0
  144.2414  156.5667  134.0664 H   0  0  0  0  0  0  0  0  0  0  0  0
  1  2  1  0
  2  3  1  0
  3  4  1  0
  4  5  1  0
  5  6  1  0
  6  7  2  0
  7  8  1  0
  8  9  1  0
  8 10  1  0
  2 11  1  0
 11 12  2  0
 12 13  1  0
 13 14  2  0
 14 15  1  0
 15 16  2  0
 16 17  1  0
 17 18  1  0
 17 19  2  0
 16 20  1  0
 20 21  1  0
 21 22  2  0
 21 23  1  0
 23 24  1  0
 24 25  1  0
 24 26  1  0
 24 27  1  0
 20 28  1  0
 28 29  2  0
 10  5  2  0
 29 11  1  0
 28 14  1  0
  1 30  1  0
  1 31  1  0
  1 32  1  0
  3 33  1  0
  3 34  1  0
  4 35  1  0
  4 36  1  0
  6 37  1  0
  9 38  1  0
  9 39  1  0
  9 40  1  0
 10 41  1  0
 12 42  1  0
 13 43  1  0
 15 44  1  0
 18 45  1  0
 18 46  1  0
 25 47  1  0
 25 48  1  0
 25 49  1  0
 26 50  1  0
 26 51  1  0
 26 52  1  0
 27 53  1  0
 27 54  1  0
 27 55  1  0
 29 56  1  0
M  END
>  <UniqueID>  (18) 
18

>  <SMILES>  (18) 
CN(CCc1cnn(C)c1)c1ccc2cc(C(N)=O)n(C(=O)OC(C)(C)C)c2c1

>  <Energy>  (18) 
116.82923009785117

>  <Genealogy>  (18) 
CN(CCc1cnn(C)c1)c1ccc2cc(C(N)=O)n(C(=O)OC(C)(C)C)c2c1 (3D coordinates assigned)
CN(CCc1cnn(C)c1)c1ccc2cc(C(N)=O)n(C(=O)OC(C)(C)C)c2c1 (optimized conformer: 116.82923009785117 kcal/mol)

>  <smiles>  (18) 
CN(CCc1cnn(C)c1)c1ccc2cc(C(N)=O)n(C(=O)OC(C)(C)C)c2c1

>  <score_type>  (18) 
oracle

>  <origin>  (18) 
adg

>  <m_score__min__energy>  (18) 
-8.75

>  <m_primary>  (18) 
energy

$$$$
18:0
     RDKit          3D

 42 46  0  0  0  0  0  0  0  0999 V2000
  140.5610  150.8680  141.0070 N   0  0  0  0  0  0  0  0  0  0  0  0
  141.3850  151.2520  139.9090 C   0  0  0  0  0  0  0  0  0  0  0  0
  142.1520  150.4000  139.3870 O   0  0  0  0  0  0  0  0  0  0  0  0
  141.3940  152.6440  139.4140 C   0  0  0  0  0  0  0  0  0  0  0  0
  141.4110  153.7540  140.2560 C   0  0  0  0  0  0  0  0  0  0  0  0
  141.3230  154.8450  139.4230 C   0  0  0  0  0  0  0  0  0  0  0  0
  141.3160  156.2030  139.7260 C   0  0  0  0  0  0  0  0  0  0  0  0
  141.2520  157.1150  138.6600 C   0  0  0  0  0  0  0  0  0  0  0  0
  141.1950  156.6620  137.3160 C   0  0  0  0  0  0  0  0  0  0  0  0
  141.1890  157.6760  136.1880 C   0  0  1  0  0  0  0  0  0  0  0  0
  142.3850  157.3870  135.2110 C   0  0  0  0  0  0  0  0  0  0  0  0
  142.1820  158.0910  133.8940 C   0  0  0  0  0  0  0  0  0  0  0  0
  142.1110  159.4210  133.9740 C   0  0  0  0  0  0  0  0  0  0  0  0
  140.7640  159.8910  133.5620 C   0  0  0  0  0  0  0  0  0  0  0  0
  140.0520  158.6150  133.1070 C   0  0  2  0  0  0  0  0  0  0  0  0
  139.3790  157.6480  134.1220 C   0  0  1  0  0  0  0  0  0  0  0  0
  140.1940  156.5150  133.5130 C   0  0  0  0  0  0  0  0  0  0  0  0
  141.1340  157.5720  132.9260 C   0  0  2  0  0  0  0  0  0  0  0  0
  139.7680  157.8610  135.5920 C   0  0  0  0  0  0  0  0  0  0  0  0
  138.8880  158.2450  136.3470 O   0  0  0  0  0  0  0  0  0  0  0  0
  141.2220  155.2720  137.0510 C   0  0  0  0  0  0  0  0  0  0  0  0
  141.2650  154.3850  138.1330 C   0  0  0  0  0  0  0  0  0  0  0  0
  141.3110  153.0350  138.1090 N   0  0  0  0  0  0  0  0  0  0  0  0
  141.3550  152.2060  136.9360 C   0  0  0  0  0  0  0  0  0  0  0  0
  140.6620  151.1570  136.8720 O   0  0  0  0  0  0  0  0  0  0  0  0
  142.1830  152.5410  135.8720 O   0  0  0  0  0  0  0  0  0  0  0  0
  139.5200  150.8790  140.9260 H   0  0  0  0  0  0  0  0  0  0  0  0
  141.4801  153.7571  141.3538 H   0  0  0  0  0  0  0  0  0  0  0  0
  141.3593  156.5515  140.7684 H   0  0  0  0  0  0  0  0  0  0  0  0
  141.2460  158.1949  138.8694 H   0  0  0  0  0  0  0  0  0  0  0  0
  141.3976  158.6930  136.5516 H   0  0  0  0  0  0  0  0  0  0  0  0
  143.3194  157.7425  135.6697 H   0  0  0  0  0  0  0  0  0  0  0  0
  142.4366  156.3036  135.0275 H   0  0  0  0  0  0  0  0  0  0  0  0
  142.9330  160.0759  134.2988 H   0  0  0  0  0  0  0  0  0  0  0  0
  140.2352  160.3537  134.4083 H   0  0  0  0  0  0  0  0  0  0  0  0
  140.8049  160.6578  132.7743 H   0  0  0  0  0  0  0  0  0  0  0  0
  139.3753  159.0470  132.3550 H   0  0  0  0  0  0  0  0  0  0  0  0
  138.2824  157.6332  134.2075 H   0  0  0  0  0  0  0  0  0  0  0  0
  139.6550  155.9171  132.7633 H   0  0  0  0  0  0  0  0  0  0  0  0
  140.5759  155.6883  134.1301 H   0  0  0  0  0  0  0  0  0  0  0  0
  141.6538  157.2945  131.9971 H   0  0  0  0  0  0  0  0  0  0  0  0
  141.2095  154.8968  136.0170 H   0  0  0  0  0  0  0  0  0  0  0  0
  1  2  1  0
  2  3  2  0
  2  4  1  0
  4  5  2  0
  5  6  1  0
  6  7  2  0
  7  8  1  0
  8  9  2  0
  9 10  1  0
 10 11  1  0
 11 12  1  0
 12 13  2  0
 13 14  1  0
 14 15  1  0
 15 16  1  0
 16 17  1  0
 17 18  1  0
 16 19  1  0
 19 20  2  0
  9 21  1  0
 21 22  2  0
 22 23  1  0
 23 24  1  0
 24 25  2  0
 24 26  1  0
 23  4  1  0
 22  6  1  0
 19 10  1  0
 18 12  1  0
 18 15  1  0
  1 27  1  0
  5 28  1  0
  7 29  1  0
  8 30  1  0
 10 31  1  1
 11 32  1  0
 11 33  1  0
 13 34  1  0
 14 35  1  0
 14 36  1  0
 15 37  1  6
 16 38  1  1
 17 39  1  0
 17 40  1  0
 18 41  1  6
 21 42  1  0
M  CHG  2   1  -1  26  -1
M  END
>  <UniqueID>  (19) 
19

>  <SMILES>  (19) 
[NH-]C(=O)c1cc2ccc([C@H]3CC4=CC[C@@H]5C(CC45)C3=O)cc2n1C(=O)[O-]

>  <Energy>  (19) 
200.42835069382951

>  <Genealogy>  (19) 
[NH-]C(=O)c1cc2ccc(C3CC4=CCC5C(CC45)C3=O)cc2n1C(=O)[O-] (protonated)
[NH-]C(=O)c1cc2ccc([C@H]3CC4=CC[C@@H]5C(CC45)C3=O)cc2n1C(=O)[O-] (chirality)
[NH-]C(=O)c1cc2ccc([C@H]3CC4=CC[C@@H]5C(CC45)C3=O)cc2n1C(=O)[O-] (3D coordinates assigned)
[NH-]C(=O)c1cc2ccc([C@H]3CC4=CC[C@@H]5C(CC45)C3=O)cc2n1C(=O)[O-] (nonaromatic ring conformer: 200.42835069382951 kcal/mol)

>  <smiles>  (19) 
NC(=O)c1cc2ccc(C3CC4=CCC5C(CC45)C3=O)cc2n1C(=O)O

>  <score_type>  (19) 
oracle

>  <origin>  (19) 
adg

>  <m_score__min__energy>  (19) 
-7.7699999999999996

>  <m_primary>  (19) 
energy

$$$$
19:0
     RDKit          3D

 40 42  0  0  0  0  0  0  0  0999 V2000
  140.6140  153.6770  132.9900 C   0  0  0  0  0  0  0  0  0  0  0  0
  140.9250  155.0610  133.3620 N   0  0  0  0  0  0  0  0  0  0  0  0
  139.8850  156.0600  133.3090 C   0  0  0  0  0  0  0  0  0  0  0  0
  138.7600  155.7740  132.8150 O   0  0  0  0  0  0  0  0  0  0  0  0
  140.1140  157.3910  133.8010 N   0  0  0  0  0  0  0  0  0  0  0  0
  140.0080  158.5600  133.1110 C   0  0  0  0  0  0  0  0  0  0  0  0
  139.5490  158.6850  131.7080 C   0  0  0  0  0  0  0  0  0  0  0  0
  138.3560  158.0350  131.2640 N   0  0  0  0  0  0  0  0  0  0  0  0
  140.2190  159.3570  130.8800 O   0  0  0  0  0  0  0  0  0  0  0  0
  140.3190  159.6400  133.9390 C   0  0  0  0  0  0  0  0  0  0  0  0
  140.6280  159.0870  135.1610 C   0  0  0  0  0  0  0  0  0  0  0  0
  140.9920  159.6990  136.3560 C   0  0  0  0  0  0  0  0  0  0  0  0
  141.2520  158.8750  137.4650 C   0  0  0  0  0  0  0  0  0  0  0  0
  141.1720  157.4620  137.3550 C   0  0  0  0  0  0  0  0  0  0  0  0
  141.4020  156.5890  138.5620 C   0  0  0  0  0  0  0  0  0  0  0  0
  141.7160  157.3870  139.6450 F   0  0  0  0  0  0  0  0  0  0  0  0
  140.2640  155.8560  138.8570 F   0  0  0  0  0  0  0  0  0  0  0  0
  142.4400  155.7030  138.3360 F   0  0  0  0  0  0  0  0  0  0  0  0
  140.7840  156.8820  136.1260 C   0  0  0  0  0  0  0  0  0  0  0  0
  140.5050  157.7280  135.0480 C   0  0  0  0  0  0  0  0  0  0  0  0
  142.2840  155.4290  133.6730 C   0  0  0  0  0  0  0  0  0  0  0  0
  142.8940  156.5190  133.0270 C   0  0  0  0  0  0  0  0  0  0  0  0
  144.2000  156.8960  133.3580 C   0  0  0  0  0  0  0  0  0  0  0  0
  144.9090  156.1850  134.3280 C   0  0  0  0  0  0  0  0  0  0  0  0
  144.3170  155.0940  134.9690 C   0  0  0  0  0  0  0  0  0  0  0  0
  145.0070  154.4020  135.9100 F   0  0  0  0  0  0  0  0  0  0  0  0
  143.0110  154.7140  134.6410 C   0  0  0  0  0  0  0  0  0  0  0  0
  140.4786  153.0743  133.9002 H   0  0  0  0  0  0  0  0  0  0  0  0
  139.6888  153.6562  132.3954 H   0  0  0  0  0  0  0  0  0  0  0  0
  141.4414  153.2624  132.3954 H   0  0  0  0  0  0  0  0  0  0  0  0
  137.7380  157.5130  131.9230 H   0  0  0  0  0  0  0  0  0  0  0  0
  138.0610  158.1110  130.2650 H   0  0  0  0  0  0  0  0  0  0  0  0
  140.3174  160.7070  133.6715 H   0  0  0  0  0  0  0  0  0  0  0  0
  141.0738  160.7934  136.4309 H   0  0  0  0  0  0  0  0  0  0  0  0
  141.5206  159.3306  138.4295 H   0  0  0  0  0  0  0  0  0  0  0  0
  140.7033  155.7901  136.0198 H   0  0  0  0  0  0  0  0  0  0  0  0
  142.3415  157.0781  132.2575 H   0  0  0  0  0  0  0  0  0  0  0  0
  144.6688  157.7537  132.8534 H   0  0  0  0  0  0  0  0  0  0  0  0
  145.9351  156.4842  134.5879 H   0  0  0  0  0  0  0  0  0  0  0  0
  142.5503  153.8507  135.1435 H   0  0  0  0  0  0  0  0  0  0  0  0
  1  2  1  0
  2  3  1  0
  3  4  2  0
  3  5  1  0
  5  6  1  0
  6  7  1  0
  7  8  1  0
  7  9  2  0
  6 10  2  0
 10 11  1  0
 11 12  2  0
 12 13  1  0
 13 14  2  0
 14 15  1  0
 15 16  1  0
 15 17  1  0
 15 18  1  0
 14 19  1  0
 19 20  2  0
  2 21  1  0
 21 22  2  0
 22 23  1  0
 23 24  2  0
 24 25  1  0
 25 26  1  0
 25 27  2  0
 20  5  1  0
 27 21  1  0
 20 11  1  0
  1 28  1  0
  1 29  1  0
  1 30  1  0
  8 31  1  0
  8 32  1  0
 10 33  1  0
 12 34  1  0
 13 35  1  0
 19 36  1  0
 22 37  1  0
 23 38  1  0
 24 39  1  0
 27 40  1  0
M  END
>  <UniqueID>  (20) 
20

>  <SMILES>  (20) 
CN(C(=O)n1c(C(N)=O)cc2ccc(C(F)(F)F)cc21)c1cccc(F)c1

>  <Energy>  (20) 
84.93713747300684

>  <Genealogy>  (20) 
CN(C(=O)n1c(C(N)=O)cc2ccc(C(F)(F)F)cc21)c1cccc(F)c1 (3D coordinates assigned)
CN(C(=O)n1c(C(N)=O)cc2ccc(C(F)(F)F)cc21)c1cccc(F)c1 (optimized conformer: 84.93713747300684 kcal/mol)

>  <smiles>  (20) 
CN(C(=O)n1c(C(N)=O)cc2ccc(C(F)(F)F)cc21)c1cccc(F)c1

>  <score_type>  (20) 
oracle

>  <origin>  (20) 
adg

>  <m_score__min__energy>  (20) 
-7.6699999999999999

>  <m_primary>  (20) 
energy

$$$$
20:0
     RDKit          3D

 49 50  0  0  0  0  0  0  0  0999 V2000
  148.5110  161.2560  130.9420 C   0  0  0  0  0  0  0  0  0  0  0  0
  148.7480  159.9900  130.2290 N   0  0  0  0  0  0  0  0  0  0  0  0
  149.9790  160.1020  129.4270 C   0  0  0  0  0  0  0  0  0  0  0  0
  148.8390  158.8770  131.2000 C   0  0  0  0  0  0  0  0  0  0  0  0
  149.2460  159.3760  132.6020 C   0  0  0  0  0  0  0  0  0  0  0  0
  148.2170  158.9840  133.6770 C   0  0  0  0  0  0  0  0  0  0  0  0
  147.1190  158.0640  133.1250 C   0  0  0  0  0  0  0  0  0  0  0  0
  145.7440  158.6160  133.3990 C   0  0  0  0  0  0  0  0  0  0  0  0
  145.5370  160.0180  133.4400 C   0  0  0  0  0  0  0  0  0  0  0  0
  144.2690  160.5490  133.7320 C   0  0  0  0  0  0  0  0  0  0  0  0
  143.2330  159.6560  133.9910 C   0  0  0  0  0  0  0  0  0  0  0  0
  141.9120  159.8900  134.3040 C   0  0  0  0  0  0  0  0  0  0  0  0
  141.3420  158.6270  134.4700 C   0  0  0  0  0  0  0  0  0  0  0  0
  139.9300  158.4020  134.8480 C   0  0  0  0  0  0  0  0  0  0  0  0
  139.5560  158.2170  136.2120 N   0  0  0  0  0  0  0  0  0  0  0  0
  139.0400  158.3830  133.9560 O   0  0  0  0  0  0  0  0  0  0  0  0
  142.2760  157.6580  134.2700 N   0  0  0  0  0  0  0  0  0  0  0  0
  142.0980  156.2370  134.3290 C   0  0  0  0  0  0  0  0  0  0  0  0
  141.9260  155.5950  133.2570 O   0  0  0  0  0  0  0  0  0  0  0  0
  142.1190  155.5460  135.5930 N   0  0  0  0  0  0  0  0  0  0  0  0
  142.1310  154.0820  135.6140 C   0  0  0  0  0  0  0  0  0  0  0  0
  142.0670  156.3100  136.8440 C   0  0  0  0  0  0  0  0  0  0  0  0
  143.4230  158.3000  133.9710 C   0  0  0  0  0  0  0  0  0  0  0  0
  144.6670  157.7420  133.6660 C   0  0  0  0  0  0  0  0  0  0  0  0
  148.5444  161.0776  132.0269 H   0  0  0  0  0  0  0  0  0  0  0  0
  149.2886  161.9834  130.6659 H   0  0  0  0  0  0  0  0  0  0  0  0
  147.5230  161.6529  130.6659 H   0  0  0  0  0  0  0  0  0  0  0  0
  150.8475  160.1810  130.0974 H   0  0  0  0  0  0  0  0  0  0  0  0
  150.0856  159.2099  128.7924 H   0  0  0  0  0  0  0  0  0  0  0  0
  149.9229  160.9988  128.7924 H   0  0  0  0  0  0  0  0  0  0  0  0
  147.8590  158.3821  131.2682 H   0  0  0  0  0  0  0  0  0  0  0  0
  149.6103  158.1762  130.8477 H   0  0  0  0  0  0  0  0  0  0  0  0
  150.2195  158.9371  132.8660 H   0  0  0  0  0  0  0  0  0  0  0  0
  149.2994  160.4742  132.5685 H   0  0  0  0  0  0  0  0  0  0  0  0
  148.7389  158.4619  134.4925 H   0  0  0  0  0  0  0  0  0  0  0  0
  147.7352  159.9063  134.0337 H   0  0  0  0  0  0  0  0  0  0  0  0
  147.2524  157.9612  132.0380 H   0  0  0  0  0  0  0  0  0  0  0  0
  147.2041  157.0879  133.6250 H   0  0  0  0  0  0  0  0  0  0  0  0
  146.3785  160.6979  133.2410 H   0  0  0  0  0  0  0  0  0  0  0  0
  144.1005  161.6358  133.7551 H   0  0  0  0  0  0  0  0  0  0  0  0
  141.4126  160.8652  134.4022 H   0  0  0  0  0  0  0  0  0  0  0  0
  139.4610  159.0320  136.8580 H   0  0  0  0  0  0  0  0  0  0  0  0
  142.1339  153.7303  136.6562 H   0  0  0  0  0  0  0  0  0  0  0  0
  141.2359  153.7006  135.1008 H   0  0  0  0  0  0  0  0  0  0  0  0
  143.0322  153.7153  135.1008 H   0  0  0  0  0  0  0  0  0  0  0  0
  142.1141  155.6185  137.6982 H   0  0  0  0  0  0  0  0  0  0  0  0
  142.9200  157.0032  136.8860 H   0  0  0  0  0  0  0  0  0  0  0  0
  141.1279  156.8812  136.8860 H   0  0  0  0  0  0  0  0  0  0  0  0
  144.8041  156.6510  133.6346 H   0  0  0  0  0  0  0  0  0  0  0  0
  1  2  1  0
  2  3  1  0
  2  4  1  0
  4  5  1  0
  5  6  1  0
  6  7  1  0
  7  8  1  0
  8  9  2  0
  9 10  1  0
 10 11  2  0
 11 12  1  0
 12 13  2  0
 13 14  1  0
 14 15  1  0
 14 16  2  0
 13 17  1  0
 17 18  1  0
 18 19  2  0
 18 20  1  0
 20 21  1  0
 20 22  1  0
 17 23  1  0
 23 24  2  0
 24  8  1  0
 23 11  1  0
  1 25  1  0
  1 26  1  0
  1 27  1  0
  3 28  1  0
  3 29  1  0
  3 30  1  0
  4 31  1  0
  4 32  1  0
  5 33  1  0
  5 34  1  0
  6 35  1  0
  6 36  1  0
  7 37  1  0
  7 38  1  0
  9 39  1  0
 10 40  1  0
 12 41  1  0
 15 42  1  0
 21 43  1  0
 21 44  1  0
 21 45  1  0
 22 46  1  0
 22 47  1  0
 22 48  1  0
 24 49  1  0
M  CHG  1  15  -1
M  END
>  <UniqueID>  (21) 
21

>  <SMILES>  (21) 
CN(C)CCCCc1ccc2cc(C([NH-])=O)n(C(=O)N(C)C)c2c1

>  <Energy>  (21) 
81.1965172252429

>  <Genealogy>  (21) 
CN(C)CCCCc1ccc2cc(C([NH-])=O)n(C(=O)N(C)C)c2c1 (protonated)
CN(C)CCCCc1ccc2cc(C([NH-])=O)n(C(=O)N(C)C)c2c1 (3D coordinates assigned)
CN(C)CCCCc1ccc2cc(C([NH-])=O)n(C(=O)N(C)C)c2c1 (optimized conformer: 81.1965172252429 kcal/mol)

>  <smiles>  (21) 
CN(C)CCCCc1ccc2cc(C(N)=O)n(C(=O)N(C)C)c2c1

>  <score_type>  (21) 
oracle

>  <origin>  (21) 
adg

>  <m_score__min__energy>  (21) 
-7.2400000000000002

>  <m_primary>  (21) 
energy

$$$$
21:0
     RDKit          3D

 37 39  0  0  0  0  0  0  0  0999 V2000
  138.7330  157.0770  133.7400 C   0  0  0  0  0  0  0  0  0  0  0  0
  139.0070  158.2740  132.8880 C   0  0  0  0  0  0  0  0  0  0  0  0
  138.2520  158.6180  131.8260 N   0  0  0  0  0  0  0  0  0  0  0  0
  138.7750  159.7200  131.3110 N   0  0  0  0  0  0  0  0  0  0  0  0
  138.2780  160.3680  130.1050 C   0  0  0  0  0  0  0  0  0  0  0  0
  139.8660  160.0880  132.0060 C   0  0  0  0  0  0  0  0  0  0  0  0
  140.0470  159.1830  133.0330 C   0  0  0  0  0  0  0  0  0  0  0  0
  141.1180  159.2040  134.0490 C   0  0  0  0  0  0  0  0  0  0  0  0
  140.9090  159.7270  135.1760 O   0  0  0  0  0  0  0  0  0  0  0  0
  142.4040  158.6340  133.7640 N   0  0  0  0  0  0  0  0  0  0  0  0
  143.6060  159.2740  133.7170 C   0  0  0  0  0  0  0  0  0  0  0  0
  143.8180  160.7320  133.8400 C   0  0  0  0  0  0  0  0  0  0  0  0
  142.7310  161.6440  133.7230 N   0  0  0  0  0  0  0  0  0  0  0  0
  144.9810  161.1790  134.0260 O   0  0  0  0  0  0  0  0  0  0  0  0
  144.6330  158.3590  133.4850 C   0  0  0  0  0  0  0  0  0  0  0  0
  144.0150  157.1310  133.3910 C   0  0  0  0  0  0  0  0  0  0  0  0
  144.5570  155.8670  133.1900 C   0  0  0  0  0  0  0  0  0  0  0  0
  143.6800  154.7690  133.1710 C   0  0  0  0  0  0  0  0  0  0  0  0
  142.2830  154.9520  133.3420 C   0  0  0  0  0  0  0  0  0  0  0  0
  141.3580  153.7620  133.3760 C   0  0  0  0  0  0  0  0  0  0  0  0
  140.0650  154.1840  133.1340 F   0  0  0  0  0  0  0  0  0  0  0  0
  141.7190  152.8360  132.4130 F   0  0  0  0  0  0  0  0  0  0  0  0
  141.4060  153.1420  134.6130 F   0  0  0  0  0  0  0  0  0  0  0  0
  141.7750  156.2520  133.5710 C   0  0  0  0  0  0  0  0  0  0  0  0
  142.6710  157.3260  133.5670 C   0  0  0  0  0  0  0  0  0  0  0  0
  138.7977  157.3596  134.8011 H   0  0  0  0  0  0  0  0  0  0  0  0
  137.7243  156.6956  133.5230 H   0  0  0  0  0  0  0  0  0  0  0  0
  139.4753  156.2948  133.5230 H   0  0  0  0  0  0  0  0  0  0  0  0
  137.6303  161.2125  130.3829 H   0  0  0  0  0  0  0  0  0  0  0  0
  139.1269  160.7370  129.5106 H   0  0  0  0  0  0  0  0  0  0  0  0
  137.7015  159.6438  129.5106 H   0  0  0  0  0  0  0  0  0  0  0  0
  140.5035  160.9588  131.7932 H   0  0  0  0  0  0  0  0  0  0  0  0
  141.7970  161.4250  134.1380 H   0  0  0  0  0  0  0  0  0  0  0  0
  145.7084  158.5725  133.3960 H   0  0  0  0  0  0  0  0  0  0  0  0
  145.6395  155.7302  133.0501 H   0  0  0  0  0  0  0  0  0  0  0  0
  144.0811  153.7557  133.0218 H   0  0  0  0  0  0  0  0  0  0  0  0
  140.7015  156.4144  133.7479 H   0  0  0  0  0  0  0  0  0  0  0  0
  1  2  1  0
  2  3  2  0
  3  4  1  0
  4  5  1  0
  4  6  1  0
  6  7  2  0
  7  8  1  0
  8  9  2  0
  8 10  1  0
 10 11  1  0
 11 12  1  0
 12 13  1  0
 12 14  2  0
 11 15  2  0
 15 16  1  0
 16 17  2  0
 17 18  1  0
 18 19  2  0
 19 20  1  0
 20 21  1  0
 20 22  1  0
 20 23  1  0
 19 24  1  0
 24 25  2  0
  7  2  1  0
 25 10  1  0
 25 16  1  0
  1 26  1  0
  1 27  1  0
  1 28  1  0
  5 29  1  0
  5 30  1  0
  5 31  1  0
  6 32  1  0
 13 33  1  0
 15 34  1  0
 17 35  1  0
 18 36  1  0
 24 37  1  0
M  CHG  1  13  -1
M  END
>  <UniqueID>  (22) 
22

>  <SMILES>  (22) 
Cc1nn(C)cc1C(=O)n1c(C([NH-])=O)cc2ccc(C(F)(F)F)cc21

>  <Energy>  (22) 
107.20605773939181

>  <Genealogy>  (22) 
Cc1nn(C)cc1C(=O)n1c(C([NH-])=O)cc2ccc(C(F)(F)F)cc21 (protonated)
Cc1nn(C)cc1C(=O)n1c(C([NH-])=O)cc2ccc(C(F)(F)F)cc21 (3D coordinates assigned)
Cc1nn(C)cc1C(=O)n1c(C([NH-])=O)cc2ccc(C(F)(F)F)cc21 (optimized conformer: 107.20605773939181 kcal/mol)

>  <smiles>  (22) 
Cc1nn(C)cc1C(=O)n1c(C(N)=O)cc2ccc(C(F)(F)F)cc21

>  <score_type>  (22) 
oracle

>  <origin>  (22) 
adg

>  <m_score__min__energy>  (22) 
-6.9199999999999999

>  <m_primary>  (22) 
energy

$$$$
22:0
     RDKit          3D

 37 38  0  0  0  0  0  0  0  0999 V2000
  145.3010  155.3100  135.0320 C   0  0  0  0  0  0  0  0  0  0  0  0
  146.4850  155.5980  134.2190 N   0  0  0  0  0  0  0  0  0  0  0  0
  147.7400  154.8840  134.4970 C   0  0  0  0  0  0  0  0  0  0  0  0
  148.0960  153.9440  133.3460 C   0  0  0  0  0  0  0  0  0  0  0  0
  148.6020  154.6790  132.2650 O   0  0  0  0  0  0  0  0  0  0  0  0
  146.3460  156.4420  133.0570 C   0  0  0  0  0  0  0  0  0  0  0  0
  146.3330  155.9280  131.9070 O   0  0  0  0  0  0  0  0  0  0  0  0
  146.2210  157.8680  133.1830 N   0  0  0  0  0  0  0  0  0  0  0  0
  147.1830  158.8160  133.0040 C   0  0  0  0  0  0  0  0  0  0  0  0
  148.6020  158.5610  132.6770 C   0  0  0  0  0  0  0  0  0  0  0  0
  148.9930  157.4680  131.8460 N   0  0  0  0  0  0  0  0  0  0  0  0
  149.4910  159.3040  133.1730 O   0  0  0  0  0  0  0  0  0  0  0  0
  146.6440  160.0920  133.1630 C   0  0  0  0  0  0  0  0  0  0  0  0
  145.3170  159.8920  133.4710 C   0  0  0  0  0  0  0  0  0  0  0  0
  144.3080  160.8120  133.7380 C   0  0  0  0  0  0  0  0  0  0  0  0
  143.0230  160.3170  134.0210 C   0  0  0  0  0  0  0  0  0  0  0  0
  142.7690  158.9220  134.0200 C   0  0  0  0  0  0  0  0  0  0  0  0
  141.3830  158.4140  134.3040 C   0  0  0  0  0  0  0  0  0  0  0  0
  140.5650  159.4680  134.6720 F   0  0  0  0  0  0  0  0  0  0  0  0
  140.8680  157.8090  133.1730 F   0  0  0  0  0  0  0  0  0  0  0  0
  143.8180  158.0180  133.7350 C   0  0  0  0  0  0  0  0  0  0  0  0
  145.0890  158.5410  133.4780 C   0  0  0  0  0  0  0  0  0  0  0  0
  145.5639  155.3740  136.0982 H   0  0  0  0  0  0  0  0  0  0  0  0
  144.5127  156.0426  134.8042 H   0  0  0  0  0  0  0  0  0  0  0  0
  144.9373  154.2972  134.8042 H   0  0  0  0  0  0  0  0  0  0  0  0
  148.5502  155.6164  134.6282 H   0  0  0  0  0  0  0  0  0  0  0  0
  147.6110  154.2876  135.4123 H   0  0  0  0  0  0  0  0  0  0  0  0
  148.8561  153.2248  133.6850 H   0  0  0  0  0  0  0  0  0  0  0  0
  147.1909  153.4073  133.0253 H   0  0  0  0  0  0  0  0  0  0  0  0
  147.9580  154.5510  131.5200 H   0  0  0  0  0  0  0  0  0  0  0  0
  149.9930  157.3570  131.5660 H   0  0  0  0  0  0  0  0  0  0  0  0
  148.3220  156.7130  131.5850 H   0  0  0  0  0  0  0  0  0  0  0  0
  147.1677  161.0542  133.0635 H   0  0  0  0  0  0  0  0  0  0  0  0
  144.5095  161.8933  133.7280 H   0  0  0  0  0  0  0  0  0  0  0  0
  142.2064  161.0190  134.2455 H   0  0  0  0  0  0  0  0  0  0  0  0
  141.4290  157.6821  135.1239 H   0  0  0  0  0  0  0  0  0  0  0  0
  143.6391  156.9328  133.7160 H   0  0  0  0  0  0  0  0  0  0  0  0
  1  2  1  0
  2  3  1  0
  3  4  1  0
  4  5  1  0
  2  6  1  0
  6  7  2  0
  6  8  1  0
  8  9  1  0
  9 10  1  0
 10 11  1  0
 10 12  2  0
  9 13  2  0
 13 14  1  0
 14 15  2  0
 15 16  1  0
 16 17  2  0
 17 18  1  0
 18 19  1  0
 18 20  1  0
 17 21  1  0
 21 22  2  0
 22  8  1  0
 22 14  1  0
  1 23  1  0
  1 24  1  0
  1 25  1  0
  3 26  1  0
  3 27  1  0
  4 28  1  0
  4 29  1  0
  5 30  1  0
 11 31  1  0
 11 32  1  0
 13 33  1  0
 15 34  1  0
 16 35  1  0
 18 36  1  0
 21 37  1  0
M  END
>  <UniqueID>  (23) 
23

>  <SMILES>  (23) 
CN(CCO)C(=O)n1c(C(N)=O)cc2ccc(C(F)F)cc21

>  <Energy>  (23) 
72.27093042933568

>  <Genealogy>  (23) 
CN(CCO)C(=O)n1c(C(N)=O)cc2ccc(C(F)F)cc21 (3D coordinates assigned)
CN(CCO)C(=O)n1c(C(N)=O)cc2ccc(C(F)F)cc21 (optimized conformer: 72.27093042933568 kcal/mol)

>  <smiles>  (23) 
CN(CCO)C(=O)n1c(C(N)=O)cc2ccc(C(F)F)cc21

>  <score_type>  (23) 
oracle

>  <origin>  (23) 
adg

>  <m_score__min__energy>  (23) 
-5.3899999999999997

>  <m_primary>  (23) 
energy

$$$$
23:0
     RDKit          3D

 50 52  0  0  0  0  0  0  0  0999 V2000
  146.9090  162.5710  134.5490 H   0  0  0  0  0  0  0  0  0  0  0  0
  145.9060  162.7270  134.7940 N   0  0  0  0  0  0  0  0  0  0  0  0
  144.8660  162.0640  134.0780 C   0  0  0  0  0  0  0  0  0  0  0  0
  143.9590  162.7470  133.5360 O   0  0  0  0  0  0  0  0  0  0  0  0
  144.8880  160.5930  133.9460 C   0  0  0  0  0  0  0  0  0  0  0  0
  146.0320  159.8680  133.6180 C   0  0  0  0  0  0  0  0  0  0  0  0
  147.0534  160.2565  133.4921 H   0  0  0  0  0  0  0  0  0  0  0  0
  145.6150  158.5650  133.4850 C   0  0  0  0  0  0  0  0  0  0  0  0
  146.3320  157.4260  133.1350 C   0  0  0  0  0  0  0  0  0  0  0  0
  147.4128  157.4755  132.9362 H   0  0  0  0  0  0  0  0  0  0  0  0
  145.6340  156.2100  133.0430 C   0  0  0  0  0  0  0  0  0  0  0  0
  146.1707  155.2943  132.7542 H   0  0  0  0  0  0  0  0  0  0  0  0
  144.2440  156.1520  133.3190 C   0  0  0  0  0  0  0  0  0  0  0  0
  143.4910  154.8650  133.1090 C   0  0  0  0  0  0  0  0  0  0  0  0
  143.1269  154.8265  132.0717 H   0  0  0  0  0  0  0  0  0  0  0  0
  144.1712  154.0243  133.3103 H   0  0  0  0  0  0  0  0  0  0  0  0
  142.2930  154.7650  134.0660 C   0  0  0  0  0  0  0  0  0  0  0  0
  142.5329  154.0494  134.8662 H   0  0  0  0  0  0  0  0  0  0  0  0
  142.0976  155.7644  134.4820 H   0  0  0  0  0  0  0  0  0  0  0  0
  141.0490  154.2980  133.3450 C   0  0  0  0  0  0  0  0  0  0  0  0
  141.0402  153.2623  132.9746 H   0  0  0  0  0  0  0  0  0  0  0  0
  139.9500  155.0440  133.1180 C   0  0  0  0  0  0  0  0  0  0  0  0
  139.1419  154.5820  132.5319 H   0  0  0  0  0  0  0  0  0  0  0  0
  139.7300  156.4650  133.6000 C   0  0  0  0  0  0  0  0  0  0  0  0
  138.8734  156.4695  134.2901 H   0  0  0  0  0  0  0  0  0  0  0  0
  140.6616  156.7882  134.0875 H   0  0  0  0  0  0  0  0  0  0  0  0
  139.4560  157.4250  132.5080 N   0  0  0  0  0  0  0  0  0  0  0  0
  140.6120  158.2810  132.1890 C   0  0  0  0  0  0  0  0  0  0  0  0
  140.9574  158.7772  133.1080 H   0  0  0  0  0  0  0  0  0  0  0  0
  141.4106  157.6517  131.7693 H   0  0  0  0  0  0  0  0  0  0  0  0
  140.2310  159.3530  131.1490 C   0  0  0  0  0  0  0  0  0  0  0  0
  140.1577  160.3299  131.6493 H   0  0  0  0  0  0  0  0  0  0  0  0
  141.0068  159.3772  130.3695 H   0  0  0  0  0  0  0  0  0  0  0  0
  138.9910  159.0500  130.5420 O   0  0  0  0  0  0  0  0  0  0  0  0
  137.9540  159.1130  131.5060 C   0  0  0  0  0  0  0  0  0  0  0  0
  137.8345  160.1576  131.8293 H   0  0  0  0  0  0  0  0  0  0  0  0
  137.0354  158.7299  131.0376 H   0  0  0  0  0  0  0  0  0  0  0  0
  138.2520  158.2400  132.7460 C   0  0  0  0  0  0  0  0  0  0  0  0
  138.4179  158.8896  133.6181 H   0  0  0  0  0  0  0  0  0  0  0  0
  137.3962  157.5752  132.9349 H   0  0  0  0  0  0  0  0  0  0  0  0
  143.5520  157.3280  133.6830 C   0  0  0  0  0  0  0  0  0  0  0  0
  142.4779  157.3002  133.9189 H   0  0  0  0  0  0  0  0  0  0  0  0
  144.2670  158.5290  133.7360 C   0  0  0  0  0  0  0  0  0  0  0  0
  143.8060  159.7670  134.0230 N   0  0  0  0  0  0  0  0  0  0  0  0
  142.4560  160.1110  134.3720 C   0  0  0  0  0  0  0  0  0  0  0  0
  141.7480  160.7650  133.5600 O   0  0  0  0  0  0  0  0  0  0  0  0
  141.9150  159.6810  135.6270 N   0  0  0  0  0  0  0  0  0  0  0  0
  141.0850  158.5310  135.8130 C   0  0  0  0  0  0  0  0  0  0  0  0
  139.8370  158.6450  135.7100 O   0  0  0  0  0  0  0  0  0  0  0  0
  141.6370  157.2880  136.1060 O   0  0  0  0  0  0  0  0  0  0  0  0
  1  2  1  0
  2  3  1  0
  3  4  2  0
  3  5  1  0
  5  6  2  0
  6  7  1  0
  6  8  1  0
  8  9  2  0
  9 10  1  0
  9 11  1  0
 11 12  1  0
 11 13  2  0
 13 14  1  0
 14 15  1  0
 14 16  1  0
 14 17  1  0
 17 18  1  0
 17 19  1  0
 17 20  1  0
 20 21  1  0
 20 22  2  0
 22 23  1  0
 22 24  1  0
 24 25  1  0
 24 26  1  0
 24 27  1  0
 27 28  1  0
 28 29  1  0
 28 30  1  0
 28 31  1  0
 31 32  1  0
 31 33  1  0
 31 34  1  0
 34 35  1  0
 35 36  1  0
 35 37  1  0
 35 38  1  0
 38 39  1  0
 38 40  1  0
 13 41  1  0
 41 42  1  0
 41 43  2  0
 43 44  1  0
 44 45  1  0
 45 46  2  0
 45 47  1  0
 47 48  1  0
 48 49  2  0
 48 50  1  0
 44  5  1  0
 43  8  1  0
 38 27  1  0
M  CHG  3   2  -1  47  -1  50  -1
M  END
>  <UniqueID>  (24) 
24

>  <SMILES>  (24) 
[NH-]C(=O)c1cc2ccc(CC/C=C\CN3CCOCC3)cc2n1C(=O)[N-]C(=O)[O-]

>  <Energy>  (24) 
95.6751124760071

>  <Genealogy>  (24) 
[NH-]C(=O)c1cc2ccc(CCC=CCN3CCOCC3)cc2n1C(=O)[N-]C(=O)[O-] (protonated)
[NH-]C(=O)c1cc2ccc(CC/C=C\CN3CCOCC3)cc2n1C(=O)[N-]C(=O)[O-] (cis-trans isomerization)
[NH-]C(=O)c1cc2ccc(CC/C=C\CN3CCOCC3)cc2n1C(=O)[N-]C(=O)[O-] (3D coordinates assigned)
[NH-]C(=O)c1cc2ccc(CC/C=C\CN3CCOCC3)cc2n1C(=O)[N-]C(=O)[O-] (nonaromatic ring conformer: 95.6751124760071 kcal/mol)

>  <smiles>  (24) 
NC(=O)c1cc2ccc(CCC=CCN3CCOCC3)cc2n1C(=O)NC(=O)O

>  <score_type>  (24) 
oracle

>  <origin>  (24) 
adg

>  <m_score__min__energy>  (24) 
-8.9800000000000004

>  <m_primary>  (24) 
energy

$$$$
24:0
     RDKit          3D

 47 49  0  0  0  0  0  0  0  0999 V2000
  149.9620  152.4890  132.2440 C   0  0  0  0  0  0  0  0  0  0  0  0
  148.7670  153.2190  132.7560 C   0  0  0  0  0  0  0  0  0  0  0  0
  147.6960  152.6180  133.3060 N   0  0  0  0  0  0  0  0  0  0  0  0
  146.8530  153.6200  133.6060 C   0  0  0  0  0  0  0  0  0  0  0  0
  147.4500  154.8090  133.2190 C   0  0  0  0  0  0  0  0  0  0  0  0
  146.9070  156.1800  133.3460 C   0  0  0  0  0  0  0  0  0  0  0  0
  147.7930  157.2860  133.2920 C   0  0  0  0  0  0  0  0  0  0  0  0
  147.3100  158.6010  133.3980 C   0  0  0  0  0  0  0  0  0  0  0  0
  145.9410  158.7810  133.5630 C   0  0  0  0  0  0  0  0  0  0  0  0
  145.2090  159.9420  133.6690 C   0  0  0  0  0  0  0  0  0  0  0  0
  143.8840  159.5300  133.8090 C   0  0  0  0  0  0  0  0  0  0  0  0
  142.7610  160.4620  134.0420 C   0  0  0  0  0  0  0  0  0  0  0  0
  141.7200  160.1070  134.9480 N   0  0  0  0  0  0  0  0  0  0  0  0
  142.6900  161.5560  133.4200 O   0  0  0  0  0  0  0  0  0  0  0  0
  143.8030  158.1690  133.7800 N   0  0  0  0  0  0  0  0  0  0  0  0
  142.6190  157.3570  133.8390 C   0  0  0  0  0  0  0  0  0  0  0  0
  142.2600  156.6950  132.8280 O   0  0  0  0  0  0  0  0  0  0  0  0
  141.8830  157.2900  135.0280 O   0  0  0  0  0  0  0  0  0  0  0  0
  140.5700  156.7410  135.1050 C   0  0  0  0  0  0  0  0  0  0  0  0
  139.5570  157.7740  134.7320 C   0  0  0  0  0  0  0  0  0  0  0  0
  139.1740  158.6130  135.5920 O   0  0  0  0  0  0  0  0  0  0  0  0
  139.0950  157.8380  133.4130 O   0  0  0  0  0  0  0  0  0  0  0  0
  139.1380  159.0210  132.6170 C   0  0  0  0  0  0  0  0  0  0  0  0
  140.4960  159.1010  131.9240 C   0  0  0  0  0  0  0  0  0  0  0  0
  138.0060  159.0080  131.5860 C   0  0  0  0  0  0  0  0  0  0  0  0
  145.0700  157.7270  133.6340 C   0  0  0  0  0  0  0  0  0  0  0  0
  145.5210  156.4070  133.5140 C   0  0  0  0  0  0  0  0  0  0  0  0
  148.6240  154.5240  132.7000 O   0  0  0  0  0  0  0  0  0  0  0  0
  150.5598  152.1238  133.0921 H   0  0  0  0  0  0  0  0  0  0  0  0
  149.6357  151.6358  131.6311 H   0  0  0  0  0  0  0  0  0  0  0  0
  150.5721  153.1688  131.6311 H   0  0  0  0  0  0  0  0  0  0  0  0
  147.5470  151.5960  133.4620 H   0  0  0  0  0  0  0  0  0  0  0  0
  145.8639  153.5151  134.0757 H   0  0  0  0  0  0  0  0  0  0  0  0
  148.8718  157.1121  133.1656 H   0  0  0  0  0  0  0  0  0  0  0  0
  147.9936  159.4616  133.3519 H   0  0  0  0  0  0  0  0  0  0  0  0
  145.5882  160.9744  133.6478 H   0  0  0  0  0  0  0  0  0  0  0  0
  141.0940  159.2950  134.7550 H   0  0  0  0  0  0  0  0  0  0  0  0
  140.4913  155.8886  134.4142 H   0  0  0  0  0  0  0  0  0  0  0  0
  140.3800  156.4072  136.1358 H   0  0  0  0  0  0  0  0  0  0  0  0
  139.0029  159.9049  133.2577 H   0  0  0  0  0  0  0  0  0  0  0  0
  141.2921  159.1479  132.6816 H   0  0  0  0  0  0  0  0  0  0  0  0
  140.6400  158.2098  131.2955 H   0  0  0  0  0  0  0  0  0  0  0  0
  140.5344  160.0030  131.2955 H   0  0  0  0  0  0  0  0  0  0  0  0
  137.0367  158.9969  132.1059 H   0  0  0  0  0  0  0  0  0  0  0  0
  138.0737  159.9070  130.9557 H   0  0  0  0  0  0  0  0  0  0  0  0
  138.0944  158.1108  130.9557 H   0  0  0  0  0  0  0  0  0  0  0  0
  144.8135  155.5655  133.5496 H   0  0  0  0  0  0  0  0  0  0  0  0
  1  2  1  0
  2  3  2  0
  3  4  1  0
  4  5  2  0
  5  6  1  0
  6  7  2  0
  7  8  1  0
  8  9  2  0
  9 10  1  0
 10 11  2  0
 11 12  1  0
 12 13  1  0
 12 14  2  0
 11 15  1  0
 15 16  1  0
 16 17  2  0
 16 18  1  0
 18 19  1  0
 19 20  1  0
 20 21  2  0
 20 22  1  0
 22 23  1  0
 23 24  1  0
 23 25  1  0
 15 26  1  0
 26 27  2  0
  5 28  1  0
 28  2  1  0
 27  6  1  0
 26  9  1  0
  1 29  1  0
  1 30  1  0
  1 31  1  0
  3 32  1  0
  4 33  1  0
  7 34  1  0
  8 35  1  0
 10 36  1  0
 13 37  1  0
 19 38  1  0
 19 39  1  0
 23 40  1  0
 24 41  1  0
 24 42  1  0
 24 43  1  0
 25 44  1  0
 25 45  1  0
 25 46  1  0
 27 47  1  0
M  CHG  2   3   1  13  -1
M  END
>  <UniqueID>  (25) 
25

>  <SMILES>  (25) 
Cc1[nH+]cc(-c2ccc3cc(C([NH-])=O)n(C(=O)OCC(=O)OC(C)C)c3c2)o1

>  <Energy>  (25) 
108.76097264427555

>  <Genealogy>  (25) 
Cc1[nH+]cc(-c2ccc3cc(C([NH-])=O)n(C(=O)OCC(=O)OC(C)C)c3c2)o1 (protonated)
Cc1[nH+]cc(-c2ccc3cc(C([NH-])=O)n(C(=O)OCC(=O)OC(C)C)c3c2)o1 (3D coordinates assigned)
Cc1[nH+]cc(-c2ccc3cc(C([NH-])=O)n(C(=O)OCC(=O)OC(C)C)c3c2)o1 (optimized conformer: 108.76097264427555 kcal/mol)

>  <smiles>  (25) 
Cc1ncc(-c2ccc3cc(C(N)=O)n(C(=O)OCC(=O)OC(C)C)c3c2)o1

>  <score_type>  (25) 
oracle

>  <origin>  (25) 
adg

>  <m_score__min__energy>  (25) 
-7.7400000000000002

>  <m_primary>  (25) 
energy

$$$$
25:0
     RDKit          3D

 37 39  0  0  0  0  0  0  0  0999 V2000
  145.9160  161.6300  134.0820 N   0  0  0  0  0  0  0  0  0  0  0  0
  144.5230  161.7110  133.7860 C   0  0  0  0  0  0  0  0  0  0  0  0
  144.0310  162.8160  133.4370 O   0  0  0  0  0  0  0  0  0  0  0  0
  143.6650  160.5090  133.8380 C   0  0  0  0  0  0  0  0  0  0  0  0
  142.2960  160.5500  134.0960 C   0  0  0  0  0  0  0  0  0  0  0  0
  141.8610  159.2500  133.9690 C   0  0  0  0  0  0  0  0  0  0  0  0
  140.5870  158.7110  134.1150 C   0  0  0  0  0  0  0  0  0  0  0  0
  140.4330  157.3250  133.9420 C   0  0  0  0  0  0  0  0  0  0  0  0
  141.5520  156.5010  133.6500 C   0  0  0  0  0  0  0  0  0  0  0  0
  141.3680  155.0210  133.4270 C   0  0  0  0  0  0  0  0  0  0  0  0
  141.2750  154.3530  134.6360 F   0  0  0  0  0  0  0  0  0  0  0  0
  142.4370  154.4960  132.7230 F   0  0  0  0  0  0  0  0  0  0  0  0
  140.2070  154.8110  132.7070 F   0  0  0  0  0  0  0  0  0  0  0  0
  142.8270  157.0910  133.4860 C   0  0  0  0  0  0  0  0  0  0  0  0
  142.9460  158.4760  133.6510 C   0  0  0  0  0  0  0  0  0  0  0  0
  144.0600  159.2330  133.5710 N   0  0  0  0  0  0  0  0  0  0  0  0
  145.3910  158.7510  133.3360 C   0  0  0  0  0  0  0  0  0  0  0  0
  145.7370  157.6290  133.7960 O   0  0  0  0  0  0  0  0  0  0  0  0
  146.3300  159.5570  132.6120 N   0  0  0  0  0  0  0  0  0  0  0  0
  147.7140  159.1490  132.3860 C   0  0  0  0  0  0  0  0  0  0  0  0
  148.4700  160.2390  131.6140 C   0  0  0  0  0  0  0  0  0  0  0  0
  148.1180  161.5770  131.8280 O   0  0  0  0  0  0  0  0  0  0  0  0
  148.8590  159.9270  130.1790 C   0  0  0  0  0  0  0  0  0  0  0  0
  149.9300  160.0060  131.2640 C   0  0  0  0  0  0  0  0  0  0  0  0
  146.6320  161.9190  133.3800 H   0  0  0  0  0  0  0  0  0  0  0  0
  141.6913  161.4337  134.3477 H   0  0  0  0  0  0  0  0  0  0  0  0
  139.7259  159.3506  134.3586 H   0  0  0  0  0  0  0  0  0  0  0  0
  139.4343  156.8732  134.0338 H   0  0  0  0  0  0  0  0  0  0  0  0
  143.7040  156.4763  133.2348 H   0  0  0  0  0  0  0  0  0  0  0  0
  146.0190  160.4820  132.2370 H   0  0  0  0  0  0  0  0  0  0  0  0
  148.2065  158.9828  133.3555 H   0  0  0  0  0  0  0  0  0  0  0  0
  147.7222  158.2208  131.7958 H   0  0  0  0  0  0  0  0  0  0  0  0
  147.3570  161.5530  132.4630 H   0  0  0  0  0  0  0  0  0  0  0  0
  148.5949  158.9554  129.7359 H   0  0  0  0  0  0  0  0  0  0  0  0
  148.6993  160.4136  129.2055 H   0  0  0  0  0  0  0  0  0  0  0  0
  150.4382  159.0914  131.6034 H   0  0  0  0  0  0  0  0  0  0  0  0
  150.8630  160.5732  131.3975 H   0  0  0  0  0  0  0  0  0  0  0  0
  1  2  1  0
  2  3  2  0
  2  4  1  0
  4  5  2  0
  5  6  1  0
  6  7  2  0
  7  8  1  0
  8  9  2  0
  9 10  1  0
 10 11  1  0
 10 12  1  0
 10 13  1  0
  9 14  1  0
 14 15  2  0
 15 16  1  0
 16 17  1  0
 17 18  2  0
 17 19  1  0
 19 20  1  0
 20 21  1  0
 21 22  1  0
 21 23  1  0
 23 24  1  0
 16  4  1  0
 24 21  1  0
 15  6  1  0
  1 25  1  0
  5 26  1  0
  7 27  1  0
  8 28  1  0
 14 29  1  0
 19 30  1  0
 20 31  1  0
 20 32  1  0
 22 33  1  0
 23 34  1  0
 23 35  1  0
 24 36  1  0
 24 37  1  0
M  CHG  1   1  -1
M  END
>  <UniqueID>  (26) 
26

>  <SMILES>  (26) 
[NH-]C(=O)c1cc2ccc(C(F)(F)F)cc2n1C(=O)NCC1(O)CC1

>  <Energy>  (26) 
342.59091357210826

>  <Genealogy>  (26) 
[NH-]C(=O)c1cc2ccc(C(F)(F)F)cc2n1C(=O)NCC1(O)CC1 (protonated)
[NH-]C(=O)c1cc2ccc(C(F)(F)F)cc2n1C(=O)NCC1(O)CC1 (3D coordinates assigned)
[NH-]C(=O)c1cc2ccc(C(F)(F)F)cc2n1C(=O)NCC1(O)CC1 (nonaromatic ring conformer: 342.59091357210826 kcal/mol)

>  <smiles>  (26) 
NC(=O)c1cc2ccc(C(F)(F)F)cc2n1C(=O)NCC1(O)CC1

>  <score_type>  (26) 
oracle

>  <origin>  (26) 
adg

>  <m_score__min__energy>  (26) 
-6.9299999999999997

>  <m_primary>  (26) 
energy

$$$$
26:0
     RDKit          3D

 45 48  0  0  0  0  0  0  0  0999 V2000
  147.7500  160.4800  132.8430 C   0  0  0  0  0  0  0  0  0  0  0  0
  146.6070  159.6190  133.1400 N   0  0  0  0  0  0  0  0  0  0  0  0
  146.5820  158.2810  132.9870 C   0  0  0  0  0  0  0  0  0  0  0  0
  145.3410  157.7820  133.3570 C   0  0  0  0  0  0  0  0  0  0  0  0
  144.9120  156.3600  133.3340 C   0  0  0  0  0  0  0  0  0  0  0  0
  145.8700  155.3220  133.1690 C   0  0  0  0  0  0  0  0  0  0  0  0
  145.4740  153.9740  133.1370 C   0  0  0  0  0  0  0  0  0  0  0  0
  144.1220  153.6870  133.2770 C   0  0  0  0  0  0  0  0  0  0  0  0
  143.4640  152.4780  133.2570 C   0  0  0  0  0  0  0  0  0  0  0  0
  142.1180  152.7870  133.4340 C   0  0  0  0  0  0  0  0  0  0  0  0
  141.0480  151.7710  133.5100 C   0  0  0  0  0  0  0  0  0  0  0  0
  139.9390  151.7870  132.6100 N   0  0  0  0  0  0  0  0  0  0  0  0
  141.0930  150.8940  134.4150 O   0  0  0  0  0  0  0  0  0  0  0  0
  141.9480  154.1360  133.5380 N   0  0  0  0  0  0  0  0  0  0  0  0
  140.7150  154.8680  133.6380 C   0  0  0  0  0  0  0  0  0  0  0  0
  139.7230  154.4930  132.9570 O   0  0  0  0  0  0  0  0  0  0  0  0
  140.5890  156.0410  134.5350 C   0  0  0  0  0  0  0  0  0  0  0  0
  141.2310  156.0480  135.7870 C   0  0  0  0  0  0  0  0  0  0  0  0
  141.1110  157.1520  136.6380 C   0  0  0  0  0  0  0  0  0  0  0  0
  140.3580  158.2600  136.2460 C   0  0  0  0  0  0  0  0  0  0  0  0
  139.7250  158.2690  135.0000 C   0  0  0  0  0  0  0  0  0  0  0  0
  139.8420  157.1690  134.1460 C   0  0  0  0  0  0  0  0  0  0  0  0
  143.1840  154.6700  133.4510 C   0  0  0  0  0  0  0  0  0  0  0  0
  143.5440  156.0210  133.4720 C   0  0  0  0  0  0  0  0  0  0  0  0
  144.5800  158.8720  133.7510 C   0  0  0  0  0  0  0  0  0  0  0  0
  145.3890  159.9820  133.6060 C   0  0  0  0  0  0  0  0  0  0  0  0
  144.9810  161.3250  133.9130 N   0  0  0  0  0  0  0  0  0  0  0  0
  143.8110  161.7080  133.7090 O   0  0  0  0  0  0  0  0  0  0  0  0
  145.8910  162.2130  134.4400 O   0  0  0  0  0  0  0  0  0  0  0  0
  148.2051  160.8228  133.7839 H   0  0  0  0  0  0  0  0  0  0  0  0
  148.4930  159.9152  132.2608 H   0  0  0  0  0  0  0  0  0  0  0  0
  147.4122  161.3500  132.2608 H   0  0  0  0  0  0  0  0  0  0  0  0
  147.4226  157.6726  132.6220 H   0  0  0  0  0  0  0  0  0  0  0  0
  146.9348  155.5776  133.0651 H   0  0  0  0  0  0  0  0  0  0  0  0
  146.2128  153.1698  133.0050 H   0  0  0  0  0  0  0  0  0  0  0  0
  143.9075  151.4796  133.1285 H   0  0  0  0  0  0  0  0  0  0  0  0
  139.2300  151.0220  132.6410 H   0  0  0  0  0  0  0  0  0  0  0  0
  139.7660  152.5980  131.9780 H   0  0  0  0  0  0  0  0  0  0  0  0
  141.8309  155.1802  136.0986 H   0  0  0  0  0  0  0  0  0  0  0  0
  141.6110  157.1468  137.6178 H   0  0  0  0  0  0  0  0  0  0  0  0
  140.2628  159.1259  136.9176 H   0  0  0  0  0  0  0  0  0  0  0  0
  139.1336  159.1435  134.6910 H   0  0  0  0  0  0  0  0  0  0  0  0
  139.3473  157.1847  133.1637 H   0  0  0  0  0  0  0  0  0  0  0  0
  142.7808  156.8038  133.5931 H   0  0  0  0  0  0  0  0  0  0  0  0
  143.5396  158.8559  134.1079 H   0  0  0  0  0  0  0  0  0  0  0  0
  1  2  1  0
  2  3  1  0
  3  4  2  0
  4  5  1  0
  5  6  2  0
  6  7  1  0
  7  8  2  0
  8  9  1  0
  9 10  2  0
 10 11  1  0
 11 12  1  0
 11 13  2  0
 10 14  1  0
 14 15  1  0
 15 16  2  0
 15 17  1  0
 17 18  2  0
 18 19  1  0
 19 20  2  0
 20 21  1  0
 21 22  2  0
 14 23  1  0
 23 24  2  0
  4 25  1  0
 25 26  2  0
 26 27  1  0
 27 28  2  0
 27 29  1  0
 26  2  1  0
 24  5  1  0
 23  8  1  0
 22 17  1  0
  1 30  1  0
  1 31  1  0
  1 32  1  0
  3 33  1  0
  6 34  1  0
  7 35  1  0
  9 36  1  0
 12 37  1  0
 12 38  1  0
 18 39  1  0
 19 40  1  0
 20 41  1  0
 21 42  1  0
 22 43  1  0
 24 44  1  0
 25 45  1  0
M  CHG  2  27   1  29  -1
M  END
>  <UniqueID>  (27) 
27

>  <SMILES>  (27) 
Cn1cc(-c2ccc3cc(C(N)=O)n(C(=O)c4ccccc4)c3c2)cc1[N+](=O)[O-]

>  <Energy>  (27) 
120.84471466345012

>  <Genealogy>  (27) 
Cn1cc(-c2ccc3cc(C(N)=O)n(C(=O)c4ccccc4)c3c2)cc1[N+](=O)[O-] (3D coordinates assigned)
Cn1cc(-c2ccc3cc(C(N)=O)n(C(=O)c4ccccc4)c3c2)cc1[N+](=O)[O-] (optimized conformer: 120.84471466345012 kcal/mol)

>  <smiles>  (27) 
Cn1cc(-c2ccc3cc(C(N)=O)n(C(=O)c4ccccc4)c3c2)cc1[N+](=O)[O-]

>  <score_type>  (27) 
oracle

>  <origin>  (27) 
adg

>  <m_score__min__energy>  (27) 
-9.4000000000000004

>  <m_primary>  (27) 
energy

$$$$
27:0
     RDKit          3D

 35 37  0  0  0  0  0  0  0  0999 V2000
  138.7340  157.8670  133.2870 C   0  0  0  0  0  0  0  0  0  0  0  0
  139.4910  158.6050  134.2390 O   0  0  0  0  0  0  0  0  0  0  0  0
  140.2770  157.9860  135.2150 C   0  0  0  0  0  0  0  0  0  0  0  0
  139.8850  157.9170  136.4110 O   0  0  0  0  0  0  0  0  0  0  0  0
  141.5770  157.3580  134.8240 C   0  0  0  0  0  0  0  0  0  0  0  0
  142.7230  158.2590  134.4560 C   0  0  0  0  0  0  0  0  0  0  0  0
  142.5310  159.6610  134.3910 C   0  0  0  0  0  0  0  0  0  0  0  0
  143.5880  160.5100  134.0260 C   0  0  0  0  0  0  0  0  0  0  0  0
  144.8130  159.9300  133.7100 C   0  0  0  0  0  0  0  0  0  0  0  0
  146.0040  160.5200  133.3560 C   0  0  0  0  0  0  0  0  0  0  0  0
  146.8920  159.4660  133.1610 C   0  0  0  0  0  0  0  0  0  0  0  0
  148.2840  159.6520  132.7070 C   0  0  0  0  0  0  0  0  0  0  0  0
  149.3680  158.9800  133.3490 N   0  0  0  0  0  0  0  0  0  0  0  0
  148.5150  160.3730  131.6990 O   0  0  0  0  0  0  0  0  0  0  0  0
  146.2820  158.2700  133.3980 N   0  0  0  0  0  0  0  0  0  0  0  0
  146.8890  156.9670  133.4130 C   0  0  0  0  0  0  0  0  0  0  0  0
  147.8220  156.7100  134.2180 O   0  0  0  0  0  0  0  0  0  0  0  0
  146.4520  155.9750  132.5430 O   0  0  0  0  0  0  0  0  0  0  0  0
  145.0060  158.5710  133.7320 C   0  0  0  0  0  0  0  0  0  0  0  0
  143.9760  157.7030  134.1120 C   0  0  0  0  0  0  0  0  0  0  0  0
  141.9340  156.0620  135.5450 C   0  0  0  0  0  0  0  0  0  0  0  0
  141.4890  156.0240  134.0900 C   0  0  0  0  0  0  0  0  0  0  0  0
  138.0420  157.1924  133.8123 H   0  0  0  0  0  0  0  0  0  0  0  0
  138.1604  158.5621  132.6563 H   0  0  0  0  0  0  0  0  0  0  0  0
  139.4143  157.2759  132.6563 H   0  0  0  0  0  0  0  0  0  0  0  0
  141.5455  160.0881  134.6285 H   0  0  0  0  0  0  0  0  0  0  0  0
  143.4520  161.6010  133.9908 H   0  0  0  0  0  0  0  0  0  0  0  0
  146.2106  161.5952  133.2497 H   0  0  0  0  0  0  0  0  0  0  0  0
  149.1950  158.2480  134.0720 H   0  0  0  0  0  0  0  0  0  0  0  0
  150.3500  159.1540  133.0380 H   0  0  0  0  0  0  0  0  0  0  0  0
  144.1376  156.6154  134.1422 H   0  0  0  0  0  0  0  0  0  0  0  0
  142.9811  155.8482  135.8055 H   0  0  0  0  0  0  0  0  0  0  0  0
  141.6029  155.5716  136.4723 H   0  0  0  0  0  0  0  0  0  0  0  0
  142.2146  155.7827  133.2993 H   0  0  0  0  0  0  0  0  0  0  0  0
  140.7033  155.4947  133.5310 H   0  0  0  0  0  0  0  0  0  0  0  0
  1  2  1  0
  2  3  1  0
  3  4  2  0
  3  5  1  0
  5  6  1  0
  6  7  2  0
  7  8  1  0
  8  9  2  0
  9 10  1  0
 10 11  2  0
 11 12  1  0
 12 13  1  0
 12 14  2  0
 11 15  1  0
 15 16  1  0
 16 17  2  0
 16 18  1  0
 15 19  1  0
 19 20  2  0
  5 21  1  0
 21 22  1  0
 22  5  1  0
 20  6  1  0
 19  9  1  0
  1 23  1  0
  1 24  1  0
  1 25  1  0
  7 26  1  0
  8 27  1  0
 10 28  1  0
 13 29  1  0
 13 30  1  0
 20 31  1  0
 21 32  1  0
 21 33  1  0
 22 34  1  0
 22 35  1  0
M  CHG  1  18  -1
M  END
>  <UniqueID>  (28) 
28

>  <SMILES>  (28) 
COC(=O)C1(c2ccc3cc(C(N)=O)n(C(=O)[O-])c3c2)CC1

>  <Energy>  (28) 
339.2177667857438

>  <Genealogy>  (28) 
COC(=O)C1(c2ccc3cc(C(N)=O)n(C(=O)[O-])c3c2)CC1 (protonated)
COC(=O)C1(c2ccc3cc(C(N)=O)n(C(=O)[O-])c3c2)CC1 (3D coordinates assigned)
COC(=O)C1(c2ccc3cc(C(N)=O)n(C(=O)[O-])c3c2)CC1 (nonaromatic ring conformer: 339.2177667857438 kcal/mol)

>  <smiles>  (28) 
COC(=O)C1(c2ccc3cc(C(N)=O)n(C(=O)O)c3c2)CC1

>  <score_type>  (28) 
oracle

>  <origin>  (28) 
adg

>  <m_score__min__energy>  (28) 
-6.6200000000000001

>  <m_primary>  (28) 
energy

$$$$
28:0
     RDKit          3D

 45 46  0  0  0  0  0  0  0  0999 V2000
  149.2200  159.2170  130.3710 C   0  0  0  0  0  0  0  0  0  0  0  0
  149.3160  160.2840  131.3790 N   0  0  0  0  0  0  0  0  0  0  0  0
  148.8610  161.5600  130.8010 C   0  0  0  0  0  0  0  0  0  0  0  0
  148.5500  159.9420  132.6020 C   0  0  0  0  0  0  0  0  0  0  0  0
  148.8170  158.4860  133.0030 C   0  0  0  0  0  0  0  0  0  0  0  0
  147.5650  157.8090  133.4890 C   0  0  0  0  0  0  0  0  0  0  0  0
  146.3010  158.1780  132.9650 C   0  0  0  0  0  0  0  0  0  0  0  0
  145.1330  157.5140  133.3770 C   0  0  0  0  0  0  0  0  0  0  0  0
  145.2640  156.4710  134.2900 C   0  0  0  0  0  0  0  0  0  0  0  0
  144.3040  155.6720  134.8680 C   0  0  0  0  0  0  0  0  0  0  0  0
  145.0000  154.8050  135.7130 C   0  0  0  0  0  0  0  0  0  0  0  0
  144.3670  153.7580  136.5540 C   0  0  0  0  0  0  0  0  0  0  0  0
  144.9160  153.3980  137.8240 N   0  0  0  0  0  0  0  0  0  0  0  0
  143.3270  153.1700  136.1570 O   0  0  0  0  0  0  0  0  0  0  0  0
  146.3400  155.0470  135.6320 N   0  0  0  0  0  0  0  0  0  0  0  0
  147.3940  154.4100  136.3740 C   0  0  0  0  0  0  0  0  0  0  0  0
  148.4430  155.0550  136.6360 O   0  0  0  0  0  0  0  0  0  0  0  0
  147.2980  153.0430  136.7930 N   0  0  0  0  0  0  0  0  0  0  0  0
  148.3450  152.2710  137.4600 C   0  0  0  0  0  0  0  0  0  0  0  0
  148.5300  152.7270  138.9090 C   0  0  0  0  0  0  0  0  0  0  0  0
  147.2270  153.0730  139.5590 C   0  0  0  0  0  0  0  0  0  0  0  0
  146.2910  152.2310  139.5870 O   0  0  0  0  0  0  0  0  0  0  0  0
  147.0330  154.3360  140.1040 O   0  0  0  0  0  0  0  0  0  0  0  0
  146.4800  156.0840  134.7810 C   0  0  0  0  0  0  0  0  0  0  0  0
  147.6550  156.7520  134.4210 C   0  0  0  0  0  0  0  0  0  0  0  0
  149.1324  158.2432  130.8751 H   0  0  0  0  0  0  0  0  0  0  0  0
  148.3334  159.3854  129.7421 H   0  0  0  0  0  0  0  0  0  0  0  0
  150.1224  159.2245  129.7421 H   0  0  0  0  0  0  0  0  0  0  0  0
  148.6110  162.2610  131.6110 H   0  0  0  0  0  0  0  0  0  0  0  0
  149.6620  161.9876  130.1802 H   0  0  0  0  0  0  0  0  0  0  0  0
  147.9701  161.3843  130.1802 H   0  0  0  0  0  0  0  0  0  0  0  0
  148.8583  160.6073  133.4220 H   0  0  0  0  0  0  0  0  0  0  0  0
  147.4760  160.0681  132.4004 H   0  0  0  0  0  0  0  0  0  0  0  0
  149.2025  157.9398  132.1295 H   0  0  0  0  0  0  0  0  0  0  0  0
  149.5509  158.4830  133.8224 H   0  0  0  0  0  0  0  0  0  0  0  0
  146.2335  158.9922  132.2285 H   0  0  0  0  0  0  0  0  0  0  0  0
  144.1463  157.8090  132.9904 H   0  0  0  0  0  0  0  0  0  0  0  0
  143.2175  155.7086  134.6998 H   0  0  0  0  0  0  0  0  0  0  0  0
  144.4390  152.6780  138.4120 H   0  0  0  0  0  0  0  0  0  0  0  0
  145.8070  153.8080  138.1790 H   0  0  0  0  0  0  0  0  0  0  0  0
  148.0669  151.2068  137.4514 H   0  0  0  0  0  0  0  0  0  0  0  0
  149.2911  152.4287  136.9215 H   0  0  0  0  0  0  0  0  0  0  0  0
  149.0065  151.9155  139.4785 H   0  0  0  0  0  0  0  0  0  0  0  0
  149.1571  153.6307  138.9032 H   0  0  0  0  0  0  0  0  0  0  0  0
  148.6241  156.4614  134.8528 H   0  0  0  0  0  0  0  0  0  0  0  0
  1  2  1  0
  2  3  1  0
  2  4  1  0
  4  5  1  0
  5  6  1  0
  6  7  2  0
  7  8  1  0
  8  9  2  0
  9 10  1  0
 10 11  2  0
 11 12  1  0
 12 13  1  0
 12 14  2  0
 11 15  1  0
 15 16  1  0
 16 17  2  0
 16 18  1  0
 18 19  1  0
 19 20  1  0
 20 21  1  0
 21 22  2  0
 21 23  1  0
 15 24  1  0
 24 25  2  0
 25  6  1  0
 24  9  1  0
  1 26  1  0
  1 27  1  0
  1 28  1  0
  3 29  1  0
  3 30  1  0
  3 31  1  0
  4 32  1  0
  4 33  1  0
  5 34  1  0
  5 35  1  0
  7 36  1  0
  8 37  1  0
 10 38  1  0
 13 39  1  0
 13 40  1  0
 19 41  1  0
 19 42  1  0
 20 43  1  0
 20 44  1  0
 25 45  1  0
M  CHG  2  18  -1  23  -1
M  END
>  <UniqueID>  (29) 
29

>  <SMILES>  (29) 
CN(C)CCc1ccc2cc(C(N)=O)n(C(=O)[N-]CCC(=O)[O-])c2c1

>  <Energy>  (29) 
78.62675933914464

>  <Genealogy>  (29) 
CN(C)CCc1ccc2cc(C(N)=O)n(C(=O)[N-]CCC(=O)[O-])c2c1 (protonated)
CN(C)CCc1ccc2cc(C(N)=O)n(C(=O)[N-]CCC(=O)[O-])c2c1 (3D coordinates assigned)
CN(C)CCc1ccc2cc(C(N)=O)n(C(=O)[N-]CCC(=O)[O-])c2c1 (optimized conformer: 78.62675933914464 kcal/mol)

>  <smiles>  (29) 
CN(C)CCc1ccc2cc(C(N)=O)n(C(=O)NCCC(=O)O)c2c1

>  <score_type>  (29) 
oracle

>  <origin>  (29) 
adg

>  <m_score__min__energy>  (29) 
-7.5700000000000003

>  <m_primary>  (29) 
energy

$$$$
29:0
     RDKit          3D

 34 35  0  0  0  0  0  0  0  0999 V2000
  149.5660  159.3540  129.5960 C   0  0  0  0  0  0  0  0  0  0  0  0
  149.9690  159.3090  131.0700 C   0  0  0  0  0  0  0  0  0  0  0  0
  149.0310  160.1520  131.9630 C   0  0  1  0  0  0  0  0  0  0  0  0
  148.5520  161.4230  131.2360 C   0  0  0  0  0  0  0  0  0  0  0  0
  149.6270  162.0600  130.5950 O   0  0  0  0  0  0  0  0  0  0  0  0
  147.8390  159.3410  132.4440 C   0  0  0  0  0  0  0  0  0  0  0  0
  147.8750  157.9200  132.4430 C   0  0  0  0  0  0  0  0  0  0  0  0
  146.7750  157.1720  132.8910 C   0  0  0  0  0  0  0  0  0  0  0  0
  145.6540  157.8640  133.3390 C   0  0  0  0  0  0  0  0  0  0  0  0
  144.4490  157.3930  133.8100 C   0  0  0  0  0  0  0  0  0  0  0  0
  143.7010  158.5300  134.1110 C   0  0  0  0  0  0  0  0  0  0  0  0
  142.3650  158.4840  134.7380 C   0  0  0  0  0  0  0  0  0  0  0  0
  141.9780  159.4550  135.7070 N   0  0  0  0  0  0  0  0  0  0  0  0
  141.5710  157.5480  134.4500 O   0  0  0  0  0  0  0  0  0  0  0  0
  144.4110  159.6570  133.8270 N   0  0  0  0  0  0  0  0  0  0  0  0
  143.9740  161.0210  133.9040 C   0  0  0  0  0  0  0  0  0  0  0  0
  142.7740  161.3130  133.6630 O   0  0  0  0  0  0  0  0  0  0  0  0
  145.1110  162.3190  134.4300 S   0  0  0  0  0  0  0  0  0  0  0  0
  145.6050  159.2330  133.3610 C   0  0  0  0  0  0  0  0  0  0  0  0
  146.6800  160.0050  132.9090 C   0  0  0  0  0  0  0  0  0  0  0  0
  148.4756  159.4758  129.5176 H   0  0  0  0  0  0  0  0  0  0  0  0
  150.0659  160.2019  129.1049 H   0  0  0  0  0  0  0  0  0  0  0  0
  149.8666  158.4167  129.1049 H   0  0  0  0  0  0  0  0  0  0  0  0
  149.9385  158.2642  131.4129 H   0  0  0  0  0  0  0  0  0  0  0  0
  150.9812  159.7313  131.1541 H   0  0  0  0  0  0  0  0  0  0  0  0
  149.6167  160.4569  132.8428 H   0  0  0  0  0  0  0  0  0  0  0  0
  147.7958  161.1474  130.4862 H   0  0  0  0  0  0  0  0  0  0  0  0
  148.1203  162.1134  131.9755 H   0  0  0  0  0  0  0  0  0  0  0  0
  150.4590  161.6610  130.9600 H   0  0  0  0  0  0  0  0  0  0  0  0
  148.7764  157.3999  132.0866 H   0  0  0  0  0  0  0  0  0  0  0  0
  146.7984  156.0723  132.8880 H   0  0  0  0  0  0  0  0  0  0  0  0
  144.1420  156.3429  133.9244 H   0  0  0  0  0  0  0  0  0  0  0  0
  141.8760  160.4620  135.4480 H   0  0  0  0  0  0  0  0  0  0  0  0
  146.6254  161.1036  132.9150 H   0  0  0  0  0  0  0  0  0  0  0  0
  1  2  1  0
  2  3  1  0
  3  4  1  0
  4  5  1  0
  3  6  1  0
  6  7  2  0
  7  8  1  0
  8  9  2  0
  9 10  1  0
 10 11  2  0
 11 12  1  0
 12 13  1  0
 12 14  2  0
 11 15  1  0
 15 16  1  0
 16 17  2  0
 16 18  1  0
 15 19  1  0
 19 20  2  0
 20  6  1  0
 19  9  1  0
  1 21  1  0
  1 22  1  0
  1 23  1  0
  2 24  1  0
  2 25  1  0
  3 26  1  1
  4 27  1  0
  4 28  1  0
  5 29  1  0
  7 30  1  0
  8 31  1  0
 10 32  1  0
 13 33  1  0
 20 34  1  0
M  CHG  2  13  -1  18  -1
M  END
>  <UniqueID>  (30) 
30

>  <SMILES>  (30) 
CC[C@@H](CO)c1ccc2cc(C([NH-])=O)n(C(=O)[S-])c2c1

>  <Energy>  (30) 
70.56032888520917

>  <Genealogy>  (30) 
CCC(CO)c1ccc2cc(C([NH-])=O)n(C(=O)[S-])c2c1 (protonated)
CC[C@@H](CO)c1ccc2cc(C([NH-])=O)n(C(=O)[S-])c2c1 (chirality)
CC[C@@H](CO)c1ccc2cc(C([NH-])=O)n(C(=O)[S-])c2c1 (3D coordinates assigned)
CC[C@@H](CO)c1ccc2cc(C([NH-])=O)n(C(=O)[S-])c2c1 (optimized conformer: 70.56032888520917 kcal/mol)

>  <smiles>  (30) 
CCC(CO)c1ccc2cc(C(N)=O)n(C(=O)S)c2c1

>  <score_type>  (30) 
oracle

>  <origin>  (30) 
adg

>  <m_score__min__energy>  (30) 
-6.5499999999999998

>  <m_primary>  (30) 
energy

$$$$
30:0
     RDKit          3D

 43 45  0  0  0  0  0  0  0  0999 V2000
  139.1010  157.8950  132.5130 C   0  0  0  0  0  0  0  0  0  0  0  0
  140.2300  157.0550  132.6070 O   0  0  0  0  0  0  0  0  0  0  0  0
  139.8550  155.7740  133.0790 C   0  0  0  0  0  0  0  0  0  0  0  0
  141.0890  154.9430  133.4260 C   0  0  0  0  0  0  0  0  0  0  0  0
  141.6200  155.3700  134.6760 O   0  0  0  0  0  0  0  0  0  0  0  0
  142.7510  156.1850  134.7790 C   0  0  0  0  0  0  0  0  0  0  0  0
  143.9020  155.6720  134.8520 O   0  0  0  0  0  0  0  0  0  0  0  0
  142.6010  157.6130  134.7840 N   0  0  0  0  0  0  0  0  0  0  0  0
  141.5110  158.3310  135.1770 C   0  0  0  0  0  0  0  0  0  0  0  0
  140.3130  157.7900  135.8520 C   0  0  0  0  0  0  0  0  0  0  0  0
  140.4290  156.7870  136.8590 N   0  0  0  0  0  0  0  0  0  0  0  0
  139.1750  158.2550  135.5730 O   0  0  0  0  0  0  0  0  0  0  0  0
  141.7040  159.6880  134.9300 C   0  0  0  0  0  0  0  0  0  0  0  0
  142.9610  159.7820  134.3770 C   0  0  0  0  0  0  0  0  0  0  0  0
  143.6590  160.8980  133.9280 C   0  0  0  0  0  0  0  0  0  0  0  0
  144.9320  160.6990  133.3700 C   0  0  0  0  0  0  0  0  0  0  0  0
  145.4820  159.3940  133.2620 C   0  0  0  0  0  0  0  0  0  0  0  0
  146.8190  159.1680  132.6630 C   0  0  0  0  0  0  0  0  0  0  0  0
  147.6850  158.1160  132.9210 C   0  0  0  0  0  0  0  0  0  0  0  0
  148.7940  158.3330  132.1300 C   0  0  0  0  0  0  0  0  0  0  0  0
  148.5390  159.5030  131.4450 C   0  0  0  0  0  0  0  0  0  0  0  0
  149.4430  160.1390  130.4360 C   0  0  0  0  0  0  0  0  0  0  0  0
  148.8890  161.3450  129.9890 O   0  0  0  0  0  0  0  0  0  0  0  0
  147.3610  159.9740  131.7760 O   0  0  0  0  0  0  0  0  0  0  0  0
  144.7390  158.2860  133.7290 C   0  0  0  0  0  0  0  0  0  0  0  0
  143.4810  158.5170  134.2990 C   0  0  0  0  0  0  0  0  0  0  0  0
  138.7520  158.1546  133.5233 H   0  0  0  0  0  0  0  0  0  0  0  0
  139.3713  158.8133  131.9712 H   0  0  0  0  0  0  0  0  0  0  0  0
  138.2991  157.3722  131.9712 H   0  0  0  0  0  0  0  0  0  0  0  0
  139.2325  155.8888  133.9786 H   0  0  0  0  0  0  0  0  0  0  0  0
  139.2918  155.2570  132.2881 H   0  0  0  0  0  0  0  0  0  0  0  0
  140.8082  153.8815  133.4916 H   0  0  0  0  0  0  0  0  0  0  0  0
  141.8497  155.0765  132.6427 H   0  0  0  0  0  0  0  0  0  0  0  0
  140.8890  155.8720  136.6560 H   0  0  0  0  0  0  0  0  0  0  0  0
  141.0015  160.5097  135.1335 H   0  0  0  0  0  0  0  0  0  0  0  0
  143.2267  161.9064  134.0076 H   0  0  0  0  0  0  0  0  0  0  0  0
  145.5100  161.5639  133.0124 H   0  0  0  0  0  0  0  0  0  0  0  0
  147.5209  157.2787  133.6153 H   0  0  0  0  0  0  0  0  0  0  0  0
  149.6939  157.7043  132.0600 H   0  0  0  0  0  0  0  0  0  0  0  0
  150.4218  160.3367  130.8973 H   0  0  0  0  0  0  0  0  0  0  0  0
  149.5643  159.4585  129.5804 H   0  0  0  0  0  0  0  0  0  0  0  0
  147.9030  161.2340  130.0200 H   0  0  0  0  0  0  0  0  0  0  0  0
  145.1400  157.2650  133.6465 H   0  0  0  0  0  0  0  0  0  0  0  0
  1  2  1  0
  2  3  1  0
  3  4  1  0
  4  5  1  0
  5  6  1  0
  6  7  2  0
  6  8  1  0
  8  9  1  0
  9 10  1  0
 10 11  1  0
 10 12  2  0
  9 13  2  0
 13 14  1  0
 14 15  2  0
 15 16  1  0
 16 17  2  0
 17 18  1  0
 18 19  2  0
 19 20  1  0
 20 21  2  0
 21 22  1  0
 22 23  1  0
 21 24  1  0
 17 25  1  0
 25 26  2  0
 26  8  1  0
 26 14  1  0
 24 18  1  0
  1 27  1  0
  1 28  1  0
  1 29  1  0
  3 30  1  0
  3 31  1  0
  4 32  1  0
  4 33  1  0
 11 34  1  0
 13 35  1  0
 15 36  1  0
 16 37  1  0
 19 38  1  0
 20 39  1  0
 22 40  1  0
 22 41  1  0
 23 42  1  0
 25 43  1  0
M  CHG  1  11  -1
M  END
>  <UniqueID>  (31) 
31

>  <SMILES>  (31) 
COCCOC(=O)n1c(C([NH-])=O)cc2ccc(-c3ccc(CO)o3)cc21

>  <Energy>  (31) 
107.5175149713045

>  <Genealogy>  (31) 
COCCOC(=O)n1c(C([NH-])=O)cc2ccc(-c3ccc(CO)o3)cc21 (protonated)
COCCOC(=O)n1c(C([NH-])=O)cc2ccc(-c3ccc(CO)o3)cc21 (3D coordinates assigned)
COCCOC(=O)n1c(C([NH-])=O)cc2ccc(-c3ccc(CO)o3)cc21 (optimized conformer: 107.5175149713045 kcal/mol)

>  <smiles>  (31) 
COCCOC(=O)n1c(C(N)=O)cc2ccc(-c3ccc(CO)o3)cc21

>  <score_type>  (31) 
oracle

>  <origin>  (31) 
adg

>  <m_score__min__energy>  (31) 
-6.6299999999999999

>  <m_primary>  (31) 
energy

$$$$
31:0
     RDKit          3D

 34 36  0  0  0  0  0  0  0  0999 V2000
  148.5720  152.2860  133.6430 N   0  0  0  0  0  0  0  0  0  0  0  0
  148.9920  153.3100  132.7450 C   0  0  0  0  0  0  0  0  0  0  0  0
  149.8040  153.0260  131.8230 O   0  0  0  0  0  0  0  0  0  0  0  0
  148.4630  154.6850  132.8580 C   0  0  0  0  0  0  0  0  0  0  0  0
  149.2190  155.8310  132.6100 C   0  0  0  0  0  0  0  0  0  0  0  0
  148.3450  156.8840  132.7630 C   0  0  0  0  0  0  0  0  0  0  0  0
  148.5600  158.2530  132.6460 C   0  0  0  0  0  0  0  0  0  0  0  0
  147.4740  159.1140  132.8830 C   0  0  0  0  0  0  0  0  0  0  0  0
  146.1970  158.5960  133.2350 C   0  0  0  0  0  0  0  0  0  0  0  0
  145.0490  159.4980  133.4950 C   0  0  0  0  0  0  0  0  0  0  0  0
  145.0980  160.8500  133.7880 C   0  0  0  0  0  0  0  0  0  0  0  0
  143.7790  161.2140  133.9400 C   0  0  0  0  0  0  0  0  0  0  0  0
  142.9920  160.1390  133.7480 N   0  0  0  0  0  0  0  0  0  0  0  0
  143.7620  159.0970  133.4780 N   0  0  0  0  0  0  0  0  0  0  0  0
  146.0240  157.1970  133.3420 C   0  0  0  0  0  0  0  0  0  0  0  0
  147.1210  156.3680  133.0910 C   0  0  0  0  0  0  0  0  0  0  0  0
  147.1780  155.0220  133.1550 N   0  0  0  0  0  0  0  0  0  0  0  0
  146.1030  154.1550  133.5430 C   0  0  0  0  0  0  0  0  0  0  0  0
  146.1240  153.6060  134.6770 O   0  0  0  0  0  0  0  0  0  0  0  0
  145.0240  153.8020  132.5650 C   0  0  0  0  0  0  0  0  0  0  0  0
  144.7860  152.2950  132.5570 C   0  0  0  0  0  0  0  0  0  0  0  0
  146.0170  151.6270  132.5400 O   0  0  0  0  0  0  0  0  0  0  0  0
  147.5700  152.1940  133.9210 H   0  0  0  0  0  0  0  0  0  0  0  0
  150.2861  155.8824  132.3480 H   0  0  0  0  0  0  0  0  0  0  0  0
  149.5497  158.6502  132.3762 H   0  0  0  0  0  0  0  0  0  0  0  0
  147.6137  160.2015  132.7951 H   0  0  0  0  0  0  0  0  0  0  0  0
  145.9889  161.4888  133.8788 H   0  0  0  0  0  0  0  0  0  0  0  0
  143.4233  162.2266  134.1811 H   0  0  0  0  0  0  0  0  0  0  0  0
  145.0480  156.7704  133.6166 H   0  0  0  0  0  0  0  0  0  0  0  0
  144.0936  154.3144  132.8511 H   0  0  0  0  0  0  0  0  0  0  0  0
  145.3362  154.1194  131.5591 H   0  0  0  0  0  0  0  0  0  0  0  0
  144.2256  152.0077  133.4589 H   0  0  0  0  0  0  0  0  0  0  0  0
  144.2079  152.0203  131.6624 H   0  0  0  0  0  0  0  0  0  0  0  0
  146.4700  151.8650  133.3910 H   0  0  0  0  0  0  0  0  0  0  0  0
  1  2  1  0
  2  3  2  0
  2  4  1  0
  4  5  2  0
  5  6  1  0
  6  7  2  0
  7  8  1  0
  8  9  2  0
  9 10  1  0
 10 11  2  0
 11 12  1  0
 12 13  2  0
 13 14  1  0
  9 15  1  0
 15 16  2  0
 16 17  1  0
 17 18  1  0
 18 19  2  0
 18 20  1  0
 20 21  1  0
 21 22  1  0
 17  4  1  0
 16  6  1  0
 14 10  1  0
  1 23  1  0
  5 24  1  0
  7 25  1  0
  8 26  1  0
 11 27  1  0
 12 28  1  0
 15 29  1  0
 20 30  1  0
 20 31  1  0
 21 32  1  0
 21 33  1  0
 22 34  1  0
M  CHG  2   1  -1  14  -1
M  END
>  <UniqueID>  (32) 
32

>  <SMILES>  (32) 
[NH-]C(=O)c1cc2ccc(-c3ccn[n-]3)cc2n1C(=O)CCO

>  <Energy>  (32) 
103.02060882221373

>  <Genealogy>  (32) 
[NH-]C(=O)c1cc2ccc(-c3ccn[n-]3)cc2n1C(=O)CCO (protonated)
[NH-]C(=O)c1cc2ccc(-c3ccn[n-]3)cc2n1C(=O)CCO (3D coordinates assigned)
[NH-]C(=O)c1cc2ccc(-c3ccn[n-]3)cc2n1C(=O)CCO (optimized conformer: 103.02060882221373 kcal/mol)

>  <smiles>  (32) 
NC(=O)c1cc2ccc(-c3ccn[nH]3)cc2n1C(=O)CCO

>  <score_type>  (32) 
oracle

>  <origin>  (32) 
adg

>  <m_score__min__energy>  (32) 
-6.1900000000000004

>  <m_primary>  (32) 
energy

$$$$
32:0
     RDKit          3D

 40 42  0  0  0  0  0  0  0  0999 V2000
  148.4730  153.7430  133.5140 C   0  0  0  0  0  0  0  0  0  0  0  0
  148.1190  154.6700  132.4460 N   0  0  0  0  0  0  0  0  0  0  0  0
  147.7950  156.0530  132.6740 C   0  0  0  0  0  0  0  0  0  0  0  0
  148.8300  157.0180  132.6190 C   0  0  0  0  0  0  0  0  0  0  0  0
  148.5600  158.3790  132.8260 C   0  0  0  0  0  0  0  0  0  0  0  0
  147.2440  158.7490  133.0870 C   0  0  0  0  0  0  0  0  0  0  0  0
  146.7060  159.9980  133.2910 C   0  0  0  0  0  0  0  0  0  0  0  0
  145.3430  159.7830  133.4810 C   0  0  0  0  0  0  0  0  0  0  0  0
  144.3780  160.8550  133.8180 C   0  0  0  0  0  0  0  0  0  0  0  0
  143.0280  160.7960  133.3510 N   0  0  0  0  0  0  0  0  0  0  0  0
  144.7480  161.8490  134.4980 O   0  0  0  0  0  0  0  0  0  0  0  0
  145.0510  158.4540  133.3950 N   0  0  0  0  0  0  0  0  0  0  0  0
  143.7510  157.8430  133.4480 C   0  0  0  0  0  0  0  0  0  0  0  0
  143.0060  157.8660  132.4290 O   0  0  0  0  0  0  0  0  0  0  0  0
  143.3100  157.2270  134.6240 O   0  0  0  0  0  0  0  0  0  0  0  0
  141.9370  157.2200  135.0060 C   0  0  0  0  0  0  0  0  0  0  0  0
  141.4010  158.6480  135.1010 C   0  0  0  0  0  0  0  0  0  0  0  0
  140.5480  159.0130  133.9230 C   0  0  0  0  0  0  0  0  0  0  0  0
  139.7330  158.1650  133.2110 C   0  0  0  0  0  0  0  0  0  0  0  0
  139.2140  158.8330  132.1670 N   0  0  0  0  0  0  0  0  0  0  0  0
  139.7430  160.0690  132.2730 C   0  0  0  0  0  0  0  0  0  0  0  0
  140.5690  160.2190  133.3290 N   0  0  0  0  0  0  0  0  0  0  0  0
  146.2270  157.8320  133.1570 C   0  0  0  0  0  0  0  0  0  0  0  0
  146.4660  156.4690  132.9440 C   0  0  0  0  0  0  0  0  0  0  0  0
  148.2910  154.2196  134.4885 H   0  0  0  0  0  0  0  0  0  0  0  0
  147.8585  152.8345  133.4297 H   0  0  0  0  0  0  0  0  0  0  0  0
  149.5366  153.4754  133.4297 H   0  0  0  0  0  0  0  0  0  0  0  0
  148.1520  154.3140  131.4640 H   0  0  0  0  0  0  0  0  0  0  0  0
  149.8609  156.6956  132.4109 H   0  0  0  0  0  0  0  0  0  0  0  0
  149.3628  159.1298  132.7834 H   0  0  0  0  0  0  0  0  0  0  0  0
  147.2381  160.9607  133.3018 H   0  0  0  0  0  0  0  0  0  0  0  0
  142.3680  161.5770  133.5620 H   0  0  0  0  0  0  0  0  0  0  0  0
  142.6680  159.9650  132.8330 H   0  0  0  0  0  0  0  0  0  0  0  0
  141.3553  156.6641  134.2559 H   0  0  0  0  0  0  0  0  0  0  0  0
  141.8440  156.7387  135.9907 H   0  0  0  0  0  0  0  0  0  0  0  0
  140.7984  158.7399  136.0166 H   0  0  0  0  0  0  0  0  0  0  0  0
  142.2628  159.3314  135.1183 H   0  0  0  0  0  0  0  0  0  0  0  0
  139.5375  157.1106  133.4562 H   0  0  0  0  0  0  0  0  0  0  0  0
  139.5214  160.8801  131.5638 H   0  0  0  0  0  0  0  0  0  0  0  0
  145.6440  155.7392  132.9850 H   0  0  0  0  0  0  0  0  0  0  0  0
  1  2  1  0
  2  3  1  0
  3  4  2  0
  4  5  1  0
  5  6  2  0
  6  7  1  0
  7  8  2  0
  8  9  1  0
  9 10  1  0
  9 11  2  0
  8 12  1  0
 12 13  1  0
 13 14  2  0
 13 15  1  0
 15 16  1  0
 16 17  1  0
 17 18  1  0
 18 19  2  0
 19 20  1  0
 20 21  2  0
 21 22  1  0
 12 23  1  0
 23 24  2  0
 24  3  1  0
 23  6  1  0
 22 18  1  0
  1 25  1  0
  1 26  1  0
  1 27  1  0
  2 28  1  0
  4 29  1  0
  5 30  1  0
  7 31  1  0
 10 32  1  0
 10 33  1  0
 16 34  1  0
 16 35  1  0
 17 36  1  0
 17 37  1  0
 19 38  1  0
 21 39  1  0
 24 40  1  0
M  CHG  1  22  -1
M  END
>  <UniqueID>  (33) 
33

>  <SMILES>  (33) 
CNc1ccc2cc(C(N)=O)n(C(=O)OCCc3cnc[n-]3)c2c1

>  <Energy>  (33) 
100.84257524051122

>  <Genealogy>  (33) 
CNc1ccc2cc(C(N)=O)n(C(=O)OCCc3cnc[n-]3)c2c1 (protonated)
CNc1ccc2cc(C(N)=O)n(C(=O)OCCc3cnc[n-]3)c2c1 (3D coordinates assigned)
CNc1ccc2cc(C(N)=O)n(C(=O)OCCc3cnc[n-]3)c2c1 (optimized conformer: 100.84257524051122 kcal/mol)

>  <smiles>  (33) 
CNc1ccc2cc(C(N)=O)n(C(=O)OCCc3cnc[nH]3)c2c1

>  <score_type>  (33) 
oracle

>  <origin>  (33) 
adg

>  <m_score__min__energy>  (33) 
-7.0300000000000002

>  <m_primary>  (33) 
energy

$$$$
33:0
     RDKit          3D

 49 52  0  0  0  0  0  0  0  0999 V2000
  143.0080  160.8170  133.5290 N   0  0  0  0  0  0  0  0  0  0  0  0
  144.3990  160.9700  133.7980 C   0  0  0  0  0  0  0  0  0  0  0  0
  144.8180  162.0440  134.3010 O   0  0  0  0  0  0  0  0  0  0  0  0
  145.3400  159.8950  133.4310 C   0  0  0  0  0  0  0  0  0  0  0  0
  146.7040  160.1120  133.2440 C   0  0  0  0  0  0  0  0  0  0  0  0
  147.2540  158.8610  133.0930 C   0  0  0  0  0  0  0  0  0  0  0  0
  148.5770  158.4840  132.8910 C   0  0  0  0  0  0  0  0  0  0  0  0
  148.8610  157.1140  132.7670 C   0  0  0  0  0  0  0  0  0  0  0  0
  147.8260  156.1450  132.8510 C   0  0  0  0  0  0  0  0  0  0  0  0
  148.1250  154.7000  132.7010 C   0  0  0  0  0  0  0  0  0  0  0  0
  149.3160  154.1940  132.2960 N   0  0  0  0  0  0  0  0  0  0  0  0
  149.3230  152.8360  132.2440 C   0  0  0  0  0  0  0  0  0  0  0  0
  148.1280  152.2290  132.6070 C   0  0  0  0  0  0  0  0  0  0  0  0
  147.0390  153.4460  133.0090 S   0  0  0  0  0  0  0  0  0  0  0  0
  146.4950  156.5730  133.0620 C   0  0  0  0  0  0  0  0  0  0  0  0
  146.2400  157.9440  133.1810 C   0  0  0  0  0  0  0  0  0  0  0  0
  145.0520  158.5620  133.3640 N   0  0  0  0  0  0  0  0  0  0  0  0
  143.7650  157.9150  133.4360 C   0  0  0  0  0  0  0  0  0  0  0  0
  143.2070  157.5470  132.3670 O   0  0  0  0  0  0  0  0  0  0  0  0
  143.0850  157.6220  134.7620 C   0  0  1  0  0  0  0  0  0  0  0  0
  142.5580  158.8010  135.3570 O   0  0  0  0  0  0  0  0  0  0  0  0
  141.1910  159.1030  135.0840 C   0  0  2  0  0  0  0  0  0  0  0  0
  140.3710  158.9610  136.3770 C   0  0  0  0  0  0  0  0  0  0  0  0
  141.1410  158.3440  137.3720 O   0  0  0  0  0  0  0  0  0  0  0  0
  140.5450  158.3420  133.8940 C   0  0  1  0  0  0  0  0  0  0  0  0
  141.0500  158.8370  132.6820 O   0  0  0  0  0  0  0  0  0  0  0  0
  140.7690  156.8170  133.9810 C   0  0  1  0  0  0  0  0  0  0  0  0
  140.7670  156.2460  132.6960 O   0  0  0  0  0  0  0  0  0  0  0  0
  142.0820  156.4450  134.7080 C   0  0  2  0  0  0  0  0  0  0  0  0
  141.8080  156.0330  136.0240 O   0  0  0  0  0  0  0  0  0  0  0  0
  142.5770  159.8700  133.4510 H   0  0  0  0  0  0  0  0  0  0  0  0
  147.2288  161.0785  133.2219 H   0  0  0  0  0  0  0  0  0  0  0  0
  149.3773  159.2362  132.8301 H   0  0  0  0  0  0  0  0  0  0  0  0
  149.8984  156.7873  132.6027 H   0  0  0  0  0  0  0  0  0  0  0  0
  150.1590  154.7650  132.0700 H   0  0  0  0  0  0  0  0  0  0  0  0
  150.2090  152.2607  131.9373 H   0  0  0  0  0  0  0  0  0  0  0  0
  147.9294  151.1473  132.6279 H   0  0  0  0  0  0  0  0  0  0  0  0
  145.6756  155.8424  133.1313 H   0  0  0  0  0  0  0  0  0  0  0  0
  143.8739  157.2609  135.4382 H   0  0  0  0  0  0  0  0  0  0  0  0
  141.1789  160.1459  134.7344 H   0  0  0  0  0  0  0  0  0  0  0  0
  140.0618  159.9584  136.7228 H   0  0  0  0  0  0  0  0  0  0  0  0
  139.4841  158.3428  136.1740 H   0  0  0  0  0  0  0  0  0  0  0  0
  141.9580  158.0070  136.9200 H   0  0  0  0  0  0  0  0  0  0  0  0
  139.4595  158.5130  133.9426 H   0  0  0  0  0  0  0  0  0  0  0  0
  141.7060  158.1720  132.3440 H   0  0  0  0  0  0  0  0  0  0  0  0
  139.9356  156.4124  134.5741 H   0  0  0  0  0  0  0  0  0  0  0  0
  141.4490  156.7330  132.1630 H   0  0  0  0  0  0  0  0  0  0  0  0
  142.5387  155.6279  134.1302 H   0  0  0  0  0  0  0  0  0  0  0  0
  142.1800  156.7290  136.6290 H   0  0  0  0  0  0  0  0  0  0  0  0
  1  2  1  0
  2  3  2  0
  2  4  1  0
  4  5  2  0
  5  6  1  0
  6  7  2  0
  7  8  1  0
  8  9  2  0
  9 10  1  0
 10 11  2  0
 11 12  1  0
 12 13  2  0
 13 14  1  0
  9 15  1  0
 15 16  2  0
 16 17  1  0
 17 18  1  0
 18 19  2  0
 18 20  1  0
 20 21  1  0
 21 22  1  0
 22 23  1  0
 23 24  1  0
 22 25  1  0
 25 26  1  0
 25 27  1  0
 27 28  1  0
 27 29  1  0
 29 30  1  0
 17  4  1  0
 29 20  1  0
 16  6  1  0
 14 10  1  0
  1 31  1  0
  5 32  1  0
  7 33  1  0
  8 34  1  0
 11 35  1  0
 12 36  1  0
 13 37  1  0
 15 38  1  0
 20 39  1  1
 22 40  1  6
 23 41  1  0
 23 42  1  0
 24 43  1  0
 25 44  1  6
 26 45  1  0
 27 46  1  1
 28 47  1  0
 29 48  1  6
 30 49  1  0
M  CHG  2   1  -1  11   1
M  END
>  <UniqueID>  (34) 
34

>  <SMILES>  (34) 
[NH-]C(=O)c1cc2ccc(-c3[nH+]ccs3)cc2n1C(=O)[C@H]1O[C@H](CO)[C@@H](O)[C@@H](O)[C@@H]1O

>  <Energy>  (34) 
140.1970172022806

>  <Genealogy>  (34) 
[NH-]C(=O)c1cc2ccc(-c3[nH+]ccs3)cc2n1C(=O)[C@H]1O[C@H](CO)[C@@H](O)C(O)[C@@H]1O (protonated)
[NH-]C(=O)c1cc2ccc(-c3[nH+]ccs3)cc2n1C(=O)[C@H]1O[C@H](CO)[C@@H](O)[C@@H](O)[C@@H]1O (chirality)
[NH-]C(=O)c1cc2ccc(-c3[nH+]ccs3)cc2n1C(=O)[C@H]1O[C@H](CO)[C@@H](O)[C@@H](O)[C@@H]1O (3D coordinates assigned)
[NH-]C(=O)c1cc2ccc(-c3[nH+]ccs3)cc2n1C(=O)[C@H]1O[C@H](CO)[C@@H](O)[C@@H](O)[C@@H]1O (nonaromatic ring conformer: 140.1970172022806 kcal/mol)

>  <smiles>  (34) 
NC(=O)c1cc2ccc(-c3nccs3)cc2n1C(=O)[C@H]1O[C@H](CO)[C@@H](O)C(O)[C@@H]1O

>  <score_type>  (34) 
oracle

>  <origin>  (34) 
adg

>  <m_score__min__energy>  (34) 
-6.8200000000000003

>  <m_primary>  (34) 
energy

$$$$
34:0
     RDKit          3D

 38 40  0  0  0  0  0  0  0  0999 V2000
  142.9540  160.3660  133.2890 N   0  0  0  0  0  0  0  0  0  0  0  0
  144.2990  160.5850  133.7120 C   0  0  0  0  0  0  0  0  0  0  0  0
  144.6160  161.6940  134.2160 O   0  0  0  0  0  0  0  0  0  0  0  0
  145.3010  159.5070  133.5640 C   0  0  0  0  0  0  0  0  0  0  0  0
  146.6780  159.7230  133.5120 C   0  0  0  0  0  0  0  0  0  0  0  0
  147.2350  158.4780  133.3200 C   0  0  0  0  0  0  0  0  0  0  0  0
  148.5670  158.0980  133.2050 C   0  0  0  0  0  0  0  0  0  0  0  0
  148.8500  156.7330  133.0300 C   0  0  0  0  0  0  0  0  0  0  0  0
  147.8050  155.7750  132.9670 C   0  0  0  0  0  0  0  0  0  0  0  0
  148.1250  154.3060  132.8410 C   0  0  0  0  0  0  0  0  0  0  0  0
  149.0940  154.0950  131.8740 F   0  0  0  0  0  0  0  0  0  0  0  0
  148.5970  153.8080  134.0420 F   0  0  0  0  0  0  0  0  0  0  0  0
  146.9790  153.6190  132.4870 F   0  0  0  0  0  0  0  0  0  0  0  0
  146.4640  156.2000  133.1170 C   0  0  0  0  0  0  0  0  0  0  0  0
  146.2130  157.5670  133.2660 C   0  0  0  0  0  0  0  0  0  0  0  0
  145.0240  158.1840  133.4120 N   0  0  0  0  0  0  0  0  0  0  0  0
  143.7330  157.5630  133.3760 C   0  0  0  0  0  0  0  0  0  0  0  0
  143.1090  157.4890  132.2830 O   0  0  0  0  0  0  0  0  0  0  0  0
  143.1400  157.0030  134.6370 C   0  0  0  0  0  0  0  0  0  0  0  0
  142.1110  157.8890  135.1800 N   0  0  0  0  0  0  0  0  0  0  0  0
  142.1620  158.3850  136.4080 N   0  0  0  0  0  0  0  0  0  0  0  0
  141.0310  159.0910  136.6100 C   0  0  0  0  0  0  0  0  0  0  0  0
  140.2330  159.0310  135.4810 C   0  0  0  0  0  0  0  0  0  0  0  0
  140.9530  158.2610  134.5900 C   0  0  0  0  0  0  0  0  0  0  0  0
  140.4960  157.8580  133.2160 C   0  0  0  0  0  0  0  0  0  0  0  0
  140.7430  158.8890  132.3030 O   0  0  0  0  0  0  0  0  0  0  0  0
  142.7240  159.6170  132.5980 H   0  0  0  0  0  0  0  0  0  0  0  0
  147.2066  160.6832  133.6046 H   0  0  0  0  0  0  0  0  0  0  0  0
  149.3749  158.8432  133.2496 H   0  0  0  0  0  0  0  0  0  0  0  0
  149.8954  156.4025  132.9406 H   0  0  0  0  0  0  0  0  0  0  0  0
  145.6390  155.4725  133.1164 H   0  0  0  0  0  0  0  0  0  0  0  0
  142.6899  156.0237  134.4170 H   0  0  0  0  0  0  0  0  0  0  0  0
  143.9419  156.9042  135.3834 H   0  0  0  0  0  0  0  0  0  0  0  0
  140.7803  159.6333  137.5336 H   0  0  0  0  0  0  0  0  0  0  0  0
  139.2466  159.4931  135.3280 H   0  0  0  0  0  0  0  0  0  0  0  0
  141.0414  156.9559  132.9017 H   0  0  0  0  0  0  0  0  0  0  0  0
  139.4155  157.6534  133.2427 H   0  0  0  0  0  0  0  0  0  0  0  0
  141.7270  158.9560  132.2140 H   0  0  0  0  0  0  0  0  0  0  0  0
  1  2  1  0
  2  3  2  0
  2  4  1  0
  4  5  2  0
  5  6  1  0
  6  7  2  0
  7  8  1  0
  8  9  2  0
  9 10  1  0
 10 11  1  0
 10 12  1  0
 10 13  1  0
  9 14  1  0
 14 15  2  0
 15 16  1  0
 16 17  1  0
 17 18  2  0
 17 19  1  0
 19 20  1  0
 20 21  1  0
 21 22  2  0
 22 23  1  0
 23 24  2  0
 24 25  1  0
 25 26  1  0
 16  4  1  0
 24 20  1  0
 15  6  1  0
  1 27  1  0
  5 28  1  0
  7 29  1  0
  8 30  1  0
 14 31  1  0
 19 32  1  0
 19 33  1  0
 22 34  1  0
 23 35  1  0
 25 36  1  0
 25 37  1  0
 26 38  1  0
M  CHG  1   1  -1
M  END
>  <UniqueID>  (35) 
35

>  <SMILES>  (35) 
[NH-]C(=O)c1cc2ccc(C(F)(F)F)cc2n1C(=O)Cn1nccc1CO

>  <Energy>  (35) 
108.85138935984496

>  <Genealogy>  (35) 
[NH-]C(=O)c1cc2ccc(C(F)(F)F)cc2n1C(=O)Cn1nccc1CO (protonated)
[NH-]C(=O)c1cc2ccc(C(F)(F)F)cc2n1C(=O)Cn1nccc1CO (3D coordinates assigned)
[NH-]C(=O)c1cc2ccc(C(F)(F)F)cc2n1C(=O)Cn1nccc1CO (optimized conformer: 108.85138935984496 kcal/mol)

>  <smiles>  (35) 
NC(=O)c1cc2ccc(C(F)(F)F)cc2n1C(=O)Cn1nccc1CO

>  <score_type>  (35) 
oracle

>  <origin>  (35) 
adg

>  <m_score__min__energy>  (35) 
-6.1699999999999999

>  <m_primary>  (35) 
energy

$$$$
35:0
     RDKit          3D

 30 31  0  0  0  0  0  0  0  0999 V2000
  146.7420  160.7480  133.2020 N   0  0  0  0  0  0  0  0  0  0  0  0
  145.8080  159.6870  133.4080 C   0  0  0  0  0  0  0  0  0  0  0  0
  144.5990  159.9650  133.6230 O   0  0  0  0  0  0  0  0  0  0  0  0
  146.2230  158.2720  133.3250 C   0  0  0  0  0  0  0  0  0  0  0  0
  145.3350  157.2020  133.4340 C   0  0  0  0  0  0  0  0  0  0  0  0
  146.1000  156.0740  133.2480 C   0  0  0  0  0  0  0  0  0  0  0  0
  145.7360  154.7310  133.2530 C   0  0  0  0  0  0  0  0  0  0  0  0
  146.7450  153.7730  133.0580 C   0  0  0  0  0  0  0  0  0  0  0  0
  148.0990  154.1680  132.8880 C   0  0  0  0  0  0  0  0  0  0  0  0
  149.1700  153.1370  132.6400 C   0  0  0  0  0  0  0  0  0  0  0  0
  149.4200  152.4110  133.7920 F   0  0  0  0  0  0  0  0  0  0  0  0
  150.3330  153.7730  132.2470 F   0  0  0  0  0  0  0  0  0  0  0  0
  148.7820  152.2520  131.6470 F   0  0  0  0  0  0  0  0  0  0  0  0
  148.4240  155.5440  132.8660 C   0  0  0  0  0  0  0  0  0  0  0  0
  147.3950  156.4750  133.0450 C   0  0  0  0  0  0  0  0  0  0  0  0
  147.4880  157.8210  133.0930 N   0  0  0  0  0  0  0  0  0  0  0  0
  148.7030  158.5870  133.0260 C   0  0  0  0  0  0  0  0  0  0  0  0
  149.0260  159.3290  133.9920 O   0  0  0  0  0  0  0  0  0  0  0  0
  149.5580  158.5670  131.7940 C   0  0  0  0  0  0  0  0  0  0  0  0
  149.4960  159.8940  131.1090 C   0  0  0  0  0  0  0  0  0  0  0  0
  148.7850  160.8200  131.5810 O   0  0  0  0  0  0  0  0  0  0  0  0
  150.2630  160.1280  129.9740 O   0  0  0  0  0  0  0  0  0  0  0  0
  147.7020  160.5610  132.8370 H   0  0  0  0  0  0  0  0  0  0  0  0
  146.4440  161.7400  133.3350 H   0  0  0  0  0  0  0  0  0  0  0  0
  144.2532  157.2499  133.6275 H   0  0  0  0  0  0  0  0  0  0  0  0
  144.6894  154.4284  133.4051 H   0  0  0  0  0  0  0  0  0  0  0  0
  146.4836  152.7047  133.0367 H   0  0  0  0  0  0  0  0  0  0  0  0
  149.4617  155.8748  132.7117 H   0  0  0  0  0  0  0  0  0  0  0  0
  150.5990  158.3507  132.0762 H   0  0  0  0  0  0  0  0  0  0  0  0
  149.1884  157.7891  131.1098 H   0  0  0  0  0  0  0  0  0  0  0  0
  1  2  1  0
  2  3  2  0
  2  4  1  0
  4  5  2  0
  5  6  1  0
  6  7  2  0
  7  8  1  0
  8  9  2  0
  9 10  1  0
 10 11  1  0
 10 12  1  0
 10 13  1  0
  9 14  1  0
 14 15  2  0
 15 16  1  0
 16 17  1  0
 17 18  2  0
 17 19  1  0
 19 20  1  0
 20 21  2  0
 20 22  1  0
 16  4  1  0
 15  6  1  0
  1 23  1  0
  1 24  1  0
  5 25  1  0
  7 26  1  0
  8 27  1  0
 14 28  1  0
 19 29  1  0
 19 30  1  0
M  CHG  1  22  -1
M  END
>  <UniqueID>  (36) 
36

>  <SMILES>  (36) 
NC(=O)c1cc2ccc(C(F)(F)F)cc2n1C(=O)CC(=O)[O-]

>  <Energy>  (36) 
69.44549801676641

>  <Genealogy>  (36) 
NC(=O)c1cc2ccc(C(F)(F)F)cc2n1C(=O)CC(=O)[O-] (protonated)
NC(=O)c1cc2ccc(C(F)(F)F)cc2n1C(=O)CC(=O)[O-] (3D coordinates assigned)
NC(=O)c1cc2ccc(C(F)(F)F)cc2n1C(=O)CC(=O)[O-] (optimized conformer: 69.44549801676641 kcal/mol)

>  <smiles>  (36) 
NC(=O)c1cc2ccc(C(F)(F)F)cc2n1C(=O)CC(=O)O

>  <score_type>  (36) 
oracle

>  <origin>  (36) 
adg

>  <m_score__min__energy>  (36) 
-6.0199999999999996

>  <m_primary>  (36) 
energy

$$$$
36:0
     RDKit          3D

 35 36  0  0  0  0  0  0  0  0999 V2000
  149.7220  151.4680  133.0690 C   0  0  0  0  0  0  0  0  0  0  0  0
  148.5870  152.2450  133.3780 O   0  0  0  0  0  0  0  0  0  0  0  0
  148.3370  153.1800  132.3460 C   0  0  0  0  0  0  0  0  0  0  0  0
  149.0070  154.4980  132.6260 C   0  0  0  0  0  0  0  0  0  0  0  0
  150.2050  154.6640  132.2750 O   0  0  0  0  0  0  0  0  0  0  0  0
  148.3210  155.5520  133.3200 N   0  0  0  0  0  0  0  0  0  0  0  0
  147.5030  155.4570  134.4050 C   0  0  0  0  0  0  0  0  0  0  0  0
  147.0090  154.2030  135.0090 C   0  0  0  0  0  0  0  0  0  0  0  0
  146.1020  153.3610  134.3050 N   0  0  0  0  0  0  0  0  0  0  0  0
  147.3610  153.8930  136.1780 O   0  0  0  0  0  0  0  0  0  0  0  0
  147.1250  156.7260  134.8420 C   0  0  0  0  0  0  0  0  0  0  0  0
  147.7350  157.6060  133.9770 C   0  0  0  0  0  0  0  0  0  0  0  0
  147.7090  158.9980  133.9440 C   0  0  0  0  0  0  0  0  0  0  0  0
  148.4540  159.6470  132.9450 C   0  0  0  0  0  0  0  0  0  0  0  0
  149.2150  158.9000  132.0110 C   0  0  0  0  0  0  0  0  0  0  0  0
  149.9920  159.6030  130.9290 C   0  0  0  0  0  0  0  0  0  0  0  0
  149.1540  160.6950  130.2580 C   0  0  0  0  0  0  0  0  0  0  0  0
  149.7820  161.9430  130.3730 O   0  0  0  0  0  0  0  0  0  0  0  0
  149.2090  157.4890  132.0700 C   0  0  0  0  0  0  0  0  0  0  0  0
  148.4490  156.8720  133.0680 C   0  0  0  0  0  0  0  0  0  0  0  0
  150.2048  151.1375  134.0005 H   0  0  0  0  0  0  0  0  0  0  0  0
  149.4161  150.5890  132.4827 H   0  0  0  0  0  0  0  0  0  0  0  0
  150.4308  152.0712  132.4827 H   0  0  0  0  0  0  0  0  0  0  0  0
  148.7214  152.7774  131.3973 H   0  0  0  0  0  0  0  0  0  0  0  0
  147.2516  153.3487  132.2868 H   0  0  0  0  0  0  0  0  0  0  0  0
  146.4410  152.5140  133.7950 H   0  0  0  0  0  0  0  0  0  0  0  0
  146.4771  156.9716  135.6963 H   0  0  0  0  0  0  0  0  0  0  0  0
  147.1233  159.5717  134.6774 H   0  0  0  0  0  0  0  0  0  0  0  0
  148.4466  160.7455  132.8871 H   0  0  0  0  0  0  0  0  0  0  0  0
  150.8882  160.0615  131.3724 H   0  0  0  0  0  0  0  0  0  0  0  0
  150.2697  158.8617  130.1652 H   0  0  0  0  0  0  0  0  0  0  0  0
  149.0288  160.4507  129.1928 H   0  0  0  0  0  0  0  0  0  0  0  0
  148.1745  160.7450  130.7560 H   0  0  0  0  0  0  0  0  0  0  0  0
  150.7030  161.7720  130.7010 H   0  0  0  0  0  0  0  0  0  0  0  0
  149.7870  156.8913  131.3498 H   0  0  0  0  0  0  0  0  0  0  0  0
  1  2  1  0
  2  3  1  0
  3  4  1  0
  4  5  2  0
  4  6  1  0
  6  7  1  0
  7  8  1  0
  8  9  1  0
  8 10  2  0
  7 11  2  0
 11 12  1  0
 12 13  2  0
 13 14  1  0
 14 15  2  0
 15 16  1  0
 16 17  1  0
 17 18  1  0
 15 19  1  0
 19 20  2  0
 20  6  1  0
 20 12  1  0
  1 21  1  0
  1 22  1  0
  1 23  1  0
  3 24  1  0
  3 25  1  0
  9 26  1  0
 11 27  1  0
 13 28  1  0
 14 29  1  0
 16 30  1  0
 16 31  1  0
 17 32  1  0
 17 33  1  0
 18 34  1  0
 19 35  1  0
M  CHG  1   9  -1
M  END
>  <UniqueID>  (37) 
37

>  <SMILES>  (37) 
COCC(=O)n1c(C([NH-])=O)cc2ccc(CCO)cc21

>  <Energy>  (37) 
73.81853614635956

>  <Genealogy>  (37) 
COCC(=O)n1c(C([NH-])=O)cc2ccc(CCO)cc21 (protonated)
COCC(=O)n1c(C([NH-])=O)cc2ccc(CCO)cc21 (3D coordinates assigned)
COCC(=O)n1c(C([NH-])=O)cc2ccc(CCO)cc21 (optimized conformer: 73.81853614635956 kcal/mol)

>  <smiles>  (37) 
COCC(=O)n1c(C(N)=O)cc2ccc(CCO)cc21

>  <score_type>  (37) 
oracle

>  <origin>  (37) 
adg

>  <m_score__min__energy>  (37) 
-6.3399999999999999

>  <m_primary>  (37) 
energy

$$$$
37:0
     RDKit          3D

 38 39  0  0  0  0  0  0  0  0999 V2000
  141.2730  159.0930  135.9930 C   0  0  0  0  0  0  0  0  0  0  0  0
  141.6840  158.4350  134.6700 C   0  0  1  0  0  0  0  0  0  0  0  0
  140.6380  158.6560  133.6090 C   0  0  0  0  0  0  0  0  0  0  0  0
  140.2820  159.7880  133.3250 O   0  0  0  0  0  0  0  0  0  0  0  0
  143.0320  158.9560  134.2160 C   0  0  0  0  0  0  0  0  0  0  0  0
  143.2710  160.3520  134.1100 C   0  0  0  0  0  0  0  0  0  0  0  0
  144.5200  160.8370  133.6910 C   0  0  0  0  0  0  0  0  0  0  0  0
  145.5150  159.9100  133.3980 C   0  0  0  0  0  0  0  0  0  0  0  0
  146.7990  160.1080  132.9430 C   0  0  0  0  0  0  0  0  0  0  0  0
  147.3400  158.8320  132.8110 C   0  0  0  0  0  0  0  0  0  0  0  0
  148.7370  158.5790  132.4030 C   0  0  0  0  0  0  0  0  0  0  0  0
  149.1350  157.3170  131.8660 N   0  0  0  0  0  0  0  0  0  0  0  0
  149.6050  159.4740  132.5830 O   0  0  0  0  0  0  0  0  0  0  0  0
  146.4260  157.8820  133.1560 N   0  0  0  0  0  0  0  0  0  0  0  0
  146.5670  156.4560  133.0520 C   0  0  0  0  0  0  0  0  0  0  0  0
  145.7590  155.7950  132.3430 O   0  0  0  0  0  0  0  0  0  0  0  0
  147.5960  155.8050  133.7420 O   0  0  0  0  0  0  0  0  0  0  0  0
  147.5630  154.4220  134.0820 C   0  0  0  0  0  0  0  0  0  0  0  0
  148.3280  153.5970  133.0500 C   0  0  0  0  0  0  0  0  0  0  0  0
  148.4810  154.3420  131.8740 O   0  0  0  0  0  0  0  0  0  0  0  0
  145.3130  158.5590  133.5170 C   0  0  0  0  0  0  0  0  0  0  0  0
  144.0710  158.0470  133.9120 C   0  0  0  0  0  0  0  0  0  0  0  0
  141.6487  158.4916  136.8339 H   0  0  0  0  0  0  0  0  0  0  0  0
  141.6995  160.1055  136.0470 H   0  0  0  0  0  0  0  0  0  0  0  0
  140.1760  159.1539  136.0470 H   0  0  0  0  0  0  0  0  0  0  0  0
  141.7695  157.3511  134.8368 H   0  0  0  0  0  0  0  0  0  0  0  0
  140.1938  157.7946  133.0888 H   0  0  0  0  0  0  0  0  0  0  0  0
  142.4681  161.0614  134.3591 H   0  0  0  0  0  0  0  0  0  0  0  0
  144.7062  161.9171  133.5972 H   0  0  0  0  0  0  0  0  0  0  0  0
  147.2917  161.0680  132.7296 H   0  0  0  0  0  0  0  0  0  0  0  0
  150.1170  157.1720  131.5430 H   0  0  0  0  0  0  0  0  0  0  0  0
  148.4850  156.5020  131.8650 H   0  0  0  0  0  0  0  0  0  0  0  0
  148.0240  154.2816  135.0708 H   0  0  0  0  0  0  0  0  0  0  0  0
  146.5158  154.0858  134.0994 H   0  0  0  0  0  0  0  0  0  0  0  0
  149.3190  153.3372  133.4505 H   0  0  0  0  0  0  0  0  0  0  0  0
  147.7676  152.6765  132.8294 H   0  0  0  0  0  0  0  0  0  0  0  0
  147.6330  154.8430  131.7540 H   0  0  0  0  0  0  0  0  0  0  0  0
  143.9075  156.9616  133.9841 H   0  0  0  0  0  0  0  0  0  0  0  0
  1  2  1  0
  2  3  1  0
  3  4  2  0
  2  5  1  0
  5  6  2  0
  6  7  1  0
  7  8  2  0
  8  9  1  0
  9 10  2  0
 10 11  1  0
 11 12  1  0
 11 13  2  0
 10 14  1  0
 14 15  1  0
 15 16  2  0
 15 17  1  0
 17 18  1  0
 18 19  1  0
 19 20  1  0
 14 21  1  0
 21 22  2  0
 22  5  1  0
 21  8  1  0
  1 23  1  0
  1 24  1  0
  1 25  1  0
  2 26  1  1
  3 27  1  0
  6 28  1  0
  7 29  1  0
  9 30  1  0
 12 31  1  0
 12 32  1  0
 18 33  1  0
 18 34  1  0
 19 35  1  0
 19 36  1  0
 20 37  1  0
 22 38  1  0
M  END
>  <UniqueID>  (38) 
38

>  <SMILES>  (38) 
C[C@@H](C=O)c1ccc2cc(C(N)=O)n(C(=O)OCCO)c2c1

>  <Energy>  (38) 
70.74418030826506

>  <Genealogy>  (38) 
C[C@@H](C=O)c1ccc2cc(C(N)=O)n(C(=O)OCCO)c2c1 (chirality)
C[C@@H](C=O)c1ccc2cc(C(N)=O)n(C(=O)OCCO)c2c1 (3D coordinates assigned)
C[C@@H](C=O)c1ccc2cc(C(N)=O)n(C(=O)OCCO)c2c1 (optimized conformer: 70.74418030826506 kcal/mol)

>  <smiles>  (38) 
CC(C=O)c1ccc2cc(C(N)=O)n(C(=O)OCCO)c2c1

>  <score_type>  (38) 
oracle

>  <origin>  (38) 
adg

>  <m_score__min__energy>  (38) 
-6.9000000000000004

>  <m_primary>  (38) 
energy

$$$$
38:0
     RDKit          3D

 49 51  0  0  0  0  0  0  0  0999 V2000
  142.5840  159.9630  133.4710 N   0  0  0  0  0  0  0  0  0  0  0  0
  143.9460  160.3010  133.7010 C   0  0  0  0  0  0  0  0  0  0  0  0
  144.2390  161.4770  134.0360 O   0  0  0  0  0  0  0  0  0  0  0  0
  145.0220  159.3060  133.5040 C   0  0  0  0  0  0  0  0  0  0  0  0
  146.3790  159.6130  133.5780 C   0  0  0  0  0  0  0  0  0  0  0  0
  147.0360  158.4470  133.2530 C   0  0  0  0  0  0  0  0  0  0  0  0
  148.3990  158.1770  133.1810 C   0  0  0  0  0  0  0  0  0  0  0  0
  148.7960  156.8700  132.8480 C   0  0  0  0  0  0  0  0  0  0  0  0
  147.8300  155.8570  132.6010 C   0  0  0  0  0  0  0  0  0  0  0  0
  148.2110  154.5060  132.2770 N   0  0  0  0  0  0  0  0  0  0  0  0
  148.4600  153.4580  133.2630 C   0  0  0  0  0  0  0  0  0  0  0  0
  149.6730  152.8380  133.0060 F   0  0  0  0  0  0  0  0  0  0  0  0
  148.4650  153.9970  134.5370 F   0  0  0  0  0  0  0  0  0  0  0  0
  146.4570  156.1780  132.6810 C   0  0  0  0  0  0  0  0  0  0  0  0
  146.0910  157.4890  132.9990 C   0  0  0  0  0  0  0  0  0  0  0  0
  144.8500  157.9990  133.1510 N   0  0  0  0  0  0  0  0  0  0  0  0
  143.6230  157.2650  133.0390 C   0  0  0  0  0  0  0  0  0  0  0  0
  142.8430  157.4880  132.0730 O   0  0  0  0  0  0  0  0  0  0  0  0
  143.2940  156.3220  134.0190 O   0  0  0  0  0  0  0  0  0  0  0  0
  142.4200  156.5940  135.1140 C   0  0  1  0  0  0  0  0  0  0  0  0
  142.8060  157.7840  135.7080 F   0  0  0  0  0  0  0  0  0  0  0  0
  141.0120  156.7100  134.6100 C   0  0  0  0  0  0  0  0  0  0  0  0
  140.0900  157.0310  135.4110 O   0  0  0  0  0  0  0  0  0  0  0  0
  140.7330  156.5190  133.2130 N   0  0  0  0  0  0  0  0  0  0  0  0
  139.3960  156.6880  132.6400 C   0  0  0  0  0  0  0  0  0  0  0  0
  139.0380  158.1820  132.5550 C   0  0  2  0  0  0  0  0  0  0  0  0
  138.6290  158.6000  131.1520 C   0  0  0  0  0  0  0  0  0  0  0  0
  138.9800  160.0720  131.0850 C   0  0  0  0  0  0  0  0  0  0  0  0
  139.9220  160.3180  132.2610 C   0  0  0  0  0  0  0  0  0  0  0  0
  140.1570  159.0420  132.9410 N   0  0  0  0  0  0  0  0  0  0  0  0
  142.2910  159.4820  132.5940 H   0  0  0  0  0  0  0  0  0  0  0  0
  146.8300  160.5814  133.8404 H   0  0  0  0  0  0  0  0  0  0  0  0
  149.1434  158.9623  133.3786 H   0  0  0  0  0  0  0  0  0  0  0  0
  149.8669  156.6285  132.7778 H   0  0  0  0  0  0  0  0  0  0  0  0
  148.3110  154.2440  131.2680 H   0  0  0  0  0  0  0  0  0  0  0  0
  147.6569  152.7094  133.1945 H   0  0  0  0  0  0  0  0  0  0  0  0
  145.6903  155.4110  132.4966 H   0  0  0  0  0  0  0  0  0  0  0  0
  142.4720  155.7789  135.8508 H   0  0  0  0  0  0  0  0  0  0  0  0
  141.4940  156.1760  132.5880 H   0  0  0  0  0  0  0  0  0  0  0  0
  139.3758  156.2517  131.6304 H   0  0  0  0  0  0  0  0  0  0  0  0
  138.6632  156.1799  133.2840 H   0  0  0  0  0  0  0  0  0  0  0  0
  138.1967  158.3070  133.2526 H   0  0  0  0  0  0  0  0  0  0  0  0
  139.1899  158.0305  130.3963 H   0  0  0  0  0  0  0  0  0  0  0  0
  137.5643  158.4114  130.9500 H   0  0  0  0  0  0  0  0  0  0  0  0
  139.4821  160.3051  130.1344 H   0  0  0  0  0  0  0  0  0  0  0  0
  138.0847  160.7089  131.1378 H   0  0  0  0  0  0  0  0  0  0  0  0
  140.8760  160.7244  131.8939 H   0  0  0  0  0  0  0  0  0  0  0  0
  139.4741  161.0408  132.9588 H   0  0  0  0  0  0  0  0  0  0  0  0
  141.0440  158.6400  132.5510 H   0  0  0  0  0  0  0  0  0  0  0  0
  1  2  1  0
  2  3  2  0
  2  4  1  0
  4  5  2  0
  5  6  1  0
  6  7  2  0
  7  8  1  0
  8  9  2  0
  9 10  1  0
 10 11  1  0
 11 12  1  0
 11 13  1  0
  9 14  1  0
 14 15  2  0
 15 16  1  0
 16 17  1  0
 17 18  2  0
 17 19  1  0
 19 20  1  0
 20 21  1  0
 20 22  1  0
 22 23  2  0
 22 24  1  0
 24 25  1  0
 25 26  1  0
 26 27  1  0
 27 28  1  0
 28 29  1  0
 29 30  1  0
 16  4  1  0
 30 26  1  0
 15  6  1  0
  1 31  1  0
  5 32  1  0
  7 33  1  0
  8 34  1  0
 10 35  1  0
 11 36  1  0
 14 37  1  0
 20 38  1  1
 24 39  1  0
 25 40  1  0
 25 41  1  0
 26 42  1  1
 27 43  1  0
 27 44  1  0
 28 45  1  0
 28 46  1  0
 29 47  1  0
 29 48  1  0
 30 49  1  0
M  CHG  1   1  -1
M  END
>  <UniqueID>  (39) 
39

>  <SMILES>  (39) 
[NH-]C(=O)c1cc2ccc(NC(F)F)cc2n1C(=O)O[C@@H](F)C(=O)NC[C@@H]1CCCN1

>  <Energy>  (39) 
84.63806259505928

>  <Genealogy>  (39) 
[NH-]C(=O)c1cc2ccc(NC(F)F)cc2n1C(=O)OC(F)C(=O)NC[C@@H]1CCCN1 (protonated)
[NH-]C(=O)c1cc2ccc(NC(F)F)cc2n1C(=O)O[C@@H](F)C(=O)NC[C@@H]1CCCN1 (chirality)
[NH-]C(=O)c1cc2ccc(NC(F)F)cc2n1C(=O)O[C@@H](F)C(=O)NC[C@@H]1CCCN1 (3D coordinates assigned)
[NH-]C(=O)c1cc2ccc(NC(F)F)cc2n1C(=O)O[C@@H](F)C(=O)NC[C@@H]1CCCN1 (nonaromatic ring conformer: 84.63806259505928 kcal/mol)

>  <smiles>  (39) 
NC(=O)c1cc2ccc(NC(F)F)cc2n1C(=O)OC(F)C(=O)NC[C@@H]1CCCN1

>  <score_type>  (39) 
oracle

>  <origin>  (39) 
adg

>  <m_score__min__energy>  (39) 
-7.4500000000000002

>  <m_primary>  (39) 
energy

$$$$
39:0
     RDKit          3D

 40 42  0  0  0  0  0  0  0  0999 V2000
  141.7530  154.3220  136.0220 N   0  0  0  0  0  0  0  0  0  0  0  0
  142.4500  155.4090  135.4200 C   0  0  0  0  0  0  0  0  0  0  0  0
  143.6850  155.5450  135.6340 O   0  0  0  0  0  0  0  0  0  0  0  0
  141.7370  156.4070  134.5970 C   0  0  0  0  0  0  0  0  0  0  0  0
  141.9870  157.7760  134.6640 C   0  0  0  0  0  0  0  0  0  0  0  0
  141.0640  158.3560  133.8240 C   0  0  0  0  0  0  0  0  0  0  0  0
  140.8660  159.6960  133.5040 C   0  0  0  0  0  0  0  0  0  0  0  0
  139.8520  160.0090  132.5830 C   0  0  0  0  0  0  0  0  0  0  0  0
  139.0670  158.9850  131.9970 C   0  0  0  0  0  0  0  0  0  0  0  0
  137.9910  159.3270  131.0080 C   0  0  0  0  0  0  0  0  0  0  0  0
  137.2520  160.3990  131.4740 F   0  0  0  0  0  0  0  0  0  0  0  0
  138.5620  159.6550  129.7920 F   0  0  0  0  0  0  0  0  0  0  0  0
  139.2980  157.6360  132.3460 C   0  0  0  0  0  0  0  0  0  0  0  0
  140.3030  157.3540  133.2800 C   0  0  0  0  0  0  0  0  0  0  0  0
  140.7060  156.1510  133.7420 N   0  0  0  0  0  0  0  0  0  0  0  0
  140.2090  154.8700  133.3270 C   0  0  0  0  0  0  0  0  0  0  0  0
  139.0050  154.7450  132.9750 O   0  0  0  0  0  0  0  0  0  0  0  0
  141.0900  153.7410  133.2890 N   0  0  0  0  0  0  0  0  0  0  0  0
  140.7240  152.4460  132.7310 C   0  0  0  0  0  0  0  0  0  0  0  0
  141.2800  151.3400  133.5700 C   0  0  0  0  0  0  0  0  0  0  0  0
  141.3480  151.4760  134.8210 O   0  0  0  0  0  0  0  0  0  0  0  0
  141.7320  150.1350  132.9440 N   0  0  0  0  0  0  0  0  0  0  0  0
  140.9630  148.8970  132.9330 C   0  0  0  0  0  0  0  0  0  0  0  0
  140.0870  148.8480  131.7230 C   0  0  0  0  0  0  0  0  0  0  0  0
  139.2350  149.8520  131.2830 C   0  0  0  0  0  0  0  0  0  0  0  0
  138.5120  149.5390  130.1760 N   0  0  0  0  0  0  0  0  0  0  0  0
  138.7700  148.2880  129.7340 C   0  0  0  0  0  0  0  0  0  0  0  0
  139.9050  147.5200  130.7090 S   0  0  0  0  0  0  0  0  0  0  0  0
  141.3680  153.5430  135.4430 H   0  0  0  0  0  0  0  0  0  0  0  0
  142.7580  158.2849  135.2612 H   0  0  0  0  0  0  0  0  0  0  0  0
  141.4837  160.4850  133.9577 H   0  0  0  0  0  0  0  0  0  0  0  0
  139.6657  161.0593  132.3142 H   0  0  0  0  0  0  0  0  0  0  0  0
  137.3306  158.4569  130.8787 H   0  0  0  0  0  0  0  0  0  0  0  0
  138.7037  156.8273  131.8957 H   0  0  0  0  0  0  0  0  0  0  0  0
  139.6277  152.3615  132.7004 H   0  0  0  0  0  0  0  0  0  0  0  0
  141.1383  152.3656  131.7152 H   0  0  0  0  0  0  0  0  0  0  0  0
  141.6527  148.0402  132.9179 H   0  0  0  0  0  0  0  0  0  0  0  0
  140.3345  148.8552  133.8348 H   0  0  0  0  0  0  0  0  0  0  0  0
  139.1518  150.8243  131.7906 H   0  0  0  0  0  0  0  0  0  0  0  0
  138.2988  147.8314  128.8511 H   0  0  0  0  0  0  0  0  0  0  0  0
  1  2  1  0
  2  3  2  0
  2  4  1  0
  4  5  2  0
  5  6  1  0
  6  7  2  0
  7  8  1  0
  8  9  2  0
  9 10  1  0
 10 11  1  0
 10 12  1  0
  9 13  1  0
 13 14  2  0
 14 15  1  0
 15 16  1  0
 16 17  2  0
 16 18  1  0
 18 19  1  0
 19 20  1  0
 20 21  2  0
 20 22  1  0
 22 23  1  0
 23 24  1  0
 24 25  2  0
 25 26  1  0
 26 27  2  0
 27 28  1  0
 15  4  1  0
 28 24  1  0
 14  6  1  0
  1 29  1  0
  5 30  1  0
  7 31  1  0
  8 32  1  0
 10 33  1  0
 13 34  1  0
 19 35  1  0
 19 36  1  0
 23 37  1  0
 23 38  1  0
 25 39  1  0
 27 40  1  0
M  CHG  3   1  -1  18  -1  22  -1
M  END
>  <UniqueID>  (40) 
40

>  <SMILES>  (40) 
[NH-]C(=O)c1cc2ccc(C(F)F)cc2n1C(=O)[N-]CC(=O)[N-]Cc1cncs1

>  <Energy>  (40) 
102.86334028786845

>  <Genealogy>  (40) 
[NH-]C(=O)c1cc2ccc(C(F)F)cc2n1C(=O)[N-]CC(=O)[N-]Cc1cncs1 (protonated)
[NH-]C(=O)c1cc2ccc(C(F)F)cc2n1C(=O)[N-]CC(=O)[N-]Cc1cncs1 (3D coordinates assigned)
[NH-]C(=O)c1cc2ccc(C(F)F)cc2n1C(=O)[N-]CC(=O)[N-]Cc1cncs1 (optimized conformer: 102.86334028786845 kcal/mol)

>  <smiles>  (40) 
NC(=O)c1cc2ccc(C(F)F)cc2n1C(=O)NCC(=O)NCc1cncs1

>  <score_type>  (40) 
oracle

>  <origin>  (40) 
adg

>  <m_score__min__energy>  (40) 
-7.9000000000000004

>  <m_primary>  (40) 
energy

$$$$
40:0
     RDKit          3D

 42 43  0  0  0  0  0  0  0  0999 V2000
  146.0810  153.4560  133.5910 C   0  0  0  0  0  0  0  0  0  0  0  0
  145.0160  154.3980  134.1540 C   0  0  1  0  0  0  0  0  0  0  0  0
  145.3660  154.8660  135.5810 C   0  0  0  0  0  0  0  0  0  0  0  0
  146.7630  154.4940  135.9810 C   0  0  0  0  0  0  0  0  0  0  0  0
  147.7320  155.2340  135.6660 O   0  0  0  0  0  0  0  0  0  0  0  0
  146.9900  153.3430  136.7250 O   0  0  0  0  0  0  0  0  0  0  0  0
  144.8720  155.5120  133.2720 O   0  0  0  0  0  0  0  0  0  0  0  0
  145.8440  156.5040  133.1000 C   0  0  0  0  0  0  0  0  0  0  0  0
  147.0380  156.1730  132.8730 O   0  0  0  0  0  0  0  0  0  0  0  0
  145.4840  157.8970  133.2320 N   0  0  0  0  0  0  0  0  0  0  0  0
  146.3170  158.9480  133.4800 C   0  0  0  0  0  0  0  0  0  0  0  0
  147.7890  158.9030  133.4990 C   0  0  0  0  0  0  0  0  0  0  0  0
  148.4780  157.8550  134.1800 N   0  0  0  0  0  0  0  0  0  0  0  0
  148.4440  159.7550  132.8440 O   0  0  0  0  0  0  0  0  0  0  0  0
  145.5970  160.1090  133.7330 C   0  0  0  0  0  0  0  0  0  0  0  0
  144.2770  159.7490  133.6010 C   0  0  0  0  0  0  0  0  0  0  0  0
  143.1300  160.5230  133.7250 C   0  0  0  0  0  0  0  0  0  0  0  0
  141.8890  159.9030  133.5160 C   0  0  0  0  0  0  0  0  0  0  0  0
  141.8040  158.5240  133.1760 C   0  0  0  0  0  0  0  0  0  0  0  0
  140.5160  157.8940  132.9440 N   0  0  0  0  0  0  0  0  0  0  0  0
  139.4340  158.6280  132.2770 C   0  0  0  0  0  0  0  0  0  0  0  0
  140.2750  156.5080  133.3710 C   0  0  0  0  0  0  0  0  0  0  0  0
  143.0050  157.7760  133.0600 C   0  0  0  0  0  0  0  0  0  0  0  0
  144.2310  158.4130  133.2960 C   0  0  0  0  0  0  0  0  0  0  0  0
  146.6223  152.9772  134.4203 H   0  0  0  0  0  0  0  0  0  0  0  0
  145.5983  152.6839  132.9739 H   0  0  0  0  0  0  0  0  0  0  0  0
  146.7884  154.0293  132.9739 H   0  0  0  0  0  0  0  0  0  0  0  0
  144.0616  153.8555  134.2240 H   0  0  0  0  0  0  0  0  0  0  0  0
  145.2652  155.9604  135.6280 H   0  0  0  0  0  0  0  0  0  0  0  0
  144.6750  154.3660  136.2757 H   0  0  0  0  0  0  0  0  0  0  0  0
  147.9500  157.0720  134.6250 H   0  0  0  0  0  0  0  0  0  0  0  0
  149.5220  157.8330  134.1960 H   0  0  0  0  0  0  0  0  0  0  0  0
  145.9971  161.1023  133.9847 H   0  0  0  0  0  0  0  0  0  0  0  0
  143.1931  161.5912  133.9797 H   0  0  0  0  0  0  0  0  0  0  0  0
  140.9661  160.4930  133.6167 H   0  0  0  0  0  0  0  0  0  0  0  0
  138.7737  159.0759  133.0342 H   0  0  0  0  0  0  0  0  0  0  0  0
  139.8629  159.4223  131.6485 H   0  0  0  0  0  0  0  0  0  0  0  0
  138.8545  157.9358  131.6485 H   0  0  0  0  0  0  0  0  0  0  0  0
  140.2665  156.4591  134.4699 H   0  0  0  0  0  0  0  0  0  0  0  0
  139.3042  156.1678  132.9813 H   0  0  0  0  0  0  0  0  0  0  0  0
  141.0739  155.8601  132.9813 H   0  0  0  0  0  0  0  0  0  0  0  0
  142.9738  156.7105  132.7885 H   0  0  0  0  0  0  0  0  0  0  0  0
  1  2  1  0
  2  3  1  0
  3  4  1  0
  4  5  2  0
  4  6  1  0
  2  7  1  0
  7  8  1  0
  8  9  2  0
  8 10  1  0
 10 11  1  0
 11 12  1  0
 12 13  1  0
 12 14  2  0
 11 15  2  0
 15 16  1  0
 16 17  2  0
 17 18  1  0
 18 19  2  0
 19 20  1  0
 20 21  1  0
 20 22  1  0
 19 23  1  0
 23 24  2  0
 24 10  1  0
 24 16  1  0
  1 25  1  0
  1 26  1  0
  1 27  1  0
  2 28  1  1
  3 29  1  0
  3 30  1  0
 13 31  1  0
 13 32  1  0
 15 33  1  0
 17 34  1  0
 18 35  1  0
 21 36  1  0
 21 37  1  0
 21 38  1  0
 22 39  1  0
 22 40  1  0
 22 41  1  0
 23 42  1  0
M  CHG  1   6  -1
M  END
>  <UniqueID>  (41) 
41

>  <SMILES>  (41) 
C[C@@H](CC(=O)[O-])OC(=O)n1c(C(N)=O)cc2ccc(N(C)C)cc21

>  <Energy>  (41) 
78.54445888876957

>  <Genealogy>  (41) 
CC(CC(=O)[O-])OC(=O)n1c(C(N)=O)cc2ccc(N(C)C)cc21 (protonated)
C[C@@H](CC(=O)[O-])OC(=O)n1c(C(N)=O)cc2ccc(N(C)C)cc21 (chirality)
C[C@@H](CC(=O)[O-])OC(=O)n1c(C(N)=O)cc2ccc(N(C)C)cc21 (3D coordinates assigned)
C[C@@H](CC(=O)[O-])OC(=O)n1c(C(N)=O)cc2ccc(N(C)C)cc21 (optimized conformer: 78.54445888876957 kcal/mol)

>  <smiles>  (41) 
CC(CC(=O)O)OC(=O)n1c(C(N)=O)cc2ccc(N(C)C)cc21

>  <score_type>  (41) 
oracle

>  <origin>  (41) 
adg

>  <m_score__min__energy>  (41) 
-6.7999999999999998

>  <m_primary>  (41) 
energy

$$$$
41:0
     RDKit          3D

 49 52  0  0  0  0  0  0  0  0999 V2000
  143.0140  159.5250  134.8270 N   0  0  0  0  0  0  0  0  0  0  0  0
  144.1640  159.9720  134.1060 C   0  0  0  0  0  0  0  0  0  0  0  0
  144.2450  161.1830  133.7710 O   0  0  0  0  0  0  0  0  0  0  0  0
  145.2310  159.0210  133.7220 C   0  0  0  0  0  0  0  0  0  0  0  0
  146.5030  159.4080  133.3030 C   0  0  0  0  0  0  0  0  0  0  0  0
  147.2030  158.2340  133.1370 C   0  0  0  0  0  0  0  0  0  0  0  0
  148.5130  158.0270  132.7190 C   0  0  0  0  0  0  0  0  0  0  0  0
  148.9680  156.7030  132.6070 C   0  0  0  0  0  0  0  0  0  0  0  0
  148.1130  155.6100  132.9050 C   0  0  0  0  0  0  0  0  0  0  0  0
  148.6000  154.2130  132.7700 C   0  0  0  0  0  0  0  0  0  0  0  0
  147.9270  153.0560  133.1260 C   0  0  0  0  0  0  0  0  0  0  0  0
  148.7750  152.0140  132.8180 C   0  0  0  0  0  0  0  0  0  0  0  0
  149.8900  152.4850  132.3070 O   0  0  0  0  0  0  0  0  0  0  0  0
  149.8190  153.7950  132.2630 C   0  0  0  0  0  0  0  0  0  0  0  0
  146.7850  155.8670  133.3280 C   0  0  0  0  0  0  0  0  0  0  0  0
  146.3660  157.1960  133.4480 C   0  0  0  0  0  0  0  0  0  0  0  0
  145.1500  157.6640  133.8110 N   0  0  0  0  0  0  0  0  0  0  0  0
  143.9920  156.8780  134.1380 C   0  0  0  0  0  0  0  0  0  0  0  0
  144.0510  156.0280  135.0690 O   0  0  0  0  0  0  0  0  0  0  0  0
  142.8060  157.0560  133.4170 O   0  0  0  0  0  0  0  0  0  0  0  0
  141.7400  156.1090  133.4140 C   0  0  0  0  0  0  0  0  0  0  0  0
  140.6470  156.5280  134.4030 C   0  0  0  0  0  0  0  0  0  0  0  0
  141.1320  157.5750  135.3260 N   0  0  0  0  0  0  0  0  0  0  0  0
  140.0790  158.5830  135.5520 C   0  0  0  0  0  0  0  0  0  0  0  0
  140.6030  159.7040  136.4760 C   0  0  0  0  0  0  0  0  0  0  0  0
  141.8290  159.3670  137.1020 O   0  0  0  0  0  0  0  0  0  0  0  0
  141.7240  158.0910  137.6970 C   0  0  0  0  0  0  0  0  0  0  0  0
  141.5700  157.0000  136.6190 C   0  0  0  0  0  0  0  0  0  0  0  0
  142.2490  160.1970  135.0600 H   0  0  0  0  0  0  0  0  0  0  0  0
  142.9350  158.5420  135.1690 H   0  0  0  0  0  0  0  0  0  0  0  0
  146.8692  160.4323  133.1399 H   0  0  0  0  0  0  0  0  0  0  0  0
  149.1731  158.8747  132.4831 H   0  0  0  0  0  0  0  0  0  0  0  0
  150.0016  156.5104  132.2837 H   0  0  0  0  0  0  0  0  0  0  0  0
  146.9210  152.9835  133.5650 H   0  0  0  0  0  0  0  0  0  0  0  0
  148.5518  150.9486  132.9762 H   0  0  0  0  0  0  0  0  0  0  0  0
  150.6079  154.4598  131.8814 H   0  0  0  0  0  0  0  0  0  0  0  0
  146.0983  155.0388  133.5571 H   0  0  0  0  0  0  0  0  0  0  0  0
  141.3104  156.0507  132.4030 H   0  0  0  0  0  0  0  0  0  0  0  0
  142.1352  155.1276  133.7153 H   0  0  0  0  0  0  0  0  0  0  0  0
  139.7850  156.9168  133.8411 H   0  0  0  0  0  0  0  0  0  0  0  0
  140.3592  155.6477  134.9964 H   0  0  0  0  0  0  0  0  0  0  0  0
  139.7793  159.0179  134.5871 H   0  0  0  0  0  0  0  0  0  0  0  0
  139.2150  158.0984  136.0302 H   0  0  0  0  0  0  0  0  0  0  0  0
  140.7524  160.6138  135.8760 H   0  0  0  0  0  0  0  0  0  0  0  0
  139.8560  159.8582  137.2686 H   0  0  0  0  0  0  0  0  0  0  0  0
  142.6311  157.8913  138.2863 H   0  0  0  0  0  0  0  0  0  0  0  0
  140.8365  158.0749  138.3467 H   0  0  0  0  0  0  0  0  0  0  0  0
  142.5383  156.4976  136.4775 H   0  0  0  0  0  0  0  0  0  0  0  0
  140.8049  156.2855  136.9568 H   0  0  0  0  0  0  0  0  0  0  0  0
  1  2  1  0
  2  3  2  0
  2  4  1  0
  4  5  2  0
  5  6  1  0
  6  7  2  0
  7  8  1  0
  8  9  2  0
  9 10  1  0
 10 11  1  0
 11 12  2  0
 12 13  1  0
 13 14  1  0
  9 15  1  0
 15 16  2  0
 16 17  1  0
 17 18  1  0
 18 19  2  0
 18 20  1  0
 20 21  1  0
 21 22  1  0
 22 23  1  0
 23 24  1  0
 24 25  1  0
 25 26  1  0
 26 27  1  0
 27 28  1  0
 17  4  1  0
 28 23  1  0
 16  6  1  0
 14 10  2  0
  1 29  1  0
  1 30  1  0
  5 31  1  0
  7 32  1  0
  8 33  1  0
 11 34  1  0
 12 35  1  0
 14 36  1  0
 15 37  1  0
 21 38  1  0
 21 39  1  0
 22 40  1  0
 22 41  1  0
 24 42  1  0
 24 43  1  0
 25 44  1  0
 25 45  1  0
 27 46  1  0
 27 47  1  0
 28 48  1  0
 28 49  1  0
M  END
>  <UniqueID>  (42) 
42

>  <SMILES>  (42) 
NC(=O)c1cc2ccc(-c3ccoc3)cc2n1C(=O)OCCN1CCOCC1

>  <Energy>  (42) 
126.12837134555664

>  <Genealogy>  (42) 
NC(=O)c1cc2ccc(-c3ccoc3)cc2n1C(=O)OCCN1CCOCC1 (3D coordinates assigned)
NC(=O)c1cc2ccc(-c3ccoc3)cc2n1C(=O)OCCN1CCOCC1 (nonaromatic ring conformer: 126.12837134555664 kcal/mol)

>  <smiles>  (42) 
NC(=O)c1cc2ccc(-c3ccoc3)cc2n1C(=O)OCCN1CCOCC1

>  <score_type>  (42) 
oracle

>  <origin>  (42) 
adg

>  <m_score__min__energy>  (42) 
-8.2599999999999998

>  <m_primary>  (42) 
energy

$$$$
42:0
     RDKit          3D

 42 44  0  0  0  0  0  0  0  0999 V2000
  138.3810  160.0970  130.8630 C   0  0  0  0  0  0  0  0  0  0  0  0
  138.6090  158.6930  131.4100 C   0  0  0  0  0  0  0  0  0  0  0  0
  139.5770  158.7120  132.4560 O   0  0  0  0  0  0  0  0  0  0  0  0
  139.6040  157.7850  133.5040 C   0  0  0  0  0  0  0  0  0  0  0  0
  138.9650  158.0060  134.5690 O   0  0  0  0  0  0  0  0  0  0  0  0
  140.4060  156.5550  133.3820 C   0  0  0  0  0  0  0  0  0  0  0  0
  139.9080  155.2670  133.3480 C   0  0  0  0  0  0  0  0  0  0  0  0
  140.9500  154.4150  133.3560 N   0  0  0  0  0  0  0  0  0  0  0  0
  140.8610  152.9630  133.2810 C   0  0  0  0  0  0  0  0  0  0  0  0
  142.0900  155.0850  133.3670 N   0  0  0  0  0  0  0  0  0  0  0  0
  141.7910  156.4000  133.3840 C   0  0  0  0  0  0  0  0  0  0  0  0
  142.8240  157.4550  133.3560 C   0  0  0  0  0  0  0  0  0  0  0  0
  142.4510  158.8040  133.5720 C   0  0  0  0  0  0  0  0  0  0  0  0
  143.4180  159.8220  133.5760 C   0  0  0  0  0  0  0  0  0  0  0  0
  144.7460  159.4620  133.3650 C   0  0  0  0  0  0  0  0  0  0  0  0
  145.8810  160.2390  133.3460 C   0  0  0  0  0  0  0  0  0  0  0  0
  146.9290  159.3540  133.1090 C   0  0  0  0  0  0  0  0  0  0  0  0
  148.3300  159.7830  132.9390 C   0  0  0  0  0  0  0  0  0  0  0  0
  149.4080  159.0310  133.4980 N   0  0  0  0  0  0  0  0  0  0  0  0
  148.5850  160.8000  132.2400 O   0  0  0  0  0  0  0  0  0  0  0  0
  146.4660  158.0770  133.0010 N   0  0  0  0  0  0  0  0  0  0  0  0
  147.2390  156.8710  132.8620 C   0  0  0  0  0  0  0  0  0  0  0  0
  148.1930  156.5120  133.8590 N   0  0  0  0  0  0  0  0  0  0  0  0
  147.0700  156.1200  131.8650 O   0  0  0  0  0  0  0  0  0  0  0  0
  145.1240  158.1610  133.1570 C   0  0  0  0  0  0  0  0  0  0  0  0
  144.1860  157.1240  133.1790 C   0  0  0  0  0  0  0  0  0  0  0  0
  138.2665  160.8022  131.6994 H   0  0  0  0  0  0  0  0  0  0  0  0
  139.2425  160.3951  130.2474 H   0  0  0  0  0  0  0  0  0  0  0  0
  137.4694  160.1071  130.2474 H   0  0  0  0  0  0  0  0  0  0  0  0
  137.6599  158.2999  131.8032 H   0  0  0  0  0  0  0  0  0  0  0  0
  138.9792  158.0518  130.5965 H   0  0  0  0  0  0  0  0  0  0  0  0
  138.8448  154.9864  133.3194 H   0  0  0  0  0  0  0  0  0  0  0  0
  140.8353  152.5442  134.2978 H   0  0  0  0  0  0  0  0  0  0  0  0
  139.9438  152.6791  132.7443 H   0  0  0  0  0  0  0  0  0  0  0  0
  141.7367  152.5692  132.7443 H   0  0  0  0  0  0  0  0  0  0  0  0
  141.3934  159.0567  133.7383 H   0  0  0  0  0  0  0  0  0  0  0  0
  143.1348  160.8721  133.7409 H   0  0  0  0  0  0  0  0  0  0  0  0
  145.9465  161.3278  133.4879 H   0  0  0  0  0  0  0  0  0  0  0  0
  149.2440  158.1000  133.9390 H   0  0  0  0  0  0  0  0  0  0  0  0
  150.3910  159.3700  133.3990 H   0  0  0  0  0  0  0  0  0  0  0  0
  149.1990  156.7670  133.7550 H   0  0  0  0  0  0  0  0  0  0  0  0
  144.5008  156.0766  133.0614 H   0  0  0  0  0  0  0  0  0  0  0  0
  1  2  1  0
  2  3  1  0
  3  4  1  0
  4  5  2  0
  4  6  1  0
  6  7  2  0
  7  8  1  0
  8  9  1  0
  8 10  1  0
 10 11  2  0
 11 12  1  0
 12 13  2  0
 13 14  1  0
 14 15  2  0
 15 16  1  0
 16 17  2  0
 17 18  1  0
 18 19  1  0
 18 20  2  0
 17 21  1  0
 21 22  1  0
 22 23  1  0
 22 24  2  0
 21 25  1  0
 25 26  2  0
 11  6  1  0
 26 12  1  0
 25 15  1  0
  1 27  1  0
  1 28  1  0
  1 29  1  0
  2 30  1  0
  2 31  1  0
  7 32  1  0
  9 33  1  0
  9 34  1  0
  9 35  1  0
 13 36  1  0
 14 37  1  0
 16 38  1  0
 19 39  1  0
 19 40  1  0
 23 41  1  0
 26 42  1  0
M  CHG  1  23  -1
M  END
>  <UniqueID>  (43) 
43

>  <SMILES>  (43) 
CCOC(=O)c1cn(C)nc1-c1ccc2cc(C(N)=O)n(C([NH-])=O)c2c1

>  <Energy>  (43) 
112.9787066572281

>  <Genealogy>  (43) 
CCOC(=O)c1cn(C)nc1-c1ccc2cc(C(N)=O)n(C([NH-])=O)c2c1 (protonated)
CCOC(=O)c1cn(C)nc1-c1ccc2cc(C(N)=O)n(C([NH-])=O)c2c1 (3D coordinates assigned)
CCOC(=O)c1cn(C)nc1-c1ccc2cc(C(N)=O)n(C([NH-])=O)c2c1 (optimized conformer: 112.9787066572281 kcal/mol)

>  <smiles>  (43) 
CCOC(=O)c1cn(C)nc1-c1ccc2cc(C(N)=O)n(C(N)=O)c2c1

>  <score_type>  (43) 
oracle

>  <origin>  (43) 
adg

>  <m_score__min__energy>  (43) 
-7.96

>  <m_primary>  (43) 
energy

$$$$
43:0
     RDKit          3D

 47 49  0  0  0  0  0  0  0  0999 V2000
  138.5970  158.8890  132.2200 C   0  0  0  0  0  0  0  0  0  0  0  0
  139.4710  158.8020  133.4000 N   0  0  0  0  0  0  0  0  0  0  0  0
  139.3160  157.4960  134.0940 C   0  0  0  0  0  0  0  0  0  0  0  0
  140.4550  156.5150  133.7840 C   0  0  0  0  0  0  0  0  0  0  0  0
  141.8190  157.0910  134.2000 C   0  0  0  0  0  0  0  0  0  0  0  0
  141.8660  158.6340  134.0920 C   0  0  1  0  0  0  0  0  0  0  0  0
  143.2740  159.1330  133.8210 C   0  0  0  0  0  0  0  0  0  0  0  0
  143.5740  160.5110  133.9640 C   0  0  0  0  0  0  0  0  0  0  0  0
  144.8730  160.9930  133.7350 C   0  0  0  0  0  0  0  0  0  0  0  0
  145.8510  160.0780  133.3590 C   0  0  0  0  0  0  0  0  0  0  0  0
  147.1910  160.2690  133.1050 C   0  0  0  0  0  0  0  0  0  0  0  0
  147.6900  159.0070  132.7910 C   0  0  0  0  0  0  0  0  0  0  0  0
  149.0850  158.7630  132.3690 C   0  0  0  0  0  0  0  0  0  0  0  0
  149.5590  157.4260  132.2240 N   0  0  0  0  0  0  0  0  0  0  0  0
  149.8760  159.7230  132.1710 O   0  0  0  0  0  0  0  0  0  0  0  0
  146.6990  158.0710  132.8540 N   0  0  0  0  0  0  0  0  0  0  0  0
  146.8180  156.6520  132.6750 C   0  0  0  0  0  0  0  0  0  0  0  0
  146.9920  156.1770  131.5190 O   0  0  0  0  0  0  0  0  0  0  0  0
  146.7230  155.8020  133.7830 O   0  0  0  0  0  0  0  0  0  0  0  0
  147.8130  155.0230  134.2730 C   0  0  0  0  0  0  0  0  0  0  0  0
  148.2980  154.0440  133.2020 C   0  0  0  0  0  0  0  0  0  0  0  0
  149.1690  154.6890  132.3140 O   0  0  0  0  0  0  0  0  0  0  0  0
  145.5800  158.7450  133.2010 C   0  0  0  0  0  0  0  0  0  0  0  0
  144.3000  158.2340  133.4400 C   0  0  0  0  0  0  0  0  0  0  0  0
  140.8680  159.1400  133.0330 C   0  0  0  0  0  0  0  0  0  0  0  0
  137.5513  158.9931  132.5451 H   0  0  0  0  0  0  0  0  0  0  0  0
  138.8820  159.7632  131.6163 H   0  0  0  0  0  0  0  0  0  0  0  0
  138.7041  157.9758  131.6163 H   0  0  0  0  0  0  0  0  0  0  0  0
  139.2934  157.6758  135.1790 H   0  0  0  0  0  0  0  0  0  0  0  0
  138.3815  157.0405  133.7345 H   0  0  0  0  0  0  0  0  0  0  0  0
  140.2797  155.5778  134.3326 H   0  0  0  0  0  0  0  0  0  0  0  0
  140.4713  156.3344  132.6991 H   0  0  0  0  0  0  0  0  0  0  0  0
  142.0206  156.8036  135.2425 H   0  0  0  0  0  0  0  0  0  0  0  0
  142.5777  156.6838  133.5155 H   0  0  0  0  0  0  0  0  0  0  0  0
  141.5616  159.0492  135.0641 H   0  0  0  0  0  0  0  0  0  0  0  0
  142.7789  161.2119  134.2582 H   0  0  0  0  0  0  0  0  0  0  0  0
  145.1098  162.0611  133.8494 H   0  0  0  0  0  0  0  0  0  0  0  0
  147.7486  161.2165  133.1422 H   0  0  0  0  0  0  0  0  0  0  0  0
  149.0660  156.7460  131.6040 H   0  0  0  0  0  0  0  0  0  0  0  0
  148.6398  155.6928  134.5518 H   0  0  0  0  0  0  0  0  0  0  0  0
  147.4750  154.4513  135.1498 H   0  0  0  0  0  0  0  0  0  0  0  0
  148.8256  153.2087  133.6857 H   0  0  0  0  0  0  0  0  0  0  0  0
  147.4298  153.6666  132.6418 H   0  0  0  0  0  0  0  0  0  0  0  0
  148.8200  155.6100  132.1920 H   0  0  0  0  0  0  0  0  0  0  0  0
  144.0949  157.1584  133.3345 H   0  0  0  0  0  0  0  0  0  0  0  0
  140.9610  160.2327  132.9470 H   0  0  0  0  0  0  0  0  0  0  0  0
  141.1021  158.6515  132.0756 H   0  0  0  0  0  0  0  0  0  0  0  0
  1  2  1  0
  2  3  1  0
  3  4  1  0
  4  5  1  0
  5  6  1  0
  6  7  1  0
  7  8  2  0
  8  9  1  0
  9 10  2  0
 10 11  1  0
 11 12  2  0
 12 13  1  0
 13 14  1  0
 13 15  2  0
 12 16  1  0
 16 17  1  0
 17 18  2  0
 17 19  1  0
 19 20  1  0
 20 21  1  0
 21 22  1  0
 16 23  1  0
 23 24  2  0
  6 25  1  0
 25  2  1  0
 24  7  1  0
 23 10  1  0
  1 26  1  0
  1 27  1  0
  1 28  1  0
  3 29  1  0
  3 30  1  0
  4 31  1  0
  4 32  1  0
  5 33  1  0
  5 34  1  0
  6 35  1  1
  8 36  1  0
  9 37  1  0
 11 38  1  0
 14 39  1  0
 20 40  1  0
 20 41  1  0
 21 42  1  0
 21 43  1  0
 22 44  1  0
 24 45  1  0
 25 46  1  0
 25 47  1  0
M  CHG  1  14  -1
M  END
>  <UniqueID>  (44) 
44

>  <SMILES>  (44) 
CN1CCC[C@@H](c2ccc3cc(C([NH-])=O)n(C(=O)OCCO)c3c2)C1

>  <Energy>  (44) 
91.07538785678561

>  <Genealogy>  (44) 
CN1CCCC(c2ccc3cc(C([NH-])=O)n(C(=O)OCCO)c3c2)C1 (protonated)
CN1CCC[C@@H](c2ccc3cc(C([NH-])=O)n(C(=O)OCCO)c3c2)C1 (chirality)
CN1CCC[C@@H](c2ccc3cc(C([NH-])=O)n(C(=O)OCCO)c3c2)C1 (3D coordinates assigned)
CN1CCC[C@@H](c2ccc3cc(C([NH-])=O)n(C(=O)OCCO)c3c2)C1 (nonaromatic ring conformer: 91.07538785678561 kcal/mol)

>  <smiles>  (44) 
CN1CCCC(c2ccc3cc(C(N)=O)n(C(=O)OCCO)c3c2)C1

>  <score_type>  (44) 
oracle

>  <origin>  (44) 
adg

>  <m_score__min__energy>  (44) 
-7.4299999999999997

>  <m_primary>  (44) 
energy

$$$$
44:0
     RDKit          3D

 37 39  0  0  0  0  0  0  0  0999 V2000
  141.3620  149.7040  132.2650 C   0  0  0  0  0  0  0  0  0  0  0  0
  142.1630  150.5200  133.1120 O   0  0  0  0  0  0  0  0  0  0  0  0
  141.6130  151.3990  134.0500 C   0  0  0  0  0  0  0  0  0  0  0  0
  141.0660  150.9610  135.0980 O   0  0  0  0  0  0  0  0  0  0  0  0
  141.6750  152.8430  133.8010 C   0  0  0  0  0  0  0  0  0  0  0  0
  142.8230  153.5950  133.6330 C   0  0  0  0  0  0  0  0  0  0  0  0
  142.3940  154.8920  133.4380 C   0  0  0  0  0  0  0  0  0  0  0  0
  141.0140  154.8450  133.5010 C   0  0  0  0  0  0  0  0  0  0  0  0
  140.1020  155.9880  133.3540 C   0  0  0  0  0  0  0  0  0  0  0  0
  139.1140  155.9070  132.5740 O   0  0  0  0  0  0  0  0  0  0  0  0
  140.3260  157.1970  134.0950 N   0  0  0  0  0  0  0  0  0  0  0  0
  140.2560  158.4790  133.6390 C   0  0  0  0  0  0  0  0  0  0  0  0
  139.8160  158.8980  132.2910 C   0  0  0  0  0  0  0  0  0  0  0  0
  138.5160  158.5700  131.8060 N   0  0  0  0  0  0  0  0  0  0  0  0
  140.5870  159.5830  131.5680 O   0  0  0  0  0  0  0  0  0  0  0  0
  140.6040  159.3750  134.6480 C   0  0  0  0  0  0  0  0  0  0  0  0
  140.8890  158.5950  135.7470 C   0  0  0  0  0  0  0  0  0  0  0  0
  141.2990  158.9620  137.0250 C   0  0  0  0  0  0  0  0  0  0  0  0
  141.5460  157.9390  137.9570 C   0  0  0  0  0  0  0  0  0  0  0  0
  141.3890  156.5780  137.5930 C   0  0  0  0  0  0  0  0  0  0  0  0
  141.6640  155.4870  138.5880 C   0  0  0  0  0  0  0  0  0  0  0  0
  141.9800  154.3170  137.9200 F   0  0  0  0  0  0  0  0  0  0  0  0
  140.5430  155.2770  139.3700 F   0  0  0  0  0  0  0  0  0  0  0  0
  140.9790  156.2440  136.2840 C   0  0  0  0  0  0  0  0  0  0  0  0
  140.7190  157.2840  135.3850 C   0  0  0  0  0  0  0  0  0  0  0  0
  140.6150  153.6120  133.7140 O   0  0  0  0  0  0  0  0  0  0  0  0
  140.7232  149.0532  132.8801 H   0  0  0  0  0  0  0  0  0  0  0  0
  140.7309  150.3432  131.6301 H   0  0  0  0  0  0  0  0  0  0  0  0
  142.0128  149.0848  131.6301 H   0  0  0  0  0  0  0  0  0  0  0  0
  143.8621  153.2344  133.6510 H   0  0  0  0  0  0  0  0  0  0  0  0
  143.0207  155.7798  133.2676 H   0  0  0  0  0  0  0  0  0  0  0  0
  138.0080  157.7290  132.1570 H   0  0  0  0  0  0  0  0  0  0  0  0
  140.6429  160.4723  134.5810 H   0  0  0  0  0  0  0  0  0  0  0  0
  141.4259  160.0201  137.2977 H   0  0  0  0  0  0  0  0  0  0  0  0
  141.8640  158.1969  138.9780 H   0  0  0  0  0  0  0  0  0  0  0  0
  142.5079  155.7858  139.2272 H   0  0  0  0  0  0  0  0  0  0  0  0
  140.8669  155.1932  135.9788 H   0  0  0  0  0  0  0  0  0  0  0  0
  1  2  1  0
  2  3  1  0
  3  4  2  0
  3  5  1  0
  5  6  2  0
  6  7  1  0
  7  8  2  0
  8  9  1  0
  9 10  2  0
  9 11  1  0
 11 12  1  0
 12 13  1  0
 13 14  1  0
 13 15  2  0
 12 16  2  0
 16 17  1  0
 17 18  2  0
 18 19  1  0
 19 20  2  0
 20 21  1  0
 21 22  1  0
 21 23  1  0
 20 24  1  0
 24 25  2  0
  8 26  1  0
 26  5  1  0
 25 11  1  0
 25 17  1  0
  1 27  1  0
  1 28  1  0
  1 29  1  0
  6 30  1  0
  7 31  1  0
 14 32  1  0
 16 33  1  0
 18 34  1  0
 19 35  1  0
 21 36  1  0
 24 37  1  0
M  CHG  1  14  -1
M  END
>  <UniqueID>  (45) 
45

>  <SMILES>  (45) 
COC(=O)c1ccc(C(=O)n2c(C([NH-])=O)cc3ccc(C(F)F)cc32)o1

>  <Energy>  (45) 
100.30291429470495

>  <Genealogy>  (45) 
COC(=O)c1ccc(C(=O)n2c(C([NH-])=O)cc3ccc(C(F)F)cc32)o1 (protonated)
COC(=O)c1ccc(C(=O)n2c(C([NH-])=O)cc3ccc(C(F)F)cc32)o1 (3D coordinates assigned)
COC(=O)c1ccc(C(=O)n2c(C([NH-])=O)cc3ccc(C(F)F)cc32)o1 (optimized conformer: 100.30291429470495 kcal/mol)

>  <smiles>  (45) 
COC(=O)c1ccc(C(=O)n2c(C(N)=O)cc3ccc(C(F)F)cc32)o1

>  <score_type>  (45) 
oracle

>  <origin>  (45) 
adg

>  <m_score__min__energy>  (45) 
-6.25

>  <m_primary>  (45) 
energy

$$$$
45:0
     RDKit          3D

 38 39  0  0  0  0  0  0  0  0999 V2000
  137.8570  159.7410  131.0850 C   0  0  0  0  0  0  0  0  0  0  0  0
  139.3120  159.5380  131.3390 C   0  0  0  0  0  0  0  0  0  0  0  0
  140.0950  159.3860  130.3630 O   0  0  0  0  0  0  0  0  0  0  0  0
  139.7730  159.4770  132.6600 O   0  0  0  0  0  0  0  0  0  0  0  0
  139.8530  158.3090  133.4340 C   0  0  0  0  0  0  0  0  0  0  0  0
  139.1470  157.3020  133.1500 O   0  0  0  0  0  0  0  0  0  0  0  0
  140.7770  158.2510  134.6380 C   0  0  0  0  0  0  0  0  0  0  0  0
  140.7240  159.5760  135.4310 C   0  0  0  0  0  0  0  0  0  0  0  0
  140.2590  157.1200  135.5550 C   0  0  0  0  0  0  0  0  0  0  0  0
  142.2240  158.0340  134.1610 C   0  0  0  0  0  0  0  0  0  0  0  0
  142.7290  156.7480  133.8050 C   0  0  0  0  0  0  0  0  0  0  0  0
  144.0610  156.5790  133.3960 C   0  0  0  0  0  0  0  0  0  0  0  0
  144.8850  157.6970  133.3720 C   0  0  0  0  0  0  0  0  0  0  0  0
  146.2050  157.8140  133.0000 C   0  0  0  0  0  0  0  0  0  0  0  0
  146.5180  159.1600  133.1720 C   0  0  0  0  0  0  0  0  0  0  0  0
  147.8740  159.7110  132.9690 C   0  0  0  0  0  0  0  0  0  0  0  0
  148.0830  160.8620  132.1540 N   0  0  0  0  0  0  0  0  0  0  0  0
  148.8540  159.1900  133.5630 O   0  0  0  0  0  0  0  0  0  0  0  0
  145.4320  159.8490  133.6250 N   0  0  0  0  0  0  0  0  0  0  0  0
  145.3180  161.2660  133.8370 C   0  0  0  0  0  0  0  0  0  0  0  0
  146.3330  161.9510  134.1270 O   0  0  0  0  0  0  0  0  0  0  0  0
  144.0780  161.8880  133.7500 O   0  0  0  0  0  0  0  0  0  0  0  0
  144.4420  158.9360  133.7440 C   0  0  0  0  0  0  0  0  0  0  0  0
  143.1150  159.1400  134.1370 C   0  0  0  0  0  0  0  0  0  0  0  0
  137.3242  159.8153  132.0445 H   0  0  0  0  0  0  0  0  0  0  0  0
  137.7108  160.6682  130.5116 H   0  0  0  0  0  0  0  0  0  0  0  0
  137.4625  158.8892  130.5116 H   0  0  0  0  0  0  0  0  0  0  0  0
  140.7327  159.3586  136.5093 H   0  0  0  0  0  0  0  0  0  0  0  0
  141.5982  160.1923  135.1742 H   0  0  0  0  0  0  0  0  0  0  0  0
  139.8034  160.1205  135.1742 H   0  0  0  0  0  0  0  0  0  0  0  0
  140.3923  157.4111  136.6074 H   0  0  0  0  0  0  0  0  0  0  0  0
  139.1914  156.9459  135.3552 H   0  0  0  0  0  0  0  0  0  0  0  0
  140.8246  156.1979  135.3552 H   0  0  0  0  0  0  0  0  0  0  0  0
  142.0629  155.8738  133.8519 H   0  0  0  0  0  0  0  0  0  0  0  0
  144.4415  155.5894  133.1028 H   0  0  0  0  0  0  0  0  0  0  0  0
  146.8709  157.0146  132.6429 H   0  0  0  0  0  0  0  0  0  0  0  0
  147.7020  161.7930  132.4330 H   0  0  0  0  0  0  0  0  0  0  0  0
  142.7663  160.1432  134.4235 H   0  0  0  0  0  0  0  0  0  0  0  0
  1  2  1  0
  2  3  2  0
  2  4  1  0
  4  5  1  0
  5  6  2  0
  5  7  1  0
  7  8  1  0
  7  9  1  0
  7 10  1  0
 10 11  2  0
 11 12  1  0
 12 13  2  0
 13 14  1  0
 14 15  2  0
 15 16  1  0
 16 17  1  0
 16 18  2  0
 15 19  1  0
 19 20  1  0
 20 21  2  0
 20 22  1  0
 19 23  1  0
 23 24  2  0
 24 10  1  0
 23 13  1  0
  1 25  1  0
  1 26  1  0
  1 27  1  0
  8 28  1  0
  8 29  1  0
  8 30  1  0
  9 31  1  0
  9 32  1  0
  9 33  1  0
 11 34  1  0
 12 35  1  0
 14 36  1  0
 17 37  1  0
 24 38  1  0
M  CHG  2  17  -1  22  -1
M  END
>  <UniqueID>  (46) 
46

>  <SMILES>  (46) 
CC(=O)OC(=O)C(C)(C)c1ccc2cc(C([NH-])=O)n(C(=O)[O-])c2c1

>  <Energy>  (46) 
79.96718056497355

>  <Genealogy>  (46) 
CC(=O)OC(=O)C(C)(C)c1ccc2cc(C([NH-])=O)n(C(=O)[O-])c2c1 (protonated)
CC(=O)OC(=O)C(C)(C)c1ccc2cc(C([NH-])=O)n(C(=O)[O-])c2c1 (3D coordinates assigned)
CC(=O)OC(=O)C(C)(C)c1ccc2cc(C([NH-])=O)n(C(=O)[O-])c2c1 (optimized conformer: 79.96718056497355 kcal/mol)

>  <smiles>  (46) 
CC(=O)OC(=O)C(C)(C)c1ccc2cc(C(N)=O)n(C(=O)O)c2c1

>  <score_type>  (46) 
oracle

>  <origin>  (46) 
adg

>  <m_score__min__energy>  (46) 
-7.1399999999999997

>  <m_primary>  (46) 
energy

$$$$
46:0
     RDKit          3D

 37 38  0  0  0  0  0  0  0  0999 V2000
  140.4800  159.7110  136.3540 N   0  0  0  0  0  0  0  0  0  0  0  0
  141.0310  158.5980  137.0540 C   0  0  0  0  0  0  0  0  0  0  0  0
  141.3900  158.7430  138.2530 O   0  0  0  0  0  0  0  0  0  0  0  0
  141.2150  157.2900  136.3890 C   0  0  0  0  0  0  0  0  0  0  0  0
  141.9400  156.2380  136.9480 C   0  0  0  0  0  0  0  0  0  0  0  0
  141.9180  155.2360  136.0050 C   0  0  0  0  0  0  0  0  0  0  0  0
  142.4750  153.9610  136.0370 C   0  0  0  0  0  0  0  0  0  0  0  0
  142.2720  153.1250  134.9270 C   0  0  0  0  0  0  0  0  0  0  0  0
  141.5050  153.5680  133.8200 C   0  0  0  0  0  0  0  0  0  0  0  0
  141.3100  152.6730  132.6260 C   0  0  0  0  0  0  0  0  0  0  0  0
  140.9930  151.2440  133.0590 C   0  0  0  0  0  0  0  0  0  0  0  0
  142.1250  150.4600  132.9300 F   0  0  0  0  0  0  0  0  0  0  0  0
  139.9880  150.7150  132.2690 F   0  0  0  0  0  0  0  0  0  0  0  0
  140.9610  154.8720  133.8210 C   0  0  0  0  0  0  0  0  0  0  0  0
  141.1990  155.6900  134.9290 C   0  0  0  0  0  0  0  0  0  0  0  0
  140.7670  156.9510  135.1480 N   0  0  0  0  0  0  0  0  0  0  0  0
  139.9550  157.7360  134.2600 C   0  0  0  0  0  0  0  0  0  0  0  0
  138.8370  158.1680  134.6520 O   0  0  0  0  0  0  0  0  0  0  0  0
  140.4330  158.0690  132.8790 C   0  0  0  0  0  0  0  0  0  0  0  0
  139.7450  159.6760  132.3470 S   0  0  0  0  0  0  0  0  0  0  0  0
  138.2450  159.0100  131.5340 C   0  0  0  0  0  0  0  0  0  0  0  0
  137.4600  160.1210  130.8450 C   0  0  0  0  0  0  0  0  0  0  0  0
  138.0060  160.3880  129.6020 F   0  0  0  0  0  0  0  0  0  0  0  0
  136.1450  159.7260  130.6840 F   0  0  0  0  0  0  0  0  0  0  0  0
  139.4850  159.7080  136.0380 H   0  0  0  0  0  0  0  0  0  0  0  0
  142.4266  156.2142  137.9342 H   0  0  0  0  0  0  0  0  0  0  0  0
  143.0567  153.6184  136.9055 H   0  0  0  0  0  0  0  0  0  0  0  0
  142.7122  152.1170  134.9164 H   0  0  0  0  0  0  0  0  0  0  0  0
  140.4768  153.0584  132.0199 H   0  0  0  0  0  0  0  0  0  0  0  0
  142.2408  152.6631  132.0399 H   0  0  0  0  0  0  0  0  0  0  0  0
  140.6614  151.2585  134.1077 H   0  0  0  0  0  0  0  0  0  0  0  0
  140.3648  155.2345  132.9706 H   0  0  0  0  0  0  0  0  0  0  0  0
  141.5316  158.1253  132.8779 H   0  0  0  0  0  0  0  0  0  0  0  0
  140.0977  157.2857  132.1833 H   0  0  0  0  0  0  0  0  0  0  0  0
  138.5436  158.2621  130.7847 H   0  0  0  0  0  0  0  0  0  0  0  0
  137.6042  158.5510  132.3012 H   0  0  0  0  0  0  0  0  0  0  0  0
  137.5062  161.0275  131.4664 H   0  0  0  0  0  0  0  0  0  0  0  0
  1  2  1  0
  2  3  2  0
  2  4  1  0
  4  5  2  0
  5  6  1  0
  6  7  2  0
  7  8  1  0
  8  9  2  0
  9 10  1  0
 10 11  1  0
 11 12  1  0
 11 13  1  0
  9 14  1  0
 14 15  2  0
 15 16  1  0
 16 17  1  0
 17 18  2  0
 17 19  1  0
 19 20  1  0
 20 21  1  0
 21 22  1  0
 22 23  1  0
 22 24  1  0
 16  4  1  0
 15  6  1  0
  1 25  1  0
  5 26  1  0
  7 27  1  0
  8 28  1  0
 10 29  1  0
 10 30  1  0
 11 31  1  0
 14 32  1  0
 19 33  1  0
 19 34  1  0
 21 35  1  0
 21 36  1  0
 22 37  1  0
M  CHG  1   1  -1
M  END
>  <UniqueID>  (47) 
47

>  <SMILES>  (47) 
[NH-]C(=O)c1cc2ccc(CC(F)F)cc2n1C(=O)CSCC(F)F

>  <Energy>  (47) 
66.78080281423576

>  <Genealogy>  (47) 
[NH-]C(=O)c1cc2ccc(CC(F)F)cc2n1C(=O)CSCC(F)F (protonated)
[NH-]C(=O)c1cc2ccc(CC(F)F)cc2n1C(=O)CSCC(F)F (3D coordinates assigned)
[NH-]C(=O)c1cc2ccc(CC(F)F)cc2n1C(=O)CSCC(F)F (optimized conformer: 66.78080281423576 kcal/mol)

>  <smiles>  (47) 
NC(=O)c1cc2ccc(CC(F)F)cc2n1C(=O)CSCC(F)F

>  <score_type>  (47) 
oracle

>  <origin>  (47) 
adg

>  <m_score__min__energy>  (47) 
-6.04

>  <m_primary>  (47) 
energy

$$$$
47:0
     RDKit          3D

 54 56  0  0  0  0  0  0  0  0999 V2000
  136.2160  159.9800  130.4680 C   0  0  0  0  0  0  0  0  0  0  0  0
  137.5810  160.3030  130.8620 N   0  0  0  0  0  0  0  0  0  0  0  0
  138.6050  159.3010  130.9230 C   0  0  0  0  0  0  0  0  0  0  0  0
  138.3200  158.0910  130.7080 O   0  0  0  0  0  0  0  0  0  0  0  0
  140.0160  159.6770  131.2740 C   0  0  0  0  0  0  0  0  0  0  0  0
  140.4070  159.0940  132.6070 C   0  0  0  0  0  0  0  0  0  0  0  0
  140.6080  159.9400  133.7260 C   0  0  0  0  0  0  0  0  0  0  0  0
  140.9740  159.4040  134.9720 C   0  0  0  0  0  0  0  0  0  0  0  0
  141.1130  158.0230  135.0730 C   0  0  0  0  0  0  0  0  0  0  0  0
  141.4690  157.2450  136.1510 C   0  0  0  0  0  0  0  0  0  0  0  0
  141.4400  155.9310  135.6860 C   0  0  0  0  0  0  0  0  0  0  0  0
  141.6760  154.7570  136.5540 C   0  0  0  0  0  0  0  0  0  0  0  0
  142.3800  153.6150  136.0710 N   0  0  0  0  0  0  0  0  0  0  0  0
  141.2100  154.7430  137.7250 O   0  0  0  0  0  0  0  0  0  0  0  0
  141.0910  155.9000  134.3670 N   0  0  0  0  0  0  0  0  0  0  0  0
  140.9940  154.7560  133.5060 C   0  0  0  0  0  0  0  0  0  0  0  0
  139.8600  154.2940  133.1980 O   0  0  0  0  0  0  0  0  0  0  0  0
  142.1610  154.1450  133.0290 O   0  0  0  0  0  0  0  0  0  0  0  0
  142.1480  152.9560  132.2430 C   0  0  0  0  0  0  0  0  0  0  0  0
  141.9320  151.7520  133.1200 C   0  0  0  0  0  0  0  0  0  0  0  0
  142.6890  151.5770  134.1150 O   0  0  0  0  0  0  0  0  0  0  0  0
  140.8960  150.7940  132.8370 N   0  0  0  0  0  0  0  0  0  0  0  0
  139.6090  151.1900  132.2570 C   0  0  0  0  0  0  0  0  0  0  0  0
  139.3260  150.3690  130.9880 C   0  0  0  0  0  0  0  0  0  0  0  0
  139.8180  148.9660  131.0560 N   0  0  0  0  0  0  0  0  0  0  0  0
  140.9780  148.7480  130.1700 C   0  0  0  0  0  0  0  0  0  0  0  0
  140.0870  148.4950  132.4320 C   0  0  0  0  0  0  0  0  0  0  0  0
  141.1220  149.3800  133.1470 C   0  0  0  0  0  0  0  0  0  0  0  0
  140.8930  157.1880  134.0070 C   0  0  0  0  0  0  0  0  0  0  0  0
  140.5540  157.6960  132.7480 C   0  0  0  0  0  0  0  0  0  0  0  0
  135.5996  159.8341  131.3673 H   0  0  0  0  0  0  0  0  0  0  0  0
  135.8021  160.8050  129.8696 H   0  0  0  0  0  0  0  0  0  0  0  0
  136.2158  159.0570  129.8696 H   0  0  0  0  0  0  0  0  0  0  0  0
  137.8090  161.2900  131.1220 H   0  0  0  0  0  0  0  0  0  0  0  0
  140.6954  159.2930  130.4988 H   0  0  0  0  0  0  0  0  0  0  0  0
  140.0853  160.7732  131.3336 H   0  0  0  0  0  0  0  0  0  0  0  0
  140.4762  161.0267  133.6180 H   0  0  0  0  0  0  0  0  0  0  0  0
  141.1455  160.0560  135.8412 H   0  0  0  0  0  0  0  0  0  0  0  0
  141.7227  157.5875  137.1651 H   0  0  0  0  0  0  0  0  0  0  0  0
  142.4680  153.4320  135.0470 H   0  0  0  0  0  0  0  0  0  0  0  0
  141.3347  153.0178  131.5049 H   0  0  0  0  0  0  0  0  0  0  0  0
  143.1159  152.8558  131.7300 H   0  0  0  0  0  0  0  0  0  0  0  0
  138.8092  151.0125  132.9910 H   0  0  0  0  0  0  0  0  0  0  0  0
  139.6459  152.2575  131.9943 H   0  0  0  0  0  0  0  0  0  0  0  0
  138.2384  150.3472  130.8248 H   0  0  0  0  0  0  0  0  0  0  0  0
  139.8667  150.8577  130.1640 H   0  0  0  0  0  0  0  0  0  0  0  0
  141.8781  148.5788  130.7793 H   0  0  0  0  0  0  0  0  0  0  0  0
  140.7944  147.8686  129.5352 H   0  0  0  0  0  0  0  0  0  0  0  0
  141.1261  149.6340  129.5352 H   0  0  0  0  0  0  0  0  0  0  0  0
  139.1477  148.5125  133.0043 H   0  0  0  0  0  0  0  0  0  0  0  0
  140.4939  147.4749  132.3706 H   0  0  0  0  0  0  0  0  0  0  0  0
  141.0363  149.2302  134.2334 H   0  0  0  0  0  0  0  0  0  0  0  0
  142.1275  149.0983  132.8013 H   0  0  0  0  0  0  0  0  0  0  0  0
  140.4057  157.0239  131.8899 H   0  0  0  0  0  0  0  0  0  0  0  0
  1  2  1  0
  2  3  1  0
  3  4  2  0
  3  5  1  0
  5  6  1  0
  6  7  2  0
  7  8  1  0
  8  9  2  0
  9 10  1  0
 10 11  2  0
 11 12  1  0
 12 13  1  0
 12 14  2  0
 11 15  1  0
 15 16  1  0
 16 17  2  0
 16 18  1  0
 18 19  1  0
 19 20  1  0
 20 21  2  0
 20 22  1  0
 22 23  1  0
 23 24  1  0
 24 25  1  0
 25 26  1  0
 25 27  1  0
 27 28  1  0
 15 29  1  0
 29 30  2  0
 30  6  1  0
 29  9  1  0
 28 22  1  0
  1 31  1  0
  1 32  1  0
  1 33  1  0
  2 34  1  0
  5 35  1  0
  5 36  1  0
  7 37  1  0
  8 38  1  0
 10 39  1  0
 13 40  1  0
 19 41  1  0
 19 42  1  0
 23 43  1  0
 23 44  1  0
 24 45  1  0
 24 46  1  0
 26 47  1  0
 26 48  1  0
 26 49  1  0
 27 50  1  0
 27 51  1  0
 28 52  1  0
 28 53  1  0
 30 54  1  0
M  CHG  1  13  -1
M  END
>  <UniqueID>  (48) 
48

>  <SMILES>  (48) 
CNC(=O)Cc1ccc2cc(C([NH-])=O)n(C(=O)OCC(=O)N3CCN(C)CC3)c2c1

>  <Energy>  (48) 
96.32004027094197

>  <Genealogy>  (48) 
CNC(=O)Cc1ccc2cc(C([NH-])=O)n(C(=O)OCC(=O)N3CCN(C)CC3)c2c1 (protonated)
CNC(=O)Cc1ccc2cc(C([NH-])=O)n(C(=O)OCC(=O)N3CCN(C)CC3)c2c1 (3D coordinates assigned)
CNC(=O)Cc1ccc2cc(C([NH-])=O)n(C(=O)OCC(=O)N3CCN(C)CC3)c2c1 (nonaromatic ring conformer: 96.32004027094197 kcal/mol)

>  <smiles>  (48) 
CNC(=O)Cc1ccc2cc(C(N)=O)n(C(=O)OCC(=O)N3CCN(C)CC3)c2c1

>  <score_type>  (48) 
oracle

>  <origin>  (48) 
adg

>  <m_score__min__energy>  (48) 
-8.2899999999999991

>  <m_primary>  (48) 
energy

$$$$
48:0
     RDKit          3D

 31 32  0  0  0  0  0  0  0  0999 V2000
  149.9810  160.1940  129.1960 C   0  0  0  0  0  0  0  0  0  0  0  0
  150.1150  159.6880  130.5190 O   0  0  0  0  0  0  0  0  0  0  0  0
  149.3510  160.1630  131.5880 C   0  0  0  0  0  0  0  0  0  0  0  0
  148.7370  161.2620  131.5010 O   0  0  0  0  0  0  0  0  0  0  0  0
  149.2230  159.3350  132.8250 C   0  0  0  0  0  0  0  0  0  0  0  0
  147.7770  159.0030  133.0720 C   0  0  0  0  0  0  0  0  0  0  0  0
  147.3520  157.6520  133.0850 C   0  0  0  0  0  0  0  0  0  0  0  0
  146.0140  157.3260  133.3610 C   0  0  0  0  0  0  0  0  0  0  0  0
  145.1290  158.3680  133.6210 C   0  0  0  0  0  0  0  0  0  0  0  0
  143.7930  158.3340  133.9480 C   0  0  0  0  0  0  0  0  0  0  0  0
  143.4180  159.6650  134.1180 C   0  0  0  0  0  0  0  0  0  0  0  0
  142.0310  160.0900  134.3940 C   0  0  0  0  0  0  0  0  0  0  0  0
  141.3480  160.9800  133.5150 N   0  0  0  0  0  0  0  0  0  0  0  0
  141.4230  159.6210  135.3930 O   0  0  0  0  0  0  0  0  0  0  0  0
  144.4840  160.4910  133.9130 N   0  0  0  0  0  0  0  0  0  0  0  0
  144.5360  161.9170  134.0890 C   0  0  0  0  0  0  0  0  0  0  0  0
  143.7750  162.6660  133.4200 O   0  0  0  0  0  0  0  0  0  0  0  0
  145.4460  162.4770  134.9810 O   0  0  0  0  0  0  0  0  0  0  0  0
  146.5500  163.1020  134.5350 F   0  0  0  0  0  0  0  0  0  0  0  0
  145.5230  159.6820  133.6060 C   0  0  0  0  0  0  0  0  0  0  0  0
  146.8530  160.0340  133.3520 C   0  0  0  0  0  0  0  0  0  0  0  0
  149.6996  161.2566  129.2366 H   0  0  0  0  0  0  0  0  0  0  0  0
  150.9381  160.0882  128.6643 H   0  0  0  0  0  0  0  0  0  0  0  0
  149.2017  159.6284  128.6643 H   0  0  0  0  0  0  0  0  0  0  0  0
  149.7950  158.4036  132.7012 H   0  0  0  0  0  0  0  0  0  0  0  0
  149.6158  159.9017  133.6821 H   0  0  0  0  0  0  0  0  0  0  0  0
  148.0764  156.8508  132.8771 H   0  0  0  0  0  0  0  0  0  0  0  0
  145.6761  156.2793  133.3713 H   0  0  0  0  0  0  0  0  0  0  0  0
  143.1555  157.4438  134.0530 H   0  0  0  0  0  0  0  0  0  0  0  0
  141.8590  161.7460  133.0240 H   0  0  0  0  0  0  0  0  0  0  0  0
  147.1710  161.0869  133.3699 H   0  0  0  0  0  0  0  0  0  0  0  0
  1  2  1  0
  2  3  1  0
  3  4  2  0
  3  5  1  0
  5  6  1  0
  6  7  2  0
  7  8  1  0
  8  9  2  0
  9 10  1  0
 10 11  2  0
 11 12  1  0
 12 13  1  0
 12 14  2  0
 11 15  1  0
 15 16  1  0
 16 17  2  0
 16 18  1  0
 18 19  1  0
 15 20  1  0
 20 21  2  0
 21  6  1  0
 20  9  1  0
  1 22  1  0
  1 23  1  0
  1 24  1  0
  5 25  1  0
  5 26  1  0
  7 27  1  0
  8 28  1  0
 10 29  1  0
 13 30  1  0
 21 31  1  0
M  CHG  1  13  -1
M  END
>  <UniqueID>  (49) 
49

>  <SMILES>  (49) 
COC(=O)Cc1ccc2cc(C([NH-])=O)n(C(=O)OF)c2c1

>  <Energy>  (49) 
66.3041974485904

>  <Genealogy>  (49) 
COC(=O)Cc1ccc2cc(C([NH-])=O)n(C(=O)OF)c2c1 (protonated)
COC(=O)Cc1ccc2cc(C([NH-])=O)n(C(=O)OF)c2c1 (3D coordinates assigned)
COC(=O)Cc1ccc2cc(C([NH-])=O)n(C(=O)OF)c2c1 (optimized conformer: 66.3041974485904 kcal/mol)

>  <smiles>  (49) 
COC(=O)Cc1ccc2cc(C(N)=O)n(C(=O)OF)c2c1

>  <score_type>  (49) 
oracle

>  <origin>  (49) 
adg

>  <m_score__min__energy>  (49) 
-6.3200000000000003

>  <m_primary>  (49) 
energy

$$$$
49:0
     RDKit          3D

 45 47  0  0  0  0  0  0  0  0999 V2000
  141.9380  157.3290  135.4640 N   0  0  0  0  0  0  0  0  0  0  0  0
  142.4980  156.8510  134.2460 C   0  0  0  0  0  0  0  0  0  0  0  0
  143.1570  157.6340  133.5120 O   0  0  0  0  0  0  0  0  0  0  0  0
  142.3330  155.4350  133.8720 C   0  0  0  0  0  0  0  0  0  0  0  0
  143.3740  154.5170  133.9360 C   0  0  0  0  0  0  0  0  0  0  0  0
  142.8420  153.3360  133.4780 C   0  0  0  0  0  0  0  0  0  0  0  0
  143.4440  152.0910  133.3450 C   0  0  0  0  0  0  0  0  0  0  0  0
  142.6640  151.0300  132.8620 C   0  0  0  0  0  0  0  0  0  0  0  0
  141.2980  151.2250  132.5130 C   0  0  0  0  0  0  0  0  0  0  0  0
  140.5070  150.1290  131.9890 N   0  0  0  0  0  0  0  0  0  0  0  0
  139.0600  150.1680  131.8510 C   0  0  0  0  0  0  0  0  0  0  0  0
  138.6800  148.9390  131.0370 C   0  0  0  0  0  0  0  0  0  0  0  0
  139.8900  148.0170  131.0850 C   0  0  0  0  0  0  0  0  0  0  0  0
  141.0720  148.9030  131.4500 C   0  0  0  0  0  0  0  0  0  0  0  0
  140.7230  152.5080  132.6850 C   0  0  0  0  0  0  0  0  0  0  0  0
  141.5240  153.5570  133.1640 C   0  0  0  0  0  0  0  0  0  0  0  0
  141.1880  154.8510  133.4090 N   0  0  0  0  0  0  0  0  0  0  0  0
  139.8730  155.4540  133.3460 C   0  0  0  0  0  0  0  0  0  0  0  0
  138.9320  154.8830  132.7350 O   0  0  0  0  0  0  0  0  0  0  0  0
  139.6310  156.6690  133.9850 O   0  0  0  0  0  0  0  0  0  0  0  0
  138.7530  157.6670  133.4690 C   0  0  0  0  0  0  0  0  0  0  0  0
  139.4850  158.4950  132.4100 C   0  0  0  0  0  0  0  0  0  0  0  0
  138.6770  158.5920  131.1070 C   0  0  0  0  0  0  0  0  0  0  0  0
  138.0830  159.9580  130.9630 C   0  0  0  0  0  0  0  0  0  0  0  0
  138.8070  160.9800  131.0900 O   0  0  0  0  0  0  0  0  0  0  0  0
  136.7130  160.1040  130.7570 O   0  0  0  0  0  0  0  0  0  0  0  0
  140.9030  157.3780  135.5930 H   0  0  0  0  0  0  0  0  0  0  0  0
  144.4033  154.6971  134.2797 H   0  0  0  0  0  0  0  0  0  0  0  0
  144.5010  151.9418  133.6106 H   0  0  0  0  0  0  0  0  0  0  0  0
  143.1146  150.0326  132.7513 H   0  0  0  0  0  0  0  0  0  0  0  0
  138.5811  150.1334  132.8407 H   0  0  0  0  0  0  0  0  0  0  0  0
  138.7282  151.0941  131.3589 H   0  0  0  0  0  0  0  0  0  0  0  0
  137.8033  148.4432  131.4792 H   0  0  0  0  0  0  0  0  0  0  0  0
  138.4156  149.2051  130.0030 H   0  0  0  0  0  0  0  0  0  0  0  0
  139.7468  147.2364  131.8467 H   0  0  0  0  0  0  0  0  0  0  0  0
  140.0484  147.5064  130.1236 H   0  0  0  0  0  0  0  0  0  0  0  0
  141.7007  148.4084  132.2050 H   0  0  0  0  0  0  0  0  0  0  0  0
  141.7077  149.1047  130.5752 H   0  0  0  0  0  0  0  0  0  0  0  0
  139.6631  152.6802  132.4465 H   0  0  0  0  0  0  0  0  0  0  0  0
  137.8758  157.1836  133.0142 H   0  0  0  0  0  0  0  0  0  0  0  0
  138.4266  158.3257  134.2873 H   0  0  0  0  0  0  0  0  0  0  0  0
  139.6517  159.5090  132.8026 H   0  0  0  0  0  0  0  0  0  0  0  0
  140.4401  157.9977  132.1853 H   0  0  0  0  0  0  0  0  0  0  0  0
  139.3411  158.3935  130.2529 H   0  0  0  0  0  0  0  0  0  0  0  0
  137.8650  157.8504  131.1342 H   0  0  0  0  0  0  0  0  0  0  0  0
  1  2  1  0
  2  3  2  0
  2  4  1  0
  4  5  2  0
  5  6  1  0
  6  7  2  0
  7  8  1  0
  8  9  2  0
  9 10  1  0
 10 11  1  0
 11 12  1  0
 12 13  1  0
 13 14  1  0
  9 15  1  0
 15 16  2  0
 16 17  1  0
 17 18  1  0
 18 19  2  0
 18 20  1  0
 20 21  1  0
 21 22  1  0
 22 23  1  0
 23 24  1  0
 24 25  2  0
 24 26  1  0
 17  4  1  0
 16  6  1  0
 14 10  1  0
  1 27  1  0
  5 28  1  0
  7 29  1  0
  8 30  1  0
 11 31  1  0
 11 32  1  0
 12 33  1  0
 12 34  1  0
 13 35  1  0
 13 36  1  0
 14 37  1  0
 14 38  1  0
 15 39  1  0
 21 40  1  0
 21 41  1  0
 22 42  1  0
 22 43  1  0
 23 44  1  0
 23 45  1  0
M  CHG  2   1  -1  26  -1
M  END
>  <UniqueID>  (50) 
50

>  <SMILES>  (50) 
[NH-]C(=O)c1cc2ccc(N3CCCC3)cc2n1C(=O)OCCCC(=O)[O-]

>  <Energy>  (50) 
81.01350814507325

>  <Genealogy>  (50) 
[NH-]C(=O)c1cc2ccc(N3CCCC3)cc2n1C(=O)OCCCC(=O)[O-] (protonated)
[NH-]C(=O)c1cc2ccc(N3CCCC3)cc2n1C(=O)OCCCC(=O)[O-] (3D coordinates assigned)
[NH-]C(=O)c1cc2ccc(N3CCCC3)cc2n1C(=O)OCCCC(=O)[O-] (nonaromatic ring conformer: 81.01350814507325 kcal/mol)

>  <smiles>  (50) 
NC(=O)c1cc2ccc(N3CCCC3)cc2n1C(=O)OCCCC(=O)O

>  <score_type>  (50) 
oracle

>  <origin>  (50) 
adg

>  <m_score__min__energy>  (50) 
-7.6600000000000001

>  <m_primary>  (50) 
energy

$$$$
50:0
     RDKit          3D

 36 37  0  0  0  0  0  0  0  0999 V2000
  146.9700  153.6540  133.1220 C   0  0  0  0  0  0  0  0  0  0  0  0
  148.0320  154.6480  132.9220 N   0  0  0  0  0  0  0  0  0  0  0  0
  149.3910  154.1810  132.6140 C   0  0  0  0  0  0  0  0  0  0  0  0
  147.7460  156.0670  133.0250 C   0  0  0  0  0  0  0  0  0  0  0  0
  148.7900  157.0290  132.9140 C   0  0  0  0  0  0  0  0  0  0  0  0
  148.5220  158.4040  133.0000 C   0  0  0  0  0  0  0  0  0  0  0  0
  147.2070  158.8030  133.2070 C   0  0  0  0  0  0  0  0  0  0  0  0
  146.6700  160.0660  133.3040 C   0  0  0  0  0  0  0  0  0  0  0  0
  145.3040  159.8720  133.4970 C   0  0  0  0  0  0  0  0  0  0  0  0
  144.3490  160.9760  133.7330 C   0  0  0  0  0  0  0  0  0  0  0  0
  142.9820  160.8220  133.3610 N   0  0  0  0  0  0  0  0  0  0  0  0
  144.7350  162.0670  134.2270 O   0  0  0  0  0  0  0  0  0  0  0  0
  145.0090  158.5420  133.5150 N   0  0  0  0  0  0  0  0  0  0  0  0
  143.7130  157.9320  133.6140 C   0  0  0  0  0  0  0  0  0  0  0  0
  142.9530  157.9040  132.6080 O   0  0  0  0  0  0  0  0  0  0  0  0
  143.2940  157.3870  134.8330 O   0  0  0  0  0  0  0  0  0  0  0  0
  141.9830  157.5690  135.3680 C   0  0  0  0  0  0  0  0  0  0  0  0
  141.6830  159.0520  135.5700 C   0  0  0  0  0  0  0  0  0  0  0  0
  141.6990  159.3550  136.9190 F   0  0  0  0  0  0  0  0  0  0  0  0
  140.4350  159.3470  135.0530 F   0  0  0  0  0  0  0  0  0  0  0  0
  146.1860  157.9010  133.3380 C   0  0  0  0  0  0  0  0  0  0  0  0
  146.4180  156.5240  133.2360 C   0  0  0  0  0  0  0  0  0  0  0  0
  146.8079  153.5023  134.1994 H   0  0  0  0  0  0  0  0  0  0  0  0
  146.0395  154.0132  132.6582 H   0  0  0  0  0  0  0  0  0  0  0  0
  147.2670  152.7018  132.6582 H   0  0  0  0  0  0  0  0  0  0  0  0
  149.9356  153.9939  133.5512 H   0  0  0  0  0  0  0  0  0  0  0  0
  149.3354  153.2504  132.0301 H   0  0  0  0  0  0  0  0  0  0  0  0
  149.9192  154.9492  132.0301 H   0  0  0  0  0  0  0  0  0  0  0  0
  149.8243  156.6886  132.7582 H   0  0  0  0  0  0  0  0  0  0  0  0
  149.3298  159.1447  132.9062 H   0  0  0  0  0  0  0  0  0  0  0  0
  147.2053  161.0250  133.2423 H   0  0  0  0  0  0  0  0  0  0  0  0
  142.6880  160.0740  132.6940 H   0  0  0  0  0  0  0  0  0  0  0  0
  141.2463  157.1434  134.6707 H   0  0  0  0  0  0  0  0  0  0  0  0
  141.9251  157.0609  136.3419 H   0  0  0  0  0  0  0  0  0  0  0  0
  142.4495  159.6470  135.0519 H   0  0  0  0  0  0  0  0  0  0  0  0
  145.5863  155.8087  133.3178 H   0  0  0  0  0  0  0  0  0  0  0  0
  1  2  1  0
  2  3  1  0
  2  4  1  0
  4  5  2  0
  5  6  1  0
  6  7  2  0
  7  8  1  0
  8  9  2  0
  9 10  1  0
 10 11  1  0
 10 12  2  0
  9 13  1  0
 13 14  1  0
 14 15  2  0
 14 16  1  0
 16 17  1  0
 17 18  1  0
 18 19  1  0
 18 20  1  0
 13 21  1  0
 21 22  2  0
 22  4  1  0
 21  7  1  0
  1 23  1  0
  1 24  1  0
  1 25  1  0
  3 26  1  0
  3 27  1  0
  3 28  1  0
  5 29  1  0
  6 30  1  0
  8 31  1  0
 11 32  1  0
 17 33  1  0
 17 34  1  0
 18 35  1  0
 22 36  1  0
M  CHG  1  11  -1
M  END
>  <UniqueID>  (51) 
51

>  <SMILES>  (51) 
CN(C)c1ccc2cc(C([NH-])=O)n(C(=O)OCC(F)F)c2c1

>  <Energy>  (51) 
72.38079208379733

>  <Genealogy>  (51) 
CN(C)c1ccc2cc(C([NH-])=O)n(C(=O)OCC(F)F)c2c1 (protonated)
CN(C)c1ccc2cc(C([NH-])=O)n(C(=O)OCC(F)F)c2c1 (3D coordinates assigned)
CN(C)c1ccc2cc(C([NH-])=O)n(C(=O)OCC(F)F)c2c1 (optimized conformer: 72.38079208379733 kcal/mol)

>  <smiles>  (51) 
CN(C)c1ccc2cc(C(N)=O)n(C(=O)OCC(F)F)c2c1

>  <score_type>  (51) 
oracle

>  <origin>  (51) 
adg

>  <m_score__min__energy>  (51) 
-5.29

>  <m_primary>  (51) 
energy

$$$$
51:0
     RDKit          3D

 38 40  0  0  0  0  0  0  0  0999 V2000
  139.2180  159.9250  131.6580 C   0  0  0  0  0  0  0  0  0  0  0  0
  139.5600  158.6370  132.3300 C   0  0  0  0  0  0  0  0  0  0  0  0
  138.8380  157.5420  132.2620 O   0  0  0  0  0  0  0  0  0  0  0  0
  139.4900  156.6390  132.9580 C   0  0  0  0  0  0  0  0  0  0  0  0
  139.0890  155.4560  133.1160 O   0  0  0  0  0  0  0  0  0  0  0  0
  140.6060  157.1040  133.4710 O   0  0  0  0  0  0  0  0  0  0  0  0
  140.6810  158.3580  133.0900 C   0  0  0  0  0  0  0  0  0  0  0  0
  141.8030  159.2880  133.4380 C   0  0  0  0  0  0  0  0  0  0  0  0
  143.0420  158.7800  132.9460 O   0  0  0  0  0  0  0  0  0  0  0  0
  144.2700  159.0280  133.5670 C   0  0  0  0  0  0  0  0  0  0  0  0
  144.4620  160.1050  134.1930 O   0  0  0  0  0  0  0  0  0  0  0  0
  145.3130  158.0410  133.5040 N   0  0  0  0  0  0  0  0  0  0  0  0
  145.2970  156.7850  134.0310 C   0  0  0  0  0  0  0  0  0  0  0  0
  144.1290  156.1210  134.6450 C   0  0  0  0  0  0  0  0  0  0  0  0
  142.8270  156.2270  134.0670 N   0  0  0  0  0  0  0  0  0  0  0  0
  144.2930  155.4050  135.6690 O   0  0  0  0  0  0  0  0  0  0  0  0
  146.5310  156.1650  133.8600 C   0  0  0  0  0  0  0  0  0  0  0  0
  147.3080  157.0820  133.1920 C   0  0  0  0  0  0  0  0  0  0  0  0
  148.6280  156.9910  132.7610 C   0  0  0  0  0  0  0  0  0  0  0  0
  149.1880  158.1040  132.1140 C   0  0  0  0  0  0  0  0  0  0  0  0
  148.4370  159.2940  131.9330 C   0  0  0  0  0  0  0  0  0  0  0  0
  149.0380  160.4690  131.2040 C   0  0  0  0  0  0  0  0  0  0  0  0
  148.4950  161.6380  131.7020 F   0  0  0  0  0  0  0  0  0  0  0  0
  150.4110  160.4990  131.3760 F   0  0  0  0  0  0  0  0  0  0  0  0
  148.7730  160.3900  129.8480 F   0  0  0  0  0  0  0  0  0  0  0  0
  147.0910  159.3390  132.3660 C   0  0  0  0  0  0  0  0  0  0  0  0
  146.5510  158.2070  132.9900 C   0  0  0  0  0  0  0  0  0  0  0  0
  139.0141  160.6927  132.4189 H   0  0  0  0  0  0  0  0  0  0  0  0
  140.0620  160.2463  131.0299 H   0  0  0  0  0  0  0  0  0  0  0  0
  138.3258  159.7853  131.0299 H   0  0  0  0  0  0  0  0  0  0  0  0
  141.6105  160.2726  132.9870 H   0  0  0  0  0  0  0  0  0  0  0  0
  141.8644  159.3785  134.5326 H   0  0  0  0  0  0  0  0  0  0  0  0
  142.6870  156.6610  133.1290 H   0  0  0  0  0  0  0  0  0  0  0  0
  142.0060  155.7890  134.5410 H   0  0  0  0  0  0  0  0  0  0  0  0
  146.8226  155.1567  134.1889 H   0  0  0  0  0  0  0  0  0  0  0  0
  149.2149  156.0747  132.9224 H   0  0  0  0  0  0  0  0  0  0  0  0
  150.2222  158.0528  131.7427 H   0  0  0  0  0  0  0  0  0  0  0  0
  146.4820  160.2427  132.2160 H   0  0  0  0  0  0  0  0  0  0  0  0
  1  2  1  0
  2  3  1  0
  3  4  1  0
  4  5  2  0
  4  6  1  0
  6  7  1  0
  7  8  1  0
  8  9  1  0
  9 10  1  0
 10 11  2  0
 10 12  1  0
 12 13  1  0
 13 14  1  0
 14 15  1  0
 14 16  2  0
 13 17  2  0
 17 18  1  0
 18 19  2  0
 19 20  1  0
 20 21  2  0
 21 22  1  0
 22 23  1  0
 22 24  1  0
 22 25  1  0
 21 26  1  0
 26 27  2  0
  7  2  2  0
 27 12  1  0
 27 18  1  0
  1 28  1  0
  1 29  1  0
  1 30  1  0
  8 31  1  0
  8 32  1  0
 15 33  1  0
 15 34  1  0
 17 35  1  0
 19 36  1  0
 20 37  1  0
 26 38  1  0
M  END
>  <UniqueID>  (52) 
52

>  <SMILES>  (52) 
Cc1oc(=O)oc1COC(=O)n1c(C(N)=O)cc2ccc(C(F)(F)F)cc21

>  <Energy>  (52) 
108.9326432553951

>  <Genealogy>  (52) 
Cc1oc(=O)oc1COC(=O)n1c(C(N)=O)cc2ccc(C(F)(F)F)cc21 (3D coordinates assigned)
Cc1oc(=O)oc1COC(=O)n1c(C(N)=O)cc2ccc(C(F)(F)F)cc21 (optimized conformer: 108.9326432553951 kcal/mol)

>  <smiles>  (52) 
Cc1oc(=O)oc1COC(=O)n1c(C(N)=O)cc2ccc(C(F)(F)F)cc21

>  <score_type>  (52) 
oracle

>  <origin>  (52) 
adg

>  <m_score__min__energy>  (52) 
-6.5899999999999999

>  <m_primary>  (52) 
energy

$$$$
52:0
     RDKit          3D

 72 75  0  0  0  0  0  0  0  0999 V2000
  139.1610  157.2660  133.3960 C   0  0  0  0  0  0  0  0  0  0  0  0
  139.9090  157.8570  132.2710 N   0  0  0  0  0  0  0  0  0  0  0  0
  139.0210  158.7630  131.5220 C   0  0  0  0  0  0  0  0  0  0  0  0
  141.0970  158.5960  132.7540 C   0  0  0  0  0  0  0  0  0  0  0  0
  140.7390  160.0540  133.0840 C   0  0  0  0  0  0  0  0  0  0  0  0
  142.0050  160.8640  133.3900 C   0  0  0  0  0  0  0  0  0  0  0  0
  142.9480  160.0930  134.2720 C   0  0  0  0  0  0  0  0  0  0  0  0
  142.5170  159.5710  135.3370 O   0  0  0  0  0  0  0  0  0  0  0  0
  144.3400  159.9810  133.9420 N   0  0  0  0  0  0  0  0  0  0  0  0
  145.2580  160.9850  133.8460 C   0  0  0  0  0  0  0  0  0  0  0  0
  145.0500  162.3930  134.2480 C   0  0  0  0  0  0  0  0  0  0  0  0
  145.9430  163.0430  135.1500 N   0  0  0  0  0  0  0  0  0  0  0  0
  144.0940  163.0490  133.7540 O   0  0  0  0  0  0  0  0  0  0  0  0
  146.4740  160.4890  133.3730 C   0  0  0  0  0  0  0  0  0  0  0  0
  146.2700  159.1390  133.1840 C   0  0  0  0  0  0  0  0  0  0  0  0
  147.1420  158.1550  132.7270 C   0  0  0  0  0  0  0  0  0  0  0  0
  146.6610  156.8380  132.6330 C   0  0  0  0  0  0  0  0  0  0  0  0
  145.3230  156.5270  132.9890 C   0  0  0  0  0  0  0  0  0  0  0  0
  144.8380  155.1210  132.9780 C   0  0  0  0  0  0  0  0  0  0  0  0
  144.2250  154.5610  134.1090 C   0  0  0  0  0  0  0  0  0  0  0  0
  143.8960  153.2060  134.1350 C   0  0  0  0  0  0  0  0  0  0  0  0
  144.1840  152.4020  133.0190 C   0  0  0  0  0  0  0  0  0  0  0  0
  143.9530  151.0160  133.0170 O   0  0  0  0  0  0  0  0  0  0  0  0
  142.9040  150.3620  132.3000 C   0  0  0  0  0  0  0  0  0  0  0  0
  141.5460  150.9860  132.6530 C   0  0  0  0  0  0  0  0  0  0  0  0
  140.4730  149.9680  132.6510 N   0  0  0  0  0  0  0  0  0  0  0  0
  139.3160  150.4420  131.8540 C   0  0  0  0  0  0  0  0  0  0  0  0
  138.4270  149.2770  131.3970 C   0  0  0  0  0  0  0  0  0  0  0  0
  139.1620  148.3180  130.5340 N   0  0  0  0  0  0  0  0  0  0  0  0
  138.8590  148.5380  129.1100 C   0  0  0  0  0  0  0  0  0  0  0  0
  140.6260  148.3240  130.7570 C   0  0  0  0  0  0  0  0  0  0  0  0
  140.9710  148.6320  132.2220 C   0  0  0  0  0  0  0  0  0  0  0  0
  144.7180  152.9760  131.9050 N   0  0  0  0  0  0  0  0  0  0  0  0
  145.0550  154.2950  131.8640 C   0  0  0  0  0  0  0  0  0  0  0  0
  144.4630  157.5640  133.4230 C   0  0  0  0  0  0  0  0  0  0  0  0
  144.9760  158.8610  133.5310 C   0  0  0  0  0  0  0  0  0  0  0  0
  139.5958  157.6096  134.3462 H   0  0  0  0  0  0  0  0  0  0  0  0
  138.1078  157.5785  133.3405 H   0  0  0  0  0  0  0  0  0  0  0  0
  139.2214  156.1691  133.3405 H   0  0  0  0  0  0  0  0  0  0  0  0
  138.4309  159.3650  132.2286 H   0  0  0  0  0  0  0  0  0  0  0  0
  139.6259  159.4289  130.8891 H   0  0  0  0  0  0  0  0  0  0  0  0
  138.3431  158.1715  130.8891 H   0  0  0  0  0  0  0  0  0  0  0  0
  141.4823  158.1057  133.6602 H   0  0  0  0  0  0  0  0  0  0  0  0
  141.8597  158.5920  131.9614 H   0  0  0  0  0  0  0  0  0  0  0  0
  140.2216  160.5030  132.2234 H   0  0  0  0  0  0  0  0  0  0  0  0
  140.0863  160.0676  133.9694 H   0  0  0  0  0  0  0  0  0  0  0  0
  142.5140  161.1038  132.4448 H   0  0  0  0  0  0  0  0  0  0  0  0
  141.7098  161.7830  133.9175 H   0  0  0  0  0  0  0  0  0  0  0  0
  146.9690  163.0650  134.9680 H   0  0  0  0  0  0  0  0  0  0  0  0
  147.3990  161.0554  133.1899 H   0  0  0  0  0  0  0  0  0  0  0  0
  148.1771  158.4010  132.4477 H   0  0  0  0  0  0  0  0  0  0  0  0
  147.3293  156.0390  132.2794 H   0  0  0  0  0  0  0  0  0  0  0  0
  144.0026  155.1945  134.9804 H   0  0  0  0  0  0  0  0  0  0  0  0
  143.4145  152.7697  135.0226 H   0  0  0  0  0  0  0  0  0  0  0  0
  143.0821  150.4682  131.2197 H   0  0  0  0  0  0  0  0  0  0  0  0
  142.8911  149.2977  132.5775 H   0  0  0  0  0  0  0  0  0  0  0  0
  141.6086  151.4394  133.6533 H   0  0  0  0  0  0  0  0  0  0  0  0
  141.3053  151.7474  131.8965 H   0  0  0  0  0  0  0  0  0  0  0  0
  138.7160  151.1283  132.4697 H   0  0  0  0  0  0  0  0  0  0  0  0
  139.7016  150.9513  130.9585 H   0  0  0  0  0  0  0  0  0  0  0  0
  138.0573  148.7435  132.2851 H   0  0  0  0  0  0  0  0  0  0  0  0
  137.5973  149.6951  130.8081 H   0  0  0  0  0  0  0  0  0  0  0  0
  137.9719  149.1821  129.0191 H   0  0  0  0  0  0  0  0  0  0  0  0
  139.7170  149.0249  128.6235 H   0  0  0  0  0  0  0  0  0  0  0  0
  138.6617  147.5714  128.6235 H   0  0  0  0  0  0  0  0  0  0  0  0
  141.0316  147.3358  130.4944 H   0  0  0  0  0  0  0  0  0  0  0  0
  141.0681  149.1090  130.1259 H   0  0  0  0  0  0  0  0  0  0  0  0
  140.5151  147.8623  132.8621 H   0  0  0  0  0  0  0  0  0  0  0  0
  142.0670  148.6353  132.3161 H   0  0  0  0  0  0  0  0  0  0  0  0
  144.9200  152.3810  131.0710 H   0  0  0  0  0  0  0  0  0  0  0  0
  145.5007  154.7163  130.9508 H   0  0  0  0  0  0  0  0  0  0  0  0
  143.4119  157.3542  133.6705 H   0  0  0  0  0  0  0  0  0  0  0  0
  1  2  1  0
  2  3  1  0
  2  4  1  0
  4  5  1  0
  5  6  1  0
  6  7  1  0
  7  8  2  0
  7  9  1  0
  9 10  1  0
 10 11  1  0
 11 12  1  0
 11 13  2  0
 10 14  2  0
 14 15  1  0
 15 16  2  0
 16 17  1  0
 17 18  2  0
 18 19  1  0
 19 20  2  0
 20 21  1  0
 21 22  2  0
 22 23  1  0
 23 24  1  0
 24 25  1  0
 25 26  1  0
 26 27  1  0
 27 28  1  0
 28 29  1  0
 29 30  1  0
 29 31  1  0
 31 32  1  0
 22 33  1  0
 33 34  2  0
 18 35  1  0
 35 36  2  0
 36  9  1  0
 36 15  1  0
 34 19  1  0
 32 26  1  0
  1 37  1  0
  1 38  1  0
  1 39  1  0
  3 40  1  0
  3 41  1  0
  3 42  1  0
  4 43  1  0
  4 44  1  0
  5 45  1  0
  5 46  1  0
  6 47  1  0
  6 48  1  0
 12 49  1  0
 14 50  1  0
 16 51  1  0
 17 52  1  0
 20 53  1  0
 21 54  1  0
 24 55  1  0
 24 56  1  0
 25 57  1  0
 25 58  1  0
 27 59  1  0
 27 60  1  0
 28 61  1  0
 28 62  1  0
 30 63  1  0
 30 64  1  0
 30 65  1  0
 31 66  1  0
 31 67  1  0
 32 68  1  0
 32 69  1  0
 33 70  1  0
 34 71  1  0
 35 72  1  0
M  CHG  2  12  -1  33   1
M  END
>  <UniqueID>  (53) 
53

>  <SMILES>  (53) 
CN(C)CCCC(=O)n1c(C([NH-])=O)cc2ccc(-c3ccc(OCCN4CCN(C)CC4)[nH+]c3)cc21

>  <Energy>  (53) 
127.6935454183338

>  <Genealogy>  (53) 
CN(C)CCCC(=O)n1c(C([NH-])=O)cc2ccc(-c3ccc(OCCN4CCN(C)CC4)[nH+]c3)cc21 (protonated)
CN(C)CCCC(=O)n1c(C([NH-])=O)cc2ccc(-c3ccc(OCCN4CCN(C)CC4)[nH+]c3)cc21 (3D coordinates assigned)
CN(C)CCCC(=O)n1c(C([NH-])=O)cc2ccc(-c3ccc(OCCN4CCN(C)CC4)[nH+]c3)cc21 (nonaromatic ring conformer: 127.6935454183338 kcal/mol)

>  <smiles>  (53) 
CN(C)CCCC(=O)n1c(C(N)=O)cc2ccc(-c3ccc(OCCN4CCN(C)CC4)nc3)cc21

>  <score_type>  (53) 
oracle

>  <origin>  (53) 
adg

>  <m_score__min__energy>  (53) 
-10.640000000000001

>  <m_primary>  (53) 
energy

$$$$
53:0
     RDKit          3D

 37 39  0  0  0  0  0  0  0  0999 V2000
  139.4760  158.2330  136.8480 N   0  0  0  0  0  0  0  0  0  0  0  0
  140.8100  157.7320  136.8510 C   0  0  0  0  0  0  0  0  0  0  0  0
  141.7070  158.3650  137.4690 O   0  0  0  0  0  0  0  0  0  0  0  0
  141.1340  156.4950  136.1110 C   0  0  0  0  0  0  0  0  0  0  0  0
  141.7120  155.3690  136.6950 C   0  0  0  0  0  0  0  0  0  0  0  0
  141.7800  154.4310  135.6890 C   0  0  0  0  0  0  0  0  0  0  0  0
  142.2630  153.1260  135.7070 C   0  0  0  0  0  0  0  0  0  0  0  0
  142.2150  152.3890  134.5110 C   0  0  0  0  0  0  0  0  0  0  0  0
  141.7050  152.9720  133.3210 C   0  0  0  0  0  0  0  0  0  0  0  0
  141.6300  152.2200  132.0980 N   0  0  0  0  0  0  0  0  0  0  0  0
  141.1640  150.8620  132.0070 C   0  0  0  0  0  0  0  0  0  0  0  0
  141.8020  149.8220  132.7050 C   0  0  0  0  0  0  0  0  0  0  0  0
  141.3480  148.5050  132.5790 C   0  0  0  0  0  0  0  0  0  0  0  0
  140.2650  148.2150  131.7450 C   0  0  0  0  0  0  0  0  0  0  0  0
  139.6380  149.2400  131.0290 C   0  0  0  0  0  0  0  0  0  0  0  0
  138.2860  148.8730  129.9730 Cl  0  0  0  0  0  0  0  0  0  0  0  0
  140.0920  150.5580  131.1540 C   0  0  0  0  0  0  0  0  0  0  0  0
  141.2030  154.2910  133.3490 C   0  0  0  0  0  0  0  0  0  0  0  0
  141.2570  154.9950  134.5550 C   0  0  0  0  0  0  0  0  0  0  0  0
  140.8620  156.2610  134.7980 N   0  0  0  0  0  0  0  0  0  0  0  0
  140.3200  157.1700  133.8300 C   0  0  0  0  0  0  0  0  0  0  0  0
  139.3740  156.8030  133.0860 O   0  0  0  0  0  0  0  0  0  0  0  0
  141.0550  158.7860  133.5930 P   0  0  2  0  0  0  0  0  0  0  0  0
  140.6000  159.3560  132.2690 O   0  0  0  0  0  0  0  0  0  0  0  0
  142.7390  158.6350  133.5870 O   0  0  0  0  0  0  0  0  0  0  0  0
  140.5890  159.8280  134.8420 O   0  0  0  0  0  0  0  0  0  0  0  0
  139.2460  159.1460  136.3950 H   0  0  0  0  0  0  0  0  0  0  0  0
  142.0433  155.2541  137.7376 H   0  0  0  0  0  0  0  0  0  0  0  0
  142.6699  152.6848  136.6288 H   0  0  0  0  0  0  0  0  0  0  0  0
  142.5762  151.3501  134.4968 H   0  0  0  0  0  0  0  0  0  0  0  0
  141.9390  152.6900  131.2160 H   0  0  0  0  0  0  0  0  0  0  0  0
  142.6623  150.0449  133.3533 H   0  0  0  0  0  0  0  0  0  0  0  0
  141.8439  147.6970  133.1368 H   0  0  0  0  0  0  0  0  0  0  0  0
  139.9052  147.1797  131.6515 H   0  0  0  0  0  0  0  0  0  0  0  0
  139.6055  151.3605  130.5801 H   0  0  0  0  0  0  0  0  0  0  0  0
  140.7801  154.7529  132.4447 H   0  0  0  0  0  0  0  0  0  0  0  0
  140.8730  159.3700  135.6730 H   0  0  0  0  0  0  0  0  0  0  0  0
  1  2  1  0
  2  3  2  0
  2  4  1  0
  4  5  2  0
  5  6  1  0
  6  7  2  0
  7  8  1  0
  8  9  2  0
  9 10  1  0
 10 11  1  0
 11 12  2  0
 12 13  1  0
 13 14  2  0
 14 15  1  0
 15 16  1  0
 15 17  2  0
  9 18  1  0
 18 19  2  0
 19 20  1  0
 20 21  1  0
 21 22  2  0
 21 23  1  0
 23 24  2  0
 23 25  1  6
 23 26  1  0
 20  4  1  0
 19  6  1  0
 17 11  1  0
  1 27  1  0
  5 28  1  0
  7 29  1  0
  8 30  1  0
 10 31  1  0
 12 32  1  0
 13 33  1  0
 14 34  1  0
 17 35  1  0
 18 36  1  0
 26 37  1  0
M  CHG  2   1  -1  25  -1
M  END
>  <UniqueID>  (54) 
54

>  <SMILES>  (54) 
[NH-]C(=O)c1cc2ccc(Nc3cccc(Cl)c3)cc2n1C(=O)[P@](=O)([O-])O

>  <Energy>  (54) 
81.40635751286545

>  <Genealogy>  (54) 
[NH-]C(=O)c1cc2ccc(Nc3cccc(Cl)c3)cc2n1C(=O)P(=O)([O-])O (protonated)
[NH-]C(=O)c1cc2ccc(Nc3cccc(Cl)c3)cc2n1C(=O)[P@](=O)([O-])O (chirality)
[NH-]C(=O)c1cc2ccc(Nc3cccc(Cl)c3)cc2n1C(=O)[P@](=O)([O-])O (3D coordinates assigned)
[NH-]C(=O)c1cc2ccc(Nc3cccc(Cl)c3)cc2n1C(=O)[P@](=O)([O-])O (optimized conformer: 81.40635751286545 kcal/mol)

>  <smiles>  (54) 
NC(=O)c1cc2ccc(Nc3cccc(Cl)c3)cc2n1C(=O)P(=O)(O)O

>  <score_type>  (54) 
oracle

>  <origin>  (54) 
adg

>  <m_score__min__energy>  (54) 
-8.3900000000000006

>  <m_primary>  (54) 
energy

$$$$
54:0
     RDKit          3D

 52 54  0  0  0  0  0  0  0  0999 V2000
  141.9830  155.2670  136.8610 C   0  0  0  0  0  0  0  0  0  0  0  0
  140.9760  156.4000  136.6270 C   0  0  0  0  0  0  0  0  0  0  0  0
  141.1990  157.2360  135.3190 C   0  0  0  0  0  0  0  0  0  0  0  0
  142.5420  157.1240  134.9000 O   0  0  0  0  0  0  0  0  0  0  0  0
  140.8120  158.7320  135.6150 C   0  0  0  0  0  0  0  0  0  0  0  0
  140.6650  159.1160  137.0950 C   0  0  0  0  0  0  0  0  0  0  0  0
  140.2870  156.6260  134.1990 C   0  0  2  0  0  0  0  0  0  0  0  0
  141.0400  155.6690  133.3850 N   0  0  0  0  0  0  0  0  0  0  0  0
  140.6720  154.3020  133.1680 C   0  0  0  0  0  0  0  0  0  0  0  0
  139.4630  153.9970  132.9840 O   0  0  0  0  0  0  0  0  0  0  0  0
  141.6880  153.2820  133.1400 N   0  0  0  0  0  0  0  0  0  0  0  0
  143.0350  153.4540  133.2630 C   0  0  0  0  0  0  0  0  0  0  0  0
  143.7140  154.7050  133.6500 C   0  0  0  0  0  0  0  0  0  0  0  0
  143.5350  155.8990  132.8900 N   0  0  0  0  0  0  0  0  0  0  0  0
  144.4130  154.7340  134.6970 O   0  0  0  0  0  0  0  0  0  0  0  0
  143.7110  152.2620  133.0250 C   0  0  0  0  0  0  0  0  0  0  0  0
  142.7310  151.3350  132.7620 C   0  0  0  0  0  0  0  0  0  0  0  0
  142.8420  149.9860  132.4430 C   0  0  0  0  0  0  0  0  0  0  0  0
  141.6620  149.2710  132.1780 C   0  0  0  0  0  0  0  0  0  0  0  0
  140.4020  149.9160  132.2310 C   0  0  0  0  0  0  0  0  0  0  0  0
  139.1430  149.1520  131.9310 C   0  0  0  0  0  0  0  0  0  0  0  0
  139.4060  148.1730  130.9890 F   0  0  0  0  0  0  0  0  0  0  0  0
  138.1790  150.0140  131.4360 F   0  0  0  0  0  0  0  0  0  0  0  0
  140.3280  151.2900  132.5520 C   0  0  0  0  0  0  0  0  0  0  0  0
  141.5170  151.9740  132.8340 C   0  0  0  0  0  0  0  0  0  0  0  0
  139.7180  157.6510  133.2570 C   0  0  0  0  0  0  0  0  0  0  0  0
  138.3660  157.9020  133.0510 C   0  0  0  0  0  0  0  0  0  0  0  0
  138.1270  158.8770  132.0750 C   0  0  0  0  0  0  0  0  0  0  0  0
  139.2850  159.3870  131.5000 C   0  0  0  0  0  0  0  0  0  0  0  0
  140.6060  158.6250  132.2060 S   0  0  0  0  0  0  0  0  0  0  0  0
  142.1186  155.1144  137.9419 H   0  0  0  0  0  0  0  0  0  0  0  0
  141.6050  154.3404  136.4045 H   0  0  0  0  0  0  0  0  0  0  0  0
  142.9476  155.5337  136.4045 H   0  0  0  0  0  0  0  0  0  0  0  0
  139.9705  155.9564  136.5794 H   0  0  0  0  0  0  0  0  0  0  0  0
  141.1090  157.1024  137.4630 H   0  0  0  0  0  0  0  0  0  0  0  0
  142.7310  156.1700  134.7000 H   0  0  0  0  0  0  0  0  0  0  0  0
  141.5921  159.3729  135.1782 H   0  0  0  0  0  0  0  0  0  0  0  0
  139.8131  158.8694  135.1753 H   0  0  0  0  0  0  0  0  0  0  0  0
  140.9871  158.2745  137.7259 H   0  0  0  0  0  0  0  0  0  0  0  0
  141.2901  159.9954  137.3095 H   0  0  0  0  0  0  0  0  0  0  0  0
  139.6125  159.3532  137.3095 H   0  0  0  0  0  0  0  0  0  0  0  0
  139.4586  156.1442  134.7391 H   0  0  0  0  0  0  0  0  0  0  0  0
  144.0600  156.7670  133.1400 H   0  0  0  0  0  0  0  0  0  0  0  0
  142.8210  155.9430  132.1320 H   0  0  0  0  0  0  0  0  0  0  0  0
  144.7983  152.0965  133.0433 H   0  0  0  0  0  0  0  0  0  0  0  0
  143.8245  149.4933  132.3994 H   0  0  0  0  0  0  0  0  0  0  0  0
  141.7171  148.2014  131.9273 H   0  0  0  0  0  0  0  0  0  0  0  0
  138.7769  148.6845  132.8569 H   0  0  0  0  0  0  0  0  0  0  0  0
  139.3592  151.8102  132.5797 H   0  0  0  0  0  0  0  0  0  0  0  0
  137.5644  157.3861  133.5999 H   0  0  0  0  0  0  0  0  0  0  0  0
  137.1175  159.2083  131.7900 H   0  0  0  0  0  0  0  0  0  0  0  0
  139.3293  160.1578  130.7165 H   0  0  0  0  0  0  0  0  0  0  0  0
  1  2  1  0
  2  3  1  0
  3  4  1  0
  3  5  1  0
  5  6  1  0
  3  7  1  0
  7  8  1  0
  8  9  1  0
  9 10  2  0
  9 11  1  0
 11 12  1  0
 12 13  1  0
 13 14  1  0
 13 15  2  0
 12 16  2  0
 16 17  1  0
 17 18  2  0
 18 19  1  0
 19 20  2  0
 20 21  1  0
 21 22  1  0
 21 23  1  0
 20 24  1  0
 24 25  2  0
  7 26  1  0
 26 27  2  0
 27 28  1  0
 28 29  2  0
 29 30  1  0
 25 11  1  0
 30 26  1  0
 25 17  1  0
  1 31  1  0
  1 32  1  0
  1 33  1  0
  2 34  1  0
  2 35  1  0
  4 36  1  0
  5 37  1  0
  5 38  1  0
  6 39  1  0
  6 40  1  0
  6 41  1  0
  7 42  1  1
 14 43  1  0
 14 44  1  0
 16 45  1  0
 18 46  1  0
 19 47  1  0
 21 48  1  0
 24 49  1  0
 27 50  1  0
 28 51  1  0
 29 52  1  0
M  CHG  1   8  -1
M  END
>  <UniqueID>  (55) 
55

>  <SMILES>  (55) 
CCC(O)(CC)[C@H]([N-]C(=O)n1c(C(N)=O)cc2ccc(C(F)F)cc21)c1cccs1

>  <Energy>  (55) 
121.36254318383885

>  <Genealogy>  (55) 
CCC(O)(CC)C([N-]C(=O)n1c(C(N)=O)cc2ccc(C(F)F)cc21)c1cccs1 (protonated)
CCC(O)(CC)[C@H]([N-]C(=O)n1c(C(N)=O)cc2ccc(C(F)F)cc21)c1cccs1 (chirality)
CCC(O)(CC)[C@H]([N-]C(=O)n1c(C(N)=O)cc2ccc(C(F)F)cc21)c1cccs1 (3D coordinates assigned)
CCC(O)(CC)[C@H]([N-]C(=O)n1c(C(N)=O)cc2ccc(C(F)F)cc21)c1cccs1 (optimized conformer: 121.36254318383885 kcal/mol)

>  <smiles>  (55) 
CCC(O)(CC)C(NC(=O)n1c(C(N)=O)cc2ccc(C(F)F)cc21)c1cccs1

>  <score_type>  (55) 
oracle

>  <origin>  (55) 
adg

>  <m_score__min__energy>  (55) 
-8.6300000000000008

>  <m_primary>  (55) 
energy

$$$$
55:0
     RDKit          3D

 38 39  0  0  0  0  0  0  0  0999 V2000
  139.8270  159.5080  136.9620 H   0  0  0  0  0  0  0  0  0  0  0  0
  140.7510  159.5210  136.4940 N   0  0  0  0  0  0  0  0  0  0  0  0
  141.5070  158.3400  136.2220 C   0  0  0  0  0  0  0  0  0  0  0  0
  142.5140  158.4950  135.3650 O   0  0  0  0  0  0  0  0  0  0  0  0
  141.3420  156.9990  136.8420 C   0  0  0  0  0  0  0  0  0  0  0  0
  140.5980  156.8570  138.0100 C   0  0  0  0  0  0  0  0  0  0  0  0
  140.0763  157.6474  138.5696 H   0  0  0  0  0  0  0  0  0  0  0  0
  140.6550  155.5150  138.3150 C   0  0  0  0  0  0  0  0  0  0  0  0
  140.0680  154.8660  139.3720 C   0  0  0  0  0  0  0  0  0  0  0  0
  139.4644  155.4129  140.1113 H   0  0  0  0  0  0  0  0  0  0  0  0
  140.2680  153.4550  139.4790 C   0  0  0  0  0  0  0  0  0  0  0  0
  139.8042  152.8860  140.2983 H   0  0  0  0  0  0  0  0  0  0  0  0
  141.0810  152.7930  138.5040 C   0  0  0  0  0  0  0  0  0  0  0  0
  141.2220  151.2720  138.6490 C   0  0  0  0  0  0  0  0  0  0  0  0
  140.4170  150.8350  139.6740 F   0  0  0  0  0  0  0  0  0  0  0  0
  140.8650  150.6750  137.4790 F   0  0  0  0  0  0  0  0  0  0  0  0
  142.5370  150.9520  138.9480 F   0  0  0  0  0  0  0  0  0  0  0  0
  141.6250  153.4860  137.4530 C   0  0  0  0  0  0  0  0  0  0  0  0
  142.2218  152.9627  136.6915 H   0  0  0  0  0  0  0  0  0  0  0  0
  141.4110  154.8770  137.3590 C   0  0  0  0  0  0  0  0  0  0  0  0
  141.8330  155.8170  136.4350 N   0  0  0  0  0  0  0  0  0  0  0  0
  142.7980  155.4390  135.3900 C   0  0  0  0  0  0  0  0  0  0  0  0
  144.0140  155.5670  135.5490 O   0  0  0  0  0  0  0  0  0  0  0  0
  142.2900  155.3050  134.0200 N   0  0  0  0  0  0  0  0  0  0  0  0
  141.4950  156.2690  133.3920 C   0  0  0  0  0  0  0  0  0  0  0  0
  141.5845  157.2204  133.9368 H   0  0  0  0  0  0  0  0  0  0  0  0
  141.8394  156.3873  132.3540 H   0  0  0  0  0  0  0  0  0  0  0  0
  140.0760  155.8520  133.3750 C   0  0  0  0  0  0  0  0  0  0  0  0
  139.8306  155.4870  132.3668 H   0  0  0  0  0  0  0  0  0  0  0  0
  139.9555  155.0685  134.1377 H   0  0  0  0  0  0  0  0  0  0  0  0
  139.0910  157.0110  133.7380 C   0  0  0  0  0  0  0  0  0  0  0  0
  138.1509  156.7253  134.2325 H   0  0  0  0  0  0  0  0  0  0  0  0
  139.2820  158.3440  133.5020 C   0  0  0  0  0  0  0  0  0  0  0  0
  139.0359  159.0811  134.2805 H   0  0  0  0  0  0  0  0  0  0  0  0
  139.7980  158.7770  132.2520 C   0  0  0  0  0  0  0  0  0  0  0  0
  140.8502  158.6689  131.9499 H   0  0  0  0  0  0  0  0  0  0  0  0
  138.3910  159.6030  131.1110 I   0  0  0  0  0  0  0  0  0  0  0  0
  136.9320  160.4700  129.9120 F   0  0  0  0  0  0  0  0  0  0  0  0
  1  2  1  0
  2  3  1  0
  3  4  2  0
  3  5  1  0
  5  6  2  0
  6  7  1  0
  6  8  1  0
  8  9  2  0
  9 10  1  0
  9 11  1  0
 11 12  1  0
 11 13  2  0
 13 14  1  0
 14 15  1  0
 14 16  1  0
 14 17  1  0
 13 18  1  0
 18 19  1  0
 18 20  2  0
 20 21  1  0
 21 22  1  0
 22 23  2  0
 22 24  1  0
 24 25  1  0
 25 26  1  0
 25 27  1  0
 25 28  1  0
 28 29  1  0
 28 30  1  0
 28 31  1  0
 31 32  1  0
 31 33  2  0
 33 34  1  0
 33 35  1  0
 35 36  1  0
 35 37  2  3
 37 38  1  0
 21  5  1  0
 20  8  1  0
M  CHG  2   2  -1  24  -1
M  END
>  <UniqueID>  (56) 
56

>  <SMILES>  (56) 
[NH-]C(=O)c1cc2ccc(C(F)(F)F)cc2n1C(=O)[N-]CC/C=C\C=I/F

>  <Energy>  (56) 
172.52459675265249

>  <Genealogy>  (56) 
[NH-]C(=O)c1cc2ccc(C(F)(F)F)cc2n1C(=O)[N-]CC/C=C\C=IF (protonated)
[NH-]C(=O)c1cc2ccc(C(F)(F)F)cc2n1C(=O)[N-]CC/C=C\C=I/F (cis-trans isomerization)
[NH-]C(=O)c1cc2ccc(C(F)(F)F)cc2n1C(=O)[N-]CC/C=C\C=I/F (3D coordinates assigned)
[NH-]C(=O)c1cc2ccc(C(F)(F)F)cc2n1C(=O)[N-]CC/C=C\C=I/F (optimized conformer: 172.52459675265249 kcal/mol)

>  <smiles>  (56) 
NC(=O)c1cc2ccc(C(F)(F)F)cc2n1C(=O)NCC/C=C\C=IF

>  <score_type>  (56) 
oracle

>  <origin>  (56) 
adg

>  <m_score__min__energy>  (56) 
-8.4000000000000004

>  <m_primary>  (56) 
energy

$$$$
56:0
     RDKit          3D

 42 44  0  0  0  0  0  0  0  0999 V2000
  138.6610  157.7850  131.2120 N   0  0  0  0  0  0  0  0  0  0  0  0
  139.6460  158.5990  131.8500 C   0  0  0  0  0  0  0  0  0  0  0  0
  140.2150  159.5080  131.1880 O   0  0  0  0  0  0  0  0  0  0  0  0
  139.9860  158.4230  133.2760 C   0  0  0  0  0  0  0  0  0  0  0  0
  140.3850  159.4680  134.1080 C   0  0  0  0  0  0  0  0  0  0  0  0
  140.6590  158.8820  135.3240 C   0  0  0  0  0  0  0  0  0  0  0  0
  141.1200  159.4450  136.5100 C   0  0  0  0  0  0  0  0  0  0  0  0
  141.3540  158.5870  137.5990 C   0  0  0  0  0  0  0  0  0  0  0  0
  141.1310  157.1900  137.4860 C   0  0  0  0  0  0  0  0  0  0  0  0
  141.4140  156.3020  138.6710 C   0  0  0  0  0  0  0  0  0  0  0  0
  142.4150  155.3850  138.3950 F   0  0  0  0  0  0  0  0  0  0  0  0
  140.2660  155.6080  139.0160 F   0  0  0  0  0  0  0  0  0  0  0  0
  141.8090  157.0840  139.7440 F   0  0  0  0  0  0  0  0  0  0  0  0
  140.6740  156.6550  136.2570 C   0  0  0  0  0  0  0  0  0  0  0  0
  140.4370  157.5360  135.1980 C   0  0  0  0  0  0  0  0  0  0  0  0
  140.0170  157.2390  133.9510 N   0  0  0  0  0  0  0  0  0  0  0  0
  139.8650  155.9170  133.4190 C   0  0  0  0  0  0  0  0  0  0  0  0
  138.7490  155.5460  132.9680 O   0  0  0  0  0  0  0  0  0  0  0  0
  141.0220  154.9640  133.4340 C   0  0  0  0  0  0  0  0  0  0  0  0
  140.5850  153.5690  132.9880 C   0  0  0  0  0  0  0  0  0  0  0  0
  141.5520  152.2750  133.8420 S   0  0  0  0  0  0  0  0  0  0  0  0
  140.8770  150.9130  132.8830 C   0  0  0  0  0  0  0  0  0  0  0  0
  139.6500  151.0570  132.2210 C   0  0  0  0  0  0  0  0  0  0  0  0
  139.1200  149.9920  131.4870 C   0  0  0  0  0  0  0  0  0  0  0  0
  139.8210  148.7830  131.4020 C   0  0  0  0  0  0  0  0  0  0  0  0
  141.0520  148.6410  132.0490 C   0  0  0  0  0  0  0  0  0  0  0  0
  141.5830  149.7060  132.7850 C   0  0  0  0  0  0  0  0  0  0  0  0
  138.0120  157.1890  131.7670 H   0  0  0  0  0  0  0  0  0  0  0  0
  138.4960  157.8750  130.1850 H   0  0  0  0  0  0  0  0  0  0  0  0
  140.4642  160.5340  133.8485 H   0  0  0  0  0  0  0  0  0  0  0  0
  141.2959  160.5277  136.5930 H   0  0  0  0  0  0  0  0  0  0  0  0
  141.7146  159.0039  138.5509 H   0  0  0  0  0  0  0  0  0  0  0  0
  140.5097  155.5738  136.1388 H   0  0  0  0  0  0  0  0  0  0  0  0
  141.8014  155.3329  132.7510 H   0  0  0  0  0  0  0  0  0  0  0  0
  141.4107  154.8991  134.4610 H   0  0  0  0  0  0  0  0  0  0  0  0
  139.5186  153.4343  133.2219 H   0  0  0  0  0  0  0  0  0  0  0  0
  140.7569  153.4775  131.9054 H   0  0  0  0  0  0  0  0  0  0  0  0
  139.1032  152.0097  132.2792 H   0  0  0  0  0  0  0  0  0  0  0  0
  138.1522  150.1038  130.9762 H   0  0  0  0  0  0  0  0  0  0  0  0
  139.4029  147.9445  130.8258 H   0  0  0  0  0  0  0  0  0  0  0  0
  141.6034  147.6917  131.9795 H   0  0  0  0  0  0  0  0  0  0  0  0
  142.5554  149.5959  133.2872 H   0  0  0  0  0  0  0  0  0  0  0  0
  1  2  1  0
  2  3  2  0
  2  4  1  0
  4  5  2  0
  5  6  1  0
  6  7  2  0
  7  8  1  0
  8  9  2  0
  9 10  1  0
 10 11  1  0
 10 12  1  0
 10 13  1  0
  9 14  1  0
 14 15  2  0
 15 16  1  0
 16 17  1  0
 17 18  2  0
 17 19  1  0
 19 20  1  0
 20 21  1  0
 21 22  1  0
 22 23  2  0
 23 24  1  0
 24 25  2  0
 25 26  1  0
 26 27  2  0
 16  4  1  0
 27 22  1  0
 15  6  1  0
  1 28  1  0
  1 29  1  0
  5 30  1  0
  7 31  1  0
  8 32  1  0
 14 33  1  0
 19 34  1  0
 19 35  1  0
 20 36  1  0
 20 37  1  0
 23 38  1  0
 24 39  1  0
 25 40  1  0
 26 41  1  0
 27 42  1  0
M  END
>  <UniqueID>  (57) 
57

>  <SMILES>  (57) 
NC(=O)c1cc2ccc(C(F)(F)F)cc2n1C(=O)CCSc1ccccc1

>  <Energy>  (57) 
80.16913949649562

>  <Genealogy>  (57) 
NC(=O)c1cc2ccc(C(F)(F)F)cc2n1C(=O)CCSc1ccccc1 (3D coordinates assigned)
NC(=O)c1cc2ccc(C(F)(F)F)cc2n1C(=O)CCSc1ccccc1 (optimized conformer: 80.16913949649562 kcal/mol)

>  <smiles>  (57) 
NC(=O)c1cc2ccc(C(F)(F)F)cc2n1C(=O)CCSc1ccccc1

>  <score_type>  (57) 
oracle

>  <origin>  (57) 
adg

>  <m_score__min__energy>  (57) 
-8.6099999999999994

>  <m_primary>  (57) 
energy

$$$$
57:0
     RDKit          3D

 43 45  0  0  0  0  0  0  0  0999 V2000
  145.3600  153.2710  137.7730 N   0  0  0  0  0  0  0  0  0  0  0  0
  145.8350  153.7370  136.5130 C   0  0  0  0  0  0  0  0  0  0  0  0
  146.9860  153.4020  136.1260 O   0  0  0  0  0  0  0  0  0  0  0  0
  145.0210  154.6500  135.6840 C   0  0  0  0  0  0  0  0  0  0  0  0
  145.5700  155.6270  134.8570 C   0  0  0  0  0  0  0  0  0  0  0  0
  144.4950  156.3100  134.3350 C   0  0  0  0  0  0  0  0  0  0  0  0
  144.4610  157.3760  133.4450 C   0  0  0  0  0  0  0  0  0  0  0  0
  143.2050  157.8670  133.0510 C   0  0  0  0  0  0  0  0  0  0  0  0
  142.0060  157.2840  133.5420 C   0  0  0  0  0  0  0  0  0  0  0  0
  140.6870  157.8110  133.1040 C   0  0  0  0  0  0  0  0  0  0  0  0
  139.4310  157.4340  133.5860 C   0  0  0  0  0  0  0  0  0  0  0  0
  138.3670  158.1100  132.9750 C   0  0  0  0  0  0  0  0  0  0  0  0
  138.7770  159.0180  132.0130 C   0  0  0  0  0  0  0  0  0  0  0  0
  137.7280  160.0340  131.0480 Cl  0  0  0  0  0  0  0  0  0  0  0  0
  140.4520  158.9870  131.9140 S   0  0  0  0  0  0  0  0  0  0  0  0
  142.0880  156.1990  134.4510 C   0  0  0  0  0  0  0  0  0  0  0  0
  143.3540  155.7430  134.8390 C   0  0  0  0  0  0  0  0  0  0  0  0
  143.6600  154.7210  135.6690 N   0  0  0  0  0  0  0  0  0  0  0  0
  142.7310  153.8320  136.3090 C   0  0  0  0  0  0  0  0  0  0  0  0
  142.0050  153.0690  135.6130 O   0  0  0  0  0  0  0  0  0  0  0  0
  142.6490  153.8040  137.7030 O   0  0  0  0  0  0  0  0  0  0  0  0
  141.8910  154.7500  138.4500 C   0  0  0  0  0  0  0  0  0  0  0  0
  141.0300  155.5740  137.4950 C   0  0  0  0  0  0  0  0  0  0  0  0
  140.9910  157.0490  137.9180 C   0  0  0  0  0  0  0  0  0  0  0  0
  140.2440  157.9250  136.9030 C   0  0  0  0  0  0  0  0  0  0  0  0
  141.1330  158.9820  136.3220 C   0  0  0  0  0  0  0  0  0  0  0  0
  142.3310  159.0780  136.6960 O   0  0  0  0  0  0  0  0  0  0  0  0
  140.6270  159.8820  135.3930 O   0  0  0  0  0  0  0  0  0  0  0  0
  144.7080  153.8480  138.3490 H   0  0  0  0  0  0  0  0  0  0  0  0
  146.6365  155.8133  134.6623 H   0  0  0  0  0  0  0  0  0  0  0  0
  145.3898  157.8224  133.0602 H   0  0  0  0  0  0  0  0  0  0  0  0
  143.1491  158.7149  132.3524 H   0  0  0  0  0  0  0  0  0  0  0  0
  139.2907  156.6771  134.3718 H   0  0  0  0  0  0  0  0  0  0  0  0
  137.3119  157.9370  133.2334 H   0  0  0  0  0  0  0  0  0  0  0  0
  141.1761  155.7252  134.8434 H   0  0  0  0  0  0  0  0  0  0  0  0
  141.2435  154.2203  139.1643 H   0  0  0  0  0  0  0  0  0  0  0  0
  142.5721  155.4161  138.9999 H   0  0  0  0  0  0  0  0  0  0  0  0
  141.4494  155.5023  136.4806 H   0  0  0  0  0  0  0  0  0  0  0  0
  140.0045  155.1768  137.5187 H   0  0  0  0  0  0  0  0  0  0  0  0
  140.4845  157.1248  138.8915 H   0  0  0  0  0  0  0  0  0  0  0  0
  142.0283  157.4105  137.9764 H   0  0  0  0  0  0  0  0  0  0  0  0
  139.8699  157.2870  136.0888 H   0  0  0  0  0  0  0  0  0  0  0  0
  139.4149  158.4241  137.4259 H   0  0  0  0  0  0  0  0  0  0  0  0
  1  2  1  0
  2  3  2  0
  2  4  1  0
  4  5  2  0
  5  6  1  0
  6  7  2  0
  7  8  1  0
  8  9  2  0
  9 10  1  0
 10 11  2  0
 11 12  1  0
 12 13  2  0
 13 14  1  0
 13 15  1  0
  9 16  1  0
 16 17  2  0
 17 18  1  0
 18 19  1  0
 19 20  2  0
 19 21  1  0
 21 22  1  0
 22 23  1  0
 23 24  1  0
 24 25  1  0
 25 26  1  0
 26 27  2  0
 26 28  1  0
 18  4  1  0
 17  6  1  0
 15 10  1  0
  1 29  1  0
  5 30  1  0
  7 31  1  0
  8 32  1  0
 11 33  1  0
 12 34  1  0
 16 35  1  0
 22 36  1  0
 22 37  1  0
 23 38  1  0
 23 39  1  0
 24 40  1  0
 24 41  1  0
 25 42  1  0
 25 43  1  0
M  CHG  2   1  -1  28  -1
M  END
>  <UniqueID>  (58) 
58

>  <SMILES>  (58) 
[NH-]C(=O)c1cc2ccc(-c3ccc(Cl)s3)cc2n1C(=O)OCCCCC(=O)[O-]

>  <Energy>  (58) 
104.1645716031235

>  <Genealogy>  (58) 
[NH-]C(=O)c1cc2ccc(-c3ccc(Cl)s3)cc2n1C(=O)OCCCCC(=O)[O-] (protonated)
[NH-]C(=O)c1cc2ccc(-c3ccc(Cl)s3)cc2n1C(=O)OCCCCC(=O)[O-] (3D coordinates assigned)
[NH-]C(=O)c1cc2ccc(-c3ccc(Cl)s3)cc2n1C(=O)OCCCCC(=O)[O-] (optimized conformer: 104.1645716031235 kcal/mol)

>  <smiles>  (58) 
NC(=O)c1cc2ccc(-c3ccc(Cl)s3)cc2n1C(=O)OCCCCC(=O)O

>  <score_type>  (58) 
oracle

>  <origin>  (58) 
adg

>  <m_score__min__energy>  (58) 
-8.9900000000000002

>  <m_primary>  (58) 
energy

$$$$
58:0
     RDKit          3D

 51 54  0  0  0  0  0  0  0  0999 V2000
  142.8500  149.5660  131.8550 N   0  0  0  0  0  0  0  0  0  0  0  0
  141.8980  150.1280  132.7590 C   0  0  0  0  0  0  0  0  0  0  0  0
  141.1460  149.3590  133.4130 O   0  0  0  0  0  0  0  0  0  0  0  0
  141.8170  151.5920  132.9560 C   0  0  0  0  0  0  0  0  0  0  0  0
  140.6190  152.3000  133.0390 C   0  0  0  0  0  0  0  0  0  0  0  0
  140.9820  153.6240  133.1250 C   0  0  0  0  0  0  0  0  0  0  0  0
  140.1890  154.7610  133.2380 C   0  0  0  0  0  0  0  0  0  0  0  0
  140.8320  156.0060  133.3380 C   0  0  0  0  0  0  0  0  0  0  0  0
  142.2500  156.0940  133.3320 C   0  0  0  0  0  0  0  0  0  0  0  0
  142.9190  157.4140  133.4540 C   0  0  0  0  0  0  0  0  0  0  0  0
  142.1650  158.5780  133.6830 C   0  0  0  0  0  0  0  0  0  0  0  0
  142.7970  159.8160  133.8090 C   0  0  0  0  0  0  0  0  0  0  0  0
  144.1860  159.9110  133.7030 C   0  0  0  0  0  0  0  0  0  0  0  0
  144.9580  158.7650  133.4610 C   0  0  0  0  0  0  0  0  0  0  0  0
  146.3930  158.8610  133.3590 N   0  0  0  0  0  0  0  0  0  0  0  0
  147.1970  157.6460  133.1570 C   0  0  0  0  0  0  0  0  0  0  0  0
  148.5950  157.9800  132.6120 C   0  0  0  0  0  0  0  0  0  0  0  0
  148.5010  159.1040  131.5630 C   0  0  0  0  0  0  0  0  0  0  0  0
  149.8700  159.3470  130.9030 C   0  0  0  0  0  0  0  0  0  0  0  0
  149.9800  160.6770  130.4700 O   0  0  0  0  0  0  0  0  0  0  0  0
  147.9250  160.4090  132.1820 C   0  0  0  0  0  0  0  0  0  0  0  0
  147.0690  160.1620  133.4360 C   0  0  0  0  0  0  0  0  0  0  0  0
  144.3180  157.5180  133.3460 C   0  0  0  0  0  0  0  0  0  0  0  0
  143.0180  154.9120  133.2150 C   0  0  0  0  0  0  0  0  0  0  0  0
  142.3500  153.6880  133.0960 C   0  0  0  0  0  0  0  0  0  0  0  0
  142.8800  152.4480  132.9940 N   0  0  0  0  0  0  0  0  0  0  0  0
  144.2780  152.1120  132.9910 C   0  0  0  0  0  0  0  0  0  0  0  0
  144.7180  151.2250  132.2130 O   0  0  0  0  0  0  0  0  0  0  0  0
  145.1560  152.7520  133.8560 O   0  0  0  0  0  0  0  0  0  0  0  0
  142.9270  148.5300  131.7530 H   0  0  0  0  0  0  0  0  0  0  0  0
  143.4530  150.1710  131.2540 H   0  0  0  0  0  0  0  0  0  0  0  0
  139.5994  151.8873  133.0363 H   0  0  0  0  0  0  0  0  0  0  0  0
  139.0915  154.6876  133.2488 H   0  0  0  0  0  0  0  0  0  0  0  0
  140.2307  156.9233  133.4219 H   0  0  0  0  0  0  0  0  0  0  0  0
  141.0699  158.5128  133.7634 H   0  0  0  0  0  0  0  0  0  0  0  0
  142.1985  160.7205  133.9926 H   0  0  0  0  0  0  0  0  0  0  0  0
  144.6774  160.8893  133.8098 H   0  0  0  0  0  0  0  0  0  0  0  0
  147.3038  157.1239  134.1193 H   0  0  0  0  0  0  0  0  0  0  0  0
  146.6826  157.0100  132.4215 H   0  0  0  0  0  0  0  0  0  0  0  0
  149.2392  158.3090  133.4407 H   0  0  0  0  0  0  0  0  0  0  0  0
  149.0207  157.0823  132.1398 H   0  0  0  0  0  0  0  0  0  0  0  0
  147.8010  158.7813  130.7783 H   0  0  0  0  0  0  0  0  0  0  0  0
  150.6657  159.1375  131.6331 H   0  0  0  0  0  0  0  0  0  0  0  0
  149.9674  158.6814  130.0327 H   0  0  0  0  0  0  0  0  0  0  0  0
  150.7090  161.0940  130.9980 H   0  0  0  0  0  0  0  0  0  0  0  0
  148.7641  161.0653  132.4559 H   0  0  0  0  0  0  0  0  0  0  0  0
  147.2702  160.8666  131.4258 H   0  0  0  0  0  0  0  0  0  0  0  0
  147.7176  160.1792  134.3243 H   0  0  0  0  0  0  0  0  0  0  0  0
  146.3063  160.9518  133.5029 H   0  0  0  0  0  0  0  0  0  0  0  0
  144.9182  156.6133  133.1695 H   0  0  0  0  0  0  0  0  0  0  0  0
  144.1172  154.9540  133.2175 H   0  0  0  0  0  0  0  0  0  0  0  0
  1  2  1  0
  2  3  2  0
  2  4  1  0
  4  5  2  0
  5  6  1  0
  6  7  2  0
  7  8  1  0
  8  9  2  0
  9 10  1  0
 10 11  2  0
 11 12  1  0
 12 13  2  0
 13 14  1  0
 14 15  1  0
 15 16  1  0
 16 17  1  0
 17 18  1  0
 18 19  1  0
 19 20  1  0
 18 21  1  0
 21 22  1  0
 14 23  2  0
  9 24  1  0
 24 25  2  0
 25 26  1  0
 26 27  1  0
 27 28  2  0
 27 29  1  0
 26  4  1  0
 25  6  1  0
 23 10  1  0
 22 15  1  0
  1 30  1  0
  1 31  1  0
  5 32  1  0
  7 33  1  0
  8 34  1  0
 11 35  1  0
 12 36  1  0
 13 37  1  0
 16 38  1  0
 16 39  1  0
 17 40  1  0
 17 41  1  0
 18 42  1  0
 19 43  1  0
 19 44  1  0
 20 45  1  0
 21 46  1  0
 21 47  1  0
 22 48  1  0
 22 49  1  0
 23 50  1  0
 24 51  1  0
M  CHG  1  29  -1
M  END
>  <UniqueID>  (59) 
59

>  <SMILES>  (59) 
NC(=O)c1cc2ccc(-c3cccc(N4CCC(CO)CC4)c3)cc2n1C(=O)[O-]

>  <Energy>  (59) 
103.40862718927339

>  <Genealogy>  (59) 
NC(=O)c1cc2ccc(-c3cccc(N4CCC(CO)CC4)c3)cc2n1C(=O)[O-] (protonated)
NC(=O)c1cc2ccc(-c3cccc(N4CCC(CO)CC4)c3)cc2n1C(=O)[O-] (3D coordinates assigned)
NC(=O)c1cc2ccc(-c3cccc(N4CCC(CO)CC4)c3)cc2n1C(=O)[O-] (nonaromatic ring conformer: 103.40862718927339 kcal/mol)

>  <smiles>  (59) 
NC(=O)c1cc2ccc(-c3cccc(N4CCC(CO)CC4)c3)cc2n1C(=O)O

>  <score_type>  (59) 
oracle

>  <origin>  (59) 
adg

>  <m_score__min__energy>  (59) 
-9.6400000000000006

>  <m_primary>  (59) 
energy

$$$$
59:0
     RDKit          3D

 40 42  0  0  0  0  0  0  0  0999 V2000
  140.3620  155.0740  139.0180 C   0  0  0  0  0  0  0  0  0  0  0  0
  141.6060  155.9380  138.7730 C   0  0  2  0  0  0  0  0  0  0  0  0
  142.0730  156.6270  140.0630 C   0  0  0  0  0  0  0  0  0  0  0  0
  141.0040  156.8050  140.9230 F   0  0  0  0  0  0  0  0  0  0  0  0
  141.3510  156.9540  137.6760 C   0  0  0  0  0  0  0  0  0  0  0  0
  141.5530  158.3420  137.9060 C   0  0  0  0  0  0  0  0  0  0  0  0
  141.3270  159.2800  136.8870 C   0  0  0  0  0  0  0  0  0  0  0  0
  140.8940  158.8110  135.6520 C   0  0  0  0  0  0  0  0  0  0  0  0
  140.6220  159.4970  134.4900 C   0  0  0  0  0  0  0  0  0  0  0  0
  140.2350  158.5250  133.5690 C   0  0  0  0  0  0  0  0  0  0  0  0
  139.7650  158.8390  132.2030 C   0  0  0  0  0  0  0  0  0  0  0  0
  138.4260  158.5290  131.8250 N   0  0  0  0  0  0  0  0  0  0  0  0
  140.5440  159.3480  131.3540 O   0  0  0  0  0  0  0  0  0  0  0  0
  140.2760  157.2870  134.1370 N   0  0  0  0  0  0  0  0  0  0  0  0
  140.0040  156.0210  133.5140 C   0  0  0  0  0  0  0  0  0  0  0  0
  139.1070  155.9340  132.6330 O   0  0  0  0  0  0  0  0  0  0  0  0
  140.7540  154.8960  133.8760 O   0  0  0  0  0  0  0  0  0  0  0  0
  142.0750  154.6510  133.4030 C   0  0  0  0  0  0  0  0  0  0  0  0
  142.9290  155.8630  133.6070 C   0  0  0  0  0  0  0  0  0  0  0  0
  142.9090  156.9340  132.8480 O   0  0  0  0  0  0  0  0  0  0  0  0
  143.7840  157.7650  133.3720 C   0  0  0  0  0  0  0  0  0  0  0  0
  144.0310  158.9040  132.9000 O   0  0  0  0  0  0  0  0  0  0  0  0
  144.3700  157.2760  134.4420 O   0  0  0  0  0  0  0  0  0  0  0  0
  143.8500  156.0860  134.6080 C   0  0  0  0  0  0  0  0  0  0  0  0
  144.1840  155.2130  135.6350 O   0  0  0  0  0  0  0  0  0  0  0  0
  140.6770  157.4790  135.4130 C   0  0  0  0  0  0  0  0  0  0  0  0
  140.9100  156.5190  136.4040 C   0  0  0  0  0  0  0  0  0  0  0  0
  140.2007  154.9620  140.1003 H   0  0  0  0  0  0  0  0  0  0  0  0
  139.4844  155.5580  138.5647 H   0  0  0  0  0  0  0  0  0  0  0  0
  140.5090  154.0826  138.5647 H   0  0  0  0  0  0  0  0  0  0  0  0
  142.4156  155.2715  138.4409 H   0  0  0  0  0  0  0  0  0  0  0  0
  142.8340  156.0024  140.5536 H   0  0  0  0  0  0  0  0  0  0  0  0
  142.4990  157.6095  139.8114 H   0  0  0  0  0  0  0  0  0  0  0  0
  141.8907  158.6852  138.8950 H   0  0  0  0  0  0  0  0  0  0  0  0
  141.4877  160.3543  137.0603 H   0  0  0  0  0  0  0  0  0  0  0  0
  140.6946  160.5819  134.3236 H   0  0  0  0  0  0  0  0  0  0  0  0
  137.9280  157.7100  132.2400 H   0  0  0  0  0  0  0  0  0  0  0  0
  142.5078  153.8041  133.9557 H   0  0  0  0  0  0  0  0  0  0  0  0
  142.0345  154.4166  132.3290 H   0  0  0  0  0  0  0  0  0  0  0  0
  140.7537  155.4497  136.1986 H   0  0  0  0  0  0  0  0  0  0  0  0
  1  2  1  0
  2  3  1  0
  3  4  1  0
  2  5  1  0
  5  6  2  0
  6  7  1  0
  7  8  2  0
  8  9  1  0
  9 10  2  0
 10 11  1  0
 11 12  1  0
 11 13  2  0
 10 14  1  0
 14 15  1  0
 15 16  2  0
 15 17  1  0
 17 18  1  0
 18 19  1  0
 19 20  1  0
 20 21  1  0
 21 22  2  0
 21 23  1  0
 23 24  1  0
 24 25  1  0
 14 26  1  0
 26 27  2  0
 27  5  1  0
 26  8  1  0
 24 19  2  0
  1 28  1  0
  1 29  1  0
  1 30  1  0
  2 31  1  6
  3 32  1  0
  3 33  1  0
  6 34  1  0
  7 35  1  0
  9 36  1  0
 12 37  1  0
 18 38  1  0
 18 39  1  0
 27 40  1  0
M  CHG  2  12  -1  25  -1
M  END
>  <UniqueID>  (60) 
60

>  <SMILES>  (60) 
C[C@H](CF)c1ccc2cc(C([NH-])=O)n(C(=O)OCc3oc(=O)oc3[O-])c2c1

>  <Energy>  (60) 
110.09534989969637

>  <Genealogy>  (60) 
CC(CF)c1ccc2cc(C([NH-])=O)n(C(=O)OCc3oc(=O)oc3[O-])c2c1 (protonated)
C[C@H](CF)c1ccc2cc(C([NH-])=O)n(C(=O)OCc3oc(=O)oc3[O-])c2c1 (chirality)
C[C@H](CF)c1ccc2cc(C([NH-])=O)n(C(=O)OCc3oc(=O)oc3[O-])c2c1 (3D coordinates assigned)
C[C@H](CF)c1ccc2cc(C([NH-])=O)n(C(=O)OCc3oc(=O)oc3[O-])c2c1 (optimized conformer: 110.09534989969637 kcal/mol)

>  <smiles>  (60) 
CC(CF)c1ccc2cc(C(N)=O)n(C(=O)OCc3oc(=O)oc3O)c2c1

>  <score_type>  (60) 
oracle

>  <origin>  (60) 
adg

>  <m_score__min__energy>  (60) 
-6.75

>  <m_primary>  (60) 
energy

$$$$
60:0
     RDKit          3D

 42 44  0  0  0  0  0  0  0  0999 V2000
  144.0470  155.1360  132.4490 C   0  0  0  0  0  0  0  0  0  0  0  0
  144.9840  154.2610  133.1720 N   0  0  0  0  0  0  0  0  0  0  0  0
  144.9020  152.8890  132.6380 C   0  0  0  0  0  0  0  0  0  0  0  0
  143.9620  152.1610  133.3490 F   0  0  0  0  0  0  0  0  0  0  0  0
  144.6920  154.2860  134.6230 C   0  0  0  0  0  0  0  0  0  0  0  0
  145.8300  154.9530  135.4090 C   0  0  0  0  0  0  0  0  0  0  0  0
  146.8070  155.6340  134.4860 C   0  0  0  0  0  0  0  0  0  0  0  0
  147.8460  154.8900  133.8740 C   0  0  0  0  0  0  0  0  0  0  0  0
  148.7340  155.5060  132.9740 C   0  0  0  0  0  0  0  0  0  0  0  0
  148.5570  156.8610  132.7100 C   0  0  0  0  0  0  0  0  0  0  0  0
  149.2470  157.6970  131.8610 C   0  0  0  0  0  0  0  0  0  0  0  0
  148.6220  158.9390  131.9740 C   0  0  0  0  0  0  0  0  0  0  0  0
  149.0530  160.1670  131.2650 C   0  0  0  0  0  0  0  0  0  0  0  0
  148.1120  161.1870  130.9220 N   0  0  0  0  0  0  0  0  0  0  0  0
  150.2610  160.3190  130.9440 O   0  0  0  0  0  0  0  0  0  0  0  0
  147.5950  158.8710  132.8650 N   0  0  0  0  0  0  0  0  0  0  0  0
  146.6690  159.9130  133.2120 C   0  0  0  0  0  0  0  0  0  0  0  0
  147.0930  161.0850  133.3970 O   0  0  0  0  0  0  0  0  0  0  0  0
  145.2360  159.6270  133.3670 C   0  0  0  0  0  0  0  0  0  0  0  0
  144.6450  158.5110  132.8850 N   0  0  0  0  0  0  0  0  0  0  0  0
  143.3090  158.4930  133.1380 C   0  0  0  0  0  0  0  0  0  0  0  0
  142.8210  159.6010  133.8180 C   0  0  0  0  0  0  0  0  0  0  0  0
  144.1130  160.6360  134.1100 S   0  0  0  0  0  0  0  0  0  0  0  0
  147.5620  157.5940  133.3000 C   0  0  0  0  0  0  0  0  0  0  0  0
  146.6520  157.0040  134.1840 C   0  0  0  0  0  0  0  0  0  0  0  0
  143.4412  155.7017  133.1722 H   0  0  0  0  0  0  0  0  0  0  0  0
  144.6127  155.8366  131.8172 H   0  0  0  0  0  0  0  0  0  0  0  0
  143.3867  154.5237  131.8172 H   0  0  0  0  0  0  0  0  0  0  0  0
  144.6085  152.9271  131.5786 H   0  0  0  0  0  0  0  0  0  0  0  0
  145.8844  152.4037  132.7349 H   0  0  0  0  0  0  0  0  0  0  0  0
  143.7620  154.8486  134.7918 H   0  0  0  0  0  0  0  0  0  0  0  0
  144.5883  153.2488  134.9745 H   0  0  0  0  0  0  0  0  0  0  0  0
  145.4026  155.7008  136.0932 H   0  0  0  0  0  0  0  0  0  0  0  0
  146.3674  154.1743  135.9701 H   0  0  0  0  0  0  0  0  0  0  0  0
  147.9591  153.8205  134.1050 H   0  0  0  0  0  0  0  0  0  0  0  0
  149.5426  154.9351  132.4941 H   0  0  0  0  0  0  0  0  0  0  0  0
  150.1088  157.4399  131.2276 H   0  0  0  0  0  0  0  0  0  0  0  0
  147.1150  161.1380  131.2260 H   0  0  0  0  0  0  0  0  0  0  0  0
  148.4270  162.0300  130.3920 H   0  0  0  0  0  0  0  0  0  0  0  0
  142.6613  157.6603  132.8263 H   0  0  0  0  0  0  0  0  0  0  0  0
  141.7751  159.7712  134.1131 H   0  0  0  0  0  0  0  0  0  0  0  0
  145.8374  157.5922  134.6317 H   0  0  0  0  0  0  0  0  0  0  0  0
  1  2  1  0
  2  3  1  0
  3  4  1  0
  2  5  1  0
  5  6  1  0
  6  7  1  0
  7  8  2  0
  8  9  1  0
  9 10  2  0
 10 11  1  0
 11 12  2  0
 12 13  1  0
 13 14  1  0
 13 15  2  0
 12 16  1  0
 16 17  1  0
 17 18  2  0
 17 19  1  0
 19 20  2  0
 20 21  1  0
 21 22  2  0
 22 23  1  0
 16 24  1  0
 24 25  2  0
 25  7  1  0
 24 10  1  0
 23 19  1  0
  1 26  1  0
  1 27  1  0
  1 28  1  0
  3 29  1  0
  3 30  1  0
  5 31  1  0
  5 32  1  0
  6 33  1  0
  6 34  1  0
  8 35  1  0
  9 36  1  0
 11 37  1  0
 14 38  1  0
 14 39  1  0
 21 40  1  0
 22 41  1  0
 25 42  1  0
M  END
>  <UniqueID>  (61) 
61

>  <SMILES>  (61) 
CN(CF)CCc1ccc2cc(C(N)=O)n(C(=O)c3nccs3)c2c1

>  <Energy>  (61) 
110.61622928246744

>  <Genealogy>  (61) 
CN(CF)CCc1ccc2cc(C(N)=O)n(C(=O)c3nccs3)c2c1 (3D coordinates assigned)
CN(CF)CCc1ccc2cc(C(N)=O)n(C(=O)c3nccs3)c2c1 (optimized conformer: 110.61622928246744 kcal/mol)

>  <smiles>  (61) 
CN(CF)CCc1ccc2cc(C(N)=O)n(C(=O)c3nccs3)c2c1

>  <score_type>  (61) 
oracle

>  <origin>  (61) 
adg

>  <m_score__min__energy>  (61) 
-7.8799999999999999

>  <m_primary>  (61) 
energy

$$$$
61:0
     RDKit          3D

 41 43  0  0  0  0  0  0  0  0999 V2000
  143.5990  154.6950  132.6280 C   0  0  0  0  0  0  0  0  0  0  0  0
  142.9100  155.4090  133.6470 O   0  0  0  0  0  0  0  0  0  0  0  0
  141.7820  156.1950  133.3890 C   0  0  0  0  0  0  0  0  0  0  0  0
  140.7110  155.6590  132.9950 O   0  0  0  0  0  0  0  0  0  0  0  0
  141.8400  157.6150  133.5980 N   0  0  0  0  0  0  0  0  0  0  0  0
  140.8170  158.4630  133.9040 C   0  0  0  0  0  0  0  0  0  0  0  0
  139.3830  158.1100  133.9600 C   0  0  0  0  0  0  0  0  0  0  0  0
  138.7370  157.5810  132.8040 N   0  0  0  0  0  0  0  0  0  0  0  0
  138.7290  158.2360  135.0280 O   0  0  0  0  0  0  0  0  0  0  0  0
  141.2940  159.7610  134.0780 C   0  0  0  0  0  0  0  0  0  0  0  0
  142.6500  159.6840  133.8620 C   0  0  0  0  0  0  0  0  0  0  0  0
  143.6230  160.6780  133.9130 C   0  0  0  0  0  0  0  0  0  0  0  0
  144.9560  160.3070  133.6640 C   0  0  0  0  0  0  0  0  0  0  0  0
  145.2860  158.9620  133.3760 C   0  0  0  0  0  0  0  0  0  0  0  0
  146.6540  158.6020  133.1290 N   0  0  0  0  0  0  0  0  0  0  0  0
  146.9690  157.1790  133.0100 C   0  0  0  0  0  0  0  0  0  0  0  0
  147.7280  159.5960  132.9280 C   0  0  2  0  0  0  0  0  0  0  0  0
  147.7980  160.2470  131.5400 C   0  0  0  0  0  0  0  0  0  0  0  0
  149.1540  159.5900  131.3080 C   0  0  2  0  0  0  0  0  0  0  0  0
  149.0980  158.6430  130.2760 O   0  0  0  0  0  0  0  0  0  0  0  0
  149.0870  158.9410  132.6900 C   0  0  0  0  0  0  0  0  0  0  0  0
  144.2760  157.9780  133.3460 C   0  0  0  0  0  0  0  0  0  0  0  0
  142.9540  158.3790  133.5730 C   0  0  0  0  0  0  0  0  0  0  0  0
  144.2926  153.9763  133.0888 H   0  0  0  0  0  0  0  0  0  0  0  0
  142.8723  154.1546  132.0036 H   0  0  0  0  0  0  0  0  0  0  0  0
  144.1649  155.4019  132.0036 H   0  0  0  0  0  0  0  0  0  0  0  0
  138.7410  156.5550  132.6090 H   0  0  0  0  0  0  0  0  0  0  0  0
  140.7097  160.6571  134.3339 H   0  0  0  0  0  0  0  0  0  0  0  0
  143.3574  161.7208  134.1409 H   0  0  0  0  0  0  0  0  0  0  0  0
  145.7488  161.0689  133.6934 H   0  0  0  0  0  0  0  0  0  0  0  0
  147.0662  156.7398  134.0138 H   0  0  0  0  0  0  0  0  0  0  0  0
  146.1619  156.6693  132.4633 H   0  0  0  0  0  0  0  0  0  0  0  0
  147.9158  157.0575  132.4633 H   0  0  0  0  0  0  0  0  0  0  0  0
  147.5312  160.2359  133.8008 H   0  0  0  0  0  0  0  0  0  0  0  0
  147.0119  159.9139  130.8464 H   0  0  0  0  0  0  0  0  0  0  0  0
  147.6767  161.3343  131.4257 H   0  0  0  0  0  0  0  0  0  0  0  0
  150.0288  160.1916  131.0201 H   0  0  0  0  0  0  0  0  0  0  0  0
  148.8690  157.7810  130.7110 H   0  0  0  0  0  0  0  0  0  0  0  0
  149.0587  157.8415  132.6695 H   0  0  0  0  0  0  0  0  0  0  0  0
  149.9063  159.0782  133.4110 H   0  0  0  0  0  0  0  0  0  0  0  0
  144.5205  156.9237  133.1495 H   0  0  0  0  0  0  0  0  0  0  0  0
  1  2  1  0
  2  3  1  0
  3  4  2  0
  3  5  1  0
  5  6  1  0
  6  7  1  0
  7  8  1  0
  7  9  2  0
  6 10  2  0
 10 11  1  0
 11 12  2  0
 12 13  1  0
 13 14  2  0
 14 15  1  0
 15 16  1  0
 15 17  1  0
 17 18  1  0
 18 19  1  0
 19 20  1  0
 19 21  1  0
 14 22  1  0
 22 23  2  0
 23  5  1  0
 23 11  1  0
 21 17  1  0
  1 24  1  0
  1 25  1  0
  1 26  1  0
  8 27  1  0
 10 28  1  0
 12 29  1  0
 13 30  1  0
 16 31  1  0
 16 32  1  0
 16 33  1  0
 17 34  1  1
 18 35  1  0
 18 36  1  0
 19 37  1  1
 20 38  1  0
 21 39  1  0
 21 40  1  0
 22 41  1  0
M  CHG  1   8  -1
M  END
>  <UniqueID>  (62) 
62

>  <SMILES>  (62) 
COC(=O)n1c(C([NH-])=O)cc2ccc(N(C)C3CC(O)C3)cc21

>  <Energy>  (62) 
145.2193035708997

>  <Genealogy>  (62) 
COC(=O)n1c(C([NH-])=O)cc2ccc(N(C)C3CC(O)C3)cc21 (protonated)
COC(=O)n1c(C([NH-])=O)cc2ccc(N(C)C3CC(O)C3)cc21 (3D coordinates assigned)
COC(=O)n1c(C([NH-])=O)cc2ccc(N(C)C3CC(O)C3)cc21 (nonaromatic ring conformer: 145.2193035708997 kcal/mol)

>  <smiles>  (62) 
COC(=O)n1c(C(N)=O)cc2ccc(N(C)C3CC(O)C3)cc21

>  <score_type>  (62) 
oracle

>  <origin>  (62) 
adg

>  <m_score__min__energy>  (62) 
-7.0300000000000002

>  <m_primary>  (62) 
energy

$$$$
62:0
     RDKit          3D

 37 38  0  0  0  0  0  0  0  0999 V2000
  142.4970  161.0050  133.8380 N   0  0  0  0  0  0  0  0  0  0  0  0
  143.9030  161.2080  133.7280 C   0  0  0  0  0  0  0  0  0  0  0  0
  144.3610  162.3810  133.7530 O   0  0  0  0  0  0  0  0  0  0  0  0
  144.8070  160.0450  133.6070 C   0  0  0  0  0  0  0  0  0  0  0  0
  146.1610  160.1440  133.2850 C   0  0  0  0  0  0  0  0  0  0  0  0
  146.6170  158.8460  133.2280 C   0  0  0  0  0  0  0  0  0  0  0  0
  147.8880  158.3550  132.9500 C   0  0  0  0  0  0  0  0  0  0  0  0
  148.0770  156.9630  132.9770 C   0  0  0  0  0  0  0  0  0  0  0  0
  147.0070  156.0900  133.3050 C   0  0  0  0  0  0  0  0  0  0  0  0
  147.2120  154.5980  133.2920 C   0  0  0  0  0  0  0  0  0  0  0  0
  146.1490  153.9640  132.6730 F   0  0  0  0  0  0  0  0  0  0  0  0
  147.3150  154.1070  134.5820 F   0  0  0  0  0  0  0  0  0  0  0  0
  148.3740  154.3040  132.6040 F   0  0  0  0  0  0  0  0  0  0  0  0
  145.7240  156.6300  133.5590 C   0  0  0  0  0  0  0  0  0  0  0  0
  145.5630  158.0180  133.5080 C   0  0  0  0  0  0  0  0  0  0  0  0
  144.4440  158.7380  133.7390 N   0  0  0  0  0  0  0  0  0  0  0  0
  143.1540  158.2240  134.0960 C   0  0  0  0  0  0  0  0  0  0  0  0
  142.8340  158.1490  135.3120 O   0  0  0  0  0  0  0  0  0  0  0  0
  142.1550  157.8580  133.0180 C   0  0  2  0  0  0  0  0  0  0  0  0
  141.4180  159.0400  132.5660 N   0  0  0  0  0  0  0  0  0  0  0  0
  141.2030  156.7120  133.4420 C   0  0  0  0  0  0  0  0  0  0  0  0
  139.7780  157.1390  133.8510 C   0  0  0  0  0  0  0  0  0  0  0  0
  139.7680  157.9920  135.0840 C   0  0  0  0  0  0  0  0  0  0  0  0
  139.3560  157.5230  136.1770 O   0  0  0  0  0  0  0  0  0  0  0  0
  140.2360  159.2990  135.0310 O   0  0  0  0  0  0  0  0  0  0  0  0
  142.1120  160.1410  134.2830 H   0  0  0  0  0  0  0  0  0  0  0  0
  146.7406  161.0630  133.1133 H   0  0  0  0  0  0  0  0  0  0  0  0
  148.7199  159.0356  132.7161 H   0  0  0  0  0  0  0  0  0  0  0  0
  149.0665  156.5446  132.7410 H   0  0  0  0  0  0  0  0  0  0  0  0
  144.8729  155.9730  133.7912 H   0  0  0  0  0  0  0  0  0  0  0  0
  142.7319  157.4691  132.1660 H   0  0  0  0  0  0  0  0  0  0  0  0
  142.1010  159.7160  132.1520 H   0  0  0  0  0  0  0  0  0  0  0  0
  140.9880  159.5210  133.3900 H   0  0  0  0  0  0  0  0  0  0  0  0
  141.1165  156.0147  132.5957 H   0  0  0  0  0  0  0  0  0  0  0  0
  141.6521  156.2688  134.3431 H   0  0  0  0  0  0  0  0  0  0  0  0
  139.3289  157.7085  133.0239 H   0  0  0  0  0  0  0  0  0  0  0  0
  139.2046  156.2262  134.0703 H   0  0  0  0  0  0  0  0  0  0  0  0
  1  2  1  0
  2  3  2  0
  2  4  1  0
  4  5  2  0
  5  6  1  0
  6  7  2  0
  7  8  1  0
  8  9  2  0
  9 10  1  0
 10 11  1  0
 10 12  1  0
 10 13  1  0
  9 14  1  0
 14 15  2  0
 15 16  1  0
 16 17  1  0
 17 18  2  0
 17 19  1  0
 19 20  1  0
 19 21  1  0
 21 22  1  0
 22 23  1  0
 23 24  2  0
 23 25  1  0
 16  4  1  0
 15  6  1  0
  1 26  1  0
  5 27  1  0
  7 28  1  0
  8 29  1  0
 14 30  1  0
 19 31  1  6
 20 32  1  0
 20 33  1  0
 21 34  1  0
 21 35  1  0
 22 36  1  0
 22 37  1  0
M  CHG  2   1  -1  25  -1
M  END
>  <UniqueID>  (63) 
63

>  <SMILES>  (63) 
[NH-]C(=O)c1cc2ccc(C(F)(F)F)cc2n1C(=O)[C@H](N)CCC(=O)[O-]

>  <Energy>  (63) 
76.72918256572002

>  <Genealogy>  (63) 
[NH-]C(=O)c1cc2ccc(C(F)(F)F)cc2n1C(=O)[C@H](N)CCC(=O)[O-] (protonated)
[NH-]C(=O)c1cc2ccc(C(F)(F)F)cc2n1C(=O)[C@H](N)CCC(=O)[O-] (3D coordinates assigned)
[NH-]C(=O)c1cc2ccc(C(F)(F)F)cc2n1C(=O)[C@H](N)CCC(=O)[O-] (optimized conformer: 76.72918256572002 kcal/mol)

>  <smiles>  (63) 
NC(=O)c1cc2ccc(C(F)(F)F)cc2n1C(=O)[C@H](N)CCC(=O)O

>  <score_type>  (63) 
oracle

>  <origin>  (63) 
adg

>  <m_score__min__energy>  (63) 
-6.7199999999999998

>  <m_primary>  (63) 
energy

$$$$
63:0
     RDKit          3D

 45 47  0  0  0  0  0  0  0  0999 V2000
  136.9010  159.6910  130.8110 C   0  0  0  0  0  0  0  0  0  0  0  0
  138.3740  159.8880  131.0080 C   0  0  0  0  0  0  0  0  0  0  0  0
  138.9620  160.7650  130.3170 O   0  0  0  0  0  0  0  0  0  0  0  0
  139.1170  159.1070  131.9710 N   0  0  0  0  0  0  0  0  0  0  0  0
  140.5800  159.2330  132.0610 C   0  0  0  0  0  0  0  0  0  0  0  0
  141.2420  157.8560  132.2350 C   0  0  0  0  0  0  0  0  0  0  0  0
  140.4910  156.9110  133.2070 C   0  0  0  0  0  0  0  0  0  0  0  0
  141.4250  156.3560  134.1360 O   0  0  0  0  0  0  0  0  0  0  0  0
  142.1800  157.1210  135.0330 C   0  0  0  0  0  0  0  0  0  0  0  0
  142.0690  156.9390  136.2760 O   0  0  0  0  0  0  0  0  0  0  0  0
  143.1120  158.0910  134.5300 N   0  0  0  0  0  0  0  0  0  0  0  0
  142.8950  159.4190  134.3170 C   0  0  0  0  0  0  0  0  0  0  0  0
  141.7000  160.1810  134.7320 C   0  0  0  0  0  0  0  0  0  0  0  0
  140.9430  159.7910  135.8740 N   0  0  0  0  0  0  0  0  0  0  0  0
  141.3710  161.2210  134.0990 O   0  0  0  0  0  0  0  0  0  0  0  0
  144.0040  160.0050  133.7110 C   0  0  0  0  0  0  0  0  0  0  0  0
  144.9200  158.9890  133.5660 C   0  0  0  0  0  0  0  0  0  0  0  0
  146.1890  159.0060  132.9990 C   0  0  0  0  0  0  0  0  0  0  0  0
  146.9020  157.7960  132.9420 C   0  0  0  0  0  0  0  0  0  0  0  0
  146.3420  156.5990  133.4600 C   0  0  0  0  0  0  0  0  0  0  0  0
  147.0910  155.2960  133.3360 C   0  0  0  0  0  0  0  0  0  0  0  0
  148.2740  155.4780  132.6410 F   0  0  0  0  0  0  0  0  0  0  0  0
  146.3300  154.3590  132.6590 F   0  0  0  0  0  0  0  0  0  0  0  0
  147.3790  154.8160  134.5990 F   0  0  0  0  0  0  0  0  0  0  0  0
  145.0370  156.6200  134.0060 C   0  0  0  0  0  0  0  0  0  0  0  0
  144.3580  157.8440  134.0670 C   0  0  0  0  0  0  0  0  0  0  0  0
  139.3580  157.6270  133.9590 C   0  0  0  0  0  0  0  0  0  0  0  0
  138.3980  158.2920  132.9650 C   0  0  0  0  0  0  0  0  0  0  0  0
  136.4056  159.6247  131.7909 H   0  0  0  0  0  0  0  0  0  0  0  0
  136.4892  160.5421  130.2488 H   0  0  0  0  0  0  0  0  0  0  0  0
  136.7273  158.7616  130.2488 H   0  0  0  0  0  0  0  0  0  0  0  0
  140.9582  159.7001  131.1397 H   0  0  0  0  0  0  0  0  0  0  0  0
  140.8252  159.8528  132.9360 H   0  0  0  0  0  0  0  0  0  0  0  0
  141.2916  157.3696  131.2496 H   0  0  0  0  0  0  0  0  0  0  0  0
  142.2359  158.0348  132.6711 H   0  0  0  0  0  0  0  0  0  0  0  0
  140.0251  156.1118  132.6118 H   0  0  0  0  0  0  0  0  0  0  0  0
  141.1420  158.8950  136.3710 H   0  0  0  0  0  0  0  0  0  0  0  0
  144.1222  161.0569  133.4119 H   0  0  0  0  0  0  0  0  0  0  0  0
  146.6221  159.9380  132.6068 H   0  0  0  0  0  0  0  0  0  0  0  0
  147.9051  157.7765  132.4910 H   0  0  0  0  0  0  0  0  0  0  0  0
  144.5662  155.6965  134.3742 H   0  0  0  0  0  0  0  0  0  0  0  0
  138.8040  156.8942  134.5640 H   0  0  0  0  0  0  0  0  0  0  0  0
  139.7925  158.4004  134.6095 H   0  0  0  0  0  0  0  0  0  0  0  0
  137.8306  157.5093  132.4402 H   0  0  0  0  0  0  0  0  0  0  0  0
  137.7270  158.9557  133.5300 H   0  0  0  0  0  0  0  0  0  0  0  0
  1  2  1  0
  2  3  2  0
  2  4  1  0
  4  5  1  0
  5  6  1  0
  6  7  1  0
  7  8  1  0
  8  9  1  0
  9 10  2  0
  9 11  1  0
 11 12  1  0
 12 13  1  0
 13 14  1  0
 13 15  2  0
 12 16  2  0
 16 17  1  0
 17 18  2  0
 18 19  1  0
 19 20  2  0
 20 21  1  0
 21 22  1  0
 21 23  1  0
 21 24  1  0
 20 25  1  0
 25 26  2  0
  7 27  1  0
 27 28  1  0
 28  4  1  0
 26 11  1  0
 26 17  1  0
  1 29  1  0
  1 30  1  0
  1 31  1  0
  5 32  1  0
  5 33  1  0
  6 34  1  0
  6 35  1  0
  7 36  1  0
 14 37  1  0
 16 38  1  0
 18 39  1  0
 19 40  1  0
 25 41  1  0
 27 42  1  0
 27 43  1  0
 28 44  1  0
 28 45  1  0
M  CHG  1  14  -1
M  END
>  <UniqueID>  (64) 
64

>  <SMILES>  (64) 
CC(=O)N1CCC(OC(=O)n2c(C([NH-])=O)cc3ccc(C(F)(F)F)cc32)CC1

>  <Energy>  (64) 
85.37104167512469

>  <Genealogy>  (64) 
CC(=O)N1CCC(OC(=O)n2c(C([NH-])=O)cc3ccc(C(F)(F)F)cc32)CC1 (protonated)
CC(=O)N1CCC(OC(=O)n2c(C([NH-])=O)cc3ccc(C(F)(F)F)cc32)CC1 (3D coordinates assigned)
CC(=O)N1CCC(OC(=O)n2c(C([NH-])=O)cc3ccc(C(F)(F)F)cc32)CC1 (nonaromatic ring conformer: 85.37104167512469 kcal/mol)

>  <smiles>  (64) 
CC(=O)N1CCC(OC(=O)n2c(C(N)=O)cc3ccc(C(F)(F)F)cc32)CC1

>  <score_type>  (64) 
oracle

>  <origin>  (64) 
adg

>  <m_score__min__energy>  (64) 
-7.46

>  <m_primary>  (64) 
energy

$$$$
64:0
     RDKit          3D

 38 39  0  0  0  0  0  0  0  0999 V2000
  137.3490  159.6820  131.1070 C   0  0  0  0  0  0  0  0  0  0  0  0
  139.0880  159.8430  130.5860 S   0  0  0  0  0  0  0  0  0  0  0  0
  139.7620  158.6560  131.8010 C   0  0  0  0  0  0  0  0  0  0  0  0
  138.7940  158.4800  132.9740 C   0  0  0  0  0  0  0  0  0  0  0  0
  139.0340  157.1760  133.7410 C   0  0  0  0  0  0  0  0  0  0  0  0
  140.1130  156.4340  133.1700 O   0  0  0  0  0  0  0  0  0  0  0  0
  140.1440  155.0370  133.0930 C   0  0  0  0  0  0  0  0  0  0  0  0
  139.0740  154.3790  132.9840 O   0  0  0  0  0  0  0  0  0  0  0  0
  141.4080  154.3520  133.1130 N   0  0  0  0  0  0  0  0  0  0  0  0
  142.6420  154.8750  133.3680 C   0  0  0  0  0  0  0  0  0  0  0  0
  142.9590  156.3060  133.5560 C   0  0  0  0  0  0  0  0  0  0  0  0
  142.6190  157.2470  132.5400 N   0  0  0  0  0  0  0  0  0  0  0  0
  143.4960  156.7150  134.6200 O   0  0  0  0  0  0  0  0  0  0  0  0
  143.6080  153.8720  133.3520 C   0  0  0  0  0  0  0  0  0  0  0  0
  142.9260  152.7120  133.0690 C   0  0  0  0  0  0  0  0  0  0  0  0
  143.3930  151.4060  132.9520 C   0  0  0  0  0  0  0  0  0  0  0  0
  142.4560  150.3930  132.6860 C   0  0  0  0  0  0  0  0  0  0  0  0
  141.0800  150.7000  132.5310 C   0  0  0  0  0  0  0  0  0  0  0  0
  140.0780  149.5950  132.3080 C   0  0  0  0  0  0  0  0  0  0  0  0
  140.5430  148.7540  131.3150 F   0  0  0  0  0  0  0  0  0  0  0  0
  138.8540  150.1140  131.9250 F   0  0  0  0  0  0  0  0  0  0  0  0
  139.8920  148.8620  133.4680 F   0  0  0  0  0  0  0  0  0  0  0  0
  140.6430  152.0360  132.6810 C   0  0  0  0  0  0  0  0  0  0  0  0
  141.6000  153.0280  132.9270 C   0  0  0  0  0  0  0  0  0  0  0  0
  137.2943  159.6769  132.2056 H   0  0  0  0  0  0  0  0  0  0  0  0
  136.7687  160.5303  130.7149 H   0  0  0  0  0  0  0  0  0  0  0  0
  136.9343  158.7416  130.7149 H   0  0  0  0  0  0  0  0  0  0  0  0
  139.9160  157.6838  131.3100 H   0  0  0  0  0  0  0  0  0  0  0  0
  140.7176  159.0436  132.1840 H   0  0  0  0  0  0  0  0  0  0  0  0
  138.9212  159.3252  133.6664 H   0  0  0  0  0  0  0  0  0  0  0  0
  137.7741  158.4439  132.5636 H   0  0  0  0  0  0  0  0  0  0  0  0
  139.2759  157.4141  134.7873 H   0  0  0  0  0  0  0  0  0  0  0  0
  138.1213  156.5646  133.6844 H   0  0  0  0  0  0  0  0  0  0  0  0
  141.7970  157.0890  131.9170 H   0  0  0  0  0  0  0  0  0  0  0  0
  144.6880  153.9840  133.5284 H   0  0  0  0  0  0  0  0  0  0  0  0
  144.4624  151.1740  133.0643 H   0  0  0  0  0  0  0  0  0  0  0  0
  142.7936  149.3499  132.5970 H   0  0  0  0  0  0  0  0  0  0  0  0
  139.5755  152.2904  132.6062 H   0  0  0  0  0  0  0  0  0  0  0  0
  1  2  1  0
  2  3  1  0
  3  4  1  0
  4  5  1  0
  5  6  1  0
  6  7  1  0
  7  8  2  0
  7  9  1  0
  9 10  1  0
 10 11  1  0
 11 12  1  0
 11 13  2  0
 10 14  2  0
 14 15  1  0
 15 16  2  0
 16 17  1  0
 17 18  2  0
 18 19  1  0
 19 20  1  0
 19 21  1  0
 19 22  1  0
 18 23  1  0
 23 24  2  0
 24  9  1  0
 24 15  1  0
  1 25  1  0
  1 26  1  0
  1 27  1  0
  3 28  1  0
  3 29  1  0
  4 30  1  0
  4 31  1  0
  5 32  1  0
  5 33  1  0
 12 34  1  0
 14 35  1  0
 16 36  1  0
 17 37  1  0
 23 38  1  0
M  CHG  1  12  -1
M  END
>  <UniqueID>  (65) 
65

>  <SMILES>  (65) 
CSCCCOC(=O)n1c(C([NH-])=O)cc2ccc(C(F)(F)F)cc21

>  <Energy>  (65) 
69.90151955178682

>  <Genealogy>  (65) 
CSCCCOC(=O)n1c(C([NH-])=O)cc2ccc(C(F)(F)F)cc21 (protonated)
CSCCCOC(=O)n1c(C([NH-])=O)cc2ccc(C(F)(F)F)cc21 (3D coordinates assigned)
CSCCCOC(=O)n1c(C([NH-])=O)cc2ccc(C(F)(F)F)cc21 (optimized conformer: 69.90151955178682 kcal/mol)

>  <smiles>  (65) 
CSCCCOC(=O)n1c(C(N)=O)cc2ccc(C(F)(F)F)cc21

>  <score_type>  (65) 
oracle

>  <origin>  (65) 
adg

>  <m_score__min__energy>  (65) 
-6.3399999999999999

>  <m_primary>  (65) 
energy

$$$$
65:0
     RDKit          3D

 44 45  0  0  0  0  0  0  0  0999 V2000
  139.9140  158.4360  133.5070 C   0  0  0  0  0  0  0  0  0  0  0  0
  140.9200  159.1400  134.2250 O   0  0  0  0  0  0  0  0  0  0  0  0
  141.5220  158.6260  135.3770 C   0  0  0  0  0  0  0  0  0  0  0  0
  141.6120  159.3250  136.4220 O   0  0  0  0  0  0  0  0  0  0  0  0
  142.0340  157.2200  135.3770 C   0  0  0  0  0  0  0  0  0  0  0  0
  143.3620  157.1730  134.8590 O   0  0  0  0  0  0  0  0  0  0  0  0
  143.7120  157.6730  133.5990 C   0  0  0  0  0  0  0  0  0  0  0  0
  142.9430  157.5060  132.6130 O   0  0  0  0  0  0  0  0  0  0  0  0
  144.9530  158.3730  133.4280 N   0  0  0  0  0  0  0  0  0  0  0  0
  145.1720  159.7140  133.5410 C   0  0  0  0  0  0  0  0  0  0  0  0
  144.1310  160.7470  133.7060 C   0  0  0  0  0  0  0  0  0  0  0  0
  142.7730  160.4960  133.3420 N   0  0  0  0  0  0  0  0  0  0  0  0
  144.4560  161.8910  134.1240 O   0  0  0  0  0  0  0  0  0  0  0  0
  146.5290  160.0020  133.4240 C   0  0  0  0  0  0  0  0  0  0  0  0
  147.1420  158.7870  133.2170 C   0  0  0  0  0  0  0  0  0  0  0  0
  148.4900  158.4820  133.0460 C   0  0  0  0  0  0  0  0  0  0  0  0
  148.8440  157.1320  132.8870 C   0  0  0  0  0  0  0  0  0  0  0  0
  147.8530  156.1240  132.9130 C   0  0  0  0  0  0  0  0  0  0  0  0
  148.2310  154.7430  132.7640 C   0  0  0  0  0  0  0  0  0  0  0  0
  148.5440  153.5860  132.6380 C   0  0  0  0  0  0  0  0  0  0  0  0
  148.9270  152.1690  132.4860 C   0  0  0  0  0  0  0  0  0  0  0  0
  147.6780  151.3260  132.1740 C   0  0  0  0  0  0  0  0  0  0  0  0
  149.5700  151.6840  133.7900 C   0  0  0  0  0  0  0  0  0  0  0  0
  149.8700  152.0400  131.4500 O   0  0  0  0  0  0  0  0  0  0  0  0
  146.4970  156.4640  133.0910 C   0  0  0  0  0  0  0  0  0  0  0  0
  146.1690  157.8180  133.2260 C   0  0  0  0  0  0  0  0  0  0  0  0
  139.2258  157.9544  134.2172 H   0  0  0  0  0  0  0  0  0  0  0  0
  139.3542  159.1405  132.8743 H   0  0  0  0  0  0  0  0  0  0  0  0
  140.3841  157.6687  132.8743 H   0  0  0  0  0  0  0  0  0  0  0  0
  142.0332  156.8343  136.4072 H   0  0  0  0  0  0  0  0  0  0  0  0
  141.3816  156.6034  134.7412 H   0  0  0  0  0  0  0  0  0  0  0  0
  142.0430  161.2230  133.5070 H   0  0  0  0  0  0  0  0  0  0  0  0
  142.5030  159.6250  132.8320 H   0  0  0  0  0  0  0  0  0  0  0  0
  147.0091  160.9899  133.4841 H   0  0  0  0  0  0  0  0  0  0  0  0
  149.2537  159.2736  133.0358 H   0  0  0  0  0  0  0  0  0  0  0  0
  149.8991  156.8573  132.7413 H   0  0  0  0  0  0  0  0  0  0  0  0
  147.2061  151.0075  133.1152 H   0  0  0  0  0  0  0  0  0  0  0  0
  146.9651  151.9284  131.5919 H   0  0  0  0  0  0  0  0  0  0  0  0
  147.9700  150.4395  131.5919 H   0  0  0  0  0  0  0  0  0  0  0  0
  149.0194  152.0993  134.6469 H   0  0  0  0  0  0  0  0  0  0  0  0
  149.5352  150.5853  133.8295 H   0  0  0  0  0  0  0  0  0  0  0  0
  150.6169  152.0194  133.8295 H   0  0  0  0  0  0  0  0  0  0  0  0
  150.5670  152.7380  131.5800 H   0  0  0  0  0  0  0  0  0  0  0  0
  145.7186  155.6875  133.1229 H   0  0  0  0  0  0  0  0  0  0  0  0
  1  2  1  0
  2  3  1  0
  3  4  2  0
  3  5  1  0
  5  6  1  0
  6  7  1  0
  7  8  2  0
  7  9  1  0
  9 10  1  0
 10 11  1  0
 11 12  1  0
 11 13  2  0
 10 14  2  0
 14 15  1  0
 15 16  2  0
 16 17  1  0
 17 18  2  0
 18 19  1  0
 19 20  3  0
 20 21  1  0
 21 22  1  0
 21 23  1  0
 21 24  1  0
 18 25  1  0
 25 26  2  0
 26  9  1  0
 26 15  1  0
  1 27  1  0
  1 28  1  0
  1 29  1  0
  5 30  1  0
  5 31  1  0
 12 32  1  0
 12 33  1  0
 14 34  1  0
 16 35  1  0
 17 36  1  0
 22 37  1  0
 22 38  1  0
 22 39  1  0
 23 40  1  0
 23 41  1  0
 23 42  1  0
 24 43  1  0
 25 44  1  0
M  END
>  <UniqueID>  (66) 
66

>  <SMILES>  (66) 
COC(=O)COC(=O)n1c(C(N)=O)cc2ccc(C#CC(C)(C)O)cc21

>  <Energy>  (66) 
70.67293150400997

>  <Genealogy>  (66) 
COC(=O)COC(=O)n1c(C(N)=O)cc2ccc(C#CC(C)(C)O)cc21 (3D coordinates assigned)
COC(=O)COC(=O)n1c(C(N)=O)cc2ccc(C#CC(C)(C)O)cc21 (optimized conformer: 70.67293150400997 kcal/mol)

>  <smiles>  (66) 
COC(=O)COC(=O)n1c(C(N)=O)cc2ccc(C#CC(C)(C)O)cc21

>  <score_type>  (66) 
oracle

>  <origin>  (66) 
adg

>  <m_score__min__energy>  (66) 
-7.3700000000000001

>  <m_primary>  (66) 
energy

$$$$
66:0
     RDKit          3D

 38 39  0  0  0  0  0  0  0  0999 V2000
  139.5460  157.8700  136.1580 C   0  0  0  0  0  0  0  0  0  0  0  0
  140.3390  158.5240  135.1050 N   0  0  0  0  0  0  0  0  0  0  0  0
  141.3900  159.3720  135.6890 C   0  0  0  0  0  0  0  0  0  0  0  0
  140.8790  157.5570  134.1220 C   0  0  0  0  0  0  0  0  0  0  0  0
  141.5630  158.2120  132.9540 C   0  0  0  0  0  0  0  0  0  0  0  0
  140.9230  159.0220  132.2300 O   0  0  0  0  0  0  0  0  0  0  0  0
  142.9110  157.9220  132.7040 O   0  0  0  0  0  0  0  0  0  0  0  0
  143.9090  157.8240  133.6830 C   0  0  0  0  0  0  0  0  0  0  0  0
  143.7110  157.1720  134.7430 O   0  0  0  0  0  0  0  0  0  0  0  0
  145.1610  158.4970  133.4820 N   0  0  0  0  0  0  0  0  0  0  0  0
  145.3930  159.8400  133.4340 C   0  0  0  0  0  0  0  0  0  0  0  0
  144.4130  160.9020  133.7440 C   0  0  0  0  0  0  0  0  0  0  0  0
  143.0460  160.7730  133.3630 N   0  0  0  0  0  0  0  0  0  0  0  0
  144.7780  161.9140  134.4000 O   0  0  0  0  0  0  0  0  0  0  0  0
  146.7290  160.0960  133.1330 C   0  0  0  0  0  0  0  0  0  0  0  0
  147.3180  158.8590  133.0080 C   0  0  0  0  0  0  0  0  0  0  0  0
  148.6340  158.5220  132.7060 C   0  0  0  0  0  0  0  0  0  0  0  0
  148.9590  157.1580  132.6150 C   0  0  0  0  0  0  0  0  0  0  0  0
  147.9710  156.1640  132.8200 C   0  0  0  0  0  0  0  0  0  0  0  0
  148.3370  154.7120  132.6990 C   0  0  0  0  0  0  0  0  0  0  0  0
  148.1820  154.0860  133.9230 F   0  0  0  0  0  0  0  0  0  0  0  0
  149.6540  154.5980  132.2900 F   0  0  0  0  0  0  0  0  0  0  0  0
  146.6440  156.5450  133.1190 C   0  0  0  0  0  0  0  0  0  0  0  0
  146.3510  157.9100  133.2220 C   0  0  0  0  0  0  0  0  0  0  0  0
  139.9209  158.1792  137.1448 H   0  0  0  0  0  0  0  0  0  0  0  0
  138.4907  158.1638  136.0582 H   0  0  0  0  0  0  0  0  0  0  0  0
  139.6336  156.7780  136.0582 H   0  0  0  0  0  0  0  0  0  0  0  0
  141.3315  159.3248  136.7864 H   0  0  0  0  0  0  0  0  0  0  0  0
  142.3761  159.0136  135.3586 H   0  0  0  0  0  0  0  0  0  0  0  0
  141.2481  160.4116  135.3586 H   0  0  0  0  0  0  0  0  0  0  0  0
  141.6061  156.9091  134.6334 H   0  0  0  0  0  0  0  0  0  0  0  0
  140.0257  156.9895  133.7222 H   0  0  0  0  0  0  0  0  0  0  0  0
  142.7570  160.0960  132.6220 H   0  0  0  0  0  0  0  0  0  0  0  0
  147.2106  161.0784  133.0194 H   0  0  0  0  0  0  0  0  0  0  0  0
  149.3957  159.2988  132.5436 H   0  0  0  0  0  0  0  0  0  0  0  0
  149.9916  156.8590  132.3821 H   0  0  0  0  0  0  0  0  0  0  0  0
  147.6780  154.2348  131.9587 H   0  0  0  0  0  0  0  0  0  0  0  0
  145.8601  155.7877  133.2673 H   0  0  0  0  0  0  0  0  0  0  0  0
  1  2  1  0
  2  3  1  0
  2  4  1  0
  4  5  1  0
  5  6  2  0
  5  7  1  0
  7  8  1  0
  8  9  2  0
  8 10  1  0
 10 11  1  0
 11 12  1  0
 12 13  1  0
 12 14  2  0
 11 15  2  0
 15 16  1  0
 16 17  2  0
 17 18  1  0
 18 19  2  0
 19 20  1  0
 20 21  1  0
 20 22  1  0
 19 23  1  0
 23 24  2  0
 24 10  1  0
 24 16  1  0
  1 25  1  0
  1 26  1  0
  1 27  1  0
  3 28  1  0
  3 29  1  0
  3 30  1  0
  4 31  1  0
  4 32  1  0
 13 33  1  0
 15 34  1  0
 17 35  1  0
 18 36  1  0
 20 37  1  0
 23 38  1  0
M  CHG  1  13  -1
M  END
>  <UniqueID>  (67) 
67

>  <SMILES>  (67) 
CN(C)CC(=O)OC(=O)n1c(C([NH-])=O)cc2ccc(C(F)F)cc21

>  <Energy>  (67) 
78.74315032803398

>  <Genealogy>  (67) 
CN(C)CC(=O)OC(=O)n1c(C([NH-])=O)cc2ccc(C(F)F)cc21 (protonated)
CN(C)CC(=O)OC(=O)n1c(C([NH-])=O)cc2ccc(C(F)F)cc21 (3D coordinates assigned)
CN(C)CC(=O)OC(=O)n1c(C([NH-])=O)cc2ccc(C(F)F)cc21 (optimized conformer: 78.74315032803398 kcal/mol)

>  <smiles>  (67) 
CN(C)CC(=O)OC(=O)n1c(C(N)=O)cc2ccc(C(F)F)cc21

>  <score_type>  (67) 
oracle

>  <origin>  (67) 
adg

>  <m_score__min__energy>  (67) 
-6.1399999999999997

>  <m_primary>  (67) 
energy

$$$$
67:0
     RDKit          3D

 42 44  0  0  0  0  0  0  0  0999 V2000
  149.6060  157.4920  132.1110 N   0  0  0  0  0  0  0  0  0  0  0  0
  148.9580  158.6860  132.5440 C   0  0  0  0  0  0  0  0  0  0  0  0
  149.6150  159.7590  132.6020 O   0  0  0  0  0  0  0  0  0  0  0  0
  147.5370  158.6490  132.9440 C   0  0  0  0  0  0  0  0  0  0  0  0
  146.6890  159.7550  132.9050 C   0  0  0  0  0  0  0  0  0  0  0  0
  145.4520  159.2800  133.2850 C   0  0  0  0  0  0  0  0  0  0  0  0
  144.2370  159.9450  133.4230 C   0  0  0  0  0  0  0  0  0  0  0  0
  143.1230  159.1980  133.8440 C   0  0  0  0  0  0  0  0  0  0  0  0
  143.2450  157.8130  134.1250 C   0  0  0  0  0  0  0  0  0  0  0  0
  142.0360  157.0210  134.5510 C   0  0  0  0  0  0  0  0  0  0  0  0
  142.3700  155.5410  134.7810 C   0  0  0  0  0  0  0  0  0  0  0  0
  142.2820  154.7140  133.4940 C   0  0  0  0  0  0  0  0  0  0  0  0
  143.5350  154.0010  133.2710 N   0  0  0  0  0  0  0  0  0  0  0  0
  144.3830  153.5520  134.2120 C   0  0  0  0  0  0  0  0  0  0  0  0
  145.4660  153.0040  133.6370 N   0  0  0  0  0  0  0  0  0  0  0  0
  145.2390  153.1530  132.3160 C   0  0  0  0  0  0  0  0  0  0  0  0
  144.0630  153.7680  132.0790 N   0  0  0  0  0  0  0  0  0  0  0  0
  144.4940  157.1730  133.9680 C   0  0  0  0  0  0  0  0  0  0  0  0
  145.5800  157.9390  133.5370 C   0  0  0  0  0  0  0  0  0  0  0  0
  146.8520  157.5400  133.3350 N   0  0  0  0  0  0  0  0  0  0  0  0
  147.3620  156.2180  133.5550 C   0  0  0  0  0  0  0  0  0  0  0  0
  147.4230  155.4040  132.5940 O   0  0  0  0  0  0  0  0  0  0  0  0
  147.7140  155.7610  134.9370 C   0  0  0  0  0  0  0  0  0  0  0  0
  147.6140  154.2720  135.0150 C   0  0  0  0  0  0  0  0  0  0  0  0
  148.2520  153.5500  134.2050 O   0  0  0  0  0  0  0  0  0  0  0  0
  146.7790  153.6810  135.9550 O   0  0  0  0  0  0  0  0  0  0  0  0
  149.0520  156.6480  131.8430 H   0  0  0  0  0  0  0  0  0  0  0  0
  146.9513  160.7872  132.6296 H   0  0  0  0  0  0  0  0  0  0  0  0
  144.1513  161.0207  133.2095 H   0  0  0  0  0  0  0  0  0  0  0  0
  142.1469  159.6925  133.9566 H   0  0  0  0  0  0  0  0  0  0  0  0
  141.6445  157.4463  135.4869 H   0  0  0  0  0  0  0  0  0  0  0  0
  141.2901  157.0796  133.7446 H   0  0  0  0  0  0  0  0  0  0  0  0
  143.3930  155.4676  135.1785 H   0  0  0  0  0  0  0  0  0  0  0  0
  141.6316  155.1374  135.4895 H   0  0  0  0  0  0  0  0  0  0  0  0
  141.4608  153.9877  133.5835 H   0  0  0  0  0  0  0  0  0  0  0  0
  142.0943  155.3875  132.6448 H   0  0  0  0  0  0  0  0  0  0  0  0
  144.2144  153.6231  135.2967 H   0  0  0  0  0  0  0  0  0  0  0  0
  146.2960  152.5760  134.1030 H   0  0  0  0  0  0  0  0  0  0  0  0
  145.9286  152.8144  131.5287 H   0  0  0  0  0  0  0  0  0  0  0  0
  144.6088  156.0996  134.1795 H   0  0  0  0  0  0  0  0  0  0  0  0
  148.7423  156.0715  135.1741 H   0  0  0  0  0  0  0  0  0  0  0  0
  147.0168  156.2116  135.6587 H   0  0  0  0  0  0  0  0  0  0  0  0
  1  2  1  0
  2  3  2  0
  2  4  1  0
  4  5  2  0
  5  6  1  0
  6  7  2  0
  7  8  1  0
  8  9  2  0
  9 10  1  0
 10 11  1  0
 11 12  1  0
 12 13  1  0
 13 14  1  0
 14 15  2  0
 15 16  1  0
 16 17  2  0
  9 18  1  0
 18 19  2  0
 19 20  1  0
 20 21  1  0
 21 22  2  0
 21 23  1  0
 23 24  1  0
 24 25  2  0
 24 26  1  0
 20  4  1  0
 19  6  1  0
 17 13  1  0
  1 27  1  0
  5 28  1  0
  7 29  1  0
  8 30  1  0
 10 31  1  0
 10 32  1  0
 11 33  1  0
 11 34  1  0
 12 35  1  0
 12 36  1  0
 14 37  1  0
 15 38  1  0
 16 39  1  0
 18 40  1  0
 23 41  1  0
 23 42  1  0
M  CHG  3   1  -1  15   1  26  -1
M  END
>  <UniqueID>  (68) 
68

>  <SMILES>  (68) 
[NH-]C(=O)c1cc2ccc(CCCn3c[nH+]cn3)cc2n1C(=O)CC(=O)[O-]

>  <Energy>  (68) 
110.08801728001305

>  <Genealogy>  (68) 
[NH-]C(=O)c1cc2ccc(CCCn3c[nH+]cn3)cc2n1C(=O)CC(=O)[O-] (protonated)
[NH-]C(=O)c1cc2ccc(CCCn3c[nH+]cn3)cc2n1C(=O)CC(=O)[O-] (3D coordinates assigned)
[NH-]C(=O)c1cc2ccc(CCCn3c[nH+]cn3)cc2n1C(=O)CC(=O)[O-] (optimized conformer: 110.08801728001305 kcal/mol)

>  <smiles>  (68) 
NC(=O)c1cc2ccc(CCCn3cncn3)cc2n1C(=O)CC(=O)O

>  <score_type>  (68) 
oracle

>  <origin>  (68) 
adg

>  <m_score__min__energy>  (68) 
-6.0999999999999996

>  <m_primary>  (68) 
energy

$$$$
68:0
     RDKit          3D

 50 51  0  0  0  0  0  0  0  0999 V2000
  148.1490  154.5420  132.6820 C   0  0  0  0  0  0  0  0  0  0  0  0
  147.7610  155.8990  132.5060 O   0  0  0  0  0  0  0  0  0  0  0  0
  147.5600  156.7700  133.5810 C   0  0  0  0  0  0  0  0  0  0  0  0
  148.1720  156.5890  134.6680 O   0  0  0  0  0  0  0  0  0  0  0  0
  146.6480  157.8730  133.4470 N   0  0  0  0  0  0  0  0  0  0  0  0
  146.9290  159.1330  133.0110 C   0  0  0  0  0  0  0  0  0  0  0  0
  148.2750  159.6740  132.7370 C   0  0  0  0  0  0  0  0  0  0  0  0
  149.4500  158.9810  133.1610 N   0  0  0  0  0  0  0  0  0  0  0  0
  148.3890  160.7930  132.1700 O   0  0  0  0  0  0  0  0  0  0  0  0
  145.7660  159.8920  132.9150 C   0  0  0  0  0  0  0  0  0  0  0  0
  144.7530  159.0570  133.3260 C   0  0  0  0  0  0  0  0  0  0  0  0
  143.3870  159.2960  133.4350 C   0  0  0  0  0  0  0  0  0  0  0  0
  142.5660  158.2430  133.8720 C   0  0  0  0  0  0  0  0  0  0  0  0
  143.1210  156.9730  134.1710 C   0  0  0  0  0  0  0  0  0  0  0  0
  142.2380  155.8650  134.6830 C   0  0  0  0  0  0  0  0  0  0  0  0
  142.9480  154.5070  134.6060 C   0  0  0  0  0  0  0  0  0  0  0  0
  142.6550  153.8250  133.3350 N   0  0  0  0  0  0  0  0  0  0  0  0
  143.6510  153.8080  132.2590 C   0  0  0  0  0  0  0  0  0  0  0  0
  141.3910  153.1700  133.1250 C   0  0  0  0  0  0  0  0  0  0  0  0
  140.4250  153.8030  132.6130 O   0  0  0  0  0  0  0  0  0  0  0  0
  141.2340  151.8290  133.4950 O   0  0  0  0  0  0  0  0  0  0  0  0
  142.0110  150.7650  132.9490 C   0  0  0  0  0  0  0  0  0  0  0  0
  141.2150  150.0170  131.8760 C   0  0  0  0  0  0  0  0  0  0  0  0
  139.7200  149.9980  132.2090 C   0  0  0  0  0  0  0  0  0  0  0  0
  139.1330  151.2270  131.8810 O   0  0  0  0  0  0  0  0  0  0  0  0
  144.5120  156.7680  134.0480 C   0  0  0  0  0  0  0  0  0  0  0  0
  145.3100  157.8420  133.6380 C   0  0  0  0  0  0  0  0  0  0  0  0
  148.2137  154.3156  133.7565 H   0  0  0  0  0  0  0  0  0  0  0  0
  147.4031  153.8836  132.2128 H   0  0  0  0  0  0  0  0  0  0  0  0
  149.1302  154.3774  132.2128 H   0  0  0  0  0  0  0  0  0  0  0  0
  150.3950  159.3700  132.9430 H   0  0  0  0  0  0  0  0  0  0  0  0
  149.3880  158.1360  133.7700 H   0  0  0  0  0  0  0  0  0  0  0  0
  145.6762  160.9364  132.5816 H   0  0  0  0  0  0  0  0  0  0  0  0
  142.9624  160.2799  133.1865 H   0  0  0  0  0  0  0  0  0  0  0  0
  141.4837  158.4052  133.9831 H   0  0  0  0  0  0  0  0  0  0  0  0
  141.9735  156.0724  135.7304 H   0  0  0  0  0  0  0  0  0  0  0  0
  141.3356  155.8215  134.0555 H   0  0  0  0  0  0  0  0  0  0  0  0
  144.0337  154.6645  134.6868 H   0  0  0  0  0  0  0  0  0  0  0  0
  142.5853  153.8768  135.4314 H   0  0  0  0  0  0  0  0  0  0  0  0
  144.6610  153.7908  132.6945 H   0  0  0  0  0  0  0  0  0  0  0  0
  143.5043  152.9122  131.6377 H   0  0  0  0  0  0  0  0  0  0  0  0
  143.5349  154.7083  131.6377 H   0  0  0  0  0  0  0  0  0  0  0  0
  142.9257  151.1784  132.4991 H   0  0  0  0  0  0  0  0  0  0  0  0
  142.2695  150.0627  133.7551 H   0  0  0  0  0  0  0  0  0  0  0  0
  141.3606  150.5171  130.9071 H   0  0  0  0  0  0  0  0  0  0  0  0
  141.5761  148.9788  131.8343 H   0  0  0  0  0  0  0  0  0  0  0  0
  139.2306  149.1974  131.6350 H   0  0  0  0  0  0  0  0  0  0  0  0
  139.5959  149.8187  133.2872 H   0  0  0  0  0  0  0  0  0  0  0  0
  139.8730  151.8870  131.8180 H   0  0  0  0  0  0  0  0  0  0  0  0
  144.9583  155.7872  134.2692 H   0  0  0  0  0  0  0  0  0  0  0  0
  1  2  1  0
  2  3  1  0
  3  4  2  0
  3  5  1  0
  5  6  1  0
  6  7  1  0
  7  8  1  0
  7  9  2  0
  6 10  2  0
 10 11  1  0
 11 12  2  0
 12 13  1  0
 13 14  2  0
 14 15  1  0
 15 16  1  0
 16 17  1  0
 17 18  1  0
 17 19  1  0
 19 20  2  0
 19 21  1  0
 21 22  1  0
 22 23  1  0
 23 24  1  0
 24 25  1  0
 14 26  1  0
 26 27  2  0
 27  5  1  0
 27 11  1  0
  1 28  1  0
  1 29  1  0
  1 30  1  0
  8 31  1  0
  8 32  1  0
 10 33  1  0
 12 34  1  0
 13 35  1  0
 15 36  1  0
 15 37  1  0
 16 38  1  0
 16 39  1  0
 18 40  1  0
 18 41  1  0
 18 42  1  0
 22 43  1  0
 22 44  1  0
 23 45  1  0
 23 46  1  0
 24 47  1  0
 24 48  1  0
 25 49  1  0
 26 50  1  0
M  END
>  <UniqueID>  (69) 
69

>  <SMILES>  (69) 
COC(=O)n1c(C(N)=O)cc2ccc(CCN(C)C(=O)OCCCO)cc21

>  <Energy>  (69) 
74.40202585759091

>  <Genealogy>  (69) 
COC(=O)n1c(C(N)=O)cc2ccc(CCN(C)C(=O)OCCCO)cc21 (3D coordinates assigned)
COC(=O)n1c(C(N)=O)cc2ccc(CCN(C)C(=O)OCCCO)cc21 (optimized conformer: 74.40202585759091 kcal/mol)

>  <smiles>  (69) 
COC(=O)n1c(C(N)=O)cc2ccc(CCN(C)C(=O)OCCCO)cc21

>  <score_type>  (69) 
oracle

>  <origin>  (69) 
adg

>  <m_score__min__energy>  (69) 
-6.5300000000000002

>  <m_primary>  (69) 
energy

$$$$
69:0
     RDKit          3D

 42 44  0  0  0  0  0  0  0  0999 V2000
  140.9720  159.3330  136.5500 C   0  0  0  0  0  0  0  0  0  0  0  0
  141.4420  159.4770  135.1070 C   0  0  0  0  0  0  0  0  0  0  0  0
  142.8650  159.4170  135.0320 O   0  0  0  0  0  0  0  0  0  0  0  0
  143.5580  158.8930  133.9360 C   0  0  0  0  0  0  0  0  0  0  0  0
  142.9680  158.1540  133.1010 O   0  0  0  0  0  0  0  0  0  0  0  0
  144.9450  159.2140  133.7510 N   0  0  0  0  0  0  0  0  0  0  0  0
  145.5190  160.4500  133.7340 C   0  0  0  0  0  0  0  0  0  0  0  0
  144.8500  161.7220  134.0790 C   0  0  0  0  0  0  0  0  0  0  0  0
  143.4870  161.9520  133.7320 N   0  0  0  0  0  0  0  0  0  0  0  0
  145.4760  162.5990  134.7330 O   0  0  0  0  0  0  0  0  0  0  0  0
  146.8730  160.3560  133.4230 C   0  0  0  0  0  0  0  0  0  0  0  0
  147.1180  159.0130  133.2560 C   0  0  0  0  0  0  0  0  0  0  0  0
  148.2990  158.3510  132.9320 C   0  0  0  0  0  0  0  0  0  0  0  0
  148.2550  156.9530  132.8000 C   0  0  0  0  0  0  0  0  0  0  0  0
  147.0370  156.2490  132.9740 C   0  0  0  0  0  0  0  0  0  0  0  0
  147.0070  154.7520  132.8590 C   0  0  0  0  0  0  0  0  0  0  0  0
  145.6000  154.2810  132.6640 C   0  0  0  0  0  0  0  0  0  0  0  0
  144.8110  154.4520  131.5410 C   0  0  0  0  0  0  0  0  0  0  0  0
  143.6440  153.8120  131.7440 N   0  0  0  0  0  0  0  0  0  0  0  0
  143.6790  153.2300  132.9310 N   0  0  0  0  0  0  0  0  0  0  0  0
  142.5700  152.4910  133.5210 C   0  0  0  0  0  0  0  0  0  0  0  0
  144.8570  153.4980  133.5270 C   0  0  0  0  0  0  0  0  0  0  0  0
  145.8600  156.9550  133.3120 C   0  0  0  0  0  0  0  0  0  0  0  0
  145.9380  158.3440  133.4580 C   0  0  0  0  0  0  0  0  0  0  0  0
  141.7976  159.5860  137.2315 H   0  0  0  0  0  0  0  0  0  0  0  0
  140.1265  160.0133  136.7299 H   0  0  0  0  0  0  0  0  0  0  0  0
  140.6528  158.2958  136.7299 H   0  0  0  0  0  0  0  0  0  0  0  0
  141.0140  158.6621  134.5048 H   0  0  0  0  0  0  0  0  0  0  0  0
  141.1083  160.4519  134.7220 H   0  0  0  0  0  0  0  0  0  0  0  0
  142.7820  161.1830  133.7820 H   0  0  0  0  0  0  0  0  0  0  0  0
  147.5942  161.1814  133.3305 H   0  0  0  0  0  0  0  0  0  0  0  0
  149.2375  158.9053  132.7839 H   0  0  0  0  0  0  0  0  0  0  0  0
  149.1746  156.3994  132.5593 H   0  0  0  0  0  0  0  0  0  0  0  0
  147.6178  154.4406  131.9988 H   0  0  0  0  0  0  0  0  0  0  0  0
  147.4103  154.3111  133.7825 H   0  0  0  0  0  0  0  0  0  0  0  0
  145.0891  155.0142  130.6374 H   0  0  0  0  0  0  0  0  0  0  0  0
  142.8390  153.7730  131.0790 H   0  0  0  0  0  0  0  0  0  0  0  0
  142.6404  152.5379  134.6177 H   0  0  0  0  0  0  0  0  0  0  0  0
  141.6183  152.9361  133.1953 H   0  0  0  0  0  0  0  0  0  0  0  0
  142.6144  151.4413  133.1953 H   0  0  0  0  0  0  0  0  0  0  0  0
  145.1716  153.1546  134.5235 H   0  0  0  0  0  0  0  0  0  0  0  0
  144.9067  156.4255  133.4566 H   0  0  0  0  0  0  0  0  0  0  0  0
  1  2  1  0
  2  3  1  0
  3  4  1  0
  4  5  2  0
  4  6  1  0
  6  7  1  0
  7  8  1  0
  8  9  1  0
  8 10  2  0
  7 11  2  0
 11 12  1  0
 12 13  2  0
 13 14  1  0
 14 15  2  0
 15 16  1  0
 16 17  1  0
 17 18  1  0
 18 19  2  0
 19 20  1  0
 20 21  1  0
 20 22  1  0
 15 23  1  0
 23 24  2  0
 24  6  1  0
 24 12  1  0
 22 17  2  0
  1 25  1  0
  1 26  1  0
  1 27  1  0
  2 28  1  0
  2 29  1  0
  9 30  1  0
 11 31  1  0
 13 32  1  0
 14 33  1  0
 16 34  1  0
 16 35  1  0
 18 36  1  0
 19 37  1  0
 21 38  1  0
 21 39  1  0
 21 40  1  0
 22 41  1  0
 23 42  1  0
M  CHG  2   9  -1  19   1
M  END
>  <UniqueID>  (70) 
70

>  <SMILES>  (70) 
CCOC(=O)n1c(C([NH-])=O)cc2ccc(Cc3c[nH+]n(C)c3)cc21

>  <Energy>  (70) 
106.53219356817439

>  <Genealogy>  (70) 
CCOC(=O)n1c(C([NH-])=O)cc2ccc(Cc3c[nH+]n(C)c3)cc21 (protonated)
CCOC(=O)n1c(C([NH-])=O)cc2ccc(Cc3c[nH+]n(C)c3)cc21 (3D coordinates assigned)
CCOC(=O)n1c(C([NH-])=O)cc2ccc(Cc3c[nH+]n(C)c3)cc21 (optimized conformer: 106.53219356817439 kcal/mol)

>  <smiles>  (70) 
CCOC(=O)n1c(C(N)=O)cc2ccc(Cc3cnn(C)c3)cc21

>  <score_type>  (70) 
oracle

>  <origin>  (70) 
adg

>  <m_score__min__energy>  (70) 
-6.6200000000000001

>  <m_primary>  (70) 
energy

$$$$
70:0
     RDKit          3D

 46 48  0  0  0  0  0  0  0  0999 V2000
  142.1920  157.4230  139.8060 C   0  0  0  0  0  0  0  0  0  0  0  0
  141.7310  158.1120  138.6500 O   0  0  0  0  0  0  0  0  0  0  0  0
  140.7910  157.5640  137.7690 C   0  0  0  0  0  0  0  0  0  0  0  0
  140.4280  156.3620  137.9020 O   0  0  0  0  0  0  0  0  0  0  0  0
  140.2750  158.3740  136.6880 N   0  0  2  0  0  0  0  0  0  0  0  0
  139.8920  157.5570  135.4990 C   0  0  0  0  0  0  0  0  0  0  0  0
  140.7510  157.8250  134.2500 C   0  0  0  0  0  0  0  0  0  0  0  0
  142.2390  157.9230  134.6200 C   0  0  1  0  0  0  0  0  0  0  0  0
  143.1330  158.1120  133.4140 C   0  0  0  0  0  0  0  0  0  0  0  0
  142.6850  157.8400  132.2680 O   0  0  0  0  0  0  0  0  0  0  0  0
  144.4610  158.6410  133.5360 N   0  0  0  0  0  0  0  0  0  0  0  0
  144.8200  159.9470  133.6590 C   0  0  0  0  0  0  0  0  0  0  0  0
  143.8850  161.0890  133.7290 C   0  0  0  0  0  0  0  0  0  0  0  0
  142.5190  160.9130  133.3650 N   0  0  0  0  0  0  0  0  0  0  0  0
  144.2830  162.2230  134.1050 O   0  0  0  0  0  0  0  0  0  0  0  0
  146.2070  160.0650  133.7360 C   0  0  0  0  0  0  0  0  0  0  0  0
  146.6880  158.7760  133.6510 C   0  0  0  0  0  0  0  0  0  0  0  0
  147.9950  158.3010  133.6770 C   0  0  0  0  0  0  0  0  0  0  0  0
  148.1930  156.9130  133.5690 C   0  0  0  0  0  0  0  0  0  0  0  0
  147.0890  156.0340  133.4360 C   0  0  0  0  0  0  0  0  0  0  0  0
  147.3220  154.5540  133.3240 C   0  0  0  0  0  0  0  0  0  0  0  0
  148.5790  154.3180  132.7980 F   0  0  0  0  0  0  0  0  0  0  0  0
  147.2350  153.9730  134.5760 F   0  0  0  0  0  0  0  0  0  0  0  0
  145.7760  156.5540  133.4120 C   0  0  0  0  0  0  0  0  0  0  0  0
  145.6110  157.9370  133.5270 C   0  0  0  0  0  0  0  0  0  0  0  0
  142.4870  159.0300  135.6740 C   0  0  0  0  0  0  0  0  0  0  0  0
  141.1990  159.4890  136.3870 C   0  0  0  0  0  0  0  0  0  0  0  0
  141.8422  157.9459  140.7083 H   0  0  0  0  0  0  0  0  0  0  0  0
  141.7987  156.3957  139.8018 H   0  0  0  0  0  0  0  0  0  0  0  0
  143.2916  157.3946  139.8018 H   0  0  0  0  0  0  0  0  0  0  0  0
  139.3960  158.8160  137.0490 H   0  0  0  0  0  0  0  0  0  0  0  0
  139.9899  156.4939  135.7641 H   0  0  0  0  0  0  0  0  0  0  0  0
  138.8600  157.8368  135.2406 H   0  0  0  0  0  0  0  0  0  0  0  0
  140.6113  157.0023  133.5333 H   0  0  0  0  0  0  0  0  0  0  0  0
  140.4356  158.7799  133.8042 H   0  0  0  0  0  0  0  0  0  0  0  0
  142.5104  156.9547  135.0657 H   0  0  0  0  0  0  0  0  0  0  0  0
  142.2270  160.1320  132.7360 H   0  0  0  0  0  0  0  0  0  0  0  0
  146.7929  160.9899  133.8420 H   0  0  0  0  0  0  0  0  0  0  0  0
  148.8469  158.9894  133.7788 H   0  0  0  0  0  0  0  0  0  0  0  0
  149.2145  156.5054  133.5879 H   0  0  0  0  0  0  0  0  0  0  0  0
  146.5590  154.1186  132.6620 H   0  0  0  0  0  0  0  0  0  0  0  0
  144.9067  155.8884  133.3057 H   0  0  0  0  0  0  0  0  0  0  0  0
  143.1861  158.6428  136.4299 H   0  0  0  0  0  0  0  0  0  0  0  0
  142.8951  159.9022  135.1423 H   0  0  0  0  0  0  0  0  0  0  0  0
  141.4772  159.9783  137.3321 H   0  0  0  0  0  0  0  0  0  0  0  0
  140.6742  160.1762  135.7070 H   0  0  0  0  0  0  0  0  0  0  0  0
  1  2  1  0
  2  3  1  0
  3  4  2  0
  3  5  1  0
  5  6  1  0
  6  7  1  0
  7  8  1  0
  8  9  1  0
  9 10  2  0
  9 11  1  0
 11 12  1  0
 12 13  1  0
 13 14  1  0
 13 15  2  0
 12 16  2  0
 16 17  1  0
 17 18  2  0
 18 19  1  0
 19 20  2  0
 20 21  1  0
 21 22  1  0
 21 23  1  0
 20 24  1  0
 24 25  2  0
  8 26  1  0
 26 27  1  0
 27  5  1  0
 25 11  1  0
 25 17  1  0
  1 28  1  0
  1 29  1  0
  1 30  1  0
  5 31  1  1
  6 32  1  0
  6 33  1  0
  7 34  1  0
  7 35  1  0
  8 36  1  1
 14 37  1  0
 16 38  1  0
 18 39  1  0
 19 40  1  0
 21 41  1  0
 24 42  1  0
 26 43  1  0
 26 44  1  0
 27 45  1  0
 27 46  1  0
M  CHG  2   5   1  14  -1
M  END
>  <UniqueID>  (71) 
71

>  <SMILES>  (71) 
COC(=O)[NH+]1CCC(C(=O)n2c(C([NH-])=O)cc3ccc(C(F)F)cc32)CC1

>  <Energy>  (71) 
95.61762957775477

>  <Genealogy>  (71) 
COC(=O)[NH+]1CCC(C(=O)n2c(C([NH-])=O)cc3ccc(C(F)F)cc32)CC1 (protonated)
COC(=O)[NH+]1CCC(C(=O)n2c(C([NH-])=O)cc3ccc(C(F)F)cc32)CC1 (3D coordinates assigned)
COC(=O)[NH+]1CCC(C(=O)n2c(C([NH-])=O)cc3ccc(C(F)F)cc32)CC1 (nonaromatic ring conformer: 95.61762957775477 kcal/mol)

>  <smiles>  (71) 
COC(=O)N1CCC(C(=O)n2c(C(N)=O)cc3ccc(C(F)F)cc32)CC1

>  <score_type>  (71) 
oracle

>  <origin>  (71) 
adg

>  <m_score__min__energy>  (71) 
-6.5700000000000003

>  <m_primary>  (71) 
energy

$$$$
71:0
     RDKit          3D

 61 63  0  0  0  0  0  0  0  0999 V2000
  142.7190  160.8070  133.3560 N   0  0  0  0  0  0  0  0  0  0  0  0
  144.0690  161.0830  133.7200 C   0  0  0  0  0  0  0  0  0  0  0  0
  144.3840  162.2450  134.0930 O   0  0  0  0  0  0  0  0  0  0  0  0
  145.1070  160.0390  133.6100 C   0  0  0  0  0  0  0  0  0  0  0  0
  146.4710  160.3160  133.5580 C   0  0  0  0  0  0  0  0  0  0  0  0
  147.0820  159.1040  133.3270 C   0  0  0  0  0  0  0  0  0  0  0  0
  148.4300  158.7970  133.1660 C   0  0  0  0  0  0  0  0  0  0  0  0
  148.7740  157.4550  132.9370 C   0  0  0  0  0  0  0  0  0  0  0  0
  147.7750  156.4500  132.8880 C   0  0  0  0  0  0  0  0  0  0  0  0
  148.1610  155.0190  132.6320 C   0  0  0  0  0  0  0  0  0  0  0  0
  147.9790  154.2020  133.8710 C   0  0  0  0  0  0  0  0  0  0  0  0
  148.2380  152.9660  133.8500 O   0  0  0  0  0  0  0  0  0  0  0  0
  147.4910  154.8200  135.0690 N   0  0  0  0  0  0  0  0  0  0  0  0
  146.0860  154.8110  135.4600 C   0  0  0  0  0  0  0  0  0  0  0  0
  145.8420  153.7780  136.5610 C   0  0  0  0  0  0  0  0  0  0  0  0
  146.9840  152.9890  136.7490 O   0  0  0  0  0  0  0  0  0  0  0  0
  146.4150  156.8020  133.0440 C   0  0  0  0  0  0  0  0  0  0  0  0
  146.1000  158.1480  133.2580 C   0  0  0  0  0  0  0  0  0  0  0  0
  144.8830  158.7050  133.4360 N   0  0  0  0  0  0  0  0  0  0  0  0
  143.6320  157.9980  133.5080 C   0  0  0  0  0  0  0  0  0  0  0  0
  142.7590  158.1860  132.6180 O   0  0  0  0  0  0  0  0  0  0  0  0
  143.4070  156.9510  134.5670 C   0  0  0  0  0  0  0  0  0  0  0  0
  141.9220  156.5810  134.7100 C   0  0  0  0  0  0  0  0  0  0  0  0
  141.7120  155.1460  134.4160 N   0  0  0  0  0  0  0  0  0  0  0  0
  142.9840  154.4190  134.1520 C   0  0  0  0  0  0  0  0  0  0  0  0
  143.0210  153.7270  132.7780 C   0  0  0  0  0  0  0  0  0  0  0  0
  141.8370  152.8660  132.5530 N   0  0  0  0  0  0  0  0  0  0  0  0
  142.0280  151.5050  133.1040 C   0  0  0  0  0  0  0  0  0  0  0  0
  141.4350  150.4480  132.1670 C   0  0  0  0  0  0  0  0  0  0  0  0
  140.3470  150.9850  131.4640 O   0  0  0  0  0  0  0  0  0  0  0  0
  140.5590  153.4800  133.0080 C   0  0  0  0  0  0  0  0  0  0  0  0
  140.6990  154.9670  133.3570 C   0  0  0  0  0  0  0  0  0  0  0  0
  142.4920  160.3220  132.4600 H   0  0  0  0  0  0  0  0  0  0  0  0
  146.9571  161.2956  133.6764 H   0  0  0  0  0  0  0  0  0  0  0  0
  149.2008  159.5802  133.2165 H   0  0  0  0  0  0  0  0  0  0  0  0
  149.8296  157.1805  132.7941 H   0  0  0  0  0  0  0  0  0  0  0  0
  147.5271  154.6100  131.8314 H   0  0  0  0  0  0  0  0  0  0  0  0
  149.2186  154.9823  132.3317 H   0  0  0  0  0  0  0  0  0  0  0  0
  145.8074  155.8082  135.8313 H   0  0  0  0  0  0  0  0  0  0  0  0
  145.4751  154.5477  134.5840 H   0  0  0  0  0  0  0  0  0  0  0  0
  145.6018  154.2983  137.5000 H   0  0  0  0  0  0  0  0  0  0  0  0
  145.0042  153.1299  136.2643 H   0  0  0  0  0  0  0  0  0  0  0  0
  147.4690  152.9790  135.8830 H   0  0  0  0  0  0  0  0  0  0  0  0
  145.6252  156.0377  132.9983 H   0  0  0  0  0  0  0  0  0  0  0  0
  143.9731  156.0471  134.2977 H   0  0  0  0  0  0  0  0  0  0  0  0
  143.7466  157.3640  135.5283 H   0  0  0  0  0  0  0  0  0  0  0  0
  141.5946  156.7908  135.7390 H   0  0  0  0  0  0  0  0  0  0  0  0
  141.3373  157.1786  133.9952 H   0  0  0  0  0  0  0  0  0  0  0  0
  143.8137  155.1395  134.2015 H   0  0  0  0  0  0  0  0  0  0  0  0
  143.0705  153.6305  134.9141 H   0  0  0  0  0  0  0  0  0  0  0  0
  143.0526  154.4978  131.9939 H   0  0  0  0  0  0  0  0  0  0  0  0
  143.9149  153.0868  132.7464 H   0  0  0  0  0  0  0  0  0  0  0  0
  143.1043  151.3140  133.2272 H   0  0  0  0  0  0  0  0  0  0  0  0
  141.5134  151.4431  134.0743 H   0  0  0  0  0  0  0  0  0  0  0  0
  142.2050  150.1218  131.4524 H   0  0  0  0  0  0  0  0  0  0  0  0
  141.0911  149.5899  132.7631 H   0  0  0  0  0  0  0  0  0  0  0  0
  140.6100  151.8960  131.1790 H   0  0  0  0  0  0  0  0  0  0  0  0
  139.8151  153.3772  132.2042 H   0  0  0  0  0  0  0  0  0  0  0  0
  140.2496  152.9550  133.9237 H   0  0  0  0  0  0  0  0  0  0  0  0
  141.0080  155.5238  132.4600 H   0  0  0  0  0  0  0  0  0  0  0  0
  139.7308  155.3452  133.7170 H   0  0  0  0  0  0  0  0  0  0  0  0
  1  2  1  0
  2  3  2  0
  2  4  1  0
  4  5  2  0
  5  6  1  0
  6  7  2  0
  7  8  1  0
  8  9  2  0
  9 10  1  0
 10 11  1  0
 11 12  2  0
 11 13  1  0
 13 14  1  0
 14 15  1  0
 15 16  1  0
  9 17  1  0
 17 18  2  0
 18 19  1  0
 19 20  1  0
 20 21  2  0
 20 22  1  0
 22 23  1  0
 23 24  1  0
 24 25  1  0
 25 26  1  0
 26 27  1  0
 27 28  1  0
 28 29  1  0
 29 30  1  0
 27 31  1  0
 31 32  1  0
 19  4  1  0
 32 24  1  0
 18  6  1  0
  1 33  1  0
  5 34  1  0
  7 35  1  0
  8 36  1  0
 10 37  1  0
 10 38  1  0
 14 39  1  0
 14 40  1  0
 15 41  1  0
 15 42  1  0
 16 43  1  0
 17 44  1  0
 22 45  1  0
 22 46  1  0
 23 47  1  0
 23 48  1  0
 25 49  1  0
 25 50  1  0
 26 51  1  0
 26 52  1  0
 28 53  1  0
 28 54  1  0
 29 55  1  0
 29 56  1  0
 30 57  1  0
 31 58  1  0
 31 59  1  0
 32 60  1  0
 32 61  1  0
M  CHG  2   1  -1  13  -1
M  END
>  <UniqueID>  (72) 
72

>  <SMILES>  (72) 
[NH-]C(=O)c1cc2ccc(CC(=O)[N-]CCO)cc2n1C(=O)CCN1CCN(CCO)CC1

>  <Energy>  (72) 
107.5537387841214

>  <Genealogy>  (72) 
[NH-]C(=O)c1cc2ccc(CC(=O)[N-]CCO)cc2n1C(=O)CCN1CCN(CCO)CC1 (protonated)
[NH-]C(=O)c1cc2ccc(CC(=O)[N-]CCO)cc2n1C(=O)CCN1CCN(CCO)CC1 (3D coordinates assigned)
[NH-]C(=O)c1cc2ccc(CC(=O)[N-]CCO)cc2n1C(=O)CCN1CCN(CCO)CC1 (nonaromatic ring conformer: 107.5537387841214 kcal/mol)

>  <smiles>  (72) 
NC(=O)c1cc2ccc(CC(=O)NCCO)cc2n1C(=O)CCN1CCN(CCO)CC1

>  <score_type>  (72) 
oracle

>  <origin>  (72) 
adg

>  <m_score__min__energy>  (72) 
-7.4299999999999997

>  <m_primary>  (72) 
energy

$$$$
72:0
     RDKit          3D

 46 48  0  0  0  0  0  0  0  0999 V2000
  142.1980  150.3920  132.8400 C   0  0  0  0  0  0  0  0  0  0  0  0
  142.1440  151.7680  133.3570 N   0  0  0  0  0  0  0  0  0  0  0  0
  141.3890  151.9130  134.6180 C   0  0  0  0  0  0  0  0  0  0  0  0
  142.1220  152.7110  135.7040 C   0  0  0  0  0  0  0  0  0  0  0  0
  142.0670  154.2210  135.4720 C   0  0  0  0  0  0  0  0  0  0  0  0
  142.4610  154.5560  134.0960 N   0  0  0  0  0  0  0  0  0  0  0  0
  143.7700  155.1060  133.8560 C   0  0  0  0  0  0  0  0  0  0  0  0
  144.8960  154.2510  133.7540 C   0  0  0  0  0  0  0  0  0  0  0  0
  146.1850  154.7800  133.5700 C   0  0  0  0  0  0  0  0  0  0  0  0
  146.3170  156.1630  133.4960 C   0  0  0  0  0  0  0  0  0  0  0  0
  147.4410  156.9390  133.3330 C   0  0  0  0  0  0  0  0  0  0  0  0
  146.9850  158.2570  133.3420 C   0  0  0  0  0  0  0  0  0  0  0  0
  147.8790  159.4320  133.3000 C   0  0  0  0  0  0  0  0  0  0  0  0
  147.7540  160.3840  132.2450 N   0  0  0  0  0  0  0  0  0  0  0  0
  148.7720  159.5940  134.1730 O   0  0  0  0  0  0  0  0  0  0  0  0
  145.6300  158.2900  133.4900 N   0  0  0  0  0  0  0  0  0  0  0  0
  144.7650  159.4370  133.4790 C   0  0  0  0  0  0  0  0  0  0  0  0
  145.0510  160.4280  132.7530 O   0  0  0  0  0  0  0  0  0  0  0  0
  143.5690  159.5050  134.3830 C   0  0  0  0  0  0  0  0  0  0  0  0
  142.3280  159.7430  133.5860 C   0  0  0  0  0  0  0  0  0  0  0  0
  141.8300  160.8980  133.5210 O   0  0  0  0  0  0  0  0  0  0  0  0
  141.7350  158.6960  132.8900 O   0  0  0  0  0  0  0  0  0  0  0  0
  145.2380  157.0030  133.5920 C   0  0  0  0  0  0  0  0  0  0  0  0
  143.9430  156.5050  133.7640 C   0  0  0  0  0  0  0  0  0  0  0  0
  141.6370  154.2220  132.9210 C   0  0  0  0  0  0  0  0  0  0  0  0
  141.8670  152.8090  132.3470 C   0  0  0  0  0  0  0  0  0  0  0  0
  142.2258  149.6848  133.6820 H   0  0  0  0  0  0  0  0  0  0  0  0
  141.3069  150.1959  132.2257 H   0  0  0  0  0  0  0  0  0  0  0  0
  143.1018  150.2663  132.2257 H   0  0  0  0  0  0  0  0  0  0  0  0
  140.4410  152.4246  134.3952 H   0  0  0  0  0  0  0  0  0  0  0  0
  141.2435  150.8982  135.0167 H   0  0  0  0  0  0  0  0  0  0  0  0
  141.6585  152.4882  136.6764 H   0  0  0  0  0  0  0  0  0  0  0  0
  143.1800  152.4112  135.6765 H   0  0  0  0  0  0  0  0  0  0  0  0
  141.0407  154.5752  135.6489 H   0  0  0  0  0  0  0  0  0  0  0  0
  142.7673  154.7085  136.1662 H   0  0  0  0  0  0  0  0  0  0  0  0
  144.7594  153.1615  133.8196 H   0  0  0  0  0  0  0  0  0  0  0  0
  147.0620  154.1212  133.4871 H   0  0  0  0  0  0  0  0  0  0  0  0
  148.4791  156.5934  133.2196 H   0  0  0  0  0  0  0  0  0  0  0  0
  146.8880  160.9580  132.1400 H   0  0  0  0  0  0  0  0  0  0  0  0
  143.4727  158.5550  134.9291 H   0  0  0  0  0  0  0  0  0  0  0  0
  143.7034  160.3357  135.0915 H   0  0  0  0  0  0  0  0  0  0  0  0
  143.0808  157.1852  133.8261 H   0  0  0  0  0  0  0  0  0  0  0  0
  140.5791  154.3051  133.2108 H   0  0  0  0  0  0  0  0  0  0  0  0
  141.9283  154.9278  132.1292 H   0  0  0  0  0  0  0  0  0  0  0  0
  140.9649  152.5146  131.7906 H   0  0  0  0  0  0  0  0  0  0  0  0
  142.7649  152.8739  131.7148 H   0  0  0  0  0  0  0  0  0  0  0  0
  1  2  1  0
  2  3  1  0
  3  4  1  0
  4  5  1  0
  5  6  1  0
  6  7  1  0
  7  8  2  0
  8  9  1  0
  9 10  2  0
 10 11  1  0
 11 12  2  0
 12 13  1  0
 13 14  1  0
 13 15  2  0
 12 16  1  0
 16 17  1  0
 17 18  2  0
 17 19  1  0
 19 20  1  0
 20 21  2  0
 20 22  1  0
 16 23  1  0
 23 24  2  0
  6 25  1  0
 25 26  1  0
 26  2  1  0
 24  7  1  0
 23 10  1  0
  1 27  1  0
  1 28  1  0
  1 29  1  0
  3 30  1  0
  3 31  1  0
  4 32  1  0
  4 33  1  0
  5 34  1  0
  5 35  1  0
  8 36  1  0
  9 37  1  0
 11 38  1  0
 14 39  1  0
 19 40  1  0
 19 41  1  0
 24 42  1  0
 25 43  1  0
 25 44  1  0
 26 45  1  0
 26 46  1  0
M  CHG  2  14  -1  22  -1
M  END
>  <UniqueID>  (73) 
73

>  <SMILES>  (73) 
CN1CCCN(c2ccc3cc(C([NH-])=O)n(C(=O)CC(=O)[O-])c3c2)CC1

>  <Energy>  (73) 
97.64741593318676

>  <Genealogy>  (73) 
CN1CCCN(c2ccc3cc(C([NH-])=O)n(C(=O)CC(=O)[O-])c3c2)CC1 (protonated)
CN1CCCN(c2ccc3cc(C([NH-])=O)n(C(=O)CC(=O)[O-])c3c2)CC1 (3D coordinates assigned)
CN1CCCN(c2ccc3cc(C([NH-])=O)n(C(=O)CC(=O)[O-])c3c2)CC1 (nonaromatic ring conformer: 97.64741593318676 kcal/mol)

>  <smiles>  (73) 
CN1CCCN(c2ccc3cc(C(N)=O)n(C(=O)CC(=O)O)c3c2)CC1

>  <score_type>  (73) 
oracle

>  <origin>  (73) 
adg

>  <m_score__min__energy>  (73) 
-5.3700000000000001

>  <m_primary>  (73) 
energy

$$$$
73:0
     RDKit          3D

 36 37  0  0  0  0  0  0  0  0999 V2000
  148.3030  151.3050  132.6080 C   0  0  0  0  0  0  0  0  0  0  0  0
  149.1800  152.5560  132.7420 C   0  0  1  0  0  0  0  0  0  0  0  0
  149.7130  152.8790  131.4820 O   0  0  0  0  0  0  0  0  0  0  0  0
  148.3640  153.7600  133.2710 C   0  0  2  0  0  0  0  0  0  0  0  0
  146.9660  153.3620  133.7730 C   0  0  0  0  0  0  0  0  0  0  0  0
  148.2930  154.8720  132.3070 N   0  0  0  0  0  0  0  0  0  0  0  0
  147.9130  156.2430  132.5620 C   0  0  0  0  0  0  0  0  0  0  0  0
  148.9290  157.2330  132.5700 C   0  0  0  0  0  0  0  0  0  0  0  0
  148.6280  158.5800  132.8260 C   0  0  0  0  0  0  0  0  0  0  0  0
  147.3020  158.9160  133.0700 C   0  0  0  0  0  0  0  0  0  0  0  0
  146.7390  160.1340  133.3730 C   0  0  0  0  0  0  0  0  0  0  0  0
  145.3780  159.8820  133.5340 C   0  0  0  0  0  0  0  0  0  0  0  0
  144.3800  160.9420  133.7820 C   0  0  0  0  0  0  0  0  0  0  0  0
  143.0270  160.7890  133.3620 N   0  0  0  0  0  0  0  0  0  0  0  0
  144.7380  162.0200  134.3280 O   0  0  0  0  0  0  0  0  0  0  0  0
  145.1120  158.5580  133.3470 N   0  0  0  0  0  0  0  0  0  0  0  0
  143.8550  157.8840  133.5140 C   0  0  0  0  0  0  0  0  0  0  0  0
  142.9820  157.9300  132.6060 O   0  0  0  0  0  0  0  0  0  0  0  0
  143.5990  157.1510  134.6660 O   0  0  0  0  0  0  0  0  0  0  0  0
  146.3020  157.9800  133.0620 C   0  0  0  0  0  0  0  0  0  0  0  0
  146.5770  156.6280  132.8310 C   0  0  0  0  0  0  0  0  0  0  0  0
  148.0413  150.9317  133.6091 H   0  0  0  0  0  0  0  0  0  0  0  0
  147.3839  151.5586  132.0594 H   0  0  0  0  0  0  0  0  0  0  0  0
  148.8548  150.5274  132.0594 H   0  0  0  0  0  0  0  0  0  0  0  0
  149.9852  152.3412  133.4600 H   0  0  0  0  0  0  0  0  0  0  0  0
  150.6890  153.0110  131.6050 H   0  0  0  0  0  0  0  0  0  0  0  0
  148.9243  154.1274  134.1434 H   0  0  0  0  0  0  0  0  0  0  0  0
  146.9583  153.3598  134.8730 H   0  0  0  0  0  0  0  0  0  0  0  0
  146.2239  154.0846  133.4026 H   0  0  0  0  0  0  0  0  0  0  0  0
  146.7158  152.3569  133.4026 H   0  0  0  0  0  0  0  0  0  0  0  0
  148.4120  154.6000  131.3040 H   0  0  0  0  0  0  0  0  0  0  0  0
  149.9707  156.9401  132.3722 H   0  0  0  0  0  0  0  0  0  0  0  0
  149.4175  159.3459  132.8332 H   0  0  0  0  0  0  0  0  0  0  0  0
  147.2538  161.1014  133.4680 H   0  0  0  0  0  0  0  0  0  0  0  0
  142.7700  160.1060  132.6160 H   0  0  0  0  0  0  0  0  0  0  0  0
  145.7718  155.8791  132.8577 H   0  0  0  0  0  0  0  0  0  0  0  0
  1  2  1  0
  2  3  1  0
  2  4  1  0
  4  5  1  0
  4  6  1  0
  6  7  1  0
  7  8  2  0
  8  9  1  0
  9 10  2  0
 10 11  1  0
 11 12  2  0
 12 13  1  0
 13 14  1  0
 13 15  2  0
 12 16  1  0
 16 17  1  0
 17 18  2  0
 17 19  1  0
 16 20  1  0
 20 21  2  0
 21  7  1  0
 20 10  1  0
  1 22  1  0
  1 23  1  0
  1 24  1  0
  2 25  1  1
  3 26  1  0
  4 27  1  1
  5 28  1  0
  5 29  1  0
  5 30  1  0
  6 31  1  0
  8 32  1  0
  9 33  1  0
 11 34  1  0
 14 35  1  0
 21 36  1  0
M  CHG  2  14  -1  19  -1
M  END
>  <UniqueID>  (74) 
74

>  <SMILES>  (74) 
C[C@H](Nc1ccc2cc(C([NH-])=O)n(C(=O)[O-])c2c1)[C@@H](C)O

>  <Energy>  (74) 
75.58853939327591

>  <Genealogy>  (74) 
CC(O)C(C)Nc1ccc2cc(C([NH-])=O)n(C(=O)[O-])c2c1 (protonated)
C[C@H](Nc1ccc2cc(C([NH-])=O)n(C(=O)[O-])c2c1)[C@@H](C)O (chirality)
C[C@H](Nc1ccc2cc(C([NH-])=O)n(C(=O)[O-])c2c1)[C@@H](C)O (3D coordinates assigned)
C[C@H](Nc1ccc2cc(C([NH-])=O)n(C(=O)[O-])c2c1)[C@@H](C)O (optimized conformer: 75.58853939327591 kcal/mol)

>  <smiles>  (74) 
CC(O)C(C)Nc1ccc2cc(C(N)=O)n(C(=O)O)c2c1

>  <score_type>  (74) 
oracle

>  <origin>  (74) 
adg

>  <m_score__min__energy>  (74) 
-7.0199999999999996

>  <m_primary>  (74) 
energy

$$$$
74:0
     RDKit          3D

 51 52  0  0  0  0  0  0  0  0999 V2000
  137.5170  159.1250  131.3870 C   0  0  0  0  0  0  0  0  0  0  0  0
  138.8810  159.0320  131.9350 N   0  0  0  0  0  0  0  0  0  0  0  0
  139.8570  159.3590  130.8850 C   0  0  0  0  0  0  0  0  0  0  0  0
  139.1510  157.6850  132.4890 C   0  0  0  0  0  0  0  0  0  0  0  0
  139.5960  157.7560  133.9610 C   0  0  0  0  0  0  0  0  0  0  0  0
  140.9300  157.0380  134.2350 C   0  0  0  0  0  0  0  0  0  0  0  0
  142.1260  157.9040  133.9280 C   0  0  0  0  0  0  0  0  0  0  0  0
  141.9610  159.2920  133.6970 C   0  0  0  0  0  0  0  0  0  0  0  0
  143.0740  160.1160  133.4640 C   0  0  0  0  0  0  0  0  0  0  0  0
  144.3350  159.5280  133.4810 C   0  0  0  0  0  0  0  0  0  0  0  0
  145.5740  160.0900  133.2810 C   0  0  0  0  0  0  0  0  0  0  0  0
  146.4820  159.0410  133.4130 C   0  0  0  0  0  0  0  0  0  0  0  0
  147.9530  159.2010  133.3500 C   0  0  0  0  0  0  0  0  0  0  0  0
  148.8240  158.1460  133.7670 N   0  0  0  0  0  0  0  0  0  0  0  0
  148.4550  160.2670  132.9050 O   0  0  0  0  0  0  0  0  0  0  0  0
  145.8290  157.8770  133.6860 N   0  0  0  0  0  0  0  0  0  0  0  0
  146.4130  156.5720  133.8460 C   0  0  0  0  0  0  0  0  0  0  0  0
  146.6570  156.1370  135.0030 O   0  0  0  0  0  0  0  0  0  0  0  0
  146.6750  155.6890  132.6570 C   0  0  0  0  0  0  0  0  0  0  0  0
  148.0540  155.0980  132.6710 C   0  0  0  0  0  0  0  0  0  0  0  0
  149.0490  155.8710  132.6260 O   0  0  0  0  0  0  0  0  0  0  0  0
  148.2340  153.7090  132.7240 O   0  0  0  0  0  0  0  0  0  0  0  0
  149.2970  153.0120  132.0730 C   0  0  0  0  0  0  0  0  0  0  0  0
  149.1860  151.4990  132.2880 C   0  0  0  0  0  0  0  0  0  0  0  0
  150.2790  150.6580  131.1590 Cl  0  0  0  0  0  0  0  0  0  0  0  0
  147.5190  150.9460  131.9760 Cl  0  0  0  0  0  0  0  0  0  0  0  0
  149.6480  151.0470  133.9480 Cl  0  0  0  0  0  0  0  0  0  0  0  0
  144.5140  158.1900  133.7180 C   0  0  0  0  0  0  0  0  0  0  0  0
  143.4200  157.3410  133.9220 C   0  0  0  0  0  0  0  0  0  0  0  0
  136.7925  159.1744  132.2132 H   0  0  0  0  0  0  0  0  0  0  0  0
  137.4310  160.0311  130.7693 H   0  0  0  0  0  0  0  0  0  0  0  0
  137.3088  158.2390  130.7693 H   0  0  0  0  0  0  0  0  0  0  0  0
  140.8026  159.6758  131.3492 H   0  0  0  0  0  0  0  0  0  0  0  0
  140.0346  158.4713  130.2602 H   0  0  0  0  0  0  0  0  0  0  0  0
  139.4639  160.1745  130.2602 H   0  0  0  0  0  0  0  0  0  0  0  0
  138.2340  157.0812  132.4221 H   0  0  0  0  0  0  0  0  0  0  0  0
  139.9647  157.2299  131.9053 H   0  0  0  0  0  0  0  0  0  0  0  0
  139.7063  158.8141  134.2407 H   0  0  0  0  0  0  0  0  0  0  0  0
  138.8254  157.2450  134.5568 H   0  0  0  0  0  0  0  0  0  0  0  0
  140.9650  156.7518  135.2965 H   0  0  0  0  0  0  0  0  0  0  0  0
  140.9770  156.1578  133.5769 H   0  0  0  0  0  0  0  0  0  0  0  0
  140.9513  159.7285  133.7002 H   0  0  0  0  0  0  0  0  0  0  0  0
  142.9528  161.1927  133.2740 H   0  0  0  0  0  0  0  0  0  0  0  0
  145.8005  161.1441  133.0630 H   0  0  0  0  0  0  0  0  0  0  0  0
  149.8580  158.2550  133.6780 H   0  0  0  0  0  0  0  0  0  0  0  0
  148.4520  157.2730  134.2020 H   0  0  0  0  0  0  0  0  0  0  0  0
  145.9406  154.8701  132.6575 H   0  0  0  0  0  0  0  0  0  0  0  0
  146.5879  156.3110  131.7539 H   0  0  0  0  0  0  0  0  0  0  0  0
  149.2568  153.2243  130.9944 H   0  0  0  0  0  0  0  0  0  0  0  0
  150.2502  153.3542  132.5024 H   0  0  0  0  0  0  0  0  0  0  0  0
  143.5654  156.2613  134.0739 H   0  0  0  0  0  0  0  0  0  0  0  0
  1  2  1  0
  2  3  1  0
  2  4  1  0
  4  5  1  0
  5  6  1  0
  6  7  1  0
  7  8  2  0
  8  9  1  0
  9 10  2  0
 10 11  1  0
 11 12  2  0
 12 13  1  0
 13 14  1  0
 13 15  2  0
 12 16  1  0
 16 17  1  0
 17 18  2  0
 17 19  1  0
 19 20  1  0
 20 21  2  0
 20 22  1  0
 22 23  1  0
 23 24  1  0
 24 25  1  0
 24 26  1  0
 24 27  1  0
 16 28  1  0
 28 29  2  0
 29  7  1  0
 28 10  1  0
  1 30  1  0
  1 31  1  0
  1 32  1  0
  3 33  1  0
  3 34  1  0
  3 35  1  0
  4 36  1  0
  4 37  1  0
  5 38  1  0
  5 39  1  0
  6 40  1  0
  6 41  1  0
  8 42  1  0
  9 43  1  0
 11 44  1  0
 14 45  1  0
 14 46  1  0
 19 47  1  0
 19 48  1  0
 23 49  1  0
 23 50  1  0
 29 51  1  0
M  END
>  <UniqueID>  (75) 
75

>  <SMILES>  (75) 
CN(C)CCCc1ccc2cc(C(N)=O)n(C(=O)CC(=O)OCC(Cl)(Cl)Cl)c2c1

>  <Energy>  (75) 
79.13692989901536

>  <Genealogy>  (75) 
CN(C)CCCc1ccc2cc(C(N)=O)n(C(=O)CC(=O)OCC(Cl)(Cl)Cl)c2c1 (3D coordinates assigned)
CN(C)CCCc1ccc2cc(C(N)=O)n(C(=O)CC(=O)OCC(Cl)(Cl)Cl)c2c1 (optimized conformer: 79.13692989901536 kcal/mol)

>  <smiles>  (75) 
CN(C)CCCc1ccc2cc(C(N)=O)n(C(=O)CC(=O)OCC(Cl)(Cl)Cl)c2c1

>  <score_type>  (75) 
oracle

>  <origin>  (75) 
adg

>  <m_score__min__energy>  (75) 
-8.8699999999999992

>  <m_primary>  (75) 
energy

$$$$
75:0
     RDKit          3D

 50 52  0  0  0  0  0  0  0  0999 V2000
  138.7360  157.8380  131.4160 C   0  0  0  0  0  0  0  0  0  0  0  0
  139.5400  158.2130  132.6780 C   0  0  0  0  0  0  0  0  0  0  0  0
  138.6410  158.1010  133.9260 C   0  0  0  0  0  0  0  0  0  0  0  0
  140.7130  157.3240  132.8020 N   0  0  0  0  0  0  0  0  0  0  0  0
  140.6600  155.9140  133.0840 C   0  0  0  0  0  0  0  0  0  0  0  0
  139.5560  155.3110  133.1590 O   0  0  0  0  0  0  0  0  0  0  0  0
  141.8790  155.1710  133.2410 N   0  0  0  0  0  0  0  0  0  0  0  0
  143.1350  155.6560  133.4500 C   0  0  0  0  0  0  0  0  0  0  0  0
  143.4840  157.0710  133.6980 C   0  0  0  0  0  0  0  0  0  0  0  0
  143.5950  157.9770  132.6030 N   0  0  0  0  0  0  0  0  0  0  0  0
  143.7160  157.4820  134.8660 O   0  0  0  0  0  0  0  0  0  0  0  0
  144.0610  154.6150  133.4790 C   0  0  0  0  0  0  0  0  0  0  0  0
  143.3240  153.4670  133.2880 C   0  0  0  0  0  0  0  0  0  0  0  0
  143.7360  152.1400  133.2150 C   0  0  0  0  0  0  0  0  0  0  0  0
  142.7570  151.1590  132.9840 C   0  0  0  0  0  0  0  0  0  0  0  0
  141.3920  151.5170  132.8310 C   0  0  0  0  0  0  0  0  0  0  0  0
  140.4000  150.5040  132.5710 N   0  0  0  0  0  0  0  0  0  0  0  0
  139.1450  150.8640  131.8900 C   0  0  0  0  0  0  0  0  0  0  0  0
  138.4270  149.6240  131.3410 C   0  0  0  0  0  0  0  0  0  0  0  0
  139.4390  148.6540  130.7140 C   0  0  0  0  0  0  0  0  0  0  0  0
  138.7520  147.5550  130.1760 O   0  0  0  0  0  0  0  0  0  0  0  0
  140.4940  148.1760  131.7460 C   0  0  0  0  0  0  0  0  0  0  0  0
  140.6270  149.1070  132.9620 C   0  0  0  0  0  0  0  0  0  0  0  0
  141.0170  152.8780  132.9040 C   0  0  0  0  0  0  0  0  0  0  0  0
  142.0120  153.8300  133.1480 C   0  0  0  0  0  0  0  0  0  0  0  0
  140.0210  159.6500  132.5800 C   0  0  0  0  0  0  0  0  0  0  0  0
  141.2240  159.9270  132.8350 O   0  0  0  0  0  0  0  0  0  0  0  0
  139.1520  160.6810  132.2370 O   0  0  0  0  0  0  0  0  0  0  0  0
  137.7760  157.3902  131.7125 H   0  0  0  0  0  0  0  0  0  0  0  0
  138.5497  158.7421  130.8178 H   0  0  0  0  0  0  0  0  0  0  0  0
  139.3090  157.1142  130.8178 H   0  0  0  0  0  0  0  0  0  0  0  0
  139.2601  158.1781  134.8320 H   0  0  0  0  0  0  0  0  0  0  0  0
  137.8998  158.9137  133.9181 H   0  0  0  0  0  0  0  0  0  0  0  0
  138.1219  157.1312  133.9181 H   0  0  0  0  0  0  0  0  0  0  0  0
  141.6650  157.7230  132.6340 H   0  0  0  0  0  0  0  0  0  0  0  0
  142.7610  158.4970  132.2510 H   0  0  0  0  0  0  0  0  0  0  0  0
  145.1486  154.6933  133.6236 H   0  0  0  0  0  0  0  0  0  0  0  0
  144.7950  151.8675  133.3344 H   0  0  0  0  0  0  0  0  0  0  0  0
  143.0518  150.1011  132.9210 H   0  0  0  0  0  0  0  0  0  0  0  0
  138.4829  151.3725  132.6062 H   0  0  0  0  0  0  0  0  0  0  0  0
  139.3884  151.5243  131.0446 H   0  0  0  0  0  0  0  0  0  0  0  0
  137.8998  149.1169  132.1625 H   0  0  0  0  0  0  0  0  0  0  0  0
  137.7093  149.9393  130.5693 H   0  0  0  0  0  0  0  0  0  0  0  0
  139.9801  149.1849  129.9169 H   0  0  0  0  0  0  0  0  0  0  0  0
  137.9460  147.4200  130.7400 H   0  0  0  0  0  0  0  0  0  0  0  0
  140.2045  147.1765  132.1026 H   0  0  0  0  0  0  0  0  0  0  0  0
  141.4679  148.1702  131.2346 H   0  0  0  0  0  0  0  0  0  0  0  0
  139.8846  148.8188  133.7208 H   0  0  0  0  0  0  0  0  0  0  0  0
  141.6442  149.0139  133.3701 H   0  0  0  0  0  0  0  0  0  0  0  0
  139.9678  153.1810  132.7721 H   0  0  0  0  0  0  0  0  0  0  0  0
  1  2  1  0
  2  3  1  0
  2  4  1  0
  4  5  1  0
  5  6  2  0
  5  7  1  0
  7  8  1  0
  8  9  1  0
  9 10  1  0
  9 11  2  0
  8 12  2  0
 12 13  1  0
 13 14  2  0
 14 15  1  0
 15 16  2  0
 16 17  1  0
 17 18  1  0
 18 19  1  0
 19 20  1  0
 20 21  1  0
 20 22  1  0
 22 23  1  0
 16 24  1  0
 24 25  2  0
  2 26  1  0
 26 27  2  0
 26 28  1  0
 25  7  1  0
 25 13  1  0
 23 17  1  0
  1 29  1  0
  1 30  1  0
  1 31  1  0
  3 32  1  0
  3 33  1  0
  3 34  1  0
  4 35  1  0
 10 36  1  0
 12 37  1  0
 14 38  1  0
 15 39  1  0
 18 40  1  0
 18 41  1  0
 19 42  1  0
 19 43  1  0
 20 44  1  0
 21 45  1  0
 22 46  1  0
 22 47  1  0
 23 48  1  0
 23 49  1  0
 24 50  1  0
M  CHG  2  10  -1  28  -1
M  END
>  <UniqueID>  (76) 
76

>  <SMILES>  (76) 
CC(C)(NC(=O)n1c(C([NH-])=O)cc2ccc(N3CCC(O)CC3)cc21)C(=O)[O-]

>  <Energy>  (76) 
94.49952700767092

>  <Genealogy>  (76) 
CC(C)(NC(=O)n1c(C([NH-])=O)cc2ccc(N3CCC(O)CC3)cc21)C(=O)[O-] (protonated)
CC(C)(NC(=O)n1c(C([NH-])=O)cc2ccc(N3CCC(O)CC3)cc21)C(=O)[O-] (3D coordinates assigned)
CC(C)(NC(=O)n1c(C([NH-])=O)cc2ccc(N3CCC(O)CC3)cc21)C(=O)[O-] (nonaromatic ring conformer: 94.49952700767092 kcal/mol)

>  <smiles>  (76) 
CC(C)(NC(=O)n1c(C(N)=O)cc2ccc(N3CCC(O)CC3)cc21)C(=O)O

>  <score_type>  (76) 
oracle

>  <origin>  (76) 
adg

>  <m_score__min__energy>  (76) 
-8.6300000000000008

>  <m_primary>  (76) 
energy

$$$$
76:0
     RDKit          3D

 33 34  0  0  0  0  0  0  0  0999 V2000
  146.2490  160.8210  133.3520 N   0  0  0  0  0  0  0  0  0  0  0  0
  145.4190  159.6870  133.6080 C   0  0  0  0  0  0  0  0  0  0  0  0
  144.1980  159.8610  133.8660 O   0  0  0  0  0  0  0  0  0  0  0  0
  145.9500  158.3130  133.5090 C   0  0  0  0  0  0  0  0  0  0  0  0
  145.2020  157.1800  133.8150 C   0  0  0  0  0  0  0  0  0  0  0  0
  146.0260  156.1150  133.5320 C   0  0  0  0  0  0  0  0  0  0  0  0
  145.8010  154.7500  133.6750 C   0  0  0  0  0  0  0  0  0  0  0  0
  146.8460  153.8710  133.3490 C   0  0  0  0  0  0  0  0  0  0  0  0
  148.0910  154.3650  132.8820 C   0  0  0  0  0  0  0  0  0  0  0  0
  149.2260  153.4160  132.5970 C   0  0  0  0  0  0  0  0  0  0  0  0
  150.3830  154.1140  132.2930 F   0  0  0  0  0  0  0  0  0  0  0  0
  148.9210  152.5970  131.5230 F   0  0  0  0  0  0  0  0  0  0  0  0
  149.4540  152.6310  133.7120 F   0  0  0  0  0  0  0  0  0  0  0  0
  148.2900  155.7620  132.7760 C   0  0  0  0  0  0  0  0  0  0  0  0
  147.2220  156.6140  133.0850 C   0  0  0  0  0  0  0  0  0  0  0  0
  147.1920  157.9670  133.0680 N   0  0  0  0  0  0  0  0  0  0  0  0
  148.2880  158.8440  132.7600 C   0  0  0  0  0  0  0  0  0  0  0  0
  148.8610  159.4860  133.6830 O   0  0  0  0  0  0  0  0  0  0  0  0
  148.7190  158.9820  131.4370 O   0  0  0  0  0  0  0  0  0  0  0  0
  149.8870  159.7110  131.0790 C   0  0  0  0  0  0  0  0  0  0  0  0
  149.4980  161.1090  130.6150 C   0  0  0  0  0  0  0  0  0  0  0  0
  148.4970  161.6230  131.4480 O   0  0  0  0  0  0  0  0  0  0  0  0
  145.8660  161.7860  133.4660 H   0  0  0  0  0  0  0  0  0  0  0  0
  147.2140  160.7090  132.9710 H   0  0  0  0  0  0  0  0  0  0  0  0
  144.1724  157.1436  134.2006 H   0  0  0  0  0  0  0  0  0  0  0  0
  144.8327  154.3703  134.0330 H   0  0  0  0  0  0  0  0  0  0  0  0
  146.6976  152.7864  133.4570 H   0  0  0  0  0  0  0  0  0  0  0  0
  149.2611  156.1695  132.4582 H   0  0  0  0  0  0  0  0  0  0  0  0
  150.5521  159.7873  131.9518 H   0  0  0  0  0  0  0  0  0  0  0  0
  150.4068  159.1879  130.2628 H   0  0  0  0  0  0  0  0  0  0  0  0
  150.3795  161.7657  130.6551 H   0  0  0  0  0  0  0  0  0  0  0  0
  149.1212  161.0577  129.5828 H   0  0  0  0  0  0  0  0  0  0  0  0
  148.3990  160.9740  132.1940 H   0  0  0  0  0  0  0  0  0  0  0  0
  1  2  1  0
  2  3  2  0
  2  4  1  0
  4  5  2  0
  5  6  1  0
  6  7  2  0
  7  8  1  0
  8  9  2  0
  9 10  1  0
 10 11  1  0
 10 12  1  0
 10 13  1  0
  9 14  1  0
 14 15  2  0
 15 16  1  0
 16 17  1  0
 17 18  2  0
 17 19  1  0
 19 20  1  0
 20 21  1  0
 21 22  1  0
 16  4  1  0
 15  6  1  0
  1 23  1  0
  1 24  1  0
  5 25  1  0
  7 26  1  0
  8 27  1  0
 14 28  1  0
 20 29  1  0
 20 30  1  0
 21 31  1  0
 21 32  1  0
 22 33  1  0
M  END
>  <UniqueID>  (77) 
77

>  <SMILES>  (77) 
NC(=O)c1cc2ccc(C(F)(F)F)cc2n1C(=O)OCCO

>  <Energy>  (77) 
68.11851164171644

>  <Genealogy>  (77) 
NC(=O)c1cc2ccc(C(F)(F)F)cc2n1C(=O)OCCO (3D coordinates assigned)
NC(=O)c1cc2ccc(C(F)(F)F)cc2n1C(=O)OCCO (optimized conformer: 68.11851164171644 kcal/mol)

>  <smiles>  (77) 
NC(=O)c1cc2ccc(C(F)(F)F)cc2n1C(=O)OCCO

>  <score_type>  (77) 
oracle

>  <origin>  (77) 
adg

>  <m_score__min__energy>  (77) 
-5.6299999999999999

>  <m_primary>  (77) 
energy

$$$$
77:0
     RDKit          3D

 43 45  0  0  0  0  0  0  0  0999 V2000
  142.0470  149.4750  132.2850 C   0  0  0  0  0  0  0  0  0  0  0  0
  140.9640  150.5030  132.6550 C   0  0  0  0  0  0  0  0  0  0  0  0
  139.5970  150.0160  132.1550 C   0  0  0  0  0  0  0  0  0  0  0  0
  141.2670  151.8380  132.0940 N   0  0  0  0  0  0  0  0  0  0  0  0
  141.4440  152.8250  133.1350 C   0  0  0  0  0  0  0  0  0  0  0  0
  142.1620  152.5020  134.3160 C   0  0  0  0  0  0  0  0  0  0  0  0
  142.3160  153.4500  135.3420 C   0  0  0  0  0  0  0  0  0  0  0  0
  141.7510  154.7100  135.1610 C   0  0  0  0  0  0  0  0  0  0  0  0
  141.7220  155.7990  136.0020 C   0  0  0  0  0  0  0  0  0  0  0  0
  140.9800  156.7650  135.3290 C   0  0  0  0  0  0  0  0  0  0  0  0
  140.5530  158.0360  135.9470 C   0  0  0  0  0  0  0  0  0  0  0  0
  139.1900  158.2270  136.3170 N   0  0  0  0  0  0  0  0  0  0  0  0
  141.3770  158.9730  136.1170 O   0  0  0  0  0  0  0  0  0  0  0  0
  140.5910  156.3060  134.1050 N   0  0  0  0  0  0  0  0  0  0  0  0
  139.8730  157.0150  133.0800 C   0  0  0  0  0  0  0  0  0  0  0  0
  139.1210  156.3790  132.2940 O   0  0  0  0  0  0  0  0  0  0  0  0
  140.0380  158.5050  132.9030 C   0  0  0  0  0  0  0  0  0  0  0  0
  139.6010  159.0670  131.5320 C   0  0  0  0  0  0  0  0  0  0  0  0
  138.9730  160.4550  131.6170 C   0  0  0  0  0  0  0  0  0  0  0  0
  138.1260  159.2690  131.1940 C   0  0  0  0  0  0  0  0  0  0  0  0
  141.0540  155.0380  134.0280 C   0  0  0  0  0  0  0  0  0  0  0  0
  140.8820  154.1140  132.9910 C   0  0  0  0  0  0  0  0  0  0  0  0
  142.4860  149.0583  133.2035 H   0  0  0  0  0  0  0  0  0  0  0  0
  141.5963  148.6644  131.6935 H   0  0  0  0  0  0  0  0  0  0  0  0
  142.8330  149.9673  131.6935 H   0  0  0  0  0  0  0  0  0  0  0  0
  140.9429  150.5994  133.7506 H   0  0  0  0  0  0  0  0  0  0  0  0
  138.9522  149.7863  133.0161 H   0  0  0  0  0  0  0  0  0  0  0  0
  139.1281  150.8024  131.5453 H   0  0  0  0  0  0  0  0  0  0  0  0
  139.7310  149.1103  131.5453 H   0  0  0  0  0  0  0  0  0  0  0  0
  142.1190  151.7890  131.4880 H   0  0  0  0  0  0  0  0  0  0  0  0
  140.4750  152.1520  131.4850 H   0  0  0  0  0  0  0  0  0  0  0  0
  142.6021  151.5002  134.4293 H   0  0  0  0  0  0  0  0  0  0  0  0
  142.8670  153.2038  136.2617 H   0  0  0  0  0  0  0  0  0  0  0  0
  142.1866  155.8871  136.9952 H   0  0  0  0  0  0  0  0  0  0  0  0
  138.9360  158.6280  137.2460 H   0  0  0  0  0  0  0  0  0  0  0  0
  139.4417  159.0061  133.6797 H   0  0  0  0  0  0  0  0  0  0  0  0
  141.1182  158.6989  132.9771 H   0  0  0  0  0  0  0  0  0  0  0  0
  140.4167  158.5617  130.9942 H   0  0  0  0  0  0  0  0  0  0  0  0
  138.8095  160.9249  132.5981 H   0  0  0  0  0  0  0  0  0  0  0  0
  139.2029  161.4393  131.1830 H   0  0  0  0  0  0  0  0  0  0  0  0
  137.3493  158.8799  131.8688 H   0  0  0  0  0  0  0  0  0  0  0  0
  137.4891  159.0390  130.3272 H   0  0  0  0  0  0  0  0  0  0  0  0
  140.3218  154.3849  132.0839 H   0  0  0  0  0  0  0  0  0  0  0  0
  1  2  1  0
  2  3  1  0
  2  4  1  0
  4  5  1  0
  5  6  2  0
  6  7  1  0
  7  8  2  0
  8  9  1  0
  9 10  2  0
 10 11  1  0
 11 12  1  0
 11 13  2  0
 10 14  1  0
 14 15  1  0
 15 16  2  0
 15 17  1  0
 17 18  1  0
 18 19  1  0
 19 20  1  0
 14 21  1  0
 21 22  2  0
 22  5  1  0
 21  8  1  0
 20 18  1  0
  1 23  1  0
  1 24  1  0
  1 25  1  0
  2 26  1  0
  3 27  1  0
  3 28  1  0
  3 29  1  0
  4 30  1  0
  4 31  1  0
  6 32  1  0
  7 33  1  0
  9 34  1  0
 12 35  1  0
 17 36  1  0
 17 37  1  0
 18 38  1  0
 19 39  1  0
 19 40  1  0
 20 41  1  0
 20 42  1  0
 22 43  1  0
M  CHG  2   4   1  12  -1
M  END
>  <UniqueID>  (78) 
78

>  <SMILES>  (78) 
CC(C)[NH2+]c1ccc2cc(C([NH-])=O)n(C(=O)CC3CC3)c2c1

>  <Energy>  (78) 
348.553440944842

>  <Genealogy>  (78) 
CC(C)[NH2+]c1ccc2cc(C([NH-])=O)n(C(=O)CC3CC3)c2c1 (protonated)
CC(C)[NH2+]c1ccc2cc(C([NH-])=O)n(C(=O)CC3CC3)c2c1 (3D coordinates assigned)
CC(C)[NH2+]c1ccc2cc(C([NH-])=O)n(C(=O)CC3CC3)c2c1 (nonaromatic ring conformer: 348.553440944842 kcal/mol)

>  <smiles>  (78) 
CC(C)Nc1ccc2cc(C(N)=O)n(C(=O)CC3CC3)c2c1

>  <score_type>  (78) 
oracle

>  <origin>  (78) 
adg

>  <m_score__min__energy>  (78) 
-7.8899999999999997

>  <m_primary>  (78) 
energy

$$$$
78:0
     RDKit          3D

 30 32  0  0  0  0  0  0  0  0999 V2000
  146.2640  161.4220  134.0870 N   0  0  0  0  0  0  0  0  0  0  0  0
  145.3460  160.4320  133.6320 C   0  0  0  0  0  0  0  0  0  0  0  0
  144.1550  160.7640  133.3890 O   0  0  0  0  0  0  0  0  0  0  0  0
  145.7610  159.0220  133.4700 C   0  0  0  0  0  0  0  0  0  0  0  0
  144.8720  157.9480  133.4870 C   0  0  0  0  0  0  0  0  0  0  0  0
  145.6550  156.8240  133.3570 C   0  0  0  0  0  0  0  0  0  0  0  0
  145.2960  155.4800  133.3100 C   0  0  0  0  0  0  0  0  0  0  0  0
  146.3180  154.5300  133.1460 C   0  0  0  0  0  0  0  0  0  0  0  0
  147.6720  154.9360  133.0080 C   0  0  0  0  0  0  0  0  0  0  0  0
  148.7630  153.9040  132.8740 C   0  0  0  0  0  0  0  0  0  0  0  0
  148.4410  153.0320  131.8500 F   0  0  0  0  0  0  0  0  0  0  0  0
  149.9750  154.5090  132.5880 F   0  0  0  0  0  0  0  0  0  0  0  0
  148.9040  153.1870  134.0490 F   0  0  0  0  0  0  0  0  0  0  0  0
  147.9970  156.3100  133.0840 C   0  0  0  0  0  0  0  0  0  0  0  0
  146.9600  157.2300  133.2660 C   0  0  0  0  0  0  0  0  0  0  0  0
  147.0420  158.5770  133.3390 N   0  0  0  0  0  0  0  0  0  0  0  0
  148.2360  159.3630  133.2140 C   0  0  0  0  0  0  0  0  0  0  0  0
  148.8580  159.7220  134.2510 O   0  0  0  0  0  0  0  0  0  0  0  0
  148.7410  159.7490  131.8880 C   0  0  0  0  0  0  0  0  0  0  0  0
  148.1130  160.5610  130.9690 C   0  0  0  0  0  0  0  0  0  0  0  0
  148.9430  160.6470  129.9160 N   0  0  0  0  0  0  0  0  0  0  0  0
  150.0210  159.9270  130.1800 N   0  0  0  0  0  0  0  0  0  0  0  0
  149.9280  159.3690  131.3780 N   0  0  0  0  0  0  0  0  0  0  0  0
  147.2640  161.1840  134.2710 H   0  0  0  0  0  0  0  0  0  0  0  0
  143.7771  157.9903  133.5838 H   0  0  0  0  0  0  0  0  0  0  0  0
  144.2440  155.1710  133.3986 H   0  0  0  0  0  0  0  0  0  0  0  0
  146.0666  153.4593  133.1242 H   0  0  0  0  0  0  0  0  0  0  0  0
  149.0408  156.6471  133.0019 H   0  0  0  0  0  0  0  0  0  0  0  0
  147.1296  161.0422  131.0759 H   0  0  0  0  0  0  0  0  0  0  0  0
  148.7840  161.1830  129.0350 H   0  0  0  0  0  0  0  0  0  0  0  0
  1  2  1  0
  2  3  2  0
  2  4  1  0
  4  5  2  0
  5  6  1  0
  6  7  2  0
  7  8  1  0
  8  9  2  0
  9 10  1  0
 10 11  1  0
 10 12  1  0
 10 13  1  0
  9 14  1  0
 14 15  2  0
 15 16  1  0
 16 17  1  0
 17 18  2  0
 17 19  1  0
 19 20  1  0
 20 21  2  0
 21 22  1  0
 22 23  1  0
 16  4  1  0
 23 19  2  0
 15  6  1  0
  1 24  1  0
  5 25  1  0
  7 26  1  0
  8 27  1  0
 14 28  1  0
 20 29  1  0
 21 30  1  0
M  CHG  3   1  -1  21   1  22  -1
M  END
>  <UniqueID>  (79) 
79

>  <SMILES>  (79) 
[NH-]C(=O)c1cc2ccc(C(F)(F)F)cc2n1C(=O)c1c[nH+][n-]n1

>  <Energy>  (79) 
107.12451054144087

>  <Genealogy>  (79) 
[NH-]C(=O)c1cc2ccc(C(F)(F)F)cc2n1C(=O)c1c[nH+][n-]n1 (protonated)
[NH-]C(=O)c1cc2ccc(C(F)(F)F)cc2n1C(=O)c1c[nH+][n-]n1 (3D coordinates assigned)
[NH-]C(=O)c1cc2ccc(C(F)(F)F)cc2n1C(=O)c1c[nH+][n-]n1 (optimized conformer: 107.12451054144087 kcal/mol)

>  <smiles>  (79) 
NC(=O)c1cc2ccc(C(F)(F)F)cc2n1C(=O)c1cn[nH]n1

>  <score_type>  (79) 
oracle

>  <origin>  (79) 
adg

>  <m_score__min__energy>  (79) 
-6.1699999999999999

>  <m_primary>  (79) 
energy

$$$$
79:0
     RDKit          3D

 57 58  0  0  0  0  0  0  0  0999 V2000
  138.3710  160.3500  129.9930 C   0  0  0  0  0  0  0  0  0  0  0  0
  138.2030  159.3910  131.1610 C   0  0  0  0  0  0  0  0  0  0  0  0
  138.7780  159.9600  132.3330 O   0  0  0  0  0  0  0  0  0  0  0  0
  140.1330  159.8310  132.6480 C   0  0  0  0  0  0  0  0  0  0  0  0
  140.8060  160.8440  132.9900 O   0  0  0  0  0  0  0  0  0  0  0  0
  140.7250  158.5640  132.5680 O   0  0  0  0  0  0  0  0  0  0  0  0
  140.2040  157.3990  133.1450 C   0  0  0  0  0  0  0  0  0  0  0  0
  139.2890  156.7390  132.5830 O   0  0  0  0  0  0  0  0  0  0  0  0
  140.7280  156.9490  134.4720 C   0  0  0  0  0  0  0  0  0  0  0  0
  141.8330  157.7460  134.8530 O   0  0  0  0  0  0  0  0  0  0  0  0
  143.0400  157.0500  134.6290 C   0  0  0  0  0  0  0  0  0  0  0  0
  143.6240  157.5030  133.3270 C   0  0  0  0  0  0  0  0  0  0  0  0
  142.9920  157.2990  132.2570 O   0  0  0  0  0  0  0  0  0  0  0  0
  144.9360  158.0830  133.2800 N   0  0  0  0  0  0  0  0  0  0  0  0
  145.2730  159.3810  133.5220 C   0  0  0  0  0  0  0  0  0  0  0  0
  144.3230  160.4810  133.7910 C   0  0  0  0  0  0  0  0  0  0  0  0
  142.9800  160.1830  134.1660 N   0  0  0  0  0  0  0  0  0  0  0  0
  144.6890  161.6830  133.7110 O   0  0  0  0  0  0  0  0  0  0  0  0
  146.6540  159.5490  133.4390 C   0  0  0  0  0  0  0  0  0  0  0  0
  147.1550  158.3010  133.1390 C   0  0  0  0  0  0  0  0  0  0  0  0
  148.4710  157.8840  132.9630 C   0  0  0  0  0  0  0  0  0  0  0  0
  148.6990  156.5240  132.6960 C   0  0  0  0  0  0  0  0  0  0  0  0
  147.6170  155.6090  132.6110 C   0  0  0  0  0  0  0  0  0  0  0  0
  147.8650  154.2130  132.3340 N   0  0  0  0  0  0  0  0  0  0  0  0
  148.5150  153.5270  133.4660 C   0  0  0  0  0  0  0  0  0  0  0  0
  149.2420  152.2260  133.0650 C   0  0  0  0  0  0  0  0  0  0  0  0
  148.8350  151.7370  131.7290 N   0  0  0  0  0  0  0  0  0  0  0  0
  149.9830  151.1020  131.0630 C   0  0  0  0  0  0  0  0  0  0  0  0
  147.7330  150.7630  131.8290 C   0  0  0  0  0  0  0  0  0  0  0  0
  146.2940  156.0730  132.8030 C   0  0  0  0  0  0  0  0  0  0  0  0
  146.0970  157.4350  133.0500 C   0  0  0  0  0  0  0  0  0  0  0  0
  138.5490  161.3659  130.3754 H   0  0  0  0  0  0  0  0  0  0  0  0
  139.2275  160.0339  129.3793 H   0  0  0  0  0  0  0  0  0  0  0  0
  137.4581  160.3439  129.3793 H   0  0  0  0  0  0  0  0  0  0  0  0
  137.1322  159.2058  131.3315 H   0  0  0  0  0  0  0  0  0  0  0  0
  138.7087  158.4419  130.9299 H   0  0  0  0  0  0  0  0  0  0  0  0
  139.9340  157.0425  135.2276 H   0  0  0  0  0  0  0  0  0  0  0  0
  141.0496  155.8999  134.3956 H   0  0  0  0  0  0  0  0  0  0  0  0
  143.7463  157.2629  135.4449 H   0  0  0  0  0  0  0  0  0  0  0  0
  142.8465  155.9677  134.5953 H   0  0  0  0  0  0  0  0  0  0  0  0
  142.4110  159.4950  133.6230 H   0  0  0  0  0  0  0  0  0  0  0  0
  147.2228  160.4795  133.5824 H   0  0  0  0  0  0  0  0  0  0  0  0
  149.3061  158.5968  133.0308 H   0  0  0  0  0  0  0  0  0  0  0  0
  149.7282  156.1637  132.5511 H   0  0  0  0  0  0  0  0  0  0  0  0
  148.4460  154.1000  131.4710 H   0  0  0  0  0  0  0  0  0  0  0  0
  146.9490  153.7450  132.1460 H   0  0  0  0  0  0  0  0  0  0  0  0
  149.2502  154.2127  133.9125 H   0  0  0  0  0  0  0  0  0  0  0  0
  147.7202  153.2475  134.1732 H   0  0  0  0  0  0  0  0  0  0  0  0
  150.3254  152.4160  133.0559 H   0  0  0  0  0  0  0  0  0  0  0  0
  148.9726  151.4530  133.7997 H   0  0  0  0  0  0  0  0  0  0  0  0
  150.6799  150.7165  131.8218 H   0  0  0  0  0  0  0  0  0  0  0  0
  149.6290  150.2714  130.4346 H   0  0  0  0  0  0  0  0  0  0  0  0
  150.4984  151.8433  130.4346 H   0  0  0  0  0  0  0  0  0  0  0  0
  147.5116  150.5673  132.8886 H   0  0  0  0  0  0  0  0  0  0  0  0
  146.8377  151.1704  131.3365 H   0  0  0  0  0  0  0  0  0  0  0  0
  148.0273  149.8245  131.3365 H   0  0  0  0  0  0  0  0  0  0  0  0
  145.4415  155.3792  132.7590 H   0  0  0  0  0  0  0  0  0  0  0  0
  1  2  1  0
  2  3  1  0
  3  4  1  0
  4  5  2  0
  4  6  1  0
  6  7  1  0
  7  8  2  0
  7  9  1  0
  9 10  1  0
 10 11  1  0
 11 12  1  0
 12 13  2  0
 12 14  1  0
 14 15  1  0
 15 16  1  0
 16 17  1  0
 16 18  2  0
 15 19  2  0
 19 20  1  0
 20 21  2  0
 21 22  1  0
 22 23  2  0
 23 24  1  0
 24 25  1  0
 25 26  1  0
 26 27  1  0
 27 28  1  0
 27 29  1  0
 23 30  1  0
 30 31  2  0
 31 14  1  0
 31 20  1  0
  1 32  1  0
  1 33  1  0
  1 34  1  0
  2 35  1  0
  2 36  1  0
  9 37  1  0
  9 38  1  0
 11 39  1  0
 11 40  1  0
 17 41  1  0
 19 42  1  0
 21 43  1  0
 22 44  1  0
 24 45  1  0
 24 46  1  0
 25 47  1  0
 25 48  1  0
 26 49  1  0
 26 50  1  0
 28 51  1  0
 28 52  1  0
 28 53  1  0
 29 54  1  0
 29 55  1  0
 29 56  1  0
 30 57  1  0
M  CHG  2  17  -1  24   1
M  END
>  <UniqueID>  (80) 
80

>  <SMILES>  (80) 
CCOC(=O)OC(=O)COCC(=O)n1c(C([NH-])=O)cc2ccc([NH2+]CCN(C)C)cc21

>  <Energy>  (80) 
91.52130740422399

>  <Genealogy>  (80) 
CCOC(=O)OC(=O)COCC(=O)n1c(C([NH-])=O)cc2ccc([NH2+]CCN(C)C)cc21 (protonated)
CCOC(=O)OC(=O)COCC(=O)n1c(C([NH-])=O)cc2ccc([NH2+]CCN(C)C)cc21 (3D coordinates assigned)
CCOC(=O)OC(=O)COCC(=O)n1c(C([NH-])=O)cc2ccc([NH2+]CCN(C)C)cc21 (optimized conformer: 91.52130740422399 kcal/mol)

>  <smiles>  (80) 
CCOC(=O)OC(=O)COCC(=O)n1c(C(N)=O)cc2ccc(NCCN(C)C)cc21

>  <score_type>  (80) 
oracle

>  <origin>  (80) 
adg

>  <m_score__min__energy>  (80) 
-6.8200000000000003

>  <m_primary>  (80) 
energy

$$$$
80:0
     RDKit          3D

 34 35  0  0  0  0  0  0  0  0999 V2000
  145.5250  163.1110  135.2010 C   0  0  0  0  0  0  0  0  0  0  0  0
  145.6790  162.0340  134.4320 C   0  0  0  0  0  0  0  0  0  0  0  0
  144.5350  161.3040  133.8510 C   0  0  0  0  0  0  0  0  0  0  0  0
  143.5360  161.9320  133.4080 O   0  0  0  0  0  0  0  0  0  0  0  0
  144.5540  159.8700  133.7940 N   0  0  0  0  0  0  0  0  0  0  0  0
  143.5220  159.0130  134.0320 C   0  0  0  0  0  0  0  0  0  0  0  0
  142.1810  159.3870  134.5310 C   0  0  0  0  0  0  0  0  0  0  0  0
  141.3200  160.2270  133.7670 N   0  0  0  0  0  0  0  0  0  0  0  0
  141.8040  158.9860  135.6650 O   0  0  0  0  0  0  0  0  0  0  0  0
  143.9180  157.6970  133.7980 C   0  0  0  0  0  0  0  0  0  0  0  0
  145.2350  157.7750  133.4060 C   0  0  0  0  0  0  0  0  0  0  0  0
  146.1220  156.7680  133.0390 C   0  0  0  0  0  0  0  0  0  0  0  0
  147.4200  157.1430  132.6520 C   0  0  0  0  0  0  0  0  0  0  0  0
  147.7980  158.5080  132.6190 C   0  0  0  0  0  0  0  0  0  0  0  0
  149.1970  158.8960  132.2250 C   0  0  0  0  0  0  0  0  0  0  0  0
  149.2540  160.3790  131.8380 C   0  0  0  0  0  0  0  0  0  0  0  0
  149.0950  160.5860  130.3310 C   0  0  0  0  0  0  0  0  0  0  0  0
  149.4900  161.8690  130.0010 F   0  0  0  0  0  0  0  0  0  0  0  0
  149.8830  159.6850  129.6360 F   0  0  0  0  0  0  0  0  0  0  0  0
  147.7720  160.4170  129.9600 F   0  0  0  0  0  0  0  0  0  0  0  0
  146.8720  159.5020  133.0060 C   0  0  0  0  0  0  0  0  0  0  0  0
  145.5940  159.0970  133.4080 C   0  0  0  0  0  0  0  0  0  0  0  0
  146.4069  163.6235  135.6127 H   0  0  0  0  0  0  0  0  0  0  0  0
  144.5159  163.4877  135.4242 H   0  0  0  0  0  0  0  0  0  0  0  0
  146.6974  161.6751  134.2220 H   0  0  0  0  0  0  0  0  0  0  0  0
  141.7010  160.8560  133.0260 H   0  0  0  0  0  0  0  0  0  0  0  0
  143.3071  156.7884  133.9042 H   0  0  0  0  0  0  0  0  0  0  0  0
  145.8169  155.7112  133.0513 H   0  0  0  0  0  0  0  0  0  0  0  0
  148.1497  156.3690  132.3719 H   0  0  0  0  0  0  0  0  0  0  0  0
  149.8747  158.7167  133.0727 H   0  0  0  0  0  0  0  0  0  0  0  0
  149.5039  158.2903  131.3596 H   0  0  0  0  0  0  0  0  0  0  0  0
  148.4440  160.9125  132.3569 H   0  0  0  0  0  0  0  0  0  0  0  0
  150.2400  160.7684  132.1316 H   0  0  0  0  0  0  0  0  0  0  0  0
  147.1481  160.5667  132.9918 H   0  0  0  0  0  0  0  0  0  0  0  0
  1  2  2  0
  2  3  1  0
  3  4  2  0
  3  5  1  0
  5  6  1  0
  6  7  1  0
  7  8  1  0
  7  9  2  0
  6 10  2  0
 10 11  1  0
 11 12  2  0
 12 13  1  0
 13 14  2  0
 14 15  1  0
 15 16  1  0
 16 17  1  0
 17 18  1  0
 17 19  1  0
 17 20  1  0
 14 21  1  0
 21 22  2  0
 22  5  1  0
 22 11  1  0
  1 23  1  0
  1 24  1  0
  2 25  1  0
  8 26  1  0
 10 27  1  0
 12 28  1  0
 13 29  1  0
 15 30  1  0
 15 31  1  0
 16 32  1  0
 16 33  1  0
 21 34  1  0
M  CHG  1   8  -1
M  END
>  <UniqueID>  (81) 
81

>  <SMILES>  (81) 
C=CC(=O)n1c(C([NH-])=O)cc2ccc(CCC(F)(F)F)cc21

>  <Energy>  (81) 
67.67927611466864

>  <Genealogy>  (81) 
C=CC(=O)n1c(C([NH-])=O)cc2ccc(CCC(F)(F)F)cc21 (protonated)
C=CC(=O)n1c(C([NH-])=O)cc2ccc(CCC(F)(F)F)cc21 (3D coordinates assigned)
C=CC(=O)n1c(C([NH-])=O)cc2ccc(CCC(F)(F)F)cc21 (optimized conformer: 67.67927611466864 kcal/mol)

>  <smiles>  (81) 
C=CC(=O)n1c(C(N)=O)cc2ccc(CCC(F)(F)F)cc21

>  <score_type>  (81) 
oracle

>  <origin>  (81) 
adg

>  <m_score__min__energy>  (81) 
-6.5300000000000002

>  <m_primary>  (81) 
energy

$$$$
81:0
     RDKit          3D

 56 59  0  0  0  0  0  0  0  0999 V2000
  146.6410  155.4200  132.4210 C   0  0  0  0  0  0  0  0  0  0  0  0
  146.2510  154.3690  133.3750 N   0  0  0  0  0  0  0  0  0  0  0  0
  145.4830  153.2900  132.7080 C   0  0  0  0  0  0  0  0  0  0  0  0
  143.9680  153.4280  132.9300 C   0  0  0  0  0  0  0  0  0  0  0  0
  143.6130  153.3800  134.3720 N   0  0  0  0  0  0  0  0  0  0  0  0
  142.3140  154.0380  134.6340 C   0  0  0  0  0  0  0  0  0  0  0  0
  141.7970  154.7760  133.3900 C   0  0  0  0  0  0  0  0  0  0  0  0
  141.7700  156.2610  133.6300 C   0  0  0  0  0  0  0  0  0  0  0  0
  140.5560  156.9040  133.9820 C   0  0  0  0  0  0  0  0  0  0  0  0
  140.5100  158.2960  134.1650 C   0  0  0  0  0  0  0  0  0  0  0  0
  141.6880  159.0160  133.9900 C   0  0  0  0  0  0  0  0  0  0  0  0
  141.9190  160.3720  134.0710 C   0  0  0  0  0  0  0  0  0  0  0  0
  143.2720  160.5340  133.7750 C   0  0  0  0  0  0  0  0  0  0  0  0
  143.9660  161.8390  133.7940 C   0  0  0  0  0  0  0  0  0  0  0  0
  145.3030  161.9250  134.2820 N   0  0  0  0  0  0  0  0  0  0  0  0
  143.3990  162.8760  133.3610 O   0  0  0  0  0  0  0  0  0  0  0  0
  143.8510  159.3270  133.5230 N   0  0  0  0  0  0  0  0  0  0  0  0
  145.2080  159.0710  133.1350 C   0  0  0  0  0  0  0  0  0  0  0  0
  145.7450  157.9740  133.4470 O   0  0  0  0  0  0  0  0  0  0  0  0
  145.9580  160.0780  132.4350 N   0  0  0  0  0  0  0  0  0  0  0  0
  147.3040  159.9000  131.9660 C   0  0  0  0  0  0  0  0  0  0  0  0
  148.2130  159.1740  132.7510 C   0  0  0  0  0  0  0  0  0  0  0  0
  149.5350  159.0050  132.3270 C   0  0  0  0  0  0  0  0  0  0  0  0
  149.9650  159.5730  131.1240 C   0  0  0  0  0  0  0  0  0  0  0  0
  151.2470  159.4100  130.7190 F   0  0  0  0  0  0  0  0  0  0  0  0
  149.0720  160.3190  130.3480 C   0  0  0  0  0  0  0  0  0  0  0  0
  149.4910  160.8890  129.1910 F   0  0  0  0  0  0  0  0  0  0  0  0
  147.7480  160.4880  130.7680 C   0  0  0  0  0  0  0  0  0  0  0  0
  142.8700  158.4090  133.6550 C   0  0  0  0  0  0  0  0  0  0  0  0
  142.9410  157.0290  133.4450 C   0  0  0  0  0  0  0  0  0  0  0  0
  144.6820  153.9200  135.2540 C   0  0  0  0  0  0  0  0  0  0  0  0
  145.5500  154.9620  134.5370 C   0  0  0  0  0  0  0  0  0  0  0  0
  146.9720  156.3119  132.9732 H   0  0  0  0  0  0  0  0  0  0  0  0
  147.4633  155.0543  131.7885 H   0  0  0  0  0  0  0  0  0  0  0  0
  145.7792  155.6792  131.7885 H   0  0  0  0  0  0  0  0  0  0  0  0
  145.6868  153.3268  131.6277 H   0  0  0  0  0  0  0  0  0  0  0  0
  145.8008  152.3318  133.1448 H   0  0  0  0  0  0  0  0  0  0  0  0
  143.6336  154.3895  132.5132 H   0  0  0  0  0  0  0  0  0  0  0  0
  143.4716  152.5843  132.4283 H   0  0  0  0  0  0  0  0  0  0  0  0
  141.5790  153.2742  134.9279 H   0  0  0  0  0  0  0  0  0  0  0  0
  142.4557  154.7744  135.4387 H   0  0  0  0  0  0  0  0  0  0  0  0
  142.4596  154.5590  132.5392 H   0  0  0  0  0  0  0  0  0  0  0  0
  140.7748  154.4327  133.1725 H   0  0  0  0  0  0  0  0  0  0  0  0
  139.6415  156.3069  134.1130 H   0  0  0  0  0  0  0  0  0  0  0  0
  139.5719  158.8013  134.4382 H   0  0  0  0  0  0  0  0  0  0  0  0
  141.1910  161.1592  134.3168 H   0  0  0  0  0  0  0  0  0  0  0  0
  146.1090  162.0160  133.6240 H   0  0  0  0  0  0  0  0  0  0  0  0
  145.5240  161.0230  132.3270 H   0  0  0  0  0  0  0  0  0  0  0  0
  147.8840  158.7356  133.7047 H   0  0  0  0  0  0  0  0  0  0  0  0
  150.2382  158.4238  132.9415 H   0  0  0  0  0  0  0  0  0  0  0  0
  147.0517  161.0831  130.1588 H   0  0  0  0  0  0  0  0  0  0  0  0
  143.8855  156.5527  133.1431 H   0  0  0  0  0  0  0  0  0  0  0  0
  144.2140  154.3911  136.1310 H   0  0  0  0  0  0  0  0  0  0  0  0
  145.3320  153.0833  135.5497 H   0  0  0  0  0  0  0  0  0  0  0  0
  144.9080  155.7839  134.1872 H   0  0  0  0  0  0  0  0  0  0  0  0
  146.3047  155.3331  135.2460 H   0  0  0  0  0  0  0  0  0  0  0  0
  1  2  1  0
  2  3  1  0
  3  4  1  0
  4  5  1  0
  5  6  1  0
  6  7  1  0
  7  8  1  0
  8  9  2  0
  9 10  1  0
 10 11  2  0
 11 12  1  0
 12 13  2  0
 13 14  1  0
 14 15  1  0
 14 16  2  0
 13 17  1  0
 17 18  1  0
 18 19  2  0
 18 20  1  0
 20 21  1  0
 21 22  2  0
 22 23  1  0
 23 24  2  0
 24 25  1  0
 24 26  1  0
 26 27  1  0
 26 28  2  0
 17 29  1  0
 29 30  2  0
  5 31  1  0
 31 32  1  0
 32  2  1  0
 30  8  1  0
 29 11  1  0
 28 21  1  0
  1 33  1  0
  1 34  1  0
  1 35  1  0
  3 36  1  0
  3 37  1  0
  4 38  1  0
  4 39  1  0
  6 40  1  0
  6 41  1  0
  7 42  1  0
  7 43  1  0
  9 44  1  0
 10 45  1  0
 12 46  1  0
 15 47  1  0
 20 48  1  0
 22 49  1  0
 23 50  1  0
 28 51  1  0
 30 52  1  0
 31 53  1  0
 31 54  1  0
 32 55  1  0
 32 56  1  0
M  CHG  1  15  -1
M  END
>  <UniqueID>  (82) 
82

>  <SMILES>  (82) 
CN1CCN(CCc2ccc3cc(C([NH-])=O)n(C(=O)Nc4ccc(F)c(F)c4)c3c2)CC1

>  <Energy>  (82) 
112.58053917110803

>  <Genealogy>  (82) 
CN1CCN(CCc2ccc3cc(C([NH-])=O)n(C(=O)Nc4ccc(F)c(F)c4)c3c2)CC1 (protonated)
CN1CCN(CCc2ccc3cc(C([NH-])=O)n(C(=O)Nc4ccc(F)c(F)c4)c3c2)CC1 (3D coordinates assigned)
CN1CCN(CCc2ccc3cc(C([NH-])=O)n(C(=O)Nc4ccc(F)c(F)c4)c3c2)CC1 (nonaromatic ring conformer: 112.58053917110803 kcal/mol)

>  <smiles>  (82) 
CN1CCN(CCc2ccc3cc(C(N)=O)n(C(=O)Nc4ccc(F)c(F)c4)c3c2)CC1

>  <score_type>  (82) 
oracle

>  <origin>  (82) 
adg

>  <m_score__min__energy>  (82) 
-9.6500000000000004

>  <m_primary>  (82) 
energy

$$$$
82:0
     RDKit          3D

 36 38  0  0  0  0  0  0  0  0999 V2000
  146.5490  161.7060  134.0870 N   0  0  0  0  0  0  0  0  0  0  0  0
  145.4650  160.8200  133.8170 C   0  0  0  0  0  0  0  0  0  0  0  0
  144.2920  161.2740  133.7790 O   0  0  0  0  0  0  0  0  0  0  0  0
  145.7270  159.3800  133.6110 C   0  0  0  0  0  0  0  0  0  0  0  0
  144.7340  158.4010  133.6260 C   0  0  0  0  0  0  0  0  0  0  0  0
  145.3830  157.2190  133.3420 C   0  0  0  0  0  0  0  0  0  0  0  0
  144.8850  155.9240  133.2390 C   0  0  0  0  0  0  0  0  0  0  0  0
  145.7930  154.8920  132.9490 C   0  0  0  0  0  0  0  0  0  0  0  0
  147.1750  155.1610  132.7780 C   0  0  0  0  0  0  0  0  0  0  0  0
  148.0690  154.0710  132.4780 N   0  0  0  0  0  0  0  0  0  0  0  0
  148.4400  153.0160  133.4230 C   0  0  0  0  0  0  0  0  0  0  0  0
  149.4430  152.0510  132.7920 C   0  0  0  0  0  0  0  0  0  0  0  0
  149.7240  152.4600  131.4830 O   0  0  0  0  0  0  0  0  0  0  0  0
  147.6430  156.4910  132.9130 C   0  0  0  0  0  0  0  0  0  0  0  0
  146.7120  157.5020  133.1730 C   0  0  0  0  0  0  0  0  0  0  0  0
  146.9380  158.8250  133.3280 N   0  0  0  0  0  0  0  0  0  0  0  0
  148.2120  159.4840  133.2580 C   0  0  0  0  0  0  0  0  0  0  0  0
  148.8460  159.7240  134.3210 O   0  0  0  0  0  0  0  0  0  0  0  0
  148.7850  159.8760  131.9570 C   0  0  0  0  0  0  0  0  0  0  0  0
  148.6660  161.1850  131.4290 C   0  0  0  0  0  0  0  0  0  0  0  0
  149.2830  161.3470  130.1960 C   0  0  0  0  0  0  0  0  0  0  0  0
  149.9290  159.8520  129.8490 S   0  0  0  0  0  0  0  0  0  0  0  0
  149.4680  158.9870  131.1890 N   0  0  0  0  0  0  0  0  0  0  0  0
  147.4470  161.3510  134.4820 H   0  0  0  0  0  0  0  0  0  0  0  0
  143.6610  158.5422  133.8227 H   0  0  0  0  0  0  0  0  0  0  0  0
  143.8143  155.7148  133.3801 H   0  0  0  0  0  0  0  0  0  0  0  0
  145.4264  153.8593  132.8531 H   0  0  0  0  0  0  0  0  0  0  0  0
  148.4860  154.0210  131.5210 H   0  0  0  0  0  0  0  0  0  0  0  0
  148.8921  153.4737  134.3153 H   0  0  0  0  0  0  0  0  0  0  0  0
  147.5350  152.4543  133.6978 H   0  0  0  0  0  0  0  0  0  0  0  0
  150.3710  152.0487  133.3826 H   0  0  0  0  0  0  0  0  0  0  0  0
  149.0161  151.0373  132.7758 H   0  0  0  0  0  0  0  0  0  0  0  0
  150.5760  152.9670  131.5310 H   0  0  0  0  0  0  0  0  0  0  0  0
  148.7137  156.7234  132.8156 H   0  0  0  0  0  0  0  0  0  0  0  0
  148.1346  161.9968  131.9472 H   0  0  0  0  0  0  0  0  0  0  0  0
  149.3338  162.2598  129.5843 H   0  0  0  0  0  0  0  0  0  0  0  0
  1  2  1  0
  2  3  2  0
  2  4  1  0
  4  5  2  0
  5  6  1  0
  6  7  2  0
  7  8  1  0
  8  9  2  0
  9 10  1  0
 10 11  1  0
 11 12  1  0
 12 13  1  0
  9 14  1  0
 14 15  2  0
 15 16  1  0
 16 17  1  0
 17 18  2  0
 17 19  1  0
 19 20  1  0
 20 21  2  0
 21 22  1  0
 22 23  1  0
 16  4  1  0
 23 19  2  0
 15  6  1  0
  1 24  1  0
  5 25  1  0
  7 26  1  0
  8 27  1  0
 10 28  1  0
 11 29  1  0
 11 30  1  0
 12 31  1  0
 12 32  1  0
 13 33  1  0
 14 34  1  0
 20 35  1  0
 21 36  1  0
M  CHG  1   1  -1
M  END
>  <UniqueID>  (83) 
83

>  <SMILES>  (83) 
[NH-]C(=O)c1cc2ccc(NCCO)cc2n1C(=O)c1ccsn1

>  <Energy>  (83) 
104.54399052049482

>  <Genealogy>  (83) 
[NH-]C(=O)c1cc2ccc(NCCO)cc2n1C(=O)c1ccsn1 (protonated)
[NH-]C(=O)c1cc2ccc(NCCO)cc2n1C(=O)c1ccsn1 (3D coordinates assigned)
[NH-]C(=O)c1cc2ccc(NCCO)cc2n1C(=O)c1ccsn1 (optimized conformer: 104.54399052049482 kcal/mol)

>  <smiles>  (83) 
NC(=O)c1cc2ccc(NCCO)cc2n1C(=O)c1ccsn1

>  <score_type>  (83) 
oracle

>  <origin>  (83) 
adg

>  <m_score__min__energy>  (83) 
-7.4800000000000004

>  <m_primary>  (83) 
energy

$$$$
83:0
     RDKit          3D

 59 62  0  0  0  0  0  0  0  0999 V2000
  148.2920  156.8450  133.6480 N   0  0  0  0  0  0  0  0  0  0  0  0
  147.9780  158.2310  133.7490 C   0  0  0  0  0  0  0  0  0  0  0  0
  148.9030  159.0770  133.8650 O   0  0  0  0  0  0  0  0  0  0  0  0
  146.5700  158.6600  133.7250 C   0  0  0  0  0  0  0  0  0  0  0  0
  146.1990  159.9940  133.7330 C   0  0  0  0  0  0  0  0  0  0  0  0
  144.8280  159.9870  133.7270 C   0  0  0  0  0  0  0  0  0  0  0  0
  143.9420  161.0550  133.7280 C   0  0  0  0  0  0  0  0  0  0  0  0
  142.5680  160.7730  133.7430 C   0  0  0  0  0  0  0  0  0  0  0  0
  142.1030  159.4340  133.7760 C   0  0  0  0  0  0  0  0  0  0  0  0
  140.6880  159.1540  133.7990 N   0  0  0  0  0  0  0  0  0  0  0  0
  140.0870  158.4880  134.9620 C   0  0  0  0  0  0  0  0  0  0  0  0
  138.7410  157.8550  134.5810 C   0  0  0  0  0  0  0  0  0  0  0  0
  138.8290  157.2520  133.2400 N   0  0  0  0  0  0  0  0  0  0  0  0
  139.0430  158.2620  132.1790 C   0  0  0  0  0  0  0  0  0  0  0  0
  139.8210  159.5050  132.6660 C   0  0  0  0  0  0  0  0  0  0  0  0
  143.0370  158.3710  133.7510 C   0  0  0  0  0  0  0  0  0  0  0  0
  144.4090  158.6790  133.7310 C   0  0  0  0  0  0  0  0  0  0  0  0
  145.4770  157.8360  133.7290 N   0  0  0  0  0  0  0  0  0  0  0  0
  145.4770  156.3910  133.7830 C   0  0  0  0  0  0  0  0  0  0  0  0
  145.3610  155.8000  134.8850 O   0  0  0  0  0  0  0  0  0  0  0  0
  145.6020  155.6350  132.6170 O   0  0  0  0  0  0  0  0  0  0  0  0
  145.9930  154.2610  132.6100 C   0  0  0  0  0  0  0  0  0  0  0  0
  144.8200  153.3490  133.0100 C   0  0  0  0  0  0  0  0  0  0  0  0
  143.4560  154.0300  132.8370 C   0  0  0  0  0  0  0  0  0  0  0  0
  142.4430  153.3710  133.6950 N   0  0  0  0  0  0  0  0  0  0  0  0
  142.1730  154.1270  134.9340 C   0  0  0  0  0  0  0  0  0  0  0  0
  141.3560  155.4120  134.6600 C   0  0  0  0  0  0  0  0  0  0  0  0
  140.8960  155.4980  133.3250 O   0  0  0  0  0  0  0  0  0  0  0  0
  140.2250  154.3060  132.9710 C   0  0  0  0  0  0  0  0  0  0  0  0
  141.1850  153.0970  132.9670 C   0  0  0  0  0  0  0  0  0  0  0  0
  147.5410  156.1240  133.5690 H   0  0  0  0  0  0  0  0  0  0  0  0
  146.8622  160.8715  133.7422 H   0  0  0  0  0  0  0  0  0  0  0  0
  144.3066  162.0928  133.7173 H   0  0  0  0  0  0  0  0  0  0  0  0
  141.8430  161.6001  133.7290 H   0  0  0  0  0  0  0  0  0  0  0  0
  140.7679  157.7025  135.3216 H   0  0  0  0  0  0  0  0  0  0  0  0
  139.9189  159.2341  135.7526 H   0  0  0  0  0  0  0  0  0  0  0  0
  138.4842  157.0763  135.3143 H   0  0  0  0  0  0  0  0  0  0  0  0
  137.9643  158.6340  134.5762 H   0  0  0  0  0  0  0  0  0  0  0  0
  137.9440  156.7290  133.0450 H   0  0  0  0  0  0  0  0  0  0  0  0
  139.6180  156.5610  133.2300 H   0  0  0  0  0  0  0  0  0  0  0  0
  139.6098  157.7939  131.3607 H   0  0  0  0  0  0  0  0  0  0  0  0
  138.0507  158.6063  131.8522 H   0  0  0  0  0  0  0  0  0  0  0  0
  140.4393  159.8915  131.8424 H   0  0  0  0  0  0  0  0  0  0  0  0
  139.1022  160.2718  132.9904 H   0  0  0  0  0  0  0  0  0  0  0  0
  142.6966  157.3250  133.7473 H   0  0  0  0  0  0  0  0  0  0  0  0
  146.3311  153.9889  131.5992 H   0  0  0  0  0  0  0  0  0  0  0  0
  146.8053  154.1253  133.3392 H   0  0  0  0  0  0  0  0  0  0  0  0
  144.8453  152.4467  132.3813 H   0  0  0  0  0  0  0  0  0  0  0  0
  144.9371  153.1048  134.0761 H   0  0  0  0  0  0  0  0  0  0  0  0
  143.5399  155.0892  133.1217 H   0  0  0  0  0  0  0  0  0  0  0  0
  143.1443  153.9476  131.7853 H   0  0  0  0  0  0  0  0  0  0  0  0
  141.6062  153.4860  135.6253 H   0  0  0  0  0  0  0  0  0  0  0  0
  143.1387  154.4236  135.3694 H   0  0  0  0  0  0  0  0  0  0  0  0
  140.4857  155.4246  135.3326 H   0  0  0  0  0  0  0  0  0  0  0  0
  142.0217  156.2700  134.8356 H   0  0  0  0  0  0  0  0  0  0  0  0
  139.4192  154.1203  133.6964 H   0  0  0  0  0  0  0  0  0  0  0  0
  139.8178  154.4271  131.9563 H   0  0  0  0  0  0  0  0  0  0  0  0
  140.6801  152.2439  133.4437 H   0  0  0  0  0  0  0  0  0  0  0  0
  141.4447  152.8796  131.9204 H   0  0  0  0  0  0  0  0  0  0  0  0
  1  2  1  0
  2  3  2  0
  2  4  1  0
  4  5  2  0
  5  6  1  0
  6  7  2  0
  7  8  1  0
  8  9  2  0
  9 10  1  0
 10 11  1  0
 11 12  1  0
 12 13  1  0
 13 14  1  0
 14 15  1  0
  9 16  1  0
 16 17  2  0
 17 18  1  0
 18 19  1  0
 19 20  2  0
 19 21  1  0
 21 22  1  0
 22 23  1  0
 23 24  1  0
 24 25  1  0
 25 26  1  0
 26 27  1  0
 27 28  1  0
 28 29  1  0
 29 30  1  0
 18  4  1  0
 30 25  1  0
 17  6  1  0
 15 10  1  0
  1 31  1  0
  5 32  1  0
  7 33  1  0
  8 34  1  0
 11 35  1  0
 11 36  1  0
 12 37  1  0
 12 38  1  0
 13 39  1  0
 13 40  1  0
 14 41  1  0
 14 42  1  0
 15 43  1  0
 15 44  1  0
 16 45  1  0
 22 46  1  0
 22 47  1  0
 23 48  1  0
 23 49  1  0
 24 50  1  0
 24 51  1  0
 26 52  1  0
 26 53  1  0
 27 54  1  0
 27 55  1  0
 29 56  1  0
 29 57  1  0
 30 58  1  0
 30 59  1  0
M  CHG  2   1  -1  13   1
M  END
>  <UniqueID>  (84) 
84

>  <SMILES>  (84) 
[NH-]C(=O)c1cc2ccc(N3CC[NH2+]CC3)cc2n1C(=O)OCCCN1CCOCC1

>  <Energy>  (84) 
117.95344699550152

>  <Genealogy>  (84) 
[NH-]C(=O)c1cc2ccc(N3CC[NH2+]CC3)cc2n1C(=O)OCCCN1CCOCC1 (protonated)
[NH-]C(=O)c1cc2ccc(N3CC[NH2+]CC3)cc2n1C(=O)OCCCN1CCOCC1 (3D coordinates assigned)
[NH-]C(=O)c1cc2ccc(N3CC[NH2+]CC3)cc2n1C(=O)OCCCN1CCOCC1 (nonaromatic ring conformer: 117.95344699550152 kcal/mol)

>  <smiles>  (84) 
NC(=O)c1cc2ccc(N3CCNCC3)cc2n1C(=O)OCCCN1CCOCC1

>  <score_type>  (84) 
oracle

>  <origin>  (84) 
adg

>  <m_score__min__energy>  (84) 
-8.4900000000000002

>  <m_primary>  (84) 
energy

$$$$
84:0
     RDKit          3D

 40 41  0  0  0  0  0  0  0  0999 V2000
  141.3910  159.0070  136.7150 C   0  0  0  0  0  0  0  0  0  0  0  0
  141.0920  159.1750  135.3350 O   0  0  0  0  0  0  0  0  0  0  0  0
  140.0210  158.5250  134.7130 C   0  0  0  0  0  0  0  0  0  0  0  0
  139.4550  157.5420  135.2660 O   0  0  0  0  0  0  0  0  0  0  0  0
  139.5620  158.9870  133.3640 C   0  0  0  0  0  0  0  0  0  0  0  0
  140.5650  158.6090  132.2660 C   0  0  0  0  0  0  0  0  0  0  0  0
  141.5050  157.4780  132.7030 C   0  0  0  0  0  0  0  0  0  0  0  0
  142.8650  157.8960  132.6060 O   0  0  0  0  0  0  0  0  0  0  0  0
  143.7340  157.9540  133.7010 C   0  0  0  0  0  0  0  0  0  0  0  0
  143.4020  157.4450  134.8070 O   0  0  0  0  0  0  0  0  0  0  0  0
  144.9980  158.6220  133.5720 N   0  0  0  0  0  0  0  0  0  0  0  0
  145.2360  159.9630  133.5310 C   0  0  0  0  0  0  0  0  0  0  0  0
  144.2410  161.0300  133.7750 C   0  0  0  0  0  0  0  0  0  0  0  0
  142.8440  160.7500  133.7490 N   0  0  0  0  0  0  0  0  0  0  0  0
  144.6320  162.1940  134.0570 O   0  0  0  0  0  0  0  0  0  0  0  0
  146.5880  160.2140  133.3100 C   0  0  0  0  0  0  0  0  0  0  0  0
  147.1790  158.9740  133.2250 C   0  0  0  0  0  0  0  0  0  0  0  0
  148.5110  158.6300  133.0160 C   0  0  0  0  0  0  0  0  0  0  0  0
  148.8360  157.2650  132.9540 C   0  0  0  0  0  0  0  0  0  0  0  0
  147.8290  156.2710  133.0750 C   0  0  0  0  0  0  0  0  0  0  0  0
  148.1970  154.8100  133.0450 C   0  0  0  0  0  0  0  0  0  0  0  0
  147.1680  154.0580  132.5060 F   0  0  0  0  0  0  0  0  0  0  0  0
  149.3300  154.6060  132.2770 F   0  0  0  0  0  0  0  0  0  0  0  0
  148.4440  154.3760  134.3350 F   0  0  0  0  0  0  0  0  0  0  0  0
  146.4910  156.6620  133.3110 C   0  0  0  0  0  0  0  0  0  0  0  0
  146.1990  158.0300  133.3860 C   0  0  0  0  0  0  0  0  0  0  0  0
  140.5906  159.4567  137.3210 H   0  0  0  0  0  0  0  0  0  0  0  0
  141.4669  157.9342  136.9458 H   0  0  0  0  0  0  0  0  0  0  0  0
  142.3468  159.5002  136.9458 H   0  0  0  0  0  0  0  0  0  0  0  0
  138.5921  158.5200  133.1377 H   0  0  0  0  0  0  0  0  0  0  0  0
  139.4743  160.0832  133.3873 H   0  0  0  0  0  0  0  0  0  0  0  0
  140.0084  158.2825  131.3751 H   0  0  0  0  0  0  0  0  0  0  0  0
  141.1804  159.4952  132.0516 H   0  0  0  0  0  0  0  0  0  0  0  0
  141.2833  157.2049  133.7452 H   0  0  0  0  0  0  0  0  0  0  0  0
  141.3505  156.6111  132.0438 H   0  0  0  0  0  0  0  0  0  0  0  0
  142.4920  159.7680  133.7690 H   0  0  0  0  0  0  0  0  0  0  0  0
  147.0789  161.1945  133.2221 H   0  0  0  0  0  0  0  0  0  0  0  0
  149.2853  159.4031  132.9029 H   0  0  0  0  0  0  0  0  0  0  0  0
  149.8836  156.9621  132.8099 H   0  0  0  0  0  0  0  0  0  0  0  0
  145.6978  155.9096  133.4329 H   0  0  0  0  0  0  0  0  0  0  0  0
  1  2  1  0
  2  3  1  0
  3  4  2  0
  3  5  1  0
  5  6  1  0
  6  7  1  0
  7  8  1  0
  8  9  1  0
  9 10  2  0
  9 11  1  0
 11 12  1  0
 12 13  1  0
 13 14  1  0
 13 15  2  0
 12 16  2  0
 16 17  1  0
 17 18  2  0
 18 19  1  0
 19 20  2  0
 20 21  1  0
 21 22  1  0
 21 23  1  0
 21 24  1  0
 20 25  1  0
 25 26  2  0
 26 11  1  0
 26 17  1  0
  1 27  1  0
  1 28  1  0
  1 29  1  0
  5 30  1  0
  5 31  1  0
  6 32  1  0
  6 33  1  0
  7 34  1  0
  7 35  1  0
 14 36  1  0
 16 37  1  0
 18 38  1  0
 19 39  1  0
 25 40  1  0
M  CHG  1  14  -1
M  END
>  <UniqueID>  (85) 
85

>  <SMILES>  (85) 
COC(=O)CCCOC(=O)n1c(C([NH-])=O)cc2ccc(C(F)(F)F)cc21

>  <Energy>  (85) 
71.57414433927066

>  <Genealogy>  (85) 
COC(=O)CCCOC(=O)n1c(C([NH-])=O)cc2ccc(C(F)(F)F)cc21 (protonated)
COC(=O)CCCOC(=O)n1c(C([NH-])=O)cc2ccc(C(F)(F)F)cc21 (3D coordinates assigned)
COC(=O)CCCOC(=O)n1c(C([NH-])=O)cc2ccc(C(F)(F)F)cc21 (optimized conformer: 71.57414433927066 kcal/mol)

>  <smiles>  (85) 
COC(=O)CCCOC(=O)n1c(C(N)=O)cc2ccc(C(F)(F)F)cc21

>  <score_type>  (85) 
oracle

>  <origin>  (85) 
adg

>  <m_score__min__energy>  (85) 
-5.6299999999999999

>  <m_primary>  (85) 
energy

$$$$
85:0
     RDKit          3D

 31 33  0  0  0  0  0  0  0  0999 V2000
  140.2380  158.9710  136.7120 N   0  0  0  0  0  0  0  0  0  0  0  0
  140.4540  158.6020  135.3520 C   0  0  0  0  0  0  0  0  0  0  0  0
  139.4610  158.4350  134.5940 O   0  0  0  0  0  0  0  0  0  0  0  0
  141.8160  158.3550  134.8380 C   0  0  0  0  0  0  0  0  0  0  0  0
  142.4950  157.1510  135.0140 C   0  0  0  0  0  0  0  0  0  0  0  0
  143.7450  157.3560  134.4800 C   0  0  0  0  0  0  0  0  0  0  0  0
  144.8270  156.4870  134.3790 C   0  0  0  0  0  0  0  0  0  0  0  0
  145.9940  156.9560  133.7520 C   0  0  0  0  0  0  0  0  0  0  0  0
  146.0590  158.2760  133.2320 C   0  0  0  0  0  0  0  0  0  0  0  0
  147.2930  158.7560  132.5610 C   0  0  0  0  0  0  0  0  0  0  0  0
  148.4350  157.9350  132.4890 C   0  0  0  0  0  0  0  0  0  0  0  0
  149.5960  158.3910  131.8570 C   0  0  0  0  0  0  0  0  0  0  0  0
  149.6320  159.6680  131.2910 C   0  0  0  0  0  0  0  0  0  0  0  0
  150.7610  160.1040  130.6800 F   0  0  0  0  0  0  0  0  0  0  0  0
  148.5050  160.4920  131.3560 C   0  0  0  0  0  0  0  0  0  0  0  0
  148.5370  161.7300  130.8040 F   0  0  0  0  0  0  0  0  0  0  0  0
  147.3420  160.0420  131.9880 C   0  0  0  0  0  0  0  0  0  0  0  0
  144.9350  159.1280  133.3560 C   0  0  0  0  0  0  0  0  0  0  0  0
  143.7940  158.6380  134.0010 C   0  0  0  0  0  0  0  0  0  0  0  0
  142.6140  159.2660  134.2120 N   0  0  0  0  0  0  0  0  0  0  0  0
  142.2570  160.5850  133.7650 C   0  0  0  0  0  0  0  0  0  0  0  0
  141.0730  160.8420  133.4240 O   0  0  0  0  0  0  0  0  0  0  0  0
  143.2100  161.5960  133.7310 O   0  0  0  0  0  0  0  0  0  0  0  0
  139.2780  158.9810  137.1200 H   0  0  0  0  0  0  0  0  0  0  0  0
  142.1121  156.2317  135.4811 H   0  0  0  0  0  0  0  0  0  0  0  0
  144.7706  155.4635  134.7780 H   0  0  0  0  0  0  0  0  0  0  0  0
  146.8672  156.2930  133.6630 H   0  0  0  0  0  0  0  0  0  0  0  0
  148.4135  156.9287  132.9327 H   0  0  0  0  0  0  0  0  0  0  0  0
  150.4832  157.7428  131.8053 H   0  0  0  0  0  0  0  0  0  0  0  0
  146.4593  160.6965  132.0382 H   0  0  0  0  0  0  0  0  0  0  0  0
  144.9582  160.1518  132.9544 H   0  0  0  0  0  0  0  0  0  0  0  0
  1  2  1  0
  2  3  2  0
  2  4  1  0
  4  5  2  0
  5  6  1  0
  6  7  2  0
  7  8  1  0
  8  9  2  0
  9 10  1  0
 10 11  2  0
 11 12  1  0
 12 13  2  0
 13 14  1  0
 13 15  1  0
 15 16  1  0
 15 17  2  0
  9 18  1  0
 18 19  2  0
 19 20  1  0
 20 21  1  0
 21 22  2  0
 21 23  1  0
 20  4  1  0
 19  6  1  0
 17 10  1  0
  1 24  1  0
  5 25  1  0
  7 26  1  0
  8 27  1  0
 11 28  1  0
 12 29  1  0
 17 30  1  0
 18 31  1  0
M  CHG  2   1  -1  23  -1
M  END
>  <UniqueID>  (86) 
86

>  <SMILES>  (86) 
[NH-]C(=O)c1cc2ccc(-c3ccc(F)c(F)c3)cc2n1C(=O)[O-]

>  <Energy>  (86) 
79.38637237806957

>  <Genealogy>  (86) 
[NH-]C(=O)c1cc2ccc(-c3ccc(F)c(F)c3)cc2n1C(=O)[O-] (protonated)
[NH-]C(=O)c1cc2ccc(-c3ccc(F)c(F)c3)cc2n1C(=O)[O-] (3D coordinates assigned)
[NH-]C(=O)c1cc2ccc(-c3ccc(F)c(F)c3)cc2n1C(=O)[O-] (optimized conformer: 79.38637237806957 kcal/mol)

>  <smiles>  (86) 
NC(=O)c1cc2ccc(-c3ccc(F)c(F)c3)cc2n1C(=O)O

>  <score_type>  (86) 
oracle

>  <origin>  (86) 
adg

>  <m_score__min__energy>  (86) 
-7.3300000000000001

>  <m_primary>  (86) 
energy

$$$$
86:0
     RDKit          3D

 41 43  0  0  0  0  0  0  0  0999 V2000
  144.9260  161.1990  134.0840 N   0  0  0  0  0  0  0  0  0  0  0  0
  143.6350  160.6340  133.8600 C   0  0  0  0  0  0  0  0  0  0  0  0
  142.6590  161.3960  133.6330 O   0  0  0  0  0  0  0  0  0  0  0  0
  143.4670  159.1660  133.8500 C   0  0  0  0  0  0  0  0  0  0  0  0
  144.4130  158.2870  133.3270 C   0  0  0  0  0  0  0  0  0  0  0  0
  143.8460  157.0370  133.4250 C   0  0  0  0  0  0  0  0  0  0  0  0
  144.3550  155.7920  133.0690 C   0  0  0  0  0  0  0  0  0  0  0  0
  143.5580  154.6610  133.3160 C   0  0  0  0  0  0  0  0  0  0  0  0
  142.2760  154.7950  133.9050 C   0  0  0  0  0  0  0  0  0  0  0  0
  141.4530  153.5720  134.2090 C   0  0  0  0  0  0  0  0  0  0  0  0
  141.2860  152.7130  132.9560 C   0  0  0  0  0  0  0  0  0  0  0  0
  141.2830  150.9780  133.3740 S   0  0  0  0  0  0  0  0  0  0  0  0
  142.6150  150.3700  133.0370 O   0  0  0  0  0  0  0  0  0  0  0  0
  140.2070  150.2810  132.5910 O   0  0  0  0  0  0  0  0  0  0  0  0
  140.9830  150.7910  135.0170 O   0  0  0  0  0  0  0  0  0  0  0  0
  141.7980  156.0740  134.2640 C   0  0  0  0  0  0  0  0  0  0  0  0
  142.6060  157.1850  133.9920 C   0  0  0  0  0  0  0  0  0  0  0  0
  142.3610  158.4850  134.2640 N   0  0  0  0  0  0  0  0  0  0  0  0
  141.2000  159.0070  134.9300 C   0  0  0  0  0  0  0  0  0  0  0  0
  141.3390  159.6960  135.9760 O   0  0  0  0  0  0  0  0  0  0  0  0
  139.8940  158.7250  134.4110 N   0  0  0  0  0  0  0  0  0  0  0  0
  139.4360  158.9680  133.0730 C   0  0  0  0  0  0  0  0  0  0  0  0
  139.5660  160.2570  132.5410 C   0  0  0  0  0  0  0  0  0  0  0  0
  139.1120  160.5390  131.2480 C   0  0  0  0  0  0  0  0  0  0  0  0
  138.5110  159.5360  130.4840 C   0  0  0  0  0  0  0  0  0  0  0  0
  138.3540  158.2530  131.0150 C   0  0  0  0  0  0  0  0  0  0  0  0
  138.8070  157.9670  132.3070 C   0  0  0  0  0  0  0  0  0  0  0  0
  145.4720  161.6150  133.2980 H   0  0  0  0  0  0  0  0  0  0  0  0
  145.4039  158.5390  132.9214 H   0  0  0  0  0  0  0  0  0  0  0  0
  145.3495  155.6960  132.6089 H   0  0  0  0  0  0  0  0  0  0  0  0
  143.9330  153.6618  133.0495 H   0  0  0  0  0  0  0  0  0  0  0  0
  141.9569  152.9813  134.9881 H   0  0  0  0  0  0  0  0  0  0  0  0
  140.4591  153.8900  134.5569 H   0  0  0  0  0  0  0  0  0  0  0  0
  140.3338  152.9682  132.4679 H   0  0  0  0  0  0  0  0  0  0  0  0
  142.1288  152.9111  132.2774 H   0  0  0  0  0  0  0  0  0  0  0  0
  140.8161  156.1948  134.7450 H   0  0  0  0  0  0  0  0  0  0  0  0
  140.0280  161.0528  133.1436 H   0  0  0  0  0  0  0  0  0  0  0  0
  139.2284  161.5510  130.8329 H   0  0  0  0  0  0  0  0  0  0  0  0
  138.1613  159.7560  129.4645 H   0  0  0  0  0  0  0  0  0  0  0  0
  137.8730  157.4661  130.4155 H   0  0  0  0  0  0  0  0  0  0  0  0
  138.6719  156.9588  132.7256 H   0  0  0  0  0  0  0  0  0  0  0  0
  1  2  1  0
  2  3  2  0
  2  4  1  0
  4  5  2  0
  5  6  1  0
  6  7  2  0
  7  8  1  0
  8  9  2  0
  9 10  1  0
 10 11  1  0
 11 12  1  0
 12 13  2  0
 12 14  2  0
 12 15  1  0
  9 16  1  0
 16 17  2  0
 17 18  1  0
 18 19  1  0
 19 20  2  0
 19 21  1  0
 21 22  1  0
 22 23  2  0
 23 24  1  0
 24 25  2  0
 25 26  1  0
 26 27  2  0
 18  4  1  0
 27 22  1  0
 17  6  1  0
  1 28  1  0
  5 29  1  0
  7 30  1  0
  8 31  1  0
 10 32  1  0
 10 33  1  0
 11 34  1  0
 11 35  1  0
 16 36  1  0
 23 37  1  0
 24 38  1  0
 25 39  1  0
 26 40  1  0
 27 41  1  0
M  CHG  3   1  -1  15  -1  21  -1
M  END
>  <UniqueID>  (87) 
87

>  <SMILES>  (87) 
[NH-]C(=O)c1cc2ccc(CCS(=O)(=O)[O-])cc2n1C(=O)[N-]c1ccccc1

>  <Energy>  (87) 
79.36727663873555

>  <Genealogy>  (87) 
[NH-]C(=O)c1cc2ccc(CCS(=O)(=O)[O-])cc2n1C(=O)[N-]c1ccccc1 (protonated)
[NH-]C(=O)c1cc2ccc(CCS(=O)(=O)[O-])cc2n1C(=O)[N-]c1ccccc1 (3D coordinates assigned)
[NH-]C(=O)c1cc2ccc(CCS(=O)(=O)[O-])cc2n1C(=O)[N-]c1ccccc1 (optimized conformer: 79.36727663873555 kcal/mol)

>  <smiles>  (87) 
NC(=O)c1cc2ccc(CCS(=O)(=O)O)cc2n1C(=O)Nc1ccccc1

>  <score_type>  (87) 
oracle

>  <origin>  (87) 
adg

>  <m_score__min__energy>  (87) 
-9.1199999999999992

>  <m_primary>  (87) 
energy

$$$$
87:0
     RDKit          3D

 35 37  0  0  0  0  0  0  0  0999 V2000
  149.0020  157.3430  131.8670 N   0  0  0  0  0  0  0  0  0  0  0  0
  148.7140  158.6180  132.4430 C   0  0  0  0  0  0  0  0  0  0  0  0
  149.6200  159.4930  132.4920 O   0  0  0  0  0  0  0  0  0  0  0  0
  147.3590  158.9510  132.9220 C   0  0  0  0  0  0  0  0  0  0  0  0
  146.8460  160.2450  132.9230 C   0  0  0  0  0  0  0  0  0  0  0  0
  145.5520  160.1220  133.3750 C   0  0  0  0  0  0  0  0  0  0  0  0
  144.5840  161.0980  133.5900 C   0  0  0  0  0  0  0  0  0  0  0  0
  143.3420  160.6930  134.1030 C   0  0  0  0  0  0  0  0  0  0  0  0
  143.0900  159.3290  134.3910 C   0  0  0  0  0  0  0  0  0  0  0  0
  141.7740  158.9100  134.9900 C   0  0  0  0  0  0  0  0  0  0  0  0
  140.8690  158.4150  133.9400 N   0  0  0  0  0  0  0  0  0  0  0  0
  140.5630  157.0810  133.9040 C   0  0  0  0  0  0  0  0  0  0  0  0
  139.6840  156.5760  132.9460 C   0  0  0  0  0  0  0  0  0  0  0  0
  139.1090  157.4420  132.0200 C   0  0  0  0  0  0  0  0  0  0  0  0
  139.4140  158.8010  132.0600 C   0  0  0  0  0  0  0  0  0  0  0  0
  138.5200  160.1020  130.6500 I   0  0  0  0  0  0  0  0  0  0  0  0
  140.3000  159.2800  133.0360 C   0  0  0  0  0  0  0  0  0  0  0  0
  140.5690  160.5130  133.0720 O   0  0  0  0  0  0  0  0  0  0  0  0
  144.0980  158.3660  134.1660 C   0  0  0  0  0  0  0  0  0  0  0  0
  145.3230  158.7940  133.6360 C   0  0  0  0  0  0  0  0  0  0  0  0
  146.4270  158.0610  133.3660 N   0  0  0  0  0  0  0  0  0  0  0  0
  146.6160  156.6590  133.6240 C   0  0  0  0  0  0  0  0  0  0  0  0
  146.7370  155.8450  132.6730 O   0  0  0  0  0  0  0  0  0  0  0  0
  146.6610  156.1860  134.9300 O   0  0  0  0  0  0  0  0  0  0  0  0
  149.9750  157.1120  131.5660 H   0  0  0  0  0  0  0  0  0  0  0  0
  148.2400  156.6600  131.6610 H   0  0  0  0  0  0  0  0  0  0  0  0
  147.3643  161.1687  132.6259 H   0  0  0  0  0  0  0  0  0  0  0  0
  144.7861  162.1555  133.3646 H   0  0  0  0  0  0  0  0  0  0  0  0
  142.5567  161.4419  134.2832 H   0  0  0  0  0  0  0  0  0  0  0  0
  141.9482  158.1107  135.7253 H   0  0  0  0  0  0  0  0  0  0  0  0
  141.3113  159.7791  135.4805 H   0  0  0  0  0  0  0  0  0  0  0  0
  141.0157  156.3995  134.6393 H   0  0  0  0  0  0  0  0  0  0  0  0
  139.4470  155.5021  132.9223 H   0  0  0  0  0  0  0  0  0  0  0  0
  138.4158  157.0545  131.2589 H   0  0  0  0  0  0  0  0  0  0  0  0
  143.9260  157.3053  134.4010 H   0  0  0  0  0  0  0  0  0  0  0  0
  1  2  1  0
  2  3  2  0
  2  4  1  0
  4  5  2  0
  5  6  1  0
  6  7  2  0
  7  8  1  0
  8  9  2  0
  9 10  1  0
 10 11  1  0
 11 12  1  0
 12 13  2  0
 13 14  1  0
 14 15  2  0
 15 16  1  0
 15 17  1  0
 17 18  2  0
  9 19  1  0
 19 20  2  0
 20 21  1  0
 21 22  1  0
 22 23  2  0
 22 24  1  0
 21  4  1  0
 20  6  1  0
 17 11  1  0
  1 25  1  0
  1 26  1  0
  5 27  1  0
  7 28  1  0
  8 29  1  0
 10 30  1  0
 10 31  1  0
 12 32  1  0
 13 33  1  0
 14 34  1  0
 19 35  1  0
M  CHG  1  24  -1
M  END
>  <UniqueID>  (88) 
88

>  <SMILES>  (88) 
NC(=O)c1cc2ccc(Cn3cccc(I)c3=O)cc2n1C(=O)[O-]

>  <Energy>  (88) 
79.50389696923689

>  <Genealogy>  (88) 
NC(=O)c1cc2ccc(Cn3cccc(I)c3=O)cc2n1C(=O)[O-] (protonated)
NC(=O)c1cc2ccc(Cn3cccc(I)c3=O)cc2n1C(=O)[O-] (3D coordinates assigned)
NC(=O)c1cc2ccc(Cn3cccc(I)c3=O)cc2n1C(=O)[O-] (optimized conformer: 79.50389696923689 kcal/mol)

>  <smiles>  (88) 
NC(=O)c1cc2ccc(Cn3cccc(I)c3=O)cc2n1C(=O)O

>  <score_type>  (88) 
oracle

>  <origin>  (88) 
adg

>  <m_score__min__energy>  (88) 
-8.6300000000000008

>  <m_primary>  (88) 
energy

$$$$
88:0
     RDKit          3D

 37 38  0  0  0  0  0  0  0  0999 V2000
  141.2620  157.3070  137.3450 C   0  0  0  0  0  0  0  0  0  0  0  0
  141.2660  158.8310  137.3390 C   0  0  0  0  0  0  0  0  0  0  0  0
  140.5740  159.3300  136.1970 O   0  0  0  0  0  0  0  0  0  0  0  0
  139.6060  158.5940  135.5020 C   0  0  0  0  0  0  0  0  0  0  0  0
  138.5490  158.2200  136.0820 O   0  0  0  0  0  0  0  0  0  0  0  0
  139.8780  158.2030  134.0740 C   0  0  2  0  0  0  0  0  0  0  0  0
  139.0800  156.9630  133.6480 C   0  0  0  0  0  0  0  0  0  0  0  0
  141.3610  157.9920  133.8580 C   0  0  0  0  0  0  0  0  0  0  0  0
  141.8660  156.6810  133.6570 C   0  0  0  0  0  0  0  0  0  0  0  0
  143.2410  156.4620  133.4730 C   0  0  0  0  0  0  0  0  0  0  0  0
  144.0870  157.5660  133.4880 C   0  0  0  0  0  0  0  0  0  0  0  0
  145.4560  157.6310  133.3670 C   0  0  0  0  0  0  0  0  0  0  0  0
  145.7700  158.9820  133.4700 C   0  0  0  0  0  0  0  0  0  0  0  0
  147.1420  159.5090  133.3300 C   0  0  0  0  0  0  0  0  0  0  0  0
  147.3820  160.9050  133.1420 N   0  0  0  0  0  0  0  0  0  0  0  0
  148.1140  158.7080  133.3170 O   0  0  0  0  0  0  0  0  0  0  0  0
  144.6440  159.7260  133.6610 N   0  0  0  0  0  0  0  0  0  0  0  0
  144.5680  161.1360  133.9320 C   0  0  0  0  0  0  0  0  0  0  0  0
  143.6830  161.8450  133.3870 O   0  0  0  0  0  0  0  0  0  0  0  0
  145.4710  161.7320  134.8060 O   0  0  0  0  0  0  0  0  0  0  0  0
  143.6190  158.8420  133.6670 C   0  0  0  0  0  0  0  0  0  0  0  0
  142.2570  159.0870  133.8760 C   0  0  0  0  0  0  0  0  0  0  0  0
  141.2610  156.9444  138.3835 H   0  0  0  0  0  0  0  0  0  0  0  0
  140.3629  156.9407  136.8279 H   0  0  0  0  0  0  0  0  0  0  0  0
  142.1592  156.9359  136.8279 H   0  0  0  0  0  0  0  0  0  0  0  0
  140.7709  159.1974  138.2504 H   0  0  0  0  0  0  0  0  0  0  0  0
  142.3077  159.1828  137.3042 H   0  0  0  0  0  0  0  0  0  0  0  0
  139.5408  159.0332  133.4360 H   0  0  0  0  0  0  0  0  0  0  0  0
  138.7336  156.4247  134.5426 H   0  0  0  0  0  0  0  0  0  0  0  0
  138.2120  157.2738  133.0481 H   0  0  0  0  0  0  0  0  0  0  0  0
  139.7225  156.3018  133.0481 H   0  0  0  0  0  0  0  0  0  0  0  0
  141.1728  155.8270  133.6452 H   0  0  0  0  0  0  0  0  0  0  0  0
  143.6373  155.4471  133.3215 H   0  0  0  0  0  0  0  0  0  0  0  0
  146.1534  156.7931  133.2201 H   0  0  0  0  0  0  0  0  0  0  0  0
  146.5950  161.5700  132.9810 H   0  0  0  0  0  0  0  0  0  0  0  0
  148.3610  161.2640  133.0810 H   0  0  0  0  0  0  0  0  0  0  0  0
  141.8907  160.1094  134.0506 H   0  0  0  0  0  0  0  0  0  0  0  0
  1  2  1  0
  2  3  1  0
  3  4  1  0
  4  5  2  0
  4  6  1  0
  6  7  1  0
  6  8  1  0
  8  9  2  0
  9 10  1  0
 10 11  2  0
 11 12  1  0
 12 13  2  0
 13 14  1  0
 14 15  1  0
 14 16  2  0
 13 17  1  0
 17 18  1  0
 18 19  2  0
 18 20  1  0
 17 21  1  0
 21 22  2  0
 22  8  1  0
 21 11  1  0
  1 23  1  0
  1 24  1  0
  1 25  1  0
  2 26  1  0
  2 27  1  0
  6 28  1  6
  7 29  1  0
  7 30  1  0
  7 31  1  0
  9 32  1  0
 10 33  1  0
 12 34  1  0
 15 35  1  0
 15 36  1  0
 22 37  1  0
M  CHG  1  20  -1
M  END
>  <UniqueID>  (89) 
89

>  <SMILES>  (89) 
CCOC(=O)[C@H](C)c1ccc2cc(C(N)=O)n(C(=O)[O-])c2c1

>  <Energy>  (89) 
71.05386096551304

>  <Genealogy>  (89) 
CCOC(=O)C(C)c1ccc2cc(C(N)=O)n(C(=O)[O-])c2c1 (protonated)
CCOC(=O)[C@H](C)c1ccc2cc(C(N)=O)n(C(=O)[O-])c2c1 (chirality)
CCOC(=O)[C@H](C)c1ccc2cc(C(N)=O)n(C(=O)[O-])c2c1 (3D coordinates assigned)
CCOC(=O)[C@H](C)c1ccc2cc(C(N)=O)n(C(=O)[O-])c2c1 (optimized conformer: 71.05386096551304 kcal/mol)

>  <smiles>  (89) 
CCOC(=O)C(C)c1ccc2cc(C(N)=O)n(C(=O)O)c2c1

>  <score_type>  (89) 
oracle

>  <origin>  (89) 
adg

>  <m_score__min__energy>  (89) 
-6.54

>  <m_primary>  (89) 
energy

$$$$
89:0
     RDKit          3D

 42 44  0  0  0  0  0  0  0  0999 V2000
  141.0120  158.8890  136.9710 C   0  0  0  0  0  0  0  0  0  0  0  0
  140.8530  159.7110  135.8210 O   0  0  0  0  0  0  0  0  0  0  0  0
  141.0370  159.2300  134.5210 C   0  0  0  0  0  0  0  0  0  0  0  0
  140.3810  159.7100  133.5570 O   0  0  0  0  0  0  0  0  0  0  0  0
  142.0280  158.1400  134.2710 C   0  0  0  0  0  0  0  0  0  0  0  0
  143.3860  158.7190  133.9880 C   0  0  0  0  0  0  0  0  0  0  0  0
  143.5850  160.1200  134.0450 C   0  0  0  0  0  0  0  0  0  0  0  0
  144.8390  160.6770  133.7480 C   0  0  0  0  0  0  0  0  0  0  0  0
  145.8720  159.8120  133.4050 C   0  0  0  0  0  0  0  0  0  0  0  0
  147.1660  160.0910  133.0230 C   0  0  0  0  0  0  0  0  0  0  0  0
  147.7450  158.8520  132.7610 C   0  0  0  0  0  0  0  0  0  0  0  0
  149.1440  158.6840  132.3200 C   0  0  0  0  0  0  0  0  0  0  0  0
  149.6290  157.4270  131.8420 N   0  0  0  0  0  0  0  0  0  0  0  0
  149.9380  159.6590  132.4040 O   0  0  0  0  0  0  0  0  0  0  0  0
  146.8460  157.8460  132.9680 N   0  0  0  0  0  0  0  0  0  0  0  0
  147.0400  156.4500  132.6840 C   0  0  0  0  0  0  0  0  0  0  0  0
  146.9840  156.0550  131.4870 O   0  0  0  0  0  0  0  0  0  0  0  0
  147.3730  155.4740  133.7930 C   0  0  0  0  0  0  0  0  0  0  0  0
  148.2550  154.2570  133.4360 C   0  0  0  0  0  0  0  0  0  0  0  0
  148.9200  154.3980  132.2080 O   0  0  0  0  0  0  0  0  0  0  0  0
  146.3420  155.3180  134.9170 C   0  0  0  0  0  0  0  0  0  0  0  0
  147.6140  156.1220  135.1540 C   0  0  0  0  0  0  0  0  0  0  0  0
  145.7010  158.4510  133.3540 C   0  0  0  0  0  0  0  0  0  0  0  0
  144.4550  157.8720  133.6170 C   0  0  0  0  0  0  0  0  0  0  0  0
  140.8938  159.5003  137.8778 H   0  0  0  0  0  0  0  0  0  0  0  0
  140.2508  158.0950  136.9622 H   0  0  0  0  0  0  0  0  0  0  0  0
  142.0144  158.4361  136.9622 H   0  0  0  0  0  0  0  0  0  0  0  0
  142.0877  157.4941  135.1594 H   0  0  0  0  0  0  0  0  0  0  0  0
  141.7014  157.5550  133.3985 H   0  0  0  0  0  0  0  0  0  0  0  0
  142.7491  160.7780  134.3246 H   0  0  0  0  0  0  0  0  0  0  0  0
  144.9994  161.7646  133.7855 H   0  0  0  0  0  0  0  0  0  0  0  0
  147.6401  161.0803  132.9423 H   0  0  0  0  0  0  0  0  0  0  0  0
  149.0540  156.5570  131.9130 H   0  0  0  0  0  0  0  0  0  0  0  0
  150.6120  157.3460  131.4960 H   0  0  0  0  0  0  0  0  0  0  0  0
  149.0071  154.1258  134.2279 H   0  0  0  0  0  0  0  0  0  0  0  0
  147.5900  153.3851  133.3497 H   0  0  0  0  0  0  0  0  0  0  0  0
  148.2280  154.3780  131.4970 H   0  0  0  0  0  0  0  0  0  0  0  0
  145.3715  155.8312  134.8485 H   0  0  0  0  0  0  0  0  0  0  0  0
  145.8559  154.4658  135.4145 H   0  0  0  0  0  0  0  0  0  0  0  0
  147.5607  157.2157  135.2585 H   0  0  0  0  0  0  0  0  0  0  0  0
  148.4254  156.0892  135.8960 H   0  0  0  0  0  0  0  0  0  0  0  0
  144.3107  156.7844  133.5371 H   0  0  0  0  0  0  0  0  0  0  0  0
  1  2  1  0
  2  3  1  0
  3  4  2  0
  3  5  1  0
  5  6  1  0
  6  7  2  0
  7  8  1  0
  8  9  2  0
  9 10  1  0
 10 11  2  0
 11 12  1  0
 12 13  1  0
 12 14  2  0
 11 15  1  0
 15 16  1  0
 16 17  2  0
 16 18  1  0
 18 19  1  0
 19 20  1  0
 18 21  1  0
 21 22  1  0
 15 23  1  0
 23 24  2  0
 24  6  1  0
 23  9  1  0
 22 18  1  0
  1 25  1  0
  1 26  1  0
  1 27  1  0
  5 28  1  0
  5 29  1  0
  7 30  1  0
  8 31  1  0
 10 32  1  0
 13 33  1  0
 13 34  1  0
 19 35  1  0
 19 36  1  0
 20 37  1  0
 21 38  1  0
 21 39  1  0
 22 40  1  0
 22 41  1  0
 24 42  1  0
M  END
>  <UniqueID>  (90) 
90

>  <SMILES>  (90) 
COC(=O)Cc1ccc2cc(C(N)=O)n(C(=O)C3(CO)CC3)c2c1

>  <Energy>  (90) 
347.9220202644617

>  <Genealogy>  (90) 
COC(=O)Cc1ccc2cc(C(N)=O)n(C(=O)C3(CO)CC3)c2c1 (3D coordinates assigned)
COC(=O)Cc1ccc2cc(C(N)=O)n(C(=O)C3(CO)CC3)c2c1 (nonaromatic ring conformer: 347.9220202644617 kcal/mol)

>  <smiles>  (90) 
COC(=O)Cc1ccc2cc(C(N)=O)n(C(=O)C3(CO)CC3)c2c1

>  <score_type>  (90) 
oracle

>  <origin>  (90) 
adg

>  <m_score__min__energy>  (90) 
-6.4800000000000004

>  <m_primary>  (90) 
energy

$$$$
90:0
     RDKit          3D

 55 57  0  0  0  0  0  0  0  0999 V2000
  138.6760  148.8790  130.4580 C   0  0  0  0  0  0  0  0  0  0  0  0
  139.1150  149.2330  131.7660 O   0  0  0  0  0  0  0  0  0  0  0  0
  140.3260  149.8820  132.0460 C   0  0  0  0  0  0  0  0  0  0  0  0
  141.5750  149.2460  131.9070 C   0  0  0  0  0  0  0  0  0  0  0  0
  142.7530  149.9260  132.2300 C   0  0  0  0  0  0  0  0  0  0  0  0
  142.7060  151.2550  132.6810 C   0  0  0  0  0  0  0  0  0  0  0  0
  143.9590  151.9570  133.1290 C   0  0  0  0  0  0  0  0  0  0  0  0
  143.6300  153.2240  133.6970 O   0  0  0  0  0  0  0  0  0  0  0  0
  143.9500  153.5810  135.0140 C   0  0  0  0  0  0  0  0  0  0  0  0
  145.1340  153.4480  135.4300 O   0  0  0  0  0  0  0  0  0  0  0  0
  142.9320  154.0950  135.8960 N   0  0  0  0  0  0  0  0  0  0  0  0
  142.4860  153.2740  137.0260 C   0  0  0  0  0  0  0  0  0  0  0  0
  142.2520  155.3690  135.6160 C   0  0  0  0  0  0  0  0  0  0  0  0
  141.4400  155.2830  134.3090 C   0  0  0  0  0  0  0  0  0  0  0  0
  142.3060  155.3810  133.1140 N   0  0  0  0  0  0  0  0  0  0  0  0
  143.1810  156.5250  133.1780 C   0  0  0  0  0  0  0  0  0  0  0  0
  144.5830  156.3510  133.0360 C   0  0  0  0  0  0  0  0  0  0  0  0
  145.4580  157.4410  133.1600 C   0  0  0  0  0  0  0  0  0  0  0  0
  144.9080  158.6910  133.4250 C   0  0  0  0  0  0  0  0  0  0  0  0
  145.5280  159.8990  133.6420 C   0  0  0  0  0  0  0  0  0  0  0  0
  144.4980  160.8030  133.8930 C   0  0  0  0  0  0  0  0  0  0  0  0
  144.7190  162.2480  134.1050 C   0  0  0  0  0  0  0  0  0  0  0  0
  143.9570  163.1990  133.3630 N   0  0  0  0  0  0  0  0  0  0  0  0
  145.5470  162.6560  134.9610 O   0  0  0  0  0  0  0  0  0  0  0  0
  143.2880  160.1770  133.8370 N   0  0  0  0  0  0  0  0  0  0  0  0
  141.9950  160.7380  134.1160 C   0  0  0  0  0  0  0  0  0  0  0  0
  141.5140  161.6300  133.3690 O   0  0  0  0  0  0  0  0  0  0  0  0
  141.2500  160.2820  135.1970 O   0  0  0  0  0  0  0  0  0  0  0  0
  143.5570  158.8840  133.5470 C   0  0  0  0  0  0  0  0  0  0  0  0
  142.6600  157.8150  133.4350 C   0  0  0  0  0  0  0  0  0  0  0  0
  141.4610  151.8920  132.8040 C   0  0  0  0  0  0  0  0  0  0  0  0
  140.2830  151.2090  132.4900 C   0  0  0  0  0  0  0  0  0  0  0  0
  137.8216  148.1901  130.5319 H   0  0  0  0  0  0  0  0  0  0  0  0
  138.3699  149.7859  129.9160 H   0  0  0  0  0  0  0  0  0  0  0  0
  139.4974  148.3876  129.9160 H   0  0  0  0  0  0  0  0  0  0  0  0
  141.6238  148.2093  131.5425 H   0  0  0  0  0  0  0  0  0  0  0  0
  143.7229  149.4167  132.1302 H   0  0  0  0  0  0  0  0  0  0  0  0
  144.4720  151.3417  133.8828 H   0  0  0  0  0  0  0  0  0  0  0  0
  144.6182  152.1095  132.2617 H   0  0  0  0  0  0  0  0  0  0  0  0
  142.7560  153.7710  137.9694 H   0  0  0  0  0  0  0  0  0  0  0  0
  141.3945  153.1463  136.9782 H   0  0  0  0  0  0  0  0  0  0  0  0
  142.9729  152.2888  136.9782 H   0  0  0  0  0  0  0  0  0  0  0  0
  141.5718  155.6047  136.4478 H   0  0  0  0  0  0  0  0  0  0  0  0
  143.0121  156.1566  135.5065 H   0  0  0  0  0  0  0  0  0  0  0  0
  140.9071  154.3210  134.2841 H   0  0  0  0  0  0  0  0  0  0  0  0
  140.7353  156.1274  134.2894 H   0  0  0  0  0  0  0  0  0  0  0  0
  142.8630  154.4990  133.0190 H   0  0  0  0  0  0  0  0  0  0  0  0
  141.7430  155.4660  132.2420 H   0  0  0  0  0  0  0  0  0  0  0  0
  144.9880  155.3500  132.8263 H   0  0  0  0  0  0  0  0  0  0  0  0
  146.5448  157.3111  133.0511 H   0  0  0  0  0  0  0  0  0  0  0  0
  146.6079  160.1074  133.6217 H   0  0  0  0  0  0  0  0  0  0  0  0
  142.9210  163.2600  133.4740 H   0  0  0  0  0  0  0  0  0  0  0  0
  141.5771  157.9741  133.5441 H   0  0  0  0  0  0  0  0  0  0  0  0
  141.4125  152.9351  133.1497 H   0  0  0  0  0  0  0  0  0  0  0  0
  139.3135  151.7185  132.5926 H   0  0  0  0  0  0  0  0  0  0  0  0
  1  2  1  0
  2  3  1  0
  3  4  2  0
  4  5  1  0
  5  6  2  0
  6  7  1  0
  7  8  1  0
  8  9  1  0
  9 10  2  0
  9 11  1  0
 11 12  1  0
 11 13  1  0
 13 14  1  0
 14 15  1  0
 15 16  1  0
 16 17  2  0
 17 18  1  0
 18 19  2  0
 19 20  1  0
 20 21  2  0
 21 22  1  0
 22 23  1  0
 22 24  2  0
 21 25  1  0
 25 26  1  0
 26 27  2  0
 26 28  1  0
 25 29  1  0
 29 30  2  0
  6 31  1  0
 31 32  2  0
 32  3  1  0
 30 16  1  0
 29 19  1  0
  1 33  1  0
  1 34  1  0
  1 35  1  0
  4 36  1  0
  5 37  1  0
  7 38  1  0
  7 39  1  0
 12 40  1  0
 12 41  1  0
 12 42  1  0
 13 43  1  0
 13 44  1  0
 14 45  1  0
 14 46  1  0
 15 47  1  0
 15 48  1  0
 17 49  1  0
 18 50  1  0
 20 51  1  0
 23 52  1  0
 30 53  1  0
 31 54  1  0
 32 55  1  0
M  CHG  3  15   1  23  -1  28  -1
M  END
>  <UniqueID>  (91) 
91

>  <SMILES>  (91) 
COc1ccc(COC(=O)N(C)CC[NH2+]c2ccc3cc(C([NH-])=O)n(C(=O)[O-])c3c2)cc1

>  <Energy>  (91) 
87.67780836093993

>  <Genealogy>  (91) 
COc1ccc(COC(=O)N(C)CC[NH2+]c2ccc3cc(C([NH-])=O)n(C(=O)[O-])c3c2)cc1 (protonated)
COc1ccc(COC(=O)N(C)CC[NH2+]c2ccc3cc(C([NH-])=O)n(C(=O)[O-])c3c2)cc1 (3D coordinates assigned)
COc1ccc(COC(=O)N(C)CC[NH2+]c2ccc3cc(C([NH-])=O)n(C(=O)[O-])c3c2)cc1 (optimized conformer: 87.67780836093993 kcal/mol)

>  <smiles>  (91) 
COc1ccc(COC(=O)N(C)CCNc2ccc3cc(C(N)=O)n(C(=O)O)c3c2)cc1

>  <score_type>  (91) 
oracle

>  <origin>  (91) 
adg

>  <m_score__min__energy>  (91) 
-7.96

>  <m_primary>  (91) 
energy

$$$$
91:0
     RDKit          3D

 34 36  0  0  0  0  0  0  0  0999 V2000
  138.7480  156.8150  133.2240 N   0  0  0  0  0  0  0  0  0  0  0  0
  139.2850  157.7740  134.1370 C   0  0  0  0  0  0  0  0  0  0  0  0
  138.5520  158.2330  135.0520 O   0  0  0  0  0  0  0  0  0  0  0  0
  140.6630  158.2840  133.9860 C   0  0  0  0  0  0  0  0  0  0  0  0
  140.9880  159.6360  134.0440 C   0  0  0  0  0  0  0  0  0  0  0  0
  142.3400  159.6940  133.7980 C   0  0  0  0  0  0  0  0  0  0  0  0
  143.1900  160.7920  133.7510 C   0  0  0  0  0  0  0  0  0  0  0  0
  144.5540  160.5610  133.5160 C   0  0  0  0  0  0  0  0  0  0  0  0
  145.0550  159.2400  133.3420 C   0  0  0  0  0  0  0  0  0  0  0  0
  146.4650  159.0130  133.1160 N   0  0  0  0  0  0  0  0  0  0  0  0
  147.4490  160.0770  132.9810 C   0  0  0  0  0  0  0  0  0  0  0  0
  148.7490  159.3950  132.5790 C   0  0  0  0  0  0  0  0  0  0  0  0
  148.5700  157.9230  132.9300 C   0  0  0  0  0  0  0  0  0  0  0  0
  147.0670  157.6930  132.9900 C   0  0  0  0  0  0  0  0  0  0  0  0
  144.1500  158.1500  133.4020 C   0  0  0  0  0  0  0  0  0  0  0  0
  142.7910  158.4130  133.6140 C   0  0  0  0  0  0  0  0  0  0  0  0
  141.7700  157.5320  133.7290 N   0  0  0  0  0  0  0  0  0  0  0  0
  141.8660  156.0980  133.7070 C   0  0  0  0  0  0  0  0  0  0  0  0
  142.7810  155.5120  134.3450 O   0  0  0  0  0  0  0  0  0  0  0  0
  140.9550  155.3410  132.9820 O   0  0  0  0  0  0  0  0  0  0  0  0
  137.7850  156.4360  133.3700 H   0  0  0  0  0  0  0  0  0  0  0  0
  139.2660  156.5440  132.3600 H   0  0  0  0  0  0  0  0  0  0  0  0
  140.3090  160.4780  134.2438 H   0  0  0  0  0  0  0  0  0  0  0  0
  142.8050  161.8125  133.8938 H   0  0  0  0  0  0  0  0  0  0  0  0
  145.2468  161.4139  133.4655 H   0  0  0  0  0  0  0  0  0  0  0  0
  147.1360  160.7914  132.2053 H   0  0  0  0  0  0  0  0  0  0  0  0
  147.5628  160.6428  133.9174 H   0  0  0  0  0  0  0  0  0  0  0  0
  148.9258  159.5129  131.4997 H   0  0  0  0  0  0  0  0  0  0  0  0
  149.6140  159.8332  133.0983 H   0  0  0  0  0  0  0  0  0  0  0  0
  149.0247  157.2864  132.1567 H   0  0  0  0  0  0  0  0  0  0  0  0
  149.0573  157.6711  133.8834 H   0  0  0  0  0  0  0  0  0  0  0  0
  146.7185  157.1999  132.0705 H   0  0  0  0  0  0  0  0  0  0  0  0
  146.7918  157.0419  133.8328 H   0  0  0  0  0  0  0  0  0  0  0  0
  144.5089  157.1169  133.2842 H   0  0  0  0  0  0  0  0  0  0  0  0
  1  2  1  0
  2  3  2  0
  2  4  1  0
  4  5  2  0
  5  6  1  0
  6  7  2  0
  7  8  1  0
  8  9  2  0
  9 10  1  0
 10 11  1  0
 11 12  1  0
 12 13  1  0
 13 14  1  0
  9 15  1  0
 15 16  2  0
 16 17  1  0
 17 18  1  0
 18 19  2  0
 18 20  1  0
 17  4  1  0
 16  6  1  0
 14 10  1  0
  1 21  1  0
  1 22  1  0
  5 23  1  0
  7 24  1  0
  8 25  1  0
 11 26  1  0
 11 27  1  0
 12 28  1  0
 12 29  1  0
 13 30  1  0
 13 31  1  0
 14 32  1  0
 14 33  1  0
 15 34  1  0
M  CHG  1  20  -1
M  END
>  <UniqueID>  (92) 
92

>  <SMILES>  (92) 
NC(=O)c1cc2ccc(N3CCCC3)cc2n1C(=O)[O-]

>  <Energy>  (92) 
76.74108767749804

>  <Genealogy>  (92) 
NC(=O)c1cc2ccc(N3CCCC3)cc2n1C(=O)[O-] (protonated)
NC(=O)c1cc2ccc(N3CCCC3)cc2n1C(=O)[O-] (3D coordinates assigned)
NC(=O)c1cc2ccc(N3CCCC3)cc2n1C(=O)[O-] (nonaromatic ring conformer: 76.74108767749804 kcal/mol)

>  <smiles>  (92) 
NC(=O)c1cc2ccc(N3CCCC3)cc2n1C(=O)O

>  <score_type>  (92) 
oracle

>  <origin>  (92) 
adg

>  <m_score__min__energy>  (92) 
-6.5999999999999996

>  <m_primary>  (92) 
energy

$$$$
92:0
     RDKit          3D

 50 52  0  0  0  0  0  0  0  0999 V2000
  140.5520  150.9980  138.2670 C   0  0  0  0  0  0  0  0  0  0  0  0
  141.1840  152.3220  138.3740 N   0  0  0  0  0  0  0  0  0  0  0  0
  141.9170  152.6720  137.1480 C   0  0  0  0  0  0  0  0  0  0  0  0
  140.2650  153.3890  138.8290 C   0  0  0  0  0  0  0  0  0  0  0  0
  140.9520  154.5920  139.5280 C   0  0  0  0  0  0  0  0  0  0  0  0
  141.1840  155.8700  138.7590 C   0  0  0  0  0  0  0  0  0  0  0  0
  141.5380  157.0520  139.4550 C   0  0  0  0  0  0  0  0  0  0  0  0
  141.7370  158.2600  138.7640 C   0  0  0  0  0  0  0  0  0  0  0  0
  141.5660  158.2550  137.3820 C   0  0  0  0  0  0  0  0  0  0  0  0
  141.6990  159.2740  136.4660 C   0  0  0  0  0  0  0  0  0  0  0  0
  141.4040  158.7010  135.2300 C   0  0  0  0  0  0  0  0  0  0  0  0
  141.3490  159.4660  133.9660 C   0  0  0  0  0  0  0  0  0  0  0  0
  142.4400  159.4470  133.0490 N   0  0  0  0  0  0  0  0  0  0  0  0
  140.3110  160.1190  133.6760 O   0  0  0  0  0  0  0  0  0  0  0  0
  141.1100  157.3790  135.3770 N   0  0  0  0  0  0  0  0  0  0  0  0
  140.8060  156.4170  134.3560 C   0  0  0  0  0  0  0  0  0  0  0  0
  141.4950  155.3650  134.2720 O   0  0  0  0  0  0  0  0  0  0  0  0
  139.7370  156.6770  133.3740 C   0  0  0  0  0  0  0  0  0  0  0  0
  138.7240  155.9270  133.3490 O   0  0  0  0  0  0  0  0  0  0  0  0
  139.8430  157.7730  132.4530 N   0  0  0  0  0  0  0  0  0  0  0  0
  138.7880  158.0980  131.4940 C   0  0  0  0  0  0  0  0  0  0  0  0
  139.1650  159.3250  130.6610 C   0  0  0  0  0  0  0  0  0  0  0  0
  140.5550  159.5140  130.6610 O   0  0  0  0  0  0  0  0  0  0  0  0
  141.2090  157.1230  136.6980 C   0  0  0  0  0  0  0  0  0  0  0  0
  141.0170  155.9050  137.3560 C   0  0  0  0  0  0  0  0  0  0  0  0
  141.8280  154.3100  140.7490 C   0  0  0  0  0  0  0  0  0  0  0  0
  140.4230  154.8540  140.9400 C   0  0  0  0  0  0  0  0  0  0  0  0
  140.3620  150.5999  139.2747 H   0  0  0  0  0  0  0  0  0  0  0  0
  139.6002  151.0889  137.7232 H   0  0  0  0  0  0  0  0  0  0  0  0
  141.2213  150.3151  137.7232 H   0  0  0  0  0  0  0  0  0  0  0  0
  142.8799  153.1318  137.4151 H   0  0  0  0  0  0  0  0  0  0  0  0
  142.0967  151.7625  136.5559 H   0  0  0  0  0  0  0  0  0  0  0  0
  141.3227  153.3835  136.5559 H   0  0  0  0  0  0  0  0  0  0  0  0
  139.7220  153.7690  137.9511 H   0  0  0  0  0  0  0  0  0  0  0  0
  139.6090  152.9291  139.5827 H   0  0  0  0  0  0  0  0  0  0  0  0
  141.6585  157.0243  140.5480 H   0  0  0  0  0  0  0  0  0  0  0  0
  142.0187  159.1796  139.2978 H   0  0  0  0  0  0  0  0  0  0  0  0
  141.9787  160.3187  136.6668 H   0  0  0  0  0  0  0  0  0  0  0  0
  142.2820  159.5720  132.0240 H   0  0  0  0  0  0  0  0  0  0  0  0
  140.7250  158.3330  132.4200 H   0  0  0  0  0  0  0  0  0  0  0  0
  138.6351  157.2402  130.8226 H   0  0  0  0  0  0  0  0  0  0  0  0
  137.8651  158.3209  132.0495 H   0  0  0  0  0  0  0  0  0  0  0  0
  138.8200  159.1796  129.6267 H   0  0  0  0  0  0  0  0  0  0  0  0
  138.6865  160.2126  131.1006 H   0  0  0  0  0  0  0  0  0  0  0  0
  140.8270  159.6190  131.6100 H   0  0  0  0  0  0  0  0  0  0  0  0
  140.7433  154.9980  136.7970 H   0  0  0  0  0  0  0  0  0  0  0  0
  142.0583  153.2722  141.0318 H   0  0  0  0  0  0  0  0  0  0  0  0
  142.8318  154.6222  141.0728 H   0  0  0  0  0  0  0  0  0  0  0  0
  139.6368  154.2098  141.3606 H   0  0  0  0  0  0  0  0  0  0  0  0
  139.9901  155.7221  141.4586 H   0  0  0  0  0  0  0  0  0  0  0  0
  1  2  1  0
  2  3  1  0
  2  4  1  0
  4  5  1  0
  5  6  1  0
  6  7  2  0
  7  8  1  0
  8  9  2  0
  9 10  1  0
 10 11  2  0
 11 12  1  0
 12 13  1  0
 12 14  2  0
 11 15  1  0
 15 16  1  0
 16 17  2  0
 16 18  1  0
 18 19  2  0
 18 20  1  0
 20 21  1  0
 21 22  1  0
 22 23  1  0
 15 24  1  0
 24 25  2  0
  5 26  1  0
 26 27  1  0
 27  5  1  0
 25  6  1  0
 24  9  1  0
  1 28  1  0
  1 29  1  0
  1 30  1  0
  3 31  1  0
  3 32  1  0
  3 33  1  0
  4 34  1  0
  4 35  1  0
  7 36  1  0
  8 37  1  0
 10 38  1  0
 13 39  1  0
 20 40  1  0
 21 41  1  0
 21 42  1  0
 22 43  1  0
 22 44  1  0
 23 45  1  0
 25 46  1  0
 26 47  1  0
 26 48  1  0
 27 49  1  0
 27 50  1  0
M  CHG  1  13  -1
M  END
>  <UniqueID>  (93) 
93

>  <SMILES>  (93) 
CN(C)CC1(c2ccc3cc(C([NH-])=O)n(C(=O)C(=O)NCCO)c3c2)CC1

>  <Energy>  (93) 
354.34513380078624

>  <Genealogy>  (93) 
CN(C)CC1(c2ccc3cc(C([NH-])=O)n(C(=O)C(=O)NCCO)c3c2)CC1 (protonated)
CN(C)CC1(c2ccc3cc(C([NH-])=O)n(C(=O)C(=O)NCCO)c3c2)CC1 (3D coordinates assigned)
CN(C)CC1(c2ccc3cc(C([NH-])=O)n(C(=O)C(=O)NCCO)c3c2)CC1 (nonaromatic ring conformer: 354.34513380078624 kcal/mol)

>  <smiles>  (93) 
CN(C)CC1(c2ccc3cc(C(N)=O)n(C(=O)C(=O)NCCO)c3c2)CC1

>  <score_type>  (93) 
oracle

>  <origin>  (93) 
adg

>  <m_score__min__energy>  (93) 
-6.8499999999999996

>  <m_primary>  (93) 
energy

$$$$
93:0
     RDKit          3D

 38 40  0  0  0  0  0  0  0  0999 V2000
  142.4380  160.3990  133.3480 N   0  0  0  0  0  0  0  0  0  0  0  0
  143.7850  160.7450  133.6680 C   0  0  0  0  0  0  0  0  0  0  0  0
  144.0400  161.9110  134.0700 O   0  0  0  0  0  0  0  0  0  0  0  0
  144.8750  159.7500  133.5870 C   0  0  0  0  0  0  0  0  0  0  0  0
  146.2190  160.1040  133.5420 C   0  0  0  0  0  0  0  0  0  0  0  0
  146.9030  158.9180  133.4330 C   0  0  0  0  0  0  0  0  0  0  0  0
  148.2700  158.6900  133.3250 C   0  0  0  0  0  0  0  0  0  0  0  0
  148.7070  157.3660  133.1650 C   0  0  0  0  0  0  0  0  0  0  0  0
  147.7740  156.3020  133.0800 C   0  0  0  0  0  0  0  0  0  0  0  0
  148.2530  154.8790  132.9380 C   0  0  0  0  0  0  0  0  0  0  0  0
  149.4500  154.8370  132.2450 F   0  0  0  0  0  0  0  0  0  0  0  0
  148.4510  154.3010  134.1790 F   0  0  0  0  0  0  0  0  0  0  0  0
  147.3050  154.1470  132.2470 F   0  0  0  0  0  0  0  0  0  0  0  0
  146.3920  156.5750  133.2110 C   0  0  0  0  0  0  0  0  0  0  0  0
  145.9820  157.9010  133.4040 C   0  0  0  0  0  0  0  0  0  0  0  0
  144.7240  158.3960  133.5180 N   0  0  0  0  0  0  0  0  0  0  0  0
  143.4760  157.6790  133.3970 C   0  0  0  0  0  0  0  0  0  0  0  0
  143.0260  157.4520  132.2410 O   0  0  0  0  0  0  0  0  0  0  0  0
  142.7240  157.1330  134.6080 C   0  0  2  0  0  0  0  0  0  0  0  0
  141.5450  156.2080  134.2110 C   0  0  0  0  0  0  0  0  0  0  0  0
  140.3020  157.0520  133.9490 C   0  0  0  0  0  0  0  0  0  0  0  0
  140.4580  158.4420  135.0240 S   0  0  0  0  0  0  0  0  0  0  0  0
  139.5330  158.3300  136.2030 O   0  0  0  0  0  0  0  0  0  0  0  0
  140.2370  159.7380  134.2980 O   0  0  0  0  0  0  0  0  0  0  0  0
  142.1470  158.2430  135.5100 C   0  0  0  0  0  0  0  0  0  0  0  0
  141.6910  161.1280  133.3570 H   0  0  0  0  0  0  0  0  0  0  0  0
  142.1640  159.4050  133.2030 H   0  0  0  0  0  0  0  0  0  0  0  0
  146.6438  161.1178  133.5846 H   0  0  0  0  0  0  0  0  0  0  0  0
  148.9879  159.5226  133.3638 H   0  0  0  0  0  0  0  0  0  0  0  0
  149.7842  157.1517  133.1049 H   0  0  0  0  0  0  0  0  0  0  0  0
  145.6531  155.7615  133.1623 H   0  0  0  0  0  0  0  0  0  0  0  0
  143.4859  156.5625  135.1593 H   0  0  0  0  0  0  0  0  0  0  0  0
  141.8076  155.6497  133.3003 H   0  0  0  0  0  0  0  0  0  0  0  0
  141.3423  155.5011  135.0290 H   0  0  0  0  0  0  0  0  0  0  0  0
  140.2701  157.3774  132.8987 H   0  0  0  0  0  0  0  0  0  0  0  0
  139.3747  156.4896  134.1332 H   0  0  0  0  0  0  0  0  0  0  0  0
  142.7002  159.1820  135.3610 H   0  0  0  0  0  0  0  0  0  0  0  0
  142.2303  157.9793  136.5747 H   0  0  0  0  0  0  0  0  0  0  0  0
  1  2  1  0
  2  3  2  0
  2  4  1  0
  4  5  2  0
  5  6  1  0
  6  7  2  0
  7  8  1  0
  8  9  2  0
  9 10  1  0
 10 11  1  0
 10 12  1  0
 10 13  1  0
  9 14  1  0
 14 15  2  0
 15 16  1  0
 16 17  1  0
 17 18  2  0
 17 19  1  0
 19 20  1  0
 20 21  1  0
 21 22  1  0
 22 23  2  0
 22 24  2  0
 22 25  1  0
 16  4  1  0
 25 19  1  0
 15  6  1  0
  1 26  1  0
  1 27  1  0
  5 28  1  0
  7 29  1  0
  8 30  1  0
 14 31  1  0
 19 32  1  1
 20 33  1  0
 20 34  1  0
 21 35  1  0
 21 36  1  0
 25 37  1  0
 25 38  1  0
M  END
>  <UniqueID>  (94) 
94

>  <SMILES>  (94) 
NC(=O)c1cc2ccc(C(F)(F)F)cc2n1C(=O)[C@@H]1CCS(=O)(=O)C1

>  <Energy>  (94) 
81.29777901361462

>  <Genealogy>  (94) 
NC(=O)c1cc2ccc(C(F)(F)F)cc2n1C(=O)[C@@H]1CCS(=O)(=O)C1 (3D coordinates assigned)
NC(=O)c1cc2ccc(C(F)(F)F)cc2n1C(=O)[C@@H]1CCS(=O)(=O)C1 (nonaromatic ring conformer: 81.29777901361462 kcal/mol)

>  <smiles>  (94) 
NC(=O)c1cc2ccc(C(F)(F)F)cc2n1C(=O)[C@@H]1CCS(=O)(=O)C1

>  <score_type>  (94) 
oracle

>  <origin>  (94) 
adg

>  <m_score__min__energy>  (94) 
-6.8799999999999999

>  <m_primary>  (94) 
energy

$$$$
94:0
     RDKit          3D

 34 35  0  0  0  0  0  0  0  0999 V2000
  148.1880  160.4880  130.7260 C   0  0  0  0  0  0  0  0  0  0  0  0
  148.8750  160.4690  131.8710 C   0  0  0  0  0  0  0  0  0  0  0  0
  148.3870  159.7060  133.0710 C   0  0  0  0  0  0  0  0  0  0  0  0
  147.7590  158.4020  132.6660 C   0  0  0  0  0  0  0  0  0  0  0  0
  148.4490  157.5530  132.0400 O   0  0  0  0  0  0  0  0  0  0  0  0
  146.3900  158.1020  132.9960 N   0  0  0  0  0  0  0  0  0  0  0  0
  145.8460  156.8700  133.2130 C   0  0  0  0  0  0  0  0  0  0  0  0
  146.5360  155.5730  133.0470 C   0  0  0  0  0  0  0  0  0  0  0  0
  147.3420  155.3000  131.9020 N   0  0  0  0  0  0  0  0  0  0  0  0
  146.3740  154.6740  133.9140 O   0  0  0  0  0  0  0  0  0  0  0  0
  144.5260  156.9820  133.6380 C   0  0  0  0  0  0  0  0  0  0  0  0
  144.2700  158.3320  133.6810 C   0  0  0  0  0  0  0  0  0  0  0  0
  143.1180  159.0090  134.0710 C   0  0  0  0  0  0  0  0  0  0  0  0
  143.1520  160.4120  134.0830 C   0  0  0  0  0  0  0  0  0  0  0  0
  144.3370  161.1080  133.7380 C   0  0  0  0  0  0  0  0  0  0  0  0
  144.3590  162.6110  133.7480 C   0  0  0  0  0  0  0  0  0  0  0  0
  145.5420  163.1010  134.5200 C   0  0  0  0  0  0  0  0  0  0  0  0
  145.4780  163.2140  135.7720 O   0  0  0  0  0  0  0  0  0  0  0  0
  146.6990  163.4820  133.8520 O   0  0  0  0  0  0  0  0  0  0  0  0
  145.4860  160.3870  133.3430 C   0  0  0  0  0  0  0  0  0  0  0  0
  145.4130  158.9890  133.3010 C   0  0  0  0  0  0  0  0  0  0  0  0
  148.5703  161.0554  129.8646 H   0  0  0  0  0  0  0  0  0  0  0  0
  147.2399  159.9363  130.6442 H   0  0  0  0  0  0  0  0  0  0  0  0
  149.8215  161.0255  131.9378 H   0  0  0  0  0  0  0  0  0  0  0  0
  149.2380  159.5029  133.7377 H   0  0  0  0  0  0  0  0  0  0  0  0
  147.6281  160.3136  133.5857 H   0  0  0  0  0  0  0  0  0  0  0  0
  147.3430  155.9390  131.0780 H   0  0  0  0  0  0  0  0  0  0  0  0
  147.8650  154.3980  131.8320 H   0  0  0  0  0  0  0  0  0  0  0  0
  143.8340  156.1639  133.8868 H   0  0  0  0  0  0  0  0  0  0  0  0
  142.2091  158.4613  134.3608 H   0  0  0  0  0  0  0  0  0  0  0  0
  142.2503  160.9765  134.3628 H   0  0  0  0  0  0  0  0  0  0  0  0
  144.4203  162.9811  132.7140 H   0  0  0  0  0  0  0  0  0  0  0  0
  143.4391  162.9820  134.2236 H   0  0  0  0  0  0  0  0  0  0  0  0
  146.4153  160.9109  133.0750 H   0  0  0  0  0  0  0  0  0  0  0  0
  1  2  2  0
  2  3  1  0
  3  4  1  0
  4  5  2  0
  4  6  1  0
  6  7  1  0
  7  8  1  0
  8  9  1  0
  8 10  2  0
  7 11  2  0
 11 12  1  0
 12 13  2  0
 13 14  1  0
 14 15  2  0
 15 16  1  0
 16 17  1  0
 17 18  2  0
 17 19  1  0
 15 20  1  0
 20 21  2  0
 21  6  1  0
 21 12  1  0
  1 22  1  0
  1 23  1  0
  2 24  1  0
  3 25  1  0
  3 26  1  0
  9 27  1  0
  9 28  1  0
 11 29  1  0
 13 30  1  0
 14 31  1  0
 16 32  1  0
 16 33  1  0
 20 34  1  0
M  CHG  1  19  -1
M  END
>  <UniqueID>  (95) 
95

>  <SMILES>  (95) 
C=CCC(=O)n1c(C(N)=O)cc2ccc(CC(=O)[O-])cc21

>  <Energy>  (95) 
69.56948351744231

>  <Genealogy>  (95) 
C=CCC(=O)n1c(C(N)=O)cc2ccc(CC(=O)[O-])cc21 (protonated)
C=CCC(=O)n1c(C(N)=O)cc2ccc(CC(=O)[O-])cc21 (3D coordinates assigned)
C=CCC(=O)n1c(C(N)=O)cc2ccc(CC(=O)[O-])cc21 (optimized conformer: 69.56948351744231 kcal/mol)

>  <smiles>  (95) 
C=CCC(=O)n1c(C(N)=O)cc2ccc(CC(=O)O)cc21

>  <score_type>  (95) 
oracle

>  <origin>  (95) 
adg

>  <m_score__min__energy>  (95) 
-7.0199999999999996

>  <m_primary>  (95) 
energy

$$$$
95:0
     RDKit          3D

 35 36  0  0  0  0  0  0  0  0999 V2000
  141.3910  159.1090  135.3540 C   0  0  0  0  0  0  0  0  0  0  0  0
  142.2290  158.1010  134.5740 C   0  0  0  0  0  0  0  0  0  0  0  0
  143.5160  158.7260  134.1090 C   0  0  0  0  0  0  0  0  0  0  0  0
  143.6630  160.1350  134.1050 C   0  0  0  0  0  0  0  0  0  0  0  0
  144.8670  160.7280  133.6910 C   0  0  0  0  0  0  0  0  0  0  0  0
  145.9090  159.8890  133.3070 C   0  0  0  0  0  0  0  0  0  0  0  0
  147.1700  160.1960  132.8480 C   0  0  0  0  0  0  0  0  0  0  0  0
  147.7880  158.9700  132.6160 C   0  0  0  0  0  0  0  0  0  0  0  0
  149.1990  158.8360  132.1980 C   0  0  0  0  0  0  0  0  0  0  0  0
  149.7570  157.5600  131.8930 N   0  0  0  0  0  0  0  0  0  0  0  0
  149.9360  159.8570  132.1550 O   0  0  0  0  0  0  0  0  0  0  0  0
  146.9380  157.9440  132.9080 N   0  0  0  0  0  0  0  0  0  0  0  0
  147.1620  156.5370  132.7340 C   0  0  0  0  0  0  0  0  0  0  0  0
  146.9930  156.0090  131.6010 O   0  0  0  0  0  0  0  0  0  0  0  0
  147.5430  155.7550  133.8310 O   0  0  0  0  0  0  0  0  0  0  0  0
  147.5330  154.3290  133.8210 C   0  0  0  0  0  0  0  0  0  0  0  0
  148.5750  153.7810  132.8440 C   0  0  0  0  0  0  0  0  0  0  0  0
  149.5250  154.7650  132.5360 O   0  0  0  0  0  0  0  0  0  0  0  0
  145.7940  158.5230  133.3330 C   0  0  0  0  0  0  0  0  0  0  0  0
  144.6000  157.9050  133.7220 C   0  0  0  0  0  0  0  0  0  0  0  0
  141.5286  158.9435  136.4327 H   0  0  0  0  0  0  0  0  0  0  0  0
  141.7107  160.1294  135.0959 H   0  0  0  0  0  0  0  0  0  0  0  0
  140.3294  158.9810  135.0959 H   0  0  0  0  0  0  0  0  0  0  0  0
  142.4581  157.2429  135.2230 H   0  0  0  0  0  0  0  0  0  0  0  0
  141.6574  157.7719  133.6937 H   0  0  0  0  0  0  0  0  0  0  0  0
  142.8260  160.7708  134.4293 H   0  0  0  0  0  0  0  0  0  0  0  0
  144.9828  161.8217  133.6709 H   0  0  0  0  0  0  0  0  0  0  0  0
  147.5986  161.1977  132.6966 H   0  0  0  0  0  0  0  0  0  0  0  0
  149.1430  156.7320  131.7230 H   0  0  0  0  0  0  0  0  0  0  0  0
  147.7592  153.9604  134.8324 H   0  0  0  0  0  0  0  0  0  0  0  0
  146.5377  153.9874  133.5004 H   0  0  0  0  0  0  0  0  0  0  0  0
  149.0822  152.9189  133.3017 H   0  0  0  0  0  0  0  0  0  0  0  0
  148.0673  153.4745  131.9176 H   0  0  0  0  0  0  0  0  0  0  0  0
  149.0180  155.5630  132.2310 H   0  0  0  0  0  0  0  0  0  0  0  0
  144.5074  156.8089  133.7265 H   0  0  0  0  0  0  0  0  0  0  0  0
  1  2  1  0
  2  3  1  0
  3  4  2  0
  4  5  1  0
  5  6  2  0
  6  7  1  0
  7  8  2  0
  8  9  1  0
  9 10  1  0
  9 11  2  0
  8 12  1  0
 12 13  1  0
 13 14  2  0
 13 15  1  0
 15 16  1  0
 16 17  1  0
 17 18  1  0
 12 19  1  0
 19 20  2  0
 20  3  1  0
 19  6  1  0
  1 21  1  0
  1 22  1  0
  1 23  1  0
  2 24  1  0
  2 25  1  0
  4 26  1  0
  5 27  1  0
  7 28  1  0
 10 29  1  0
 16 30  1  0
 16 31  1  0
 17 32  1  0
 17 33  1  0
 18 34  1  0
 20 35  1  0
M  CHG  1  10  -1
M  END
>  <UniqueID>  (96) 
96

>  <SMILES>  (96) 
CCc1ccc2cc(C([NH-])=O)n(C(=O)OCCO)c2c1

>  <Energy>  (96) 
67.21365280862726

>  <Genealogy>  (96) 
CCc1ccc2cc(C([NH-])=O)n(C(=O)OCCO)c2c1 (protonated)
CCc1ccc2cc(C([NH-])=O)n(C(=O)OCCO)c2c1 (3D coordinates assigned)
CCc1ccc2cc(C([NH-])=O)n(C(=O)OCCO)c2c1 (optimized conformer: 67.21365280862726 kcal/mol)

>  <smiles>  (96) 
CCc1ccc2cc(C(N)=O)n(C(=O)OCCO)c2c1

>  <score_type>  (96) 
oracle

>  <origin>  (96) 
adg

>  <m_score__min__energy>  (96) 
-6.0099999999999998

>  <m_primary>  (96) 
energy

$$$$
96:0
     RDKit          3D

 38 39  0  0  0  0  0  0  0  0999 V2000
  139.6440  149.2560  129.8090 C   0  0  0  0  0  0  0  0  0  0  0  0
  139.9210  150.1130  130.9760 N   0  0  0  0  0  0  0  0  0  0  0  0
  138.7340  150.1550  131.8450 C   0  0  0  0  0  0  0  0  0  0  0  0
  141.0910  149.6180  131.7370 C   0  0  0  0  0  0  0  0  0  0  0  0
  141.7230  150.7300  132.5900 C   0  0  0  0  0  0  0  0  0  0  0  0
  141.3750  152.0650  132.0800 N   0  0  0  0  0  0  0  0  0  0  0  0
  141.6560  153.0640  133.0820 C   0  0  0  0  0  0  0  0  0  0  0  0
  142.7150  152.8690  134.0040 C   0  0  0  0  0  0  0  0  0  0  0  0
  142.9870  153.8250  134.9960 C   0  0  0  0  0  0  0  0  0  0  0  0
  142.1760  154.9550  135.0530 C   0  0  0  0  0  0  0  0  0  0  0  0
  142.2320  156.0410  135.8950 C   0  0  0  0  0  0  0  0  0  0  0  0
  141.1830  156.8680  135.5020 C   0  0  0  0  0  0  0  0  0  0  0  0
  140.8270  158.1170  136.2060 C   0  0  0  0  0  0  0  0  0  0  0  0
  139.5710  158.2580  136.8640 N   0  0  0  0  0  0  0  0  0  0  0  0
  141.6640  159.0570  136.2710 O   0  0  0  0  0  0  0  0  0  0  0  0
  140.5100  156.3200  134.4500 N   0  0  0  0  0  0  0  0  0  0  0  0
  139.4240  156.8910  133.7020 C   0  0  0  0  0  0  0  0  0  0  0  0
  139.2010  156.5190  132.5200 O   0  0  0  0  0  0  0  0  0  0  0  0
  138.5930  157.8410  134.2840 O   0  0  0  0  0  0  0  0  0  0  0  0
  141.1280  155.1460  134.1890 C   0  0  0  0  0  0  0  0  0  0  0  0
  140.8470  154.2200  133.1790 C   0  0  0  0  0  0  0  0  0  0  0  0
  139.3226  148.2616  130.1524 H   0  0  0  0  0  0  0  0  0  0  0  0
  138.8467  149.7097  129.2019 H   0  0  0  0  0  0  0  0  0  0  0  0
  140.5560  149.1572  129.2019 H   0  0  0  0  0  0  0  0  0  0  0  0
  139.0503  150.1438  132.8985 H   0  0  0  0  0  0  0  0  0  0  0  0
  138.1640  151.0739  131.6430 H   0  0  0  0  0  0  0  0  0  0  0  0
  138.1005  149.2787  131.6430 H   0  0  0  0  0  0  0  0  0  0  0  0
  140.7669  148.8012  132.3986 H   0  0  0  0  0  0  0  0  0  0  0  0
  141.8450  149.2654  131.0179 H   0  0  0  0  0  0  0  0  0  0  0  0
  141.3602  150.6368  133.6243 H   0  0  0  0  0  0  0  0  0  0  0  0
  142.8165  150.6185  132.5467 H   0  0  0  0  0  0  0  0  0  0  0  0
  141.9290  152.2740  131.2170 H   0  0  0  0  0  0  0  0  0  0  0  0
  140.3580  152.0950  131.8270 H   0  0  0  0  0  0  0  0  0  0  0  0
  143.3302  151.9592  133.9417 H   0  0  0  0  0  0  0  0  0  0  0  0
  143.8154  153.6852  135.7061 H   0  0  0  0  0  0  0  0  0  0  0  0
  142.9527  156.2186  136.7068 H   0  0  0  0  0  0  0  0  0  0  0  0
  138.7340  158.6160  136.3540 H   0  0  0  0  0  0  0  0  0  0  0  0
  140.0167  154.3869  132.4770 H   0  0  0  0  0  0  0  0  0  0  0  0
  1  2  1  0
  2  3  1  0
  2  4  1  0
  4  5  1  0
  5  6  1  0
  6  7  1  0
  7  8  2  0
  8  9  1  0
  9 10  2  0
 10 11  1  0
 11 12  2  0
 12 13  1  0
 13 14  1  0
 13 15  2  0
 12 16  1  0
 16 17  1  0
 17 18  2  0
 17 19  1  0
 16 20  1  0
 20 21  2  0
 21  7  1  0
 20 10  1  0
  1 22  1  0
  1 23  1  0
  1 24  1  0
  3 25  1  0
  3 26  1  0
  3 27  1  0
  4 28  1  0
  4 29  1  0
  5 30  1  0
  5 31  1  0
  6 32  1  0
  6 33  1  0
  8 34  1  0
  9 35  1  0
 11 36  1  0
 14 37  1  0
 21 38  1  0
M  CHG  3   6   1  14  -1  19  -1
M  END
>  <UniqueID>  (97) 
97

>  <SMILES>  (97) 
CN(C)CC[NH2+]c1ccc2cc(C([NH-])=O)n(C(=O)[O-])c2c1

>  <Energy>  (97) 
77.33100970256127

>  <Genealogy>  (97) 
CN(C)CC[NH2+]c1ccc2cc(C([NH-])=O)n(C(=O)[O-])c2c1 (protonated)
CN(C)CC[NH2+]c1ccc2cc(C([NH-])=O)n(C(=O)[O-])c2c1 (3D coordinates assigned)
CN(C)CC[NH2+]c1ccc2cc(C([NH-])=O)n(C(=O)[O-])c2c1 (optimized conformer: 77.33100970256127 kcal/mol)

>  <smiles>  (97) 
CN(C)CCNc1ccc2cc(C(N)=O)n(C(=O)O)c2c1

>  <score_type>  (97) 
oracle

>  <origin>  (97) 
adg

>  <m_score__min__energy>  (97) 
-6.2000000000000002

>  <m_primary>  (97) 
energy

$$$$
97:0
     RDKit          3D

 51 54  0  0  0  0  0  0  0  0999 V2000
  145.0700  157.0540  133.3050 N   0  0  0  0  0  0  0  0  0  0  0  0
  145.0020  155.8860  134.1190 C   0  0  0  0  0  0  0  0  0  0  0  0
  145.7200  155.8110  135.1510 O   0  0  0  0  0  0  0  0  0  0  0  0
  144.1260  154.7630  133.7240 C   0  0  0  0  0  0  0  0  0  0  0  0
  144.5600  153.4410  133.6430 C   0  0  0  0  0  0  0  0  0  0  0  0
  143.4390  152.7080  133.3270 C   0  0  0  0  0  0  0  0  0  0  0  0
  143.2970  151.3420  133.1020 C   0  0  0  0  0  0  0  0  0  0  0  0
  142.0230  150.8620  132.7510 C   0  0  0  0  0  0  0  0  0  0  0  0
  140.9210  151.7480  132.6330 C   0  0  0  0  0  0  0  0  0  0  0  0
  139.6320  151.2490  132.2260 N   0  0  0  0  0  0  0  0  0  0  0  0
  139.7290  149.8010  131.9880 C   0  0  1  0  0  0  0  0  0  0  0  0
  138.4850  149.2040  131.3310 C   0  0  0  0  0  0  0  0  0  0  0  0
  139.7680  149.3590  130.5320 C   0  0  0  0  0  0  0  0  0  0  0  0
  139.7280  150.3300  129.5480 F   0  0  0  0  0  0  0  0  0  0  0  0
  140.4400  148.1770  130.2780 F   0  0  0  0  0  0  0  0  0  0  0  0
  141.1090  153.1310  132.8630 C   0  0  0  0  0  0  0  0  0  0  0  0
  142.3840  153.5780  133.2260 C   0  0  0  0  0  0  0  0  0  0  0  0
  142.7900  154.8440  133.4650 N   0  0  0  0  0  0  0  0  0  0  0  0
  141.9850  156.0290  133.3680 C   0  0  0  0  0  0  0  0  0  0  0  0
  142.4140  157.0270  132.7270 O   0  0  0  0  0  0  0  0  0  0  0  0
  140.7400  156.0780  134.0040 O   0  0  0  0  0  0  0  0  0  0  0  0
  140.4260  156.9990  135.0470 C   0  0  0  0  0  0  0  0  0  0  0  0
  139.2400  157.8830  134.6400 C   0  0  0  0  0  0  0  0  0  0  0  0
  139.5040  158.6840  133.3520 C   0  0  0  0  0  0  0  0  0  0  0  0
  139.0650  157.9820  132.0560 C   0  0  0  0  0  0  0  0  0  0  0  0
  138.7810  158.9820  130.9240 C   0  0  0  0  0  0  0  0  0  0  0  0
  137.4940  159.7800  131.0570 C   0  0  0  0  0  0  0  0  0  0  0  0
  138.8330  160.4480  131.3310 C   0  0  0  0  0  0  0  0  0  0  0  0
  144.5530  157.1060  132.3980 H   0  0  0  0  0  0  0  0  0  0  0  0
  145.5815  153.0637  133.7986 H   0  0  0  0  0  0  0  0  0  0  0  0
  144.1545  150.6594  133.1958 H   0  0  0  0  0  0  0  0  0  0  0  0
  141.8789  149.7873  132.5658 H   0  0  0  0  0  0  0  0  0  0  0  0
  139.2940  151.7780  131.3880 H   0  0  0  0  0  0  0  0  0  0  0  0
  138.9390  151.4100  132.9930 H   0  0  0  0  0  0  0  0  0  0  0  0
  140.3457  149.5818  132.8721 H   0  0  0  0  0  0  0  0  0  0  0  0
  138.1359  148.2024  131.6223 H   0  0  0  0  0  0  0  0  0  0  0  0
  137.4423  149.5289  131.1997 H   0  0  0  0  0  0  0  0  0  0  0  0
  140.2728  153.8380  132.7590 H   0  0  0  0  0  0  0  0  0  0  0  0
  140.1658  156.4401  135.9580 H   0  0  0  0  0  0  0  0  0  0  0  0
  141.3009  157.6391  135.2335 H   0  0  0  0  0  0  0  0  0  0  0  0
  138.3619  157.2402  134.4798 H   0  0  0  0  0  0  0  0  0  0  0  0
  139.0746  158.6074  135.4511 H   0  0  0  0  0  0  0  0  0  0  0  0
  138.9618  159.6383  133.4251 H   0  0  0  0  0  0  0  0  0  0  0  0
  140.5946  158.8094  133.2827 H   0  0  0  0  0  0  0  0  0  0  0  0
  139.8653  157.2995  131.7338 H   0  0  0  0  0  0  0  0  0  0  0  0
  138.1341  157.4349  132.2659 H   0  0  0  0  0  0  0  0  0  0  0  0
  139.2377  158.3729  130.1300 H   0  0  0  0  0  0  0  0  0  0  0  0
  136.9188  160.0493  130.1589 H   0  0  0  0  0  0  0  0  0  0  0  0
  136.5573  159.6563  131.6202 H   0  0  0  0  0  0  0  0  0  0  0  0
  139.2263  161.1998  130.6309 H   0  0  0  0  0  0  0  0  0  0  0  0
  139.2659  161.0068  132.1738 H   0  0  0  0  0  0  0  0  0  0  0  0
  1  2  1  0
  2  3  2  0
  2  4  1  0
  4  5  2  0
  5  6  1  0
  6  7  2  0
  7  8  1  0
  8  9  2  0
  9 10  1  0
 10 11  1  0
 11 12  1  0
 12 13  1  0
 13 14  1  0
 13 15  1  0
  9 16  1  0
 16 17  2  0
 17 18  1  0
 18 19  1  0
 19 20  2  0
 19 21  1  0
 21 22  1  0
 22 23  1  0
 23 24  1  0
 24 25  1  0
 25 26  1  0
 26 27  1  0
 27 28  1  0
 18  4  1  0
 28 26  1  0
 17  6  1  0
 13 11  1  0
  1 29  1  0
  5 30  1  0
  7 31  1  0
  8 32  1  0
 10 33  1  0
 10 34  1  0
 11 35  1  1
 12 36  1  0
 12 37  1  0
 16 38  1  0
 22 39  1  0
 22 40  1  0
 23 41  1  0
 23 42  1  0
 24 43  1  0
 24 44  1  0
 25 45  1  0
 25 46  1  0
 26 47  1  0
 27 48  1  0
 27 49  1  0
 28 50  1  0
 28 51  1  0
M  CHG  2   1  -1  10   1
M  END
>  <UniqueID>  (98) 
98

>  <SMILES>  (98) 
[NH-]C(=O)c1cc2ccc([NH2+][C@H]3CC3(F)F)cc2n1C(=O)OCCCCC1CC1

>  <Energy>  (98) 
620.0451599283423

>  <Genealogy>  (98) 
[NH-]C(=O)c1cc2ccc([NH2+]C3CC3(F)F)cc2n1C(=O)OCCCCC1CC1 (protonated)
[NH-]C(=O)c1cc2ccc([NH2+][C@H]3CC3(F)F)cc2n1C(=O)OCCCCC1CC1 (chirality)
[NH-]C(=O)c1cc2ccc([NH2+][C@H]3CC3(F)F)cc2n1C(=O)OCCCCC1CC1 (3D coordinates assigned)
[NH-]C(=O)c1cc2ccc([NH2+][C@H]3CC3(F)F)cc2n1C(=O)OCCCCC1CC1 (nonaromatic ring conformer: 620.0451599283423 kcal/mol)

>  <smiles>  (98) 
NC(=O)c1cc2ccc(NC3CC3(F)F)cc2n1C(=O)OCCCCC1CC1

>  <score_type>  (98) 
oracle

>  <origin>  (98) 
adg

>  <m_score__min__energy>  (98) 
-7.96

>  <m_primary>  (98) 
energy

$$$$
98:0
     RDKit          3D

109113  0  0  0  0  0  0  0  0999 V2000
  138.3760  157.7300  133.7190 C   0  0  0  0  0  0  0  0  0  0  0  0
  138.5970  158.6500  132.5560 C   0  0  0  0  0  0  0  0  0  0  0  0
  137.5440  159.1250  131.8390 N   0  0  0  0  0  0  0  0  0  0  0  0
  137.9310  159.9420  130.8370 C   0  0  0  0  0  0  0  0  0  0  0  0
  139.6020  160.1060  130.8020 S   0  0  0  0  0  0  0  0  0  0  0  0
  139.8540  159.0740  132.1070 C   0  0  0  0  0  0  0  0  0  0  0  0
  141.1810  158.7290  132.6570 C   0  0  0  0  0  0  0  0  0  0  0  0
  141.8600  159.6170  133.5040 C   0  0  0  0  0  0  0  0  0  0  0  0
  143.1260  159.2920  134.0010 C   0  0  0  0  0  0  0  0  0  0  0  0
  143.7390  158.0670  133.6590 C   0  0  0  0  0  0  0  0  0  0  0  0
  145.1610  157.7180  134.0720 C   0  0  2  0  0  0  0  0  0  0  0  0
  146.1960  157.8550  132.9470 C   0  0  0  0  0  0  0  0  0  0  0  0
  145.2350  156.3470  134.7880 C   0  0  0  0  0  0  0  0  0  0  0  0
  146.5740  155.6340  134.7370 C   0  0  0  0  0  0  0  0  0  0  0  0
  147.5910  156.2480  134.4610 O   0  0  0  0  0  0  0  0  0  0  0  0
  146.6680  154.1330  134.8780 C   0  0  2  0  0  0  0  0  0  0  0  0
  148.1200  153.6830  135.0620 C   0  0  0  0  0  0  0  0  0  0  0  0
  148.5780  153.2200  133.6810 C   0  0  1  0  0  0  0  0  0  0  0  0
  149.4840  152.1530  133.7690 O   0  0  0  0  0  0  0  0  0  0  0  0
  147.2990  152.7930  132.9670 C   0  0  0  0  0  0  0  0  0  0  0  0
  146.2070  153.4500  133.6740 N   0  0  0  0  0  0  0  0  0  0  0  0
  144.8320  153.4930  133.2330 C   0  0  0  0  0  0  0  0  0  0  0  0
  144.5780  153.9040  132.0690 O   0  0  0  0  0  0  0  0  0  0  0  0
  143.6570  153.1650  134.1390 C   0  0  1  0  0  0  0  0  0  0  0  0
  143.0570  154.3910  134.6660 N   0  0  0  0  0  0  0  0  0  0  0  0
  141.7150  154.5710  135.1320 C   0  0  0  0  0  0  0  0  0  0  0  0
  141.3530  153.9610  136.1730 O   0  0  0  0  0  0  0  0  0  0  0  0
  140.7230  155.4350  134.4000 C   0  0  0  0  0  0  0  0  0  0  0  0
  140.5980  156.7030  135.0150 O   0  0  0  0  0  0  0  0  0  0  0  0
  141.2070  156.7090  136.2980 C   0  0  0  0  0  0  0  0  0  0  0  0
  140.4530  157.6420  137.2480 C   0  0  0  0  0  0  0  0  0  0  0  0
  141.2490  157.9430  138.3770 O   0  0  0  0  0  0  0  0  0  0  0  0
  142.0000  156.8200  138.7990 C   0  0  0  0  0  0  0  0  0  0  0  0
  141.0750  155.6550  139.1610 C   0  0  0  0  0  0  0  0  0  0  0  0
  141.8560  154.5100  139.6420 N   0  0  0  0  0  0  0  0  0  0  0  0
  141.7820  154.1320  141.0560 C   0  0  0  0  0  0  0  0  0  0  0  0
  142.7700  153.8300  138.7560 C   0  0  0  0  0  0  0  0  0  0  0  0
  143.2010  154.4070  137.7210 O   0  0  0  0  0  0  0  0  0  0  0  0
  143.2130  152.4980  139.0390 N   0  0  0  0  0  0  0  0  0  0  0  0
  142.4560  151.4450  139.4470 C   0  0  0  0  0  0  0  0  0  0  0  0
  140.9850  151.4490  139.5680 C   0  0  0  0  0  0  0  0  0  0  0  0
  140.3730  151.1920  140.8310 N   0  0  0  0  0  0  0  0  0  0  0  0
  140.2580  151.6700  138.5620 O   0  0  0  0  0  0  0  0  0  0  0  0
  143.2650  150.3410  139.7130 C   0  0  0  0  0  0  0  0  0  0  0  0
  144.5520  150.7610  139.4500 C   0  0  0  0  0  0  0  0  0  0  0  0
  145.7570  150.0770  139.5500 C   0  0  0  0  0  0  0  0  0  0  0  0
  146.9360  150.7710  139.2290 C   0  0  0  0  0  0  0  0  0  0  0  0
  146.8930  152.1370  138.8450 C   0  0  0  0  0  0  0  0  0  0  0  0
  148.1590  152.8600  138.4670 C   0  0  0  0  0  0  0  0  0  0  0  0
  147.8750  154.1400  138.0240 F   0  0  0  0  0  0  0  0  0  0  0  0
  149.0110  152.9600  139.5500 F   0  0  0  0  0  0  0  0  0  0  0  0
  148.7950  152.1600  137.4560 F   0  0  0  0  0  0  0  0  0  0  0  0
  145.6440  152.7930  138.7410 C   0  0  0  0  0  0  0  0  0  0  0  0
  144.4910  152.0700  139.0520 C   0  0  0  0  0  0  0  0  0  0  0  0
  142.5750  152.2780  133.4320 C   0  0  0  0  0  0  0  0  0  0  0  0
  141.6020  151.6780  134.4730 C   0  0  0  0  0  0  0  0  0  0  0  0
  143.2190  151.1280  132.6280 C   0  0  0  0  0  0  0  0  0  0  0  0
  141.7490  153.1510  132.4610 C   0  0  0  0  0  0  0  0  0  0  0  0
  143.0350  157.1720  132.8350 C   0  0  0  0  0  0  0  0  0  0  0  0
  141.7670  157.4930  132.3490 C   0  0  0  0  0  0  0  0  0  0  0  0
  138.5099  158.2872  134.6579 H   0  0  0  0  0  0  0  0  0  0  0  0
  137.3547  157.3237  133.6762 H   0  0  0  0  0  0  0  0  0  0  0  0
  139.1013  156.9041  133.6762 H   0  0  0  0  0  0  0  0  0  0  0  0
  137.2424  160.4356  130.1354 H   0  0  0  0  0  0  0  0  0  0  0  0
  141.3940  160.5747  133.7789 H   0  0  0  0  0  0  0  0  0  0  0  0
  143.6488  159.9969  134.6642 H   0  0  0  0  0  0  0  0  0  0  0  0
  145.4488  158.4852  134.8059 H   0  0  0  0  0  0  0  0  0  0  0  0
  147.1969  157.9875  133.3837 H   0  0  0  0  0  0  0  0  0  0  0  0
  146.1843  156.9475  132.3255 H   0  0  0  0  0  0  0  0  0  0  0  0
  145.9486  158.7282  132.3255 H   0  0  0  0  0  0  0  0  0  0  0  0
  144.9805  156.5071  135.8461 H   0  0  0  0  0  0  0  0  0  0  0  0
  144.5341  155.6947  134.2464 H   0  0  0  0  0  0  0  0  0  0  0  0
  146.0459  153.8802  135.7493 H   0  0  0  0  0  0  0  0  0  0  0  0
  148.7411  154.5203  135.4129 H   0  0  0  0  0  0  0  0  0  0  0  0
  148.2090  152.8835  135.8123 H   0  0  0  0  0  0  0  0  0  0  0  0
  149.1102  154.0172  133.1413 H   0  0  0  0  0  0  0  0  0  0  0  0
  148.9810  151.3880  134.1510 H   0  0  0  0  0  0  0  0  0  0  0  0
  147.3223  153.1151  131.9155 H   0  0  0  0  0  0  0  0  0  0  0  0
  147.1813  151.6993  132.9700 H   0  0  0  0  0  0  0  0  0  0  0  0
  144.0550  152.5712  134.9751 H   0  0  0  0  0  0  0  0  0  0  0  0
  141.0624  155.5712  133.3626 H   0  0  0  0  0  0  0  0  0  0  0  0
  139.7423  154.9374  134.4247 H   0  0  0  0  0  0  0  0  0  0  0  0
  141.1951  155.6885  136.7085 H   0  0  0  0  0  0  0  0  0  0  0  0
  142.2423  157.0668  136.1973 H   0  0  0  0  0  0  0  0  0  0  0  0
  140.2056  158.5746  136.7197 H   0  0  0  0  0  0  0  0  0  0  0  0
  139.5322  157.1422  137.5832 H   0  0  0  0  0  0  0  0  0  0  0  0
  142.6716  156.5084  137.9855 H   0  0  0  0  0  0  0  0  0  0  0  0
  142.5826  157.0987  139.6895 H   0  0  0  0  0  0  0  0  0  0  0  0
  140.3798  155.9764  139.9505 H   0  0  0  0  0  0  0  0  0  0  0  0
  140.5154  155.3525  138.2636 H   0  0  0  0  0  0  0  0  0  0  0  0
  141.9557  155.0194  141.6823 H   0  0  0  0  0  0  0  0  0  0  0  0
  140.7859  153.7190  141.2735 H   0  0  0  0  0  0  0  0  0  0  0  0
  142.5488  153.3739  141.2735 H   0  0  0  0  0  0  0  0  0  0  0  0
  139.4210  150.7620  140.8870 H   0  0  0  0  0  0  0  0  0  0  0  0
  142.9450  149.3470  140.0588 H   0  0  0  0  0  0  0  0  0  0  0  0
  145.7873  149.0251  139.8704 H   0  0  0  0  0  0  0  0  0  0  0  0
  147.9035  150.2497  139.2758 H   0  0  0  0  0  0  0  0  0  0  0  0
  145.5829  153.8444  138.4236 H   0  0  0  0  0  0  0  0  0  0  0  0
  141.9656  151.9022  135.4867 H   0  0  0  0  0  0  0  0  0  0  0  0
  140.6026  152.1169  134.3365 H   0  0  0  0  0  0  0  0  0  0  0  0
  141.5455  150.5880  134.3365 H   0  0  0  0  0  0  0  0  0  0  0  0
  143.6358  150.3837  133.3224 H   0  0  0  0  0  0  0  0  0  0  0  0
  142.4564  150.6517  131.9944 H   0  0  0  0  0  0  0  0  0  0  0  0
  144.0236  151.5293  131.9944 H   0  0  0  0  0  0  0  0  0  0  0  0
  141.1050  153.8316  133.0373 H   0  0  0  0  0  0  0  0  0  0  0  0
  142.4293  153.7387  131.8272 H   0  0  0  0  0  0  0  0  0  0  0  0
  141.1245  152.5042  131.8272 H   0  0  0  0  0  0  0  0  0  0  0  0
  143.4895  156.2060  132.5698 H   0  0  0  0  0  0  0  0  0  0  0  0
  141.2238  156.7720  131.7204 H   0  0  0  0  0  0  0  0  0  0  0  0
  1  2  1  0
  2  3  1  0
  3  4  2  0
  4  5  1  0
  5  6  1  0
  6  7  1  0
  7  8  2  0
  8  9  1  0
  9 10  2  0
 10 11  1  0
 11 12  1  0
 11 13  1  0
 13 14  1  0
 14 15  2  0
 14 16  1  0
 16 17  1  0
 17 18  1  0
 18 19  1  0
 18 20  1  0
 20 21  1  0
 21 22  1  0
 22 23  2  0
 22 24  1  0
 24 25  1  0
 25 26  1  0
 26 27  2  0
 26 28  1  0
 28 29  1  0
 29 30  1  0
 30 31  1  0
 31 32  1  0
 32 33  1  0
 33 34  1  0
 34 35  1  0
 35 36  1  0
 35 37  1  0
 37 38  2  0
 37 39  1  0
 39 40  1  0
 40 41  1  0
 41 42  1  0
 41 43  2  0
 40 44  2  0
 44 45  1  0
 45 46  2  0
 46 47  1  0
 47 48  2  0
 48 49  1  0
 49 50  1  0
 49 51  1  0
 49 52  1  0
 48 53  1  0
 53 54  2  0
 24 55  1  0
 55 56  1  0
 55 57  1  0
 55 58  1  0
 10 59  1  0
 59 60  2  0
  6  2  2  0
 60  7  1  0
 21 16  1  0
 54 39  1  0
 54 45  1  0
  1 61  1  0
  1 62  1  0
  1 63  1  0
  4 64  1  0
  8 65  1  0
  9 66  1  0
 11 67  1  1
 12 68  1  0
 12 69  1  0
 12 70  1  0
 13 71  1  0
 13 72  1  0
 16 73  1  1
 17 74  1  0
 17 75  1  0
 18 76  1  6
 19 77  1  0
 20 78  1  0
 20 79  1  0
 24 80  1  1
 28 81  1  0
 28 82  1  0
 30 83  1  0
 30 84  1  0
 31 85  1  0
 31 86  1  0
 33 87  1  0
 33 88  1  0
 34 89  1  0
 34 90  1  0
 36 91  1  0
 36 92  1  0
 36 93  1  0
 42 94  1  0
 44 95  1  0
 46 96  1  0
 47 97  1  0
 53 98  1  0
 56 99  1  0
 56100  1  0
 56101  1  0
 57102  1  0
 57103  1  0
 57104  1  0
 58105  1  0
 58106  1  0
 58107  1  0
 59108  1  0
 60109  1  0
M  CHG  2  25  -1  42  -1
M  END
>  <UniqueID>  (99) 
99

>  <SMILES>  (99) 
Cc1ncsc1-c1ccc([C@H](C)CC(=O)[C@@H]2C[C@@H](O)CN2C(=O)[C@@H]([N-]C(=O)COCCOCCN(C)C(=O)n2c(C([NH-])=O)cc3ccc(C(F)(F)F)cc32)C(C)(C)C)cc1

>  <Energy>  (99) 
189.80430044271438

>  <Genealogy>  (99) 
Cc1ncsc1-c1ccc([C@H](C)CC(=O)[C@@H]2C[C@@H](O)CN2C(=O)[C@@H]([N-]C(=O)COCCOCCN(C)C(=O)n2c(C([NH-])=O)cc3ccc(C(F)(F)F)cc32)C(C)(C)C)cc1 (protonated)
Cc1ncsc1-c1ccc([C@H](C)CC(=O)[C@@H]2C[C@@H](O)CN2C(=O)[C@@H]([N-]C(=O)COCCOCCN(C)C(=O)n2c(C([NH-])=O)cc3ccc(C(F)(F)F)cc32)C(C)(C)C)cc1 (3D coordinates assigned)
Cc1ncsc1-c1ccc([C@H](C)CC(=O)[C@@H]2C[C@@H](O)CN2C(=O)[C@@H]([N-]C(=O)COCCOCCN(C)C(=O)n2c(C([NH-])=O)cc3ccc(C(F)(F)F)cc32)C(C)(C)C)cc1 (nonaromatic ring conformer: 189.80430044271438 kcal/mol)

>  <smiles>  (99) 
Cc1ncsc1-c1ccc([C@H](C)CC(=O)[C@@H]2C[C@@H](O)CN2C(=O)[C@@H](NC(=O)COCCOCCN(C)C(=O)n2c(C(N)=O)cc3ccc(C(F)(F)F)cc32)C(C)(C)C)cc1

>  <score_type>  (99) 
oracle

>  <origin>  (99) 
adg

>  <m_score__min__energy>  (99) 
-10.9

>  <m_primary>  (99) 
energy

$$$$
99:0
     RDKit          3D

 36 37  0  0  0  0  0  0  0  0999 V2000
  142.9800  161.1340  133.4810 N   0  0  0  0  0  0  0  0  0  0  0  0
  144.3610  161.3750  133.7360 C   0  0  0  0  0  0  0  0  0  0  0  0
  144.7280  162.5170  134.1160 O   0  0  0  0  0  0  0  0  0  0  0  0
  145.3380  160.2740  133.5970 C   0  0  0  0  0  0  0  0  0  0  0  0
  146.7100  160.4760  133.4720 C   0  0  0  0  0  0  0  0  0  0  0  0
  147.2480  159.2240  133.2830 C   0  0  0  0  0  0  0  0  0  0  0  0
  148.5740  158.8340  133.1260 C   0  0  0  0  0  0  0  0  0  0  0  0
  148.8460  157.4620  132.9870 C   0  0  0  0  0  0  0  0  0  0  0  0
  147.7940  156.5090  132.9970 C   0  0  0  0  0  0  0  0  0  0  0  0
  148.1050  155.0360  132.9110 C   0  0  0  0  0  0  0  0  0  0  0  0
  149.2950  154.8270  132.2350 F   0  0  0  0  0  0  0  0  0  0  0  0
  147.1000  154.3650  132.2360 F   0  0  0  0  0  0  0  0  0  0  0  0
  148.2150  154.5190  134.1870 F   0  0  0  0  0  0  0  0  0  0  0  0
  146.4620  156.9450  133.1820 C   0  0  0  0  0  0  0  0  0  0  0  0
  146.2190  158.3190  133.3000 C   0  0  0  0  0  0  0  0  0  0  0  0
  145.0380  158.9480  133.4950 N   0  0  0  0  0  0  0  0  0  0  0  0
  143.7550  158.3230  133.6470 C   0  0  0  0  0  0  0  0  0  0  0  0
  143.0210  158.1420  132.6360 O   0  0  0  0  0  0  0  0  0  0  0  0
  143.3340  157.9020  134.9130 O   0  0  0  0  0  0  0  0  0  0  0  0
  142.0270  157.3930  135.1780 C   0  0  0  0  0  0  0  0  0  0  0  0
  140.9900  158.5230  135.1530 C   0  0  1  0  0  0  0  0  0  0  0  0
  141.6550  159.7580  135.2430 O   0  0  0  0  0  0  0  0  0  0  0  0
  140.1660  158.4660  133.8580 C   0  0  0  0  0  0  0  0  0  0  0  0
  140.6280  159.4160  132.9360 O   0  0  0  0  0  0  0  0  0  0  0  0
  142.6270  160.1670  133.3060 H   0  0  0  0  0  0  0  0  0  0  0  0
  147.2494  161.4337  133.5152 H   0  0  0  0  0  0  0  0  0  0  0  0
  149.3852  159.5768  133.1111 H   0  0  0  0  0  0  0  0  0  0  0  0
  149.8858  157.1230  132.8691 H   0  0  0  0  0  0  0  0  0  0  0  0
  145.6351  156.2213  133.2321 H   0  0  0  0  0  0  0  0  0  0  0  0
  141.7675  156.6477  134.4117 H   0  0  0  0  0  0  0  0  0  0  0  0
  142.0229  156.9311  136.1763 H   0  0  0  0  0  0  0  0  0  0  0  0
  140.3051  158.4057  136.0057 H   0  0  0  0  0  0  0  0  0  0  0  0
  142.2690  159.8130  134.4650 H   0  0  0  0  0  0  0  0  0  0  0  0
  140.2544  157.4620  133.4173 H   0  0  0  0  0  0  0  0  0  0  0  0
  139.1150  158.6860  134.0968 H   0  0  0  0  0  0  0  0  0  0  0  0
  141.6020  159.5220  133.1020 H   0  0  0  0  0  0  0  0  0  0  0  0
  1  2  1  0
  2  3  2  0
  2  4  1  0
  4  5  2  0
  5  6  1  0
  6  7  2  0
  7  8  1  0
  8  9  2  0
  9 10  1  0
 10 11  1  0
 10 12  1  0
 10 13  1  0
  9 14  1  0
 14 15  2  0
 15 16  1  0
 16 17  1  0
 17 18  2  0
 17 19  1  0
 19 20  1  0
 20 21  1  0
 21 22  1  0
 21 23  1  0
 23 24  1  0
 16  4  1  0
 15  6  1  0
  1 25  1  0
  5 26  1  0
  7 27  1  0
  8 28  1  0
 14 29  1  0
 20 30  1  0
 20 31  1  0
 21 32  1  1
 22 33  1  0
 23 34  1  0
 23 35  1  0
 24 36  1  0
M  CHG  1   1  -1
M  END
>  <UniqueID>  (100) 
100

>  <SMILES>  (100) 
[NH-]C(=O)c1cc2ccc(C(F)(F)F)cc2n1C(=O)OC[C@@H](O)CO

>  <Energy>  (100) 
70.61627298597934

>  <Genealogy>  (100) 
[NH-]C(=O)c1cc2ccc(C(F)(F)F)cc2n1C(=O)OCC(O)CO (protonated)
[NH-]C(=O)c1cc2ccc(C(F)(F)F)cc2n1C(=O)OC[C@@H](O)CO (chirality)
[NH-]C(=O)c1cc2ccc(C(F)(F)F)cc2n1C(=O)OC[C@@H](O)CO (3D coordinates assigned)
[NH-]C(=O)c1cc2ccc(C(F)(F)F)cc2n1C(=O)OC[C@@H](O)CO (optimized conformer: 70.61627298597934 kcal/mol)

>  <smiles>  (100) 
NC(=O)c1cc2ccc(C(F)(F)F)cc2n1C(=O)OCC(O)CO

>  <score_type>  (100) 
oracle

>  <origin>  (100) 
adg

>  <m_score__min__energy>  (100) 
-4.3399999999999999

>  <m_primary>  (100) 
energy

$$$$
