0:0
     RDKit          3D

 42 45  0  0  0  0  0  0  0  0999 V2000
  144.9030  159.9910  133.4920 C   0  0  0  0  0  0  0  0  0  0  0  0
  146.0080  158.9980  133.2920 C   0  0  0  0  0  0  0  0  0  0  0  0
  147.3110  159.4420  132.9550 C   0  0  0  0  0  0  0  0  0  0  0  0
  148.3480  158.5190  132.7280 C   0  0  0  0  0  0  0  0  0  0  0  0
  148.0490  157.1620  132.8300 C   0  0  0  0  0  0  0  0  0  0  0  0
  148.8570  156.0610  132.6720 C   0  0  0  0  0  0  0  0  0  0  0  0
  148.0300  154.9610  132.8890 C   0  0  0  0  0  0  0  0  0  0  0  0
  148.4850  153.5600  132.7540 C   0  0  0  0  0  0  0  0  0  0  0  0
  147.7580  152.4790  133.3410 N   0  0  0  0  0  0  0  0  0  0  0  0
  149.5210  153.3120  132.0840 O   0  0  0  0  0  0  0  0  0  0  0  0
  146.7640  155.3690  133.1890 N   0  0  0  0  0  0  0  0  0  0  0  0
  145.6330  154.5710  133.5740 C   0  0  0  0  0  0  0  0  0  0  0  0
  145.5830  154.1070  134.7440 O   0  0  0  0  0  0  0  0  0  0  0  0
  144.5450  154.2780  132.6140 C   0  0  0  0  0  0  0  0  0  0  0  0
  144.4060  155.0070  131.5930 O   0  0  0  0  0  0  0  0  0  0  0  0
  143.6630  153.1600  132.8060 N   0  0  0  0  0  0  0  0  0  0  0  0
  144.0300  151.8560  132.7540 C   0  0  0  0  0  0  0  0  0  0  0  0
  142.8930  151.1120  132.9610 C   0  0  0  0  0  0  0  0  0  0  0  0
  141.8760  152.0020  133.0860 C   0  0  0  0  0  0  0  0  0  0  0  0
  142.3440  153.2570  132.9520 N   0  0  0  0  0  0  0  0  0  0  0  0
  140.5790  151.4520  132.5640 C   0  0  0  0  0  0  0  0  0  0  0  0
  140.9720  150.1180  132.0850 N   0  0  0  0  0  0  0  0  0  0  0  0
  140.0740  149.1310  131.4950 C   0  0  0  0  0  0  0  0  0  0  0  0
  142.3710  149.9440  132.3010 C   0  0  0  0  0  0  0  0  0  0  0  0
  143.0440  148.9580  131.8950 O   0  0  0  0  0  0  0  0  0  0  0  0
  146.7900  156.7180  133.1350 C   0  0  0  0  0  0  0  0  0  0  0  0
  145.7400  157.6140  133.3780 C   0  0  0  0  0  0  0  0  0  0  0  0
  144.7356  160.1414  134.5687 H   0  0  0  0  0  0  0  0  0  0  0  0
  145.1816  160.9482  133.0270 H   0  0  0  0  0  0  0  0  0  0  0  0
  143.9809  159.6121  133.0270 H   0  0  0  0  0  0  0  0  0  0  0  0
  147.5136  160.5198  132.8700 H   0  0  0  0  0  0  0  0  0  0  0  0
  149.3640  158.8582  132.4776 H   0  0  0  0  0  0  0  0  0  0  0  0
  149.9292  156.0507  132.4263 H   0  0  0  0  0  0  0  0  0  0  0  0
  146.8090  152.6180  133.7500 H   0  0  0  0  0  0  0  0  0  0  0  0
  148.1470  151.5100  133.3110 H   0  0  0  0  0  0  0  0  0  0  0  0
  145.0442  151.4675  132.5794 H   0  0  0  0  0  0  0  0  0  0  0  0
  139.8260  151.3822  133.3629 H   0  0  0  0  0  0  0  0  0  0  0  0
  140.1162  152.0791  131.7878 H   0  0  0  0  0  0  0  0  0  0  0  0
  139.5661  148.5727  132.2952 H   0  0  0  0  0  0  0  0  0  0  0  0
  139.3251  149.6425  130.8725 H   0  0  0  0  0  0  0  0  0  0  0  0
  140.6538  148.4336  130.8725 H   0  0  0  0  0  0  0  0  0  0  0  0
  144.7333  157.2487  133.6292 H   0  0  0  0  0  0  0  0  0  0  0  0
  1  2  1  0
  2  3  2  0
  3  4  1  0
  4  5  2  0
  5  6  1  0
  6  7  2  0
  7  8  1  0
  8  9  1  0
  8 10  2  0
  7 11  1  0
 11 12  1  0
 12 13  2  0
 12 14  1  0
 14 15  2  0
 14 16  1  0
 16 17  1  0
 17 18  2  0
 18 19  1  0
 19 20  2  0
 19 21  1  0
 21 22  1  0
 22 23  1  0
 22 24  1  0
 24 25  2  0
 11 26  1  0
 26 27  2  0
 27  2  1  0
 26  5  1  0
 20 16  1  0
 24 18  1  0
  1 28  1  0
  1 29  1  0
  1 30  1  0
  3 31  1  0
  4 32  1  0
  6 33  1  0
  9 34  1  0
  9 35  1  0
 17 36  1  0
 21 37  1  0
 21 38  1  0
 23 39  1  0
 23 40  1  0
 23 41  1  0
 27 42  1  0
M  END
>  <UniqueID>  (1) 
1

>  <SMILES>  (1) 
Cc1ccc2cc(C(N)=O)n(C(=O)C(=O)n3cc4c(n3)CN(C)C4=O)c2c1

>  <Energy>  (1) 
156.1411527124533

>  <Genealogy>  (1) 
Cc1ccc2cc(C(N)=O)n(C(=O)C(=O)n3cc4c(n3)CN(C)C4=O)c2c1 (3D coordinates assigned)
Cc1ccc2cc(C(N)=O)n(C(=O)C(=O)n3cc4c(n3)CN(C)C4=O)c2c1 (nonaromatic ring conformer: 156.1411527124533 kcal/mol)

>  <smiles>  (1) 
Cc1ccc2cc(C(N)=O)n(C(=O)C(=O)n3cc4c(n3)CN(C)C4=O)c2c1

>  <score_type>  (1) 
oracle

>  <origin>  (1) 
adg

>  <m_score__min__energy>  (1) 
-8.8100000000000005

>  <m_primary>  (1) 
energy

$$$$
1:0
     RDKit          3D

 39 40  0  0  0  0  0  0  0  0999 V2000
  141.8630  150.3950  132.5980 C   0  0  0  0  0  0  0  0  0  0  0  0
  143.2840  150.3800  132.6290 O   0  0  0  0  0  0  0  0  0  0  0  0
  144.0480  151.5490  132.6500 C   0  0  0  0  0  0  0  0  0  0  0  0
  145.3030  151.5010  132.5300 O   0  0  0  0  0  0  0  0  0  0  0  0
  143.3760  152.8630  132.8880 C   0  0  0  0  0  0  0  0  0  0  0  0
  144.3370  153.9550  132.6830 N   0  0  0  0  0  0  0  0  0  0  0  0
  144.3740  154.6800  131.4090 C   0  0  0  0  0  0  0  0  0  0  0  0
  145.2190  154.3470  133.7540 C   0  0  0  0  0  0  0  0  0  0  0  0
  145.1050  153.8180  134.8920 O   0  0  0  0  0  0  0  0  0  0  0  0
  146.2340  155.3390  133.5400 N   0  0  0  0  0  0  0  0  0  0  0  0
  147.5240  155.1360  133.1530 C   0  0  0  0  0  0  0  0  0  0  0  0
  148.1900  153.8240  133.0200 C   0  0  0  0  0  0  0  0  0  0  0  0
  147.5220  152.6090  133.3620 N   0  0  0  0  0  0  0  0  0  0  0  0
  149.3890  153.7780  132.6330 O   0  0  0  0  0  0  0  0  0  0  0  0
  148.1450  156.3520  132.8740 C   0  0  0  0  0  0  0  0  0  0  0  0
  147.1850  157.3130  133.0980 C   0  0  0  0  0  0  0  0  0  0  0  0
  147.2460  158.6940  132.9490 C   0  0  0  0  0  0  0  0  0  0  0  0
  146.0800  159.4360  133.2020 C   0  0  0  0  0  0  0  0  0  0  0  0
  144.8700  158.7870  133.5640 C   0  0  0  0  0  0  0  0  0  0  0  0
  143.6350  159.5970  133.8690 C   0  0  0  0  0  0  0  0  0  0  0  0
  142.6020  159.2540  133.0160 F   0  0  0  0  0  0  0  0  0  0  0  0
  143.8900  160.9490  133.7190 F   0  0  0  0  0  0  0  0  0  0  0  0
  143.2430  159.3550  135.1720 F   0  0  0  0  0  0  0  0  0  0  0  0
  144.8550  157.3820  133.7200 C   0  0  0  0  0  0  0  0  0  0  0  0
  146.0390  156.6740  133.4890 C   0  0  0  0  0  0  0  0  0  0  0  0
  141.4738  150.3991  133.6269 H   0  0  0  0  0  0  0  0  0  0  0  0
  141.5172  151.2968  132.0716 H   0  0  0  0  0  0  0  0  0  0  0  0
  141.4983  149.5007  132.0716 H   0  0  0  0  0  0  0  0  0  0  0  0
  142.5373  152.9773  132.1855 H   0  0  0  0  0  0  0  0  0  0  0  0
  142.9999  152.8979  133.9211 H   0  0  0  0  0  0  0  0  0  0  0  0
  144.4292  155.7612  131.6039 H   0  0  0  0  0  0  0  0  0  0  0  0
  145.2573  154.3656  130.8337 H   0  0  0  0  0  0  0  0  0  0  0  0
  143.4633  154.4571  130.8337 H   0  0  0  0  0  0  0  0  0  0  0  0
  146.6110  152.6130  133.8680 H   0  0  0  0  0  0  0  0  0  0  0  0
  147.9940  151.6910  133.2000 H   0  0  0  0  0  0  0  0  0  0  0  0
  149.1825  156.5104  132.5446 H   0  0  0  0  0  0  0  0  0  0  0  0
  148.1785  159.1905  132.6425 H   0  0  0  0  0  0  0  0  0  0  0  0
  146.1048  160.5326  133.1187 H   0  0  0  0  0  0  0  0  0  0  0  0
  143.9342  156.8581  134.0160 H   0  0  0  0  0  0  0  0  0  0  0  0
  1  2  1  0
  2  3  1  0
  3  4  2  0
  3  5  1  0
  5  6  1  0
  6  7  1  0
  6  8  1  0
  8  9  2  0
  8 10  1  0
 10 11  1  0
 11 12  1  0
 12 13  1  0
 12 14  2  0
 11 15  2  0
 15 16  1  0
 16 17  2  0
 17 18  1  0
 18 19  2  0
 19 20  1  0
 20 21  1  0
 20 22  1  0
 20 23  1  0
 19 24  1  0
 24 25  2  0
 25 10  1  0
 25 16  1  0
  1 26  1  0
  1 27  1  0
  1 28  1  0
  5 29  1  0
  5 30  1  0
  7 31  1  0
  7 32  1  0
  7 33  1  0
 13 34  1  0
 13 35  1  0
 15 36  1  0
 17 37  1  0
 18 38  1  0
 24 39  1  0
M  END
>  <UniqueID>  (2) 
2

>  <SMILES>  (2) 
COC(=O)CN(C)C(=O)n1c(C(N)=O)cc2ccc(C(F)(F)F)cc21

>  <Energy>  (2) 
73.76871528881445

>  <Genealogy>  (2) 
COC(=O)CN(C)C(=O)n1c(C(N)=O)cc2ccc(C(F)(F)F)cc21 (3D coordinates assigned)
COC(=O)CN(C)C(=O)n1c(C(N)=O)cc2ccc(C(F)(F)F)cc21 (optimized conformer: 73.76871528881445 kcal/mol)

>  <smiles>  (2) 
COC(=O)CN(C)C(=O)n1c(C(N)=O)cc2ccc(C(F)(F)F)cc21

>  <score_type>  (2) 
oracle

>  <origin>  (2) 
adg

>  <m_score__min__energy>  (2) 
-5.5300000000000002

>  <m_primary>  (2) 
energy

$$$$
2:0
     RDKit          3D

 47 48  0  0  0  0  0  0  0  0999 V2000
  143.9870  155.2190  132.1870 C   0  0  0  0  0  0  0  0  0  0  0  0
  143.9540  154.6260  133.5340 N   0  0  0  0  0  0  0  0  0  0  0  0
  143.2520  153.3330  133.5200 C   0  0  0  0  0  0  0  0  0  0  0  0
  145.2790  154.4830  134.1170 C   0  0  0  0  0  0  0  0  0  0  0  0
  145.8860  153.4320  133.9570 O   0  0  0  0  0  0  0  0  0  0  0  0
  145.9690  155.5980  134.8740 C   0  0  0  0  0  0  0  0  0  0  0  0
  147.1170  156.0610  134.1670 O   0  0  0  0  0  0  0  0  0  0  0  0
  147.0400  156.7740  132.9660 C   0  0  0  0  0  0  0  0  0  0  0  0
  147.1550  156.1790  131.8600 O   0  0  0  0  0  0  0  0  0  0  0  0
  146.7730  158.1820  132.9940 N   0  0  0  0  0  0  0  0  0  0  0  0
  147.6500  159.2010  132.7800 C   0  0  0  0  0  0  0  0  0  0  0  0
  149.0490  159.0560  132.3250 C   0  0  0  0  0  0  0  0  0  0  0  0
  149.5970  157.7570  132.1170 N   0  0  0  0  0  0  0  0  0  0  0  0
  149.7760  160.0680  132.1460 O   0  0  0  0  0  0  0  0  0  0  0  0
  147.0290  160.4300  132.9950 C   0  0  0  0  0  0  0  0  0  0  0  0
  145.7350  160.1250  133.3550 C   0  0  0  0  0  0  0  0  0  0  0  0
  144.6900  160.9620  133.7230 C   0  0  0  0  0  0  0  0  0  0  0  0
  143.4760  160.3700  134.1060 C   0  0  0  0  0  0  0  0  0  0  0  0
  143.3120  158.9540  134.1170 C   0  0  0  0  0  0  0  0  0  0  0  0
  141.9850  158.3570  134.6170 C   0  0  0  0  0  0  0  0  0  0  0  0
  141.6160  158.8050  136.0500 C   0  0  0  0  0  0  0  0  0  0  0  0
  140.8610  158.8170  133.6640 C   0  0  0  0  0  0  0  0  0  0  0  0
  142.0840  156.8430  134.6360 C   0  0  0  0  0  0  0  0  0  0  0  0
  141.4180  156.1580  133.8160 O   0  0  0  0  0  0  0  0  0  0  0  0
  142.9440  156.1900  135.5150 O   0  0  0  0  0  0  0  0  0  0  0  0
  144.4180  158.1420  133.7420 C   0  0  0  0  0  0  0  0  0  0  0  0
  145.6080  158.7640  133.3480 C   0  0  0  0  0  0  0  0  0  0  0  0
  144.0480  156.3142  132.2699 H   0  0  0  0  0  0  0  0  0  0  0  0
  144.8656  154.8430  131.6423 H   0  0  0  0  0  0  0  0  0  0  0  0
  143.0721  154.9429  131.6423 H   0  0  0  0  0  0  0  0  0  0  0  0
  143.4010  155.2780  134.1420 H   0  0  0  0  0  0  0  0  0  0  0  0
  143.0724  153.0021  134.5536 H   0  0  0  0  0  0  0  0  0  0  0  0
  142.2901  153.4436  132.9980 H   0  0  0  0  0  0  0  0  0  0  0  0
  143.8687  152.5866  132.9980 H   0  0  0  0  0  0  0  0  0  0  0  0
  145.2655  156.4335  135.0041 H   0  0  0  0  0  0  0  0  0  0  0  0
  146.2920  155.2105  135.8515 H   0  0  0  0  0  0  0  0  0  0  0  0
  149.1050  157.0560  131.5180 H   0  0  0  0  0  0  0  0  0  0  0  0
  147.4767  161.4301  132.8979 H   0  0  0  0  0  0  0  0  0  0  0  0
  144.8097  162.0554  133.7147 H   0  0  0  0  0  0  0  0  0  0  0  0
  142.6339  161.0121  134.4038 H   0  0  0  0  0  0  0  0  0  0  0  0
  142.1396  158.1693  136.7792 H   0  0  0  0  0  0  0  0  0  0  0  0
  141.9162  159.8532  136.1952 H   0  0  0  0  0  0  0  0  0  0  0  0
  140.5297  158.7112  136.1952 H   0  0  0  0  0  0  0  0  0  0  0  0
  140.0015  159.1688  134.2535 H   0  0  0  0  0  0  0  0  0  0  0  0
  141.2305  159.6362  133.0297 H   0  0  0  0  0  0  0  0  0  0  0  0
  140.5501  157.9738  133.0297 H   0  0  0  0  0  0  0  0  0  0  0  0
  144.3393  157.0450  133.7614 H   0  0  0  0  0  0  0  0  0  0  0  0
  1  2  1  0
  2  3  1  0
  2  4  1  0
  4  5  2  0
  4  6  1  0
  6  7  1  0
  7  8  1  0
  8  9  2  0
  8 10  1  0
 10 11  1  0
 11 12  1  0
 12 13  1  0
 12 14  2  0
 11 15  2  0
 15 16  1  0
 16 17  2  0
 17 18  1  0
 18 19  2  0
 19 20  1  0
 20 21  1  0
 20 22  1  0
 20 23  1  0
 23 24  2  0
 23 25  1  0
 19 26  1  0
 26 27  2  0
 27 10  1  0
 27 16  1  0
  1 28  1  0
  1 29  1  0
  1 30  1  0
  2 31  1  0
  3 32  1  0
  3 33  1  0
  3 34  1  0
  6 35  1  0
  6 36  1  0
 13 37  1  0
 15 38  1  0
 17 39  1  0
 18 40  1  0
 21 41  1  0
 21 42  1  0
 21 43  1  0
 22 44  1  0
 22 45  1  0
 22 46  1  0
 26 47  1  0
M  CHG  3   2   1  13  -1  25  -1
M  END
>  <UniqueID>  (3) 
3

>  <SMILES>  (3) 
C[NH+](C)C(=O)COC(=O)n1c(C([NH-])=O)cc2ccc(C(C)(C)C(=O)[O-])cc21

>  <Energy>  (3) 
87.41921230537719

>  <Genealogy>  (3) 
C[NH+](C)C(=O)COC(=O)n1c(C([NH-])=O)cc2ccc(C(C)(C)C(=O)[O-])cc21 (protonated)
C[NH+](C)C(=O)COC(=O)n1c(C([NH-])=O)cc2ccc(C(C)(C)C(=O)[O-])cc21 (3D coordinates assigned)
C[NH+](C)C(=O)COC(=O)n1c(C([NH-])=O)cc2ccc(C(C)(C)C(=O)[O-])cc21 (optimized conformer: 87.41921230537719 kcal/mol)

>  <smiles>  (3) 
CN(C)C(=O)COC(=O)n1c(C(N)=O)cc2ccc(C(C)(C)C(=O)O)cc21

>  <score_type>  (3) 
oracle

>  <origin>  (3) 
adg

>  <m_score__min__energy>  (3) 
-5.8099999999999996

>  <m_primary>  (3) 
energy

$$$$
3:0
     RDKit          3D

 39 40  0  0  0  0  0  0  0  0999 V2000
  144.0130  163.5030  133.5500 C   0  0  0  0  0  0  0  0  0  0  0  0
  145.0070  162.5710  134.0950 N   0  0  0  0  0  0  0  0  0  0  0  0
  146.1650  163.1120  134.8190 C   0  0  0  0  0  0  0  0  0  0  0  0
  144.8470  161.1370  133.9220 C   0  0  0  0  0  0  0  0  0  0  0  0
  143.5520  160.5470  133.9190 C   0  0  0  0  0  0  0  0  0  0  0  0
  143.3850  159.1650  133.7400 C   0  0  0  0  0  0  0  0  0  0  0  0
  144.5220  158.3850  133.5760 C   0  0  0  0  0  0  0  0  0  0  0  0
  144.6390  157.0330  133.3490 C   0  0  0  0  0  0  0  0  0  0  0  0
  146.0050  156.7960  133.2470 C   0  0  0  0  0  0  0  0  0  0  0  0
  146.5830  155.4500  133.0530 C   0  0  0  0  0  0  0  0  0  0  0  0
  147.4720  155.1750  131.9690 N   0  0  0  0  0  0  0  0  0  0  0  0
  146.3310  154.5430  133.8890 O   0  0  0  0  0  0  0  0  0  0  0  0
  146.7090  157.9540  133.3900 N   0  0  0  0  0  0  0  0  0  0  0  0
  148.1260  158.1340  133.2230 C   0  0  0  0  0  0  0  0  0  0  0  0
  148.8210  158.6050  134.1650 O   0  0  0  0  0  0  0  0  0  0  0  0
  148.7300  157.7800  132.0130 O   0  0  0  0  0  0  0  0  0  0  0  0
  148.9030  158.6990  130.9380 C   0  0  0  0  0  0  0  0  0  0  0  0
  149.4660  160.0150  131.4670 C   0  0  0  0  0  0  0  0  0  0  0  0
  149.5610  161.0360  130.3780 C   0  0  0  0  0  0  0  0  0  0  0  0
  149.2500  162.2350  130.6060 O   0  0  0  0  0  0  0  0  0  0  0  0
  150.0370  160.6740  129.1240 O   0  0  0  0  0  0  0  0  0  0  0  0
  145.7830  158.9200  133.5940 C   0  0  0  0  0  0  0  0  0  0  0  0
  145.9800  160.2980  133.7470 C   0  0  0  0  0  0  0  0  0  0  0  0
  143.4837  163.9993  134.3768 H   0  0  0  0  0  0  0  0  0  0  0  0
  144.5194  164.2593  132.9324 H   0  0  0  0  0  0  0  0  0  0  0  0
  143.2908  162.9490  132.9324 H   0  0  0  0  0  0  0  0  0  0  0  0
  145.9909  163.0307  135.9021 H   0  0  0  0  0  0  0  0  0  0  0  0
  147.0658  162.5415  134.5485 H   0  0  0  0  0  0  0  0  0  0  0  0
  146.3054  164.1689  134.5485 H   0  0  0  0  0  0  0  0  0  0  0  0
  142.6669  161.1849  134.0594 H   0  0  0  0  0  0  0  0  0  0  0  0
  142.3823  158.7128  133.7299 H   0  0  0  0  0  0  0  0  0  0  0  0
  143.8257  156.2971  133.2660 H   0  0  0  0  0  0  0  0  0  0  0  0
  147.8290  155.9420  131.3560 H   0  0  0  0  0  0  0  0  0  0  0  0
  147.8330  154.2070  131.8190 H   0  0  0  0  0  0  0  0  0  0  0  0
  149.6010  158.2729  130.2023 H   0  0  0  0  0  0  0  0  0  0  0  0
  147.9297  158.8866  130.4610 H   0  0  0  0  0  0  0  0  0  0  0  0
  148.8053  160.3957  132.2598 H   0  0  0  0  0  0  0  0  0  0  0  0
  150.4760  159.8297  131.8615 H   0  0  0  0  0  0  0  0  0  0  0  0
  146.9943  160.7234  133.7319 H   0  0  0  0  0  0  0  0  0  0  0  0
  1  2  1  0
  2  3  1  0
  2  4  1  0
  4  5  2  0
  5  6  1  0
  6  7  2  0
  7  8  1  0
  8  9  2  0
  9 10  1  0
 10 11  1  0
 10 12  2  0
  9 13  1  0
 13 14  1  0
 14 15  2  0
 14 16  1  0
 16 17  1  0
 17 18  1  0
 18 19  1  0
 19 20  2  0
 19 21  1  0
 13 22  1  0
 22 23  2  0
 23  4  1  0
 22  7  1  0
  1 24  1  0
  1 25  1  0
  1 26  1  0
  3 27  1  0
  3 28  1  0
  3 29  1  0
  5 30  1  0
  6 31  1  0
  8 32  1  0
 11 33  1  0
 11 34  1  0
 17 35  1  0
 17 36  1  0
 18 37  1  0
 18 38  1  0
 23 39  1  0
M  CHG  1  21  -1
M  END
>  <UniqueID>  (4) 
4

>  <SMILES>  (4) 
CN(C)c1ccc2cc(C(N)=O)n(C(=O)OCCC(=O)[O-])c2c1

>  <Energy>  (4) 
74.05941158779696

>  <Genealogy>  (4) 
CN(C)c1ccc2cc(C(N)=O)n(C(=O)OCCC(=O)[O-])c2c1 (protonated)
CN(C)c1ccc2cc(C(N)=O)n(C(=O)OCCC(=O)[O-])c2c1 (3D coordinates assigned)
CN(C)c1ccc2cc(C(N)=O)n(C(=O)OCCC(=O)[O-])c2c1 (optimized conformer: 74.05941158779696 kcal/mol)

>  <smiles>  (4) 
CN(C)c1ccc2cc(C(N)=O)n(C(=O)OCCC(=O)O)c2c1

>  <score_type>  (4) 
oracle

>  <origin>  (4) 
adg

>  <m_score__min__energy>  (4) 
-6.6799999999999997

>  <m_primary>  (4) 
energy

$$$$
4:0
     RDKit          3D

 57 60  0  0  0  0  0  0  0  0999 V2000
  142.1160  158.1370  139.7460 C   0  0  0  0  0  0  0  0  0  0  0  0
  141.5470  156.7740  139.6690 N   0  0  0  0  0  0  0  0  0  0  0  0
  142.5660  155.7720  140.0320 C   0  0  0  0  0  0  0  0  0  0  0  0
  141.9020  154.3990  140.2190 C   0  0  0  0  0  0  0  0  0  0  0  0
  140.8710  154.0890  139.1050 C   0  0  0  0  0  0  0  0  0  0  0  0
  140.9460  152.6880  138.6770 N   0  0  0  0  0  0  0  0  0  0  0  0
  141.3550  152.2310  137.3780 C   0  0  0  0  0  0  0  0  0  0  0  0
  140.7550  151.2620  136.8310 O   0  0  0  0  0  0  0  0  0  0  0  0
  142.4680  152.9040  136.6650 C   0  0  0  0  0  0  0  0  0  0  0  0
  142.3960  153.1170  135.2760 C   0  0  0  0  0  0  0  0  0  0  0  0
  143.4340  153.7650  134.6010 C   0  0  0  0  0  0  0  0  0  0  0  0
  144.5700  154.2090  135.2970 C   0  0  0  0  0  0  0  0  0  0  0  0
  145.6770  154.8920  134.5780 C   0  0  0  0  0  0  0  0  0  0  0  0
  146.8720  154.1890  134.2660 C   0  0  0  0  0  0  0  0  0  0  0  0
  147.9340  154.8310  133.6050 C   0  0  0  0  0  0  0  0  0  0  0  0
  147.7740  156.1700  133.2650 C   0  0  0  0  0  0  0  0  0  0  0  0
  148.6450  157.0360  132.6440 C   0  0  0  0  0  0  0  0  0  0  0  0
  147.9630  158.2500  132.5640 C   0  0  0  0  0  0  0  0  0  0  0  0
  148.5000  159.4400  131.8770 C   0  0  0  0  0  0  0  0  0  0  0  0
  149.8670  159.8150  132.0270 N   0  0  0  0  0  0  0  0  0  0  0  0
  147.7280  160.1640  131.1880 O   0  0  0  0  0  0  0  0  0  0  0  0
  146.7240  158.1410  133.1230 N   0  0  0  0  0  0  0  0  0  0  0  0
  145.7370  159.1710  133.3160 C   0  0  0  0  0  0  0  0  0  0  0  0
  144.5110  158.8740  133.2670 O   0  0  0  0  0  0  0  0  0  0  0  0
  146.1500  160.5590  133.7300 C   0  0  0  0  0  0  0  0  0  0  0  0
  144.9820  161.3680  134.2180 C   0  0  0  0  0  0  0  0  0  0  0  0
  143.8310  161.1900  133.7290 O   0  0  0  0  0  0  0  0  0  0  0  0
  145.1550  162.3040  135.2310 O   0  0  0  0  0  0  0  0  0  0  0  0
  146.6220  156.8620  133.5430 C   0  0  0  0  0  0  0  0  0  0  0  0
  145.5530  156.2520  134.2100 C   0  0  0  0  0  0  0  0  0  0  0  0
  144.6460  153.9910  136.6830 C   0  0  0  0  0  0  0  0  0  0  0  0
  143.6060  153.3450  137.3610 C   0  0  0  0  0  0  0  0  0  0  0  0
  140.9970  155.0350  137.9010 C   0  0  0  0  0  0  0  0  0  0  0  0
  140.9450  156.5170  138.3320 C   0  0  0  0  0  0  0  0  0  0  0  0
  142.2363  158.4251  140.8008 H   0  0  0  0  0  0  0  0  0  0  0  0
  143.0963  158.1538  139.2472 H   0  0  0  0  0  0  0  0  0  0  0  0
  141.4386  158.8458  139.2472 H   0  0  0  0  0  0  0  0  0  0  0  0
  143.3172  155.7083  139.2310 H   0  0  0  0  0  0  0  0  0  0  0  0
  143.0516  156.0718  140.9724 H   0  0  0  0  0  0  0  0  0  0  0  0
  142.6822  153.6237  140.2049 H   0  0  0  0  0  0  0  0  0  0  0  0
  141.3664  154.4118  141.1797 H   0  0  0  0  0  0  0  0  0  0  0  0
  139.8790  154.2620  139.5477 H   0  0  0  0  0  0  0  0  0  0  0  0
  141.5147  152.7703  134.7164 H   0  0  0  0  0  0  0  0  0  0  0  0
  143.3606  153.9286  133.5157 H   0  0  0  0  0  0  0  0  0  0  0  0
  146.9673  153.1293  134.5451 H   0  0  0  0  0  0  0  0  0  0  0  0
  148.8619  154.2913  133.3644 H   0  0  0  0  0  0  0  0  0  0  0  0
  149.6622  156.8173  132.2869 H   0  0  0  0  0  0  0  0  0  0  0  0
  150.5080  159.2710  132.6440 H   0  0  0  0  0  0  0  0  0  0  0  0
  146.8926  160.4831  134.5379 H   0  0  0  0  0  0  0  0  0  0  0  0
  146.5725  161.0661  132.8500 H   0  0  0  0  0  0  0  0  0  0  0  0
  144.6383  156.8170  134.4424 H   0  0  0  0  0  0  0  0  0  0  0  0
  145.5312  154.3313  137.2404 H   0  0  0  0  0  0  0  0  0  0  0  0
  143.6801  153.1814  138.4462 H   0  0  0  0  0  0  0  0  0  0  0  0
  141.9554  154.8439  137.3961 H   0  0  0  0  0  0  0  0  0  0  0  0
  140.1506  154.8444  137.2247 H   0  0  0  0  0  0  0  0  0  0  0  0
  141.4889  157.1147  137.5858 H   0  0  0  0  0  0  0  0  0  0  0  0
  139.8827  156.7945  138.3996 H   0  0  0  0  0  0  0  0  0  0  0  0
  1  2  1  0
  2  3  1  0
  3  4  1  0
  4  5  1  0
  5  6  1  0
  6  7  1  0
  7  8  2  0
  7  9  1  0
  9 10  2  0
 10 11  1  0
 11 12  2  0
 12 13  1  0
 13 14  2  0
 14 15  1  0
 15 16  2  0
 16 17  1  0
 17 18  2  0
 18 19  1  0
 19 20  1  0
 19 21  2  0
 18 22  1  0
 22 23  1  0
 23 24  2  0
 23 25  1  0
 25 26  1  0
 26 27  2  0
 26 28  1  0
 22 29  1  0
 29 30  2  0
 12 31  1  0
 31 32  2  0
  5 33  1  0
 33 34  1  0
 34  2  1  0
 32  9  1  0
 30 13  1  0
 29 16  1  0
  1 35  1  0
  1 36  1  0
  1 37  1  0
  3 38  1  0
  3 39  1  0
  4 40  1  0
  4 41  1  0
  5 42  1  0
 10 43  1  0
 11 44  1  0
 14 45  1  0
 15 46  1  0
 17 47  1  0
 20 48  1  0
 25 49  1  0
 25 50  1  0
 30 51  1  0
 31 52  1  0
 32 53  1  0
 33 54  1  0
 33 55  1  0
 34 56  1  0
 34 57  1  0
M  CHG  3   6  -1  20  -1  28  -1
M  END
>  <UniqueID>  (5) 
5

>  <SMILES>  (5) 
CN1CCC([N-]C(=O)c2ccc(-c3ccc4cc(C([NH-])=O)n(C(=O)CC(=O)[O-])c4c3)cc2)CC1

>  <Energy>  (5) 
112.09408560474749

>  <Genealogy>  (5) 
CN1CCC([N-]C(=O)c2ccc(-c3ccc4cc(C([NH-])=O)n(C(=O)CC(=O)[O-])c4c3)cc2)CC1 (protonated)
CN1CCC([N-]C(=O)c2ccc(-c3ccc4cc(C([NH-])=O)n(C(=O)CC(=O)[O-])c4c3)cc2)CC1 (3D coordinates assigned)
CN1CCC([N-]C(=O)c2ccc(-c3ccc4cc(C([NH-])=O)n(C(=O)CC(=O)[O-])c4c3)cc2)CC1 (nonaromatic ring conformer: 112.09408560474749 kcal/mol)

>  <smiles>  (5) 
CN1CCC(NC(=O)c2ccc(-c3ccc4cc(C(N)=O)n(C(=O)CC(=O)O)c4c3)cc2)CC1

>  <score_type>  (5) 
oracle

>  <origin>  (5) 
adg

>  <m_score__min__energy>  (5) 
-10.869999999999999

>  <m_primary>  (5) 
energy

$$$$
5:0
     RDKit          3D

 56 58  0  0  0  0  0  0  0  0999 V2000
  141.8570  157.7320  139.1870 C   0  0  0  0  0  0  0  0  0  0  0  0
  141.2400  157.4220  137.8940 N   0  0  0  0  0  0  0  0  0  0  0  0
  141.1800  156.0370  137.4880 C   0  0  0  0  0  0  0  0  0  0  0  0
  141.8470  155.6370  136.4950 O   0  0  0  0  0  0  0  0  0  0  0  0
  140.3840  155.1390  138.2190 O   0  0  0  0  0  0  0  0  0  0  0  0
  140.8330  154.2450  139.2480 C   0  0  0  0  0  0  0  0  0  0  0  0
  139.9720  154.5200  140.4900 C   0  0  0  0  0  0  0  0  0  0  0  0
  140.6330  152.7780  138.8170 C   0  0  0  0  0  0  0  0  0  0  0  0
  142.3100  154.5130  139.5950 C   0  0  0  0  0  0  0  0  0  0  0  0
  140.7180  158.5180  137.0500 C   0  0  2  0  0  0  0  0  0  0  0  0
  139.8490  157.9990  135.8920 C   0  0  0  0  0  0  0  0  0  0  0  0
  140.2960  158.7580  134.6480 C   0  0  0  0  0  0  0  0  0  0  0  0
  141.4960  159.4850  135.0230 N   0  0  0  0  0  0  0  0  0  0  0  0
  142.3160  160.1920  134.0810 C   0  0  0  0  0  0  0  0  0  0  0  0
  141.8380  161.1590  133.4290 O   0  0  0  0  0  0  0  0  0  0  0  0
  143.6870  159.8210  133.8870 N   0  0  0  0  0  0  0  0  0  0  0  0
  144.7750  160.6380  133.8610 C   0  0  0  0  0  0  0  0  0  0  0  0
  144.7630  162.0930  134.1140 C   0  0  0  0  0  0  0  0  0  0  0  0
  143.8990  162.9390  133.3570 N   0  0  0  0  0  0  0  0  0  0  0  0
  145.5210  162.6010  134.9820 O   0  0  0  0  0  0  0  0  0  0  0  0
  145.9330  159.8970  133.6290 C   0  0  0  0  0  0  0  0  0  0  0  0
  145.5100  158.5890  133.5150 C   0  0  0  0  0  0  0  0  0  0  0  0
  146.2370  157.4270  133.2810 C   0  0  0  0  0  0  0  0  0  0  0  0
  145.5330  156.2130  133.2090 C   0  0  0  0  0  0  0  0  0  0  0  0
  144.1210  156.1830  133.3540 C   0  0  0  0  0  0  0  0  0  0  0  0
  143.3820  154.8690  133.3180 C   0  0  0  0  0  0  0  0  0  0  0  0
  142.0170  155.0740  133.4110 F   0  0  0  0  0  0  0  0  0  0  0  0
  143.6380  154.1940  132.1370 F   0  0  0  0  0  0  0  0  0  0  0  0
  143.7950  154.0880  134.3810 F   0  0  0  0  0  0  0  0  0  0  0  0
  143.4220  157.3830  133.6130 C   0  0  0  0  0  0  0  0  0  0  0  0
  144.1510  158.5730  133.6820 C   0  0  0  0  0  0  0  0  0  0  0  0
  141.8370  159.3590  136.4280 C   0  0  0  0  0  0  0  0  0  0  0  0
  141.1939  157.3988  139.9990 H   0  0  0  0  0  0  0  0  0  0  0  0
  142.8233  157.2124  139.2662 H   0  0  0  0  0  0  0  0  0  0  0  0
  142.0168  158.8174  139.2662 H   0  0  0  0  0  0  0  0  0  0  0  0
  140.5653  154.3305  141.3967 H   0  0  0  0  0  0  0  0  0  0  0  0
  139.6404  155.5688  140.4814 H   0  0  0  0  0  0  0  0  0  0  0  0
  139.0938  153.8577  140.4814 H   0  0  0  0  0  0  0  0  0  0  0  0
  140.5463  152.1420  139.7103 H   0  0  0  0  0  0  0  0  0  0  0  0
  139.7151  152.6941  138.2166 H   0  0  0  0  0  0  0  0  0  0  0  0
  141.4949  152.4515  138.2166 H   0  0  0  0  0  0  0  0  0  0  0  0
  142.4317  154.5351  140.6880 H   0  0  0  0  0  0  0  0  0  0  0  0
  142.9368  153.7139  139.1724 H   0  0  0  0  0  0  0  0  0  0  0  0
  142.6161  155.4813  139.1724 H   0  0  0  0  0  0  0  0  0  0  0  0
  140.1152  159.1338  137.7337 H   0  0  0  0  0  0  0  0  0  0  0  0
  140.0031  156.9185  135.7548 H   0  0  0  0  0  0  0  0  0  0  0  0
  138.7791  158.1564  136.0934 H   0  0  0  0  0  0  0  0  0  0  0  0
  140.5164  158.0547  133.8314 H   0  0  0  0  0  0  0  0  0  0  0  0
  139.5100  159.4404  134.2922 H   0  0  0  0  0  0  0  0  0  0  0  0
  142.8760  162.9790  133.5600 H   0  0  0  0  0  0  0  0  0  0  0  0
  146.9634  160.2746  133.5531 H   0  0  0  0  0  0  0  0  0  0  0  0
  147.3295  157.4572  133.1561 H   0  0  0  0  0  0  0  0  0  0  0  0
  146.0821  155.2753  133.0383 H   0  0  0  0  0  0  0  0  0  0  0  0
  142.3314  157.3806  133.7567 H   0  0  0  0  0  0  0  0  0  0  0  0
  142.8070  158.8533  136.5438 H   0  0  0  0  0  0  0  0  0  0  0  0
  141.9262  160.3414  136.9147 H   0  0  0  0  0  0  0  0  0  0  0  0
  1  2  1  0
  2  3  1  0
  3  4  2  0
  3  5  1  0
  5  6  1  0
  6  7  1  0
  6  8  1  0
  6  9  1  0
  2 10  1  0
 10 11  1  0
 11 12  1  0
 12 13  1  0
 13 14  1  0
 14 15  2  0
 14 16  1  0
 16 17  1  0
 17 18  1  0
 18 19  1  0
 18 20  2  0
 17 21  2  0
 21 22  1  0
 22 23  2  0
 23 24  1  0
 24 25  2  0
 25 26  1  0
 26 27  1  0
 26 28  1  0
 26 29  1  0
 25 30  1  0
 30 31  2  0
 13 32  1  0
 32 10  1  0
 31 16  1  0
 31 22  1  0
  1 33  1  0
  1 34  1  0
  1 35  1  0
  7 36  1  0
  7 37  1  0
  7 38  1  0
  8 39  1  0
  8 40  1  0
  8 41  1  0
  9 42  1  0
  9 43  1  0
  9 44  1  0
 10 45  1  1
 11 46  1  0
 11 47  1  0
 12 48  1  0
 12 49  1  0
 19 50  1  0
 21 51  1  0
 23 52  1  0
 24 53  1  0
 30 54  1  0
 32 55  1  0
 32 56  1  0
M  CHG  1  19  -1
M  END
>  <UniqueID>  (6) 
6

>  <SMILES>  (6) 
CN(C(=O)OC(C)(C)C)[C@@H]1CCN(C(=O)n2c(C([NH-])=O)cc3ccc(C(F)(F)F)cc32)C1

>  <Energy>  (6) 
91.06425512579338

>  <Genealogy>  (6) 
CN(C(=O)OC(C)(C)C)C1CCN(C(=O)n2c(C([NH-])=O)cc3ccc(C(F)(F)F)cc32)C1 (protonated)
CN(C(=O)OC(C)(C)C)[C@@H]1CCN(C(=O)n2c(C([NH-])=O)cc3ccc(C(F)(F)F)cc32)C1 (chirality)
CN(C(=O)OC(C)(C)C)[C@@H]1CCN(C(=O)n2c(C([NH-])=O)cc3ccc(C(F)(F)F)cc32)C1 (3D coordinates assigned)
CN(C(=O)OC(C)(C)C)[C@@H]1CCN(C(=O)n2c(C([NH-])=O)cc3ccc(C(F)(F)F)cc32)C1 (nonaromatic ring conformer: 91.06425512579338 kcal/mol)

>  <smiles>  (6) 
CN(C(=O)OC(C)(C)C)C1CCN(C(=O)n2c(C(N)=O)cc3ccc(C(F)(F)F)cc32)C1

>  <score_type>  (6) 
oracle

>  <origin>  (6) 
adg

>  <m_score__min__energy>  (6) 
-7.8300000000000001

>  <m_primary>  (6) 
energy

$$$$
6:0
     RDKit          3D

 52 54  0  0  0  0  0  0  0  0999 V2000
  139.0090  158.5260  132.4410 C   0  0  0  0  0  0  0  0  0  0  0  0
  138.5660  157.5740  133.4700 N   0  0  0  0  0  0  0  0  0  0  0  0
  139.6070  157.1780  134.4460 C   0  0  2  0  0  0  0  0  0  0  0  0
  139.6100  158.0590  135.7010 C   0  0  0  0  0  0  0  0  0  0  0  0
  140.7960  159.0030  135.5440 C   0  0  0  0  0  0  0  0  0  0  0  0
  141.6370  158.4290  134.5000 N   0  0  0  0  0  0  0  0  0  0  0  0
  142.9350  158.9540  134.1340 C   0  0  0  0  0  0  0  0  0  0  0  0
  143.1530  160.3570  134.0500 C   0  0  0  0  0  0  0  0  0  0  0  0
  144.4120  160.8740  133.7050 C   0  0  0  0  0  0  0  0  0  0  0  0
  145.4370  159.9730  133.4370 C   0  0  0  0  0  0  0  0  0  0  0  0
  146.7520  160.2030  133.1010 C   0  0  0  0  0  0  0  0  0  0  0  0
  147.3230  158.9400  132.9570 C   0  0  0  0  0  0  0  0  0  0  0  0
  148.7140  158.7070  132.5080 C   0  0  0  0  0  0  0  0  0  0  0  0
  149.0750  157.4910  131.8510 N   0  0  0  0  0  0  0  0  0  0  0  0
  149.6030  159.5710  132.7300 O   0  0  0  0  0  0  0  0  0  0  0  0
  146.3960  157.9690  133.1970 N   0  0  0  0  0  0  0  0  0  0  0  0
  146.5910  156.5460  133.2020 C   0  0  0  0  0  0  0  0  0  0  0  0
  146.4590  155.8920  132.1320 O   0  0  0  0  0  0  0  0  0  0  0  0
  146.9440  155.9040  134.3990 O   0  0  0  0  0  0  0  0  0  0  0  0
  147.1330  154.4950  134.5880 C   0  0  0  0  0  0  0  0  0  0  0  0
  148.1530  153.9430  133.5740 C   0  0  0  0  0  0  0  0  0  0  0  0
  145.7730  153.8210  134.3440 C   0  0  0  0  0  0  0  0  0  0  0  0
  147.5830  154.1980  136.0310 C   0  0  0  0  0  0  0  0  0  0  0  0
  145.2480  158.6180  133.4900 C   0  0  0  0  0  0  0  0  0  0  0  0
  144.0100  158.0740  133.8530 C   0  0  0  0  0  0  0  0  0  0  0  0
  141.0310  157.2580  133.8820 C   0  0  0  0  0  0  0  0  0  0  0  0
  139.4257  159.4215  132.9251 H   0  0  0  0  0  0  0  0  0  0  0  0
  139.7807  158.0554  131.8140 H   0  0  0  0  0  0  0  0  0  0  0  0
  138.1521  158.8133  131.8140 H   0  0  0  0  0  0  0  0  0  0  0  0
  138.2230  156.7100  132.9870 H   0  0  0  0  0  0  0  0  0  0  0  0
  139.3424  156.1381  134.6883 H   0  0  0  0  0  0  0  0  0  0  0  0
  138.6725  158.6302  135.7700 H   0  0  0  0  0  0  0  0  0  0  0  0
  139.6911  157.4566  136.6178 H   0  0  0  0  0  0  0  0  0  0  0  0
  140.4499  160.0042  135.2475 H   0  0  0  0  0  0  0  0  0  0  0  0
  141.3486  159.1132  136.4887 H   0  0  0  0  0  0  0  0  0  0  0  0
  142.3226  161.0476  134.2585 H   0  0  0  0  0  0  0  0  0  0  0  0
  144.5826  161.9592  133.6484 H   0  0  0  0  0  0  0  0  0  0  0  0
  147.2470  161.1770  132.9733 H   0  0  0  0  0  0  0  0  0  0  0  0
  150.0660  157.3210  131.5720 H   0  0  0  0  0  0  0  0  0  0  0  0
  148.3570  156.7750  131.6000 H   0  0  0  0  0  0  0  0  0  0  0  0
  148.9961  153.4867  134.1134 H   0  0  0  0  0  0  0  0  0  0  0  0
  147.6681  153.1842  132.9423 H   0  0  0  0  0  0  0  0  0  0  0  0
  148.5231  154.7639  132.9423 H   0  0  0  0  0  0  0  0  0  0  0  0
  145.3011  153.5872  135.3097 H   0  0  0  0  0  0  0  0  0  0  0  0
  145.1235  154.5015  133.7738 H   0  0  0  0  0  0  0  0  0  0  0  0
  145.9212  152.8920  133.7738 H   0  0  0  0  0  0  0  0  0  0  0  0
  146.8793  154.6624  136.7375 H   0  0  0  0  0  0  0  0  0  0  0  0
  147.6008  153.1101  136.1930 H   0  0  0  0  0  0  0  0  0  0  0  0
  148.5902  154.6093  136.1930 H   0  0  0  0  0  0  0  0  0  0  0  0
  143.8742  156.9844  133.9188 H   0  0  0  0  0  0  0  0  0  0  0  0
  141.0040  157.3728  132.7883 H   0  0  0  0  0  0  0  0  0  0  0  0
  141.6039  156.3441  134.0977 H   0  0  0  0  0  0  0  0  0  0  0  0
  1  2  1  0
  2  3  1  0
  3  4  1  0
  4  5  1  0
  5  6  1  0
  6  7  1  0
  7  8  2  0
  8  9  1  0
  9 10  2  0
 10 11  1  0
 11 12  2  0
 12 13  1  0
 13 14  1  0
 13 15  2  0
 12 16  1  0
 16 17  1  0
 17 18  2  0
 17 19  1  0
 19 20  1  0
 20 21  1  0
 20 22  1  0
 20 23  1  0
 16 24  1  0
 24 25  2  0
  6 26  1  0
 26  3  1  0
 25  7  1  0
 24 10  1  0
  1 27  1  0
  1 28  1  0
  1 29  1  0
  2 30  1  0
  3 31  1  1
  4 32  1  0
  4 33  1  0
  5 34  1  0
  5 35  1  0
  8 36  1  0
  9 37  1  0
 11 38  1  0
 14 39  1  0
 14 40  1  0
 21 41  1  0
 21 42  1  0
 21 43  1  0
 22 44  1  0
 22 45  1  0
 22 46  1  0
 23 47  1  0
 23 48  1  0
 23 49  1  0
 25 50  1  0
 26 51  1  0
 26 52  1  0
M  END
>  <UniqueID>  (7) 
7

>  <SMILES>  (7) 
CN[C@@H]1CCN(c2ccc3cc(C(N)=O)n(C(=O)OC(C)(C)C)c3c2)C1

>  <Energy>  (7) 
91.30010130665853

>  <Genealogy>  (7) 
CN[C@@H]1CCN(c2ccc3cc(C(N)=O)n(C(=O)OC(C)(C)C)c3c2)C1 (3D coordinates assigned)
CN[C@@H]1CCN(c2ccc3cc(C(N)=O)n(C(=O)OC(C)(C)C)c3c2)C1 (nonaromatic ring conformer: 91.30010130665853 kcal/mol)

>  <smiles>  (7) 
CN[C@@H]1CCN(c2ccc3cc(C(N)=O)n(C(=O)OC(C)(C)C)c3c2)C1

>  <score_type>  (7) 
oracle

>  <origin>  (7) 
adg

>  <m_score__min__energy>  (7) 
-8.4299999999999997

>  <m_primary>  (7) 
energy

$$$$
7:0
     RDKit          3D

 37 38  0  0  0  0  0  0  0  0999 V2000
  149.5270  160.0590  130.8350 C   0  0  0  0  0  0  0  0  0  0  0  0
  149.5370  159.5160  132.2610 C   0  0  0  0  0  0  0  0  0  0  0  0
  148.1770  158.9990  132.6420 C   0  0  0  0  0  0  0  0  0  0  0  0
  147.0160  159.7440  132.3170 C   0  0  0  0  0  0  0  0  0  0  0  0
  145.7420  159.2780  132.6820 C   0  0  0  0  0  0  0  0  0  0  0  0
  145.6620  158.0790  133.3850 C   0  0  0  0  0  0  0  0  0  0  0  0
  144.5590  157.3900  133.8340 C   0  0  0  0  0  0  0  0  0  0  0  0
  145.0650  156.2580  134.4650 C   0  0  0  0  0  0  0  0  0  0  0  0
  144.2160  155.2610  135.1500 C   0  0  0  0  0  0  0  0  0  0  0  0
  144.6380  154.6380  136.3630 N   0  0  0  0  0  0  0  0  0  0  0  0
  143.0750  154.9970  134.6840 O   0  0  0  0  0  0  0  0  0  0  0  0
  146.4260  156.2360  134.3990 N   0  0  0  0  0  0  0  0  0  0  0  0
  147.3080  155.1890  134.8360 C   0  0  0  0  0  0  0  0  0  0  0  0
  147.8550  154.4380  133.9830 O   0  0  0  0  0  0  0  0  0  0  0  0
  147.5520  155.0150  136.2060 O   0  0  0  0  0  0  0  0  0  0  0  0
  147.6310  153.7800  136.8600 C   0  0  0  0  0  0  0  0  0  0  0  0
  146.5960  153.0880  137.0690 O   0  0  0  0  0  0  0  0  0  0  0  0
  148.8830  153.3240  137.2820 O   0  0  0  0  0  0  0  0  0  0  0  0
  149.5430  153.8090  138.4490 C   0  0  0  0  0  0  0  0  0  0  0  0
  148.6370  153.7160  139.6340 C   0  0  0  0  0  0  0  0  0  0  0  0
  147.6460  154.4880  139.7400 O   0  0  0  0  0  0  0  0  0  0  0  0
  148.8720  152.7590  140.6130 O   0  0  0  0  0  0  0  0  0  0  0  0
  146.7770  157.3620  133.7370 C   0  0  0  0  0  0  0  0  0  0  0  0
  148.0570  157.7900  133.3640 C   0  0  0  0  0  0  0  0  0  0  0  0
  149.5067  161.1585  130.8615 H   0  0  0  0  0  0  0  0  0  0  0  0
  150.4315  159.7215  130.3078 H   0  0  0  0  0  0  0  0  0  0  0  0
  148.6355  159.6884  130.3078 H   0  0  0  0  0  0  0  0  0  0  0  0
  150.2674  158.6964  132.3303 H   0  0  0  0  0  0  0  0  0  0  0  0
  149.8112  160.3303  132.9478 H   0  0  0  0  0  0  0  0  0  0  0  0
  147.1133  160.6957  131.7741 H   0  0  0  0  0  0  0  0  0  0  0  0
  144.8353  159.8432  132.4204 H   0  0  0  0  0  0  0  0  0  0  0  0
  143.5025  157.6736  133.7187 H   0  0  0  0  0  0  0  0  0  0  0  0
  145.4940  154.9600  136.8650 H   0  0  0  0  0  0  0  0  0  0  0  0
  144.0410  153.9080  136.8110 H   0  0  0  0  0  0  0  0  0  0  0  0
  150.4443  153.2059  138.6332 H   0  0  0  0  0  0  0  0  0  0  0  0
  149.8196  154.8620  138.2920 H   0  0  0  0  0  0  0  0  0  0  0  0
  148.9473  157.1997  133.6265 H   0  0  0  0  0  0  0  0  0  0  0  0
  1  2  1  0
  2  3  1  0
  3  4  2  0
  4  5  1  0
  5  6  2  0
  6  7  1  0
  7  8  2  0
  8  9  1  0
  9 10  1  0
  9 11  2  0
  8 12  1  0
 12 13  1  0
 13 14  2  0
 13 15  1  0
 15 16  1  0
 16 17  2  0
 16 18  1  0
 18 19  1  0
 19 20  1  0
 20 21  2  0
 20 22  1  0
 12 23  1  0
 23 24  2  0
 24  3  1  0
 23  6  1  0
  1 25  1  0
  1 26  1  0
  1 27  1  0
  2 28  1  0
  2 29  1  0
  4 30  1  0
  5 31  1  0
  7 32  1  0
 10 33  1  0
 10 34  1  0
 19 35  1  0
 19 36  1  0
 24 37  1  0
M  CHG  1  22  -1
M  END
>  <UniqueID>  (8) 
8

>  <SMILES>  (8) 
CCc1ccc2cc(C(N)=O)n(C(=O)OC(=O)OCC(=O)[O-])c2c1

>  <Energy>  (8) 
72.15923832830426

>  <Genealogy>  (8) 
CCc1ccc2cc(C(N)=O)n(C(=O)OC(=O)OCC(=O)[O-])c2c1 (protonated)
CCc1ccc2cc(C(N)=O)n(C(=O)OC(=O)OCC(=O)[O-])c2c1 (3D coordinates assigned)
CCc1ccc2cc(C(N)=O)n(C(=O)OC(=O)OCC(=O)[O-])c2c1 (optimized conformer: 72.15923832830426 kcal/mol)

>  <smiles>  (8) 
CCc1ccc2cc(C(N)=O)n(C(=O)OC(=O)OCC(=O)O)c2c1

>  <score_type>  (8) 
oracle

>  <origin>  (8) 
adg

>  <m_score__min__energy>  (8) 
-6.6299999999999999

>  <m_primary>  (8) 
energy

$$$$
8:0
     RDKit          3D

 49 51  0  0  0  0  0  0  0  0999 V2000
  149.1810  153.3230  132.9760 C   0  0  0  0  0  0  0  0  0  0  0  0
  148.2660  154.3610  133.4350 N   0  0  0  0  0  0  0  0  0  0  0  0
  147.7290  154.3590  134.7640 C   0  0  0  0  0  0  0  0  0  0  0  0
  147.9390  153.3810  135.5330 O   0  0  0  0  0  0  0  0  0  0  0  0
  146.8910  155.5090  135.2420 C   0  0  0  0  0  0  0  0  0  0  0  0
  145.9340  155.8810  134.2520 O   0  0  0  0  0  0  0  0  0  0  0  0
  146.2680  156.5920  133.0940 C   0  0  0  0  0  0  0  0  0  0  0  0
  146.4790  155.9850  132.0080 O   0  0  0  0  0  0  0  0  0  0  0  0
  146.3160  158.0250  133.1290 N   0  0  0  0  0  0  0  0  0  0  0  0
  147.4090  158.8300  133.0210 C   0  0  0  0  0  0  0  0  0  0  0  0
  148.7820  158.3890  132.6980 C   0  0  0  0  0  0  0  0  0  0  0  0
  149.0940  157.0050  132.5600 N   0  0  0  0  0  0  0  0  0  0  0  0
  149.6860  159.2480  132.5120 O   0  0  0  0  0  0  0  0  0  0  0  0
  147.0500  160.1650  133.2140 C   0  0  0  0  0  0  0  0  0  0  0  0
  145.6930  160.1470  133.4510 C   0  0  0  0  0  0  0  0  0  0  0  0
  144.8170  161.1920  133.7360 C   0  0  0  0  0  0  0  0  0  0  0  0
  143.4720  160.8720  133.9910 C   0  0  0  0  0  0  0  0  0  0  0  0
  143.0320  159.5240  133.9800 C   0  0  0  0  0  0  0  0  0  0  0  0
  141.6570  159.2040  134.2700 N   0  0  0  0  0  0  0  0  0  0  0  0
  141.2220  158.8930  135.6350 C   0  0  0  0  0  0  0  0  0  0  0  0
  140.5670  157.4990  135.6730 C   0  0  0  0  0  0  0  0  0  0  0  0
  139.7860  157.1680  134.4470 N   0  0  0  0  0  0  0  0  0  0  0  0
  140.4540  156.1340  133.6360 C   0  0  0  0  0  0  0  0  0  0  0  0
  139.4250  158.3520  133.6340 C   0  0  0  0  0  0  0  0  0  0  0  0
  140.6680  159.1430  133.1890 C   0  0  0  0  0  0  0  0  0  0  0  0
  143.9500  158.4940  133.6700 C   0  0  0  0  0  0  0  0  0  0  0  0
  145.2760  158.8430  133.3990 C   0  0  0  0  0  0  0  0  0  0  0  0
  149.6270  152.8170  133.8449 H   0  0  0  0  0  0  0  0  0  0  0  0
  148.6294  152.5905  132.3684 H   0  0  0  0  0  0  0  0  0  0  0  0
  149.9769  153.7783  132.3684 H   0  0  0  0  0  0  0  0  0  0  0  0
  148.0150  155.1340  132.7790 H   0  0  0  0  0  0  0  0  0  0  0  0
  146.3637  155.2140  136.1612 H   0  0  0  0  0  0  0  0  0  0  0  0
  147.5489  156.3684  135.4386 H   0  0  0  0  0  0  0  0  0  0  0  0
  148.5950  156.4090  131.8640 H   0  0  0  0  0  0  0  0  0  0  0  0
  147.7102  161.0443  133.1834 H   0  0  0  0  0  0  0  0  0  0  0  0
  145.1666  162.2347  133.7607 H   0  0  0  0  0  0  0  0  0  0  0  0
  142.7524  161.6769  134.2016 H   0  0  0  0  0  0  0  0  0  0  0  0
  142.0929  158.9050  136.3068 H   0  0  0  0  0  0  0  0  0  0  0  0
  140.4895  159.6459  135.9615 H   0  0  0  0  0  0  0  0  0  0  0  0
  141.3601  156.7462  135.7928 H   0  0  0  0  0  0  0  0  0  0  0  0
  139.8580  157.5008  136.5140 H   0  0  0  0  0  0  0  0  0  0  0  0
  140.9298  155.3976  134.3003 H   0  0  0  0  0  0  0  0  0  0  0  0
  139.7109  155.6291  133.0013 H   0  0  0  0  0  0  0  0  0  0  0  0
  141.2198  156.6038  133.0013 H   0  0  0  0  0  0  0  0  0  0  0  0
  138.8782  158.0166  132.7404 H   0  0  0  0  0  0  0  0  0  0  0  0
  138.8031  159.0146  134.2539 H   0  0  0  0  0  0  0  0  0  0  0  0
  141.1176  158.6480  132.3156 H   0  0  0  0  0  0  0  0  0  0  0  0
  140.3620  160.1676  132.9310 H   0  0  0  0  0  0  0  0  0  0  0  0
  143.6280  157.4425  133.6428 H   0  0  0  0  0  0  0  0  0  0  0  0
  1  2  1  0
  2  3  1  0
  3  4  2  0
  3  5  1  0
  5  6  1  0
  6  7  1  0
  7  8  2  0
  7  9  1  0
  9 10  1  0
 10 11  1  0
 11 12  1  0
 11 13  2  0
 10 14  2  0
 14 15  1  0
 15 16  2  0
 16 17  1  0
 17 18  2  0
 18 19  1  0
 19 20  1  0
 20 21  1  0
 21 22  1  0
 22 23  1  0
 22 24  1  0
 24 25  1  0
 18 26  1  0
 26 27  2  0
 27  9  1  0
 27 15  1  0
 25 19  1  0
  1 28  1  0
  1 29  1  0
  1 30  1  0
  2 31  1  0
  5 32  1  0
  5 33  1  0
 12 34  1  0
 14 35  1  0
 16 36  1  0
 17 37  1  0
 20 38  1  0
 20 39  1  0
 21 40  1  0
 21 41  1  0
 23 42  1  0
 23 43  1  0
 23 44  1  0
 24 45  1  0
 24 46  1  0
 25 47  1  0
 25 48  1  0
 26 49  1  0
M  CHG  1  12  -1
M  END
>  <UniqueID>  (9) 
9

>  <SMILES>  (9) 
CNC(=O)COC(=O)n1c(C([NH-])=O)cc2ccc(N3CCN(C)CC3)cc21

>  <Energy>  (9) 
94.14609263188076

>  <Genealogy>  (9) 
CNC(=O)COC(=O)n1c(C([NH-])=O)cc2ccc(N3CCN(C)CC3)cc21 (protonated)
CNC(=O)COC(=O)n1c(C([NH-])=O)cc2ccc(N3CCN(C)CC3)cc21 (3D coordinates assigned)
CNC(=O)COC(=O)n1c(C([NH-])=O)cc2ccc(N3CCN(C)CC3)cc21 (nonaromatic ring conformer: 94.14609263188076 kcal/mol)

>  <smiles>  (9) 
CNC(=O)COC(=O)n1c(C(N)=O)cc2ccc(N3CCN(C)CC3)cc21

>  <score_type>  (9) 
oracle

>  <origin>  (9) 
adg

>  <m_score__min__energy>  (9) 
-7.8099999999999996

>  <m_primary>  (9) 
energy

$$$$
9:0
     RDKit          3D

 38 40  0  0  0  0  0  0  0  0999 V2000
  149.5750  158.5970  131.4820 C   0  0  0  0  0  0  0  0  0  0  0  0
  148.8000  159.5470  132.0080 C   0  0  0  0  0  0  0  0  0  0  0  0
  148.5510  161.0710  131.0840 S   0  0  0  0  0  0  0  0  0  0  0  0
  149.6090  160.5490  129.6980 C   0  0  0  0  0  0  0  0  0  0  0  0
  148.1390  159.3640  133.3210 C   0  0  0  0  0  0  0  0  0  0  0  0
  148.7350  159.6830  134.3850 O   0  0  0  0  0  0  0  0  0  0  0  0
  146.8320  158.7760  133.4010 N   0  0  0  0  0  0  0  0  0  0  0  0
  145.6380  159.4090  133.5680 C   0  0  0  0  0  0  0  0  0  0  0  0
  145.4710  160.8640  133.7910 C   0  0  0  0  0  0  0  0  0  0  0  0
  146.5940  161.6980  134.0850 N   0  0  0  0  0  0  0  0  0  0  0  0
  144.3270  161.3860  133.7140 O   0  0  0  0  0  0  0  0  0  0  0  0
  144.5950  158.4820  133.5510 C   0  0  0  0  0  0  0  0  0  0  0  0
  145.1980  157.2560  133.3690 C   0  0  0  0  0  0  0  0  0  0  0  0
  144.6390  155.9870  133.2670 C   0  0  0  0  0  0  0  0  0  0  0  0
  145.5070  154.9010  133.0610 C   0  0  0  0  0  0  0  0  0  0  0  0
  146.9100  155.0970  132.9570 C   0  0  0  0  0  0  0  0  0  0  0  0
  147.8160  153.9440  132.7250 C   0  0  0  0  0  0  0  0  0  0  0  0
  149.2020  154.1230  132.5940 C   0  0  0  0  0  0  0  0  0  0  0  0
  150.0120  153.0550  132.3800 N   0  0  0  0  0  0  0  0  0  0  0  0
  149.5040  151.7990  132.2930 C   0  0  0  0  0  0  0  0  0  0  0  0
  148.1670  151.5970  132.4170 N   0  0  0  0  0  0  0  0  0  0  0  0
  147.3190  152.6360  132.6290 C   0  0  0  0  0  0  0  0  0  0  0  0
  147.4360  156.4060  133.0730 C   0  0  0  0  0  0  0  0  0  0  0  0
  146.5470  157.4640  133.2840 C   0  0  0  0  0  0  0  0  0  0  0  0
  149.7412  157.6573  132.0291 H   0  0  0  0  0  0  0  0  0  0  0  0
  150.0478  158.7534  130.5012 H   0  0  0  0  0  0  0  0  0  0  0  0
  150.5303  160.0944  130.0910 H   0  0  0  0  0  0  0  0  0  0  0  0
  149.0706  159.8131  129.0827 H   0  0  0  0  0  0  0  0  0  0  0  0
  149.8654  161.4240  129.0827 H   0  0  0  0  0  0  0  0  0  0  0  0
  147.5480  161.3020  134.2280 H   0  0  0  0  0  0  0  0  0  0  0  0
  146.4610  162.7270  134.2100 H   0  0  0  0  0  0  0  0  0  0  0  0
  143.5196  158.6864  133.6598 H   0  0  0  0  0  0  0  0  0  0  0  0
  143.5520  155.8378  133.3450 H   0  0  0  0  0  0  0  0  0  0  0  0
  145.0940  153.8848  132.9792 H   0  0  0  0  0  0  0  0  0  0  0  0
  149.6333  155.1324  132.6650 H   0  0  0  0  0  0  0  0  0  0  0  0
  150.1757  150.9448  132.1220 H   0  0  0  0  0  0  0  0  0  0  0  0
  146.2389  152.4513  132.7257 H   0  0  0  0  0  0  0  0  0  0  0  0
  148.5186  156.5864  132.9989 H   0  0  0  0  0  0  0  0  0  0  0  0
  1  2  2  0
  2  3  1  0
  3  4  1  0
  2  5  1  0
  5  6  2  0
  5  7  1  0
  7  8  1  0
  8  9  1  0
  9 10  1  0
  9 11  2  0
  8 12  2  0
 12 13  1  0
 13 14  2  0
 14 15  1  0
 15 16  2  0
 16 17  1  0
 17 18  2  0
 18 19  1  0
 19 20  2  0
 20 21  1  0
 21 22  2  0
 16 23  1  0
 23 24  2  0
 24  7  1  0
 24 13  1  0
 22 17  1  0
  1 25  1  0
  1 26  1  0
  4 27  1  0
  4 28  1  0
  4 29  1  0
 10 30  1  0
 10 31  1  0
 12 32  1  0
 14 33  1  0
 15 34  1  0
 18 35  1  0
 20 36  1  0
 22 37  1  0
 23 38  1  0
M  END
>  <UniqueID>  (10) 
10

>  <SMILES>  (10) 
C=C(SC)C(=O)n1c(C(N)=O)cc2ccc(-c3cncnc3)cc21

>  <Energy>  (10) 
80.88245282563513

>  <Genealogy>  (10) 
C=C(SC)C(=O)n1c(C(N)=O)cc2ccc(-c3cncnc3)cc21 (3D coordinates assigned)
C=C(SC)C(=O)n1c(C(N)=O)cc2ccc(-c3cncnc3)cc21 (optimized conformer: 80.88245282563513 kcal/mol)

>  <smiles>  (10) 
C=C(SC)C(=O)n1c(C(N)=O)cc2ccc(-c3cncnc3)cc21

>  <score_type>  (10) 
oracle

>  <origin>  (10) 
adg

>  <m_score__min__energy>  (10) 
-7.9100000000000001

>  <m_primary>  (10) 
energy

$$$$
10:0
     RDKit          3D

 48 49  0  0  0  0  0  0  0  0999 V2000
  149.2290  160.9470  130.5530 C   0  0  0  0  0  0  0  0  0  0  0  0
  148.9910  159.4540  130.7370 C   0  0  0  0  0  0  0  0  0  0  0  0
  149.3230  159.0550  132.0650 O   0  0  0  0  0  0  0  0  0  0  0  0
  148.4920  159.2900  133.1640 C   0  0  0  0  0  0  0  0  0  0  0  0
  148.0110  160.4390  133.3710 O   0  0  0  0  0  0  0  0  0  0  0  0
  148.2290  158.1860  134.1410 C   0  0  0  0  0  0  0  0  0  0  0  0
  147.7360  156.9920  133.4440 N   0  0  0  0  0  0  0  0  0  0  0  0
  148.6550  156.1660  132.6560 C   0  0  0  0  0  0  0  0  0  0  0  0
  146.3650  156.5790  133.5980 C   0  0  0  0  0  0  0  0  0  0  0  0
  146.0350  155.3890  133.3390 O   0  0  0  0  0  0  0  0  0  0  0  0
  145.3970  157.5110  133.9980 O   0  0  0  0  0  0  0  0  0  0  0  0
  144.9260  158.5600  133.1980 C   0  0  0  0  0  0  0  0  0  0  0  0
  145.6160  158.9880  132.2330 O   0  0  0  0  0  0  0  0  0  0  0  0
  143.6390  159.1400  133.4690 N   0  0  0  0  0  0  0  0  0  0  0  0
  143.3440  160.4600  133.6540 C   0  0  0  0  0  0  0  0  0  0  0  0
  144.3300  161.5600  133.7310 C   0  0  0  0  0  0  0  0  0  0  0  0
  145.7300  161.2810  133.7960 N   0  0  0  0  0  0  0  0  0  0  0  0
  143.9460  162.7590  133.7040 O   0  0  0  0  0  0  0  0  0  0  0  0
  141.9780  160.6290  133.8730 C   0  0  0  0  0  0  0  0  0  0  0  0
  141.4410  159.3650  133.8250 C   0  0  0  0  0  0  0  0  0  0  0  0
  140.1240  158.9470  133.9920 C   0  0  0  0  0  0  0  0  0  0  0  0
  139.8510  157.5740  133.8840 C   0  0  0  0  0  0  0  0  0  0  0  0
  140.8860  156.6520  133.5920 C   0  0  0  0  0  0  0  0  0  0  0  0
  140.5820  155.1830  133.4810 C   0  0  0  0  0  0  0  0  0  0  0  0
  141.8530  154.3510  133.6270 C   0  0  0  0  0  0  0  0  0  0  0  0
  142.2130  157.1130  133.4360 C   0  0  0  0  0  0  0  0  0  0  0  0
  142.4630  158.4830  133.5750 C   0  0  0  0  0  0  0  0  0  0  0  0
  149.3060  161.4302  131.5382 H   0  0  0  0  0  0  0  0  0  0  0  0
  150.1634  161.1032  129.9939 H   0  0  0  0  0  0  0  0  0  0  0  0
  148.3895  161.3860  129.9939 H   0  0  0  0  0  0  0  0  0  0  0  0
  147.9310  159.2302  130.5462 H   0  0  0  0  0  0  0  0  0  0  0  0
  149.6284  158.9025  130.0302 H   0  0  0  0  0  0  0  0  0  0  0  0
  149.1623  157.9385  134.6680 H   0  0  0  0  0  0  0  0  0  0  0  0
  147.4661  158.5200  134.8596 H   0  0  0  0  0  0  0  0  0  0  0  0
  149.2997  155.5866  133.3333 H   0  0  0  0  0  0  0  0  0  0  0  0
  148.0772  155.4777  132.0216 H   0  0  0  0  0  0  0  0  0  0  0  0
  149.2779  156.8137  132.0216 H   0  0  0  0  0  0  0  0  0  0  0  0
  146.0850  160.3030  133.8710 H   0  0  0  0  0  0  0  0  0  0  0  0
  146.4210  162.0640  133.8090 H   0  0  0  0  0  0  0  0  0  0  0  0
  141.4430  161.5742  134.0474 H   0  0  0  0  0  0  0  0  0  0  0  0
  139.3219  159.6699  134.2021 H   0  0  0  0  0  0  0  0  0  0  0  0
  138.8228  157.2105  134.0276 H   0  0  0  0  0  0  0  0  0  0  0  0
  139.8739  154.9009  134.2741 H   0  0  0  0  0  0  0  0  0  0  0  0
  140.1465  154.9883  132.4898 H   0  0  0  0  0  0  0  0  0  0  0  0
  142.0754  154.2054  134.6944 H   0  0  0  0  0  0  0  0  0  0  0  0
  141.7080  153.3725  133.1459 H   0  0  0  0  0  0  0  0  0  0  0  0
  142.6918  154.8754  133.1459 H   0  0  0  0  0  0  0  0  0  0  0  0
  143.0299  156.4116  133.2107 H   0  0  0  0  0  0  0  0  0  0  0  0
  1  2  1  0
  2  3  1  0
  3  4  1  0
  4  5  2  0
  4  6  1  0
  6  7  1  0
  7  8  1  0
  7  9  1  0
  9 10  2  0
  9 11  1  0
 11 12  1  0
 12 13  2  0
 12 14  1  0
 14 15  1  0
 15 16  1  0
 16 17  1  0
 16 18  2  0
 15 19  2  0
 19 20  1  0
 20 21  2  0
 21 22  1  0
 22 23  2  0
 23 24  1  0
 24 25  1  0
 23 26  1  0
 26 27  2  0
 27 14  1  0
 27 20  1  0
  1 28  1  0
  1 29  1  0
  1 30  1  0
  2 31  1  0
  2 32  1  0
  6 33  1  0
  6 34  1  0
  8 35  1  0
  8 36  1  0
  8 37  1  0
 17 38  1  0
 17 39  1  0
 19 40  1  0
 21 41  1  0
 22 42  1  0
 24 43  1  0
 24 44  1  0
 25 45  1  0
 25 46  1  0
 25 47  1  0
 26 48  1  0
M  END
>  <UniqueID>  (11) 
11

>  <SMILES>  (11) 
CCOC(=O)CN(C)C(=O)OC(=O)n1c(C(N)=O)cc2ccc(CC)cc21

>  <Energy>  (11) 
73.58376500416945

>  <Genealogy>  (11) 
CCOC(=O)CN(C)C(=O)OC(=O)n1c(C(N)=O)cc2ccc(CC)cc21 (3D coordinates assigned)
CCOC(=O)CN(C)C(=O)OC(=O)n1c(C(N)=O)cc2ccc(CC)cc21 (optimized conformer: 73.58376500416945 kcal/mol)

>  <smiles>  (11) 
CCOC(=O)CN(C)C(=O)OC(=O)n1c(C(N)=O)cc2ccc(CC)cc21

>  <score_type>  (11) 
oracle

>  <origin>  (11) 
adg

>  <m_score__min__energy>  (11) 
-7.54

>  <m_primary>  (11) 
energy

$$$$
11:0
     RDKit          3D

 36 38  0  0  0  0  0  0  0  0999 V2000
  144.3970  155.1490  135.2400 C   0  0  0  0  0  0  0  0  0  0  0  0
  145.7520  154.8660  134.9140 O   0  0  0  0  0  0  0  0  0  0  0  0
  146.6620  155.8640  134.5540 C   0  0  0  0  0  0  0  0  0  0  0  0
  147.6140  156.1710  135.3230 O   0  0  0  0  0  0  0  0  0  0  0  0
  146.4930  156.5710  133.2760 C   0  0  0  0  0  0  0  0  0  0  0  0
  146.4470  155.9090  132.2050 O   0  0  0  0  0  0  0  0  0  0  0  0
  146.3670  158.0020  133.2330 N   0  0  0  0  0  0  0  0  0  0  0  0
  147.3490  158.9090  132.9720 C   0  0  0  0  0  0  0  0  0  0  0  0
  148.7320  158.5750  132.5580 C   0  0  0  0  0  0  0  0  0  0  0  0
  149.0150  157.3660  131.8530 N   0  0  0  0  0  0  0  0  0  0  0  0
  149.6800  159.3540  132.8400 O   0  0  0  0  0  0  0  0  0  0  0  0
  146.8530  160.2070  133.0960 C   0  0  0  0  0  0  0  0  0  0  0  0
  145.5320  160.0620  133.4550 C   0  0  0  0  0  0  0  0  0  0  0  0
  144.5680  161.0240  133.7340 C   0  0  0  0  0  0  0  0  0  0  0  0
  143.2890  160.5860  134.1180 C   0  0  0  0  0  0  0  0  0  0  0  0
  142.9970  159.2000  134.2250 C   0  0  0  0  0  0  0  0  0  0  0  0
  141.6460  158.7470  134.6430 C   0  0  0  0  0  0  0  0  0  0  0  0
  141.2640  158.7530  135.9930 C   0  0  0  0  0  0  0  0  0  0  0  0
  140.0240  158.3310  136.3540 N   0  0  0  0  0  0  0  0  0  0  0  0
  139.1350  157.9010  135.4240 C   0  0  0  0  0  0  0  0  0  0  0  0
  139.4770  157.8870  134.1110 N   0  0  0  0  0  0  0  0  0  0  0  0
  140.7070  158.2960  133.7030 C   0  0  0  0  0  0  0  0  0  0  0  0
  144.0080  158.2540  133.9350 C   0  0  0  0  0  0  0  0  0  0  0  0
  145.2650  158.7210  133.5340 C   0  0  0  0  0  0  0  0  0  0  0  0
  144.2804  155.1734  136.3335 H   0  0  0  0  0  0  0  0  0  0  0  0
  144.1149  156.1254  134.8193 H   0  0  0  0  0  0  0  0  0  0  0  0
  143.7477  154.3671  134.8193 H   0  0  0  0  0  0  0  0  0  0  0  0
  149.9980  157.1350  131.5870 H   0  0  0  0  0  0  0  0  0  0  0  0
  148.2550  156.7220  131.5430 H   0  0  0  0  0  0  0  0  0  0  0  0
  147.4016  161.1476  132.9399 H   0  0  0  0  0  0  0  0  0  0  0  0
  144.7995  162.0966  133.6565 H   0  0  0  0  0  0  0  0  0  0  0  0
  142.5048  161.3252  134.3383 H   0  0  0  0  0  0  0  0  0  0  0  0
  141.9704  159.1004  136.7613 H   0  0  0  0  0  0  0  0  0  0  0  0
  138.1353  157.5632  135.7347 H   0  0  0  0  0  0  0  0  0  0  0  0
  140.9668  158.2735  132.6344 H   0  0  0  0  0  0  0  0  0  0  0  0
  143.8106  157.1754  134.0227 H   0  0  0  0  0  0  0  0  0  0  0  0
  1  2  1  0
  2  3  1  0
  3  4  2  0
  3  5  1  0
  5  6  2  0
  5  7  1  0
  7  8  1  0
  8  9  1  0
  9 10  1  0
  9 11  2  0
  8 12  2  0
 12 13  1  0
 13 14  2  0
 14 15  1  0
 15 16  2  0
 16 17  1  0
 17 18  2  0
 18 19  1  0
 19 20  2  0
 20 21  1  0
 21 22  2  0
 16 23  1  0
 23 24  2  0
 24  7  1  0
 24 13  1  0
 22 17  1  0
  1 25  1  0
  1 26  1  0
  1 27  1  0
 10 28  1  0
 10 29  1  0
 12 30  1  0
 14 31  1  0
 15 32  1  0
 18 33  1  0
 20 34  1  0
 22 35  1  0
 23 36  1  0
M  END
>  <UniqueID>  (12) 
12

>  <SMILES>  (12) 
COC(=O)C(=O)n1c(C(N)=O)cc2ccc(-c3cncnc3)cc21

>  <Energy>  (12) 
81.6690636085361

>  <Genealogy>  (12) 
COC(=O)C(=O)n1c(C(N)=O)cc2ccc(-c3cncnc3)cc21 (3D coordinates assigned)
COC(=O)C(=O)n1c(C(N)=O)cc2ccc(-c3cncnc3)cc21 (optimized conformer: 81.6690636085361 kcal/mol)

>  <smiles>  (12) 
COC(=O)C(=O)n1c(C(N)=O)cc2ccc(-c3cncnc3)cc21

>  <score_type>  (12) 
oracle

>  <origin>  (12) 
adg

>  <m_score__min__energy>  (12) 
-6.9400000000000004

>  <m_primary>  (12) 
energy

$$$$
12:0
     RDKit          3D

 48 50  0  0  0  0  0  0  0  0999 V2000
  142.3020  151.8020  133.2510 C   0  0  0  0  0  0  0  0  0  0  0  0
  141.6160  153.0860  133.2700 N   0  0  0  0  0  0  0  0  0  0  0  0
  142.1850  154.2770  133.5270 C   0  0  0  0  0  0  0  0  0  0  0  0
  141.2200  155.2590  133.3760 C   0  0  0  0  0  0  0  0  0  0  0  0
  141.3800  156.7260  133.5530 C   0  0  0  0  0  0  0  0  0  0  0  0
  140.2580  157.5430  133.8610 C   0  0  0  0  0  0  0  0  0  0  0  0
  140.3970  158.9320  134.0220 C   0  0  0  0  0  0  0  0  0  0  0  0
  141.6650  159.4820  133.8780 C   0  0  0  0  0  0  0  0  0  0  0  0
  142.0770  160.7930  133.9550 C   0  0  0  0  0  0  0  0  0  0  0  0
  143.4490  160.7630  133.7140 C   0  0  0  0  0  0  0  0  0  0  0  0
  144.3150  161.9610  133.7630 C   0  0  0  0  0  0  0  0  0  0  0  0
  145.6360  161.8610  134.2900 N   0  0  0  0  0  0  0  0  0  0  0  0
  143.9110  163.0680  133.3200 O   0  0  0  0  0  0  0  0  0  0  0  0
  143.8670  159.4850  133.4960 N   0  0  0  0  0  0  0  0  0  0  0  0
  145.1900  159.0350  133.1650 C   0  0  0  0  0  0  0  0  0  0  0  0
  145.4840  157.8170  133.3010 O   0  0  0  0  0  0  0  0  0  0  0  0
  146.1650  159.9730  132.6850 N   0  0  0  0  0  0  0  0  0  0  0  0
  147.5500  159.6650  132.4810 C   0  0  0  0  0  0  0  0  0  0  0  0
  147.9950  158.5160  132.7490 O   0  0  0  0  0  0  0  0  0  0  0  0
  148.3980  160.6670  131.9880 O   0  0  0  0  0  0  0  0  0  0  0  0
  149.0860  160.6570  130.7270 C   0  0  0  0  0  0  0  0  0  0  0  0
  149.4970  162.0850  130.3220 C   0  0  0  0  0  0  0  0  0  0  0  0
  150.3160  159.7330  130.7890 C   0  0  0  0  0  0  0  0  0  0  0  0
  148.1050  160.1080  129.6790 C   0  0  0  0  0  0  0  0  0  0  0  0
  142.7630  158.7130  133.5990 C   0  0  0  0  0  0  0  0  0  0  0  0
  142.6520  157.3310  133.4130 C   0  0  0  0  0  0  0  0  0  0  0  0
  140.0730  154.5660  133.0090 C   0  0  0  0  0  0  0  0  0  0  0  0
  140.3450  153.2490  132.9430 N   0  0  0  0  0  0  0  0  0  0  0  0
  142.4811  151.4667  134.2832 H   0  0  0  0  0  0  0  0  0  0  0  0
  141.6794  151.0614  132.7277 H   0  0  0  0  0  0  0  0  0  0  0  0
  143.2638  151.9078  132.7277 H   0  0  0  0  0  0  0  0  0  0  0  0
  143.2354  154.4427  133.8085 H   0  0  0  0  0  0  0  0  0  0  0  0
  139.2663  157.0809  133.9750 H   0  0  0  0  0  0  0  0  0  0  0  0
  139.5281  159.5650  134.2551 H   0  0  0  0  0  0  0  0  0  0  0  0
  141.4554  161.6765  134.1626 H   0  0  0  0  0  0  0  0  0  0  0  0
  146.4700  161.9260  133.6650 H   0  0  0  0  0  0  0  0  0  0  0  0
  145.8500  160.9450  132.4700 H   0  0  0  0  0  0  0  0  0  0  0  0
  149.6703  162.6870  131.2262 H   0  0  0  0  0  0  0  0  0  0  0  0
  150.4202  162.0455  129.7253 H   0  0  0  0  0  0  0  0  0  0  0  0
  148.6940  162.5423  129.7253 H   0  0  0  0  0  0  0  0  0  0  0  0
  150.5755  159.5380  131.8400 H   0  0  0  0  0  0  0  0  0  0  0  0
  150.0862  158.7823  130.2856 H   0  0  0  0  0  0  0  0  0  0  0  0
  151.1651  160.2185  130.2856 H   0  0  0  0  0  0  0  0  0  0  0  0
  147.2538  159.6317  130.1876 H   0  0  0  0  0  0  0  0  0  0  0  0
  147.7409  160.9335  129.0497 H   0  0  0  0  0  0  0  0  0  0  0  0
  148.6181  159.3659  129.0497 H   0  0  0  0  0  0  0  0  0  0  0  0
  143.5360  156.7261  133.1628 H   0  0  0  0  0  0  0  0  0  0  0  0
  139.0936  155.0229  132.8040 H   0  0  0  0  0  0  0  0  0  0  0  0
  1  2  1  0
  2  3  1  0
  3  4  2  0
  4  5  1  0
  5  6  2  0
  6  7  1  0
  7  8  2  0
  8  9  1  0
  9 10  2  0
 10 11  1  0
 11 12  1  0
 11 13  2  0
 10 14  1  0
 14 15  1  0
 15 16  2  0
 15 17  1  0
 17 18  1  0
 18 19  2  0
 18 20  1  0
 20 21  1  0
 21 22  1  0
 21 23  1  0
 21 24  1  0
 14 25  1  0
 25 26  2  0
  4 27  1  0
 27 28  2  0
 28  2  1  0
 26  5  1  0
 25  8  1  0
  1 29  1  0
  1 30  1  0
  1 31  1  0
  3 32  1  0
  6 33  1  0
  7 34  1  0
  9 35  1  0
 12 36  1  0
 17 37  1  0
 22 38  1  0
 22 39  1  0
 22 40  1  0
 23 41  1  0
 23 42  1  0
 23 43  1  0
 24 44  1  0
 24 45  1  0
 24 46  1  0
 26 47  1  0
 27 48  1  0
M  CHG  1  12  -1
M  END
>  <UniqueID>  (13) 
13

>  <SMILES>  (13) 
Cn1cc(-c2ccc3cc(C([NH-])=O)n(C(=O)NC(=O)OC(C)(C)C)c3c2)cn1

>  <Energy>  (13) 
115.09376034460205

>  <Genealogy>  (13) 
Cn1cc(-c2ccc3cc(C([NH-])=O)n(C(=O)NC(=O)OC(C)(C)C)c3c2)cn1 (protonated)
Cn1cc(-c2ccc3cc(C([NH-])=O)n(C(=O)NC(=O)OC(C)(C)C)c3c2)cn1 (3D coordinates assigned)
Cn1cc(-c2ccc3cc(C([NH-])=O)n(C(=O)NC(=O)OC(C)(C)C)c3c2)cn1 (optimized conformer: 115.09376034460205 kcal/mol)

>  <smiles>  (13) 
Cn1cc(-c2ccc3cc(C(N)=O)n(C(=O)NC(=O)OC(C)(C)C)c3c2)cn1

>  <score_type>  (13) 
oracle

>  <origin>  (13) 
adg

>  <m_score__min__energy>  (13) 
-8.9900000000000002

>  <m_primary>  (13) 
energy

$$$$
13:0
     RDKit          3D

 41 42  0  0  0  0  0  0  0  0999 V2000
  138.3560  158.9630  131.8190 C   0  0  0  0  0  0  0  0  0  0  0  0
  139.6930  158.4430  132.2590 C   0  0  0  0  0  0  0  0  0  0  0  0
  140.7150  158.7790  131.6010 O   0  0  0  0  0  0  0  0  0  0  0  0
  139.8220  157.5690  133.4020 N   0  0  0  0  0  0  0  0  0  0  0  0
  139.1040  157.8600  134.6480 C   0  0  0  0  0  0  0  0  0  0  0  0
  140.6470  156.3890  133.3220 C   0  0  0  0  0  0  0  0  0  0  0  0
  140.1250  155.2910  132.9880 O   0  0  0  0  0  0  0  0  0  0  0  0
  142.0540  156.4500  133.6290 N   0  0  0  0  0  0  0  0  0  0  0  0
  142.9750  155.5100  132.9810 C   0  0  0  0  0  0  0  0  0  0  0  0
  142.5690  157.4320  134.5540 C   0  0  0  0  0  0  0  0  0  0  0  0
  142.3100  157.3490  135.7850 O   0  0  0  0  0  0  0  0  0  0  0  0
  143.3970  158.5080  134.0900 N   0  0  0  0  0  0  0  0  0  0  0  0
  143.0670  159.8220  133.9690 C   0  0  0  0  0  0  0  0  0  0  0  0
  141.7340  160.4070  134.2260 C   0  0  0  0  0  0  0  0  0  0  0  0
  141.0070  160.0830  135.4090 N   0  0  0  0  0  0  0  0  0  0  0  0
  141.2210  161.1890  133.3830 O   0  0  0  0  0  0  0  0  0  0  0  0
  144.1660  160.5580  133.5230 C   0  0  0  0  0  0  0  0  0  0  0  0
  145.1850  159.6410  133.3810 C   0  0  0  0  0  0  0  0  0  0  0  0
  146.5000  159.8160  132.9630 C   0  0  0  0  0  0  0  0  0  0  0  0
  147.3340  158.6850  132.9210 C   0  0  0  0  0  0  0  0  0  0  0  0
  146.8510  157.4110  133.3180 C   0  0  0  0  0  0  0  0  0  0  0  0
  147.7400  156.1970  133.2240 C   0  0  0  0  0  0  0  0  0  0  0  0
  148.9390  156.5150  132.6110 F   0  0  0  0  0  0  0  0  0  0  0  0
  147.9970  155.7220  134.4960 F   0  0  0  0  0  0  0  0  0  0  0  0
  147.1280  155.2000  132.4840 F   0  0  0  0  0  0  0  0  0  0  0  0
  145.5020  157.2730  133.7180 C   0  0  0  0  0  0  0  0  0  0  0  0
  144.6950  158.4130  133.7340 C   0  0  0  0  0  0  0  0  0  0  0  0
  137.7459  159.2003  132.7030 H   0  0  0  0  0  0  0  0  0  0  0  0
  138.4966  159.8720  131.2157 H   0  0  0  0  0  0  0  0  0  0  0  0
  137.8454  158.1979  131.2157 H   0  0  0  0  0  0  0  0  0  0  0  0
  139.7408  157.6019  135.5070 H   0  0  0  0  0  0  0  0  0  0  0  0
  138.8538  158.9305  134.6856 H   0  0  0  0  0  0  0  0  0  0  0  0
  138.1791  157.2658  134.6856 H   0  0  0  0  0  0  0  0  0  0  0  0
  143.5258  154.9478  133.7494 H   0  0  0  0  0  0  0  0  0  0  0  0
  142.4034  154.8101  132.3538 H   0  0  0  0  0  0  0  0  0  0  0  0
  143.6864  156.0672  132.3538 H   0  0  0  0  0  0  0  0  0  0  0  0
  141.1090  159.1480  135.8630 H   0  0  0  0  0  0  0  0  0  0  0  0
  144.2095  161.6395  133.3267 H   0  0  0  0  0  0  0  0  0  0  0  0
  146.8758  160.8086  132.6742 H   0  0  0  0  0  0  0  0  0  0  0  0
  148.3734  158.7888  132.5763 H   0  0  0  0  0  0  0  0  0  0  0  0
  145.0980  156.2923  134.0094 H   0  0  0  0  0  0  0  0  0  0  0  0
  1  2  1  0
  2  3  2  0
  2  4  1  0
  4  5  1  0
  4  6  1  0
  6  7  2  0
  6  8  1  0
  8  9  1  0
  8 10  1  0
 10 11  2  0
 10 12  1  0
 12 13  1  0
 13 14  1  0
 14 15  1  0
 14 16  2  0
 13 17  2  0
 17 18  1  0
 18 19  2  0
 19 20  1  0
 20 21  2  0
 21 22  1  0
 22 23  1  0
 22 24  1  0
 22 25  1  0
 21 26  1  0
 26 27  2  0
 27 12  1  0
 27 18  1  0
  1 28  1  0
  1 29  1  0
  1 30  1  0
  5 31  1  0
  5 32  1  0
  5 33  1  0
  9 34  1  0
  9 35  1  0
  9 36  1  0
 15 37  1  0
 17 38  1  0
 19 39  1  0
 20 40  1  0
 26 41  1  0
M  CHG  1  15  -1
M  END
>  <UniqueID>  (14) 
14

>  <SMILES>  (14) 
CC(=O)N(C)C(=O)N(C)C(=O)n1c(C([NH-])=O)cc2ccc(C(F)(F)F)cc21

>  <Energy>  (14) 
86.02290521482784

>  <Genealogy>  (14) 
CC(=O)N(C)C(=O)N(C)C(=O)n1c(C([NH-])=O)cc2ccc(C(F)(F)F)cc21 (protonated)
CC(=O)N(C)C(=O)N(C)C(=O)n1c(C([NH-])=O)cc2ccc(C(F)(F)F)cc21 (3D coordinates assigned)
CC(=O)N(C)C(=O)N(C)C(=O)n1c(C([NH-])=O)cc2ccc(C(F)(F)F)cc21 (optimized conformer: 86.02290521482784 kcal/mol)

>  <smiles>  (14) 
CC(=O)N(C)C(=O)N(C)C(=O)n1c(C(N)=O)cc2ccc(C(F)(F)F)cc21

>  <score_type>  (14) 
oracle

>  <origin>  (14) 
adg

>  <m_score__min__energy>  (14) 
-6.4000000000000004

>  <m_primary>  (14) 
energy

$$$$
14:0
     RDKit          3D

 36 37  0  0  0  0  0  0  0  0999 V2000
  148.0950  151.8260  137.8500 C   0  0  0  0  0  0  0  0  0  0  0  0
  146.9970  152.5910  137.2780 N   0  0  0  0  0  0  0  0  0  0  0  0
  147.1720  153.8980  136.7230 C   0  0  0  0  0  0  0  0  0  0  0  0
  148.2030  154.5710  136.9930 O   0  0  0  0  0  0  0  0  0  0  0  0
  146.1030  154.4870  135.8560 C   0  0  0  0  0  0  0  0  0  0  0  0
  146.6460  154.8740  134.5580 N   0  0  0  0  0  0  0  0  0  0  0  0
  147.3900  156.0620  134.2390 C   0  0  0  0  0  0  0  0  0  0  0  0
  148.2180  156.4860  135.0870 O   0  0  0  0  0  0  0  0  0  0  0  0
  147.2290  156.8110  132.9700 C   0  0  0  0  0  0  0  0  0  0  0  0
  147.3110  156.2270  131.8570 O   0  0  0  0  0  0  0  0  0  0  0  0
  146.9770  158.2230  132.9960 N   0  0  0  0  0  0  0  0  0  0  0  0
  147.8550  159.2290  132.7310 C   0  0  0  0  0  0  0  0  0  0  0  0
  149.2420  159.0640  132.2450 C   0  0  0  0  0  0  0  0  0  0  0  0
  149.7920  157.7690  132.0160 N   0  0  0  0  0  0  0  0  0  0  0  0
  149.9470  160.0820  132.0080 O   0  0  0  0  0  0  0  0  0  0  0  0
  147.2530  160.4690  132.9440 C   0  0  0  0  0  0  0  0  0  0  0  0
  145.9700  160.1840  133.3570 C   0  0  0  0  0  0  0  0  0  0  0  0
  144.9410  161.0390  133.7380 C   0  0  0  0  0  0  0  0  0  0  0  0
  143.7290  160.4640  134.1600 C   0  0  0  0  0  0  0  0  0  0  0  0
  143.5640  159.0550  134.1850 C   0  0  0  0  0  0  0  0  0  0  0  0
  142.2820  158.4470  134.6960 C   0  0  0  0  0  0  0  0  0  0  0  0
  141.7930  159.1680  135.7710 F   0  0  0  0  0  0  0  0  0  0  0  0
  142.5250  157.1470  135.0990 F   0  0  0  0  0  0  0  0  0  0  0  0
  141.3180  158.4400  133.7030 F   0  0  0  0  0  0  0  0  0  0  0  0
  144.6450  158.2210  133.8140 C   0  0  0  0  0  0  0  0  0  0  0  0
  145.8310  158.8220  133.3820 C   0  0  0  0  0  0  0  0  0  0  0  0
  148.0372  151.8663  138.9477 H   0  0  0  0  0  0  0  0  0  0  0  0
  148.0254  150.7798  137.5173 H   0  0  0  0  0  0  0  0  0  0  0  0
  149.0523  152.2537  137.5173 H   0  0  0  0  0  0  0  0  0  0  0  0
  145.3077  153.7418  135.7070 H   0  0  0  0  0  0  0  0  0  0  0  0
  145.6994  155.3823  136.3515 H   0  0  0  0  0  0  0  0  0  0  0  0
  149.2710  157.0550  131.4610 H   0  0  0  0  0  0  0  0  0  0  0  0
  147.7060  161.4625  132.8107 H   0  0  0  0  0  0  0  0  0  0  0  0
  145.0713  162.1309  133.7101 H   0  0  0  0  0  0  0  0  0  0  0  0
  142.8993  161.1142  134.4744 H   0  0  0  0  0  0  0  0  0  0  0  0
  144.5544  157.1259  133.8643 H   0  0  0  0  0  0  0  0  0  0  0  0
  1  2  1  0
  2  3  1  0
  3  4  2  0
  3  5  1  0
  5  6  1  0
  6  7  1  0
  7  8  2  0
  7  9  1  0
  9 10  2  0
  9 11  1  0
 11 12  1  0
 12 13  1  0
 13 14  1  0
 13 15  2  0
 12 16  2  0
 16 17  1  0
 17 18  2  0
 18 19  1  0
 19 20  2  0
 20 21  1  0
 21 22  1  0
 21 23  1  0
 21 24  1  0
 20 25  1  0
 25 26  2  0
 26 11  1  0
 26 17  1  0
  1 27  1  0
  1 28  1  0
  1 29  1  0
  5 30  1  0
  5 31  1  0
 14 32  1  0
 16 33  1  0
 18 34  1  0
 19 35  1  0
 25 36  1  0
M  CHG  3   2  -1   6  -1  14  -1
M  END
>  <UniqueID>  (15) 
15

>  <SMILES>  (15) 
C[N-]C(=O)C[N-]C(=O)C(=O)n1c(C([NH-])=O)cc2ccc(C(F)(F)F)cc21

>  <Energy>  (15) 
73.157010915344

>  <Genealogy>  (15) 
C[N-]C(=O)C[N-]C(=O)C(=O)n1c(C([NH-])=O)cc2ccc(C(F)(F)F)cc21 (protonated)
C[N-]C(=O)C[N-]C(=O)C(=O)n1c(C([NH-])=O)cc2ccc(C(F)(F)F)cc21 (3D coordinates assigned)
C[N-]C(=O)C[N-]C(=O)C(=O)n1c(C([NH-])=O)cc2ccc(C(F)(F)F)cc21 (optimized conformer: 73.157010915344 kcal/mol)

>  <smiles>  (15) 
CNC(=O)CNC(=O)C(=O)n1c(C(N)=O)cc2ccc(C(F)(F)F)cc21

>  <score_type>  (15) 
oracle

>  <origin>  (15) 
adg

>  <m_score__min__energy>  (15) 
-6.1500000000000004

>  <m_primary>  (15) 
energy

$$$$
15:0
     RDKit          3D

 47 48  0  0  0  0  0  0  0  0999 V2000
  145.0480  154.7260  135.9470 C   0  0  0  0  0  0  0  0  0  0  0  0
  144.6550  154.0080  134.6470 C   0  0  2  0  0  0  0  0  0  0  0  0
  145.8380  153.3630  133.9700 C   0  0  0  0  0  0  0  0  0  0  0  0
  146.9850  153.4070  134.4880 O   0  0  0  0  0  0  0  0  0  0  0  0
  145.6510  152.6360  132.8000 O   0  0  0  0  0  0  0  0  0  0  0  0
  143.9810  154.9460  133.7270 N   0  0  0  0  0  0  0  0  0  0  0  0
  143.6130  154.5350  132.3680 C   0  0  0  0  0  0  0  0  0  0  0  0
  143.5620  156.2470  134.1790 C   0  0  0  0  0  0  0  0  0  0  0  0
  142.9890  156.3560  135.2960 O   0  0  0  0  0  0  0  0  0  0  0  0
  143.7700  157.4590  133.3560 C   0  0  0  0  0  0  0  0  0  0  0  0
  142.8200  157.9330  132.6770 O   0  0  0  0  0  0  0  0  0  0  0  0
  145.0500  158.1070  133.3140 N   0  0  0  0  0  0  0  0  0  0  0  0
  145.3450  159.4120  133.5750 C   0  0  0  0  0  0  0  0  0  0  0  0
  144.3660  160.4860  133.8410 C   0  0  0  0  0  0  0  0  0  0  0  0
  143.0280  160.4170  133.3460 N   0  0  0  0  0  0  0  0  0  0  0  0
  144.7300  161.5050  134.4870 O   0  0  0  0  0  0  0  0  0  0  0  0
  146.7220  159.6190  133.5260 C   0  0  0  0  0  0  0  0  0  0  0  0
  147.2630  158.3930  133.2060 C   0  0  0  0  0  0  0  0  0  0  0  0
  148.5910  158.0150  133.0360 C   0  0  0  0  0  0  0  0  0  0  0  0
  148.8580  156.6690  132.7340 C   0  0  0  0  0  0  0  0  0  0  0  0
  147.8070  155.7260  132.6130 C   0  0  0  0  0  0  0  0  0  0  0  0
  148.1260  154.3550  132.3120 N   0  0  0  0  0  0  0  0  0  0  0  0
  149.4800  153.8040  132.4240 C   0  0  0  0  0  0  0  0  0  0  0  0
  149.4540  152.2760  132.5310 C   0  0  0  0  0  0  0  0  0  0  0  0
  148.0890  151.7740  132.4060 N   0  0  0  0  0  0  0  0  0  0  0  0
  146.4670  156.1520  132.7960 C   0  0  0  0  0  0  0  0  0  0  0  0
  146.2320  157.5000  133.0820 C   0  0  0  0  0  0  0  0  0  0  0  0
  144.7204  154.1275  136.8099 H   0  0  0  0  0  0  0  0  0  0  0  0
  146.1403  154.8511  135.9810 H   0  0  0  0  0  0  0  0  0  0  0  0
  144.5647  155.7135  135.9810 H   0  0  0  0  0  0  0  0  0  0  0  0
  143.9572  153.2016  134.9168 H   0  0  0  0  0  0  0  0  0  0  0  0
  142.8800  153.7164  132.4183 H   0  0  0  0  0  0  0  0  0  0  0  0
  143.1724  155.3893  131.8332 H   0  0  0  0  0  0  0  0  0  0  0  0
  144.5106  154.1911  131.8332 H   0  0  0  0  0  0  0  0  0  0  0  0
  142.7430  159.6950  132.6480 H   0  0  0  0  0  0  0  0  0  0  0  0
  142.3370  161.1560  133.6030 H   0  0  0  0  0  0  0  0  0  0  0  0
  147.2620  160.5605  133.7047 H   0  0  0  0  0  0  0  0  0  0  0  0
  149.4063  158.7468  133.1349 H   0  0  0  0  0  0  0  0  0  0  0  0
  149.8983  156.3423  132.5893 H   0  0  0  0  0  0  0  0  0  0  0  0
  147.3500  153.7290  131.9940 H   0  0  0  0  0  0  0  0  0  0  0  0
  150.0580  154.0907  131.5331 H   0  0  0  0  0  0  0  0  0  0  0  0
  149.9438  154.2073  133.3363 H   0  0  0  0  0  0  0  0  0  0  0  0
  150.0716  151.8471  131.7281 H   0  0  0  0  0  0  0  0  0  0  0  0
  149.8502  151.9832  133.5145 H   0  0  0  0  0  0  0  0  0  0  0  0
  147.5580  152.4230  131.7810 H   0  0  0  0  0  0  0  0  0  0  0  0
  147.6400  151.8360  133.3480 H   0  0  0  0  0  0  0  0  0  0  0  0
  145.6330  155.4393  132.7149 H   0  0  0  0  0  0  0  0  0  0  0  0
  1  2  1  0
  2  3  1  0
  3  4  2  0
  3  5  1  0
  2  6  1  0
  6  7  1  0
  6  8  1  0
  8  9  2  0
  8 10  1  0
 10 11  2  0
 10 12  1  0
 12 13  1  0
 13 14  1  0
 14 15  1  0
 14 16  2  0
 13 17  2  0
 17 18  1  0
 18 19  2  0
 19 20  1  0
 20 21  2  0
 21 22  1  0
 22 23  1  0
 23 24  1  0
 24 25  1  0
 21 26  1  0
 26 27  2  0
 27 12  1  0
 27 18  1  0
  1 28  1  0
  1 29  1  0
  1 30  1  0
  2 31  1  1
  7 32  1  0
  7 33  1  0
  7 34  1  0
 15 35  1  0
 15 36  1  0
 17 37  1  0
 19 38  1  0
 20 39  1  0
 22 40  1  0
 23 41  1  0
 23 42  1  0
 24 43  1  0
 24 44  1  0
 25 45  1  0
 25 46  1  0
 26 47  1  0
M  CHG  1   5  -1
M  END
>  <UniqueID>  (16) 
16

>  <SMILES>  (16) 
C[C@H](C(=O)[O-])N(C)C(=O)C(=O)n1c(C(N)=O)cc2ccc(NCCN)cc21

>  <Energy>  (16) 
84.6657961489429

>  <Genealogy>  (16) 
CC(C(=O)[O-])N(C)C(=O)C(=O)n1c(C(N)=O)cc2ccc(NCCN)cc21 (protonated)
C[C@H](C(=O)[O-])N(C)C(=O)C(=O)n1c(C(N)=O)cc2ccc(NCCN)cc21 (chirality)
C[C@H](C(=O)[O-])N(C)C(=O)C(=O)n1c(C(N)=O)cc2ccc(NCCN)cc21 (3D coordinates assigned)
C[C@H](C(=O)[O-])N(C)C(=O)C(=O)n1c(C(N)=O)cc2ccc(NCCN)cc21 (optimized conformer: 84.6657961489429 kcal/mol)

>  <smiles>  (16) 
CC(C(=O)O)N(C)C(=O)C(=O)n1c(C(N)=O)cc2ccc(NCCN)cc21

>  <score_type>  (16) 
oracle

>  <origin>  (16) 
adg

>  <m_score__min__energy>  (16) 
-7.21

>  <m_primary>  (16) 
energy

$$$$
16:0
     RDKit          3D

 45 46  0  0  0  0  0  0  0  0999 V2000
  148.2410  154.8670  132.5990 C   0  0  0  0  0  0  0  0  0  0  0  0
  147.8840  156.3070  132.8220 C   0  0  0  0  0  0  0  0  0  0  0  0
  148.8840  157.3130  132.7620 C   0  0  0  0  0  0  0  0  0  0  0  0
  148.5460  158.6680  132.9380 C   0  0  0  0  0  0  0  0  0  0  0  0
  147.2070  158.9820  133.1620 C   0  0  0  0  0  0  0  0  0  0  0  0
  146.5980  160.2090  133.3230 C   0  0  0  0  0  0  0  0  0  0  0  0
  145.2420  159.9240  133.4890 C   0  0  0  0  0  0  0  0  0  0  0  0
  144.2110  160.9470  133.7430 C   0  0  0  0  0  0  0  0  0  0  0  0
  142.8640  160.5570  133.9820 N   0  0  0  0  0  0  0  0  0  0  0  0
  144.5180  162.1710  133.7840 O   0  0  0  0  0  0  0  0  0  0  0  0
  145.0270  158.5800  133.4290 N   0  0  0  0  0  0  0  0  0  0  0  0
  143.7740  157.8870  133.5250 C   0  0  0  0  0  0  0  0  0  0  0  0
  142.9210  158.0270  132.6050 O   0  0  0  0  0  0  0  0  0  0  0  0
  143.4780  157.0620  134.6660 N   0  0  0  0  0  0  0  0  0  0  0  0
  144.2930  155.8710  134.9250 C   0  0  0  0  0  0  0  0  0  0  0  0
  142.3000  157.2990  135.4590 C   0  0  0  0  0  0  0  0  0  0  0  0
  141.4110  156.4090  135.5530 O   0  0  0  0  0  0  0  0  0  0  0  0
  142.1080  158.5450  136.0700 O   0  0  0  0  0  0  0  0  0  0  0  0
  140.9920  159.3900  135.8010 C   0  0  0  0  0  0  0  0  0  0  0  0
  139.8410  158.5950  135.2440 C   0  0  0  0  0  0  0  0  0  0  0  0
  139.1580  157.8930  136.0380 O   0  0  0  0  0  0  0  0  0  0  0  0
  139.5090  158.6200  133.8400 N   0  0  0  0  0  0  0  0  0  0  0  0
  140.3200  159.3850  132.8870 C   0  0  0  0  0  0  0  0  0  0  0  0
  138.3650  157.8330  133.3650 C   0  0  0  0  0  0  0  0  0  0  0  0
  146.2350  158.0180  133.2280 C   0  0  0  0  0  0  0  0  0  0  0  0
  146.5390  156.6660  133.0520 C   0  0  0  0  0  0  0  0  0  0  0  0
  148.3653  154.3654  133.5701 H   0  0  0  0  0  0  0  0  0  0  0  0
  147.4379  154.3738  132.0317 H   0  0  0  0  0  0  0  0  0  0  0  0
  149.1815  154.8060  132.0317 H   0  0  0  0  0  0  0  0  0  0  0  0
  149.9310  157.0314  132.5765 H   0  0  0  0  0  0  0  0  0  0  0  0
  149.3145  159.4541  132.8999 H   0  0  0  0  0  0  0  0  0  0  0  0
  147.0777  161.1989  133.3210 H   0  0  0  0  0  0  0  0  0  0  0  0
  142.6220  159.5590  134.1730 H   0  0  0  0  0  0  0  0  0  0  0  0
  144.3934  155.7244  136.0106 H   0  0  0  0  0  0  0  0  0  0  0  0
  143.8073  154.9903  134.4794 H   0  0  0  0  0  0  0  0  0  0  0  0
  145.2898  156.0048  134.4794 H   0  0  0  0  0  0  0  0  0  0  0  0
  140.6752  159.8772  136.7350 H   0  0  0  0  0  0  0  0  0  0  0  0
  141.2917  160.1439  135.0582 H   0  0  0  0  0  0  0  0  0  0  0  0
  141.0130  160.0386  133.4371 H   0  0  0  0  0  0  0  0  0  0  0  0
  140.8939  158.6917  132.2546 H   0  0  0  0  0  0  0  0  0  0  0  0
  139.6614  159.9984  132.2546 H   0  0  0  0  0  0  0  0  0  0  0  0
  137.8026  157.4461  134.2276 H   0  0  0  0  0  0  0  0  0  0  0  0
  137.7084  158.4714  132.7557 H   0  0  0  0  0  0  0  0  0  0  0  0
  138.7265  156.9915  132.7557 H   0  0  0  0  0  0  0  0  0  0  0  0
  145.7499  155.9007  133.0917 H   0  0  0  0  0  0  0  0  0  0  0  0
  1  2  1  0
  2  3  2  0
  3  4  1  0
  4  5  2  0
  5  6  1  0
  6  7  2  0
  7  8  1  0
  8  9  1  0
  8 10  2  0
  7 11  1  0
 11 12  1  0
 12 13  2  0
 12 14  1  0
 14 15  1  0
 14 16  1  0
 16 17  2  0
 16 18  1  0
 18 19  1  0
 19 20  1  0
 20 21  2  0
 20 22  1  0
 22 23  1  0
 22 24  1  0
 11 25  1  0
 25 26  2  0
 26  2  1  0
 25  5  1  0
  1 27  1  0
  1 28  1  0
  1 29  1  0
  3 30  1  0
  4 31  1  0
  6 32  1  0
  9 33  1  0
 15 34  1  0
 15 35  1  0
 15 36  1  0
 19 37  1  0
 19 38  1  0
 23 39  1  0
 23 40  1  0
 23 41  1  0
 24 42  1  0
 24 43  1  0
 24 44  1  0
 26 45  1  0
M  CHG  1   9  -1
M  END
>  <UniqueID>  (17) 
17

>  <SMILES>  (17) 
Cc1ccc2cc(C([NH-])=O)n(C(=O)N(C)C(=O)OCC(=O)N(C)C)c2c1

>  <Energy>  (17) 
80.15513723827036

>  <Genealogy>  (17) 
Cc1ccc2cc(C([NH-])=O)n(C(=O)N(C)C(=O)OCC(=O)N(C)C)c2c1 (protonated)
Cc1ccc2cc(C([NH-])=O)n(C(=O)N(C)C(=O)OCC(=O)N(C)C)c2c1 (3D coordinates assigned)
Cc1ccc2cc(C([NH-])=O)n(C(=O)N(C)C(=O)OCC(=O)N(C)C)c2c1 (optimized conformer: 80.15513723827036 kcal/mol)

>  <smiles>  (17) 
Cc1ccc2cc(C(N)=O)n(C(=O)N(C)C(=O)OCC(=O)N(C)C)c2c1

>  <score_type>  (17) 
oracle

>  <origin>  (17) 
adg

>  <m_score__min__energy>  (17) 
-6.7999999999999998

>  <m_primary>  (17) 
energy

$$$$
17:0
     RDKit          3D

 32 33  0  0  0  0  0  0  0  0999 V2000
  143.7810  155.2590  135.5990 C   0  0  0  0  0  0  0  0  0  0  0  0
  144.9690  154.4550  135.3000 N   0  0  0  0  0  0  0  0  0  0  0  0
  145.6280  153.7410  136.3630 C   0  0  0  0  0  0  0  0  0  0  0  0
  145.0020  153.4430  137.4150 O   0  0  0  0  0  0  0  0  0  0  0  0
  146.9690  153.3890  136.2570 O   0  0  0  0  0  0  0  0  0  0  0  0
  145.4970  154.4260  133.9600 C   0  0  0  0  0  0  0  0  0  0  0  0
  145.1120  153.5390  133.1490 O   0  0  0  0  0  0  0  0  0  0  0  0
  146.4430  155.4150  133.5210 N   0  0  0  0  0  0  0  0  0  0  0  0
  147.7560  155.2280  133.2130 C   0  0  0  0  0  0  0  0  0  0  0  0
  148.4440  153.9240  133.1250 C   0  0  0  0  0  0  0  0  0  0  0  0
  147.9000  152.7530  133.7350 N   0  0  0  0  0  0  0  0  0  0  0  0
  149.5100  153.8320  132.4590 O   0  0  0  0  0  0  0  0  0  0  0  0
  148.3800  156.4490  132.9690 C   0  0  0  0  0  0  0  0  0  0  0  0
  147.3980  157.3990  133.1350 C   0  0  0  0  0  0  0  0  0  0  0  0
  147.4690  158.7860  133.0520 C   0  0  0  0  0  0  0  0  0  0  0  0
  146.3060  159.5240  133.3290 C   0  0  0  0  0  0  0  0  0  0  0  0
  145.0960  158.8680  133.6800 C   0  0  0  0  0  0  0  0  0  0  0  0
  143.8730  159.6730  134.0380 C   0  0  0  0  0  0  0  0  0  0  0  0
  143.2260  159.1170  135.1290 F   0  0  0  0  0  0  0  0  0  0  0  0
  144.2540  160.9640  134.3510 F   0  0  0  0  0  0  0  0  0  0  0  0
  142.9830  159.7080  132.9780 F   0  0  0  0  0  0  0  0  0  0  0  0
  145.0740  157.4590  133.7830 C   0  0  0  0  0  0  0  0  0  0  0  0
  146.2400  156.7490  133.4730 C   0  0  0  0  0  0  0  0  0  0  0  0
  143.6590  155.3416  136.6891 H   0  0  0  0  0  0  0  0  0  0  0  0
  143.8995  156.2633  135.1662 H   0  0  0  0  0  0  0  0  0  0  0  0
  142.8927  154.7757  135.1662 H   0  0  0  0  0  0  0  0  0  0  0  0
  146.9330  152.7460  134.1280 H   0  0  0  0  0  0  0  0  0  0  0  0
  148.4300  151.8540  133.7070 H   0  0  0  0  0  0  0  0  0  0  0  0
  149.4333  156.6181  132.7008 H   0  0  0  0  0  0  0  0  0  0  0  0
  148.4076  159.2897  132.7777 H   0  0  0  0  0  0  0  0  0  0  0  0
  146.3328  160.6223  133.2734 H   0  0  0  0  0  0  0  0  0  0  0  0
  144.1617  156.9321  134.0995 H   0  0  0  0  0  0  0  0  0  0  0  0
  1  2  1  0
  2  3  1  0
  3  4  2  0
  3  5  1  0
  2  6  1  0
  6  7  2  0
  6  8  1  0
  8  9  1  0
  9 10  1  0
 10 11  1  0
 10 12  2  0
  9 13  2  0
 13 14  1  0
 14 15  2  0
 15 16  1  0
 16 17  2  0
 17 18  1  0
 18 19  1  0
 18 20  1  0
 18 21  1  0
 17 22  1  0
 22 23  2  0
 23  8  1  0
 23 14  1  0
  1 24  1  0
  1 25  1  0
  1 26  1  0
 11 27  1  0
 11 28  1  0
 13 29  1  0
 15 30  1  0
 16 31  1  0
 22 32  1  0
M  CHG  1   5  -1
M  END
>  <UniqueID>  (18) 
18

>  <SMILES>  (18) 
CN(C(=O)[O-])C(=O)n1c(C(N)=O)cc2ccc(C(F)(F)F)cc21

>  <Energy>  (18) 
74.29111478847203

>  <Genealogy>  (18) 
CN(C(=O)[O-])C(=O)n1c(C(N)=O)cc2ccc(C(F)(F)F)cc21 (protonated)
CN(C(=O)[O-])C(=O)n1c(C(N)=O)cc2ccc(C(F)(F)F)cc21 (3D coordinates assigned)
CN(C(=O)[O-])C(=O)n1c(C(N)=O)cc2ccc(C(F)(F)F)cc21 (optimized conformer: 74.29111478847203 kcal/mol)

>  <smiles>  (18) 
CN(C(=O)O)C(=O)n1c(C(N)=O)cc2ccc(C(F)(F)F)cc21

>  <score_type>  (18) 
oracle

>  <origin>  (18) 
adg

>  <m_score__min__energy>  (18) 
-5.7699999999999996

>  <m_primary>  (18) 
energy

$$$$
18:0
     RDKit          3D

 38 39  0  0  0  0  0  0  0  0999 V2000
  139.6090  147.9400  130.9450 C   0  0  0  0  0  0  0  0  0  0  0  0
  140.3420  148.8010  131.8790 N   0  0  0  0  0  0  0  0  0  0  0  0
  141.5030  148.2740  132.6050 C   0  0  0  0  0  0  0  0  0  0  0  0
  139.8820  150.1550  132.0880 C   0  0  0  0  0  0  0  0  0  0  0  0
  138.7960  150.5310  131.5690 O   0  0  0  0  0  0  0  0  0  0  0  0
  140.6640  151.1480  132.9070 C   0  0  0  0  0  0  0  0  0  0  0  0
  140.1770  152.5100  132.6790 N   0  0  0  0  0  0  0  0  0  0  0  0
  140.8720  153.7020  133.0890 C   0  0  0  0  0  0  0  0  0  0  0  0
  142.2030  153.6560  133.5870 C   0  0  0  0  0  0  0  0  0  0  0  0
  142.8580  154.8310  133.9950 C   0  0  0  0  0  0  0  0  0  0  0  0
  142.1690  156.0350  133.8840 C   0  0  0  0  0  0  0  0  0  0  0  0
  142.5510  157.3110  134.2340 C   0  0  0  0  0  0  0  0  0  0  0  0
  141.4610  158.1200  133.9190 C   0  0  0  0  0  0  0  0  0  0  0  0
  141.4480  159.5890  134.0940 C   0  0  0  0  0  0  0  0  0  0  0  0
  141.7440  160.4380  132.9870 N   0  0  0  0  0  0  0  0  0  0  0  0
  141.1640  160.1030  135.2070 O   0  0  0  0  0  0  0  0  0  0  0  0
  140.4500  157.3740  133.3910 N   0  0  0  0  0  0  0  0  0  0  0  0
  139.1420  157.8250  133.0020 C   0  0  0  0  0  0  0  0  0  0  0  0
  138.1390  157.4990  133.6920 O   0  0  0  0  0  0  0  0  0  0  0  0
  138.9570  158.6760  131.8180 C   0  0  0  0  0  0  0  0  0  0  0  0
  139.9540  159.0960  131.1740 O   0  0  0  0  0  0  0  0  0  0  0  0
  137.6780  159.0370  131.4140 O   0  0  0  0  0  0  0  0  0  0  0  0
  140.8970  156.1000  133.3830 C   0  0  0  0  0  0  0  0  0  0  0  0
  140.2140  154.9470  132.9850 C   0  0  0  0  0  0  0  0  0  0  0  0
  138.9976  147.2219  131.5111 H   0  0  0  0  0  0  0  0  0  0  0  0
  138.9559  148.5584  130.3117 H   0  0  0  0  0  0  0  0  0  0  0  0
  140.3237  147.3940  130.3117 H   0  0  0  0  0  0  0  0  0  0  0  0
  141.3259  148.3544  133.6877 H   0  0  0  0  0  0  0  0  0  0  0  0
  141.6556  147.2184  132.3358 H   0  0  0  0  0  0  0  0  0  0  0  0
  142.3980  148.8541  132.3358 H   0  0  0  0  0  0  0  0  0  0  0  0
  140.5559  150.9003  133.9733 H   0  0  0  0  0  0  0  0  0  0  0  0
  141.7210  151.0972  132.6068 H   0  0  0  0  0  0  0  0  0  0  0  0
  139.2460  152.6130  132.2150 H   0  0  0  0  0  0  0  0  0  0  0  0
  142.7258  152.6905  133.6537 H   0  0  0  0  0  0  0  0  0  0  0  0
  143.8841  154.7997  134.3900 H   0  0  0  0  0  0  0  0  0  0  0  0
  143.5113  157.6246  134.6692 H   0  0  0  0  0  0  0  0  0  0  0  0
  141.7090  160.0750  132.0090 H   0  0  0  0  0  0  0  0  0  0  0  0
  139.1858  155.0083  132.5990 H   0  0  0  0  0  0  0  0  0  0  0  0
  1  2  1  0
  2  3  1  0
  2  4  1  0
  4  5  2  0
  4  6  1  0
  6  7  1  0
  7  8  1  0
  8  9  2  0
  9 10  1  0
 10 11  2  0
 11 12  1  0
 12 13  2  0
 13 14  1  0
 14 15  1  0
 14 16  2  0
 13 17  1  0
 17 18  1  0
 18 19  2  0
 18 20  1  0
 20 21  2  0
 20 22  1  0
 17 23  1  0
 23 24  2  0
 24  8  1  0
 23 11  1  0
  1 25  1  0
  1 26  1  0
  1 27  1  0
  3 28  1  0
  3 29  1  0
  3 30  1  0
  6 31  1  0
  6 32  1  0
  7 33  1  0
  9 34  1  0
 10 35  1  0
 12 36  1  0
 15 37  1  0
 24 38  1  0
M  CHG  2  15  -1  22  -1
M  END
>  <UniqueID>  (19) 
19

>  <SMILES>  (19) 
CN(C)C(=O)CNc1ccc2cc(C([NH-])=O)n(C(=O)C(=O)[O-])c2c1

>  <Energy>  (19) 
73.85812781177123

>  <Genealogy>  (19) 
CN(C)C(=O)CNc1ccc2cc(C([NH-])=O)n(C(=O)C(=O)[O-])c2c1 (protonated)
CN(C)C(=O)CNc1ccc2cc(C([NH-])=O)n(C(=O)C(=O)[O-])c2c1 (3D coordinates assigned)
CN(C)C(=O)CNc1ccc2cc(C([NH-])=O)n(C(=O)C(=O)[O-])c2c1 (optimized conformer: 73.85812781177123 kcal/mol)

>  <smiles>  (19) 
CN(C)C(=O)CNc1ccc2cc(C(N)=O)n(C(=O)C(=O)O)c2c1

>  <score_type>  (19) 
oracle

>  <origin>  (19) 
adg

>  <m_score__min__energy>  (19) 
-6.71

>  <m_primary>  (19) 
energy

$$$$
19:0
     RDKit          3D

 45 46  0  0  0  0  0  0  0  0999 V2000
  139.0930  160.2590  129.9840 C   0  0  0  0  0  0  0  0  0  0  0  0
  139.0920  159.6330  131.3470 C   0  0  0  0  0  0  0  0  0  0  0  0
  137.9790  158.8700  131.7760 C   0  0  0  0  0  0  0  0  0  0  0  0
  137.9860  158.2360  133.0310 C   0  0  0  0  0  0  0  0  0  0  0  0
  139.1200  158.3780  133.8260 C   0  0  0  0  0  0  0  0  0  0  0  0
  139.4070  157.8470  135.0630 C   0  0  0  0  0  0  0  0  0  0  0  0
  140.6880  158.2980  135.3710 C   0  0  0  0  0  0  0  0  0  0  0  0
  141.3630  158.0270  136.6570 C   0  0  0  0  0  0  0  0  0  0  0  0
  141.8720  156.7230  136.9300 N   0  0  0  0  0  0  0  0  0  0  0  0
  141.4710  158.9250  137.5310 O   0  0  0  0  0  0  0  0  0  0  0  0
  141.1770  159.0730  134.3610 N   0  0  0  0  0  0  0  0  0  0  0  0
  142.4810  159.6630  134.2540 C   0  0  0  0  0  0  0  0  0  0  0  0
  142.5950  160.9050  134.0700 O   0  0  0  0  0  0  0  0  0  0  0  0
  143.6450  158.8360  134.3090 N   0  0  0  0  0  0  0  0  0  0  0  0
  143.7690  157.3420  133.4410 S   0  0  0  0  0  0  0  0  0  0  0  0
  145.1920  157.1880  132.9870 O   0  0  0  0  0  0  0  0  0  0  0  0
  142.8750  157.4300  132.2340 O   0  0  0  0  0  0  0  0  0  0  0  0
  143.2880  156.0110  134.4880 N   0  0  2  0  0  0  0  0  0  0  0  0
  144.4880  155.5190  135.1940 C   0  0  0  0  0  0  0  0  0  0  0  0
  142.4880  154.9140  133.8340 C   0  0  0  0  0  0  0  0  0  0  0  0
  141.1020  155.4210  133.3700 C   0  0  0  0  0  0  0  0  0  0  0  0
  143.2020  154.2950  132.5980 C   0  0  0  0  0  0  0  0  0  0  0  0
  142.2130  153.8210  134.8640 C   0  0  0  0  0  0  0  0  0  0  0  0
  142.2500  154.0600  136.1020 O   0  0  0  0  0  0  0  0  0  0  0  0
  141.8780  152.5390  134.4400 O   0  0  0  0  0  0  0  0  0  0  0  0
  140.2050  159.1130  133.4240 C   0  0  0  0  0  0  0  0  0  0  0  0
  140.2320  159.7420  132.1740 C   0  0  0  0  0  0  0  0  0  0  0  0
  139.0948  161.3545  130.0836 H   0  0  0  0  0  0  0  0  0  0  0  0
  139.9906  159.9394  129.4344 H   0  0  0  0  0  0  0  0  0  0  0  0
  138.1943  159.9423  129.4344 H   0  0  0  0  0  0  0  0  0  0  0  0
  137.1005  158.7723  131.1212 H   0  0  0  0  0  0  0  0  0  0  0  0
  137.1229  157.6465  133.3738 H   0  0  0  0  0  0  0  0  0  0  0  0
  138.7613  157.2029  135.6780 H   0  0  0  0  0  0  0  0  0  0  0  0
  141.9570  156.0100  136.1700 H   0  0  0  0  0  0  0  0  0  0  0  0
  142.6790  156.4530  135.2180 H   0  0  0  0  0  0  0  0  0  0  0  0
  144.3272  155.5849  136.2802 H   0  0  0  0  0  0  0  0  0  0  0  0
  144.6747  154.4718  134.9139 H   0  0  0  0  0  0  0  0  0  0  0  0
  145.3561  156.1338  134.9139 H   0  0  0  0  0  0  0  0  0  0  0  0
  140.4814  155.6480  134.2494 H   0  0  0  0  0  0  0  0  0  0  0  0
  141.2281  156.3312  132.7653 H   0  0  0  0  0  0  0  0  0  0  0  0
  140.6110  154.6443  132.7653 H   0  0  0  0  0  0  0  0  0  0  0  0
  143.9928  153.6094  132.9366 H   0  0  0  0  0  0  0  0  0  0  0  0
  142.4707  153.7403  131.9918 H   0  0  0  0  0  0  0  0  0  0  0  0
  143.6473  155.0976  131.9918 H   0  0  0  0  0  0  0  0  0  0  0  0
  141.1170  160.3060  131.8445 H   0  0  0  0  0  0  0  0  0  0  0  0
  1  2  1  0
  2  3  2  0
  3  4  1  0
  4  5  2  0
  5  6  1  0
  6  7  2  0
  7  8  1  0
  8  9  1  0
  8 10  2  0
  7 11  1  0
 11 12  1  0
 12 13  2  0
 12 14  1  0
 14 15  1  0
 15 16  2  0
 15 17  2  0
 15 18  1  0
 18 19  1  0
 18 20  1  0
 20 21  1  0
 20 22  1  0
 20 23  1  0
 23 24  2  0
 23 25  1  0
 11 26  1  0
 26 27  2  0
 27  2  1  0
 26  5  1  0
  1 28  1  0
  1 29  1  0
  1 30  1  0
  3 31  1  0
  4 32  1  0
  6 33  1  0
  9 34  1  0
 18 35  1  1
 19 36  1  0
 19 37  1  0
 19 38  1  0
 21 39  1  0
 21 40  1  0
 21 41  1  0
 22 42  1  0
 22 43  1  0
 22 44  1  0
 27 45  1  0
M  CHG  4   9  -1  14  -1  18   1  25  -1
M  END
>  <UniqueID>  (20) 
20

>  <SMILES>  (20) 
Cc1ccc2cc(C([NH-])=O)n(C(=O)[N-]S(=O)(=O)[N@H+](C)C(C)(C)C(=O)[O-])c2c1

>  <Energy>  (20) 
92.88726667352292

>  <Genealogy>  (20) 
Cc1ccc2cc(C([NH-])=O)n(C(=O)[N-]S(=O)(=O)[NH+](C)C(C)(C)C(=O)[O-])c2c1 (protonated)
Cc1ccc2cc(C([NH-])=O)n(C(=O)[N-]S(=O)(=O)[N@H+](C)C(C)(C)C(=O)[O-])c2c1 (chirality)
Cc1ccc2cc(C([NH-])=O)n(C(=O)[N-]S(=O)(=O)[N@H+](C)C(C)(C)C(=O)[O-])c2c1 (3D coordinates assigned)
Cc1ccc2cc(C([NH-])=O)n(C(=O)[N-]S(=O)(=O)[N@H+](C)C(C)(C)C(=O)[O-])c2c1 (optimized conformer: 92.88726667352292 kcal/mol)

>  <smiles>  (20) 
Cc1ccc2cc(C(N)=O)n(C(=O)NS(=O)(=O)N(C)C(C)(C)C(=O)O)c2c1

>  <score_type>  (20) 
oracle

>  <origin>  (20) 
adg

>  <m_score__min__energy>  (20) 
-7.2699999999999996

>  <m_primary>  (20) 
energy

$$$$
20:0
     RDKit          3D

 32 34  0  0  0  0  0  0  0  0999 V2000
  145.9880  162.5790  134.4890 N   0  0  0  0  0  0  0  0  0  0  0  0
  145.1370  161.8340  134.2490 C   0  0  0  0  0  0  0  0  0  0  0  0
  144.0770  160.9090  133.9490 C   0  0  0  0  0  0  0  0  0  0  0  0
  142.8070  161.2360  133.9420 O   0  0  0  0  0  0  0  0  0  0  0  0
  142.0640  160.2240  133.5970 N   0  0  0  0  0  0  0  0  0  0  0  0
  142.8870  159.1840  133.3640 C   0  0  0  0  0  0  0  0  0  0  0  0
  144.1930  159.5770  133.5870 C   0  0  0  0  0  0  0  0  0  0  0  0
  145.4110  158.7460  133.4400 C   0  0  0  0  0  0  0  0  0  0  0  0
  146.6770  159.3720  133.2930 C   0  0  0  0  0  0  0  0  0  0  0  0
  147.8440  158.6060  133.1350 C   0  0  0  0  0  0  0  0  0  0  0  0
  147.7190  157.2210  133.1280 C   0  0  0  0  0  0  0  0  0  0  0  0
  148.6780  156.2470  132.9640 C   0  0  0  0  0  0  0  0  0  0  0  0
  147.9900  155.0370  133.0240 C   0  0  0  0  0  0  0  0  0  0  0  0
  148.6480  153.7120  132.9840 C   0  0  0  0  0  0  0  0  0  0  0  0
  148.1050  152.6060  133.7080 N   0  0  0  0  0  0  0  0  0  0  0  0
  149.6800  153.5400  132.2830 O   0  0  0  0  0  0  0  0  0  0  0  0
  146.6580  155.2540  133.2150 N   0  0  0  0  0  0  0  0  0  0  0  0
  145.6120  154.2710  133.2640 C   0  0  0  0  0  0  0  0  0  0  0  0
  144.8150  154.1550  132.2920 O   0  0  0  0  0  0  0  0  0  0  0  0
  145.4960  153.4390  134.3870 O   0  0  0  0  0  0  0  0  0  0  0  0
  145.7330  153.8350  135.7090 C   0  0  0  0  0  0  0  0  0  0  0  0
  144.9260  154.5800  136.3270 O   0  0  0  0  0  0  0  0  0  0  0  0
  146.8830  153.3960  136.3520 O   0  0  0  0  0  0  0  0  0  0  0  0
  146.5090  156.5960  133.2770 C   0  0  0  0  0  0  0  0  0  0  0  0
  145.3270  157.3350  133.4150 C   0  0  0  0  0  0  0  0  0  0  0  0
  142.5697  158.1798  133.0462 H   0  0  0  0  0  0  0  0  0  0  0  0
  146.7448  160.4699  133.3030 H   0  0  0  0  0  0  0  0  0  0  0  0
  148.8266  159.0870  133.0203 H   0  0  0  0  0  0  0  0  0  0  0  0
  149.7583  156.3931  132.8168 H   0  0  0  0  0  0  0  0  0  0  0  0
  147.2850  152.7230  134.3420 H   0  0  0  0  0  0  0  0  0  0  0  0
  148.5560  151.6660  133.6430 H   0  0  0  0  0  0  0  0  0  0  0  0
  144.3545  156.8284  133.5020 H   0  0  0  0  0  0  0  0  0  0  0  0
  1  2  3  0
  2  3  1  0
  3  4  1  0
  4  5  1  0
  5  6  2  0
  6  7  1  0
  7  8  1  0
  8  9  2  0
  9 10  1  0
 10 11  2  0
 11 12  1  0
 12 13  2  0
 13 14  1  0
 14 15  1  0
 14 16  2  0
 13 17  1  0
 17 18  1  0
 18 19  2  0
 18 20  1  0
 20 21  1  0
 21 22  2  0
 21 23  1  0
 17 24  1  0
 24 25  2  0
  7  3  2  0
 25  8  1  0
 24 11  1  0
  6 26  1  0
  9 27  1  0
 10 28  1  0
 12 29  1  0
 15 30  1  0
 15 31  1  0
 25 32  1  0
M  CHG  1  23  -1
M  END
>  <UniqueID>  (21) 
21

>  <SMILES>  (21) 
N#Cc1oncc1-c1ccc2cc(C(N)=O)n(C(=O)OC(=O)[O-])c2c1

>  <Energy>  (21) 
108.72205575031671

>  <Genealogy>  (21) 
N#Cc1oncc1-c1ccc2cc(C(N)=O)n(C(=O)OC(=O)[O-])c2c1 (protonated)
N#Cc1oncc1-c1ccc2cc(C(N)=O)n(C(=O)OC(=O)[O-])c2c1 (3D coordinates assigned)
N#Cc1oncc1-c1ccc2cc(C(N)=O)n(C(=O)OC(=O)[O-])c2c1 (optimized conformer: 108.72205575031671 kcal/mol)

>  <smiles>  (21) 
N#Cc1oncc1-c1ccc2cc(C(N)=O)n(C(=O)OC(=O)O)c2c1

>  <score_type>  (21) 
oracle

>  <origin>  (21) 
adg

>  <m_score__min__energy>  (21) 
-7.8300000000000001

>  <m_primary>  (21) 
energy

$$$$
21:0
     RDKit          3D

 40 41  0  0  0  0  0  0  0  0999 V2000
  138.4240  160.0620  131.1050 C   0  0  0  0  0  0  0  0  0  0  0  0
  139.3930  159.0440  131.6940 C   0  0  0  0  0  0  0  0  0  0  0  0
  138.7090  158.1300  132.5480 O   0  0  0  0  0  0  0  0  0  0  0  0
  139.2160  157.6980  133.7790 C   0  0  0  0  0  0  0  0  0  0  0  0
  138.7210  158.1160  134.8620 O   0  0  0  0  0  0  0  0  0  0  0  0
  140.3910  156.7700  133.8030 C   0  0  1  0  0  0  0  0  0  0  0  0
  140.0800  155.5170  132.9830 C   0  0  0  0  0  0  0  0  0  0  0  0
  141.5320  157.4450  133.2750 O   0  0  0  0  0  0  0  0  0  0  0  0
  142.7720  157.5000  133.9240 C   0  0  0  0  0  0  0  0  0  0  0  0
  143.1320  156.5660  134.6900 O   0  0  0  0  0  0  0  0  0  0  0  0
  143.6190  158.6450  133.7430 N   0  0  0  0  0  0  0  0  0  0  0  0
  143.2810  159.9590  133.8740 C   0  0  0  0  0  0  0  0  0  0  0  0
  141.9130  160.4900  134.0530 C   0  0  0  0  0  0  0  0  0  0  0  0
  140.9850  159.8420  134.9180 N   0  0  0  0  0  0  0  0  0  0  0  0
  141.5440  161.4980  133.3940 O   0  0  0  0  0  0  0  0  0  0  0  0
  144.4040  160.7710  133.7330 C   0  0  0  0  0  0  0  0  0  0  0  0
  145.4500  159.9090  133.5020 C   0  0  0  0  0  0  0  0  0  0  0  0
  146.7990  160.1760  133.2910 C   0  0  0  0  0  0  0  0  0  0  0  0
  147.6650  159.0870  133.1030 C   0  0  0  0  0  0  0  0  0  0  0  0
  147.1780  157.7550  133.1550 C   0  0  0  0  0  0  0  0  0  0  0  0
  148.1120  156.5950  132.9160 C   0  0  0  0  0  0  0  0  0  0  0  0
  147.4800  155.6610  132.1170 F   0  0  0  0  0  0  0  0  0  0  0  0
  149.2680  157.0210  132.2850 F   0  0  0  0  0  0  0  0  0  0  0  0
  148.4660  155.9980  134.1140 F   0  0  0  0  0  0  0  0  0  0  0  0
  145.7960  157.5260  133.3490 C   0  0  0  0  0  0  0  0  0  0  0  0
  144.9520  158.6320  133.5150 C   0  0  0  0  0  0  0  0  0  0  0  0
  137.9145  160.5973  131.9198 H   0  0  0  0  0  0  0  0  0  0  0  0
  138.9796  160.7810  130.4850 H   0  0  0  0  0  0  0  0  0  0  0  0
  137.6785  159.5425  130.4850 H   0  0  0  0  0  0  0  0  0  0  0  0
  139.8703  158.4849  130.8757 H   0  0  0  0  0  0  0  0  0  0  0  0
  140.1510  159.5792  132.2848 H   0  0  0  0  0  0  0  0  0  0  0  0
  140.6025  156.4631  134.8379 H   0  0  0  0  0  0  0  0  0  0  0  0
  139.8715  154.6769  133.6619 H   0  0  0  0  0  0  0  0  0  0  0  0
  139.2007  155.7028  132.3487 H   0  0  0  0  0  0  0  0  0  0  0  0
  140.9441  155.2701  132.3487 H   0  0  0  0  0  0  0  0  0  0  0  0
  140.7710  158.8260  134.8130 H   0  0  0  0  0  0  0  0  0  0  0  0
  144.4452  161.8686  133.7936 H   0  0  0  0  0  0  0  0  0  0  0  0
  147.1758  161.2093  133.2720 H   0  0  0  0  0  0  0  0  0  0  0  0
  148.7332  159.2683  132.9132 H   0  0  0  0  0  0  0  0  0  0  0  0
  145.3928  156.5028  133.3691 H   0  0  0  0  0  0  0  0  0  0  0  0
  1  2  1  0
  2  3  1  0
  3  4  1  0
  4  5  2  0
  4  6  1  0
  6  7  1  0
  6  8  1  0
  8  9  1  0
  9 10  2  0
  9 11  1  0
 11 12  1  0
 12 13  1  0
 13 14  1  0
 13 15  2  0
 12 16  2  0
 16 17  1  0
 17 18  2  0
 18 19  1  0
 19 20  2  0
 20 21  1  0
 21 22  1  0
 21 23  1  0
 21 24  1  0
 20 25  1  0
 25 26  2  0
 26 11  1  0
 26 17  1  0
  1 27  1  0
  1 28  1  0
  1 29  1  0
  2 30  1  0
  2 31  1  0
  6 32  1  1
  7 33  1  0
  7 34  1  0
  7 35  1  0
 14 36  1  0
 16 37  1  0
 18 38  1  0
 19 39  1  0
 25 40  1  0
M  CHG  1  14  -1
M  END
>  <UniqueID>  (22) 
22

>  <SMILES>  (22) 
CCOC(=O)[C@@H](C)OC(=O)n1c(C([NH-])=O)cc2ccc(C(F)(F)F)cc21

>  <Energy>  (22) 
71.139075300624

>  <Genealogy>  (22) 
CCOC(=O)C(C)OC(=O)n1c(C([NH-])=O)cc2ccc(C(F)(F)F)cc21 (protonated)
CCOC(=O)[C@@H](C)OC(=O)n1c(C([NH-])=O)cc2ccc(C(F)(F)F)cc21 (chirality)
CCOC(=O)[C@@H](C)OC(=O)n1c(C([NH-])=O)cc2ccc(C(F)(F)F)cc21 (3D coordinates assigned)
CCOC(=O)[C@@H](C)OC(=O)n1c(C([NH-])=O)cc2ccc(C(F)(F)F)cc21 (optimized conformer: 71.139075300624 kcal/mol)

>  <smiles>  (22) 
CCOC(=O)C(C)OC(=O)n1c(C(N)=O)cc2ccc(C(F)(F)F)cc21

>  <score_type>  (22) 
oracle

>  <origin>  (22) 
adg

>  <m_score__min__energy>  (22) 
-5.9699999999999998

>  <m_primary>  (22) 
energy

$$$$
22:0
     RDKit          3D

 42 43  0  0  0  0  0  0  0  0999 V2000
  148.8550  156.5120  132.6890 C   0  0  0  0  0  0  0  0  0  0  0  0
  147.9680  157.6900  132.9630 C   0  0  0  0  0  0  0  0  0  0  0  0
  148.5130  158.9980  132.9950 C   0  0  0  0  0  0  0  0  0  0  0  0
  147.6870  160.1110  133.2290 C   0  0  0  0  0  0  0  0  0  0  0  0
  146.3240  159.8860  133.4050 C   0  0  0  0  0  0  0  0  0  0  0  0
  145.3070  160.7730  133.6780 C   0  0  0  0  0  0  0  0  0  0  0  0
  144.1520  159.9950  133.7670 C   0  0  0  0  0  0  0  0  0  0  0  0
  142.8040  160.5610  133.9830 C   0  0  0  0  0  0  0  0  0  0  0  0
  141.8650  159.9140  134.8380 N   0  0  0  0  0  0  0  0  0  0  0  0
  142.4620  161.6080  133.3730 O   0  0  0  0  0  0  0  0  0  0  0  0
  144.4470  158.6800  133.5600 N   0  0  0  0  0  0  0  0  0  0  0  0
  143.5670  157.5520  133.6500 C   0  0  0  0  0  0  0  0  0  0  0  0
  143.3270  156.8590  132.6230 O   0  0  0  0  0  0  0  0  0  0  0  0
  142.9590  157.2430  134.8720 O   0  0  0  0  0  0  0  0  0  0  0  0
  142.9170  155.9200  135.3990 C   0  0  0  0  0  0  0  0  0  0  0  0
  142.4030  155.9450  136.7280 O   0  0  0  0  0  0  0  0  0  0  0  0
  141.1930  156.5650  137.0580 C   0  0  0  0  0  0  0  0  0  0  0  0
  140.3700  155.9850  137.8210 O   0  0  0  0  0  0  0  0  0  0  0  0
  140.8840  157.8600  136.4950 N   0  0  2  0  0  0  0  0  0  0  0  0
  141.1720  158.9450  137.4500 C   0  0  0  0  0  0  0  0  0  0  0  0
  139.5000  157.9090  135.9700 C   0  0  0  0  0  0  0  0  0  0  0  0
  139.4080  157.6750  134.4860 C   0  0  0  0  0  0  0  0  0  0  0  0
  138.3090  157.8170  133.8880 O   0  0  0  0  0  0  0  0  0  0  0  0
  140.5390  157.3130  133.7660 O   0  0  0  0  0  0  0  0  0  0  0  0
  145.7790  158.6310  133.3400 C   0  0  0  0  0  0  0  0  0  0  0  0
  146.5780  157.5040  133.1260 C   0  0  0  0  0  0  0  0  0  0  0  0
  149.1858  156.0727  133.6416 H   0  0  0  0  0  0  0  0  0  0  0  0
  148.2974  155.7594  132.1122 H   0  0  0  0  0  0  0  0  0  0  0  0
  149.7324  156.8399  132.1122 H   0  0  0  0  0  0  0  0  0  0  0  0
  149.5916  159.1434  132.8353 H   0  0  0  0  0  0  0  0  0  0  0  0
  148.1042  161.1279  133.2718 H   0  0  0  0  0  0  0  0  0  0  0  0
  145.3878  161.8632  133.8000 H   0  0  0  0  0  0  0  0  0  0  0  0
  141.6270  158.9060  134.7070 H   0  0  0  0  0  0  0  0  0  0  0  0
  142.2670  155.2961  134.7679 H   0  0  0  0  0  0  0  0  0  0  0  0
  143.9344  155.5018  135.4113 H   0  0  0  0  0  0  0  0  0  0  0  0
  141.5240  158.0030  135.6790 H   0  0  0  0  0  0  0  0  0  0  0  0
  141.0712  158.5654  138.4775 H   0  0  0  0  0  0  0  0  0  0  0  0
  142.1979  159.3093  137.2926 H   0  0  0  0  0  0  0  0  0  0  0  0
  140.4618  159.7701  137.2926 H   0  0  0  0  0  0  0  0  0  0  0  0
  138.9070  157.1362  136.4810 H   0  0  0  0  0  0  0  0  0  0  0  0
  139.1195  158.9234  136.1600 H   0  0  0  0  0  0  0  0  0  0  0  0
  146.1350  156.4980  133.0857 H   0  0  0  0  0  0  0  0  0  0  0  0
  1  2  1  0
  2  3  2  0
  3  4  1  0
  4  5  2  0
  5  6  1  0
  6  7  2  0
  7  8  1  0
  8  9  1  0
  8 10  2  0
  7 11  1  0
 11 12  1  0
 12 13  2  0
 12 14  1  0
 14 15  1  0
 15 16  1  0
 16 17  1  0
 17 18  2  0
 17 19  1  0
 19 20  1  0
 19 21  1  0
 21 22  1  0
 22 23  2  0
 22 24  1  0
 11 25  1  0
 25 26  2  0
 26  2  1  0
 25  5  1  0
  1 27  1  0
  1 28  1  0
  1 29  1  0
  3 30  1  0
  4 31  1  0
  6 32  1  0
  9 33  1  0
 15 34  1  0
 15 35  1  0
 19 36  1  6
 20 37  1  0
 20 38  1  0
 20 39  1  0
 21 40  1  0
 21 41  1  0
 26 42  1  0
M  CHG  3   9  -1  19   1  24  -1
M  END
>  <UniqueID>  (23) 
23

>  <SMILES>  (23) 
Cc1ccc2cc(C([NH-])=O)n(C(=O)OCOC(=O)[N@H+](C)CC(=O)[O-])c2c1

>  <Energy>  (23) 
79.50082826580987

>  <Genealogy>  (23) 
Cc1ccc2cc(C([NH-])=O)n(C(=O)OCOC(=O)[NH+](C)CC(=O)[O-])c2c1 (protonated)
Cc1ccc2cc(C([NH-])=O)n(C(=O)OCOC(=O)[N@H+](C)CC(=O)[O-])c2c1 (chirality)
Cc1ccc2cc(C([NH-])=O)n(C(=O)OCOC(=O)[N@H+](C)CC(=O)[O-])c2c1 (3D coordinates assigned)
Cc1ccc2cc(C([NH-])=O)n(C(=O)OCOC(=O)[N@H+](C)CC(=O)[O-])c2c1 (optimized conformer: 79.50082826580987 kcal/mol)

>  <smiles>  (23) 
Cc1ccc2cc(C(N)=O)n(C(=O)OCOC(=O)N(C)CC(=O)O)c2c1

>  <score_type>  (23) 
oracle

>  <origin>  (23) 
adg

>  <m_score__min__energy>  (23) 
-5.3399999999999999

>  <m_primary>  (23) 
energy

$$$$
23:0
     RDKit          3D

 44 45  0  0  0  0  0  0  0  0999 V2000
  145.6550  153.9140  134.4390 C   0  0  0  0  0  0  0  0  0  0  0  0
  147.1030  154.3870  134.6630 C   0  0  0  0  0  0  0  0  0  0  0  0
  148.0770  153.6290  133.7410 C   0  0  0  0  0  0  0  0  0  0  0  0
  147.2110  155.8030  134.4430 O   0  0  0  0  0  0  0  0  0  0  0  0
  146.9440  156.4860  133.2460 C   0  0  0  0  0  0  0  0  0  0  0  0
  146.9470  155.8820  132.1400 O   0  0  0  0  0  0  0  0  0  0  0  0
  146.6860  157.8970  133.2840 N   0  0  0  0  0  0  0  0  0  0  0  0
  147.5000  158.9040  132.8610 C   0  0  0  0  0  0  0  0  0  0  0  0
  148.9070  158.7610  132.4320 C   0  0  0  0  0  0  0  0  0  0  0  0
  149.4840  157.4730  132.2310 N   0  0  0  0  0  0  0  0  0  0  0  0
  149.6240  159.7870  132.2860 O   0  0  0  0  0  0  0  0  0  0  0  0
  146.8500  160.1320  132.9560 C   0  0  0  0  0  0  0  0  0  0  0  0
  145.6030  159.8450  133.4620 C   0  0  0  0  0  0  0  0  0  0  0  0
  144.5340  160.6880  133.7350 C   0  0  0  0  0  0  0  0  0  0  0  0
  143.3440  160.1170  134.2140 C   0  0  0  0  0  0  0  0  0  0  0  0
  143.2340  158.7100  134.4230 C   0  0  0  0  0  0  0  0  0  0  0  0
  141.9290  158.0450  134.8940 C   0  0  0  0  0  0  0  0  0  0  0  0
  142.2350  156.5730  135.2400 C   0  0  0  0  0  0  0  0  0  0  0  0
  140.8110  158.0700  133.8280 C   0  0  0  0  0  0  0  0  0  0  0  0
  141.3940  158.7780  136.1130 C   0  0  0  0  0  0  0  0  0  0  0  0
  140.6400  159.7770  135.9670 O   0  0  0  0  0  0  0  0  0  0  0  0
  141.6830  158.3350  137.4000 O   0  0  0  0  0  0  0  0  0  0  0  0
  144.3510  157.8900  134.1080 C   0  0  0  0  0  0  0  0  0  0  0  0
  145.5280  158.4920  133.6510 C   0  0  0  0  0  0  0  0  0  0  0  0
  147.4780  154.1060  136.0990 C   0  0  0  0  0  0  0  0  0  0  0  0
  148.2410  154.8870  136.7270 O   0  0  0  0  0  0  0  0  0  0  0  0
  146.9590  152.9950  136.7550 O   0  0  0  0  0  0  0  0  0  0  0  0
  145.1667  153.7545  135.4117 H   0  0  0  0  0  0  0  0  0  0  0  0
  145.1030  154.6785  133.8726 H   0  0  0  0  0  0  0  0  0  0  0  0
  145.6608  152.9710  133.8726 H   0  0  0  0  0  0  0  0  0  0  0  0
  148.7986  153.0674  134.3524 H   0  0  0  0  0  0  0  0  0  0  0  0
  147.5123  152.9304  133.1061 H   0  0  0  0  0  0  0  0  0  0  0  0
  148.6155  154.3480  133.1061 H   0  0  0  0  0  0  0  0  0  0  0  0
  148.9270  156.6900  131.8250 H   0  0  0  0  0  0  0  0  0  0  0  0
  147.2485  161.1207  132.6844 H   0  0  0  0  0  0  0  0  0  0  0  0
  144.6171  161.7739  133.5802 H   0  0  0  0  0  0  0  0  0  0  0  0
  142.4823  160.7652  134.4317 H   0  0  0  0  0  0  0  0  0  0  0  0
  142.2604  156.4509  136.3329 H   0  0  0  0  0  0  0  0  0  0  0  0
  141.4521  155.9265  134.8169 H   0  0  0  0  0  0  0  0  0  0  0  0
  143.2107  156.2921  134.8169 H   0  0  0  0  0  0  0  0  0  0  0  0
  139.8303  158.0919  134.3257 H   0  0  0  0  0  0  0  0  0  0  0  0
  140.9235  158.9659  133.1997 H   0  0  0  0  0  0  0  0  0  0  0  0
  140.8833  157.1700  133.1997 H   0  0  0  0  0  0  0  0  0  0  0  0
  144.2909  156.7976  134.2219 H   0  0  0  0  0  0  0  0  0  0  0  0
  1  2  1  0
  2  3  1  0
  2  4  1  0
  4  5  1  0
  5  6  2  0
  5  7  1  0
  7  8  1  0
  8  9  1  0
  9 10  1  0
  9 11  2  0
  8 12  2  0
 12 13  1  0
 13 14  2  0
 14 15  1  0
 15 16  2  0
 16 17  1  0
 17 18  1  0
 17 19  1  0
 17 20  1  0
 20 21  2  0
 20 22  1  0
 16 23  1  0
 23 24  2  0
  2 25  1  0
 25 26  2  0
 25 27  1  0
 24  7  1  0
 24 13  1  0
  1 28  1  0
  1 29  1  0
  1 30  1  0
  3 31  1  0
  3 32  1  0
  3 33  1  0
 10 34  1  0
 12 35  1  0
 14 36  1  0
 15 37  1  0
 18 38  1  0
 18 39  1  0
 18 40  1  0
 19 41  1  0
 19 42  1  0
 19 43  1  0
 23 44  1  0
M  CHG  3  10  -1  22  -1  27  -1
M  END
>  <UniqueID>  (24) 
24

>  <SMILES>  (24) 
CC(C)(OC(=O)n1c(C([NH-])=O)cc2ccc(C(C)(C)C(=O)[O-])cc21)C(=O)[O-]

>  <Energy>  (24) 
83.97877376997151

>  <Genealogy>  (24) 
CC(C)(OC(=O)n1c(C([NH-])=O)cc2ccc(C(C)(C)C(=O)[O-])cc21)C(=O)[O-] (protonated)
CC(C)(OC(=O)n1c(C([NH-])=O)cc2ccc(C(C)(C)C(=O)[O-])cc21)C(=O)[O-] (3D coordinates assigned)
CC(C)(OC(=O)n1c(C([NH-])=O)cc2ccc(C(C)(C)C(=O)[O-])cc21)C(=O)[O-] (optimized conformer: 83.97877376997151 kcal/mol)

>  <smiles>  (24) 
CC(C)(OC(=O)n1c(C(N)=O)cc2ccc(C(C)(C)C(=O)O)cc21)C(=O)O

>  <score_type>  (24) 
oracle

>  <origin>  (24) 
adg

>  <m_score__min__energy>  (24) 
-7.8200000000000003

>  <m_primary>  (24) 
energy

$$$$
24:0
     RDKit          3D

 47 48  0  0  0  0  0  0  0  0999 V2000
  139.1000  147.1890  129.8970 C   0  0  0  0  0  0  0  0  0  0  0  0
  139.3000  147.8810  131.1080 O   0  0  0  0  0  0  0  0  0  0  0  0
  139.6640  149.2270  130.8580 C   0  0  0  0  0  0  0  0  0  0  0  0
  139.6810  150.0360  132.1620 C   0  0  0  0  0  0  0  0  0  0  0  0
  141.0640  150.2620  132.6120 N   0  0  0  0  0  0  0  0  0  0  0  0
  142.0990  149.3070  132.1970 C   0  0  0  0  0  0  0  0  0  0  0  0
  141.3980  151.4630  133.3480 C   0  0  0  0  0  0  0  0  0  0  0  0
  141.5460  151.4050  134.6000 O   0  0  0  0  0  0  0  0  0  0  0  0
  141.5770  152.8030  132.6790 C   0  0  0  0  0  0  0  0  0  0  0  0
  141.8060  153.9250  133.7050 C   0  0  0  0  0  0  0  0  0  0  0  0
  143.0470  153.7270  134.4600 N   0  0  0  0  0  0  0  0  0  0  0  0
  144.2370  154.5200  134.3090 C   0  0  0  0  0  0  0  0  0  0  0  0
  145.4980  153.9020  134.5020 C   0  0  0  0  0  0  0  0  0  0  0  0
  146.6870  154.6410  134.4010 C   0  0  0  0  0  0  0  0  0  0  0  0
  146.5880  155.9950  134.0980 C   0  0  0  0  0  0  0  0  0  0  0  0
  147.5760  156.9450  133.9740 C   0  0  0  0  0  0  0  0  0  0  0  0
  146.9100  158.1310  133.6740 C   0  0  0  0  0  0  0  0  0  0  0  0
  147.5990  159.4040  133.3630 C   0  0  0  0  0  0  0  0  0  0  0  0
  146.8960  160.4830  132.7480 N   0  0  0  0  0  0  0  0  0  0  0  0
  148.8080  159.5590  133.6800 O   0  0  0  0  0  0  0  0  0  0  0  0
  145.5610  157.9240  133.6150 N   0  0  0  0  0  0  0  0  0  0  0  0
  144.5350  158.9130  133.4220 C   0  0  0  0  0  0  0  0  0  0  0  0
  143.5730  158.6890  132.6400 O   0  0  0  0  0  0  0  0  0  0  0  0
  144.5880  160.1210  134.1060 O   0  0  0  0  0  0  0  0  0  0  0  0
  145.3810  156.6090  133.8760 C   0  0  0  0  0  0  0  0  0  0  0  0
  144.1790  155.8970  133.9780 C   0  0  0  0  0  0  0  0  0  0  0  0
  138.8005  146.1526  130.1121 H   0  0  0  0  0  0  0  0  0  0  0  0
  138.3089  147.6864  129.3168 H   0  0  0  0  0  0  0  0  0  0  0  0
  140.0345  147.1877  129.3168 H   0  0  0  0  0  0  0  0  0  0  0  0
  140.6660  149.2518  130.4047 H   0  0  0  0  0  0  0  0  0  0  0  0
  138.9250  149.6721  130.1755 H   0  0  0  0  0  0  0  0  0  0  0  0
  139.1928  151.0069  131.9918 H   0  0  0  0  0  0  0  0  0  0  0  0
  139.1430  149.4710  132.9375 H   0  0  0  0  0  0  0  0  0  0  0  0
  142.5729  148.8697  133.0882 H   0  0  0  0  0  0  0  0  0  0  0  0
  141.6407  148.5078  131.5960 H   0  0  0  0  0  0  0  0  0  0  0  0
  142.8588  149.8280  131.5960 H   0  0  0  0  0  0  0  0  0  0  0  0
  142.4459  152.7523  132.0063 H   0  0  0  0  0  0  0  0  0  0  0  0
  140.6581  153.0323  132.1196 H   0  0  0  0  0  0  0  0  0  0  0  0
  141.8616  154.8869  133.1743 H   0  0  0  0  0  0  0  0  0  0  0  0
  140.9673  153.9142  134.4166 H   0  0  0  0  0  0  0  0  0  0  0  0
  143.0430  152.9750  135.1880 H   0  0  0  0  0  0  0  0  0  0  0  0
  145.5454  152.8278  134.7342 H   0  0  0  0  0  0  0  0  0  0  0  0
  147.6662  154.1645  134.5565 H   0  0  0  0  0  0  0  0  0  0  0  0
  148.6603  156.7989  134.0876 H   0  0  0  0  0  0  0  0  0  0  0  0
  147.3780  161.3930  132.5780 H   0  0  0  0  0  0  0  0  0  0  0  0
  145.9110  160.3710  132.4240 H   0  0  0  0  0  0  0  0  0  0  0  0
  143.2133  156.3946  133.8054 H   0  0  0  0  0  0  0  0  0  0  0  0
  1  2  1  0
  2  3  1  0
  3  4  1  0
  4  5  1  0
  5  6  1  0
  5  7  1  0
  7  8  2  0
  7  9  1  0
  9 10  1  0
 10 11  1  0
 11 12  1  0
 12 13  2  0
 13 14  1  0
 14 15  2  0
 15 16  1  0
 16 17  2  0
 17 18  1  0
 18 19  1  0
 18 20  2  0
 17 21  1  0
 21 22  1  0
 22 23  2  0
 22 24  1  0
 21 25  1  0
 25 26  2  0
 26 12  1  0
 25 15  1  0
  1 27  1  0
  1 28  1  0
  1 29  1  0
  3 30  1  0
  3 31  1  0
  4 32  1  0
  4 33  1  0
  6 34  1  0
  6 35  1  0
  6 36  1  0
  9 37  1  0
  9 38  1  0
 10 39  1  0
 10 40  1  0
 11 41  1  0
 13 42  1  0
 14 43  1  0
 16 44  1  0
 19 45  1  0
 19 46  1  0
 26 47  1  0
M  CHG  1  24  -1
M  END
>  <UniqueID>  (25) 
25

>  <SMILES>  (25) 
COCCN(C)C(=O)CCNc1ccc2cc(C(N)=O)n(C(=O)[O-])c2c1

>  <Energy>  (25) 
80.10022577359548

>  <Genealogy>  (25) 
COCCN(C)C(=O)CCNc1ccc2cc(C(N)=O)n(C(=O)[O-])c2c1 (protonated)
COCCN(C)C(=O)CCNc1ccc2cc(C(N)=O)n(C(=O)[O-])c2c1 (3D coordinates assigned)
COCCN(C)C(=O)CCNc1ccc2cc(C(N)=O)n(C(=O)[O-])c2c1 (optimized conformer: 80.10022577359548 kcal/mol)

>  <smiles>  (25) 
COCCN(C)C(=O)CCNc1ccc2cc(C(N)=O)n(C(=O)O)c2c1

>  <score_type>  (25) 
oracle

>  <origin>  (25) 
adg

>  <m_score__min__energy>  (25) 
-6.6200000000000001

>  <m_primary>  (25) 
energy

$$$$
25:0
     RDKit          3D

 38 39  0  0  0  0  0  0  0  0999 V2000
  140.3130  149.5790  133.3050 C   0  0  0  0  0  0  0  0  0  0  0  0
  141.3560  150.6290  133.0620 C   0  0  0  0  0  0  0  0  0  0  0  0
  142.6920  150.2520  132.7820 C   0  0  0  0  0  0  0  0  0  0  0  0
  143.6880  151.2280  132.6030 C   0  0  0  0  0  0  0  0  0  0  0  0
  143.3190  152.5660  132.7130 C   0  0  0  0  0  0  0  0  0  0  0  0
  144.0830  153.7050  132.6140 C   0  0  0  0  0  0  0  0  0  0  0  0
  143.2000  154.7630  132.8270 C   0  0  0  0  0  0  0  0  0  0  0  0
  143.5810  156.1890  132.7210 C   0  0  0  0  0  0  0  0  0  0  0  0
  142.6100  157.1810  132.3830 N   0  0  0  0  0  0  0  0  0  0  0  0
  144.7650  156.5470  132.9590 O   0  0  0  0  0  0  0  0  0  0  0  0
  141.9400  154.2940  133.0530 N   0  0  0  0  0  0  0  0  0  0  0  0
  140.7610  155.0530  133.3670 C   0  0  0  0  0  0  0  0  0  0  0  0
  139.6320  154.6440  132.9840 O   0  0  0  0  0  0  0  0  0  0  0  0
  140.8840  156.2490  134.0860 O   0  0  0  0  0  0  0  0  0  0  0  0
  139.8460  157.1600  134.3200 C   0  0  0  0  0  0  0  0  0  0  0  0
  139.3170  157.2690  135.4610 O   0  0  0  0  0  0  0  0  0  0  0  0
  139.3180  157.9720  133.1710 C   0  0  2  0  0  0  0  0  0  0  0  0
  139.2730  157.1800  132.0100 O   0  0  0  0  0  0  0  0  0  0  0  0
  140.2120  159.2000  132.9290 C   0  0  2  0  0  0  0  0  0  0  0  0
  140.9690  159.0130  131.7600 O   0  0  0  0  0  0  0  0  0  0  0  0
  141.1340  159.4180  134.0950 C   0  0  0  0  0  0  0  0  0  0  0  0
  142.3780  159.2770  133.9590 O   0  0  0  0  0  0  0  0  0  0  0  0
  140.6130  159.7430  135.3410 O   0  0  0  0  0  0  0  0  0  0  0  0
  142.0290  152.9470  132.9790 C   0  0  0  0  0  0  0  0  0  0  0  0
  141.0220  151.9960  133.1830 C   0  0  0  0  0  0  0  0  0  0  0  0
  140.1764  149.4415  134.3878 H   0  0  0  0  0  0  0  0  0  0  0  0
  139.3616  149.8956  132.8527 H   0  0  0  0  0  0  0  0  0  0  0  0
  140.6360  148.6297  132.8527 H   0  0  0  0  0  0  0  0  0  0  0  0
  142.9528  149.1862  132.7039 H   0  0  0  0  0  0  0  0  0  0  0  0
  144.7274  150.9431  132.3827 H   0  0  0  0  0  0  0  0  0  0  0  0
  145.1621  153.7682  132.4100 H   0  0  0  0  0  0  0  0  0  0  0  0
  141.6330  156.9190  132.1250 H   0  0  0  0  0  0  0  0  0  0  0  0
  142.8810  158.1890  132.3490 H   0  0  0  0  0  0  0  0  0  0  0  0
  138.3026  158.3161  133.4173 H   0  0  0  0  0  0  0  0  0  0  0  0
  140.0510  156.5650  132.0530 H   0  0  0  0  0  0  0  0  0  0  0  0
  139.5691  160.0852  132.8147 H   0  0  0  0  0  0  0  0  0  0  0  0
  141.8930  159.3110  131.9650 H   0  0  0  0  0  0  0  0  0  0  0  0
  139.9961  152.3057  133.4313 H   0  0  0  0  0  0  0  0  0  0  0  0
  1  2  1  0
  2  3  2  0
  3  4  1  0
  4  5  2  0
  5  6  1  0
  6  7  2  0
  7  8  1  0
  8  9  1  0
  8 10  2  0
  7 11  1  0
 11 12  1  0
 12 13  2  0
 12 14  1  0
 14 15  1  0
 15 16  2  0
 15 17  1  0
 17 18  1  0
 17 19  1  0
 19 20  1  0
 19 21  1  0
 21 22  2  0
 21 23  1  0
 11 24  1  0
 24 25  2  0
 25  2  1  0
 24  5  1  0
  1 26  1  0
  1 27  1  0
  1 28  1  0
  3 29  1  0
  4 30  1  0
  6 31  1  0
  9 32  1  0
  9 33  1  0
 17 34  1  1
 18 35  1  0
 19 36  1  6
 20 37  1  0
 25 38  1  0
M  CHG  1  23  -1
M  END
>  <UniqueID>  (26) 
26

>  <SMILES>  (26) 
Cc1ccc2cc(C(N)=O)n(C(=O)OC(=O)[C@H](O)[C@H](O)C(=O)[O-])c2c1

>  <Energy>  (26) 
74.36399551671315

>  <Genealogy>  (26) 
Cc1ccc2cc(C(N)=O)n(C(=O)OC(=O)C(O)C(O)C(=O)[O-])c2c1 (protonated)
Cc1ccc2cc(C(N)=O)n(C(=O)OC(=O)[C@H](O)[C@H](O)C(=O)[O-])c2c1 (chirality)
Cc1ccc2cc(C(N)=O)n(C(=O)OC(=O)[C@H](O)[C@H](O)C(=O)[O-])c2c1 (3D coordinates assigned)
Cc1ccc2cc(C(N)=O)n(C(=O)OC(=O)[C@H](O)[C@H](O)C(=O)[O-])c2c1 (optimized conformer: 74.36399551671315 kcal/mol)

>  <smiles>  (26) 
Cc1ccc2cc(C(N)=O)n(C(=O)OC(=O)C(O)C(O)C(=O)O)c2c1

>  <score_type>  (26) 
oracle

>  <origin>  (26) 
adg

>  <m_score__min__energy>  (26) 
-6.3300000000000001

>  <m_primary>  (26) 
energy

$$$$
26:0
     RDKit          3D

 36 37  0  0  0  0  0  0  0  0999 V2000
  145.4260  161.2170  134.0940 C   0  0  0  0  0  0  0  0  0  0  0  0
  146.0370  159.9720  133.6120 N   0  0  0  0  0  0  0  0  0  0  0  0
  147.4430  159.9870  133.1900 C   0  0  0  0  0  0  0  0  0  0  0  0
  145.2630  158.7460  133.5520 C   0  0  0  0  0  0  0  0  0  0  0  0
  145.9020  157.4760  133.6410 C   0  0  0  0  0  0  0  0  0  0  0  0
  145.1620  156.2840  133.5640 C   0  0  0  0  0  0  0  0  0  0  0  0
  143.7850  156.3780  133.4040 C   0  0  0  0  0  0  0  0  0  0  0  0
  142.8390  155.3880  133.2690 C   0  0  0  0  0  0  0  0  0  0  0  0
  141.6250  156.0570  133.1190 C   0  0  0  0  0  0  0  0  0  0  0  0
  140.3120  155.3830  133.0340 C   0  0  0  0  0  0  0  0  0  0  0  0
  139.1130  156.0680  133.4000 N   0  0  0  0  0  0  0  0  0  0  0  0
  140.2370  154.1990  132.6100 O   0  0  0  0  0  0  0  0  0  0  0  0
  141.8170  157.4050  133.1600 N   0  0  0  0  0  0  0  0  0  0  0  0
  140.8450  158.4420  132.9490 C   0  0  0  0  0  0  0  0  0  0  0  0
  139.8830  158.2540  132.1590 O   0  0  0  0  0  0  0  0  0  0  0  0
  140.9470  159.9900  133.8530 S   0  0  0  0  0  0  0  0  0  0  0  0
  140.9680  159.1990  135.4990 C   0  0  0  0  0  0  0  0  0  0  0  0
  140.0280  158.0380  135.5430 C   0  0  0  0  0  0  0  0  0  0  0  0
  140.4730  156.8640  135.6460 O   0  0  0  0  0  0  0  0  0  0  0  0
  138.6550  158.2500  135.5000 O   0  0  0  0  0  0  0  0  0  0  0  0
  143.1430  157.5850  133.3370 C   0  0  0  0  0  0  0  0  0  0  0  0
  143.8520  158.7890  133.3950 C   0  0  0  0  0  0  0  0  0  0  0  0
  145.4234  161.2223  135.1940 H   0  0  0  0  0  0  0  0  0  0  0  0
  146.0047  162.0764  133.7246 H   0  0  0  0  0  0  0  0  0  0  0  0
  144.3921  161.2850  133.7246 H   0  0  0  0  0  0  0  0  0  0  0  0
  148.0923  159.9939  134.0779 H   0  0  0  0  0  0  0  0  0  0  0  0
  147.6547  159.0911  132.5879 H   0  0  0  0  0  0  0  0  0  0  0  0
  147.6355  160.8872  132.5879 H   0  0  0  0  0  0  0  0  0  0  0  0
  146.9931  157.4276  133.7722 H   0  0  0  0  0  0  0  0  0  0  0  0
  145.6586  155.3046  133.6285 H   0  0  0  0  0  0  0  0  0  0  0  0
  143.0051  154.3006  133.2776 H   0  0  0  0  0  0  0  0  0  0  0  0
  138.1890  155.5930  133.3040 H   0  0  0  0  0  0  0  0  0  0  0  0
  139.1400  157.0290  133.8050 H   0  0  0  0  0  0  0  0  0  0  0  0
  141.9870  158.8462  135.7164 H   0  0  0  0  0  0  0  0  0  0  0  0
  140.6500  159.9382  136.2490 H   0  0  0  0  0  0  0  0  0  0  0  0
  143.3262  159.7523  133.3204 H   0  0  0  0  0  0  0  0  0  0  0  0
  1  2  1  0
  2  3  1  0
  2  4  1  0
  4  5  2  0
  5  6  1  0
  6  7  2  0
  7  8  1  0
  8  9  2  0
  9 10  1  0
 10 11  1  0
 10 12  2  0
  9 13  1  0
 13 14  1  0
 14 15  2  0
 14 16  1  0
 16 17  1  0
 17 18  1  0
 18 19  2  0
 18 20  1  0
 13 21  1  0
 21 22  2  0
 22  4  1  0
 21  7  1  0
  1 23  1  0
  1 24  1  0
  1 25  1  0
  3 26  1  0
  3 27  1  0
  3 28  1  0
  5 29  1  0
  6 30  1  0
  8 31  1  0
 11 32  1  0
 11 33  1  0
 17 34  1  0
 17 35  1  0
 22 36  1  0
M  CHG  1  20  -1
M  END
>  <UniqueID>  (27) 
27

>  <SMILES>  (27) 
CN(C)c1ccc2cc(C(N)=O)n(C(=O)SCC(=O)[O-])c2c1

>  <Energy>  (27) 
71.27671301415856

>  <Genealogy>  (27) 
CN(C)c1ccc2cc(C(N)=O)n(C(=O)SCC(=O)[O-])c2c1 (protonated)
CN(C)c1ccc2cc(C(N)=O)n(C(=O)SCC(=O)[O-])c2c1 (3D coordinates assigned)
CN(C)c1ccc2cc(C(N)=O)n(C(=O)SCC(=O)[O-])c2c1 (optimized conformer: 71.27671301415856 kcal/mol)

>  <smiles>  (27) 
CN(C)c1ccc2cc(C(N)=O)n(C(=O)SCC(=O)O)c2c1

>  <score_type>  (27) 
oracle

>  <origin>  (27) 
adg

>  <m_score__min__energy>  (27) 
-6.6200000000000001

>  <m_primary>  (27) 
energy

$$$$
27:0
     RDKit          3D

 44 45  0  0  0  0  0  0  0  0999 V2000
  140.6820  156.6350  137.1950 C   0  0  0  0  0  0  0  0  0  0  0  0
  140.6470  157.0300  135.9220 C   0  0  0  0  0  0  0  0  0  0  0  0
  139.5980  158.0130  135.4580 C   0  0  0  0  0  0  0  0  0  0  0  0
  139.2460  157.8730  133.9570 C   0  0  0  0  0  0  0  0  0  0  0  0
  139.8950  158.8510  133.0460 N   0  0  1  0  0  0  0  0  0  0  0  0
  140.9290  158.2360  132.1880 C   0  0  0  0  0  0  0  0  0  0  0  0
  138.9230  159.6130  132.2890 C   0  0  0  0  0  0  0  0  0  0  0  0
  139.0880  160.8450  132.0560 O   0  0  0  0  0  0  0  0  0  0  0  0
  137.7850  158.9800  131.7990 O   0  0  0  0  0  0  0  0  0  0  0  0
  141.6250  156.5050  134.9540 C   0  0  0  0  0  0  0  0  0  0  0  0
  141.2760  155.5920  134.1570 O   0  0  0  0  0  0  0  0  0  0  0  0
  142.9140  157.0630  134.8890 O   0  0  0  0  0  0  0  0  0  0  0  0
  143.5470  157.4450  133.6970 C   0  0  0  0  0  0  0  0  0  0  0  0
  143.4020  156.7670  132.6440 O   0  0  0  0  0  0  0  0  0  0  0  0
  144.3140  158.6540  133.6570 N   0  0  0  0  0  0  0  0  0  0  0  0
  143.8530  159.9280  133.7840 C   0  0  0  0  0  0  0  0  0  0  0  0
  142.4600  160.3080  134.1110 C   0  0  0  0  0  0  0  0  0  0  0  0
  141.8130  159.7740  135.2610 N   0  0  0  0  0  0  0  0  0  0  0  0
  141.8370  161.1280  133.3750 O   0  0  0  0  0  0  0  0  0  0  0  0
  144.8910  160.8420  133.6210 C   0  0  0  0  0  0  0  0  0  0  0  0
  146.0120  160.0790  133.3960 C   0  0  0  0  0  0  0  0  0  0  0  0
  147.3290  160.4700  133.1640 C   0  0  0  0  0  0  0  0  0  0  0  0
  148.2850  159.4660  132.9490 C   0  0  0  0  0  0  0  0  0  0  0  0
  147.9120  158.0990  132.9680 C   0  0  0  0  0  0  0  0  0  0  0  0
  148.8990  157.0930  132.7480 N   0  0  0  0  0  0  0  0  0  0  0  0
  146.5670  157.7380  133.2040 C   0  0  0  0  0  0  0  0  0  0  0  0
  145.6390  158.7610  133.4240 C   0  0  0  0  0  0  0  0  0  0  0  0
  141.4479  155.9190  137.5278 H   0  0  0  0  0  0  0  0  0  0  0  0
  139.9450  157.0251  137.9124 H   0  0  0  0  0  0  0  0  0  0  0  0
  138.6834  157.8511  136.0473 H   0  0  0  0  0  0  0  0  0  0  0  0
  140.0119  159.0219  135.6019 H   0  0  0  0  0  0  0  0  0  0  0  0
  139.5411  156.8638  133.6340 H   0  0  0  0  0  0  0  0  0  0  0  0
  138.1660  158.0685  133.8842 H   0  0  0  0  0  0  0  0  0  0  0  0
  140.3980  159.5420  133.6540 H   0  0  0  0  0  0  0  0  0  0  0  0
  141.7031  157.7756  132.8195 H   0  0  0  0  0  0  0  0  0  0  0  0
  140.4677  157.4654  131.5529 H   0  0  0  0  0  0  0  0  0  0  0  0
  141.3859  159.0092  131.5529 H   0  0  0  0  0  0  0  0  0  0  0  0
  142.1580  158.9000  135.7190 H   0  0  0  0  0  0  0  0  0  0  0  0
  144.8274  161.9393  133.6633 H   0  0  0  0  0  0  0  0  0  0  0  0
  147.6105  161.5333  133.1498 H   0  0  0  0  0  0  0  0  0  0  0  0
  149.3335  159.7424  132.7640 H   0  0  0  0  0  0  0  0  0  0  0  0
  148.9310  156.5770  131.8440 H   0  0  0  0  0  0  0  0  0  0  0  0
  149.6030  156.8600  133.4780 H   0  0  0  0  0  0  0  0  0  0  0  0
  146.2582  156.6823  133.2145 H   0  0  0  0  0  0  0  0  0  0  0  0
  1  2  2  0
  2  3  1  0
  3  4  1  0
  4  5  1  0
  5  6  1  0
  5  7  1  0
  7  8  2  0
  7  9  1  0
  2 10  1  0
 10 11  2  0
 10 12  1  0
 12 13  1  0
 13 14  2  0
 13 15  1  0
 15 16  1  0
 16 17  1  0
 17 18  1  0
 17 19  2  0
 16 20  2  0
 20 21  1  0
 21 22  2  0
 22 23  1  0
 23 24  2  0
 24 25  1  0
 24 26  1  0
 26 27  2  0
 27 15  1  0
 27 21  1  0
  1 28  1  0
  1 29  1  0
  3 30  1  0
  3 31  1  0
  4 32  1  0
  4 33  1  0
  5 34  1  1
  6 35  1  0
  6 36  1  0
  6 37  1  0
 18 38  1  0
 20 39  1  0
 22 40  1  0
 23 41  1  0
 25 42  1  0
 25 43  1  0
 26 44  1  0
M  CHG  3   5   1   9  -1  18  -1
M  END
>  <UniqueID>  (28) 
28

>  <SMILES>  (28) 
C=C(CC[N@@H+](C)C(=O)[O-])C(=O)OC(=O)n1c(C([NH-])=O)cc2ccc(N)cc21

>  <Energy>  (28) 
90.08941026764519

>  <Genealogy>  (28) 
C=C(CC[NH+](C)C(=O)[O-])C(=O)OC(=O)n1c(C([NH-])=O)cc2ccc(N)cc21 (protonated)
C=C(CC[N@@H+](C)C(=O)[O-])C(=O)OC(=O)n1c(C([NH-])=O)cc2ccc(N)cc21 (chirality)
C=C(CC[N@@H+](C)C(=O)[O-])C(=O)OC(=O)n1c(C([NH-])=O)cc2ccc(N)cc21 (3D coordinates assigned)
C=C(CC[N@@H+](C)C(=O)[O-])C(=O)OC(=O)n1c(C([NH-])=O)cc2ccc(N)cc21 (optimized conformer: 90.08941026764519 kcal/mol)

>  <smiles>  (28) 
C=C(CCN(C)C(=O)O)C(=O)OC(=O)n1c(C(N)=O)cc2ccc(N)cc21

>  <score_type>  (28) 
oracle

>  <origin>  (28) 
adg

>  <m_score__min__energy>  (28) 
-6.1399999999999997

>  <m_primary>  (28) 
energy

$$$$
28:0
     RDKit          3D

 47 48  0  0  0  0  0  0  0  0999 V2000
  143.5780  154.7340  135.4310 C   0  0  0  0  0  0  0  0  0  0  0  0
  144.4790  153.9860  136.3150 N   0  0  0  0  0  0  0  0  0  0  0  0
  143.9620  153.3760  137.5450 C   0  0  0  0  0  0  0  0  0  0  0  0
  145.8790  153.8380  135.9950 C   0  0  0  0  0  0  0  0  0  0  0  0
  146.6460  153.2440  136.8020 O   0  0  0  0  0  0  0  0  0  0  0  0
  146.4580  154.3530  134.7050 C   0  0  0  0  0  0  0  0  0  0  0  0
  146.2970  155.7660  134.6150 O   0  0  0  0  0  0  0  0  0  0  0  0
  146.2940  156.4650  133.4030 C   0  0  0  0  0  0  0  0  0  0  0  0
  146.5380  155.8650  132.3200 O   0  0  0  0  0  0  0  0  0  0  0  0
  146.0290  157.8760  133.3970 N   0  0  0  0  0  0  0  0  0  0  0  0
  146.9230  158.8940  133.2430 C   0  0  0  0  0  0  0  0  0  0  0  0
  148.3570  158.7480  132.9180 C   0  0  0  0  0  0  0  0  0  0  0  0
  148.7600  157.8820  131.8590 N   0  0  0  0  0  0  0  0  0  0  0  0
  149.2360  159.3520  133.5880 O   0  0  0  0  0  0  0  0  0  0  0  0
  146.2800  160.1250  133.3470 C   0  0  0  0  0  0  0  0  0  0  0  0
  144.9540  159.8270  133.5590 C   0  0  0  0  0  0  0  0  0  0  0  0
  143.8690  160.6710  133.7480 C   0  0  0  0  0  0  0  0  0  0  0  0
  142.6120  160.0900  133.9750 C   0  0  0  0  0  0  0  0  0  0  0  0
  142.4400  158.6740  134.0090 C   0  0  0  0  0  0  0  0  0  0  0  0
  141.0490  158.0780  134.3040 C   0  0  0  0  0  0  0  0  0  0  0  0
  139.9840  158.7140  133.3840 C   0  0  0  0  0  0  0  0  0  0  0  0
  140.9910  156.5480  134.0870 C   0  0  0  0  0  0  0  0  0  0  0  0
  140.6170  158.4150  136.0560 P   0  0  0  0  0  0  0  0  0  0  0  0
  139.2300  157.8910  136.3530 O   0  0  0  0  0  0  0  0  0  0  0  0
  141.7300  157.6400  137.0670 O   0  0  0  0  0  0  0  0  0  0  0  0
  140.6520  160.0770  136.3680 O   0  0  0  0  0  0  0  0  0  0  0  0
  143.5920  157.8560  133.8280 C   0  0  0  0  0  0  0  0  0  0  0  0
  144.8270  158.4650  133.5850 C   0  0  0  0  0  0  0  0  0  0  0  0
  142.8721  155.3200  136.0378 H   0  0  0  0  0  0  0  0  0  0  0  0
  144.1669  155.4124  134.7962 H   0  0  0  0  0  0  0  0  0  0  0  0
  143.0195  154.0303  134.7962 H   0  0  0  0  0  0  0  0  0  0  0  0
  144.3950  153.8869  138.4177 H   0  0  0  0  0  0  0  0  0  0  0  0
  142.8665  153.4726  137.5698 H   0  0  0  0  0  0  0  0  0  0  0  0
  144.2368  152.3112  137.5698 H   0  0  0  0  0  0  0  0  0  0  0  0
  147.5295  154.1075  134.6656 H   0  0  0  0  0  0  0  0  0  0  0  0
  145.9296  153.8803  133.8640 H   0  0  0  0  0  0  0  0  0  0  0  0
  148.1350  157.1130  131.5290 H   0  0  0  0  0  0  0  0  0  0  0  0
  146.7358  161.1235  133.2749 H   0  0  0  0  0  0  0  0  0  0  0  0
  143.9907  161.7639  133.7207 H   0  0  0  0  0  0  0  0  0  0  0  0
  141.7392  160.7412  134.1303 H   0  0  0  0  0  0  0  0  0  0  0  0
  139.2007  159.1818  133.9986 H   0  0  0  0  0  0  0  0  0  0  0  0
  140.4568  159.4777  132.7491 H   0  0  0  0  0  0  0  0  0  0  0  0
  139.5359  157.9355  132.7491 H   0  0  0  0  0  0  0  0  0  0  0  0
  140.9717  156.0398  135.0624 H   0  0  0  0  0  0  0  0  0  0  0  0
  140.0825  156.2920  133.5221 H   0  0  0  0  0  0  0  0  0  0  0  0
  141.8775  156.2239  133.5221 H   0  0  0  0  0  0  0  0  0  0  0  0
  143.5112  156.7601  133.8787 H   0  0  0  0  0  0  0  0  0  0  0  0
  1  2  1  0
  2  3  1  0
  2  4  1  0
  4  5  2  0
  4  6  1  0
  6  7  1  0
  7  8  1  0
  8  9  2  0
  8 10  1  0
 10 11  1  0
 11 12  1  0
 12 13  1  0
 12 14  2  0
 11 15  2  0
 15 16  1  0
 16 17  2  0
 17 18  1  0
 18 19  2  0
 19 20  1  0
 20 21  1  0
 20 22  1  0
 20 23  1  0
 23 24  2  0
 23 25  1  0
 23 26  1  0
 19 27  1  0
 27 28  2  0
 28 10  1  0
 28 16  1  0
  1 29  1  0
  1 30  1  0
  1 31  1  0
  3 32  1  0
  3 33  1  0
  3 34  1  0
  6 35  1  0
  6 36  1  0
 13 37  1  0
 15 38  1  0
 17 39  1  0
 18 40  1  0
 21 41  1  0
 21 42  1  0
 21 43  1  0
 22 44  1  0
 22 45  1  0
 22 46  1  0
 27 47  1  0
M  CHG  3  13  -1  25  -1  26  -1
M  END
>  <UniqueID>  (29) 
29

>  <SMILES>  (29) 
CN(C)C(=O)COC(=O)n1c(C([NH-])=O)cc2ccc(C(C)(C)P(=O)([O-])[O-])cc21

>  <Energy>  (29) 
79.6173818437896

>  <Genealogy>  (29) 
CN(C)C(=O)COC(=O)n1c(C([NH-])=O)cc2ccc(C(C)(C)P(=O)([O-])[O-])cc21 (protonated)
CN(C)C(=O)COC(=O)n1c(C([NH-])=O)cc2ccc(C(C)(C)P(=O)([O-])[O-])cc21 (3D coordinates assigned)
CN(C)C(=O)COC(=O)n1c(C([NH-])=O)cc2ccc(C(C)(C)P(=O)([O-])[O-])cc21 (optimized conformer: 79.6173818437896 kcal/mol)

>  <smiles>  (29) 
CN(C)C(=O)COC(=O)n1c(C(N)=O)cc2ccc(C(C)(C)P(=O)(O)O)cc21

>  <score_type>  (29) 
oracle

>  <origin>  (29) 
adg

>  <m_score__min__energy>  (29) 
-7.4199999999999999

>  <m_primary>  (29) 
energy

$$$$
29:0
     RDKit          3D

 46 48  0  0  0  0  0  0  0  0999 V2000
  141.1600  155.7300  134.0300 N   0  0  0  0  0  0  0  0  0  0  0  0
  142.1450  155.3200  134.9750 C   0  0  0  0  0  0  0  0  0  0  0  0
  141.7770  154.8570  136.0860 O   0  0  0  0  0  0  0  0  0  0  0  0
  143.5790  155.4600  134.6530 C   0  0  0  0  0  0  0  0  0  0  0  0
  144.5490  154.5280  135.0170 C   0  0  0  0  0  0  0  0  0  0  0  0
  145.7260  154.9940  134.4730 C   0  0  0  0  0  0  0  0  0  0  0  0
  147.0110  154.4610  134.5220 C   0  0  0  0  0  0  0  0  0  0  0  0
  148.0410  155.1660  133.8740 C   0  0  0  0  0  0  0  0  0  0  0  0
  147.7670  156.3810  133.1990 C   0  0  0  0  0  0  0  0  0  0  0  0
  148.8240  157.0900  132.5490 N   0  0  0  0  0  0  0  0  0  0  0  0
  146.4530  156.8900  133.1690 C   0  0  0  0  0  0  0  0  0  0  0  0
  145.4480  156.1630  133.8150 C   0  0  0  0  0  0  0  0  0  0  0  0
  144.1380  156.4690  133.9250 N   0  0  0  0  0  0  0  0  0  0  0  0
  143.4960  157.6260  133.3640 C   0  0  0  0  0  0  0  0  0  0  0  0
  142.8880  157.5070  132.2650 O   0  0  0  0  0  0  0  0  0  0  0  0
  143.5520  158.9130  134.0210 N   0  0  0  0  0  0  0  0  0  0  0  0
  142.7860  159.1320  135.2580 C   0  0  0  0  0  0  0  0  0  0  0  0
  141.3600  159.6160  134.9260 C   0  0  0  0  0  0  0  0  0  0  0  0
  140.6060  158.7330  134.0100 N   0  0  0  0  0  0  0  0  0  0  0  0
  139.3370  158.2300  134.5600 C   0  0  0  0  0  0  0  0  0  0  0  0
  138.7670  157.1400  133.6260 C   0  0  0  0  0  0  0  0  0  0  0  0
  139.4080  157.1130  132.3600 O   0  0  0  0  0  0  0  0  0  0  0  0
  139.4770  158.4190  131.8220 C   0  0  0  0  0  0  0  0  0  0  0  0
  140.4240  159.3020  132.6600 C   0  0  0  0  0  0  0  0  0  0  0  0
  144.3380  159.9940  133.4790 C   0  0  0  0  0  0  0  0  0  0  0  0
  144.0230  161.1900  133.7140 O   0  0  0  0  0  0  0  0  0  0  0  0
  145.4340  159.7350  132.6650 O   0  0  0  0  0  0  0  0  0  0  0  0
  141.2260  156.6560  133.5530 H   0  0  0  0  0  0  0  0  0  0  0  0
  144.4055  153.6142  135.6123 H   0  0  0  0  0  0  0  0  0  0  0  0
  147.2144  153.5182  135.0509 H   0  0  0  0  0  0  0  0  0  0  0  0
  149.0674  154.7709  133.8914 H   0  0  0  0  0  0  0  0  0  0  0  0
  148.8250  157.2160  131.5120 H   0  0  0  0  0  0  0  0  0  0  0  0
  149.6150  157.4950  133.1000 H   0  0  0  0  0  0  0  0  0  0  0  0
  146.2242  157.8334  132.6516 H   0  0  0  0  0  0  0  0  0  0  0  0
  142.7272  158.1884  135.8203 H   0  0  0  0  0  0  0  0  0  0  0  0
  143.2928  159.8994  135.8615 H   0  0  0  0  0  0  0  0  0  0  0  0
  140.7967  159.6943  135.8676 H   0  0  0  0  0  0  0  0  0  0  0  0
  141.4715  160.5796  134.4074 H   0  0  0  0  0  0  0  0  0  0  0  0
  139.5139  157.8020  135.5578 H   0  0  0  0  0  0  0  0  0  0  0  0
  138.6175  159.0584  134.6385 H   0  0  0  0  0  0  0  0  0  0  0  0
  138.8983  156.1599  134.1078 H   0  0  0  0  0  0  0  0  0  0  0  0
  137.7050  157.3707  133.4557 H   0  0  0  0  0  0  0  0  0  0  0  0
  139.8522  158.3652  130.7894 H   0  0  0  0  0  0  0  0  0  0  0  0
  138.4707  158.8630  131.8387 H   0  0  0  0  0  0  0  0  0  0  0  0
  141.4010  159.3619  132.1582 H   0  0  0  0  0  0  0  0  0  0  0  0
  139.9827  160.3052  132.7545 H   0  0  0  0  0  0  0  0  0  0  0  0
  1  2  1  0
  2  3  2  0
  2  4  1  0
  4  5  2  0
  5  6  1  0
  6  7  2  0
  7  8  1  0
  8  9  2  0
  9 10  1  0
  9 11  1  0
 11 12  2  0
 12 13  1  0
 13 14  1  0
 14 15  2  0
 14 16  1  0
 16 17  1  0
 17 18  1  0
 18 19  1  0
 19 20  1  0
 20 21  1  0
 21 22  1  0
 22 23  1  0
 23 24  1  0
 16 25  1  0
 25 26  2  0
 25 27  1  0
 13  4  1  0
 24 19  1  0
 12  6  1  0
  1 28  1  0
  5 29  1  0
  7 30  1  0
  8 31  1  0
 10 32  1  0
 10 33  1  0
 11 34  1  0
 17 35  1  0
 17 36  1  0
 18 37  1  0
 18 38  1  0
 20 39  1  0
 20 40  1  0
 21 41  1  0
 21 42  1  0
 23 43  1  0
 23 44  1  0
 24 45  1  0
 24 46  1  0
M  CHG  2   1  -1  27  -1
M  END
>  <UniqueID>  (30) 
30

>  <SMILES>  (30) 
[NH-]C(=O)c1cc2ccc(N)cc2n1C(=O)N(CCN1CCOCC1)C(=O)[O-]

>  <Energy>  (30) 
99.17910088501262

>  <Genealogy>  (30) 
[NH-]C(=O)c1cc2ccc(N)cc2n1C(=O)N(CCN1CCOCC1)C(=O)[O-] (protonated)
[NH-]C(=O)c1cc2ccc(N)cc2n1C(=O)N(CCN1CCOCC1)C(=O)[O-] (3D coordinates assigned)
[NH-]C(=O)c1cc2ccc(N)cc2n1C(=O)N(CCN1CCOCC1)C(=O)[O-] (nonaromatic ring conformer: 99.17910088501262 kcal/mol)

>  <smiles>  (30) 
NC(=O)c1cc2ccc(N)cc2n1C(=O)N(CCN1CCOCC1)C(=O)O

>  <score_type>  (30) 
oracle

>  <origin>  (30) 
adg

>  <m_score__min__energy>  (30) 
-7.9199999999999999

>  <m_primary>  (30) 
energy

$$$$
30:0
     RDKit          3D

 54 55  0  0  0  0  0  0  0  0999 V2000
  137.9400  160.0900  130.8650 C   0  0  0  0  0  0  0  0  0  0  0  0
  138.9080  159.6140  131.8680 N   0  0  0  0  0  0  0  0  0  0  0  0
  140.2000  159.3490  131.2140 C   0  0  0  0  0  0  0  0  0  0  0  0
  138.4150  158.3950  132.5470 C   0  0  0  0  0  0  0  0  0  0  0  0
  139.5730  157.6580  133.2330 C   0  0  0  0  0  0  0  0  0  0  0  0
  139.4340  157.7080  134.7600 C   0  0  0  0  0  0  0  0  0  0  0  0
  140.3180  158.7300  135.3240 N   0  0  0  0  0  0  0  0  0  0  0  0
  141.5960  159.1010  134.7700 C   0  0  0  0  0  0  0  0  0  0  0  0
  141.7970  160.4360  134.3400 C   0  0  0  0  0  0  0  0  0  0  0  0
  143.0180  160.8360  133.7700 C   0  0  0  0  0  0  0  0  0  0  0  0
  144.0240  159.8850  133.6510 C   0  0  0  0  0  0  0  0  0  0  0  0
  145.2770  159.9870  133.0910 C   0  0  0  0  0  0  0  0  0  0  0  0
  145.8410  158.7200  133.2170 C   0  0  0  0  0  0  0  0  0  0  0  0
  147.2110  158.3910  132.7740 C   0  0  0  0  0  0  0  0  0  0  0  0
  147.4590  157.2980  131.8890 N   0  0  0  0  0  0  0  0  0  0  0  0
  148.1830  159.0540  133.2230 O   0  0  0  0  0  0  0  0  0  0  0  0
  144.9710  157.8660  133.8220 N   0  0  0  0  0  0  0  0  0  0  0  0
  145.1280  156.4480  133.9990 C   0  0  0  0  0  0  0  0  0  0  0  0
  145.1490  155.9610  135.1620 O   0  0  0  0  0  0  0  0  0  0  0  0
  145.2500  155.6240  132.8700 O   0  0  0  0  0  0  0  0  0  0  0  0
  144.3700  154.5510  132.5020 C   0  0  0  0  0  0  0  0  0  0  0  0
  144.3560  154.4860  130.9680 C   0  0  0  0  0  0  0  0  0  0  0  0
  144.8900  153.2090  133.0520 C   0  0  0  0  0  0  0  0  0  0  0  0
  142.9390  154.8270  133.0030 C   0  0  0  0  0  0  0  0  0  0  0  0
  143.8630  158.5940  134.0840 C   0  0  0  0  0  0  0  0  0  0  0  0
  142.6530  158.1640  134.6400 C   0  0  0  0  0  0  0  0  0  0  0  0
  137.0653  160.5201  131.3748 H   0  0  0  0  0  0  0  0  0  0  0  0
  138.4122  160.8587  130.2356 H   0  0  0  0  0  0  0  0  0  0  0  0
  137.6196  159.2467  130.2356 H   0  0  0  0  0  0  0  0  0  0  0  0
  140.9731  159.1904  131.9802 H   0  0  0  0  0  0  0  0  0  0  0  0
  140.1157  158.4495  130.5865 H   0  0  0  0  0  0  0  0  0  0  0  0
  140.4766  160.2091  130.5865 H   0  0  0  0  0  0  0  0  0  0  0  0
  137.6677  158.6785  133.3027 H   0  0  0  0  0  0  0  0  0  0  0  0
  137.9622  157.7285  131.7982 H   0  0  0  0  0  0  0  0  0  0  0  0
  139.5734  156.6075  132.9068 H   0  0  0  0  0  0  0  0  0  0  0  0
  140.5153  158.1511  132.9522 H   0  0  0  0  0  0  0  0  0  0  0  0
  138.3924  157.9469  135.0207 H   0  0  0  0  0  0  0  0  0  0  0  0
  139.7144  156.7283  135.1742 H   0  0  0  0  0  0  0  0  0  0  0  0
  140.0000  159.2040  136.2000 H   0  0  0  0  0  0  0  0  0  0  0  0
  140.9857  161.1701  134.4539 H   0  0  0  0  0  0  0  0  0  0  0  0
  143.1724  161.8702  133.4286 H   0  0  0  0  0  0  0  0  0  0  0  0
  145.7354  160.8794  132.6399 H   0  0  0  0  0  0  0  0  0  0  0  0
  146.7020  156.6240  131.6380 H   0  0  0  0  0  0  0  0  0  0  0  0
  148.4270  157.1120  131.5440 H   0  0  0  0  0  0  0  0  0  0  0  0
  144.1346  153.4576  130.6466 H   0  0  0  0  0  0  0  0  0  0  0  0
  143.5836  155.1659  130.5792 H   0  0  0  0  0  0  0  0  0  0  0  0
  145.3397  154.7879  130.5792 H   0  0  0  0  0  0  0  0  0  0  0  0
  144.8800  153.2348  134.1517 H   0  0  0  0  0  0  0  0  0  0  0  0
  144.2432  152.3925  132.6985 H   0  0  0  0  0  0  0  0  0  0  0  0
  145.9181  153.0415  132.6985 H   0  0  0  0  0  0  0  0  0  0  0  0
  142.9296  154.8288  134.1030 H   0  0  0  0  0  0  0  0  0  0  0  0
  142.6031  155.8065  132.6318 H   0  0  0  0  0  0  0  0  0  0  0  0
  142.2629  154.0427  132.6318 H   0  0  0  0  0  0  0  0  0  0  0  0
  142.5243  157.1223  134.9690 H   0  0  0  0  0  0  0  0  0  0  0  0
  1  2  1  0
  2  3  1  0
  2  4  1  0
  4  5  1  0
  5  6  1  0
  6  7  1  0
  7  8  1  0
  8  9  2  0
  9 10  1  0
 10 11  2  0
 11 12  1  0
 12 13  2  0
 13 14  1  0
 14 15  1  0
 14 16  2  0
 13 17  1  0
 17 18  1  0
 18 19  2  0
 18 20  1  0
 20 21  1  0
 21 22  1  0
 21 23  1  0
 21 24  1  0
 17 25  1  0
 25 26  2  0
 26  8  1  0
 25 11  1  0
  1 27  1  0
  1 28  1  0
  1 29  1  0
  3 30  1  0
  3 31  1  0
  3 32  1  0
  4 33  1  0
  4 34  1  0
  5 35  1  0
  5 36  1  0
  6 37  1  0
  6 38  1  0
  7 39  1  0
  9 40  1  0
 10 41  1  0
 12 42  1  0
 15 43  1  0
 15 44  1  0
 22 45  1  0
 22 46  1  0
 22 47  1  0
 23 48  1  0
 23 49  1  0
 23 50  1  0
 24 51  1  0
 24 52  1  0
 24 53  1  0
 26 54  1  0
M  END
>  <UniqueID>  (31) 
31

>  <SMILES>  (31) 
CN(C)CCCNc1ccc2cc(C(N)=O)n(C(=O)OC(C)(C)C)c2c1

>  <Energy>  (31) 
83.22793592689762

>  <Genealogy>  (31) 
CN(C)CCCNc1ccc2cc(C(N)=O)n(C(=O)OC(C)(C)C)c2c1 (3D coordinates assigned)
CN(C)CCCNc1ccc2cc(C(N)=O)n(C(=O)OC(C)(C)C)c2c1 (optimized conformer: 83.22793592689762 kcal/mol)

>  <smiles>  (31) 
CN(C)CCCNc1ccc2cc(C(N)=O)n(C(=O)OC(C)(C)C)c2c1

>  <score_type>  (31) 
oracle

>  <origin>  (31) 
adg

>  <m_score__min__energy>  (31) 
-7.9100000000000001

>  <m_primary>  (31) 
energy

$$$$
31:0
     RDKit          3D

 40 42  0  0  0  0  0  0  0  0999 V2000
  138.6790  159.4350  131.0000 C   0  0  0  0  0  0  0  0  0  0  0  0
  139.2190  158.9080  131.9400 C   0  0  0  0  0  0  0  0  0  0  0  0
  139.8630  158.2800  133.0630 C   0  0  0  0  0  0  0  0  0  0  0  0
  140.1640  159.0370  134.2190 C   0  0  0  0  0  0  0  0  0  0  0  0
  140.7860  158.4320  135.3260 C   0  0  0  0  0  0  0  0  0  0  0  0
  141.0930  157.0770  135.2400 C   0  0  0  0  0  0  0  0  0  0  0  0
  141.6800  156.2380  136.1620 C   0  0  0  0  0  0  0  0  0  0  0  0
  141.7340  154.9890  135.5430 C   0  0  0  0  0  0  0  0  0  0  0  0
  142.3570  153.7970  136.1540 C   0  0  0  0  0  0  0  0  0  0  0  0
  143.5040  153.9440  136.9880 N   0  0  0  0  0  0  0  0  0  0  0  0
  141.9030  152.6450  135.9280 O   0  0  0  0  0  0  0  0  0  0  0  0
  141.1950  155.0550  134.2930 N   0  0  0  0  0  0  0  0  0  0  0  0
  141.0230  153.9880  133.3450 C   0  0  0  0  0  0  0  0  0  0  0  0
  139.8610  153.7010  132.9500 O   0  0  0  0  0  0  0  0  0  0  0  0
  142.1780  153.1870  132.8690 C   0  0  0  0  0  0  0  0  0  0  0  0
  143.3760  153.7660  132.7220 C   0  0  0  0  0  0  0  0  0  0  0  0
  142.0230  151.7360  132.5960 C   0  0  0  0  0  0  0  0  0  0  0  0
  143.0060  150.9600  132.7540 O   0  0  0  0  0  0  0  0  0  0  0  0
  140.7690  151.2080  132.1380 N   0  0  0  0  0  0  0  0  0  0  0  0
  140.5610  149.7770  131.9420 C   0  0  0  0  0  0  0  0  0  0  0  0
  139.8590  149.3360  130.6970 C   0  0  0  0  0  0  0  0  0  0  0  0
  139.6900  148.1100  130.4670 O   0  0  0  0  0  0  0  0  0  0  0  0
  139.4270  150.2780  129.7720 O   0  0  0  0  0  0  0  0  0  0  0  0
  140.2380  149.0100  133.2130 C   0  0  0  0  0  0  0  0  0  0  0  0
  141.6070  148.8620  132.5570 C   0  0  0  0  0  0  0  0  0  0  0  0
  140.8150  156.3370  134.1190 C   0  0  0  0  0  0  0  0  0  0  0  0
  140.1880  156.9090  133.0070 C   0  0  0  0  0  0  0  0  0  0  0  0
  138.1862  159.9159  130.1422 H   0  0  0  0  0  0  0  0  0  0  0  0
  139.9098  160.1067  134.2526 H   0  0  0  0  0  0  0  0  0  0  0  0
  141.0223  159.0112  136.2309 H   0  0  0  0  0  0  0  0  0  0  0  0
  142.0313  156.4978  137.1715 H   0  0  0  0  0  0  0  0  0  0  0  0
  143.6970  154.8440  137.4820 H   0  0  0  0  0  0  0  0  0  0  0  0
  144.2334  153.1740  132.3693 H   0  0  0  0  0  0  0  0  0  0  0  0
  143.5030  154.8338  132.9539 H   0  0  0  0  0  0  0  0  0  0  0  0
  140.0250  151.8610  131.8040 H   0  0  0  0  0  0  0  0  0  0  0  0
  140.1409  149.5452  134.1691 H   0  0  0  0  0  0  0  0  0  0  0  0
  139.4436  148.3147  133.5220 H   0  0  0  0  0  0  0  0  0  0  0  0
  142.4978  149.2905  133.0396 H   0  0  0  0  0  0  0  0  0  0  0  0
  142.2102  148.0158  132.1963 H   0  0  0  0  0  0  0  0  0  0  0  0
  139.9555  156.3075  132.1159 H   0  0  0  0  0  0  0  0  0  0  0  0
  1  2  3  0
  2  3  1  0
  3  4  2  0
  4  5  1  0
  5  6  2  0
  6  7  1  0
  7  8  2  0
  8  9  1  0
  9 10  1  0
  9 11  2  0
  8 12  1  0
 12 13  1  0
 13 14  2  0
 13 15  1  0
 15 16  2  0
 15 17  1  0
 17 18  2  0
 17 19  1  0
 19 20  1  0
 20 21  1  0
 21 22  2  0
 21 23  1  0
 20 24  1  0
 24 25  1  0
 12 26  1  0
 26 27  2  0
 27  3  1  0
 26  6  1  0
 25 20  1  0
  1 28  1  0
  4 29  1  0
  5 30  1  0
  7 31  1  0
 10 32  1  0
 16 33  1  0
 16 34  1  0
 19 35  1  0
 24 36  1  0
 24 37  1  0
 25 38  1  0
 25 39  1  0
 27 40  1  0
M  CHG  2  10  -1  23  -1
M  END
>  <UniqueID>  (32) 
32

>  <SMILES>  (32) 
C#Cc1ccc2cc(C([NH-])=O)n(C(=O)C(=C)C(=O)NC3(C(=O)[O-])CC3)c2c1

>  <Energy>  (32) 
347.1954339388901

>  <Genealogy>  (32) 
C#Cc1ccc2cc(C([NH-])=O)n(C(=O)C(=C)C(=O)NC3(C(=O)[O-])CC3)c2c1 (protonated)
C#Cc1ccc2cc(C([NH-])=O)n(C(=O)C(=C)C(=O)NC3(C(=O)[O-])CC3)c2c1 (3D coordinates assigned)
C#Cc1ccc2cc(C([NH-])=O)n(C(=O)C(=C)C(=O)NC3(C(=O)[O-])CC3)c2c1 (nonaromatic ring conformer: 347.1954339388901 kcal/mol)

>  <smiles>  (32) 
C#Cc1ccc2cc(C(N)=O)n(C(=O)C(=C)C(=O)NC3(C(=O)O)CC3)c2c1

>  <score_type>  (32) 
oracle

>  <origin>  (32) 
adg

>  <m_score__min__energy>  (32) 
-9.0199999999999996

>  <m_primary>  (32) 
energy

$$$$
32:0
     RDKit          3D

 59 61  0  0  0  0  0  0  0  0999 V2000
  149.5380  154.9580  139.3280 C   0  0  0  0  0  0  0  0  0  0  0  0
  148.2920  154.1330  139.3500 C   0  0  0  0  0  0  0  0  0  0  0  0
  147.3830  154.1820  140.2950 O   0  0  0  0  0  0  0  0  0  0  0  0
  146.4440  153.3380  139.9330 C   0  0  0  0  0  0  0  0  0  0  0  0
  145.4020  153.1220  140.6050 O   0  0  0  0  0  0  0  0  0  0  0  0
  146.7080  152.7490  138.7900 O   0  0  0  0  0  0  0  0  0  0  0  0
  147.8620  153.2320  138.3940 C   0  0  0  0  0  0  0  0  0  0  0  0
  148.5730  152.8180  137.1410 C   0  0  0  0  0  0  0  0  0  0  0  0
  147.7500  153.0640  136.0040 O   0  0  0  0  0  0  0  0  0  0  0  0
  146.8410  154.1270  135.9250 C   0  0  0  0  0  0  0  0  0  0  0  0
  145.8550  154.1740  136.7120 O   0  0  0  0  0  0  0  0  0  0  0  0
  147.0250  155.1600  134.9400 N   0  0  0  0  0  0  0  0  0  0  0  0
  147.9400  156.2700  135.2220 C   0  0  0  0  0  0  0  0  0  0  0  0
  146.3230  155.0850  133.6490 C   0  0  0  0  0  0  0  0  0  0  0  0
  145.1500  154.0960  133.6940 C   0  0  0  0  0  0  0  0  0  0  0  0
  143.7950  154.7940  133.8520 C   0  0  0  0  0  0  0  0  0  0  0  0
  142.7140  153.7980  133.8630 N   0  0  0  0  0  0  0  0  0  0  0  0
  142.1820  153.3090  132.5910 C   0  0  0  0  0  0  0  0  0  0  0  0
  142.0650  153.4210  135.0950 C   0  0  0  0  0  0  0  0  0  0  0  0
  141.6500  152.2420  135.2570 O   0  0  0  0  0  0  0  0  0  0  0  0
  141.8800  154.3750  136.1500 N   0  0  0  0  0  0  0  0  0  0  0  0
  142.2000  154.2320  137.4660 C   0  0  0  0  0  0  0  0  0  0  0  0
  142.7850  153.0110  138.0680 C   0  0  0  0  0  0  0  0  0  0  0  0
  144.1720  152.9490  138.4160 N   0  0  0  0  0  0  0  0  0  0  0  0
  142.0590  152.0060  138.2910 O   0  0  0  0  0  0  0  0  0  0  0  0
  141.8980  155.4050  138.1610 C   0  0  0  0  0  0  0  0  0  0  0  0
  141.3770  156.2660  137.2190 C   0  0  0  0  0  0  0  0  0  0  0  0
  140.9390  157.5800  137.3480 C   0  0  0  0  0  0  0  0  0  0  0  0
  140.4770  158.2360  136.1940 C   0  0  0  0  0  0  0  0  0  0  0  0
  140.4380  157.5650  134.9430 C   0  0  0  0  0  0  0  0  0  0  0  0
  140.0100  158.3010  133.6980 C   0  0  0  0  0  0  0  0  0  0  0  0
  140.2800  159.6540  133.8130 F   0  0  0  0  0  0  0  0  0  0  0  0
  138.6500  158.1490  133.4830 F   0  0  0  0  0  0  0  0  0  0  0  0
  140.6990  157.7950  132.6120 F   0  0  0  0  0  0  0  0  0  0  0  0
  140.9090  156.2340  134.8510 C   0  0  0  0  0  0  0  0  0  0  0  0
  141.3700  155.6140  136.0150 C   0  0  0  0  0  0  0  0  0  0  0  0
  149.8564  155.1688  140.3596 H   0  0  0  0  0  0  0  0  0  0  0  0
  150.3332  154.4073  138.8041 H   0  0  0  0  0  0  0  0  0  0  0  0
  149.3415  155.9051  138.8041 H   0  0  0  0  0  0  0  0  0  0  0  0
  149.5058  153.3931  137.0456 H   0  0  0  0  0  0  0  0  0  0  0  0
  148.7986  151.7427  137.1949 H   0  0  0  0  0  0  0  0  0  0  0  0
  148.0420  156.3937  136.3103 H   0  0  0  0  0  0  0  0  0  0  0  0
  148.9254  156.0533  134.7837 H   0  0  0  0  0  0  0  0  0  0  0  0
  147.5393  157.1959  134.7837 H   0  0  0  0  0  0  0  0  0  0  0  0
  145.9373  156.0834  133.3950 H   0  0  0  0  0  0  0  0  0  0  0  0
  147.0382  154.7326  132.8911 H   0  0  0  0  0  0  0  0  0  0  0  0
  145.1411  153.5175  132.7584 H   0  0  0  0  0  0  0  0  0  0  0  0
  145.2947  153.4480  134.5710 H   0  0  0  0  0  0  0  0  0  0  0  0
  143.7826  155.3553  134.7979 H   0  0  0  0  0  0  0  0  0  0  0  0
  143.6430  155.4822  133.0074 H   0  0  0  0  0  0  0  0  0  0  0  0
  141.3848  152.5762  132.7845 H   0  0  0  0  0  0  0  0  0  0  0  0
  141.7728  154.1528  132.0161 H   0  0  0  0  0  0  0  0  0  0  0  0
  142.9884  152.8303  132.0161 H   0  0  0  0  0  0  0  0  0  0  0  0
  144.8020  153.7730  138.3150 H   0  0  0  0  0  0  0  0  0  0  0  0
  144.5570  152.0830  138.8570 H   0  0  0  0  0  0  0  0  0  0  0  0
  142.0448  155.6006  139.2335 H   0  0  0  0  0  0  0  0  0  0  0  0
  140.9537  158.0897  138.3227 H   0  0  0  0  0  0  0  0  0  0  0  0
  140.1417  159.2815  136.2606 H   0  0  0  0  0  0  0  0  0  0  0  0
  140.9121  155.7015  133.8885 H   0  0  0  0  0  0  0  0  0  0  0  0
  1  2  1  0
  2  3  1  0
  3  4  1  0
  4  5  2  0
  4  6  1  0
  6  7  1  0
  7  8  1  0
  8  9  1  0
  9 10  1  0
 10 11  2  0
 10 12  1  0
 12 13  1  0
 12 14  1  0
 14 15  1  0
 15 16  1  0
 16 17  1  0
 17 18  1  0
 17 19  1  0
 19 20  2  0
 19 21  1  0
 21 22  1  0
 22 23  1  0
 23 24  1  0
 23 25  2  0
 22 26  2  0
 26 27  1  0
 27 28  2  0
 28 29  1  0
 29 30  2  0
 30 31  1  0
 31 32  1  0
 31 33  1  0
 31 34  1  0
 30 35  1  0
 35 36  2  0
  7  2  2  0
 36 21  1  0
 36 27  1  0
  1 37  1  0
  1 38  1  0
  1 39  1  0
  8 40  1  0
  8 41  1  0
 13 42  1  0
 13 43  1  0
 13 44  1  0
 14 45  1  0
 14 46  1  0
 15 47  1  0
 15 48  1  0
 16 49  1  0
 16 50  1  0
 18 51  1  0
 18 52  1  0
 18 53  1  0
 24 54  1  0
 24 55  1  0
 26 56  1  0
 28 57  1  0
 29 58  1  0
 35 59  1  0
M  END
>  <UniqueID>  (33) 
33

>  <SMILES>  (33) 
Cc1oc(=O)oc1COC(=O)N(C)CCCN(C)C(=O)n1c(C(N)=O)cc2ccc(C(F)(F)F)cc21

>  <Energy>  (33) 
118.67224841089198

>  <Genealogy>  (33) 
Cc1oc(=O)oc1COC(=O)N(C)CCCN(C)C(=O)n1c(C(N)=O)cc2ccc(C(F)(F)F)cc21 (3D coordinates assigned)
Cc1oc(=O)oc1COC(=O)N(C)CCCN(C)C(=O)n1c(C(N)=O)cc2ccc(C(F)(F)F)cc21 (optimized conformer: 118.67224841089198 kcal/mol)

>  <smiles>  (33) 
Cc1oc(=O)oc1COC(=O)N(C)CCCN(C)C(=O)n1c(C(N)=O)cc2ccc(C(F)(F)F)cc21

>  <score_type>  (33) 
oracle

>  <origin>  (33) 
adg

>  <m_score__min__energy>  (33) 
-7.8700000000000001

>  <m_primary>  (33) 
energy

$$$$
33:0
     RDKit          3D

 59 62  0  0  0  0  0  0  0  0999 V2000
  142.2560  153.5880  132.6730 C   0  0  0  0  0  0  0  0  0  0  0  0
  143.0050  152.5560  133.5300 C   0  0  0  0  0  0  0  0  0  0  0  0
  143.0140  153.0360  134.9940 C   0  0  0  0  0  0  0  0  0  0  0  0
  142.2890  151.1980  133.4090 C   0  0  0  0  0  0  0  0  0  0  0  0
  144.3420  152.4710  133.0180 O   0  0  0  0  0  0  0  0  0  0  0  0
  144.9950  153.4310  132.2280 C   0  0  0  0  0  0  0  0  0  0  0  0
  144.4850  153.8310  131.1470 O   0  0  0  0  0  0  0  0  0  0  0  0
  146.2600  153.9590  132.6610 N   0  0  0  0  0  0  0  0  0  0  0  0
  147.4640  153.3210  132.6470 C   0  0  0  0  0  0  0  0  0  0  0  0
  147.6830  151.8950  132.3400 C   0  0  0  0  0  0  0  0  0  0  0  0
  146.6620  151.1050  131.7310 N   0  0  0  0  0  0  0  0  0  0  0  0
  148.7710  151.3500  132.6700 O   0  0  0  0  0  0  0  0  0  0  0  0
  148.4860  154.1920  133.0140 C   0  0  0  0  0  0  0  0  0  0  0  0
  147.8650  155.3930  133.2700 C   0  0  0  0  0  0  0  0  0  0  0  0
  148.4080  156.6130  133.6560 C   0  0  0  0  0  0  0  0  0  0  0  0
  147.5360  157.7040  133.8080 C   0  0  0  0  0  0  0  0  0  0  0  0
  146.1450  157.5630  133.5610 C   0  0  0  0  0  0  0  0  0  0  0  0
  145.2360  158.7290  133.7080 C   0  0  0  0  0  0  0  0  0  0  0  0
  145.7110  160.0380  133.5260 C   0  0  0  0  0  0  0  0  0  0  0  0
  144.8700  161.0980  133.6520 N   0  0  0  0  0  0  0  0  0  0  0  0
  143.5580  160.9400  133.9700 C   0  0  0  0  0  0  0  0  0  0  0  0
  143.0320  159.6570  134.1810 C   0  0  0  0  0  0  0  0  0  0  0  0
  141.6020  159.4640  134.5110 C   0  0  0  0  0  0  0  0  0  0  0  0
  141.1640  159.9000  135.6110 O   0  0  0  0  0  0  0  0  0  0  0  0
  140.6980  158.8000  133.6070 N   0  0  0  0  0  0  0  0  0  0  0  0
  140.8230  158.9460  132.1530 C   0  0  0  0  0  0  0  0  0  0  0  0
  139.4290  159.0900  131.5350 C   0  0  0  0  0  0  0  0  0  0  0  0
  138.5830  158.0340  131.9490 O   0  0  0  0  0  0  0  0  0  0  0  0
  138.3620  158.1130  133.3440 C   0  0  0  0  0  0  0  0  0  0  0  0
  139.6670  157.8900  134.1160 C   0  0  0  0  0  0  0  0  0  0  0  0
  143.8820  158.5510  134.0330 C   0  0  0  0  0  0  0  0  0  0  0  0
  145.6330  156.3030  133.1670 C   0  0  0  0  0  0  0  0  0  0  0  0
  146.5220  155.2280  133.0470 C   0  0  0  0  0  0  0  0  0  0  0  0
  141.7374  154.3025  133.3292 H   0  0  0  0  0  0  0  0  0  0  0  0
  142.9740  154.1278  132.0381 H   0  0  0  0  0  0  0  0  0  0  0  0
  141.5203  153.0726  132.0381 H   0  0  0  0  0  0  0  0  0  0  0  0
  142.9977  152.1649  135.6656 H   0  0  0  0  0  0  0  0  0  0  0  0
  143.9234  153.6260  135.1808 H   0  0  0  0  0  0  0  0  0  0  0  0
  142.1274  153.6597  135.1808 H   0  0  0  0  0  0  0  0  0  0  0  0
  142.0805  150.8026  134.4141 H   0  0  0  0  0  0  0  0  0  0  0  0
  141.3430  151.3296  132.8632 H   0  0  0  0  0  0  0  0  0  0  0  0
  142.9320  150.4918  132.8632 H   0  0  0  0  0  0  0  0  0  0  0  0
  146.8510  150.1110  131.4740 H   0  0  0  0  0  0  0  0  0  0  0  0
  145.6960  151.4800  131.6020 H   0  0  0  0  0  0  0  0  0  0  0  0
  149.5606  153.9680  133.0844 H   0  0  0  0  0  0  0  0  0  0  0  0
  149.4876  156.7209  133.8370 H   0  0  0  0  0  0  0  0  0  0  0  0
  147.9358  158.6794  134.1222 H   0  0  0  0  0  0  0  0  0  0  0  0
  146.7699  160.2062  133.2801 H   0  0  0  0  0  0  0  0  0  0  0  0
  142.9064  161.8214  134.0622 H   0  0  0  0  0  0  0  0  0  0  0  0
  141.4203  159.8408  131.9239 H   0  0  0  0  0  0  0  0  0  0  0  0
  141.3202  158.0579  131.7357 H   0  0  0  0  0  0  0  0  0  0  0  0
  138.9913  160.0480  131.8523 H   0  0  0  0  0  0  0  0  0  0  0  0
  139.5243  159.0560  130.4397 H   0  0  0  0  0  0  0  0  0  0  0  0
  137.9632  159.1082  133.5900 H   0  0  0  0  0  0  0  0  0  0  0  0
  137.6443  157.3306  133.6318 H   0  0  0  0  0  0  0  0  0  0  0  0
  139.4989  158.0876  135.1850 H   0  0  0  0  0  0  0  0  0  0  0  0
  139.9984  156.8496  133.9830 H   0  0  0  0  0  0  0  0  0  0  0  0
  143.4840  157.5351  134.1729 H   0  0  0  0  0  0  0  0  0  0  0  0
  144.5607  156.1717  132.9598 H   0  0  0  0  0  0  0  0  0  0  0  0
  1  2  1  0
  2  3  1  0
  2  4  1  0
  2  5  1  0
  5  6  1  0
  6  7  2  0
  6  8  1  0
  8  9  1  0
  9 10  1  0
 10 11  1  0
 10 12  2  0
  9 13  2  0
 13 14  1  0
 14 15  2  0
 15 16  1  0
 16 17  2  0
 17 18  1  0
 18 19  2  0
 19 20  1  0
 20 21  2  0
 21 22  1  0
 22 23  1  0
 23 24  2  0
 23 25  1  0
 25 26  1  0
 26 27  1  0
 27 28  1  0
 28 29  1  0
 29 30  1  0
 22 31  2  0
 17 32  1  0
 32 33  2  0
 33  8  1  0
 33 14  1  0
 31 18  1  0
 30 25  1  0
  1 34  1  0
  1 35  1  0
  1 36  1  0
  3 37  1  0
  3 38  1  0
  3 39  1  0
  4 40  1  0
  4 41  1  0
  4 42  1  0
 11 43  1  0
 11 44  1  0
 13 45  1  0
 15 46  1  0
 16 47  1  0
 19 48  1  0
 21 49  1  0
 26 50  1  0
 26 51  1  0
 27 52  1  0
 27 53  1  0
 29 54  1  0
 29 55  1  0
 30 56  1  0
 30 57  1  0
 31 58  1  0
 32 59  1  0
M  END
>  <UniqueID>  (34) 
34

>  <SMILES>  (34) 
CC(C)(C)OC(=O)n1c(C(N)=O)cc2ccc(-c3cncc(C(=O)N4CCOCC4)c3)cc21

>  <Energy>  (34) 
108.93008321159171

>  <Genealogy>  (34) 
CC(C)(C)OC(=O)n1c(C(N)=O)cc2ccc(-c3cncc(C(=O)N4CCOCC4)c3)cc21 (3D coordinates assigned)
CC(C)(C)OC(=O)n1c(C(N)=O)cc2ccc(-c3cncc(C(=O)N4CCOCC4)c3)cc21 (nonaromatic ring conformer: 108.93008321159171 kcal/mol)

>  <smiles>  (34) 
CC(C)(C)OC(=O)n1c(C(N)=O)cc2ccc(-c3cncc(C(=O)N4CCOCC4)c3)cc21

>  <score_type>  (34) 
oracle

>  <origin>  (34) 
adg

>  <m_score__min__energy>  (34) 
-9.7599999999999998

>  <m_primary>  (34) 
energy

$$$$
34:0
     RDKit          3D

 47 49  0  0  0  0  0  0  0  0999 V2000
  140.1950  156.0680  133.7230 C   0  0  0  0  0  0  0  0  0  0  0  0
  139.2740  157.2060  133.8990 N   0  0  0  0  0  0  0  0  0  0  0  0
  139.4000  157.8130  135.2410 C   0  0  0  0  0  0  0  0  0  0  0  0
  140.7600  158.5100  135.4270 C   0  0  0  0  0  0  0  0  0  0  0  0
  141.1750  159.1750  134.1880 N   0  0  0  0  0  0  0  0  0  0  0  0
  142.5630  159.4890  133.9650 C   0  0  0  0  0  0  0  0  0  0  0  0
  142.9640  160.8300  133.7290 C   0  0  0  0  0  0  0  0  0  0  0  0
  144.3140  161.1490  133.5110 C   0  0  0  0  0  0  0  0  0  0  0  0
  145.2430  160.1130  133.5480 C   0  0  0  0  0  0  0  0  0  0  0  0
  146.6050  160.1320  133.3450 C   0  0  0  0  0  0  0  0  0  0  0  0
  147.0180  158.8100  133.4960 C   0  0  0  0  0  0  0  0  0  0  0  0
  148.4290  158.3790  133.4010 C   0  0  0  0  0  0  0  0  0  0  0  0
  148.7930  156.9990  133.4730 N   0  0  0  0  0  0  0  0  0  0  0  0
  149.3350  159.2480  133.2970 O   0  0  0  0  0  0  0  0  0  0  0  0
  145.9530  158.0050  133.7660 N   0  0  0  0  0  0  0  0  0  0  0  0
  145.9290  156.5740  133.8850 C   0  0  0  0  0  0  0  0  0  0  0  0
  145.5840  156.0490  134.9770 O   0  0  0  0  0  0  0  0  0  0  0  0
  146.2540  155.7150  132.7340 C   0  0  0  0  0  0  0  0  0  0  0  0
  147.0200  156.1340  131.8260 O   0  0  0  0  0  0  0  0  0  0  0  0
  145.5540  154.0680  132.5970 S   0  0  0  0  0  0  0  0  0  0  0  0
  147.1380  153.2050  132.8770 C   0  0  0  0  0  0  0  0  0  0  0  0
  148.0980  154.0880  133.6050 C   0  0  0  0  0  0  0  0  0  0  0  0
  147.8760  154.4110  134.8020 O   0  0  0  0  0  0  0  0  0  0  0  0
  149.2230  154.5790  132.9560 O   0  0  0  0  0  0  0  0  0  0  0  0
  144.8770  158.8170  133.7980 C   0  0  0  0  0  0  0  0  0  0  0  0
  143.5380  158.4680  134.0030 C   0  0  0  0  0  0  0  0  0  0  0  0
  140.1550  159.4740  133.1790 C   0  0  0  0  0  0  0  0  0  0  0  0
  139.3950  158.1910  132.7910 C   0  0  0  0  0  0  0  0  0  0  0  0
  140.5019  155.6888  134.7089 H   0  0  0  0  0  0  0  0  0  0  0  0
  139.6869  155.2681  133.1644 H   0  0  0  0  0  0  0  0  0  0  0  0
  141.0832  156.3981  133.1644 H   0  0  0  0  0  0  0  0  0  0  0  0
  138.5986  158.5548  135.3731 H   0  0  0  0  0  0  0  0  0  0  0  0
  139.3220  157.0099  135.9886 H   0  0  0  0  0  0  0  0  0  0  0  0
  140.6753  159.2591  136.2280 H   0  0  0  0  0  0  0  0  0  0  0  0
  141.5126  157.7524  135.6911 H   0  0  0  0  0  0  0  0  0  0  0  0
  142.2081  161.6290  133.7167 H   0  0  0  0  0  0  0  0  0  0  0  0
  144.6277  162.1853  133.3170 H   0  0  0  0  0  0  0  0  0  0  0  0
  147.2329  161.0049  133.1131 H   0  0  0  0  0  0  0  0  0  0  0  0
  148.1000  156.2690  133.7500 H   0  0  0  0  0  0  0  0  0  0  0  0
  149.7880  156.7140  133.3420 H   0  0  0  0  0  0  0  0  0  0  0  0
  146.9554  152.2997  133.4746 H   0  0  0  0  0  0  0  0  0  0  0  0
  147.5724  152.9374  131.9025 H   0  0  0  0  0  0  0  0  0  0  0  0
  143.2511  157.4226  134.1895 H   0  0  0  0  0  0  0  0  0  0  0  0
  139.4442  160.2073  133.5877 H   0  0  0  0  0  0  0  0  0  0  0  0
  140.6460  159.8837  132.2840 H   0  0  0  0  0  0  0  0  0  0  0  0
  138.3828  158.4727  132.4654 H   0  0  0  0  0  0  0  0  0  0  0  0
  139.9744  157.7048  131.9923 H   0  0  0  0  0  0  0  0  0  0  0  0
  1  2  1  0
  2  3  1  0
  3  4  1  0
  4  5  1  0
  5  6  1  0
  6  7  2  0
  7  8  1  0
  8  9  2  0
  9 10  1  0
 10 11  2  0
 11 12  1  0
 12 13  1  0
 12 14  2  0
 11 15  1  0
 15 16  1  0
 16 17  2  0
 16 18  1  0
 18 19  2  0
 18 20  1  0
 20 21  1  0
 21 22  1  0
 22 23  2  0
 22 24  1  0
 15 25  1  0
 25 26  2  0
  5 27  1  0
 27 28  1  0
 28  2  1  0
 26  6  1  0
 25  9  1  0
  1 29  1  0
  1 30  1  0
  1 31  1  0
  3 32  1  0
  3 33  1  0
  4 34  1  0
  4 35  1  0
  7 36  1  0
  8 37  1  0
 10 38  1  0
 13 39  1  0
 13 40  1  0
 21 41  1  0
 21 42  1  0
 26 43  1  0
 27 44  1  0
 27 45  1  0
 28 46  1  0
 28 47  1  0
M  CHG  1  24  -1
M  END
>  <UniqueID>  (35) 
35

>  <SMILES>  (35) 
CN1CCN(c2ccc3cc(C(N)=O)n(C(=O)C(=O)SCC(=O)[O-])c3c2)CC1

>  <Energy>  (35) 
94.47867737429134

>  <Genealogy>  (35) 
CN1CCN(c2ccc3cc(C(N)=O)n(C(=O)C(=O)SCC(=O)[O-])c3c2)CC1 (protonated)
CN1CCN(c2ccc3cc(C(N)=O)n(C(=O)C(=O)SCC(=O)[O-])c3c2)CC1 (3D coordinates assigned)
CN1CCN(c2ccc3cc(C(N)=O)n(C(=O)C(=O)SCC(=O)[O-])c3c2)CC1 (nonaromatic ring conformer: 94.47867737429134 kcal/mol)

>  <smiles>  (35) 
CN1CCN(c2ccc3cc(C(N)=O)n(C(=O)C(=O)SCC(=O)O)c3c2)CC1

>  <score_type>  (35) 
oracle

>  <origin>  (35) 
adg

>  <m_score__min__energy>  (35) 
-8.5500000000000007

>  <m_primary>  (35) 
energy

$$$$
35:0
     RDKit          3D

 36 37  0  0  0  0  0  0  0  0999 V2000
  136.4040  160.1060  130.3530 C   0  0  0  0  0  0  0  0  0  0  0  0
  137.2630  160.2660  131.4750 O   0  0  0  0  0  0  0  0  0  0  0  0
  138.5320  159.6830  131.5420 C   0  0  0  0  0  0  0  0  0  0  0  0
  139.5690  160.3980  131.5550 O   0  0  0  0  0  0  0  0  0  0  0  0
  138.6550  158.1930  131.5510 C   0  0  0  0  0  0  0  0  0  0  0  0
  139.3340  157.7410  132.8140 C   0  0  0  0  0  0  0  0  0  0  0  0
  139.2630  158.5380  133.9840 C   0  0  0  0  0  0  0  0  0  0  0  0
  139.8750  158.1160  135.1750 C   0  0  0  0  0  0  0  0  0  0  0  0
  140.5320  156.8890  135.1720 C   0  0  0  0  0  0  0  0  0  0  0  0
  141.2240  156.2520  136.1770 C   0  0  0  0  0  0  0  0  0  0  0  0
  141.6730  155.0580  135.6180 C   0  0  0  0  0  0  0  0  0  0  0  0
  142.3910  154.0210  136.3870 C   0  0  0  0  0  0  0  0  0  0  0  0
  143.1480  153.0110  135.7260 N   0  0  0  0  0  0  0  0  0  0  0  0
  142.2950  153.9980  137.6430 O   0  0  0  0  0  0  0  0  0  0  0  0
  141.2830  154.9630  134.3160 N   0  0  0  0  0  0  0  0  0  0  0  0
  141.6190  153.9340  133.3720 C   0  0  0  0  0  0  0  0  0  0  0  0
  142.8270  153.7180  133.0810 O   0  0  0  0  0  0  0  0  0  0  0  0
  140.6030  153.1650  132.7930 O   0  0  0  0  0  0  0  0  0  0  0  0
  140.5720  151.7420  132.8490 C   0  0  0  0  0  0  0  0  0  0  0  0
  141.5040  151.2580  133.8590 N   0  0  0  0  0  0  0  0  0  0  0  0
  142.6300  150.8400  133.5210 O   0  0  0  0  0  0  0  0  0  0  0  0
  141.0940  151.1230  135.1650 O   0  0  0  0  0  0  0  0  0  0  0  0
  140.5840  156.0910  134.0580 C   0  0  0  0  0  0  0  0  0  0  0  0
  140.0000  156.4960  132.8510 C   0  0  0  0  0  0  0  0  0  0  0  0
  135.3781  159.9149  130.7009 H   0  0  0  0  0  0  0  0  0  0  0  0
  136.4203  161.0226  129.7451 H   0  0  0  0  0  0  0  0  0  0  0  0
  136.7492  159.2567  129.7451 H   0  0  0  0  0  0  0  0  0  0  0  0
  137.6522  157.7443  131.4958 H   0  0  0  0  0  0  0  0  0  0  0  0
  139.2541  157.8748  130.6851 H   0  0  0  0  0  0  0  0  0  0  0  0
  138.7233  159.4962  133.9586 H   0  0  0  0  0  0  0  0  0  0  0  0
  139.8364  158.7361  136.0827 H   0  0  0  0  0  0  0  0  0  0  0  0
  141.3877  156.6101  137.2041 H   0  0  0  0  0  0  0  0  0  0  0  0
  142.7660  152.5160  134.8900 H   0  0  0  0  0  0  0  0  0  0  0  0
  139.5548  151.4105  133.1045 H   0  0  0  0  0  0  0  0  0  0  0  0
  140.8634  151.3377  131.8684 H   0  0  0  0  0  0  0  0  0  0  0  0
  140.0586  155.8607  131.9549 H   0  0  0  0  0  0  0  0  0  0  0  0
  1  2  1  0
  2  3  1  0
  3  4  2  0
  3  5  1  0
  5  6  1  0
  6  7  2  0
  7  8  1  0
  8  9  2  0
  9 10  1  0
 10 11  2  0
 11 12  1  0
 12 13  1  0
 12 14  2  0
 11 15  1  0
 15 16  1  0
 16 17  2  0
 16 18  1  0
 18 19  1  0
 19 20  1  0
 20 21  2  0
 20 22  1  0
 15 23  1  0
 23 24  2  0
 24  6  1  0
 23  9  1  0
  1 25  1  0
  1 26  1  0
  1 27  1  0
  5 28  1  0
  5 29  1  0
  7 30  1  0
  8 31  1  0
 10 32  1  0
 13 33  1  0
 19 34  1  0
 19 35  1  0
 24 36  1  0
M  CHG  3  13  -1  20   1  22  -1
M  END
>  <UniqueID>  (36) 
36

>  <SMILES>  (36) 
COC(=O)Cc1ccc2cc(C([NH-])=O)n(C(=O)OC[N+](=O)[O-])c2c1

>  <Energy>  (36) 
68.87888412729616

>  <Genealogy>  (36) 
COC(=O)Cc1ccc2cc(C([NH-])=O)n(C(=O)OC[N+](=O)[O-])c2c1 (protonated)
COC(=O)Cc1ccc2cc(C([NH-])=O)n(C(=O)OC[N+](=O)[O-])c2c1 (3D coordinates assigned)
COC(=O)Cc1ccc2cc(C([NH-])=O)n(C(=O)OC[N+](=O)[O-])c2c1 (optimized conformer: 68.87888412729616 kcal/mol)

>  <smiles>  (36) 
COC(=O)Cc1ccc2cc(C(N)=O)n(C(=O)OC[N+](=O)[O-])c2c1

>  <score_type>  (36) 
oracle

>  <origin>  (36) 
adg

>  <m_score__min__energy>  (36) 
-5.4500000000000002

>  <m_primary>  (36) 
energy

$$$$
36:0
     RDKit          3D

 43 44  0  0  0  0  0  0  0  0999 V2000
  140.8250  159.4150  136.6500 C   0  0  0  0  0  0  0  0  0  0  0  0
  141.4460  158.8540  135.3560 C   0  0  0  0  0  0  0  0  0  0  0  0
  141.4890  157.3200  135.4450 C   0  0  0  0  0  0  0  0  0  0  0  0
  140.6030  159.2610  134.1330 C   0  0  0  0  0  0  0  0  0  0  0  0
  142.8250  159.3320  135.2060 N   0  0  0  0  0  0  0  0  0  0  0  0
  143.5700  159.4330  133.9850 C   0  0  0  0  0  0  0  0  0  0  0  0
  144.0450  160.5390  133.6110 O   0  0  0  0  0  0  0  0  0  0  0  0
  143.7770  158.2340  133.1590 C   0  0  0  0  0  0  0  0  0  0  0  0
  142.8690  157.8600  132.3700 O   0  0  0  0  0  0  0  0  0  0  0  0
  145.0020  157.4900  133.2370 N   0  0  0  0  0  0  0  0  0  0  0  0
  145.1640  156.2020  133.6500 C   0  0  0  0  0  0  0  0  0  0  0  0
  144.0640  155.2730  134.0000 C   0  0  0  0  0  0  0  0  0  0  0  0
  142.8980  155.1730  133.1790 N   0  0  0  0  0  0  0  0  0  0  0  0
  144.1400  154.5680  135.0410 O   0  0  0  0  0  0  0  0  0  0  0  0
  146.5160  155.8540  133.6360 C   0  0  0  0  0  0  0  0  0  0  0  0
  147.1790  156.9820  133.2060 C   0  0  0  0  0  0  0  0  0  0  0  0
  148.5390  157.2050  133.0130 C   0  0  0  0  0  0  0  0  0  0  0  0
  148.9440  158.4800  132.5830 C   0  0  0  0  0  0  0  0  0  0  0  0
  147.9900  159.5080  132.3740 C   0  0  0  0  0  0  0  0  0  0  0  0
  148.4290  160.8650  131.8940 C   0  0  0  0  0  0  0  0  0  0  0  0
  149.1670  160.7620  130.5610 C   0  0  0  0  0  0  0  0  0  0  0  0
  149.5870  162.0140  130.1470 F   0  0  0  0  0  0  0  0  0  0  0  0
  146.6170  159.2420  132.5740 C   0  0  0  0  0  0  0  0  0  0  0  0
  146.2430  157.9560  132.9780 C   0  0  0  0  0  0  0  0  0  0  0  0
  141.3234  158.9647  137.5211 H   0  0  0  0  0  0  0  0  0  0  0  0
  140.9562  160.5068  136.6763 H   0  0  0  0  0  0  0  0  0  0  0  0
  139.7521  159.1739  136.6763 H   0  0  0  0  0  0  0  0  0  0  0  0
  141.4976  157.0141  136.5016 H   0  0  0  0  0  0  0  0  0  0  0  0
  140.6023  156.8989  134.9486 H   0  0  0  0  0  0  0  0  0  0  0  0
  142.3979  156.9493  134.9486 H   0  0  0  0  0  0  0  0  0  0  0  0
  139.6607  159.7160  134.4722 H   0  0  0  0  0  0  0  0  0  0  0  0
  141.1636  159.9877  133.5267 H   0  0  0  0  0  0  0  0  0  0  0  0
  140.3826  158.3701  133.5267 H   0  0  0  0  0  0  0  0  0  0  0  0
  142.1150  154.5400  133.4590 H   0  0  0  0  0  0  0  0  0  0  0  0
  142.8200  155.6870  132.2740 H   0  0  0  0  0  0  0  0  0  0  0  0
  146.9579  154.8847  133.9102 H   0  0  0  0  0  0  0  0  0  0  0  0
  149.2749  156.4072  133.1917 H   0  0  0  0  0  0  0  0  0  0  0  0
  150.0108  158.6824  132.4069 H   0  0  0  0  0  0  0  0  0  0  0  0
  147.5436  161.5051  131.7664 H   0  0  0  0  0  0  0  0  0  0  0  0
  149.1123  161.2964  132.6403 H   0  0  0  0  0  0  0  0  0  0  0  0
  150.0424  160.1066  130.6805 H   0  0  0  0  0  0  0  0  0  0  0  0
  148.4849  160.3452  129.8054 H   0  0  0  0  0  0  0  0  0  0  0  0
  145.8616  160.0259  132.4161 H   0  0  0  0  0  0  0  0  0  0  0  0
  1  2  1  0
  2  3  1  0
  2  4  1  0
  2  5  1  0
  5  6  1  0
  6  7  2  0
  6  8  1  0
  8  9  2  0
  8 10  1  0
 10 11  1  0
 11 12  1  0
 12 13  1  0
 12 14  2  0
 11 15  2  0
 15 16  1  0
 16 17  2  0
 17 18  1  0
 18 19  2  0
 19 20  1  0
 20 21  1  0
 21 22  1  0
 19 23  1  0
 23 24  2  0
 24 10  1  0
 24 16  1  0
  1 25  1  0
  1 26  1  0
  1 27  1  0
  3 28  1  0
  3 29  1  0
  3 30  1  0
  4 31  1  0
  4 32  1  0
  4 33  1  0
 13 34  1  0
 13 35  1  0
 15 36  1  0
 17 37  1  0
 18 38  1  0
 20 39  1  0
 20 40  1  0
 21 41  1  0
 21 42  1  0
 23 43  1  0
M  CHG  1   5  -1
M  END
>  <UniqueID>  (37) 
37

>  <SMILES>  (37) 
CC(C)(C)[N-]C(=O)C(=O)n1c(C(N)=O)cc2ccc(CCF)cc21

>  <Energy>  (37) 
72.51386904866004

>  <Genealogy>  (37) 
CC(C)(C)[N-]C(=O)C(=O)n1c(C(N)=O)cc2ccc(CCF)cc21 (protonated)
CC(C)(C)[N-]C(=O)C(=O)n1c(C(N)=O)cc2ccc(CCF)cc21 (3D coordinates assigned)
CC(C)(C)[N-]C(=O)C(=O)n1c(C(N)=O)cc2ccc(CCF)cc21 (optimized conformer: 72.51386904866004 kcal/mol)

>  <smiles>  (37) 
CC(C)(C)NC(=O)C(=O)n1c(C(N)=O)cc2ccc(CCF)cc21

>  <score_type>  (37) 
oracle

>  <origin>  (37) 
adg

>  <m_score__min__energy>  (37) 
-7.6100000000000003

>  <m_primary>  (37) 
energy

$$$$
37:0
     RDKit          3D

 47 48  0  0  0  0  0  0  0  0999 V2000
  149.8810  151.5610  132.2530 C   0  0  0  0  0  0  0  0  0  0  0  0
  148.7010  152.4290  132.3340 N   0  0  0  0  0  0  0  0  0  0  0  0
  147.3570  151.8470  132.2520 C   0  0  0  0  0  0  0  0  0  0  0  0
  148.8860  153.8510  132.5140 C   0  0  0  0  0  0  0  0  0  0  0  0
  150.0560  154.3240  132.5460 O   0  0  0  0  0  0  0  0  0  0  0  0
  147.7240  154.7840  132.7540 C   0  0  0  0  0  0  0  0  0  0  0  0
  148.1920  156.0970  133.1990 N   0  0  0  0  0  0  0  0  0  0  0  0
  147.3470  157.2580  133.3310 C   0  0  0  0  0  0  0  0  0  0  0  0
  147.9480  158.5340  133.4630 C   0  0  0  0  0  0  0  0  0  0  0  0
  147.1630  159.6920  133.5970 C   0  0  0  0  0  0  0  0  0  0  0  0
  145.7810  159.5460  133.5850 C   0  0  0  0  0  0  0  0  0  0  0  0
  144.7890  160.4900  133.7360 C   0  0  0  0  0  0  0  0  0  0  0  0
  143.5930  159.7800  133.6690 C   0  0  0  0  0  0  0  0  0  0  0  0
  142.2600  160.4100  133.7750 C   0  0  0  0  0  0  0  0  0  0  0  0
  141.1390  159.6950  134.2950 N   0  0  0  0  0  0  0  0  0  0  0  0
  142.0990  161.5860  133.3560 O   0  0  0  0  0  0  0  0  0  0  0  0
  143.8330  158.4520  133.4860 N   0  0  0  0  0  0  0  0  0  0  0  0
  142.8750  157.3800  133.5210 C   0  0  0  0  0  0  0  0  0  0  0  0
  141.8440  157.4540  132.7990 O   0  0  0  0  0  0  0  0  0  0  0  0
  143.0660  156.2380  134.3790 N   0  0  0  0  0  0  0  0  0  0  0  0
  143.7390  155.0510  133.8430 C   0  0  0  0  0  0  0  0  0  0  0  0
  142.6410  156.2590  135.7850 C   0  0  0  0  0  0  0  0  0  0  0  0
  141.6550  157.3590  136.0170 C   0  0  0  0  0  0  0  0  0  0  0  0
  142.0390  158.4640  136.4820 O   0  0  0  0  0  0  0  0  0  0  0  0
  140.3070  157.1550  135.7510 O   0  0  0  0  0  0  0  0  0  0  0  0
  145.1780  158.3230  133.4450 C   0  0  0  0  0  0  0  0  0  0  0  0
  145.9340  157.1510  133.3350 C   0  0  0  0  0  0  0  0  0  0  0  0
  150.2220  151.3101  133.2683 H   0  0  0  0  0  0  0  0  0  0  0  0
  149.6207  150.6375  131.7150 H   0  0  0  0  0  0  0  0  0  0  0  0
  150.6850  152.0845  131.7150 H   0  0  0  0  0  0  0  0  0  0  0  0
  146.9679  151.6785  133.2670 H   0  0  0  0  0  0  0  0  0  0  0  0
  146.6907  152.5372  131.7138 H   0  0  0  0  0  0  0  0  0  0  0  0
  147.4045  150.8889  131.7138 H   0  0  0  0  0  0  0  0  0  0  0  0
  147.1574  154.9016  131.8185 H   0  0  0  0  0  0  0  0  0  0  0  0
  147.0845  154.3542  133.5390 H   0  0  0  0  0  0  0  0  0  0  0  0
  149.2100  156.1930  133.4200 H   0  0  0  0  0  0  0  0  0  0  0  0
  149.0447  158.6197  133.4606 H   0  0  0  0  0  0  0  0  0  0  0  0
  147.6278  160.6828  133.7079 H   0  0  0  0  0  0  0  0  0  0  0  0
  144.9149  161.5734  133.8790 H   0  0  0  0  0  0  0  0  0  0  0  0
  141.1870  158.6680  134.4740 H   0  0  0  0  0  0  0  0  0  0  0  0
  140.2200  160.1760  134.4100 H   0  0  0  0  0  0  0  0  0  0  0  0
  144.0943  154.4243  134.6742 H   0  0  0  0  0  0  0  0  0  0  0  0
  143.0325  154.4761  133.2263 H   0  0  0  0  0  0  0  0  0  0  0  0
  144.5951  155.3620  133.2263 H   0  0  0  0  0  0  0  0  0  0  0  0
  142.1742  155.2953  136.0366 H   0  0  0  0  0  0  0  0  0  0  0  0
  143.5221  156.4307  136.4208 H   0  0  0  0  0  0  0  0  0  0  0  0
  145.4433  156.1699  133.2536 H   0  0  0  0  0  0  0  0  0  0  0  0
  1  2  1  0
  2  3  1  0
  2  4  1  0
  4  5  2  0
  4  6  1  0
  6  7  1  0
  7  8  1  0
  8  9  2  0
  9 10  1  0
 10 11  2  0
 11 12  1  0
 12 13  2  0
 13 14  1  0
 14 15  1  0
 14 16  2  0
 13 17  1  0
 17 18  1  0
 18 19  2  0
 18 20  1  0
 20 21  1  0
 20 22  1  0
 22 23  1  0
 23 24  2  0
 23 25  1  0
 17 26  1  0
 26 27  2  0
 27  8  1  0
 26 11  1  0
  1 28  1  0
  1 29  1  0
  1 30  1  0
  3 31  1  0
  3 32  1  0
  3 33  1  0
  6 34  1  0
  6 35  1  0
  7 36  1  0
  9 37  1  0
 10 38  1  0
 12 39  1  0
 15 40  1  0
 15 41  1  0
 21 42  1  0
 21 43  1  0
 21 44  1  0
 22 45  1  0
 22 46  1  0
 27 47  1  0
M  CHG  1  25  -1
M  END
>  <UniqueID>  (38) 
38

>  <SMILES>  (38) 
CN(C)C(=O)CNc1ccc2cc(C(N)=O)n(C(=O)N(C)CC(=O)[O-])c2c1

>  <Energy>  (38) 
78.8657444701316

>  <Genealogy>  (38) 
CN(C)C(=O)CNc1ccc2cc(C(N)=O)n(C(=O)N(C)CC(=O)[O-])c2c1 (protonated)
CN(C)C(=O)CNc1ccc2cc(C(N)=O)n(C(=O)N(C)CC(=O)[O-])c2c1 (3D coordinates assigned)
CN(C)C(=O)CNc1ccc2cc(C(N)=O)n(C(=O)N(C)CC(=O)[O-])c2c1 (optimized conformer: 78.8657444701316 kcal/mol)

>  <smiles>  (38) 
CN(C)C(=O)CNc1ccc2cc(C(N)=O)n(C(=O)N(C)CC(=O)O)c2c1

>  <score_type>  (38) 
oracle

>  <origin>  (38) 
adg

>  <m_score__min__energy>  (38) 
-7.0800000000000001

>  <m_primary>  (38) 
energy

$$$$
38:0
     RDKit          3D

 40 41  0  0  0  0  0  0  0  0999 V2000
  139.4540  157.9360  135.7970 C   0  0  0  0  0  0  0  0  0  0  0  0
  139.8720  158.2590  134.4270 N   0  0  0  0  0  0  0  0  0  0  0  0
  138.8940  158.1290  133.3390 C   0  0  0  0  0  0  0  0  0  0  0  0
  141.2280  158.6970  134.1520 C   0  0  0  0  0  0  0  0  0  0  0  0
  141.5700  160.0780  134.1910 C   0  0  0  0  0  0  0  0  0  0  0  0
  142.8780  160.5110  133.9160 C   0  0  0  0  0  0  0  0  0  0  0  0
  143.8330  159.5500  133.6120 C   0  0  0  0  0  0  0  0  0  0  0  0
  145.1620  159.6950  133.2800 C   0  0  0  0  0  0  0  0  0  0  0  0
  145.6320  158.4000  133.0610 C   0  0  0  0  0  0  0  0  0  0  0  0
  147.0400  158.0670  132.7440 C   0  0  0  0  0  0  0  0  0  0  0  0
  147.3570  156.9850  131.8670 N   0  0  0  0  0  0  0  0  0  0  0  0
  147.9770  158.7530  133.2310 O   0  0  0  0  0  0  0  0  0  0  0  0
  144.6330  157.4950  133.2560 N   0  0  0  0  0  0  0  0  0  0  0  0
  144.6960  156.0700  133.0840 C   0  0  0  0  0  0  0  0  0  0  0  0
  145.7790  155.4640  133.3070 O   0  0  0  0  0  0  0  0  0  0  0  0
  143.5270  155.3450  132.6700 N   0  0  0  0  0  0  0  0  0  0  0  0
  143.5280  153.9610  132.2960 C   0  0  0  0  0  0  0  0  0  0  0  0
  144.6020  153.3010  132.2770 O   0  0  0  0  0  0  0  0  0  0  0  0
  142.3190  153.3550  131.9370 O   0  0  0  0  0  0  0  0  0  0  0  0
  141.2780  153.0700  132.8680 C   0  0  0  0  0  0  0  0  0  0  0  0
  140.6660  154.3380  133.3700 C   0  0  0  0  0  0  0  0  0  0  0  0
  141.2930  155.0700  134.1810 O   0  0  0  0  0  0  0  0  0  0  0  0
  139.4040  154.7200  132.9300 O   0  0  0  0  0  0  0  0  0  0  0  0
  143.5380  158.2140  133.5880 C   0  0  0  0  0  0  0  0  0  0  0  0
  142.2410  157.7540  133.8340 C   0  0  0  0  0  0  0  0  0  0  0  0
  140.1153  158.4470  136.5122 H   0  0  0  0  0  0  0  0  0  0  0  0
  138.4176  158.2702  135.9526 H   0  0  0  0  0  0  0  0  0  0  0  0
  139.5159  156.8488  135.9526 H   0  0  0  0  0  0  0  0  0  0  0  0
  137.8883  157.9953  133.7640 H   0  0  0  0  0  0  0  0  0  0  0  0
  138.9123  159.0375  132.7191 H   0  0  0  0  0  0  0  0  0  0  0  0
  139.1490  157.2568  132.7191 H   0  0  0  0  0  0  0  0  0  0  0  0
  140.7967  160.8193  134.4408 H   0  0  0  0  0  0  0  0  0  0  0  0
  143.1378  161.5796  133.9408 H   0  0  0  0  0  0  0  0  0  0  0  0
  145.7317  160.6329  133.2038 H   0  0  0  0  0  0  0  0  0  0  0  0
  148.3520  156.7860  131.6200 H   0  0  0  0  0  0  0  0  0  0  0  0
  146.6170  156.3520  131.4910 H   0  0  0  0  0  0  0  0  0  0  0  0
  142.6170  155.8560  132.6340 H   0  0  0  0  0  0  0  0  0  0  0  0
  140.5041  152.4655  132.3724 H   0  0  0  0  0  0  0  0  0  0  0  0
  141.7022  152.5172  133.7192 H   0  0  0  0  0  0  0  0  0  0  0  0
  142.0091  156.6800  133.7821 H   0  0  0  0  0  0  0  0  0  0  0  0
  1  2  1  0
  2  3  1  0
  2  4  1  0
  4  5  2  0
  5  6  1  0
  6  7  2  0
  7  8  1  0
  8  9  2  0
  9 10  1  0
 10 11  1  0
 10 12  2  0
  9 13  1  0
 13 14  1  0
 14 15  2  0
 14 16  1  0
 16 17  1  0
 17 18  2  0
 17 19  1  0
 19 20  1  0
 20 21  1  0
 21 22  2  0
 21 23  1  0
 13 24  1  0
 24 25  2  0
 25  4  1  0
 24  7  1  0
  1 26  1  0
  1 27  1  0
  1 28  1  0
  3 29  1  0
  3 30  1  0
  3 31  1  0
  5 32  1  0
  6 33  1  0
  8 34  1  0
 11 35  1  0
 11 36  1  0
 16 37  1  0
 20 38  1  0
 20 39  1  0
 25 40  1  0
M  CHG  1  23  -1
M  END
>  <UniqueID>  (39) 
39

>  <SMILES>  (39) 
CN(C)c1ccc2cc(C(N)=O)n(C(=O)NC(=O)OCC(=O)[O-])c2c1

>  <Energy>  (39) 
77.78840001723822

>  <Genealogy>  (39) 
CN(C)c1ccc2cc(C(N)=O)n(C(=O)NC(=O)OCC(=O)[O-])c2c1 (protonated)
CN(C)c1ccc2cc(C(N)=O)n(C(=O)NC(=O)OCC(=O)[O-])c2c1 (3D coordinates assigned)
CN(C)c1ccc2cc(C(N)=O)n(C(=O)NC(=O)OCC(=O)[O-])c2c1 (optimized conformer: 77.78840001723822 kcal/mol)

>  <smiles>  (39) 
CN(C)c1ccc2cc(C(N)=O)n(C(=O)NC(=O)OCC(=O)O)c2c1

>  <score_type>  (39) 
oracle

>  <origin>  (39) 
adg

>  <m_score__min__energy>  (39) 
-6.4400000000000004

>  <m_primary>  (39) 
energy

$$$$
39:0
     RDKit          3D

 36 38  0  0  0  0  0  0  0  0999 V2000
  149.4680  157.9260  131.8760 N   0  0  0  0  0  0  0  0  0  0  0  0
  148.6920  158.9960  132.4080 C   0  0  0  0  0  0  0  0  0  0  0  0
  149.2330  160.1190  132.5940 O   0  0  0  0  0  0  0  0  0  0  0  0
  147.2800  158.7910  132.7970 C   0  0  0  0  0  0  0  0  0  0  0  0
  146.3230  159.8050  132.7710 C   0  0  0  0  0  0  0  0  0  0  0  0
  145.1790  159.2400  133.2860 C   0  0  0  0  0  0  0  0  0  0  0  0
  143.9150  159.7900  133.4740 C   0  0  0  0  0  0  0  0  0  0  0  0
  142.9070  158.9620  133.9930 C   0  0  0  0  0  0  0  0  0  0  0  0
  143.1780  157.6110  134.3170 C   0  0  0  0  0  0  0  0  0  0  0  0
  142.0770  156.7180  134.8180 C   0  0  0  0  0  0  0  0  0  0  0  0
  140.8040  157.1290  134.2360 N   0  0  0  0  0  0  0  0  0  0  0  0
  140.3420  156.8240  133.0130 C   0  0  0  0  0  0  0  0  0  0  0  0
  139.0970  157.3050  132.8320 N   0  0  0  0  0  0  0  0  0  0  0  0
  138.8410  157.9030  134.0160 C   0  0  0  0  0  0  0  0  0  0  0  0
  139.8680  157.7960  134.8820 N   0  0  0  0  0  0  0  0  0  0  0  0
  144.4690  157.0810  134.0990 C   0  0  0  0  0  0  0  0  0  0  0  0
  145.4600  157.9340  133.5970 C   0  0  0  0  0  0  0  0  0  0  0  0
  146.7440  157.6420  133.2980 N   0  0  0  0  0  0  0  0  0  0  0  0
  147.3690  156.3540  133.4120 C   0  0  0  0  0  0  0  0  0  0  0  0
  147.6600  155.7020  132.3730 O   0  0  0  0  0  0  0  0  0  0  0  0
  147.6280  155.8180  134.6790 O   0  0  0  0  0  0  0  0  0  0  0  0
  147.7060  154.4190  134.9370 C   0  0  0  0  0  0  0  0  0  0  0  0
  146.6640  154.0140  135.9320 C   0  0  0  0  0  0  0  0  0  0  0  0
  146.9030  153.0910  136.7540 O   0  0  0  0  0  0  0  0  0  0  0  0
  145.4210  154.6330  135.9320 O   0  0  0  0  0  0  0  0  0  0  0  0
  149.0100  157.0920  131.4460 H   0  0  0  0  0  0  0  0  0  0  0  0
  146.4547  160.8372  132.4145 H   0  0  0  0  0  0  0  0  0  0  0  0
  143.7116  160.8416  133.2236 H   0  0  0  0  0  0  0  0  0  0  0  0
  141.8964  159.3672  134.1494 H   0  0  0  0  0  0  0  0  0  0  0  0
  142.2911  155.6780  134.5307 H   0  0  0  0  0  0  0  0  0  0  0  0
  142.0171  156.7950  135.9137 H   0  0  0  0  0  0  0  0  0  0  0  0
  140.9058  156.2562  132.2583 H   0  0  0  0  0  0  0  0  0  0  0  0
  137.8982  158.4202  134.2477 H   0  0  0  0  0  0  0  0  0  0  0  0
  144.6903  156.0259  134.3178 H   0  0  0  0  0  0  0  0  0  0  0  0
  147.5452  153.8677  133.9988 H   0  0  0  0  0  0  0  0  0  0  0  0
  148.7002  154.1861  135.3461 H   0  0  0  0  0  0  0  0  0  0  0  0
  1  2  1  0
  2  3  2  0
  2  4  1  0
  4  5  2  0
  5  6  1  0
  6  7  2  0
  7  8  1  0
  8  9  2  0
  9 10  1  0
 10 11  1  0
 11 12  1  0
 12 13  2  0
 13 14  1  0
 14 15  2  0
  9 16  1  0
 16 17  2  0
 17 18  1  0
 18 19  1  0
 19 20  2  0
 19 21  1  0
 21 22  1  0
 22 23  1  0
 23 24  2  0
 23 25  1  0
 18  4  1  0
 17  6  1  0
 15 11  1  0
  1 26  1  0
  5 27  1  0
  7 28  1  0
  8 29  1  0
 10 30  1  0
 10 31  1  0
 12 32  1  0
 14 33  1  0
 16 34  1  0
 22 35  1  0
 22 36  1  0
M  CHG  2   1  -1  25  -1
M  END
>  <UniqueID>  (40) 
40

>  <SMILES>  (40) 
[NH-]C(=O)c1cc2ccc(Cn3cncn3)cc2n1C(=O)OCC(=O)[O-]

>  <Energy>  (40) 
106.2560683321526

>  <Genealogy>  (40) 
[NH-]C(=O)c1cc2ccc(Cn3cncn3)cc2n1C(=O)OCC(=O)[O-] (protonated)
[NH-]C(=O)c1cc2ccc(Cn3cncn3)cc2n1C(=O)OCC(=O)[O-] (3D coordinates assigned)
[NH-]C(=O)c1cc2ccc(Cn3cncn3)cc2n1C(=O)OCC(=O)[O-] (optimized conformer: 106.2560683321526 kcal/mol)

>  <smiles>  (40) 
NC(=O)c1cc2ccc(Cn3cncn3)cc2n1C(=O)OCC(=O)O

>  <score_type>  (40) 
oracle

>  <origin>  (40) 
adg

>  <m_score__min__energy>  (40) 
-6.6100000000000003

>  <m_primary>  (40) 
energy

$$$$
40:0
     RDKit          3D

 32 33  0  0  0  0  0  0  0  0999 V2000
  142.4790  158.3830  135.3760 N   0  0  0  0  0  0  0  0  0  0  0  0
  141.6370  158.2850  136.5230 C   0  0  0  0  0  0  0  0  0  0  0  0
  141.0400  159.3110  136.9410 O   0  0  0  0  0  0  0  0  0  0  0  0
  141.4990  156.9930  137.2250 C   0  0  0  0  0  0  0  0  0  0  0  0
  140.9370  156.8560  138.4950 C   0  0  0  0  0  0  0  0  0  0  0  0
  140.9210  155.5010  138.7420 C   0  0  0  0  0  0  0  0  0  0  0  0
  140.4730  154.7960  139.8560 C   0  0  0  0  0  0  0  0  0  0  0  0
  140.5960  153.3970  139.8430 C   0  0  0  0  0  0  0  0  0  0  0  0
  141.1740  152.7320  138.7310 C   0  0  0  0  0  0  0  0  0  0  0  0
  141.2800  151.2340  138.7180 C   0  0  0  0  0  0  0  0  0  0  0  0
  140.3330  150.6600  137.7120 C   0  0  0  0  0  0  0  0  0  0  0  0
  139.3010  150.0470  138.0920 O   0  0  0  0  0  0  0  0  0  0  0  0
  140.6150  150.7590  136.3560 O   0  0  0  0  0  0  0  0  0  0  0  0
  141.6050  153.4810  137.6130 C   0  0  0  0  0  0  0  0  0  0  0  0
  141.4590  154.8700  137.6510 C   0  0  0  0  0  0  0  0  0  0  0  0
  141.8230  155.7710  136.7160 N   0  0  0  0  0  0  0  0  0  0  0  0
  142.4720  155.4760  135.4700 C   0  0  0  0  0  0  0  0  0  0  0  0
  143.7290  155.5420  135.3900 O   0  0  0  0  0  0  0  0  0  0  0  0
  141.6700  155.1840  134.2380 C   0  0  0  0  0  0  0  0  0  0  0  0
  141.7490  156.2790  133.3280 O   0  0  0  0  0  0  0  0  0  0  0  0
  142.9520  156.7250  132.7700 C   0  0  0  0  0  0  0  0  0  0  0  0
  143.2480  157.9500  132.7530 O   0  0  0  0  0  0  0  0  0  0  0  0
  142.7550  157.5300  134.8400 H   0  0  0  0  0  0  0  0  0  0  0  0
  140.5823  157.6591  139.1577 H   0  0  0  0  0  0  0  0  0  0  0  0
  140.0362  155.3187  140.7197 H   0  0  0  0  0  0  0  0  0  0  0  0
  140.2407  152.8111  140.7035 H   0  0  0  0  0  0  0  0  0  0  0  0
  142.3084  150.9443  138.4562 H   0  0  0  0  0  0  0  0  0  0  0  0
  141.0242  150.8464  139.7152 H   0  0  0  0  0  0  0  0  0  0  0  0
  142.0440  152.9835  136.7357 H   0  0  0  0  0  0  0  0  0  0  0  0
  142.0653  154.2793  133.7530 H   0  0  0  0  0  0  0  0  0  0  0  0
  140.6188  155.0288  134.5224 H   0  0  0  0  0  0  0  0  0  0  0  0
  143.6516  155.9939  132.3387 H   0  0  0  0  0  0  0  0  0  0  0  0
  1  2  1  0
  2  3  2  0
  2  4  1  0
  4  5  2  0
  5  6  1  0
  6  7  2  0
  7  8  1  0
  8  9  2  0
  9 10  1  0
 10 11  1  0
 11 12  2  0
 11 13  1  0
  9 14  1  0
 14 15  2  0
 15 16  1  0
 16 17  1  0
 17 18  2  0
 17 19  1  0
 19 20  1  0
 20 21  1  0
 21 22  2  0
 16  4  1  0
 15  6  1  0
  1 23  1  0
  5 24  1  0
  7 25  1  0
  8 26  1  0
 10 27  1  0
 10 28  1  0
 14 29  1  0
 19 30  1  0
 19 31  1  0
 21 32  1  0
M  CHG  2   1  -1  13  -1
M  END
>  <UniqueID>  (41) 
41

>  <SMILES>  (41) 
[NH-]C(=O)c1cc2ccc(CC(=O)[O-])cc2n1C(=O)COC=O

>  <Energy>  (41) 
67.68820663469843

>  <Genealogy>  (41) 
[NH-]C(=O)c1cc2ccc(CC(=O)[O-])cc2n1C(=O)COC=O (protonated)
[NH-]C(=O)c1cc2ccc(CC(=O)[O-])cc2n1C(=O)COC=O (3D coordinates assigned)
[NH-]C(=O)c1cc2ccc(CC(=O)[O-])cc2n1C(=O)COC=O (optimized conformer: 67.68820663469843 kcal/mol)

>  <smiles>  (41) 
NC(=O)c1cc2ccc(CC(=O)O)cc2n1C(=O)COC=O

>  <score_type>  (41) 
oracle

>  <origin>  (41) 
adg

>  <m_score__min__energy>  (41) 
-5.5800000000000001

>  <m_primary>  (41) 
energy

$$$$
41:0
     RDKit          3D

 50 52  0  0  0  0  0  0  0  0999 V2000
  138.3200  149.3140  129.2370 C   0  0  0  0  0  0  0  0  0  0  0  0
  139.4010  149.9430  129.9140 O   0  0  0  0  0  0  0  0  0  0  0  0
  140.3960  149.2230  130.5860 C   0  0  0  0  0  0  0  0  0  0  0  0
  140.9920  148.2770  130.0000 O   0  0  0  0  0  0  0  0  0  0  0  0
  140.7380  149.5620  131.9440 N   0  0  0  0  0  0  0  0  0  0  0  0
  141.9250  149.0280  132.5970 C   0  0  0  0  0  0  0  0  0  0  0  0
  143.0370  150.0880  132.6400 C   0  0  0  0  0  0  0  0  0  0  0  0
  142.5720  151.5010  132.6920 N   0  0  0  0  0  0  0  0  0  0  0  0
  143.5710  152.5650  132.7730 C   0  0  0  0  0  0  0  0  0  0  0  0
  144.9690  152.2750  132.7180 C   0  0  0  0  0  0  0  0  0  0  0  0
  145.9320  153.2940  132.7860 C   0  0  0  0  0  0  0  0  0  0  0  0
  145.4910  154.6030  132.9140 C   0  0  0  0  0  0  0  0  0  0  0  0
  146.2080  155.7760  132.9710 C   0  0  0  0  0  0  0  0  0  0  0  0
  145.2550  156.7860  133.0780 C   0  0  0  0  0  0  0  0  0  0  0  0
  145.5980  158.2130  133.2490 C   0  0  0  0  0  0  0  0  0  0  0  0
  144.6760  159.2370  132.8870 N   0  0  0  0  0  0  0  0  0  0  0  0
  146.7040  158.5310  133.7650 O   0  0  0  0  0  0  0  0  0  0  0  0
  143.9980  156.2580  133.0780 N   0  0  0  0  0  0  0  0  0  0  0  0
  142.7470  156.9630  133.0760 C   0  0  0  0  0  0  0  0  0  0  0  0
  142.3210  157.4860  132.0100 O   0  0  0  0  0  0  0  0  0  0  0  0
  141.9930  157.0460  134.2510 O   0  0  0  0  0  0  0  0  0  0  0  0
  141.0360  158.0750  134.4790 C   0  0  0  0  0  0  0  0  0  0  0  0
  141.6860  159.4520  134.3250 C   0  0  0  0  0  0  0  0  0  0  0  0
  141.6710  159.8380  132.9750 O   0  0  0  0  0  0  0  0  0  0  0  0
  143.0020  159.4360  134.8170 O   0  0  0  0  0  0  0  0  0  0  0  0
  144.1620  154.9180  132.9820 C   0  0  0  0  0  0  0  0  0  0  0  0
  143.1770  153.9280  132.8960 C   0  0  0  0  0  0  0  0  0  0  0  0
  141.1550  151.8850  132.4720 C   0  0  0  0  0  0  0  0  0  0  0  0
  140.1710  150.7300  132.6000 C   0  0  0  0  0  0  0  0  0  0  0  0
  137.6146  148.9035  129.9745 H   0  0  0  0  0  0  0  0  0  0  0  0
  137.8030  150.0523  128.6064 H   0  0  0  0  0  0  0  0  0  0  0  0
  138.7064  148.4997  128.6064 H   0  0  0  0  0  0  0  0  0  0  0  0
  141.6697  148.7290  133.6243 H   0  0  0  0  0  0  0  0  0  0  0  0
  142.2839  148.1580  132.0276 H   0  0  0  0  0  0  0  0  0  0  0  0
  143.6506  149.8998  133.5334 H   0  0  0  0  0  0  0  0  0  0  0  0
  143.5892  149.9858  131.6941 H   0  0  0  0  0  0  0  0  0  0  0  0
  145.2979  151.2299  132.6202 H   0  0  0  0  0  0  0  0  0  0  0  0
  147.0061  153.0611  132.7391 H   0  0  0  0  0  0  0  0  0  0  0  0
  147.3014  155.8915  132.9389 H   0  0  0  0  0  0  0  0  0  0  0  0
  143.6570  159.0310  132.7880 H   0  0  0  0  0  0  0  0  0  0  0  0
  140.2178  157.9769  133.7503 H   0  0  0  0  0  0  0  0  0  0  0  0
  140.6445  157.9777  135.5024 H   0  0  0  0  0  0  0  0  0  0  0  0
  141.1102  160.1829  134.9116 H   0  0  0  0  0  0  0  0  0  0  0  0
  142.5030  159.4770  132.5730 H   0  0  0  0  0  0  0  0  0  0  0  0
  143.4640  158.6630  134.3980 H   0  0  0  0  0  0  0  0  0  0  0  0
  142.1113  154.1992  132.9231 H   0  0  0  0  0  0  0  0  0  0  0  0
  140.8858  152.6519  133.2132 H   0  0  0  0  0  0  0  0  0  0  0  0
  141.0823  152.2505  131.4370 H   0  0  0  0  0  0  0  0  0  0  0  0
  139.9953  150.5090  133.6632 H   0  0  0  0  0  0  0  0  0  0  0  0
  139.2139  150.9979  132.1287 H   0  0  0  0  0  0  0  0  0  0  0  0
  1  2  1  0
  2  3  1  0
  3  4  2  0
  3  5  1  0
  5  6  1  0
  6  7  1  0
  7  8  1  0
  8  9  1  0
  9 10  2  0
 10 11  1  0
 11 12  2  0
 12 13  1  0
 13 14  2  0
 14 15  1  0
 15 16  1  0
 15 17  2  0
 14 18  1  0
 18 19  1  0
 19 20  2  0
 19 21  1  0
 21 22  1  0
 22 23  1  0
 23 24  1  0
 23 25  1  0
 18 26  1  0
 26 27  2  0
  8 28  1  0
 28 29  1  0
 29  5  1  0
 27  9  1  0
 26 12  1  0
  1 30  1  0
  1 31  1  0
  1 32  1  0
  6 33  1  0
  6 34  1  0
  7 35  1  0
  7 36  1  0
 10 37  1  0
 11 38  1  0
 13 39  1  0
 16 40  1  0
 22 41  1  0
 22 42  1  0
 23 43  1  0
 24 44  1  0
 25 45  1  0
 27 46  1  0
 28 47  1  0
 28 48  1  0
 29 49  1  0
 29 50  1  0
M  CHG  1  16  -1
M  END
>  <UniqueID>  (42) 
42

>  <SMILES>  (42) 
COC(=O)N1CCN(c2ccc3cc(C([NH-])=O)n(C(=O)OCC(O)O)c3c2)CC1

>  <Energy>  (42) 
92.84538811432162

>  <Genealogy>  (42) 
COC(=O)N1CCN(c2ccc3cc(C([NH-])=O)n(C(=O)OCC(O)O)c3c2)CC1 (protonated)
COC(=O)N1CCN(c2ccc3cc(C([NH-])=O)n(C(=O)OCC(O)O)c3c2)CC1 (3D coordinates assigned)
COC(=O)N1CCN(c2ccc3cc(C([NH-])=O)n(C(=O)OCC(O)O)c3c2)CC1 (nonaromatic ring conformer: 92.84538811432162 kcal/mol)

>  <smiles>  (42) 
COC(=O)N1CCN(c2ccc3cc(C(N)=O)n(C(=O)OCC(O)O)c3c2)CC1

>  <score_type>  (42) 
oracle

>  <origin>  (42) 
adg

>  <m_score__min__energy>  (42) 
-6.8300000000000001

>  <m_primary>  (42) 
energy

$$$$
42:0
     RDKit          3D

 36 37  0  0  0  0  0  0  0  0999 V2000
  148.4140  153.9100  132.6220 C   0  0  0  0  0  0  0  0  0  0  0  0
  148.1130  155.0660  132.7790 C   0  0  0  0  0  0  0  0  0  0  0  0
  147.7500  156.4460  132.9670 C   0  0  0  0  0  0  0  0  0  0  0  0
  148.7560  157.4370  133.0420 C   0  0  0  0  0  0  0  0  0  0  0  0
  148.4130  158.7900  133.2160 C   0  0  0  0  0  0  0  0  0  0  0  0
  147.0610  159.1110  133.3170 C   0  0  0  0  0  0  0  0  0  0  0  0
  146.4460  160.3340  133.4640 C   0  0  0  0  0  0  0  0  0  0  0  0
  145.0790  160.0600  133.4920 C   0  0  0  0  0  0  0  0  0  0  0  0
  144.0370  161.0930  133.6760 C   0  0  0  0  0  0  0  0  0  0  0  0
  142.6700  160.8210  133.3780 N   0  0  0  0  0  0  0  0  0  0  0  0
  144.3550  162.2280  134.1210 O   0  0  0  0  0  0  0  0  0  0  0  0
  144.8620  158.7210  133.3730 N   0  0  0  0  0  0  0  0  0  0  0  0
  143.6020  158.0370  133.3060 C   0  0  0  0  0  0  0  0  0  0  0  0
  143.2630  157.4720  132.2320 O   0  0  0  0  0  0  0  0  0  0  0  0
  142.7110  157.9960  134.4850 C   0  0  0  0  0  0  0  0  0  0  0  0
  142.9820  157.1950  135.4240 O   0  0  0  0  0  0  0  0  0  0  0  0
  141.5260  158.8300  134.5600 N   0  0  2  0  0  0  0  0  0  0  0  0
  141.3360  159.3760  135.9170 C   0  0  0  0  0  0  0  0  0  0  0  0
  140.3300  158.1140  134.0620 C   0  0  0  0  0  0  0  0  0  0  0  0
  139.6960  158.7550  132.8560 C   0  0  0  0  0  0  0  0  0  0  0  0
  138.6290  158.2900  132.3780 O   0  0  0  0  0  0  0  0  0  0  0  0
  140.2900  159.8610  132.2590 O   0  0  0  0  0  0  0  0  0  0  0  0
  146.0810  158.1550  133.2610 C   0  0  0  0  0  0  0  0  0  0  0  0
  146.3920  156.8050  133.0700 C   0  0  0  0  0  0  0  0  0  0  0  0
  148.6888  152.8546  132.4786 H   0  0  0  0  0  0  0  0  0  0  0  0
  149.8144  157.1477  132.9637 H   0  0  0  0  0  0  0  0  0  0  0  0
  149.1872  159.5695  133.2706 H   0  0  0  0  0  0  0  0  0  0  0  0
  146.9303  161.3185  133.5427 H   0  0  0  0  0  0  0  0  0  0  0  0
  142.4070  160.0790  132.6920 H   0  0  0  0  0  0  0  0  0  0  0  0
  141.6620  159.6600  133.9370 H   0  0  0  0  0  0  0  0  0  0  0  0
  141.6023  158.6106  136.6608 H   0  0  0  0  0  0  0  0  0  0  0  0
  141.9802  160.2575  136.0511 H   0  0  0  0  0  0  0  0  0  0  0  0
  140.2837  159.6671  136.0511 H   0  0  0  0  0  0  0  0  0  0  0  0
  140.6259  157.0889  133.7945 H   0  0  0  0  0  0  0  0  0  0  0  0
  139.5824  158.1397  134.8685 H   0  0  0  0  0  0  0  0  0  0  0  0
  145.5991  156.0456  133.0022 H   0  0  0  0  0  0  0  0  0  0  0  0
  1  2  3  0
  2  3  1  0
  3  4  2  0
  4  5  1  0
  5  6  2  0
  6  7  1  0
  7  8  2  0
  8  9  1  0
  9 10  1  0
  9 11  2  0
  8 12  1  0
 12 13  1  0
 13 14  2  0
 13 15  1  0
 15 16  2  0
 15 17  1  0
 17 18  1  0
 17 19  1  0
 19 20  1  0
 20 21  2  0
 20 22  1  0
 12 23  1  0
 23 24  2  0
 24  3  1  0
 23  6  1  0
  1 25  1  0
  4 26  1  0
  5 27  1  0
  7 28  1  0
 10 29  1  0
 17 30  1  6
 18 31  1  0
 18 32  1  0
 18 33  1  0
 19 34  1  0
 19 35  1  0
 24 36  1  0
M  CHG  3  10  -1  17   1  22  -1
M  END
>  <UniqueID>  (43) 
43

>  <SMILES>  (43) 
C#Cc1ccc2cc(C([NH-])=O)n(C(=O)C(=O)[N@H+](C)CC(=O)[O-])c2c1

>  <Energy>  (43) 
77.78506538854083

>  <Genealogy>  (43) 
C#Cc1ccc2cc(C([NH-])=O)n(C(=O)C(=O)[NH+](C)CC(=O)[O-])c2c1 (protonated)
C#Cc1ccc2cc(C([NH-])=O)n(C(=O)C(=O)[N@H+](C)CC(=O)[O-])c2c1 (chirality)
C#Cc1ccc2cc(C([NH-])=O)n(C(=O)C(=O)[N@H+](C)CC(=O)[O-])c2c1 (3D coordinates assigned)
C#Cc1ccc2cc(C([NH-])=O)n(C(=O)C(=O)[N@H+](C)CC(=O)[O-])c2c1 (optimized conformer: 77.78506538854083 kcal/mol)

>  <smiles>  (43) 
C#Cc1ccc2cc(C(N)=O)n(C(=O)C(=O)N(C)CC(=O)O)c2c1

>  <score_type>  (43) 
oracle

>  <origin>  (43) 
adg

>  <m_score__min__energy>  (43) 
-5.7400000000000002

>  <m_primary>  (43) 
energy

$$$$
43:0
     RDKit          3D

 41 42  0  0  0  0  0  0  0  0999 V2000
  143.7480  160.4580  134.1070 C   0  0  0  0  0  0  0  0  0  0  0  0
  143.0810  159.1530  134.0850 N   0  0  0  0  0  0  0  0  0  0  0  0
  141.7640  159.0150  134.6530 C   0  0  0  0  0  0  0  0  0  0  0  0
  141.1860  160.0180  135.1560 O   0  0  0  0  0  0  0  0  0  0  0  0
  141.1220  157.7690  134.6190 O   0  0  0  0  0  0  0  0  0  0  0  0
  140.3630  157.2740  133.5520 C   0  0  0  0  0  0  0  0  0  0  0  0
  140.2910  156.0350  133.3210 O   0  0  0  0  0  0  0  0  0  0  0  0
  139.6900  158.2410  132.6340 C   0  0  0  0  0  0  0  0  0  0  0  0
  139.0120  157.5520  131.6440 F   0  0  0  0  0  0  0  0  0  0  0  0
  138.7890  159.0030  133.3540 F   0  0  0  0  0  0  0  0  0  0  0  0
  140.6240  159.0740  132.0450 F   0  0  0  0  0  0  0  0  0  0  0  0
  143.6660  158.0700  133.3350 C   0  0  0  0  0  0  0  0  0  0  0  0
  143.0660  157.6080  132.3260 O   0  0  0  0  0  0  0  0  0  0  0  0
  144.9220  157.4970  133.7300 N   0  0  0  0  0  0  0  0  0  0  0  0
  145.1330  156.3260  134.3930 C   0  0  0  0  0  0  0  0  0  0  0  0
  144.0850  155.4630  134.9740 C   0  0  0  0  0  0  0  0  0  0  0  0
  142.8100  155.3700  134.3430 N   0  0  0  0  0  0  0  0  0  0  0  0
  144.3100  154.7880  136.0130 O   0  0  0  0  0  0  0  0  0  0  0  0
  146.4980  156.0550  134.4790 C   0  0  0  0  0  0  0  0  0  0  0  0
  147.1190  157.1050  133.8410 C   0  0  0  0  0  0  0  0  0  0  0  0
  148.4690  157.3270  133.5820 C   0  0  0  0  0  0  0  0  0  0  0  0
  148.8180  158.4680  132.8400 C   0  0  0  0  0  0  0  0  0  0  0  0
  147.8200  159.3590  132.3730 C   0  0  0  0  0  0  0  0  0  0  0  0
  148.2000  160.5440  131.5240 C   0  0  0  0  0  0  0  0  0  0  0  0
  149.2070  160.1480  130.4440 C   0  0  0  0  0  0  0  0  0  0  0  0
  149.9800  161.2570  130.0760 O   0  0  0  0  0  0  0  0  0  0  0  0
  146.4600  159.0980  132.6490 C   0  0  0  0  0  0  0  0  0  0  0  0
  146.1450  157.9630  133.4020 C   0  0  0  0  0  0  0  0  0  0  0  0
  143.9078  160.7706  135.1495 H   0  0  0  0  0  0  0  0  0  0  0  0
  144.7181  160.3826  133.5940 H   0  0  0  0  0  0  0  0  0  0  0  0
  143.1187  161.2001  133.5940 H   0  0  0  0  0  0  0  0  0  0  0  0
  142.3970  156.1880  133.8440 H   0  0  0  0  0  0  0  0  0  0  0  0
  146.9769  155.1868  134.9554 H   0  0  0  0  0  0  0  0  0  0  0  0
  149.2384  156.6307  133.9470 H   0  0  0  0  0  0  0  0  0  0  0  0
  149.8763  158.6716  132.6195 H   0  0  0  0  0  0  0  0  0  0  0  0
  147.2961  160.9453  131.0424 H   0  0  0  0  0  0  0  0  0  0  0  0
  148.6631  161.3032  132.1715 H   0  0  0  0  0  0  0  0  0  0  0  0
  149.8662  159.3582  130.8334 H   0  0  0  0  0  0  0  0  0  0  0  0
  148.6625  159.7802  129.5618 H   0  0  0  0  0  0  0  0  0  0  0  0
  150.7150  161.3130  130.7400 H   0  0  0  0  0  0  0  0  0  0  0  0
  145.6700  159.7694  132.2816 H   0  0  0  0  0  0  0  0  0  0  0  0
  1  2  1  0
  2  3  1  0
  3  4  2  0
  3  5  1  0
  5  6  1  0
  6  7  2  0
  6  8  1  0
  8  9  1  0
  8 10  1  0
  8 11  1  0
  2 12  1  0
 12 13  2  0
 12 14  1  0
 14 15  1  0
 15 16  1  0
 16 17  1  0
 16 18  2  0
 15 19  2  0
 19 20  1  0
 20 21  2  0
 21 22  1  0
 22 23  2  0
 23 24  1  0
 24 25  1  0
 25 26  1  0
 23 27  1  0
 27 28  2  0
 28 14  1  0
 28 20  1  0
  1 29  1  0
  1 30  1  0
  1 31  1  0
 17 32  1  0
 19 33  1  0
 21 34  1  0
 22 35  1  0
 24 36  1  0
 24 37  1  0
 25 38  1  0
 25 39  1  0
 26 40  1  0
 27 41  1  0
M  CHG  1  17  -1
M  END
>  <UniqueID>  (44) 
44

>  <SMILES>  (44) 
CN(C(=O)OC(=O)C(F)(F)F)C(=O)n1c(C([NH-])=O)cc2ccc(CCO)cc21

>  <Energy>  (44) 
75.29746417335635

>  <Genealogy>  (44) 
CN(C(=O)OC(=O)C(F)(F)F)C(=O)n1c(C([NH-])=O)cc2ccc(CCO)cc21 (protonated)
CN(C(=O)OC(=O)C(F)(F)F)C(=O)n1c(C([NH-])=O)cc2ccc(CCO)cc21 (3D coordinates assigned)
CN(C(=O)OC(=O)C(F)(F)F)C(=O)n1c(C([NH-])=O)cc2ccc(CCO)cc21 (optimized conformer: 75.29746417335635 kcal/mol)

>  <smiles>  (44) 
CN(C(=O)OC(=O)C(F)(F)F)C(=O)n1c(C(N)=O)cc2ccc(CCO)cc21

>  <score_type>  (44) 
oracle

>  <origin>  (44) 
adg

>  <m_score__min__energy>  (44) 
-6

>  <m_primary>  (44) 
energy

$$$$
44:0
     RDKit          3D

 35 36  0  0  0  0  0  0  0  0999 V2000
  148.8550  157.3940  132.8190 N   0  0  0  0  0  0  0  0  0  0  0  0
  148.1740  158.4640  133.4770 C   0  0  0  0  0  0  0  0  0  0  0  0
  148.8460  159.3490  134.0670 O   0  0  0  0  0  0  0  0  0  0  0  0
  146.6980  158.5580  133.4370 C   0  0  0  0  0  0  0  0  0  0  0  0
  145.9890  159.7490  133.5820 C   0  0  0  0  0  0  0  0  0  0  0  0
  144.6630  159.3850  133.5860 C   0  0  0  0  0  0  0  0  0  0  0  0
  143.5200  160.1750  133.6810 C   0  0  0  0  0  0  0  0  0  0  0  0
  142.2710  159.5350  133.6210 C   0  0  0  0  0  0  0  0  0  0  0  0
  142.1830  158.1260  133.4790 C   0  0  0  0  0  0  0  0  0  0  0  0
  140.8370  157.4580  133.3530 C   0  0  0  0  0  0  0  0  0  0  0  0
  140.9790  156.0850  133.2530 F   0  0  0  0  0  0  0  0  0  0  0  0
  140.1740  157.9080  132.2240 F   0  0  0  0  0  0  0  0  0  0  0  0
  140.0770  157.7540  134.4690 F   0  0  0  0  0  0  0  0  0  0  0  0
  143.3680  157.3620  133.3630 C   0  0  0  0  0  0  0  0  0  0  0  0
  144.6000  158.0240  133.4450 C   0  0  0  0  0  0  0  0  0  0  0  0
  145.8420  157.5010  133.3510 N   0  0  0  0  0  0  0  0  0  0  0  0
  146.1800  156.1240  133.1160 C   0  0  0  0  0  0  0  0  0  0  0  0
  145.5650  155.4700  132.2300 O   0  0  0  0  0  0  0  0  0  0  0  0
  147.2080  155.5300  133.8630 O   0  0  0  0  0  0  0  0  0  0  0  0
  147.2080  154.2050  134.3180 C   0  0  0  0  0  0  0  0  0  0  0  0
  146.2240  153.7280  134.9460 O   0  0  0  0  0  0  0  0  0  0  0  0
  148.4180  153.3540  134.0910 C   0  0  0  0  0  0  0  0  0  0  0  0
  148.7740  153.2840  132.6030 C   0  0  0  0  0  0  0  0  0  0  0  0
  148.5050  154.5030  131.9650 O   0  0  0  0  0  0  0  0  0  0  0  0
  148.3310  156.6170  132.3610 H   0  0  0  0  0  0  0  0  0  0  0  0
  149.8990  157.3570  132.8240 H   0  0  0  0  0  0  0  0  0  0  0  0
  146.4022  160.7643  133.6737 H   0  0  0  0  0  0  0  0  0  0  0  0
  143.5930  161.2662  133.7993 H   0  0  0  0  0  0  0  0  0  0  0  0
  141.3502  160.1333  133.6849 H   0  0  0  0  0  0  0  0  0  0  0  0
  143.3231  156.2733  133.2119 H   0  0  0  0  0  0  0  0  0  0  0  0
  149.2671  153.7828  134.6434 H   0  0  0  0  0  0  0  0  0  0  0  0
  148.1995  152.3358  134.4454 H   0  0  0  0  0  0  0  0  0  0  0  0
  149.8443  153.0522  132.4996 H   0  0  0  0  0  0  0  0  0  0  0  0
  148.1630  152.4995  132.1326 H   0  0  0  0  0  0  0  0  0  0  0  0
  147.5180  154.5760  131.8980 H   0  0  0  0  0  0  0  0  0  0  0  0
  1  2  1  0
  2  3  2  0
  2  4  1  0
  4  5  2  0
  5  6  1  0
  6  7  2  0
  7  8  1  0
  8  9  2  0
  9 10  1  0
 10 11  1  0
 10 12  1  0
 10 13  1  0
  9 14  1  0
 14 15  2  0
 15 16  1  0
 16 17  1  0
 17 18  2  0
 17 19  1  0
 19 20  1  0
 20 21  2  0
 20 22  1  0
 22 23  1  0
 23 24  1  0
 16  4  1  0
 15  6  1  0
  1 25  1  0
  1 26  1  0
  5 27  1  0
  7 28  1  0
  8 29  1  0
 14 30  1  0
 22 31  1  0
 22 32  1  0
 23 33  1  0
 23 34  1  0
 24 35  1  0
M  END
>  <UniqueID>  (45) 
45

>  <SMILES>  (45) 
NC(=O)c1cc2ccc(C(F)(F)F)cc2n1C(=O)OC(=O)CCO

>  <Energy>  (45) 
71.56075372409494

>  <Genealogy>  (45) 
NC(=O)c1cc2ccc(C(F)(F)F)cc2n1C(=O)OC(=O)CCO (3D coordinates assigned)
NC(=O)c1cc2ccc(C(F)(F)F)cc2n1C(=O)OC(=O)CCO (optimized conformer: 71.56075372409494 kcal/mol)

>  <smiles>  (45) 
NC(=O)c1cc2ccc(C(F)(F)F)cc2n1C(=O)OC(=O)CCO

>  <score_type>  (45) 
oracle

>  <origin>  (45) 
adg

>  <m_score__min__energy>  (45) 
-5.9500000000000002

>  <m_primary>  (45) 
energy

$$$$
45:0
     RDKit          3D

 37 38  0  0  0  0  0  0  0  0999 V2000
  139.5740  158.2350  134.3330 C   0  0  0  0  0  0  0  0  0  0  0  0
  140.4830  157.6590  135.4310 C   0  0  2  0  0  0  0  0  0  0  0  0
  140.9140  158.6960  136.4350 C   0  0  0  0  0  0  0  0  0  0  0  0
  140.6500  159.9160  136.2600 O   0  0  0  0  0  0  0  0  0  0  0  0
  141.5470  158.3000  137.6080 O   0  0  0  0  0  0  0  0  0  0  0  0
  141.6560  156.9720  134.8530 N   0  0  0  0  0  0  0  0  0  0  0  0
  141.5770  155.5240  134.6380 C   0  0  0  0  0  0  0  0  0  0  0  0
  142.7990  157.7000  134.3440 C   0  0  0  0  0  0  0  0  0  0  0  0
  142.6460  159.0370  133.8940 C   0  0  0  0  0  0  0  0  0  0  0  0
  143.7410  159.7600  133.3930 C   0  0  0  0  0  0  0  0  0  0  0  0
  144.9790  159.1270  133.3590 C   0  0  0  0  0  0  0  0  0  0  0  0
  146.1940  159.5840  132.9040 C   0  0  0  0  0  0  0  0  0  0  0  0
  147.0830  158.5300  133.1040 C   0  0  0  0  0  0  0  0  0  0  0  0
  148.5330  158.6260  132.8360 C   0  0  0  0  0  0  0  0  0  0  0  0
  149.1650  157.7520  131.9050 N   0  0  0  0  0  0  0  0  0  0  0  0
  149.2310  159.4580  133.4740 O   0  0  0  0  0  0  0  0  0  0  0  0
  146.4390  157.4590  133.6510 N   0  0  0  0  0  0  0  0  0  0  0  0
  146.9770  156.1560  133.9290 C   0  0  0  0  0  0  0  0  0  0  0  0
  147.5450  155.5050  133.0100 O   0  0  0  0  0  0  0  0  0  0  0  0
  146.8950  155.6210  135.2550 N   0  0  0  0  0  0  0  0  0  0  0  0
  146.2840  154.3750  135.6020 C   0  0  0  0  0  0  0  0  0  0  0  0
  145.1180  154.1240  135.2000 O   0  0  0  0  0  0  0  0  0  0  0  0
  146.9570  153.4360  136.3730 O   0  0  0  0  0  0  0  0  0  0  0  0
  145.1520  157.8420  133.8030 C   0  0  0  0  0  0  0  0  0  0  0  0
  144.0760  157.0930  134.2880 C   0  0  0  0  0  0  0  0  0  0  0  0
  138.7316  158.7688  134.7970 H   0  0  0  0  0  0  0  0  0  0  0  0
  140.1508  158.9328  133.7082 H   0  0  0  0  0  0  0  0  0  0  0  0
  139.1893  157.4155  133.7082 H   0  0  0  0  0  0  0  0  0  0  0  0
  139.8776  156.9186  135.9745 H   0  0  0  0  0  0  0  0  0  0  0  0
  141.5489  155.0100  135.6101 H   0  0  0  0  0  0  0  0  0  0  0  0
  140.6646  155.2867  134.0713 H   0  0  0  0  0  0  0  0  0  0  0  0
  142.4582  155.1888  134.0713 H   0  0  0  0  0  0  0  0  0  0  0  0
  141.6558  159.5140  133.9381 H   0  0  0  0  0  0  0  0  0  0  0  0
  143.6231  160.7946  133.0386 H   0  0  0  0  0  0  0  0  0  0  0  0
  146.4165  160.5716  132.4737 H   0  0  0  0  0  0  0  0  0  0  0  0
  148.8800  156.7510  131.8290 H   0  0  0  0  0  0  0  0  0  0  0  0
  144.2189  156.0538  134.6191 H   0  0  0  0  0  0  0  0  0  0  0  0
  1  2  1  0
  2  3  1  0
  3  4  2  0
  3  5  1  0
  2  6  1  0
  6  7  1  0
  6  8  1  0
  8  9  2  0
  9 10  1  0
 10 11  2  0
 11 12  1  0
 12 13  2  0
 13 14  1  0
 14 15  1  0
 14 16  2  0
 13 17  1  0
 17 18  1  0
 18 19  2  0
 18 20  1  0
 20 21  1  0
 21 22  2  0
 21 23  1  0
 17 24  1  0
 24 25  2  0
 25  8  1  0
 24 11  1  0
  1 26  1  0
  1 27  1  0
  1 28  1  0
  2 29  1  1
  7 30  1  0
  7 31  1  0
  7 32  1  0
  9 33  1  0
 10 34  1  0
 12 35  1  0
 15 36  1  0
 25 37  1  0
M  CHG  4   5  -1  15  -1  20  -1  23  -1
M  END
>  <UniqueID>  (46) 
46

>  <SMILES>  (46) 
C[C@H](C(=O)[O-])N(C)c1ccc2cc(C([NH-])=O)n(C(=O)[N-]C(=O)[O-])c2c1

>  <Energy>  (46) 
79.80303717921625

>  <Genealogy>  (46) 
CC(C(=O)[O-])N(C)c1ccc2cc(C([NH-])=O)n(C(=O)[N-]C(=O)[O-])c2c1 (protonated)
C[C@H](C(=O)[O-])N(C)c1ccc2cc(C([NH-])=O)n(C(=O)[N-]C(=O)[O-])c2c1 (chirality)
C[C@H](C(=O)[O-])N(C)c1ccc2cc(C([NH-])=O)n(C(=O)[N-]C(=O)[O-])c2c1 (3D coordinates assigned)
C[C@H](C(=O)[O-])N(C)c1ccc2cc(C([NH-])=O)n(C(=O)[N-]C(=O)[O-])c2c1 (optimized conformer: 79.80303717921625 kcal/mol)

>  <smiles>  (46) 
CC(C(=O)O)N(C)c1ccc2cc(C(N)=O)n(C(=O)NC(=O)O)c2c1

>  <score_type>  (46) 
oracle

>  <origin>  (46) 
adg

>  <m_score__min__energy>  (46) 
-6.9000000000000004

>  <m_primary>  (46) 
energy

$$$$
46:0
     RDKit          3D

 40 41  0  0  0  0  0  0  0  0999 V2000
  144.2700  155.0340  131.6950 C   0  0  0  0  0  0  0  0  0  0  0  0
  144.6740  155.3900  133.1370 C   0  0  1  0  0  0  0  0  0  0  0  0
  144.0700  156.7140  133.5510 C   0  0  0  0  0  0  0  0  0  0  0  0
  143.7950  156.9270  134.7620 O   0  0  0  0  0  0  0  0  0  0  0  0
  143.7870  157.6930  132.6060 O   0  0  0  0  0  0  0  0  0  0  0  0
  144.3770  154.2850  134.0930 N   0  0  2  0  0  0  0  0  0  0  0  0
  145.5350  153.4150  134.3890 C   0  0  0  0  0  0  0  0  0  0  0  0
  143.2530  153.4960  133.6210 C   0  0  0  0  0  0  0  0  0  0  0  0
  143.4480  152.3770  133.0690 O   0  0  0  0  0  0  0  0  0  0  0  0
  141.8720  154.0170  133.7040 C   0  0  0  0  0  0  0  0  0  0  0  0
  140.9780  153.5610  132.9410 O   0  0  0  0  0  0  0  0  0  0  0  0
  141.5220  155.0010  134.6890 N   0  0  0  0  0  0  0  0  0  0  0  0
  141.7210  154.9510  136.0360 C   0  0  0  0  0  0  0  0  0  0  0  0
  142.4500  153.8890  136.7610 C   0  0  0  0  0  0  0  0  0  0  0  0
  143.8700  153.9500  136.8710 N   0  0  0  0  0  0  0  0  0  0  0  0
  141.8330  152.9140  137.2650 O   0  0  0  0  0  0  0  0  0  0  0  0
  141.1920  156.0870  136.6470 C   0  0  0  0  0  0  0  0  0  0  0  0
  140.6700  156.8440  135.6220 C   0  0  0  0  0  0  0  0  0  0  0  0
  140.0080  158.0660  135.6560 C   0  0  0  0  0  0  0  0  0  0  0  0
  139.5540  158.6030  134.4390 C   0  0  0  0  0  0  0  0  0  0  0  0
  139.7800  157.9210  133.2140 C   0  0  0  0  0  0  0  0  0  0  0  0
  139.2380  158.4800  131.9240 C   0  0  0  0  0  0  0  0  0  0  0  0
  140.2290  159.1470  131.2240 F   0  0  0  0  0  0  0  0  0  0  0  0
  138.2130  159.3640  132.2050 F   0  0  0  0  0  0  0  0  0  0  0  0
  138.7480  157.4650  131.1190 F   0  0  0  0  0  0  0  0  0  0  0  0
  140.4370  156.6690  133.2260 C   0  0  0  0  0  0  0  0  0  0  0  0
  140.8860  156.1660  134.4510 C   0  0  0  0  0  0  0  0  0  0  0  0
  143.4448  154.3069  131.7143 H   0  0  0  0  0  0  0  0  0  0  0  0
  143.9444  155.9442  131.1701 H   0  0  0  0  0  0  0  0  0  0  0  0
  145.1320  154.5965  131.1701 H   0  0  0  0  0  0  0  0  0  0  0  0
  145.7667  155.5135  133.1649 H   0  0  0  0  0  0  0  0  0  0  0  0
  144.1000  154.7130  135.0070 H   0  0  0  0  0  0  0  0  0  0  0  0
  145.6562  153.3239  135.4785 H   0  0  0  0  0  0  0  0  0  0  0  0
  145.3657  152.4188  133.9544 H   0  0  0  0  0  0  0  0  0  0  0  0
  146.4447  153.8549  133.9544 H   0  0  0  0  0  0  0  0  0  0  0  0
  144.3540  154.8520  137.0800 H   0  0  0  0  0  0  0  0  0  0  0  0
  141.1917  156.3276  137.7204 H   0  0  0  0  0  0  0  0  0  0  0  0
  139.8446  158.5962  136.6059 H   0  0  0  0  0  0  0  0  0  0  0  0
  139.0172  159.5631  134.4354 H   0  0  0  0  0  0  0  0  0  0  0  0
  140.5911  156.1046  132.2945 H   0  0  0  0  0  0  0  0  0  0  0  0
  1  2  1  0
  2  3  1  0
  3  4  2  0
  3  5  1  0
  2  6  1  0
  6  7  1  0
  6  8  1  0
  8  9  2  0
  8 10  1  0
 10 11  2  0
 10 12  1  0
 12 13  1  0
 13 14  1  0
 14 15  1  0
 14 16  2  0
 13 17  2  0
 17 18  1  0
 18 19  2  0
 19 20  1  0
 20 21  2  0
 21 22  1  0
 22 23  1  0
 22 24  1  0
 22 25  1  0
 21 26  1  0
 26 27  2  0
 27 12  1  0
 27 18  1  0
  1 28  1  0
  1 29  1  0
  1 30  1  0
  2 31  1  6
  6 32  1  1
  7 33  1  0
  7 34  1  0
  7 35  1  0
 15 36  1  0
 17 37  1  0
 19 38  1  0
 20 39  1  0
 26 40  1  0
M  CHG  3   5  -1   6   1  15  -1
M  END
>  <UniqueID>  (47) 
47

>  <SMILES>  (47) 
C[C@@H](C(=O)[O-])[N@H+](C)C(=O)C(=O)n1c(C([NH-])=O)cc2ccc(C(F)(F)F)cc21

>  <Energy>  (47) 
85.12542054181712

>  <Genealogy>  (47) 
CC(C(=O)[O-])[NH+](C)C(=O)C(=O)n1c(C([NH-])=O)cc2ccc(C(F)(F)F)cc21 (protonated)
C[C@@H](C(=O)[O-])[N@H+](C)C(=O)C(=O)n1c(C([NH-])=O)cc2ccc(C(F)(F)F)cc21 (chirality)
C[C@@H](C(=O)[O-])[N@H+](C)C(=O)C(=O)n1c(C([NH-])=O)cc2ccc(C(F)(F)F)cc21 (3D coordinates assigned)
C[C@@H](C(=O)[O-])[N@H+](C)C(=O)C(=O)n1c(C([NH-])=O)cc2ccc(C(F)(F)F)cc21 (optimized conformer: 85.12542054181712 kcal/mol)

>  <smiles>  (47) 
CC(C(=O)O)N(C)C(=O)C(=O)n1c(C(N)=O)cc2ccc(C(F)(F)F)cc21

>  <score_type>  (47) 
oracle

>  <origin>  (47) 
adg

>  <m_score__min__energy>  (47) 
-5.4199999999999999

>  <m_primary>  (47) 
energy

$$$$
47:0
     RDKit          3D

 39 40  0  0  0  0  0  0  0  0999 V2000
  139.4860  157.7830  135.3410 C   0  0  0  0  0  0  0  0  0  0  0  0
  140.2250  157.8250  133.9970 C   0  0  0  0  0  0  0  0  0  0  0  0
  139.2990  157.2800  132.8910 C   0  0  0  0  0  0  0  0  0  0  0  0
  141.4120  156.9710  134.1050 N   0  0  0  0  0  0  0  0  0  0  0  0
  142.6690  157.1970  133.4520 C   0  0  0  0  0  0  0  0  0  0  0  0
  142.7080  157.5130  132.2330 O   0  0  0  0  0  0  0  0  0  0  0  0
  143.9190  157.0590  134.2130 C   0  0  0  0  0  0  0  0  0  0  0  0
  143.9350  156.3580  135.2600 O   0  0  0  0  0  0  0  0  0  0  0  0
  145.1220  157.7110  133.7760 N   0  0  0  0  0  0  0  0  0  0  0  0
  145.3020  159.0400  133.5330 C   0  0  0  0  0  0  0  0  0  0  0  0
  144.2980  160.0970  133.7910 C   0  0  0  0  0  0  0  0  0  0  0  0
  143.0440  160.1040  133.1050 N   0  0  0  0  0  0  0  0  0  0  0  0
  144.5480  161.0170  134.6150 O   0  0  0  0  0  0  0  0  0  0  0  0
  146.5940  159.2750  133.0590 C   0  0  0  0  0  0  0  0  0  0  0  0
  147.1970  158.0380  133.0130 C   0  0  0  0  0  0  0  0  0  0  0  0
  148.4730  157.6780  132.5910 C   0  0  0  0  0  0  0  0  0  0  0  0
  148.8150  156.3160  132.6130 C   0  0  0  0  0  0  0  0  0  0  0  0
  147.8870  155.3410  133.0630 C   0  0  0  0  0  0  0  0  0  0  0  0
  148.2440  153.8760  133.0240 C   0  0  0  0  0  0  0  0  0  0  0  0
  148.5390  153.4130  134.2940 F   0  0  0  0  0  0  0  0  0  0  0  0
  149.3470  153.6980  132.2110 F   0  0  0  0  0  0  0  0  0  0  0  0
  147.1900  153.1300  132.5250 F   0  0  0  0  0  0  0  0  0  0  0  0
  146.5910  155.7460  133.4580 C   0  0  0  0  0  0  0  0  0  0  0  0
  146.2870  157.1110  133.4460 C   0  0  0  0  0  0  0  0  0  0  0  0
  140.6350  159.2550  133.7180 C   0  0  0  0  0  0  0  0  0  0  0  0
  140.6050  159.7170  132.5460 O   0  0  0  0  0  0  0  0  0  0  0  0
  140.9690  160.1020  134.7700 O   0  0  0  0  0  0  0  0  0  0  0  0
  140.2164  157.8245  136.1625 H   0  0  0  0  0  0  0  0  0  0  0  0
  138.8050  158.6439  135.4120 H   0  0  0  0  0  0  0  0  0  0  0  0
  138.9069  156.8505  135.4120 H   0  0  0  0  0  0  0  0  0  0  0  0
  138.4377  156.7731  133.3507 H   0  0  0  0  0  0  0  0  0  0  0  0
  138.9438  158.1131  132.2667 H   0  0  0  0  0  0  0  0  0  0  0  0
  139.8549  156.5650  132.2667 H   0  0  0  0  0  0  0  0  0  0  0  0
  142.3620  160.8770  133.2720 H   0  0  0  0  0  0  0  0  0  0  0  0
  142.7670  159.3270  132.4660 H   0  0  0  0  0  0  0  0  0  0  0  0
  147.0364  160.2430  132.7812 H   0  0  0  0  0  0  0  0  0  0  0  0
  149.1923  158.4373  132.2504 H   0  0  0  0  0  0  0  0  0  0  0  0
  149.8141  156.0011  132.2774 H   0  0  0  0  0  0  0  0  0  0  0  0
  145.8395  155.0047  133.7675 H   0  0  0  0  0  0  0  0  0  0  0  0
  1  2  1  0
  2  3  1  0
  2  4  1  0
  4  5  1  0
  5  6  2  0
  5  7  1  0
  7  8  2  0
  7  9  1  0
  9 10  1  0
 10 11  1  0
 11 12  1  0
 11 13  2  0
 10 14  2  0
 14 15  1  0
 15 16  2  0
 16 17  1  0
 17 18  2  0
 18 19  1  0
 19 20  1  0
 19 21  1  0
 19 22  1  0
 18 23  1  0
 23 24  2  0
  2 25  1  0
 25 26  2  0
 25 27  1  0
 24  9  1  0
 24 15  1  0
  1 28  1  0
  1 29  1  0
  1 30  1  0
  3 31  1  0
  3 32  1  0
  3 33  1  0
 12 34  1  0
 12 35  1  0
 14 36  1  0
 16 37  1  0
 17 38  1  0
 23 39  1  0
M  CHG  2   4  -1  27  -1
M  END
>  <UniqueID>  (48) 
48

>  <SMILES>  (48) 
CC(C)([N-]C(=O)C(=O)n1c(C(N)=O)cc2ccc(C(F)(F)F)cc21)C(=O)[O-]

>  <Energy>  (48) 
74.83265966509295

>  <Genealogy>  (48) 
CC(C)([N-]C(=O)C(=O)n1c(C(N)=O)cc2ccc(C(F)(F)F)cc21)C(=O)[O-] (protonated)
CC(C)([N-]C(=O)C(=O)n1c(C(N)=O)cc2ccc(C(F)(F)F)cc21)C(=O)[O-] (3D coordinates assigned)
CC(C)([N-]C(=O)C(=O)n1c(C(N)=O)cc2ccc(C(F)(F)F)cc21)C(=O)[O-] (optimized conformer: 74.83265966509295 kcal/mol)

>  <smiles>  (48) 
CC(C)(NC(=O)C(=O)n1c(C(N)=O)cc2ccc(C(F)(F)F)cc21)C(=O)O

>  <score_type>  (48) 
oracle

>  <origin>  (48) 
adg

>  <m_score__min__energy>  (48) 
-7.1399999999999997

>  <m_primary>  (48) 
energy

$$$$
48:0
     RDKit          3D

 54 56  0  0  1  0  0  0  0  0999 V2000
  146.6130  155.5560  132.2590 C   0  0  0  0  0  0  0  0  0  0  0  0
  147.1980  154.7570  133.3870 C   0  0  0  0  0  0  0  0  0  0  0  0
  148.5450  154.1660  133.0510 C   0  0  0  0  0  0  0  0  0  0  0  0
  146.2580  153.7370  133.6700 O   0  0  0  0  0  0  0  0  0  0  0  0
  145.2100  154.5520  134.2670 B   0  0  0  0  0  0  0  0  0  0  0  0
  143.6840  154.4220  133.9390 C   0  0  2  0  0  0  0  0  0  0  0  0
  143.3810  153.0960  133.2510 C   0  0  0  0  0  0  0  0  0  0  0  0
  141.9290  152.9720  132.9890 C   0  0  0  0  0  0  0  0  0  0  0  0
  141.2070  153.8590  132.5960 O   0  0  0  0  0  0  0  0  0  0  0  0
  143.2300  155.4520  133.0230 N   0  0  0  0  0  0  0  0  0  0  0  0
  143.1150  156.8240  133.3610 C   0  0  0  0  0  0  0  0  0  0  0  0
  141.9350  157.4060  133.7500 C   0  0  0  0  0  0  0  0  0  0  0  0
  141.8540  158.7670  134.0560 C   0  0  0  0  0  0  0  0  0  0  0  0
  143.0120  159.5070  133.9510 C   0  0  0  0  0  0  0  0  0  0  0  0
  143.2400  160.8410  134.1810 C   0  0  0  0  0  0  0  0  0  0  0  0
  144.5860  161.1330  133.9410 C   0  0  0  0  0  0  0  0  0  0  0  0
  145.1240  162.4650  134.1000 C   0  0  0  0  0  0  0  0  0  0  0  0
  146.5560  162.6480  134.2240 N   0  0  0  0  0  0  0  0  0  0  0  0
  144.4640  163.5280  134.1440 O   0  0  0  0  0  0  0  0  0  0  0  0
  145.1570  159.9790  133.5690 N   0  0  0  0  0  0  0  0  0  0  0  0
  146.5170  159.7930  133.2230 C   0  0  0  0  0  0  0  0  0  0  0  0
  147.4660  160.5180  133.5800 O   0  0  0  0  0  0  0  0  0  0  0  0
  146.8850  158.7050  132.4030 O   0  0  0  0  0  0  0  0  0  0  0  0
  148.1620  158.5810  131.9510 C   0  0  0  0  0  0  0  0  0  0  0  0
  149.2480  158.4680  131.5790 N   0  0  0  0  0  0  0  0  0  0  0  0
  144.2250  158.9790  133.5670 C   0  0  0  0  0  0  0  0  0  0  0  0
  144.2500  157.6330  133.2770 C   0  0  0  0  0  0  0  0  0  0  0  0
  145.8500  155.6450  134.9700 O   0  0  0  0  0  0  0  0  0  0  0  0
  147.2150  155.4880  134.7100 C   0  0  0  0  0  0  0  0  0  0  0  0
  147.7350  154.5270  135.7560 C   0  0  0  0  0  0  0  0  0  0  0  0
  147.9810  156.7750  134.6820 C   0  0  0  0  0  0  0  0  0  0  0  0
  146.0097  156.3800  132.6677 H   0  0  0  0  0  0  0  0  0  0  0  0
  147.4250  155.9673  131.6413 H   0  0  0  0  0  0  0  0  0  0  0  0
  145.9756  154.9062  131.6413 H   0  0  0  0  0  0  0  0  0  0  0  0
  149.0838  153.9296  133.9804 H   0  0  0  0  0  0  0  0  0  0  0  0
  148.4057  153.2463  132.4638 H   0  0  0  0  0  0  0  0  0  0  0  0
  149.1275  154.8912  132.4638 H   0  0  0  0  0  0  0  0  0  0  0  0
  143.1705  154.5077  134.9080 H   0  0  0  0  0  0  0  0  0  0  0  0
  143.9270  153.0492  132.2972 H   0  0  0  0  0  0  0  0  0  0  0  0
  143.6973  152.2721  133.9077 H   0  0  0  0  0  0  0  0  0  0  0  0
  141.4677  151.9894  133.1670 H   0  0  0  0  0  0  0  0  0  0  0  0
  142.9810  155.1270  132.0600 H   0  0  0  0  0  0  0  0  0  0  0  0
  141.0297  156.7854  133.8228 H   0  0  0  0  0  0  0  0  0  0  0  0
  140.9055  159.2286  134.3677 H   0  0  0  0  0  0  0  0  0  0  0  0
  142.4806  161.5682  134.5043 H   0  0  0  0  0  0  0  0  0  0  0  0
  147.1710  162.7130  133.3770 H   0  0  0  0  0  0  0  0  0  0  0  0
  146.9910  162.7170  135.1700 H   0  0  0  0  0  0  0  0  0  0  0  0
  145.2018  157.1771  132.9669 H   0  0  0  0  0  0  0  0  0  0  0  0
  147.5198  154.9248  136.7587 H   0  0  0  0  0  0  0  0  0  0  0  0
  147.2418  153.5512  135.6350 H   0  0  0  0  0  0  0  0  0  0  0  0
  148.8216  154.4061  135.6350 H   0  0  0  0  0  0  0  0  0  0  0  0
  148.1784  157.1067  135.7121 H   0  0  0  0  0  0  0  0  0  0  0  0
  148.9353  156.6223  134.1567 H   0  0  0  0  0  0  0  0  0  0  0  0
  147.3918  157.5411  134.1567 H   0  0  0  0  0  0  0  0  0  0  0  0
  1  2  1  0
  2  3  1  0
  2  4  1  0
  4  5  1  0
  5  6  1  0
  6  7  1  0
  7  8  1  0
  8  9  2  0
  6 10  1  0
 10 11  1  0
 11 12  2  0
 12 13  1  0
 13 14  2  0
 14 15  1  0
 15 16  2  0
 16 17  1  0
 17 18  1  0
 17 19  2  0
 16 20  1  0
 20 21  1  0
 21 22  2  0
 21 23  1  0
 23 24  1  0
 24 25  3  0
 20 26  1  0
 26 27  2  0
  5 28  1  0
 28 29  1  0
 29 30  1  0
 29 31  1  0
 29  2  1  0
 27 11  1  0
 26 14  1  0
  1 32  1  0
  1 33  1  0
  1 34  1  0
  3 35  1  0
  3 36  1  0
  3 37  1  0
  6 38  1  1
  7 39  1  0
  7 40  1  0
  8 41  1  0
 10 42  1  0
 12 43  1  0
 13 44  1  0
 15 45  1  0
 18 46  1  0
 18 47  1  0
 27 48  1  0
 30 49  1  0
 30 50  1  0
 30 51  1  0
 31 52  1  0
 31 53  1  0
 31 54  1  0
M  END
>  <smiles>  (49) 
CC1(C)OB(C(CC=O)Nc2ccc3cc(C(N)=O)n(C(=O)OC#N)c3c2)OC1(C)C

>  <score_type>  (49) 
oracle

>  <origin>  (49) 
adg

>  <m_score__min__energy>  (49) 
-9.0800000000000001

>  <m_primary>  (49) 
energy

$$$$
49:0
     RDKit          3D

 51 53  0  0  0  0  0  0  0  0999 V2000
  140.9770  150.7850  135.7740 N   0  0  0  0  0  0  0  0  0  0  0  0
  140.5900  150.7590  137.1460 C   0  0  0  0  0  0  0  0  0  0  0  0
  140.0880  149.7080  137.6240 O   0  0  0  0  0  0  0  0  0  0  0  0
  140.8230  151.9430  137.9980 C   0  0  0  0  0  0  0  0  0  0  0  0
  140.3500  152.0550  139.3040 C   0  0  0  0  0  0  0  0  0  0  0  0
  140.6980  153.3220  139.7120 C   0  0  0  0  0  0  0  0  0  0  0  0
  140.4750  153.9640  140.9260 C   0  0  0  0  0  0  0  0  0  0  0  0
  140.9620  155.2730  141.0780 C   0  0  0  0  0  0  0  0  0  0  0  0
  141.6840  155.9050  140.0320 C   0  0  0  0  0  0  0  0  0  0  0  0
  142.1680  157.3230  140.1950 C   0  0  0  0  0  0  0  0  0  0  0  0
  141.3570  157.9810  141.1000 F   0  0  0  0  0  0  0  0  0  0  0  0
  143.4720  157.3440  140.6580 F   0  0  0  0  0  0  0  0  0  0  0  0
  142.1290  157.9950  138.9850 F   0  0  0  0  0  0  0  0  0  0  0  0
  141.8690  155.2270  138.8050 C   0  0  0  0  0  0  0  0  0  0  0  0
  141.3560  153.9300  138.6750 C   0  0  0  0  0  0  0  0  0  0  0  0
  141.4420  153.0960  137.6150 N   0  0  0  0  0  0  0  0  0  0  0  0
  142.1230  153.3570  136.3780 C   0  0  0  0  0  0  0  0  0  0  0  0
  143.3640  153.1550  136.2890 O   0  0  0  0  0  0  0  0  0  0  0  0
  141.4000  153.8220  135.2720 O   0  0  0  0  0  0  0  0  0  0  0  0
  141.9150  154.7700  134.3400 C   0  0  0  0  0  0  0  0  0  0  0  0
  142.7950  154.0700  133.2990 C   0  0  0  0  0  0  0  0  0  0  0  0
  142.0210  153.0810  132.4040 C   0  0  0  0  0  0  0  0  0  0  0  0
  141.7130  151.7900  133.0840 N   0  0  2  0  0  0  0  0  0  0  0  0
  142.8500  150.8210  132.9870 C   0  0  0  0  0  0  0  0  0  0  0  0
  142.6320  149.7390  131.9180 C   0  0  0  0  0  0  0  0  0  0  0  0
  141.3610  148.9120  132.2100 C   0  0  1  0  0  0  0  0  0  0  0  0
  141.6780  147.8020  133.0100 O   0  0  0  0  0  0  0  0  0  0  0  0
  140.2770  149.7490  132.9180 C   0  0  0  0  0  0  0  0  0  0  0  0
  140.4270  151.2370  132.5790 C   0  0  0  0  0  0  0  0  0  0  0  0
  141.4250  151.6310  135.3590 H   0  0  0  0  0  0  0  0  0  0  0  0
  139.8122  151.2918  139.8857 H   0  0  0  0  0  0  0  0  0  0  0  0
  139.9340  153.4621  141.7417 H   0  0  0  0  0  0  0  0  0  0  0  0
  140.7817  155.8144  142.0184 H   0  0  0  0  0  0  0  0  0  0  0  0
  142.4034  155.7069  137.9719 H   0  0  0  0  0  0  0  0  0  0  0  0
  141.0777  155.2692  133.8304 H   0  0  0  0  0  0  0  0  0  0  0  0
  142.5223  155.5101  134.8817 H   0  0  0  0  0  0  0  0  0  0  0  0
  143.2513  154.8373  132.6563 H   0  0  0  0  0  0  0  0  0  0  0  0
  143.5469  153.4867  133.8507 H   0  0  0  0  0  0  0  0  0  0  0  0
  141.0738  153.5512  132.1012 H   0  0  0  0  0  0  0  0  0  0  0  0
  142.6627  152.8506  131.5408 H   0  0  0  0  0  0  0  0  0  0  0  0
  141.5610  151.9790  134.1050 H   0  0  0  0  0  0  0  0  0  0  0  0
  143.7649  151.3789  132.7386 H   0  0  0  0  0  0  0  0  0  0  0  0
  142.9290  150.3106  133.9582 H   0  0  0  0  0  0  0  0  0  0  0  0
  142.5277  150.2218  130.9351 H   0  0  0  0  0  0  0  0  0  0  0  0
  143.4981  149.0609  131.9277 H   0  0  0  0  0  0  0  0  0  0  0  0
  140.9619  148.5793  131.2404 H   0  0  0  0  0  0  0  0  0  0  0  0
  142.4080  147.3120  132.5480 H   0  0  0  0  0  0  0  0  0  0  0  0
  139.2849  149.4035  132.5919 H   0  0  0  0  0  0  0  0  0  0  0  0
  140.3894  149.6229  134.0050 H   0  0  0  0  0  0  0  0  0  0  0  0
  140.3912  151.3590  131.4864 H   0  0  0  0  0  0  0  0  0  0  0  0
  139.6048  151.7836  133.0640 H   0  0  0  0  0  0  0  0  0  0  0  0
  1  2  1  0
  2  3  2  0
  2  4  1  0
  4  5  2  0
  5  6  1  0
  6  7  2  0
  7  8  1  0
  8  9  2  0
  9 10  1  0
 10 11  1  0
 10 12  1  0
 10 13  1  0
  9 14  1  0
 14 15  2  0
 15 16  1  0
 16 17  1  0
 17 18  2  0
 17 19  1  0
 19 20  1  0
 20 21  1  0
 21 22  1  0
 22 23  1  0
 23 24  1  0
 24 25  1  0
 25 26  1  0
 26 27  1  0
 26 28  1  0
 28 29  1  0
 16  4  1  0
 29 23  1  0
 15  6  1  0
  1 30  1  0
  5 31  1  0
  7 32  1  0
  8 33  1  0
 14 34  1  0
 20 35  1  0
 20 36  1  0
 21 37  1  0
 21 38  1  0
 22 39  1  0
 22 40  1  0
 23 41  1  1
 24 42  1  0
 24 43  1  0
 25 44  1  0
 25 45  1  0
 26 46  1  6
 27 47  1  0
 28 48  1  0
 28 49  1  0
 29 50  1  0
 29 51  1  0
M  CHG  2   1  -1  23   1
M  END
>  <UniqueID>  (50) 
49

>  <SMILES>  (50) 
[NH-]C(=O)c1cc2ccc(C(F)(F)F)cc2n1C(=O)OCCC[NH+]1CCC(O)CC1

>  <Energy>  (50) 
98.87010431029877

>  <Genealogy>  (50) 
[NH-]C(=O)c1cc2ccc(C(F)(F)F)cc2n1C(=O)OCCC[NH+]1CCC(O)CC1 (protonated)
[NH-]C(=O)c1cc2ccc(C(F)(F)F)cc2n1C(=O)OCCC[NH+]1CCC(O)CC1 (3D coordinates assigned)
[NH-]C(=O)c1cc2ccc(C(F)(F)F)cc2n1C(=O)OCCC[NH+]1CCC(O)CC1 (nonaromatic ring conformer: 98.87010431029877 kcal/mol)

>  <smiles>  (50) 
NC(=O)c1cc2ccc(C(F)(F)F)cc2n1C(=O)OCCCN1CCC(O)CC1

>  <score_type>  (50) 
oracle

>  <origin>  (50) 
adg

>  <m_score__min__energy>  (50) 
-6.46

>  <m_primary>  (50) 
energy

$$$$
50:0
     RDKit          3D

 44 45  0  0  0  0  0  0  0  0999 V2000
  138.5070  158.6920  131.8600 C   0  0  0  0  0  0  0  0  0  0  0  0
  139.9740  158.5910  132.2860 C   0  0  0  0  0  0  0  0  0  0  0  0
  140.2220  157.5010  133.3620 C   0  0  2  0  0  0  0  0  0  0  0  0
  139.4930  156.1940  132.9830 C   0  0  0  0  0  0  0  0  0  0  0  0
  139.7690  157.9990  134.7630 C   0  0  2  0  0  0  0  0  0  0  0  0
  140.2640  159.3550  134.9990 N   0  0  0  0  0  0  0  0  0  0  0  0
  141.6480  159.6740  135.1770 C   0  0  0  0  0  0  0  0  0  0  0  0
  142.2270  159.4080  136.2650 O   0  0  0  0  0  0  0  0  0  0  0  0
  142.3950  160.3160  134.0850 C   0  0  0  0  0  0  0  0  0  0  0  0
  141.8240  161.1720  133.3580 O   0  0  0  0  0  0  0  0  0  0  0  0
  143.7800  160.0060  133.8630 N   0  0  0  0  0  0  0  0  0  0  0  0
  144.8370  160.8640  133.8130 C   0  0  0  0  0  0  0  0  0  0  0  0
  144.7940  162.3130  134.1080 C   0  0  0  0  0  0  0  0  0  0  0  0
  143.9500  163.1890  133.3650 N   0  0  0  0  0  0  0  0  0  0  0  0
  145.4850  162.7780  135.0530 O   0  0  0  0  0  0  0  0  0  0  0  0
  146.0100  160.1730  133.5120 C   0  0  0  0  0  0  0  0  0  0  0  0
  145.6350  158.8530  133.3890 C   0  0  0  0  0  0  0  0  0  0  0  0
  146.3980  157.7260  133.0980 C   0  0  0  0  0  0  0  0  0  0  0  0
  145.7380  156.4870  133.0210 C   0  0  0  0  0  0  0  0  0  0  0  0
  144.3370  156.4010  133.2210 C   0  0  0  0  0  0  0  0  0  0  0  0
  143.6520  155.0690  133.1660 C   0  0  0  0  0  0  0  0  0  0  0  0
  143.5990  157.5640  133.5300 C   0  0  0  0  0  0  0  0  0  0  0  0
  144.2840  158.7810  133.6090 C   0  0  0  0  0  0  0  0  0  0  0  0
  140.2710  157.1000  135.8610 C   0  0  0  0  0  0  0  0  0  0  0  0
  139.7880  157.1790  137.0220 O   0  0  0  0  0  0  0  0  0  0  0  0
  141.2830  156.1840  135.6000 O   0  0  0  0  0  0  0  0  0  0  0  0
  137.8678  158.7360  132.7541 H   0  0  0  0  0  0  0  0  0  0  0  0
  138.3613  159.6023  131.2599 H   0  0  0  0  0  0  0  0  0  0  0  0
  138.2379  157.8103  131.2599 H   0  0  0  0  0  0  0  0  0  0  0  0
  140.5802  158.3523  131.3997 H   0  0  0  0  0  0  0  0  0  0  0  0
  140.2542  159.5583  132.7285 H   0  0  0  0  0  0  0  0  0  0  0  0
  141.3016  157.2949  133.4060 H   0  0  0  0  0  0  0  0  0  0  0  0
  139.1958  155.6612  133.8983 H   0  0  0  0  0  0  0  0  0  0  0  0
  138.5975  156.4323  132.3903 H   0  0  0  0  0  0  0  0  0  0  0  0
  140.1662  155.5572  132.3903 H   0  0  0  0  0  0  0  0  0  0  0  0
  138.6691  157.9882  134.7751 H   0  0  0  0  0  0  0  0  0  0  0  0
  143.0460  162.8540  132.9660 H   0  0  0  0  0  0  0  0  0  0  0  0
  147.0203  160.5926  133.3971 H   0  0  0  0  0  0  0  0  0  0  0  0
  147.4829  157.8022  132.9335 H   0  0  0  0  0  0  0  0  0  0  0  0
  146.3141  155.5755  132.8035 H   0  0  0  0  0  0  0  0  0  0  0  0
  143.4670  154.7093  134.1889 H   0  0  0  0  0  0  0  0  0  0  0  0
  142.6944  155.1708  132.6344 H   0  0  0  0  0  0  0  0  0  0  0  0
  144.2918  154.3493  132.6344 H   0  0  0  0  0  0  0  0  0  0  0  0
  142.5140  157.5145  133.7041 H   0  0  0  0  0  0  0  0  0  0  0  0
  1  2  1  0
  2  3  1  0
  3  4  1  0
  3  5  1  0
  5  6  1  0
  6  7  1  0
  7  8  2  0
  7  9  1  0
  9 10  2  0
  9 11  1  0
 11 12  1  0
 12 13  1  0
 13 14  1  0
 13 15  2  0
 12 16  2  0
 16 17  1  0
 17 18  2  0
 18 19  1  0
 19 20  2  0
 20 21  1  0
 20 22  1  0
 22 23  2  0
  5 24  1  0
 24 25  2  0
 24 26  1  0
 23 11  1  0
 23 17  1  0
  1 27  1  0
  1 28  1  0
  1 29  1  0
  2 30  1  0
  2 31  1  0
  3 32  1  1
  4 33  1  0
  4 34  1  0
  4 35  1  0
  5 36  1  6
 14 37  1  0
 16 38  1  0
 18 39  1  0
 19 40  1  0
 21 41  1  0
 21 42  1  0
 21 43  1  0
 22 44  1  0
M  CHG  3   6  -1  14  -1  26  -1
M  END
>  <UniqueID>  (51) 
50

>  <SMILES>  (51) 
CC[C@H](C)[C@H]([N-]C(=O)C(=O)n1c(C([NH-])=O)cc2ccc(C)cc21)C(=O)[O-]

>  <Energy>  (51) 
75.88473997321827

>  <Genealogy>  (51) 
CCC(C)C([N-]C(=O)C(=O)n1c(C([NH-])=O)cc2ccc(C)cc21)C(=O)[O-] (protonated)
CC[C@H](C)[C@H]([N-]C(=O)C(=O)n1c(C([NH-])=O)cc2ccc(C)cc21)C(=O)[O-] (chirality)
CC[C@H](C)[C@H]([N-]C(=O)C(=O)n1c(C([NH-])=O)cc2ccc(C)cc21)C(=O)[O-] (3D coordinates assigned)
CC[C@H](C)[C@H]([N-]C(=O)C(=O)n1c(C([NH-])=O)cc2ccc(C)cc21)C(=O)[O-] (optimized conformer: 75.88473997321827 kcal/mol)

>  <smiles>  (51) 
CCC(C)C(NC(=O)C(=O)n1c(C(N)=O)cc2ccc(C)cc21)C(=O)O

>  <score_type>  (51) 
oracle

>  <origin>  (51) 
adg

>  <m_score__min__energy>  (51) 
-7.9100000000000001

>  <m_primary>  (51) 
energy

$$$$
51:0
     RDKit          3D

 50 52  0  0  0  0  0  0  0  0999 V2000
  149.2310  160.4770  130.0430 C   0  0  0  0  0  0  0  0  0  0  0  0
  149.7770  160.1530  131.3160 O   0  0  0  0  0  0  0  0  0  0  0  0
  149.3460  159.0540  132.0630 C   0  0  0  0  0  0  0  0  0  0  0  0
  149.5780  157.8780  131.6640 O   0  0  0  0  0  0  0  0  0  0  0  0
  148.5980  159.2950  133.3460 C   0  0  0  0  0  0  0  0  0  0  0  0
  147.5230  160.3360  133.2510 C   0  0  0  0  0  0  0  0  0  0  0  0
  146.3930  159.4110  133.4690 N   0  0  0  0  0  0  0  0  0  0  0  0
  144.9690  159.4810  133.5320 C   0  0  0  0  0  0  0  0  0  0  0  0
  144.3270  160.7320  133.6880 C   0  0  0  0  0  0  0  0  0  0  0  0
  142.9250  160.8100  133.7620 C   0  0  0  0  0  0  0  0  0  0  0  0
  142.2010  159.6240  133.6740 C   0  0  0  0  0  0  0  0  0  0  0  0
  140.8430  159.4060  133.7450 C   0  0  0  0  0  0  0  0  0  0  0  0
  140.6810  158.0260  133.6160 C   0  0  0  0  0  0  0  0  0  0  0  0
  139.3650  157.3480  133.5490 C   0  0  0  0  0  0  0  0  0  0  0  0
  139.2240  156.0900  132.8890 N   0  0  0  0  0  0  0  0  0  0  0  0
  138.3570  157.8660  134.0980 O   0  0  0  0  0  0  0  0  0  0  0  0
  141.8930  157.4190  133.4720 N   0  0  0  0  0  0  0  0  0  0  0  0
  142.1690  156.0140  133.3690 C   0  0  0  0  0  0  0  0  0  0  0  0
  141.4210  155.1850  133.9550 O   0  0  0  0  0  0  0  0  0  0  0  0
  143.2840  155.5870  132.6340 O   0  0  0  0  0  0  0  0  0  0  0  0
  144.3030  154.6820  133.0810 C   0  0  0  0  0  0  0  0  0  0  0  0
  144.6060  155.0300  134.5460 C   0  0  0  0  0  0  0  0  0  0  0  0
  143.8010  153.2280  133.0080 C   0  0  0  0  0  0  0  0  0  0  0  0
  145.5910  154.8560  132.2520 C   0  0  0  0  0  0  0  0  0  0  0  0
  142.8110  158.4080  133.5090 C   0  0  0  0  0  0  0  0  0  0  0  0
  144.2050  158.3000  133.4450 C   0  0  0  0  0  0  0  0  0  0  0  0
  147.4380  158.3730  133.5720 C   0  0  0  0  0  0  0  0  0  0  0  0
  148.2922  161.0341  130.1777 H   0  0  0  0  0  0  0  0  0  0  0  0
  149.9477  161.0961  129.4834 H   0  0  0  0  0  0  0  0  0  0  0  0
  149.0310  159.5513  129.4834 H   0  0  0  0  0  0  0  0  0  0  0  0
  149.4677  159.3659  134.0158 H   0  0  0  0  0  0  0  0  0  0  0  0
  147.6027  161.1021  134.0363 H   0  0  0  0  0  0  0  0  0  0  0  0
  147.4993  160.9513  132.3395 H   0  0  0  0  0  0  0  0  0  0  0  0
  144.9290  161.6504  133.7519 H   0  0  0  0  0  0  0  0  0  0  0  0
  142.4163  161.7775  133.8855 H   0  0  0  0  0  0  0  0  0  0  0  0
  140.0531  160.1603  133.8757 H   0  0  0  0  0  0  0  0  0  0  0  0
  140.0190  155.6510  132.3740 H   0  0  0  0  0  0  0  0  0  0  0  0
  138.2970  155.6080  132.8750 H   0  0  0  0  0  0  0  0  0  0  0  0
  144.0288  154.3671  135.2073 H   0  0  0  0  0  0  0  0  0  0  0  0
  145.6805  154.8963  134.7400 H   0  0  0  0  0  0  0  0  0  0  0  0
  144.3258  156.0759  134.7400 H   0  0  0  0  0  0  0  0  0  0  0  0
  143.6654  152.8353  134.0265 H   0  0  0  0  0  0  0  0  0  0  0  0
  142.8405  153.1981  132.4727 H   0  0  0  0  0  0  0  0  0  0  0  0
  144.5385  152.6119  132.4727 H   0  0  0  0  0  0  0  0  0  0  0  0
  146.4500  154.9720  132.9292 H   0  0  0  0  0  0  0  0  0  0  0  0
  145.7413  153.9700  131.6176 H   0  0  0  0  0  0  0  0  0  0  0  0
  145.5008  155.7501  131.6176 H   0  0  0  0  0  0  0  0  0  0  0  0
  144.6910  157.3199  133.3299 H   0  0  0  0  0  0  0  0  0  0  0  0
  147.4636  157.8925  134.5612 H   0  0  0  0  0  0  0  0  0  0  0  0
  147.3499  157.5043  132.9030 H   0  0  0  0  0  0  0  0  0  0  0  0
  1  2  1  0
  2  3  1  0
  3  4  2  0
  3  5  1  0
  5  6  1  0
  6  7  1  0
  7  8  1  0
  8  9  2  0
  9 10  1  0
 10 11  2  0
 11 12  1  0
 12 13  2  0
 13 14  1  0
 14 15  1  0
 14 16  2  0
 13 17  1  0
 17 18  1  0
 18 19  2  0
 18 20  1  0
 20 21  1  0
 21 22  1  0
 21 23  1  0
 21 24  1  0
 17 25  1  0
 25 26  2  0
  7 27  1  0
 27  5  1  0
 26  8  1  0
 25 11  1  0
  1 28  1  0
  1 29  1  0
  1 30  1  0
  5 31  1  0
  6 32  1  0
  6 33  1  0
  9 34  1  0
 10 35  1  0
 12 36  1  0
 15 37  1  0
 15 38  1  0
 22 39  1  0
 22 40  1  0
 22 41  1  0
 23 42  1  0
 23 43  1  0
 23 44  1  0
 24 45  1  0
 24 46  1  0
 24 47  1  0
 26 48  1  0
 27 49  1  0
 27 50  1  0
M  END
>  <UniqueID>  (52) 
51

>  <SMILES>  (52) 
COC(=O)C1CN(c2ccc3cc(C(N)=O)n(C(=O)OC(C)(C)C)c3c2)C1

>  <Energy>  (52) 
126.73884268803016

>  <Genealogy>  (52) 
COC(=O)C1CN(c2ccc3cc(C(N)=O)n(C(=O)OC(C)(C)C)c3c2)C1 (3D coordinates assigned)
COC(=O)C1CN(c2ccc3cc(C(N)=O)n(C(=O)OC(C)(C)C)c3c2)C1 (nonaromatic ring conformer: 126.73884268803016 kcal/mol)

>  <smiles>  (52) 
COC(=O)C1CN(c2ccc3cc(C(N)=O)n(C(=O)OC(C)(C)C)c3c2)C1

>  <score_type>  (52) 
oracle

>  <origin>  (52) 
adg

>  <m_score__min__energy>  (52) 
-8.0399999999999991

>  <m_primary>  (52) 
energy

$$$$
52:0
     RDKit          3D

 41 43  0  0  0  0  0  0  0  0999 V2000
  146.9170  156.8390  133.0470 C   0  0  0  0  0  0  0  0  0  0  0  0
  146.3240  158.1630  133.2090 N   0  0  0  0  0  0  0  0  0  0  0  0
  147.0260  159.2790  133.0840 N   0  0  0  0  0  0  0  0  0  0  0  0
  146.2010  160.3150  133.3310 C   0  0  0  0  0  0  0  0  0  0  0  0
  144.9370  159.8430  133.6240 C   0  0  0  0  0  0  0  0  0  0  0  0
  145.0440  158.4710  133.5200 C   0  0  0  0  0  0  0  0  0  0  0  0
  143.9390  157.5200  133.7600 C   0  0  0  0  0  0  0  0  0  0  0  0
  143.9630  156.8030  134.7970 O   0  0  0  0  0  0  0  0  0  0  0  0
  142.8260  157.4340  132.8590 N   0  0  0  0  0  0  0  0  0  0  0  0
  141.8060  156.3970  132.9870 C   0  0  0  0  0  0  0  0  0  0  0  0
  140.6970  156.8820  133.8720 C   0  0  0  0  0  0  0  0  0  0  0  0
  139.5070  156.5630  133.6060 O   0  0  0  0  0  0  0  0  0  0  0  0
  140.9730  157.7480  134.9830 N   0  0  0  0  0  0  0  0  0  0  0  0
  141.1200  159.1020  134.9660 C   0  0  0  0  0  0  0  0  0  0  0  0
  141.0990  159.9580  133.7590 C   0  0  0  0  0  0  0  0  0  0  0  0
  140.7970  159.3860  132.4890 N   0  0  0  0  0  0  0  0  0  0  0  0
  141.3300  161.1920  133.8390 O   0  0  0  0  0  0  0  0  0  0  0  0
  141.3430  159.5830  136.2540 C   0  0  0  0  0  0  0  0  0  0  0  0
  141.3240  158.4710  137.0670 C   0  0  0  0  0  0  0  0  0  0  0  0
  141.4630  158.3680  138.4480 C   0  0  0  0  0  0  0  0  0  0  0  0
  141.3610  157.0910  139.0260 C   0  0  0  0  0  0  0  0  0  0  0  0
  141.1320  155.9450  138.2210 C   0  0  0  0  0  0  0  0  0  0  0  0
  140.9630  154.5900  138.8590 C   0  0  0  0  0  0  0  0  0  0  0  0
  141.0740  153.5860  137.9130 F   0  0  0  0  0  0  0  0  0  0  0  0
  141.9320  154.3820  139.8260 F   0  0  0  0  0  0  0  0  0  0  0  0
  139.7150  154.5180  139.4480 F   0  0  0  0  0  0  0  0  0  0  0  0
  140.9710  156.0970  136.8240 C   0  0  0  0  0  0  0  0  0  0  0  0
  141.0970  157.3770  136.2750 C   0  0  0  0  0  0  0  0  0  0  0  0
  147.1130  156.4014  134.0370 H   0  0  0  0  0  0  0  0  0  0  0  0
  146.2228  156.1918  132.4910 H   0  0  0  0  0  0  0  0  0  0  0  0
  147.8621  156.9261  132.4910 H   0  0  0  0  0  0  0  0  0  0  0  0
  146.4905  161.3759  133.3034 H   0  0  0  0  0  0  0  0  0  0  0  0
  144.0434  160.4300  133.8828 H   0  0  0  0  0  0  0  0  0  0  0  0
  142.6220  158.2520  132.2420 H   0  0  0  0  0  0  0  0  0  0  0  0
  141.4015  156.1579  131.9924 H   0  0  0  0  0  0  0  0  0  0  0  0
  142.2569  155.4967  133.4300 H   0  0  0  0  0  0  0  0  0  0  0  0
  141.5510  159.1940  131.7940 H   0  0  0  0  0  0  0  0  0  0  0  0
  141.5008  160.6285  136.5575 H   0  0  0  0  0  0  0  0  0  0  0  0
  141.6469  159.2581  139.0676 H   0  0  0  0  0  0  0  0  0  0  0  0
  141.4599  156.9785  140.1158 H   0  0  0  0  0  0  0  0  0  0  0  0
  140.7519  155.2291  136.1847 H   0  0  0  0  0  0  0  0  0  0  0  0
  1  2  1  0
  2  3  1  0
  3  4  2  0
  4  5  1  0
  5  6  2  0
  6  7  1  0
  7  8  2  0
  7  9  1  0
  9 10  1  0
 10 11  1  0
 11 12  2  0
 11 13  1  0
 13 14  1  0
 14 15  1  0
 15 16  1  0
 15 17  2  0
 14 18  2  0
 18 19  1  0
 19 20  2  0
 20 21  1  0
 21 22  2  0
 22 23  1  0
 23 24  1  0
 23 25  1  0
 23 26  1  0
 22 27  1  0
 27 28  2  0
  6  2  1  0
 28 13  1  0
 28 19  1  0
  1 29  1  0
  1 30  1  0
  1 31  1  0
  4 32  1  0
  5 33  1  0
  9 34  1  0
 10 35  1  0
 10 36  1  0
 16 37  1  0
 18 38  1  0
 20 39  1  0
 21 40  1  0
 27 41  1  0
M  CHG  1  16  -1
M  END
>  <UniqueID>  (53) 
52

>  <SMILES>  (53) 
Cn1nccc1C(=O)NCC(=O)n1c(C([NH-])=O)cc2ccc(C(F)(F)F)cc21

>  <Energy>  (53) 
112.94870124436186

>  <Genealogy>  (53) 
Cn1nccc1C(=O)NCC(=O)n1c(C([NH-])=O)cc2ccc(C(F)(F)F)cc21 (protonated)
Cn1nccc1C(=O)NCC(=O)n1c(C([NH-])=O)cc2ccc(C(F)(F)F)cc21 (3D coordinates assigned)
Cn1nccc1C(=O)NCC(=O)n1c(C([NH-])=O)cc2ccc(C(F)(F)F)cc21 (optimized conformer: 112.94870124436186 kcal/mol)

>  <smiles>  (53) 
Cn1nccc1C(=O)NCC(=O)n1c(C(N)=O)cc2ccc(C(F)(F)F)cc21

>  <score_type>  (53) 
oracle

>  <origin>  (53) 
adg

>  <m_score__min__energy>  (53) 
-7.8200000000000003

>  <m_primary>  (53) 
energy

$$$$
53:0
     RDKit          3D

 42 44  0  0  0  0  0  0  0  0999 V2000
  142.9860  156.1150  133.0570 N   0  0  0  0  0  0  0  0  0  0  0  0
  143.2360  154.9550  133.8530 C   0  0  0  0  0  0  0  0  0  0  0  0
  143.8830  155.0780  134.9270 O   0  0  0  0  0  0  0  0  0  0  0  0
  142.7150  153.6310  133.4460 C   0  0  0  0  0  0  0  0  0  0  0  0
  143.4950  152.4800  133.3650 C   0  0  0  0  0  0  0  0  0  0  0  0
  142.6600  151.5080  132.8610 C   0  0  0  0  0  0  0  0  0  0  0  0
  142.9140  150.1690  132.5820 C   0  0  0  0  0  0  0  0  0  0  0  0
  141.8580  149.3880  132.0880 C   0  0  0  0  0  0  0  0  0  0  0  0
  140.5680  149.9500  131.8900 C   0  0  0  0  0  0  0  0  0  0  0  0
  139.4240  149.1050  131.3600 C   0  0  1  0  0  0  0  0  0  0  0  0
  138.9180  149.5950  130.0100 C   0  0  0  0  0  0  0  0  0  0  0  0
  138.7210  148.3310  129.1960 C   0  0  0  0  0  0  0  0  0  0  0  0
  139.6420  147.3260  129.7190 N   0  0  0  0  0  0  0  0  0  0  0  0
  139.8150  147.6370  131.1380 C   0  0  0  0  0  0  0  0  0  0  0  0
  140.3540  151.3160  132.1830 C   0  0  0  0  0  0  0  0  0  0  0  0
  141.4300  152.0750  132.6560 C   0  0  0  0  0  0  0  0  0  0  0  0
  141.4470  153.3800  133.0100 N   0  0  0  0  0  0  0  0  0  0  0  0
  140.3320  154.2860  132.9840 C   0  0  0  0  0  0  0  0  0  0  0  0
  139.1560  153.8340  132.9180 O   0  0  0  0  0  0  0  0  0  0  0  0
  140.5580  155.6670  133.0160 O   0  0  0  0  0  0  0  0  0  0  0  0
  139.5110  156.6350  133.0270 C   0  0  0  0  0  0  0  0  0  0  0  0
  140.0600  158.0240  132.6950 C   0  0  0  0  0  0  0  0  0  0  0  0
  141.4200  157.9430  132.3690 O   0  0  0  0  0  0  0  0  0  0  0  0
  143.3250  157.0500  133.3740 H   0  0  0  0  0  0  0  0  0  0  0  0
  142.5030  156.0460  132.1350 H   0  0  0  0  0  0  0  0  0  0  0  0
  144.5533  152.3706  133.6443 H   0  0  0  0  0  0  0  0  0  0  0  0
  143.9121  149.7357  132.7437 H   0  0  0  0  0  0  0  0  0  0  0  0
  142.0309  148.3278  131.8511 H   0  0  0  0  0  0  0  0  0  0  0  0
  138.6521  149.1936  132.1386 H   0  0  0  0  0  0  0  0  0  0  0  0
  137.9670  150.1358  130.1243 H   0  0  0  0  0  0  0  0  0  0  0  0
  139.6173  150.2960  129.5308 H   0  0  0  0  0  0  0  0  0  0  0  0
  137.6839  147.9781  129.2950 H   0  0  0  0  0  0  0  0  0  0  0  0
  138.9180  148.5209  128.1306 H   0  0  0  0  0  0  0  0  0  0  0  0
  140.5660  147.4650  129.2450 H   0  0  0  0  0  0  0  0  0  0  0  0
  139.1690  146.9842  131.7435 H   0  0  0  0  0  0  0  0  0  0  0  0
  140.8608  147.4735  131.4375 H   0  0  0  0  0  0  0  0  0  0  0  0
  139.3631  151.7724  132.0422 H   0  0  0  0  0  0  0  0  0  0  0  0
  138.7536  156.3572  132.2792 H   0  0  0  0  0  0  0  0  0  0  0  0
  139.0620  156.6612  134.0309 H   0  0  0  0  0  0  0  0  0  0  0  0
  139.5058  158.4386  131.8401 H   0  0  0  0  0  0  0  0  0  0  0  0
  139.9402  158.6758  133.5730 H   0  0  0  0  0  0  0  0  0  0  0  0
  141.5400  157.1020  131.8560 H   0  0  0  0  0  0  0  0  0  0  0  0
  1  2  1  0
  2  3  2  0
  2  4  1  0
  4  5  2  0
  5  6  1  0
  6  7  2  0
  7  8  1  0
  8  9  2  0
  9 10  1  0
 10 11  1  0
 11 12  1  0
 12 13  1  0
 13 14  1  0
  9 15  1  0
 15 16  2  0
 16 17  1  0
 17 18  1  0
 18 19  2  0
 18 20  1  0
 20 21  1  0
 21 22  1  0
 22 23  1  0
 17  4  1  0
 16  6  1  0
 14 10  1  0
  1 24  1  0
  1 25  1  0
  5 26  1  0
  7 27  1  0
  8 28  1  0
 10 29  1  1
 11 30  1  0
 11 31  1  0
 12 32  1  0
 12 33  1  0
 13 34  1  0
 14 35  1  0
 14 36  1  0
 15 37  1  0
 21 38  1  0
 21 39  1  0
 22 40  1  0
 22 41  1  0
 23 42  1  0
M  END
>  <UniqueID>  (54) 
53

>  <SMILES>  (54) 
NC(=O)c1cc2ccc([C@H]3CCNC3)cc2n1C(=O)OCCO

>  <Energy>  (54) 
79.83029365362225

>  <Genealogy>  (54) 
NC(=O)c1cc2ccc([C@H]3CCNC3)cc2n1C(=O)OCCO (3D coordinates assigned)
NC(=O)c1cc2ccc([C@H]3CCNC3)cc2n1C(=O)OCCO (nonaromatic ring conformer: 79.83029365362225 kcal/mol)

>  <smiles>  (54) 
NC(=O)c1cc2ccc([C@H]3CCNC3)cc2n1C(=O)OCCO

>  <score_type>  (54) 
oracle

>  <origin>  (54) 
adg

>  <m_score__min__energy>  (54) 
-7.8200000000000003

>  <m_primary>  (54) 
energy

$$$$
54:0
     RDKit          3D

 44 45  0  0  0  0  0  0  0  0999 V2000
  148.8640  161.8010  130.6980 C   0  0  0  0  0  0  0  0  0  0  0  0
  148.7060  160.4550  131.3410 C   0  0  0  0  0  0  0  0  0  0  0  0
  149.7910  159.5460  131.3650 C   0  0  0  0  0  0  0  0  0  0  0  0
  149.6600  158.2950  131.9900 C   0  0  0  0  0  0  0  0  0  0  0  0
  148.4460  157.9910  132.5990 C   0  0  0  0  0  0  0  0  0  0  0  0
  148.0480  156.8500  133.2550 C   0  0  0  0  0  0  0  0  0  0  0  0
  146.7420  157.0980  133.6650 C   0  0  0  0  0  0  0  0  0  0  0  0
  145.9550  156.1500  134.4780 C   0  0  0  0  0  0  0  0  0  0  0  0
  144.5420  156.2990  134.6230 N   0  0  0  0  0  0  0  0  0  0  0  0
  146.5470  155.2280  135.0990 O   0  0  0  0  0  0  0  0  0  0  0  0
  146.3350  158.3370  133.2640 N   0  0  0  0  0  0  0  0  0  0  0  0
  145.0290  158.9190  133.4100 C   0  0  0  0  0  0  0  0  0  0  0  0
  144.8890  160.0160  134.0170 O   0  0  0  0  0  0  0  0  0  0  0  0
  143.9140  158.2610  132.8900 O   0  0  0  0  0  0  0  0  0  0  0  0
  142.5740  158.6180  133.2120 C   0  0  0  0  0  0  0  0  0  0  0  0
  141.9320  157.5150  133.8420 O   0  0  0  0  0  0  0  0  0  0  0  0
  141.6880  157.4620  135.2200 C   0  0  0  0  0  0  0  0  0  0  0  0
  142.5110  156.8840  135.9840 O   0  0  0  0  0  0  0  0  0  0  0  0
  140.4880  158.1790  135.8060 C   0  0  0  0  0  0  0  0  0  0  0  0
  140.0100  157.4650  137.0870 C   0  0  0  0  0  0  0  0  0  0  0  0
  140.8600  159.6340  136.1580 C   0  0  0  0  0  0  0  0  0  0  0  0
  139.3540  158.1740  134.7650 C   0  0  0  0  0  0  0  0  0  0  0  0
  147.3940  158.8740  132.6140 C   0  0  0  0  0  0  0  0  0  0  0  0
  147.4920  160.1200  131.9780 C   0  0  0  0  0  0  0  0  0  0  0  0
  148.9545  162.5715  131.4778 H   0  0  0  0  0  0  0  0  0  0  0  0
  149.7687  161.8045  130.0723 H   0  0  0  0  0  0  0  0  0  0  0  0
  147.9847  162.0140  130.0723 H   0  0  0  0  0  0  0  0  0  0  0  0
  150.7443  159.8216  130.8904 H   0  0  0  0  0  0  0  0  0  0  0  0
  150.4928  157.5764  131.9979 H   0  0  0  0  0  0  0  0  0  0  0  0
  148.6369  155.9358  133.4204 H   0  0  0  0  0  0  0  0  0  0  0  0
  143.9950  155.5990  135.1710 H   0  0  0  0  0  0  0  0  0  0  0  0
  144.0480  157.1420  134.2560 H   0  0  0  0  0  0  0  0  0  0  0  0
  142.5774  159.4803  133.8950 H   0  0  0  0  0  0  0  0  0  0  0  0
  142.0322  158.8836  132.2923 H   0  0  0  0  0  0  0  0  0  0  0  0
  140.3755  158.0110  137.9692 H   0  0  0  0  0  0  0  0  0  0  0  0
  138.9105  157.4371  137.1027 H   0  0  0  0  0  0  0  0  0  0  0  0
  140.4031  156.4378  137.1027 H   0  0  0  0  0  0  0  0  0  0  0  0
  140.8898  159.7506  137.2514 H   0  0  0  0  0  0  0  0  0  0  0  0
  141.8479  159.8720  135.7368 H   0  0  0  0  0  0  0  0  0  0  0  0
  140.1076  160.3170  135.7368 H   0  0  0  0  0  0  0  0  0  0  0  0
  138.3826  158.1697  135.2810 H   0  0  0  0  0  0  0  0  0  0  0  0
  139.4306  159.0725  134.1350 H   0  0  0  0  0  0  0  0  0  0  0  0
  139.4385  157.2762  134.1350 H   0  0  0  0  0  0  0  0  0  0  0  0
  146.6430  160.8195  131.9757 H   0  0  0  0  0  0  0  0  0  0  0  0
  1  2  1  0
  2  3  2  0
  3  4  1  0
  4  5  2  0
  5  6  1  0
  6  7  2  0
  7  8  1  0
  8  9  1  0
  8 10  2  0
  7 11  1  0
 11 12  1  0
 12 13  2  0
 12 14  1  0
 14 15  1  0
 15 16  1  0
 16 17  1  0
 17 18  2  0
 17 19  1  0
 19 20  1  0
 19 21  1  0
 19 22  1  0
 11 23  1  0
 23 24  2  0
 24  2  1  0
 23  5  1  0
  1 25  1  0
  1 26  1  0
  1 27  1  0
  3 28  1  0
  4 29  1  0
  6 30  1  0
  9 31  1  0
  9 32  1  0
 15 33  1  0
 15 34  1  0
 20 35  1  0
 20 36  1  0
 20 37  1  0
 21 38  1  0
 21 39  1  0
 21 40  1  0
 22 41  1  0
 22 42  1  0
 22 43  1  0
 24 44  1  0
M  END
>  <UniqueID>  (55) 
54

>  <SMILES>  (55) 
Cc1ccc2cc(C(N)=O)n(C(=O)OCOC(=O)C(C)(C)C)c2c1

>  <Energy>  (55) 
74.22622819314915

>  <Genealogy>  (55) 
Cc1ccc2cc(C(N)=O)n(C(=O)OCOC(=O)C(C)(C)C)c2c1 (3D coordinates assigned)
Cc1ccc2cc(C(N)=O)n(C(=O)OCOC(=O)C(C)(C)C)c2c1 (optimized conformer: 74.22622819314915 kcal/mol)

>  <smiles>  (55) 
Cc1ccc2cc(C(N)=O)n(C(=O)OCOC(=O)C(C)(C)C)c2c1

>  <score_type>  (55) 
oracle

>  <origin>  (55) 
adg

>  <m_score__min__energy>  (55) 
-6.8499999999999996

>  <m_primary>  (55) 
energy

$$$$
55:0
     RDKit          3D

 44 45  0  0  0  0  0  0  0  0999 V2000
  138.3730  160.1720  130.2710 C   0  0  0  0  0  0  0  0  0  0  0  0
  139.4880  159.9600  131.1080 O   0  0  0  0  0  0  0  0  0  0  0  0
  139.0650  159.3510  132.3090 C   0  0  0  0  0  0  0  0  0  0  0  0
  140.2380  159.2760  133.2990 C   0  0  0  0  0  0  0  0  0  0  0  0
  141.5360  159.0500  132.6410 N   0  0  0  0  0  0  0  0  0  0  0  0
  142.6530  159.6720  133.3660 C   0  0  0  0  0  0  0  0  0  0  0  0
  143.2520  158.6860  134.3740 C   0  0  0  0  0  0  0  0  0  0  0  0
  144.5710  158.1350  133.8940 C   0  0  0  0  0  0  0  0  0  0  0  0
  145.5860  159.0090  133.4310 C   0  0  0  0  0  0  0  0  0  0  0  0
  146.8220  158.5020  132.9980 C   0  0  0  0  0  0  0  0  0  0  0  0
  147.0220  157.1260  133.0610 C   0  0  0  0  0  0  0  0  0  0  0  0
  148.1030  156.3720  132.6680 C   0  0  0  0  0  0  0  0  0  0  0  0
  147.7500  155.0540  132.9420 C   0  0  0  0  0  0  0  0  0  0  0  0
  148.6390  153.9020  132.6850 C   0  0  0  0  0  0  0  0  0  0  0  0
  148.2240  152.5650  132.9650 N   0  0  0  0  0  0  0  0  0  0  0  0
  149.8060  154.1070  132.2530 O   0  0  0  0  0  0  0  0  0  0  0  0
  146.4990  154.9910  133.4790 N   0  0  0  0  0  0  0  0  0  0  0  0
  145.7470  153.8050  133.7880 C   0  0  0  0  0  0  0  0  0  0  0  0
  145.7390  153.3600  134.9660 O   0  0  0  0  0  0  0  0  0  0  0  0
  144.9630  153.0880  132.7260 C   0  0  0  0  0  0  0  0  0  0  0  0
  145.4270  151.7730  132.5850 O   0  0  0  0  0  0  0  0  0  0  0  0
  146.0630  156.2700  133.5380 C   0  0  0  0  0  0  0  0  0  0  0  0
  144.8090  156.7440  133.9410 C   0  0  0  0  0  0  0  0  0  0  0  0
  137.4784  160.3421  130.8880 H   0  0  0  0  0  0  0  0  0  0  0  0
  138.5532  161.0520  129.6360 H   0  0  0  0  0  0  0  0  0  0  0  0
  138.2177  159.2873  129.6360 H   0  0  0  0  0  0  0  0  0  0  0  0
  138.2514  159.9442  132.7519 H   0  0  0  0  0  0  0  0  0  0  0  0
  138.7081  158.3332  132.0927 H   0  0  0  0  0  0  0  0  0  0  0  0
  140.2878  160.2237  133.8552 H   0  0  0  0  0  0  0  0  0  0  0  0
  140.0529  158.4183  133.9624 H   0  0  0  0  0  0  0  0  0  0  0  0
  141.5000  159.4330  131.6670 H   0  0  0  0  0  0  0  0  0  0  0  0
  143.4296  159.9715  132.6469 H   0  0  0  0  0  0  0  0  0  0  0  0
  142.2793  160.5530  133.9083 H   0  0  0  0  0  0  0  0  0  0  0  0
  143.4089  159.2050  135.3311 H   0  0  0  0  0  0  0  0  0  0  0  0
  142.5510  157.8467  134.4928 H   0  0  0  0  0  0  0  0  0  0  0  0
  145.4041  160.0937  133.4106 H   0  0  0  0  0  0  0  0  0  0  0  0
  147.6084  159.1721  132.6204 H   0  0  0  0  0  0  0  0  0  0  0  0
  149.0453  156.7335  132.2305 H   0  0  0  0  0  0  0  0  0  0  0  0
  148.8480  151.7620  132.7240 H   0  0  0  0  0  0  0  0  0  0  0  0
  147.3500  152.3720  133.4990 H   0  0  0  0  0  0  0  0  0  0  0  0
  143.9003  153.0697  133.0093 H   0  0  0  0  0  0  0  0  0  0  0  0
  145.0883  153.6167  131.7696 H   0  0  0  0  0  0  0  0  0  0  0  0
  145.9380  151.5620  133.4100 H   0  0  0  0  0  0  0  0  0  0  0  0
  144.0283  156.0500  134.2858 H   0  0  0  0  0  0  0  0  0  0  0  0
  1  2  1  0
  2  3  1  0
  3  4  1  0
  4  5  1  0
  5  6  1  0
  6  7  1  0
  7  8  1  0
  8  9  2  0
  9 10  1  0
 10 11  2  0
 11 12  1  0
 12 13  2  0
 13 14  1  0
 14 15  1  0
 14 16  2  0
 13 17  1  0
 17 18  1  0
 18 19  2  0
 18 20  1  0
 20 21  1  0
 17 22  1  0
 22 23  2  0
 23  8  1  0
 22 11  1  0
  1 24  1  0
  1 25  1  0
  1 26  1  0
  3 27  1  0
  3 28  1  0
  4 29  1  0
  4 30  1  0
  5 31  1  0
  6 32  1  0
  6 33  1  0
  7 34  1  0
  7 35  1  0
  9 36  1  0
 10 37  1  0
 12 38  1  0
 15 39  1  0
 15 40  1  0
 20 41  1  0
 20 42  1  0
 21 43  1  0
 23 44  1  0
M  END
>  <UniqueID>  (56) 
55

>  <SMILES>  (56) 
COCCNCCc1ccc2cc(C(N)=O)n(C(=O)CO)c2c1

>  <Energy>  (56) 
80.1227830135652

>  <Genealogy>  (56) 
COCCNCCc1ccc2cc(C(N)=O)n(C(=O)CO)c2c1 (3D coordinates assigned)
COCCNCCc1ccc2cc(C(N)=O)n(C(=O)CO)c2c1 (optimized conformer: 80.1227830135652 kcal/mol)

>  <smiles>  (56) 
COCCNCCc1ccc2cc(C(N)=O)n(C(=O)CO)c2c1

>  <score_type>  (56) 
oracle

>  <origin>  (56) 
adg

>  <m_score__min__energy>  (56) 
-6.7300000000000004

>  <m_primary>  (56) 
energy

$$$$
56:0
     RDKit          3D

 34 35  0  0  0  0  0  0  0  0999 V2000
  143.0440  161.2020  133.7100 N   0  0  0  0  0  0  0  0  0  0  0  0
  144.4540  161.3760  133.8670 C   0  0  0  0  0  0  0  0  0  0  0  0
  144.8940  162.4660  134.3220 O   0  0  0  0  0  0  0  0  0  0  0  0
  145.3970  160.2800  133.5710 C   0  0  0  0  0  0  0  0  0  0  0  0
  146.7590  160.4790  133.3600 C   0  0  0  0  0  0  0  0  0  0  0  0
  147.2870  159.2210  133.1910 C   0  0  0  0  0  0  0  0  0  0  0  0
  148.6000  158.8300  132.9420 C   0  0  0  0  0  0  0  0  0  0  0  0
  148.8570  157.4590  132.7770 C   0  0  0  0  0  0  0  0  0  0  0  0
  147.8060  156.5120  132.8540 C   0  0  0  0  0  0  0  0  0  0  0  0
  148.1020  155.0520  132.6620 C   0  0  0  0  0  0  0  0  0  0  0  0
  147.6380  154.3350  133.7500 F   0  0  0  0  0  0  0  0  0  0  0  0
  149.4670  154.8650  132.5400 F   0  0  0  0  0  0  0  0  0  0  0  0
  146.4860  156.9460  133.1060 C   0  0  0  0  0  0  0  0  0  0  0  0
  146.2610  158.3160  133.2890 C   0  0  0  0  0  0  0  0  0  0  0  0
  145.0890  158.9530  133.5190 N   0  0  0  0  0  0  0  0  0  0  0  0
  143.7830  158.3570  133.5810 C   0  0  0  0  0  0  0  0  0  0  0  0
  143.3470  157.7010  132.5960 O   0  0  0  0  0  0  0  0  0  0  0  0
  143.0090  158.5020  134.7410 O   0  0  0  0  0  0  0  0  0  0  0  0
  141.7080  159.0240  134.7810 C   0  0  0  0  0  0  0  0  0  0  0  0
  141.4550  160.0950  135.3970 O   0  0  0  0  0  0  0  0  0  0  0  0
  140.6420  158.3280  134.1320 N   0  0  0  0  0  0  0  0  0  0  0  0
  140.2710  158.5550  132.7400 C   0  0  0  0  0  0  0  0  0  0  0  0
  139.9400  159.9970  132.4870 C   0  0  0  0  0  0  0  0  0  0  0  0
  140.6650  160.9210  132.9450 O   0  0  0  0  0  0  0  0  0  0  0  0
  138.8370  160.3160  131.7030 O   0  0  0  0  0  0  0  0  0  0  0  0
  142.3950  161.9990  133.8920 H   0  0  0  0  0  0  0  0  0  0  0  0
  142.6370  160.2650  133.5000 H   0  0  0  0  0  0  0  0  0  0  0  0
  147.2974  161.4379  133.3341 H   0  0  0  0  0  0  0  0  0  0  0  0
  149.4102  159.5712  132.8766 H   0  0  0  0  0  0  0  0  0  0  0  0
  149.8849  157.1170  132.5860 H   0  0  0  0  0  0  0  0  0  0  0  0
  147.5998  154.7000  131.7488 H   0  0  0  0  0  0  0  0  0  0  0  0
  145.6557  156.2263  133.1572 H   0  0  0  0  0  0  0  0  0  0  0  0
  141.1117  158.2625  132.0938 H   0  0  0  0  0  0  0  0  0  0  0  0
  139.3782  157.9519  132.5180 H   0  0  0  0  0  0  0  0  0  0  0  0
  1  2  1  0
  2  3  2  0
  2  4  1  0
  4  5  2  0
  5  6  1  0
  6  7  2  0
  7  8  1  0
  8  9  2  0
  9 10  1  0
 10 11  1  0
 10 12  1  0
  9 13  1  0
 13 14  2  0
 14 15  1  0
 15 16  1  0
 16 17  2  0
 16 18  1  0
 18 19  1  0
 19 20  2  0
 19 21  1  0
 21 22  1  0
 22 23  1  0
 23 24  2  0
 23 25  1  0
 15  4  1  0
 14  6  1  0
  1 26  1  0
  1 27  1  0
  5 28  1  0
  7 29  1  0
  8 30  1  0
 10 31  1  0
 13 32  1  0
 22 33  1  0
 22 34  1  0
M  CHG  2  21  -1  25  -1
M  END
>  <UniqueID>  (57) 
56

>  <SMILES>  (57) 
NC(=O)c1cc2ccc(C(F)F)cc2n1C(=O)OC(=O)[N-]CC(=O)[O-]

>  <Energy>  (57) 
71.06305518297108

>  <Genealogy>  (57) 
NC(=O)c1cc2ccc(C(F)F)cc2n1C(=O)OC(=O)[N-]CC(=O)[O-] (protonated)
NC(=O)c1cc2ccc(C(F)F)cc2n1C(=O)OC(=O)[N-]CC(=O)[O-] (3D coordinates assigned)
NC(=O)c1cc2ccc(C(F)F)cc2n1C(=O)OC(=O)[N-]CC(=O)[O-] (optimized conformer: 71.06305518297108 kcal/mol)

>  <smiles>  (57) 
NC(=O)c1cc2ccc(C(F)F)cc2n1C(=O)OC(=O)NCC(=O)O

>  <score_type>  (57) 
oracle

>  <origin>  (57) 
adg

>  <m_score__min__energy>  (57) 
-6.1799999999999997

>  <m_primary>  (57) 
energy

$$$$
57:0
     RDKit          3D

 41 42  0  0  0  0  0  0  0  0999 V2000
  139.4420  158.5790  132.2200 C   0  0  0  0  0  0  0  0  0  0  0  0
  140.1740  157.9770  133.4170 C   0  0  2  0  0  0  0  0  0  0  0  0
  139.4560  158.2320  134.5740 F   0  0  0  0  0  0  0  0  0  0  0  0
  141.5650  158.5460  133.5310 C   0  0  0  0  0  0  0  0  0  0  0  0
  141.7580  159.9420  133.6990 C   0  0  0  0  0  0  0  0  0  0  0  0
  143.0530  160.4830  133.7640 C   0  0  0  0  0  0  0  0  0  0  0  0
  144.1310  159.6090  133.6530 C   0  0  0  0  0  0  0  0  0  0  0  0
  145.4830  159.8670  133.6540 C   0  0  0  0  0  0  0  0  0  0  0  0
  146.0970  158.6270  133.4900 C   0  0  0  0  0  0  0  0  0  0  0  0
  147.5620  158.4310  133.4850 C   0  0  0  0  0  0  0  0  0  0  0  0
  148.1620  157.5340  134.4170 N   0  0  0  0  0  0  0  0  0  0  0  0
  148.2910  159.0320  132.6510 O   0  0  0  0  0  0  0  0  0  0  0  0
  145.1600  157.6420  133.3910 N   0  0  0  0  0  0  0  0  0  0  0  0
  145.3880  156.2390  133.1730 C   0  0  0  0  0  0  0  0  0  0  0  0
  144.6370  155.6110  132.3760 O   0  0  0  0  0  0  0  0  0  0  0  0
  146.5190  155.5770  133.7890 N   0  0  2  0  0  0  0  0  0  0  0  0
  147.4190  155.0740  132.7330 C   0  0  0  0  0  0  0  0  0  0  0  0
  146.0840  154.5390  134.7730 C   0  0  2  0  0  0  0  0  0  0  0  0
  144.6750  154.8300  135.3200 C   0  0  0  0  0  0  0  0  0  0  0  0
  147.0570  154.3410  135.9170 C   0  0  0  0  0  0  0  0  0  0  0  0
  147.9510  155.1990  136.1420 O   0  0  0  0  0  0  0  0  0  0  0  0
  146.9730  153.2180  136.7320 O   0  0  0  0  0  0  0  0  0  0  0  0
  143.9630  158.2590  133.4920 C   0  0  0  0  0  0  0  0  0  0  0  0
  142.6850  157.6940  133.4060 C   0  0  0  0  0  0  0  0  0  0  0  0
  138.6382  159.2400  132.5763 H   0  0  0  0  0  0  0  0  0  0  0  0
  140.1507  159.1590  131.6106 H   0  0  0  0  0  0  0  0  0  0  0  0
  139.0097  157.7716  131.6106 H   0  0  0  0  0  0  0  0  0  0  0  0
  140.2591  156.8898  133.2728 H   0  0  0  0  0  0  0  0  0  0  0  0
  140.8853  160.6068  133.7791 H   0  0  0  0  0  0  0  0  0  0  0  0
  143.2103  161.5634  133.8984 H   0  0  0  0  0  0  0  0  0  0  0  0
  145.9747  160.8451  133.7615 H   0  0  0  0  0  0  0  0  0  0  0  0
  147.6030  157.1100  135.1910 H   0  0  0  0  0  0  0  0  0  0  0  0
  147.0600  156.3090  134.3080 H   0  0  0  0  0  0  0  0  0  0  0  0
  148.2904  154.5870  133.1952 H   0  0  0  0  0  0  0  0  0  0  0  0
  146.8806  154.3460  132.1084 H   0  0  0  0  0  0  0  0  0  0  0  0
  147.7569  155.9141  132.1084 H   0  0  0  0  0  0  0  0  0  0  0  0
  146.0616  153.5964  134.2065 H   0  0  0  0  0  0  0  0  0  0  0  0
  144.7003  154.8248  136.4197 H   0  0  0  0  0  0  0  0  0  0  0  0
  144.3405  155.8162  134.9656 H   0  0  0  0  0  0  0  0  0  0  0  0
  143.9772  154.0570  134.9656 H   0  0  0  0  0  0  0  0  0  0  0  0
  142.5561  156.6135  133.2451 H   0  0  0  0  0  0  0  0  0  0  0  0
  1  2  1  0
  2  3  1  0
  2  4  1  0
  4  5  2  0
  5  6  1  0
  6  7  2  0
  7  8  1  0
  8  9  2  0
  9 10  1  0
 10 11  1  0
 10 12  2  0
  9 13  1  0
 13 14  1  0
 14 15  2  0
 14 16  1  0
 16 17  1  0
 16 18  1  0
 18 19  1  0
 18 20  1  0
 20 21  2  0
 20 22  1  0
 13 23  1  0
 23 24  2  0
 24  4  1  0
 23  7  1  0
  1 25  1  0
  1 26  1  0
  1 27  1  0
  2 28  1  6
  5 29  1  0
  6 30  1  0
  8 31  1  0
 11 32  1  0
 16 33  1  1
 17 34  1  0
 17 35  1  0
 17 36  1  0
 18 37  1  6
 19 38  1  0
 19 39  1  0
 19 40  1  0
 24 41  1  0
M  CHG  3  11  -1  16   1  22  -1
M  END
>  <UniqueID>  (58) 
57

>  <SMILES>  (58) 
CC(C(=O)[O-])[N@@H+](C)C(=O)n1c(C([NH-])=O)cc2ccc([C@H](C)F)cc21

>  <Energy>  (58) 
82.50975877209154

>  <Genealogy>  (58) 
CC(F)c1ccc2cc(C([NH-])=O)n(C(=O)[NH+](C)C(C)C(=O)[O-])c2c1 (protonated)
CC(C(=O)[O-])[N@@H+](C)C(=O)n1c(C([NH-])=O)cc2ccc([C@H](C)F)cc21 (chirality)
CC(C(=O)[O-])[N@@H+](C)C(=O)n1c(C([NH-])=O)cc2ccc([C@H](C)F)cc21 (3D coordinates assigned)
CC(C(=O)[O-])[N@@H+](C)C(=O)n1c(C([NH-])=O)cc2ccc([C@H](C)F)cc21 (optimized conformer: 82.50975877209154 kcal/mol)

>  <smiles>  (58) 
CC(F)c1ccc2cc(C(N)=O)n(C(=O)N(C)C(C)C(=O)O)c2c1

>  <score_type>  (58) 
oracle

>  <origin>  (58) 
adg

>  <m_score__min__energy>  (58) 
-5.6500000000000004

>  <m_primary>  (58) 
energy

$$$$
58:0
     RDKit          3D

 41 42  0  0  0  0  0  0  0  0999 V2000
  149.3450  153.1780  132.2780 C   0  0  0  0  0  0  0  0  0  0  0  0
  148.6270  154.2550  132.9450 N   0  0  0  0  0  0  0  0  0  0  0  0
  148.1120  154.1110  134.2750 C   0  0  0  0  0  0  0  0  0  0  0  0
  148.2290  153.0150  134.8870 O   0  0  0  0  0  0  0  0  0  0  0  0
  147.4660  155.2760  134.9590 C   0  0  0  0  0  0  0  0  0  0  0  0
  146.2900  155.7120  134.1940 N   0  0  0  0  0  0  0  0  0  0  0  0
  144.9420  155.3350  134.6290 C   0  0  0  0  0  0  0  0  0  0  0  0
  146.4560  156.5340  133.0220 C   0  0  0  0  0  0  0  0  0  0  0  0
  146.6210  156.0000  131.8910 O   0  0  0  0  0  0  0  0  0  0  0  0
  146.4170  157.9640  133.1210 N   0  0  0  0  0  0  0  0  0  0  0  0
  147.4240  158.8470  132.8760 C   0  0  0  0  0  0  0  0  0  0  0  0
  148.8090  158.4880  132.5080 C   0  0  0  0  0  0  0  0  0  0  0  0
  149.1990  157.1170  132.4610 N   0  0  0  0  0  0  0  0  0  0  0  0
  149.6520  159.3790  132.2240 O   0  0  0  0  0  0  0  0  0  0  0  0
  146.9780  160.1560  133.0610 C   0  0  0  0  0  0  0  0  0  0  0  0
  145.6530  160.0400  133.4250 C   0  0  0  0  0  0  0  0  0  0  0  0
  144.7140  161.0210  133.7350 C   0  0  0  0  0  0  0  0  0  0  0  0
  143.4140  160.6060  134.0700 C   0  0  0  0  0  0  0  0  0  0  0  0
  143.0730  159.2300  134.0720 C   0  0  0  0  0  0  0  0  0  0  0  0
  141.6880  158.7910  134.4610 C   0  0  0  0  0  0  0  0  0  0  0  0
  141.1410  159.6760  135.5380 C   0  0  0  0  0  0  0  0  0  0  0  0
  141.2540  159.3620  136.7140 O   0  0  0  0  0  0  0  0  0  0  0  0
  144.0530  158.2640  133.7580 C   0  0  0  0  0  0  0  0  0  0  0  0
  145.3410  158.7070  133.4470 C   0  0  0  0  0  0  0  0  0  0  0  0
  149.7893  152.5115  133.0319 H   0  0  0  0  0  0  0  0  0  0  0  0
  148.6467  152.6062  131.6491 H   0  0  0  0  0  0  0  0  0  0  0  0
  150.1413  153.6026  131.6491 H   0  0  0  0  0  0  0  0  0  0  0  0
  148.5140  155.1690  132.4490 H   0  0  0  0  0  0  0  0  0  0  0  0
  147.1537  154.9783  135.9709 H   0  0  0  0  0  0  0  0  0  0  0  0
  148.1861  156.1051  135.0225 H   0  0  0  0  0  0  0  0  0  0  0  0
  144.9012  155.3236  135.7282 H   0  0  0  0  0  0  0  0  0  0  0  0
  144.2147  156.0642  134.2426 H   0  0  0  0  0  0  0  0  0  0  0  0
  144.6985  154.3343  134.2426 H   0  0  0  0  0  0  0  0  0  0  0  0
  148.7310  156.4480  131.8090 H   0  0  0  0  0  0  0  0  0  0  0  0
  147.5590  161.0824  132.9420 H   0  0  0  0  0  0  0  0  0  0  0  0
  144.9819  162.0877  133.7181 H   0  0  0  0  0  0  0  0  0  0  0  0
  142.6536  161.3560  134.3332 H   0  0  0  0  0  0  0  0  0  0  0  0
  141.0308  158.8437  133.5805 H   0  0  0  0  0  0  0  0  0  0  0  0
  141.7345  157.7587  134.8380 H   0  0  0  0  0  0  0  0  0  0  0  0
  140.6343  160.6146  135.2692 H   0  0  0  0  0  0  0  0  0  0  0  0
  143.8092  157.1914  133.7581 H   0  0  0  0  0  0  0  0  0  0  0  0
  1  2  1  0
  2  3  1  0
  3  4  2  0
  3  5  1  0
  5  6  1  0
  6  7  1  0
  6  8  1  0
  8  9  2  0
  8 10  1  0
 10 11  1  0
 11 12  1  0
 12 13  1  0
 12 14  2  0
 11 15  2  0
 15 16  1  0
 16 17  2  0
 17 18  1  0
 18 19  2  0
 19 20  1  0
 20 21  1  0
 21 22  2  0
 19 23  1  0
 23 24  2  0
 24 10  1  0
 24 16  1  0
  1 25  1  0
  1 26  1  0
  1 27  1  0
  2 28  1  0
  5 29  1  0
  5 30  1  0
  7 31  1  0
  7 32  1  0
  7 33  1  0
 13 34  1  0
 15 35  1  0
 17 36  1  0
 18 37  1  0
 20 38  1  0
 20 39  1  0
 21 40  1  0
 23 41  1  0
M  CHG  1  13  -1
M  END
>  <UniqueID>  (59) 
58

>  <SMILES>  (59) 
CNC(=O)CN(C)C(=O)n1c(C([NH-])=O)cc2ccc(CC=O)cc21

>  <Energy>  (59) 
69.61788383739648

>  <Genealogy>  (59) 
CNC(=O)CN(C)C(=O)n1c(C([NH-])=O)cc2ccc(CC=O)cc21 (protonated)
CNC(=O)CN(C)C(=O)n1c(C([NH-])=O)cc2ccc(CC=O)cc21 (3D coordinates assigned)
CNC(=O)CN(C)C(=O)n1c(C([NH-])=O)cc2ccc(CC=O)cc21 (optimized conformer: 69.61788383739648 kcal/mol)

>  <smiles>  (59) 
CNC(=O)CN(C)C(=O)n1c(C(N)=O)cc2ccc(CC=O)cc21

>  <score_type>  (59) 
oracle

>  <origin>  (59) 
adg

>  <m_score__min__energy>  (59) 
-6.9500000000000002

>  <m_primary>  (59) 
energy

$$$$
59:0
     RDKit          3D

 30 31  0  0  0  0  0  0  0  0999 V2000
  142.7130  160.9590  133.8810 H   0  0  0  0  0  0  0  0  0  0  0  0
  143.3370  161.7830  133.7300 N   0  0  0  0  0  0  0  0  0  0  0  0
  144.7300  161.7100  134.0210 C   0  0  0  0  0  0  0  0  0  0  0  0
  145.2960  162.6930  134.5700 O   0  0  0  0  0  0  0  0  0  0  0  0
  145.5070  160.4870  133.7300 C   0  0  0  0  0  0  0  0  0  0  0  0
  146.8550  160.5000  133.3770 C   0  0  0  0  0  0  0  0  0  0  0  0
  147.4962  161.3812  133.2275 H   0  0  0  0  0  0  0  0  0  0  0  0
  147.2140  159.1780  133.2550 C   0  0  0  0  0  0  0  0  0  0  0  0
  148.4380  158.6130  132.9130 C   0  0  0  0  0  0  0  0  0  0  0  0
  149.3171  159.2431  132.7129 H   0  0  0  0  0  0  0  0  0  0  0  0
  148.5170  157.2130  132.8310 C   0  0  0  0  0  0  0  0  0  0  0  0
  149.4777  156.7359  132.5873 H   0  0  0  0  0  0  0  0  0  0  0  0
  147.3710  156.4070  133.0590 C   0  0  0  0  0  0  0  0  0  0  0  0
  147.4750  154.9040  133.0020 C   0  0  0  0  0  0  0  0  0  0  0  0
  147.6450  154.3760  134.2710 F   0  0  0  0  0  0  0  0  0  0  0  0
  146.3160  154.3890  132.4510 F   0  0  0  0  0  0  0  0  0  0  0  0
  148.5540  154.5180  132.2250 F   0  0  0  0  0  0  0  0  0  0  0  0
  146.1500  157.0210  133.4230 C   0  0  0  0  0  0  0  0  0  0  0  0
  145.2538  156.4152  133.6223 H   0  0  0  0  0  0  0  0  0  0  0  0
  146.1070  158.4160  133.5240 C   0  0  0  0  0  0  0  0  0  0  0  0
  145.0520  159.2040  133.8320 N   0  0  0  0  0  0  0  0  0  0  0  0
  143.7010  158.7750  134.0790 C   0  0  0  0  0  0  0  0  0  0  0  0
  143.0930  159.2060  135.0940 O   0  0  0  0  0  0  0  0  0  0  0  0
  142.9560  157.9260  133.1240 C   0  0  0  0  0  0  0  0  0  0  0  0
  143.5418  157.2021  132.5385 H   0  0  0  0  0  0  0  0  0  0  0  0
  141.6330  157.9560  132.9050 C   0  0  0  0  0  0  0  0  0  0  0  0
  141.2084  157.1467  132.2928 H   0  0  0  0  0  0  0  0  0  0  0  0
  140.6970  158.9760  133.4110 C   0  0  0  0  0  0  0  0  0  0  0  0
  140.8290  160.1920  133.1140 O   0  0  0  0  0  0  0  0  0  0  0  0
  139.5970  158.5750  134.1570 O   0  0  0  0  0  0  0  0  0  0  0  0
  1  2  1  0
  2  3  1  0
  3  4  2  0
  3  5  1  0
  5  6  2  0
  6  7  1  0
  6  8  1  0
  8  9  2  0
  9 10  1  0
  9 11  1  0
 11 12  1  0
 11 13  2  0
 13 14  1  0
 14 15  1  0
 14 16  1  0
 14 17  1  0
 13 18  1  0
 18 19  1  0
 18 20  2  0
 20 21  1  0
 21 22  1  0
 22 23  2  0
 22 24  1  0
 24 25  1  0
 24 26  2  0
 26 27  1  0
 26 28  1  0
 28 29  2  0
 28 30  1  0
 21  5  1  0
 20  8  1  0
M  CHG  2   2  -1  30  -1
M  END
>  <UniqueID>  (60) 
59

>  <SMILES>  (60) 
[NH-]C(=O)c1cc2ccc(C(F)(F)F)cc2n1C(=O)/C=C\C(=O)[O-]

>  <Energy>  (60) 
76.06463927744605

>  <Genealogy>  (60) 
[NH-]C(=O)c1cc2ccc(C(F)(F)F)cc2n1C(=O)/C=C\C(=O)[O-] (protonated)
[NH-]C(=O)c1cc2ccc(C(F)(F)F)cc2n1C(=O)/C=C\C(=O)[O-] (cis-trans isomerization)
[NH-]C(=O)c1cc2ccc(C(F)(F)F)cc2n1C(=O)/C=C\C(=O)[O-] (3D coordinates assigned)
[NH-]C(=O)c1cc2ccc(C(F)(F)F)cc2n1C(=O)/C=C\C(=O)[O-] (optimized conformer: 76.06463927744605 kcal/mol)

>  <smiles>  (60) 
NC(=O)c1cc2ccc(C(F)(F)F)cc2n1C(=O)/C=C\C(=O)O

>  <score_type>  (60) 
oracle

>  <origin>  (60) 
adg

>  <m_score__min__energy>  (60) 
-6.3700000000000001

>  <m_primary>  (60) 
energy

$$$$
60:0
     RDKit          3D

 41 42  0  0  0  0  0  0  0  0999 V2000
  137.4130  159.2350  130.9880 C   0  0  0  0  0  0  0  0  0  0  0  0
  138.6480  159.0620  131.8210 C   0  0  0  0  0  0  0  0  0  0  0  0
  139.3940  160.1940  132.2310 C   0  0  0  0  0  0  0  0  0  0  0  0
  140.5690  160.0390  132.9880 C   0  0  0  0  0  0  0  0  0  0  0  0
  140.9800  158.7460  133.2980 C   0  0  0  0  0  0  0  0  0  0  0  0
  142.0730  158.3110  134.0110 C   0  0  0  0  0  0  0  0  0  0  0  0
  142.0010  156.9190  133.9860 C   0  0  0  0  0  0  0  0  0  0  0  0
  143.0460  156.0430  134.5580 C   0  0  0  0  0  0  0  0  0  0  0  0
  142.7020  154.9300  135.3780 N   0  0  0  0  0  0  0  0  0  0  0  0
  144.2560  156.2520  134.2800 O   0  0  0  0  0  0  0  0  0  0  0  0
  140.8980  156.5110  133.2980 N   0  0  0  0  0  0  0  0  0  0  0  0
  140.4310  155.1700  133.0910 C   0  0  0  0  0  0  0  0  0  0  0  0
  139.1930  154.9460  133.0020 O   0  0  0  0  0  0  0  0  0  0  0  0
  141.3610  154.1290  132.9650 O   0  0  0  0  0  0  0  0  0  0  0  0
  141.1110  152.7840  133.2660 C   0  0  0  0  0  0  0  0  0  0  0  0
  140.9780  152.4000  134.4610 O   0  0  0  0  0  0  0  0  0  0  0  0
  141.0060  151.8700  132.2130 O   0  0  0  0  0  0  0  0  0  0  0  0
  140.5270  150.5380  132.3780 C   0  0  1  0  0  0  0  0  0  0  0  0
  140.0410  149.9660  131.0530 C   0  0  0  0  0  0  0  0  0  0  0  0
  145.1130  146.2330  132.5700 S   0  0  0  0  0  0  0  0  0  0  0  0
  143.4830  152.6450  134.7290 O   0  0  0  0  0  0  0  0  0  0  0  0
  140.7760  150.6170  136.3660 O   0  0  0  0  0  0  0  0  0  0  0  0
  141.2910  153.7160  138.0750 C   0  0  0  0  0  0  0  0  0  0  0  0
  141.4220  154.9250  138.3960 O   0  0  0  0  0  0  0  0  0  0  0  0
  140.2570  152.9630  138.6140 O   0  0  0  0  0  0  0  0  0  0  0  0
  140.2870  157.6410  132.8790 C   0  0  0  0  0  0  0  0  0  0  0  0
  139.1020  157.7650  132.1440 C   0  0  0  0  0  0  0  0  0  0  0  0
  136.5406  159.3572  131.6467 H   0  0  0  0  0  0  0  0  0  0  0  0
  137.5209  160.1268  130.3531 H   0  0  0  0  0  0  0  0  0  0  0  0
  137.2717  158.3479  130.3531 H   0  0  0  0  0  0  0  0  0  0  0  0
  139.0516  161.2023  131.9551 H   0  0  0  0  0  0  0  0  0  0  0  0
  141.1456  160.9131  133.3248 H   0  0  0  0  0  0  0  0  0  0  0  0
  142.8410  158.9302  134.4977 H   0  0  0  0  0  0  0  0  0  0  0  0
  142.0470  154.1930  135.0350 H   0  0  0  0  0  0  0  0  0  0  0  0
  139.8537  150.6509  133.2405 H   0  0  0  0  0  0  0  0  0  0  0  0
  139.3397  149.1406  131.2451 H   0  0  0  0  0  0  0  0  0  0  0  0
  139.5317  150.7537  130.4784 H   0  0  0  0  0  0  0  0  0  0  0  0
  140.9006  149.5906  130.4784 H   0  0  0  0  0  0  0  0  0  0  0  0
  142.9130  153.3440  134.3200 H   0  0  0  0  0  0  0  0  0  0  0  0
  141.4190  151.2640  135.9770 H   0  0  0  0  0  0  0  0  0  0  0  0
  138.5393  156.8748  131.8264 H   0  0  0  0  0  0  0  0  0  0  0  0
  1  2  1  0
  2  3  2  0
  3  4  1  0
  4  5  2  0
  5  6  1  0
  6  7  2  0
  7  8  1  0
  8  9  1  0
  8 10  2  0
  7 11  1  0
 11 12  1  0
 12 13  2  0
 12 14  1  0
 14 15  1  0
 15 16  2  0
 15 17  1  0
 17 18  1  0
 18 19  1  0
 18 20  1  0
 20 21  1  0
 20 22  1  0
 20 23  1  0
 23 24  2  0
 23 25  1  0
 11 26  1  0
 26 27  2  0
 27  2  1  0
 26  5  1  0
  1 28  1  0
  1 29  1  0
  1 30  1  0
  3 31  1  0
  4 32  1  0
  6 33  1  0
  9 34  1  0
 18 35  1  1
 19 36  1  0
 19 37  1  0
 19 38  1  0
 21 39  1  0
 22 40  1  0
 27 41  1  0
M  CHG  2   9  -1  25  -1
M  END
>  <UniqueID>  (61) 
60

>  <SMILES>  (61) 
Cc1ccc2cc(C([NH-])=O)n(C(=O)OC(=O)O[C@@H](C)S(O)(O)C(=O)[O-])c2c1

>  <Energy>  (61) 
64.76008439079033

>  <Genealogy>  (61) 
Cc1ccc2cc(C([NH-])=O)n(C(=O)OC(=O)OC(C)S(O)(O)C(=O)[O-])c2c1 (protonated)
Cc1ccc2cc(C([NH-])=O)n(C(=O)OC(=O)O[C@@H](C)S(O)(O)C(=O)[O-])c2c1 (chirality)
Cc1ccc2cc(C([NH-])=O)n(C(=O)OC(=O)O[C@@H](C)S(O)(O)C(=O)[O-])c2c1 (3D coordinates assigned)
Cc1ccc2cc(C([NH-])=O)n(C(=O)OC(=O)O[C@@H](C)S(O)(O)C(=O)[O-])c2c1 (optimized conformer: 64.76008439079033 kcal/mol)

>  <smiles>  (61) 
Cc1ccc2cc(C(N)=O)n(C(=O)OC(=O)OC(C)S(O)(O)C(=O)O)c2c1

>  <score_type>  (61) 
oracle

>  <origin>  (61) 
adg

>  <m_score__min__energy>  (61) 
-6.1200000000000001

>  <m_primary>  (61) 
energy

$$$$
61:0
     RDKit          3D

 31 32  0  0  0  0  0  0  0  0999 V2000
  149.5870  157.6290  132.0100 N   0  0  0  0  0  0  0  0  0  0  0  0
  149.1020  158.9430  132.2780 C   0  0  0  0  0  0  0  0  0  0  0  0
  149.8710  159.9270  132.1220 O   0  0  0  0  0  0  0  0  0  0  0  0
  147.7220  159.1300  132.7740 C   0  0  0  0  0  0  0  0  0  0  0  0
  147.1630  160.3810  133.0240 C   0  0  0  0  0  0  0  0  0  0  0  0
  145.8570  160.1320  133.3830 C   0  0  0  0  0  0  0  0  0  0  0  0
  144.8480  161.0170  133.7540 C   0  0  0  0  0  0  0  0  0  0  0  0
  143.6000  160.4790  134.1080 C   0  0  0  0  0  0  0  0  0  0  0  0
  143.3840  159.0790  134.0820 C   0  0  0  0  0  0  0  0  0  0  0  0
  142.0610  158.5140  134.5100 C   0  0  0  0  0  0  0  0  0  0  0  0
  141.7380  158.9570  136.2040 Cl  0  0  0  0  0  0  0  0  0  0  0  0
  144.4360  158.2120  133.7140 C   0  0  0  0  0  0  0  0  0  0  0  0
  145.6640  158.7750  133.3470 C   0  0  0  0  0  0  0  0  0  0  0  0
  146.8020  158.1450  132.9780 N   0  0  0  0  0  0  0  0  0  0  0  0
  146.9910  156.7240  132.8860 C   0  0  0  0  0  0  0  0  0  0  0  0
  147.0070  156.1610  131.7580 O   0  0  0  0  0  0  0  0  0  0  0  0
  147.1890  155.9740  134.0520 O   0  0  0  0  0  0  0  0  0  0  0  0
  147.2200  154.5490  134.0730 C   0  0  0  0  0  0  0  0  0  0  0  0
  148.5350  153.9280  132.9820 P   0  0  0  0  0  0  0  0  0  0  0  0
  148.6690  152.4430  132.7340 O   0  0  0  0  0  0  0  0  0  0  0  0
  149.6060  155.0070  132.2420 O   0  0  0  0  0  0  0  0  0  0  0  0
  149.0010  156.9360  131.4930 H   0  0  0  0  0  0  0  0  0  0  0  0
  147.6593  161.3599  132.9503 H   0  0  0  0  0  0  0  0  0  0  0  0
  145.0229  162.1029  133.7693 H   0  0  0  0  0  0  0  0  0  0  0  0
  142.7825  161.1509  134.4083 H   0  0  0  0  0  0  0  0  0  0  0  0
  141.2653  158.9199  133.8680 H   0  0  0  0  0  0  0  0  0  0  0  0
  142.0867  157.4181  134.4189 H   0  0  0  0  0  0  0  0  0  0  0  0
  144.2941  157.1212  133.7157 H   0  0  0  0  0  0  0  0  0  0  0  0
  147.4093  154.2056  135.1007 H   0  0  0  0  0  0  0  0  0  0  0  0
  146.2517  154.1656  133.7189 H   0  0  0  0  0  0  0  0  0  0  0  0
  149.0920  155.8490  132.1600 H   0  0  0  0  0  0  0  0  0  0  0  0
  1  2  1  0
  2  3  2  0
  2  4  1  0
  4  5  2  0
  5  6  1  0
  6  7  2  0
  7  8  1  0
  8  9  2  0
  9 10  1  0
 10 11  1  0
  9 12  1  0
 12 13  2  0
 13 14  1  0
 14 15  1  0
 15 16  2  0
 15 17  1  0
 17 18  1  0
 18 19  1  0
 19 20  2  0
 19 21  1  0
 14  4  1  0
 13  6  1  0
  1 22  1  0
  5 23  1  0
  7 24  1  0
  8 25  1  0
 10 26  1  0
 10 27  1  0
 12 28  1  0
 18 29  1  0
 18 30  1  0
 21 31  1  0
M  CHG  2   1  -1  19   1
M  END
>  <UniqueID>  (62) 
61

>  <SMILES>  (62) 
[NH-]C(=O)c1cc2ccc(CCl)cc2n1C(=O)OC[P+](=O)O

>  <Energy>  (62) 
85.95022906130886

>  <Genealogy>  (62) 
[NH-]C(=O)c1cc2ccc(CCl)cc2n1C(=O)OC[P+](=O)O (protonated)
[NH-]C(=O)c1cc2ccc(CCl)cc2n1C(=O)OC[P+](=O)O (chirality)
[NH-]C(=O)c1cc2ccc(CCl)cc2n1C(=O)OC[P+](=O)O (3D coordinates assigned)
[NH-]C(=O)c1cc2ccc(CCl)cc2n1C(=O)OC[P+](=O)O (optimized conformer: 85.95022906130886 kcal/mol)

>  <smiles>  (62) 
NC(=O)c1cc2ccc(CCl)cc2n1C(=O)OC[P+](=O)O

>  <score_type>  (62) 
oracle

>  <origin>  (62) 
adg

>  <m_score__min__energy>  (62) 
-6.0800000000000001

>  <m_primary>  (62) 
energy

$$$$
62:0
     RDKit          3D

 41 42  0  0  0  0  0  0  0  0999 V2000
  148.8680  154.8180  132.6000 C   0  0  0  0  0  0  0  0  0  0  0  0
  148.3870  156.2320  132.7380 C   0  0  0  0  0  0  0  0  0  0  0  0
  149.2390  157.3080  132.3840 C   0  0  0  0  0  0  0  0  0  0  0  0
  148.7840  158.6350  132.4620 C   0  0  0  0  0  0  0  0  0  0  0  0
  147.4770  158.8530  132.8930 C   0  0  0  0  0  0  0  0  0  0  0  0
  146.7720  160.0280  133.0280 C   0  0  0  0  0  0  0  0  0  0  0  0
  145.5030  159.6500  133.4650 C   0  0  0  0  0  0  0  0  0  0  0  0
  144.4120  160.5980  133.7930 C   0  0  0  0  0  0  0  0  0  0  0  0
  143.1080  160.4420  133.2290 N   0  0  0  0  0  0  0  0  0  0  0  0
  144.6320  161.5670  134.5670 O   0  0  0  0  0  0  0  0  0  0  0  0
  145.4330  158.2970  133.6030 N   0  0  0  0  0  0  0  0  0  0  0  0
  144.2860  157.5140  133.9710 C   0  0  0  0  0  0  0  0  0  0  0  0
  144.3930  156.6330  134.8650 O   0  0  0  0  0  0  0  0  0  0  0  0
  142.9880  157.7270  133.3150 C   0  0  0  0  0  0  0  0  0  0  0  0
  142.8540  157.4550  132.0910 O   0  0  0  0  0  0  0  0  0  0  0  0
  141.8850  158.2360  134.0760 N   0  0  0  0  0  0  0  0  0  0  0  0
  140.4610  157.9600  133.8540 C   0  0  0  0  0  0  0  0  0  0  0  0
  140.2790  156.5270  133.3180 C   0  0  0  0  0  0  0  0  0  0  0  0
  139.7430  158.0740  135.2100 C   0  0  0  0  0  0  0  0  0  0  0  0
  139.8570  158.9820  132.8630 C   0  0  0  0  0  0  0  0  0  0  0  0
  140.8610  159.8120  132.3440 O   0  0  0  0  0  0  0  0  0  0  0  0
  146.6450  157.8230  133.2420 C   0  0  0  0  0  0  0  0  0  0  0  0
  147.0630  156.4900  133.1530 C   0  0  0  0  0  0  0  0  0  0  0  0
  149.0163  154.3820  133.5990 H   0  0  0  0  0  0  0  0  0  0  0  0
  148.1199  154.2283  132.0499 H   0  0  0  0  0  0  0  0  0  0  0  0
  149.8205  154.8067  132.0499 H   0  0  0  0  0  0  0  0  0  0  0  0
  150.2652  157.1024  132.0453 H   0  0  0  0  0  0  0  0  0  0  0  0
  149.4394  159.4759  132.1912 H   0  0  0  0  0  0  0  0  0  0  0  0
  147.1333  161.0484  132.8326 H   0  0  0  0  0  0  0  0  0  0  0  0
  142.3610  161.1400  133.4410 H   0  0  0  0  0  0  0  0  0  0  0  0
  142.8630  159.6170  132.6400 H   0  0  0  0  0  0  0  0  0  0  0  0
  140.1902  155.8281  134.1627 H   0  0  0  0  0  0  0  0  0  0  0  0
  139.3674  156.4781  132.7043 H   0  0  0  0  0  0  0  0  0  0  0  0
  141.1494  156.2518  132.7043 H   0  0  0  0  0  0  0  0  0  0  0  0
  140.4746  157.9578  136.0232 H   0  0  0  0  0  0  0  0  0  0  0  0
  139.2614  159.0599  135.2881 H   0  0  0  0  0  0  0  0  0  0  0  0
  138.9797  157.2858  135.2881 H   0  0  0  0  0  0  0  0  0  0  0  0
  139.3703  158.4421  132.0374 H   0  0  0  0  0  0  0  0  0  0  0  0
  139.1208  159.6025  133.3950 H   0  0  0  0  0  0  0  0  0  0  0  0
  141.6360  159.2210  132.1520 H   0  0  0  0  0  0  0  0  0  0  0  0
  146.3778  155.6657  133.3999 H   0  0  0  0  0  0  0  0  0  0  0  0
  1  2  1  0
  2  3  2  0
  3  4  1  0
  4  5  2  0
  5  6  1  0
  6  7  2  0
  7  8  1  0
  8  9  1  0
  8 10  2  0
  7 11  1  0
 11 12  1  0
 12 13  2  0
 12 14  1  0
 14 15  2  0
 14 16  1  0
 16 17  1  0
 17 18  1  0
 17 19  1  0
 17 20  1  0
 20 21  1  0
 11 22  1  0
 22 23  2  0
 23  2  1  0
 22  5  1  0
  1 24  1  0
  1 25  1  0
  1 26  1  0
  3 27  1  0
  4 28  1  0
  6 29  1  0
  9 30  1  0
  9 31  1  0
 18 32  1  0
 18 33  1  0
 18 34  1  0
 19 35  1  0
 19 36  1  0
 19 37  1  0
 20 38  1  0
 20 39  1  0
 21 40  1  0
 23 41  1  0
M  CHG  1  16  -1
M  END
>  <UniqueID>  (63) 
62

>  <SMILES>  (63) 
Cc1ccc2cc(C(N)=O)n(C(=O)C(=O)[N-]C(C)(C)CO)c2c1

>  <Energy>  (63) 
73.63588607025748

>  <Genealogy>  (63) 
Cc1ccc2cc(C(N)=O)n(C(=O)C(=O)[N-]C(C)(C)CO)c2c1 (protonated)
Cc1ccc2cc(C(N)=O)n(C(=O)C(=O)[N-]C(C)(C)CO)c2c1 (3D coordinates assigned)
Cc1ccc2cc(C(N)=O)n(C(=O)C(=O)[N-]C(C)(C)CO)c2c1 (optimized conformer: 73.63588607025748 kcal/mol)

>  <smiles>  (63) 
Cc1ccc2cc(C(N)=O)n(C(=O)C(=O)NC(C)(C)CO)c2c1

>  <score_type>  (63) 
oracle

>  <origin>  (63) 
adg

>  <m_score__min__energy>  (63) 
-6.8300000000000001

>  <m_primary>  (63) 
energy

$$$$
63:0
     RDKit          3D

 38 39  0  0  0  0  0  0  0  0999 V2000
  141.3530  158.9860  131.8770 H   0  0  0  0  0  0  0  0  0  0  0  0
  141.0870  159.6870  132.6030 N   0  0  0  0  0  0  0  0  0  0  0  0
  141.9450  159.9590  133.7090 C   0  0  0  0  0  0  0  0  0  0  0  0
  141.4630  160.4790  134.7500 O   0  0  0  0  0  0  0  0  0  0  0  0
  143.3970  159.6960  133.6280 C   0  0  0  0  0  0  0  0  0  0  0  0
  144.3620  160.6940  133.7370 C   0  0  0  0  0  0  0  0  0  0  0  0
  144.1970  161.7609  133.9478 H   0  0  0  0  0  0  0  0  0  0  0  0
  145.5660  160.0620  133.5250 C   0  0  0  0  0  0  0  0  0  0  0  0
  146.8590  160.5750  133.5350 C   0  0  0  0  0  0  0  0  0  0  0  0
  147.0423  161.6459  133.7068 H   0  0  0  0  0  0  0  0  0  0  0  0
  147.9240  159.6840  133.3190 C   0  0  0  0  0  0  0  0  0  0  0  0
  148.9576  160.0603  133.3160 H   0  0  0  0  0  0  0  0  0  0  0  0
  147.6780  158.3050  133.1050 C   0  0  0  0  0  0  0  0  0  0  0  0
  148.8200  157.3520  132.8930 C   0  0  0  0  0  0  0  0  0  0  0  0
  149.4232  157.3019  133.8115 H   0  0  0  0  0  0  0  0  0  0  0  0
  148.3280  156.0950  132.5950 F   0  0  0  0  0  0  0  0  0  0  0  0
  149.6090  157.7950  131.8470 F   0  0  0  0  0  0  0  0  0  0  0  0
  146.3510  157.8190  133.1060 C   0  0  0  0  0  0  0  0  0  0  0  0
  146.1420  156.7496  132.9550 H   0  0  0  0  0  0  0  0  0  0  0  0
  145.3090  158.7330  133.3040 C   0  0  0  0  0  0  0  0  0  0  0  0
  143.9790  158.4910  133.3660 N   0  0  0  0  0  0  0  0  0  0  0  0
  143.3390  157.2080  133.2860 C   0  0  0  0  0  0  0  0  0  0  0  0
  143.9480  156.1770  133.6810 O   0  0  0  0  0  0  0  0  0  0  0  0
  142.0350  157.1200  132.7800 O   0  0  0  0  0  0  0  0  0  0  0  0
  140.9390  156.5660  133.4540 C   0  0  0  0  0  0  0  0  0  0  0  0
  140.4120  155.4930  133.0500 O   0  0  0  0  0  0  0  0  0  0  0  0
  140.3990  157.2590  134.6500 C   0  0  0  0  0  0  0  0  0  0  0  0
  141.0330  157.1770  135.8300 C   0  0  0  0  0  0  0  0  0  0  0  0
  141.9849  156.6298  135.8971 H   0  0  0  0  0  0  0  0  0  0  0  0
  140.5020  157.7760  136.9730 O   0  0  0  0  0  0  0  0  0  0  0  0
  140.9900  159.0210  137.4560 C   0  0  0  0  0  0  0  0  0  0  0  0
  140.9873  159.0141  138.5560 H   0  0  0  0  0  0  0  0  0  0  0  0
  142.0163  159.1783  137.0928 H   0  0  0  0  0  0  0  0  0  0  0  0
  140.3439  159.8338  137.0928 H   0  0  0  0  0  0  0  0  0  0  0  0
  139.0770  157.9760  134.5500 C   0  0  0  0  0  0  0  0  0  0  0  0
  138.6949  158.1832  135.5605 H   0  0  0  0  0  0  0  0  0  0  0  0
  139.2138  158.9235  134.0083 H   0  0  0  0  0  0  0  0  0  0  0  0
  138.3574  157.3445  134.0083 H   0  0  0  0  0  0  0  0  0  0  0  0
  1  2  1  0
  2  3  1  0
  3  4  2  0
  3  5  1  0
  5  6  2  0
  6  7  1  0
  6  8  1  0
  8  9  2  0
  9 10  1  0
  9 11  1  0
 11 12  1  0
 11 13  2  0
 13 14  1  0
 14 15  1  0
 14 16  1  0
 14 17  1  0
 13 18  1  0
 18 19  1  0
 18 20  2  0
 20 21  1  0
 21 22  1  0
 22 23  2  0
 22 24  1  0
 24 25  1  0
 25 26  2  0
 25 27  1  0
 27 28  2  0
 28 29  1  0
 28 30  1  0
 30 31  1  0
 31 32  1  0
 31 33  1  0
 31 34  1  0
 27 35  1  0
 35 36  1  0
 35 37  1  0
 35 38  1  0
 21  5  1  0
 20  8  1  0
M  CHG  1   2  -1
M  END
>  <UniqueID>  (64) 
63

>  <SMILES>  (64) 
CO/C=C(\C)C(=O)OC(=O)n1c(C([NH-])=O)cc2ccc(C(F)F)cc21

>  <Energy>  (64) 
73.56834310997918

>  <Genealogy>  (64) 
CO/C=C(\C)C(=O)OC(=O)n1c(C([NH-])=O)cc2ccc(C(F)F)cc21 (protonated)
CO/C=C(\C)C(=O)OC(=O)n1c(C([NH-])=O)cc2ccc(C(F)F)cc21 (cis-trans isomerization)
CO/C=C(\C)C(=O)OC(=O)n1c(C([NH-])=O)cc2ccc(C(F)F)cc21 (3D coordinates assigned)
CO/C=C(\C)C(=O)OC(=O)n1c(C([NH-])=O)cc2ccc(C(F)F)cc21 (optimized conformer: 73.56834310997918 kcal/mol)

>  <smiles>  (64) 
CO/C=C(\C)C(=O)OC(=O)n1c(C(N)=O)cc2ccc(C(F)F)cc21

>  <score_type>  (64) 
oracle

>  <origin>  (64) 
adg

>  <m_score__min__energy>  (64) 
-6.5199999999999996

>  <m_primary>  (64) 
energy

$$$$
64:0
     RDKit          3D

 42 43  0  0  0  0  0  0  0  0999 V2000
  149.9510  158.9920  131.4480 C   0  0  0  0  0  0  0  0  0  0  0  0
  148.8930  159.9670  131.7370 N   0  0  0  0  0  0  0  0  0  0  0  0
  148.8430  161.2290  130.9900 C   0  0  0  0  0  0  0  0  0  0  0  0
  147.8870  159.7150  132.7460 C   0  0  0  0  0  0  0  0  0  0  0  0
  146.9830  160.5720  132.9480 O   0  0  0  0  0  0  0  0  0  0  0  0
  147.8580  158.4510  133.5720 C   0  0  0  0  0  0  0  0  0  0  0  0
  146.6240  157.5990  133.2560 C   0  0  0  0  0  0  0  0  0  0  0  0
  145.5460  157.8710  134.1520 O   0  0  0  0  0  0  0  0  0  0  0  0
  144.2070  157.5790  133.8630 C   0  0  0  0  0  0  0  0  0  0  0  0
  143.9190  156.8380  132.8850 O   0  0  0  0  0  0  0  0  0  0  0  0
  143.1570  158.1520  134.6650 N   0  0  0  0  0  0  0  0  0  0  0  0
  142.6420  159.4130  134.5850 C   0  0  0  0  0  0  0  0  0  0  0  0
  143.1740  160.5120  133.7520 C   0  0  0  0  0  0  0  0  0  0  0  0
  144.5450  160.5230  133.3500 N   0  0  0  0  0  0  0  0  0  0  0  0
  142.4130  161.4320  133.3580 O   0  0  0  0  0  0  0  0  0  0  0  0
  141.5770  159.5650  135.4680 C   0  0  0  0  0  0  0  0  0  0  0  0
  141.4510  158.3520  136.1010 C   0  0  0  0  0  0  0  0  0  0  0  0
  140.5340  157.9390  137.0620 C   0  0  0  0  0  0  0  0  0  0  0  0
  140.6060  156.6120  137.5160 C   0  0  0  0  0  0  0  0  0  0  0  0
  141.5940  155.7270  137.0140 C   0  0  0  0  0  0  0  0  0  0  0  0
  141.6210  154.2870  137.4610 C   0  0  0  0  0  0  0  0  0  0  0  0
  141.6480  153.4370  136.3690 F   0  0  0  0  0  0  0  0  0  0  0  0
  142.7430  154.0360  138.2320 F   0  0  0  0  0  0  0  0  0  0  0  0
  140.4910  154.0230  138.2110 F   0  0  0  0  0  0  0  0  0  0  0  0
  142.4940  156.1790  136.0210 C   0  0  0  0  0  0  0  0  0  0  0  0
  142.4130  157.5140  135.6000 C   0  0  0  0  0  0  0  0  0  0  0  0
  150.3655  158.6100  132.3926 H   0  0  0  0  0  0  0  0  0  0  0  0
  149.5316  158.1571  130.8674 H   0  0  0  0  0  0  0  0  0  0  0  0
  150.7489  159.4781  130.8674 H   0  0  0  0  0  0  0  0  0  0  0  0
  148.8096  162.0719  131.6960 H   0  0  0  0  0  0  0  0  0  0  0  0
  149.7384  161.3161  130.3570 H   0  0  0  0  0  0  0  0  0  0  0  0
  147.9435  161.2450  130.3570 H   0  0  0  0  0  0  0  0  0  0  0  0
  148.7624  157.8631  133.3568 H   0  0  0  0  0  0  0  0  0  0  0  0
  147.8175  158.7348  134.6340 H   0  0  0  0  0  0  0  0  0  0  0  0
  146.2959  157.8155  132.2286 H   0  0  0  0  0  0  0  0  0  0  0  0
  146.9023  156.5407  133.3685 H   0  0  0  0  0  0  0  0  0  0  0  0
  145.2170  159.8020  133.6960 H   0  0  0  0  0  0  0  0  0  0  0  0
  144.9030  161.2830  132.7300 H   0  0  0  0  0  0  0  0  0  0  0  0
  140.9655  160.4657  135.6258 H   0  0  0  0  0  0  0  0  0  0  0  0
  139.7748  158.6314  137.4547 H   0  0  0  0  0  0  0  0  0  0  0  0
  139.8882  156.2551  138.2693 H   0  0  0  0  0  0  0  0  0  0  0  0
  143.2415  155.4978  135.5882 H   0  0  0  0  0  0  0  0  0  0  0  0
  1  2  1  0
  2  3  1  0
  2  4  1  0
  4  5  2  0
  4  6  1  0
  6  7  1  0
  7  8  1  0
  8  9  1  0
  9 10  2  0
  9 11  1  0
 11 12  1  0
 12 13  1  0
 13 14  1  0
 13 15  2  0
 12 16  2  0
 16 17  1  0
 17 18  2  0
 18 19  1  0
 19 20  2  0
 20 21  1  0
 21 22  1  0
 21 23  1  0
 21 24  1  0
 20 25  1  0
 25 26  2  0
 26 11  1  0
 26 17  1  0
  1 27  1  0
  1 28  1  0
  1 29  1  0
  3 30  1  0
  3 31  1  0
  3 32  1  0
  6 33  1  0
  6 34  1  0
  7 35  1  0
  7 36  1  0
 14 37  1  0
 14 38  1  0
 16 39  1  0
 18 40  1  0
 19 41  1  0
 25 42  1  0
M  END
>  <UniqueID>  (65) 
64

>  <SMILES>  (65) 
CN(C)C(=O)CCOC(=O)n1c(C(N)=O)cc2ccc(C(F)(F)F)cc21

>  <Energy>  (65) 
74.80381715939791

>  <Genealogy>  (65) 
CN(C)C(=O)CCOC(=O)n1c(C(N)=O)cc2ccc(C(F)(F)F)cc21 (3D coordinates assigned)
CN(C)C(=O)CCOC(=O)n1c(C(N)=O)cc2ccc(C(F)(F)F)cc21 (optimized conformer: 74.80381715939791 kcal/mol)

>  <smiles>  (65) 
CN(C)C(=O)CCOC(=O)n1c(C(N)=O)cc2ccc(C(F)(F)F)cc21

>  <score_type>  (65) 
oracle

>  <origin>  (65) 
adg

>  <m_score__min__energy>  (65) 
-6.5199999999999996

>  <m_primary>  (65) 
energy

$$$$
65:0
     RDKit          3D

 42 43  0  0  0  0  0  0  0  0999 V2000
  148.1800  157.1210  131.5420 H   0  0  0  0  0  0  0  0  0  0  0  0
  148.5250  158.0380  131.9020 N   0  0  0  0  0  0  0  0  0  0  0  0
  148.0620  158.5570  133.1480 C   0  0  0  0  0  0  0  0  0  0  0  0
  148.8910  158.7830  134.0690 O   0  0  0  0  0  0  0  0  0  0  0  0
  146.6190  158.7940  133.3560 C   0  0  0  0  0  0  0  0  0  0  0  0
  146.0480  160.0590  133.4820 C   0  0  0  0  0  0  0  0  0  0  0  0
  146.5696  161.0273  133.5015 H   0  0  0  0  0  0  0  0  0  0  0  0
  144.6910  159.8390  133.5770 C   0  0  0  0  0  0  0  0  0  0  0  0
  143.6460  160.7400  133.7280 C   0  0  0  0  0  0  0  0  0  0  0  0
  143.8336  161.8228  133.7757 H   0  0  0  0  0  0  0  0  0  0  0  0
  142.3420  160.2270  133.8180 C   0  0  0  0  0  0  0  0  0  0  0  0
  141.4982  160.9204  133.9490 H   0  0  0  0  0  0  0  0  0  0  0  0
  142.0890  158.8250  133.7430 C   0  0  0  0  0  0  0  0  0  0  0  0
  140.6440  158.3160  133.8920 C   0  0  0  0  0  0  0  0  0  0  0  0
  140.1880  158.4980  135.3310 C   0  0  0  0  0  0  0  0  0  0  0  0
  139.1040  157.9740  135.7100 O   0  0  0  0  0  0  0  0  0  0  0  0
  140.9960  159.2110  136.2740 N   0  0  0  0  0  0  0  0  0  0  0  0
  141.3850  158.6530  137.5600 C   0  0  0  0  0  0  0  0  0  0  0  0
  140.9588  159.2644  138.3690 H   0  0  0  0  0  0  0  0  0  0  0  0
  141.0084  157.6227  137.6417 H   0  0  0  0  0  0  0  0  0  0  0  0
  142.4820  158.6500  137.6417 H   0  0  0  0  0  0  0  0  0  0  0  0
  140.6170  156.8270  133.4850 C   0  0  0  0  0  0  0  0  0  0  0  0
  140.6056  156.2000  134.3887 H   0  0  0  0  0  0  0  0  0  0  0  0
  139.7151  156.6263  132.8881 H   0  0  0  0  0  0  0  0  0  0  0  0
  141.5111  156.5938  132.8881 H   0  0  0  0  0  0  0  0  0  0  0  0
  139.6360  159.0780  133.0020 C   0  0  0  0  0  0  0  0  0  0  0  0
  138.9205  159.6189  133.6388 H   0  0  0  0  0  0  0  0  0  0  0  0
  140.1767  159.7952  132.3669 H   0  0  0  0  0  0  0  0  0  0  0  0
  139.0934  158.3623  132.3669 H   0  0  0  0  0  0  0  0  0  0  0  0
  143.1970  157.9450  133.6060 C   0  0  0  0  0  0  0  0  0  0  0  0
  143.0469  156.8557  133.5746 H   0  0  0  0  0  0  0  0  0  0  0  0
  144.4810  158.4900  133.5120 C   0  0  0  0  0  0  0  0  0  0  0  0
  145.6520  157.8340  133.3840 N   0  0  0  0  0  0  0  0  0  0  0  0
  145.8150  156.4100  133.3340 C   0  0  0  0  0  0  0  0  0  0  0  0
  146.7300  155.9220  132.6190 O   0  0  0  0  0  0  0  0  0  0  0  0
  144.9330  155.5420  134.1430 C   0  0  0  0  0  0  0  0  0  0  0  0
  143.8862  155.4513  133.8176 H   0  0  0  0  0  0  0  0  0  0  0  0
  145.2930  154.8540  135.2390 C   0  0  0  0  0  0  0  0  0  0  0  0
  144.4856  154.3910  135.8253 H   0  0  0  0  0  0  0  0  0  0  0  0
  146.6710  154.6620  135.7290 C   0  0  0  0  0  0  0  0  0  0  0  0
  147.5700  155.5160  135.5160 O   0  0  0  0  0  0  0  0  0  0  0  0
  147.0050  153.4690  136.3570 O   0  0  0  0  0  0  0  0  0  0  0  0
  1  2  1  0
  2  3  1  0
  3  4  2  0
  3  5  1  0
  5  6  2  0
  6  7  1  0
  6  8  1  0
  8  9  2  0
  9 10  1  0
  9 11  1  0
 11 12  1  0
 11 13  2  0
 13 14  1  0
 14 15  1  0
 15 16  2  0
 15 17  1  0
 17 18  1  0
 18 19  1  0
 18 20  1  0
 18 21  1  0
 14 22  1  0
 22 23  1  0
 22 24  1  0
 22 25  1  0
 14 26  1  0
 26 27  1  0
 26 28  1  0
 26 29  1  0
 13 30  1  0
 30 31  1  0
 30 32  2  0
 32 33  1  0
 33 34  1  0
 34 35  2  0
 34 36  1  0
 36 37  1  0
 36 38  2  0
 38 39  1  0
 38 40  1  0
 40 41  2  0
 40 42  1  0
 33  5  1  0
 32  8  1  0
M  CHG  3   2  -1  17  -1  42  -1
M  END
>  <UniqueID>  (66) 
65

>  <SMILES>  (66) 
C[N-]C(=O)C(C)(C)c1ccc2cc(C([NH-])=O)n(C(=O)/C=C\C(=O)[O-])c2c1

>  <Energy>  (66) 
88.19428114579566

>  <Genealogy>  (66) 
C[N-]C(=O)C(C)(C)c1ccc2cc(C([NH-])=O)n(C(=O)/C=C\C(=O)[O-])c2c1 (protonated)
C[N-]C(=O)C(C)(C)c1ccc2cc(C([NH-])=O)n(C(=O)/C=C\C(=O)[O-])c2c1 (cis-trans isomerization)
C[N-]C(=O)C(C)(C)c1ccc2cc(C([NH-])=O)n(C(=O)/C=C\C(=O)[O-])c2c1 (3D coordinates assigned)
C[N-]C(=O)C(C)(C)c1ccc2cc(C([NH-])=O)n(C(=O)/C=C\C(=O)[O-])c2c1 (optimized conformer: 88.19428114579566 kcal/mol)

>  <smiles>  (66) 
CNC(=O)C(C)(C)c1ccc2cc(C(N)=O)n(C(=O)/C=C\C(=O)O)c2c1

>  <score_type>  (66) 
oracle

>  <origin>  (66) 
adg

>  <m_score__min__energy>  (66) 
-7.8099999999999996

>  <m_primary>  (66) 
energy

$$$$
66:0
     RDKit          3D

 39 40  0  0  0  0  0  0  0  0999 V2000
  140.4700  159.3440  133.8580 H   0  0  0  0  0  0  0  0  0  0  0  0
  140.0230  158.7350  134.5010 O   0  0  0  0  0  0  0  0  0  0  0  0
  140.5770  159.0230  135.7550 C   0  0  0  0  0  0  0  0  0  0  0  0
  140.3060  158.2266  136.4637 H   0  0  0  0  0  0  0  0  0  0  0  0
  140.1851  159.9883  136.1079 H   0  0  0  0  0  0  0  0  0  0  0  0
  142.0980  159.1100  135.6510 C   0  0  0  0  0  0  0  0  0  0  0  0
  142.5237  158.1066  135.7994 H   0  0  0  0  0  0  0  0  0  0  0  0
  142.4559  159.8073  136.4228 H   0  0  0  0  0  0  0  0  0  0  0  0
  142.6160  159.7300  134.0540 S   0  0  0  0  0  0  0  0  0  0  0  0
  141.8670  160.9930  133.7380 O   0  0  0  0  0  0  0  0  0  0  0  0
  142.3420  158.7120  132.9820 O   0  0  0  0  0  0  0  0  0  0  0  0
  144.3340  160.0850  134.0940 C   0  0  0  0  0  0  0  0  0  0  0  0
  144.7551  160.6464  134.9411 H   0  0  0  0  0  0  0  0  0  0  0  0
  145.1340  159.6800  133.1060 C   0  0  0  0  0  0  0  0  0  0  0  0
  144.6967  159.1183  132.2674 H   0  0  0  0  0  0  0  0  0  0  0  0
  146.5820  159.9570  133.0960 C   0  0  0  0  0  0  0  0  0  0  0  0
  147.0140  161.1110  133.3720 O   0  0  0  0  0  0  0  0  0  0  0  0
  147.5140  158.9080  132.7890 N   0  0  0  0  0  0  0  0  0  0  0  0
  148.5720  158.9660  131.9320 C   0  0  0  0  0  0  0  0  0  0  0  0
  149.0390  160.1840  131.2320 C   0  0  0  0  0  0  0  0  0  0  0  0
  150.2510  160.3010  130.9070 O   0  0  0  0  0  0  0  0  0  0  0  0
  148.1270  161.2310  130.8930 N   0  0  0  0  0  0  0  0  0  0  0  0
  148.4640  162.0660  130.3640 H   0  0  0  0  0  0  0  0  0  0  0  0
  147.1290  161.2050  131.1980 H   0  0  0  0  0  0  0  0  0  0  0  0
  149.2050  157.7240  131.8570 C   0  0  0  0  0  0  0  0  0  0  0  0
  150.0861  157.4601  131.2536 H   0  0  0  0  0  0  0  0  0  0  0  0
  148.4930  156.9000  132.6980 C   0  0  0  0  0  0  0  0  0  0  0  0
  148.6690  155.5490  132.9890 C   0  0  0  0  0  0  0  0  0  0  0  0
  149.4962  154.9762  132.5445 H   0  0  0  0  0  0  0  0  0  0  0  0
  147.7570  154.9410  133.8680 C   0  0  0  0  0  0  0  0  0  0  0  0
  147.8675  153.8750  134.1158 H   0  0  0  0  0  0  0  0  0  0  0  0
  146.6970  155.6870  134.4380 C   0  0  0  0  0  0  0  0  0  0  0  0
  145.7000  155.0130  135.3320 C   0  0  0  0  0  0  0  0  0  0  0  0
  145.9685  155.1945  136.3832 H   0  0  0  0  0  0  0  0  0  0  0  0
  144.6970  155.4190  135.1344 H   0  0  0  0  0  0  0  0  0  0  0  0
  145.7030  153.9309  135.1344 H   0  0  0  0  0  0  0  0  0  0  0  0
  146.5390  157.0510  134.1060 C   0  0  0  0  0  0  0  0  0  0  0  0
  145.7026  157.6379  134.5133 H   0  0  0  0  0  0  0  0  0  0  0  0
  147.4750  157.6360  133.2450 C   0  0  0  0  0  0  0  0  0  0  0  0
  1  2  1  0
  2  3  1  0
  3  4  1  0
  3  5  1  0
  3  6  1  0
  6  7  1  0
  6  8  1  0
  6  9  1  0
  9 10  2  0
  9 11  2  0
  9 12  1  0
 12 13  1  0
 12 14  2  0
 14 15  1  0
 14 16  1  0
 16 17  2  0
 16 18  1  0
 18 19  1  0
 19 20  1  0
 20 21  2  0
 20 22  1  0
 22 23  1  0
 22 24  1  0
 19 25  2  0
 25 26  1  0
 25 27  1  0
 27 28  2  0
 28 29  1  0
 28 30  1  0
 30 31  1  0
 30 32  2  0
 32 33  1  0
 33 34  1  0
 33 35  1  0
 33 36  1  0
 32 37  1  0
 37 38  1  0
 37 39  2  0
 39 18  1  0
 39 27  1  0
M  END
>  <UniqueID>  (67) 
66

>  <SMILES>  (67) 
Cc1ccc2cc(C(N)=O)n(C(=O)/C=C/S(=O)(=O)CCO)c2c1

>  <Energy>  (67) 
70.84329115082343

>  <Genealogy>  (67) 
Cc1ccc2cc(C(N)=O)n(C(=O)/C=C/S(=O)(=O)CCO)c2c1 (cis-trans isomerization)
Cc1ccc2cc(C(N)=O)n(C(=O)/C=C/S(=O)(=O)CCO)c2c1 (3D coordinates assigned)
Cc1ccc2cc(C(N)=O)n(C(=O)/C=C/S(=O)(=O)CCO)c2c1 (optimized conformer: 70.84329115082343 kcal/mol)

>  <smiles>  (67) 
Cc1ccc2cc(C(N)=O)n(C(=O)/C=C/S(=O)(=O)CCO)c2c1

>  <score_type>  (67) 
oracle

>  <origin>  (67) 
adg

>  <m_score__min__energy>  (67) 
-7.46

>  <m_primary>  (67) 
energy

$$$$
67:0
     RDKit          3D

 40 42  0  0  0  0  0  0  0  0999 V2000
  148.4140  158.5970  134.0820 C   0  0  0  0  0  0  0  0  0  0  0  0
  147.0030  158.4510  133.6810 N   0  0  0  0  0  0  0  0  0  0  0  0
  146.2610  159.5500  133.3500 C   0  0  0  0  0  0  0  0  0  0  0  0
  146.7720  160.7040  133.3570 O   0  0  0  0  0  0  0  0  0  0  0  0
  144.9610  159.4130  133.0110 N   0  0  0  0  0  0  0  0  0  0  0  0
  144.3680  158.1980  133.0060 C   0  0  0  0  0  0  0  0  0  0  0  0
  143.1530  158.1110  132.6800 O   0  0  0  0  0  0  0  0  0  0  0  0
  145.0800  157.0840  133.3580 N   0  0  0  0  0  0  0  0  0  0  0  0
  144.4240  155.7620  133.3340 C   0  0  0  0  0  0  0  0  0  0  0  0
  144.1250  155.3340  134.6630 O   0  0  0  0  0  0  0  0  0  0  0  0
  142.9790  154.6050  134.9980 C   0  0  0  0  0  0  0  0  0  0  0  0
  143.0190  153.7380  135.9130 O   0  0  0  0  0  0  0  0  0  0  0  0
  141.7380  154.8770  134.3260 N   0  0  0  0  0  0  0  0  0  0  0  0
  141.0120  154.0290  133.5450 C   0  0  0  0  0  0  0  0  0  0  0  0
  141.2690  152.5860  133.3640 C   0  0  0  0  0  0  0  0  0  0  0  0
  141.3540  151.7320  134.5010 N   0  0  0  0  0  0  0  0  0  0  0  0
  141.4540  152.1070  132.2150 O   0  0  0  0  0  0  0  0  0  0  0  0
  139.9150  154.6890  132.9950 C   0  0  0  0  0  0  0  0  0  0  0  0
  139.9890  155.9780  133.4720 C   0  0  0  0  0  0  0  0  0  0  0  0
  139.1570  157.0680  133.2360 C   0  0  0  0  0  0  0  0  0  0  0  0
  139.4900  158.2920  133.8390 C   0  0  0  0  0  0  0  0  0  0  0  0
  140.6410  158.4060  134.6570 C   0  0  0  0  0  0  0  0  0  0  0  0
  140.9860  159.7280  135.2800 C   0  0  0  0  0  0  0  0  0  0  0  0
  140.9600  159.6150  136.6580 F   0  0  0  0  0  0  0  0  0  0  0  0
  142.2500  160.1190  134.8770 F   0  0  0  0  0  0  0  0  0  0  0  0
  141.4630  157.2760  134.8730 C   0  0  0  0  0  0  0  0  0  0  0  0
  141.0990  156.0660  134.2740 C   0  0  0  0  0  0  0  0  0  0  0  0
  146.4000  157.2200  133.7100 C   0  0  0  0  0  0  0  0  0  0  0  0
  147.0640  156.2060  134.0680 O   0  0  0  0  0  0  0  0  0  0  0  0
  148.4843  158.6043  135.1797 H   0  0  0  0  0  0  0  0  0  0  0  0
  148.9977  157.7545  133.6828 H   0  0  0  0  0  0  0  0  0  0  0  0
  148.8128  159.5412  133.6828 H   0  0  0  0  0  0  0  0  0  0  0  0
  143.4906  155.8303  132.7559 H   0  0  0  0  0  0  0  0  0  0  0  0
  145.1033  155.0334  132.8673 H   0  0  0  0  0  0  0  0  0  0  0  0
  141.7330  152.0820  135.4090 H   0  0  0  0  0  0  0  0  0  0  0  0
  139.1522  154.2692  132.3227 H   0  0  0  0  0  0  0  0  0  0  0  0
  138.2664  156.9740  132.5972 H   0  0  0  0  0  0  0  0  0  0  0  0
  138.8502  159.1715  133.6744 H   0  0  0  0  0  0  0  0  0  0  0  0
  140.2499  160.4797  134.9589 H   0  0  0  0  0  0  0  0  0  0  0  0
  142.3663  157.3470  135.4967 H   0  0  0  0  0  0  0  0  0  0  0  0
  1  2  1  0
  2  3  1  0
  3  4  2  0
  3  5  1  0
  5  6  1  0
  6  7  2  0
  6  8  1  0
  8  9  1  0
  9 10  1  0
 10 11  1  0
 11 12  2  0
 11 13  1  0
 13 14  1  0
 14 15  1  0
 15 16  1  0
 15 17  2  0
 14 18  2  0
 18 19  1  0
 19 20  2  0
 20 21  1  0
 21 22  2  0
 22 23  1  0
 23 24  1  0
 23 25  1  0
 22 26  1  0
 26 27  2  0
  8 28  1  0
 28 29  2  0
 28  2  1  0
 27 13  1  0
 27 19  1  0
  1 30  1  0
  1 31  1  0
  1 32  1  0
  9 33  1  0
  9 34  1  0
 16 35  1  0
 18 36  1  0
 20 37  1  0
 21 38  1  0
 23 39  1  0
 26 40  1  0
M  CHG  2   5  -1  16  -1
M  END
>  <UniqueID>  (68) 
67

>  <SMILES>  (68) 
Cn1c(=O)[n-]c(=O)n(COC(=O)n2c(C([NH-])=O)cc3ccc(C(F)F)cc32)c1=O

>  <Energy>  (68) 
86.69879110912112

>  <Genealogy>  (68) 
Cn1c(=O)[n-]c(=O)n(COC(=O)n2c(C([NH-])=O)cc3ccc(C(F)F)cc32)c1=O (protonated)
Cn1c(=O)[n-]c(=O)n(COC(=O)n2c(C([NH-])=O)cc3ccc(C(F)F)cc32)c1=O (3D coordinates assigned)
Cn1c(=O)[n-]c(=O)n(COC(=O)n2c(C([NH-])=O)cc3ccc(C(F)F)cc32)c1=O (optimized conformer: 86.69879110912112 kcal/mol)

>  <smiles>  (68) 
Cn1c(=O)[nH]c(=O)n(COC(=O)n2c(C(N)=O)cc3ccc(C(F)F)cc32)c1=O

>  <score_type>  (68) 
oracle

>  <origin>  (68) 
adg

>  <m_score__min__energy>  (68) 
-7.5099999999999998

>  <m_primary>  (68) 
energy

$$$$
68:0
     RDKit          3D

 45 46  0  0  0  0  0  0  0  0999 V2000
  137.4000  160.0860  130.7890 C   0  0  0  0  0  0  0  0  0  0  0  0
  138.6820  159.9090  131.1180 C   0  0  0  0  0  0  0  0  0  0  0  0
  139.3780  160.8380  132.0710 C   0  0  0  0  0  0  0  0  0  0  0  0
  140.2140  160.1030  132.9620 O   0  0  0  0  0  0  0  0  0  0  0  0
  140.3310  158.7090  132.9280 C   0  0  0  0  0  0  0  0  0  0  0  0
  141.1920  158.1510  132.1950 O   0  0  0  0  0  0  0  0  0  0  0  0
  139.4570  157.8830  133.8170 C   0  0  0  0  0  0  0  0  0  0  0  0
  139.5260  158.3370  135.2040 N   0  0  0  0  0  0  0  0  0  0  0  0
  140.6680  158.2550  136.0700 C   0  0  0  0  0  0  0  0  0  0  0  0
  140.6270  158.8490  137.1790 O   0  0  0  0  0  0  0  0  0  0  0  0
  141.9220  157.5160  135.6900 C   0  0  0  0  0  0  0  0  0  0  0  0
  142.7850  158.3250  134.8950 O   0  0  0  0  0  0  0  0  0  0  0  0
  143.6710  157.8080  133.9430 C   0  0  0  0  0  0  0  0  0  0  0  0
  143.4060  156.7330  133.3390 O   0  0  0  0  0  0  0  0  0  0  0  0
  144.8890  158.5120  133.6550 N   0  0  0  0  0  0  0  0  0  0  0  0
  145.0640  159.8550  133.5170 C   0  0  0  0  0  0  0  0  0  0  0  0
  144.0280  160.8840  133.7590 C   0  0  0  0  0  0  0  0  0  0  0  0
  142.6490  160.6040  133.5110 N   0  0  0  0  0  0  0  0  0  0  0  0
  144.3570  162.0320  134.1610 O   0  0  0  0  0  0  0  0  0  0  0  0
  146.3950  160.1430  133.2160 C   0  0  0  0  0  0  0  0  0  0  0  0
  147.0320  158.9230  133.1770 C   0  0  0  0  0  0  0  0  0  0  0  0
  148.3670  158.6160  132.9310 C   0  0  0  0  0  0  0  0  0  0  0  0
  148.7450  157.2630  132.9420 C   0  0  0  0  0  0  0  0  0  0  0  0
  147.7850  156.2430  133.1700 C   0  0  0  0  0  0  0  0  0  0  0  0
  148.2140  154.7970  133.2080 C   0  0  0  0  0  0  0  0  0  0  0  0
  149.3780  154.6190  132.4810 F   0  0  0  0  0  0  0  0  0  0  0  0
  148.4380  154.4220  134.5200 F   0  0  0  0  0  0  0  0  0  0  0  0
  147.2360  153.9800  132.6660 F   0  0  0  0  0  0  0  0  0  0  0  0
  146.4420  156.5990  133.4380 C   0  0  0  0  0  0  0  0  0  0  0  0
  146.1010  157.9550  133.4430 C   0  0  0  0  0  0  0  0  0  0  0  0
  136.9111  159.3927  130.0888 H   0  0  0  0  0  0  0  0  0  0  0  0
  136.8328  160.9251  131.2182 H   0  0  0  0  0  0  0  0  0  0  0  0
  139.2392  159.0664  130.6826 H   0  0  0  0  0  0  0  0  0  0  0  0
  139.9936  161.5484  131.4997 H   0  0  0  0  0  0  0  0  0  0  0  0
  138.6211  161.3794  132.6576 H   0  0  0  0  0  0  0  0  0  0  0  0
  138.4169  157.9589  133.4670 H   0  0  0  0  0  0  0  0  0  0  0  0
  139.8078  156.8412  133.7760 H   0  0  0  0  0  0  0  0  0  0  0  0
  142.4537  157.2197  136.6062 H   0  0  0  0  0  0  0  0  0  0  0  0
  141.6364  156.6329  135.0996 H   0  0  0  0  0  0  0  0  0  0  0  0
  141.9320  161.3510  133.6390 H   0  0  0  0  0  0  0  0  0  0  0  0
  142.3290  159.6480  133.2390 H   0  0  0  0  0  0  0  0  0  0  0  0
  146.8410  161.1340  133.0459 H   0  0  0  0  0  0  0  0  0  0  0  0
  149.1038  159.4087  132.7339 H   0  0  0  0  0  0  0  0  0  0  0  0
  149.7972  156.9911  132.7719 H   0  0  0  0  0  0  0  0  0  0  0  0
  145.6841  155.8272  133.6377 H   0  0  0  0  0  0  0  0  0  0  0  0
  1  2  2  0
  2  3  1  0
  3  4  1  0
  4  5  1  0
  5  6  2  0
  5  7  1  0
  7  8  1  0
  8  9  1  0
  9 10  2  0
  9 11  1  0
 11 12  1  0
 12 13  1  0
 13 14  2  0
 13 15  1  0
 15 16  1  0
 16 17  1  0
 17 18  1  0
 17 19  2  0
 16 20  2  0
 20 21  1  0
 21 22  2  0
 22 23  1  0
 23 24  2  0
 24 25  1  0
 25 26  1  0
 25 27  1  0
 25 28  1  0
 24 29  1  0
 29 30  2  0
 30 15  1  0
 30 21  1  0
  1 31  1  0
  1 32  1  0
  2 33  1  0
  3 34  1  0
  3 35  1  0
  7 36  1  0
  7 37  1  0
 11 38  1  0
 11 39  1  0
 18 40  1  0
 18 41  1  0
 20 42  1  0
 22 43  1  0
 23 44  1  0
 29 45  1  0
M  CHG  1   8  -1
M  END
>  <UniqueID>  (69) 
68

>  <SMILES>  (69) 
C=CCOC(=O)C[N-]C(=O)COC(=O)n1c(C(N)=O)cc2ccc(C(F)(F)F)cc21

>  <Energy>  (69) 
72.65947243072658

>  <Genealogy>  (69) 
C=CCOC(=O)C[N-]C(=O)COC(=O)n1c(C(N)=O)cc2ccc(C(F)(F)F)cc21 (protonated)
C=CCOC(=O)C[N-]C(=O)COC(=O)n1c(C(N)=O)cc2ccc(C(F)(F)F)cc21 (3D coordinates assigned)
C=CCOC(=O)C[N-]C(=O)COC(=O)n1c(C(N)=O)cc2ccc(C(F)(F)F)cc21 (optimized conformer: 72.65947243072658 kcal/mol)

>  <smiles>  (69) 
C=CCOC(=O)CNC(=O)COC(=O)n1c(C(N)=O)cc2ccc(C(F)(F)F)cc21

>  <score_type>  (69) 
oracle

>  <origin>  (69) 
adg

>  <m_score__min__energy>  (69) 
-6.5499999999999998

>  <m_primary>  (69) 
energy

$$$$
69:0
     RDKit          3D

 42 43  0  0  0  0  0  0  0  0999 V2000
  148.8540  155.7000  132.6560 C   0  0  0  0  0  0  0  0  0  0  0  0
  148.1330  157.0010  132.8490 C   0  0  0  0  0  0  0  0  0  0  0  0
  148.8680  158.2070  132.9560 C   0  0  0  0  0  0  0  0  0  0  0  0
  148.2070  159.4340  133.1450 C   0  0  0  0  0  0  0  0  0  0  0  0
  146.8170  159.4230  133.2120 C   0  0  0  0  0  0  0  0  0  0  0  0
  145.9340  160.4430  133.4780 C   0  0  0  0  0  0  0  0  0  0  0  0
  144.6780  159.8450  133.4900 C   0  0  0  0  0  0  0  0  0  0  0  0
  143.4290  160.5640  133.8050 C   0  0  0  0  0  0  0  0  0  0  0  0
  142.2370  159.8620  134.1630 N   0  0  0  0  0  0  0  0  0  0  0  0
  143.4010  161.8220  133.7280 O   0  0  0  0  0  0  0  0  0  0  0  0
  144.7870  158.5100  133.2540 N   0  0  0  0  0  0  0  0  0  0  0  0
  143.7560  157.5190  133.3230 C   0  0  0  0  0  0  0  0  0  0  0  0
  142.8540  157.4990  132.4470 O   0  0  0  0  0  0  0  0  0  0  0  0
  143.7930  156.4780  134.3570 C   0  0  0  0  0  0  0  0  0  0  0  0
  144.8570  156.2650  134.9950 O   0  0  0  0  0  0  0  0  0  0  0  0
  142.6340  155.6790  134.6020 N   0  0  0  0  0  0  0  0  0  0  0  0
  141.4390  156.1880  135.2690 C   0  0  0  0  0  0  0  0  0  0  0  0
  141.7580  157.4310  136.1120 C   0  0  0  0  0  0  0  0  0  0  0  0
  140.8300  158.5360  135.7590 N   0  0  0  0  0  0  0  0  0  0  0  0
  140.6390  159.4470  136.9000 C   0  0  0  0  0  0  0  0  0  0  0  0
  139.5160  158.0240  135.3210 C   0  0  0  0  0  0  0  0  0  0  0  0
  146.0980  158.2640  133.0850 C   0  0  0  0  0  0  0  0  0  0  0  0
  146.7250  157.0290  132.9060 C   0  0  0  0  0  0  0  0  0  0  0  0
  149.0949  155.2652  133.6373 H   0  0  0  0  0  0  0  0  0  0  0  0
  148.2123  155.0050  132.0946 H   0  0  0  0  0  0  0  0  0  0  0  0
  149.7835  155.8757  132.0946 H   0  0  0  0  0  0  0  0  0  0  0  0
  149.9658  158.1838  132.8907 H   0  0  0  0  0  0  0  0  0  0  0  0
  148.7715  160.3736  133.2371 H   0  0  0  0  0  0  0  0  0  0  0  0
  146.1702  161.5042  133.6454 H   0  0  0  0  0  0  0  0  0  0  0  0
  141.3990  160.3930  134.4830 H   0  0  0  0  0  0  0  0  0  0  0  0
  142.1600  158.8270  134.0360 H   0  0  0  0  0  0  0  0  0  0  0  0
  140.6896  156.4532  134.5087 H   0  0  0  0  0  0  0  0  0  0  0  0
  141.0539  155.4041  135.9377 H   0  0  0  0  0  0  0  0  0  0  0  0
  141.6446  157.1868  137.1785 H   0  0  0  0  0  0  0  0  0  0  0  0
  142.7915  157.7489  135.9099 H   0  0  0  0  0  0  0  0  0  0  0  0
  140.7563  158.8873  137.8397 H   0  0  0  0  0  0  0  0  0  0  0  0
  141.3880  160.2514  136.8563 H   0  0  0  0  0  0  0  0  0  0  0  0
  139.6300  159.8828  136.8563 H   0  0  0  0  0  0  0  0  0  0  0  0
  138.9031  157.7852  136.2027 H   0  0  0  0  0  0  0  0  0  0  0  0
  139.0070  158.7896  134.7170 H   0  0  0  0  0  0  0  0  0  0  0  0
  139.6591  157.1159  134.7170 H   0  0  0  0  0  0  0  0  0  0  0  0
  146.1367  156.1043  132.8122 H   0  0  0  0  0  0  0  0  0  0  0  0
  1  2  1  0
  2  3  2  0
  3  4  1  0
  4  5  2  0
  5  6  1  0
  6  7  2  0
  7  8  1  0
  8  9  1  0
  8 10  2  0
  7 11  1  0
 11 12  1  0
 12 13  2  0
 12 14  1  0
 14 15  2  0
 14 16  1  0
 16 17  1  0
 17 18  1  0
 18 19  1  0
 19 20  1  0
 19 21  1  0
 11 22  1  0
 22 23  2  0
 23  2  1  0
 22  5  1  0
  1 24  1  0
  1 25  1  0
  1 26  1  0
  3 27  1  0
  4 28  1  0
  6 29  1  0
  9 30  1  0
  9 31  1  0
 17 32  1  0
 17 33  1  0
 18 34  1  0
 18 35  1  0
 20 36  1  0
 20 37  1  0
 20 38  1  0
 21 39  1  0
 21 40  1  0
 21 41  1  0
 23 42  1  0
M  CHG  1  16  -1
M  END
>  <UniqueID>  (70) 
69

>  <SMILES>  (70) 
Cc1ccc2cc(C(N)=O)n(C(=O)C(=O)[N-]CCN(C)C)c2c1

>  <Energy>  (70) 
80.08881977566196

>  <Genealogy>  (70) 
Cc1ccc2cc(C(N)=O)n(C(=O)C(=O)[N-]CCN(C)C)c2c1 (protonated)
Cc1ccc2cc(C(N)=O)n(C(=O)C(=O)[N-]CCN(C)C)c2c1 (3D coordinates assigned)
Cc1ccc2cc(C(N)=O)n(C(=O)C(=O)[N-]CCN(C)C)c2c1 (optimized conformer: 80.08881977566196 kcal/mol)

>  <smiles>  (70) 
Cc1ccc2cc(C(N)=O)n(C(=O)C(=O)NCCN(C)C)c2c1

>  <score_type>  (70) 
oracle

>  <origin>  (70) 
adg

>  <m_score__min__energy>  (70) 
-6.8899999999999997

>  <m_primary>  (70) 
energy

$$$$
70:0
     RDKit          3D

 35 36  0  0  0  0  0  0  0  0999 V2000
  141.2160  158.7720  132.4540 H   0  0  0  0  0  0  0  0  0  0  0  0
  142.0830  158.6200  133.0150 N   0  0  0  0  0  0  0  0  0  0  0  0
  142.0690  157.7870  134.1730 C   0  0  0  0  0  0  0  0  0  0  0  0
  142.0400  158.3170  135.3150 O   0  0  0  0  0  0  0  0  0  0  0  0
  142.0460  156.3180  134.0200 C   0  0  0  0  0  0  0  0  0  0  0  0
  143.1000  155.4900  134.3950 C   0  0  0  0  0  0  0  0  0  0  0  0
  144.0342  155.7854  134.8950 H   0  0  0  0  0  0  0  0  0  0  0  0
  142.7260  154.2240  134.0080 C   0  0  0  0  0  0  0  0  0  0  0  0
  143.3940  153.0140  134.1460 C   0  0  0  0  0  0  0  0  0  0  0  0
  144.3911  152.9675  134.6082 H   0  0  0  0  0  0  0  0  0  0  0  0
  142.7590  151.8510  133.6780 C   0  0  0  0  0  0  0  0  0  0  0  0
  143.2700  150.8813  133.7705 H   0  0  0  0  0  0  0  0  0  0  0  0
  141.4650  151.9070  133.0860 C   0  0  0  0  0  0  0  0  0  0  0  0
  140.8130  150.6980  132.6160 N   0  0  0  0  0  0  0  0  0  0  0  0
  139.4260  150.7350  132.1360 C   0  0  0  0  0  0  0  0  0  0  0  0
  138.7407  150.7533  132.9962 H   0  0  0  0  0  0  0  0  0  0  0  0
  139.2730  151.6375  131.5261 H   0  0  0  0  0  0  0  0  0  0  0  0
  139.2251  149.8419  131.5261 H   0  0  0  0  0  0  0  0  0  0  0  0
  141.5300  149.4170  132.6120 C   0  0  0  0  0  0  0  0  0  0  0  0
  141.7105  149.0946  133.6481 H   0  0  0  0  0  0  0  0  0  0  0  0
  140.9247  148.6596  132.0925 H   0  0  0  0  0  0  0  0  0  0  0  0
  142.4921  149.5370  132.0925 H   0  0  0  0  0  0  0  0  0  0  0  0
  140.8230  153.1680  132.9690 C   0  0  0  0  0  0  0  0  0  0  0  0
  139.8196  153.2454  132.5250 H   0  0  0  0  0  0  0  0  0  0  0  0
  141.4880  154.3110  133.4280 C   0  0  0  0  0  0  0  0  0  0  0  0
  141.0540  155.5900  133.4290 N   0  0  0  0  0  0  0  0  0  0  0  0
  139.7720  156.0560  132.9760 C   0  0  0  0  0  0  0  0  0  0  0  0
  138.7300  155.4070  133.2620 O   0  0  0  0  0  0  0  0  0  0  0  0
  139.6780  157.2680  132.2260 N   0  0  0  0  0  0  0  0  0  0  0  0
  139.1180  158.3020  132.7090 N   0  0  0  0  0  0  0  0  0  0  0  0
  139.0040  159.5300  131.9760 C   0  0  0  0  0  0  0  0  0  0  0  0
  139.8330  160.4470  132.2090 O   0  0  0  0  0  0  0  0  0  0  0  0
  137.9530  159.7600  130.9650 C   0  0  0  0  0  0  0  0  0  0  0  0
  136.7860  159.3160  131.1230 O   0  0  0  0  0  0  0  0  0  0  0  0
  138.2520  160.4820  129.8160 O   0  0  0  0  0  0  0  0  0  0  0  0
  1  2  1  0
  2  3  1  0
  3  4  2  0
  3  5  1  0
  5  6  2  0
  6  7  1  0
  6  8  1  0
  8  9  2  0
  9 10  1  0
  9 11  1  0
 11 12  1  0
 11 13  2  0
 13 14  1  0
 14 15  1  0
 15 16  1  0
 15 17  1  0
 15 18  1  0
 14 19  1  0
 19 20  1  0
 19 21  1  0
 19 22  1  0
 13 23  1  0
 23 24  1  0
 23 25  2  0
 25 26  1  0
 26 27  1  0
 27 28  2  0
 27 29  1  0
 29 30  2  0
 30 31  1  0
 31 32  2  0
 31 33  1  0
 33 34  2  0
 33 35  1  0
 26  5  1  0
 25  8  1  0
M  CHG  2   2  -1  35  -1
M  END
>  <UniqueID>  (71) 
70

>  <SMILES>  (71) 
CN(C)c1ccc2cc(C([NH-])=O)n(C(=O)/N=N/C(=O)C(=O)[O-])c2c1

>  <Energy>  (71) 
74.17545718016453

>  <Genealogy>  (71) 
CN(C)c1ccc2cc(C([NH-])=O)n(C(=O)/N=N/C(=O)C(=O)[O-])c2c1 (protonated)
CN(C)c1ccc2cc(C([NH-])=O)n(C(=O)/N=N/C(=O)C(=O)[O-])c2c1 (cis-trans isomerization)
CN(C)c1ccc2cc(C([NH-])=O)n(C(=O)/N=N/C(=O)C(=O)[O-])c2c1 (3D coordinates assigned)
CN(C)c1ccc2cc(C([NH-])=O)n(C(=O)/N=N/C(=O)C(=O)[O-])c2c1 (optimized conformer: 74.17545718016453 kcal/mol)

>  <smiles>  (71) 
CN(C)c1ccc2cc(C(N)=O)n(C(=O)/N=N/C(=O)C(=O)O)c2c1

>  <score_type>  (71) 
oracle

>  <origin>  (71) 
adg

>  <m_score__min__energy>  (71) 
-6.5899999999999999

>  <m_primary>  (71) 
energy

$$$$
71:0
     RDKit          3D

 43 45  0  0  0  0  0  0  0  0999 V2000
  144.1000  155.0640  132.2250 C   0  0  0  0  0  0  0  0  0  0  0  0
  143.5480  154.4530  133.5230 C   0  0  0  0  0  0  0  0  0  0  0  0
  142.6260  153.2710  133.1660 C   0  0  0  0  0  0  0  0  0  0  0  0
  144.7290  153.9790  134.3910 C   0  0  0  0  0  0  0  0  0  0  0  0
  142.8110  155.4830  134.1950 O   0  0  0  0  0  0  0  0  0  0  0  0
  141.7780  156.2600  133.6500 C   0  0  0  0  0  0  0  0  0  0  0  0
  140.8370  155.7260  133.0040 O   0  0  0  0  0  0  0  0  0  0  0  0
  141.7800  157.6800  133.8630 N   0  0  0  0  0  0  0  0  0  0  0  0
  140.7480  158.4710  134.2740 C   0  0  0  0  0  0  0  0  0  0  0  0
  139.3430  158.0490  134.4430 C   0  0  0  0  0  0  0  0  0  0  0  0
  138.6070  157.4940  133.3570 N   0  0  0  0  0  0  0  0  0  0  0  0
  138.7690  158.2230  135.5510 O   0  0  0  0  0  0  0  0  0  0  0  0
  141.1790  159.7880  134.4350 C   0  0  0  0  0  0  0  0  0  0  0  0
  142.5130  159.7790  134.0990 C   0  0  0  0  0  0  0  0  0  0  0  0
  143.4380  160.8170  134.0790 C   0  0  0  0  0  0  0  0  0  0  0  0
  144.7600  160.5170  133.7080 C   0  0  0  0  0  0  0  0  0  0  0  0
  145.1400  159.1870  133.3790 C   0  0  0  0  0  0  0  0  0  0  0  0
  146.5330  158.8540  132.9830 C   0  0  0  0  0  0  0  0  0  0  0  0
  147.1710  157.6800  133.4250 C   0  0  0  0  0  0  0  0  0  0  0  0
  148.4800  157.4130  133.0150 C   0  0  0  0  0  0  0  0  0  0  0  0
  149.1420  158.3040  132.1700 C   0  0  0  0  0  0  0  0  0  0  0  0
  148.4790  159.4540  131.7400 C   0  0  0  0  0  0  0  0  0  0  0  0
  149.3460  160.6890  130.5730 Br  0  0  0  0  0  0  0  0  0  0  0  0
  147.2070  159.6980  132.1510 N   0  0  0  0  0  0  0  0  0  0  0  0
  144.1640  158.1630  133.4070 C   0  0  0  0  0  0  0  0  0  0  0  0
  142.8520  158.4970  133.7590 C   0  0  0  0  0  0  0  0  0  0  0  0
  144.8188  155.8596  132.4709 H   0  0  0  0  0  0  0  0  0  0  0  0
  144.6046  154.2827  131.6376 H   0  0  0  0  0  0  0  0  0  0  0  0
  143.2717  155.4869  131.6376 H   0  0  0  0  0  0  0  0  0  0  0  0
  142.2589  152.8003  134.0899 H   0  0  0  0  0  0  0  0  0  0  0  0
  141.7723  153.6369  132.5766 H   0  0  0  0  0  0  0  0  0  0  0  0
  143.1887  152.5321  132.5766 H   0  0  0  0  0  0  0  0  0  0  0  0
  144.4678  154.0838  135.4544 H   0  0  0  0  0  0  0  0  0  0  0  0
  144.9468  152.9238  134.1692 H   0  0  0  0  0  0  0  0  0  0  0  0
  145.6158  154.5909  134.1692 H   0  0  0  0  0  0  0  0  0  0  0  0
  138.8130  156.5340  133.0020 H   0  0  0  0  0  0  0  0  0  0  0  0
  140.5794  160.6506  134.7613 H   0  0  0  0  0  0  0  0  0  0  0  0
  143.1437  161.8428  134.3457 H   0  0  0  0  0  0  0  0  0  0  0  0
  145.5098  161.3210  133.6717 H   0  0  0  0  0  0  0  0  0  0  0  0
  146.6436  156.9782  134.0878 H   0  0  0  0  0  0  0  0  0  0  0  0
  148.9885  156.5001  133.3586 H   0  0  0  0  0  0  0  0  0  0  0  0
  150.1739  158.1025  131.8467 H   0  0  0  0  0  0  0  0  0  0  0  0
  144.4314  157.1257  133.1571 H   0  0  0  0  0  0  0  0  0  0  0  0
  1  2  1  0
  2  3  1  0
  2  4  1  0
  2  5  1  0
  5  6  1  0
  6  7  2  0
  6  8  1  0
  8  9  1  0
  9 10  1  0
 10 11  1  0
 10 12  2  0
  9 13  2  0
 13 14  1  0
 14 15  2  0
 15 16  1  0
 16 17  2  0
 17 18  1  0
 18 19  2  0
 19 20  1  0
 20 21  2  0
 21 22  1  0
 22 23  1  0
 22 24  2  0
 17 25  1  0
 25 26  2  0
 26  8  1  0
 26 14  1  0
 24 18  1  0
  1 27  1  0
  1 28  1  0
  1 29  1  0
  3 30  1  0
  3 31  1  0
  3 32  1  0
  4 33  1  0
  4 34  1  0
  4 35  1  0
 11 36  1  0
 13 37  1  0
 15 38  1  0
 16 39  1  0
 19 40  1  0
 20 41  1  0
 21 42  1  0
 25 43  1  0
M  CHG  1  11  -1
M  END
>  <UniqueID>  (72) 
71

>  <SMILES>  (72) 
CC(C)(C)OC(=O)n1c(C([NH-])=O)cc2ccc(-c3cccc(Br)n3)cc21

>  <Energy>  (72) 
83.51759681399669

>  <Genealogy>  (72) 
CC(C)(C)OC(=O)n1c(C([NH-])=O)cc2ccc(-c3cccc(Br)n3)cc21 (protonated)
CC(C)(C)OC(=O)n1c(C([NH-])=O)cc2ccc(-c3cccc(Br)n3)cc21 (3D coordinates assigned)
CC(C)(C)OC(=O)n1c(C([NH-])=O)cc2ccc(-c3cccc(Br)n3)cc21 (optimized conformer: 83.51759681399669 kcal/mol)

>  <smiles>  (72) 
CC(C)(C)OC(=O)n1c(C(N)=O)cc2ccc(-c3cccc(Br)n3)cc21

>  <score_type>  (72) 
oracle

>  <origin>  (72) 
adg

>  <m_score__min__energy>  (72) 
-8.8699999999999992

>  <m_primary>  (72) 
energy

$$$$
72:0
     RDKit          3D

 57 59  0  0  0  0  0  0  0  0999 V2000
  138.9090  149.6910  131.5110 C   0  0  0  0  0  0  0  0  0  0  0  0
  139.2370  150.8250  132.3080 O   0  0  0  0  0  0  0  0  0  0  0  0
  140.5390  151.3180  132.4950 C   0  0  0  0  0  0  0  0  0  0  0  0
  141.6710  150.4860  132.4170 C   0  0  0  0  0  0  0  0  0  0  0  0
  142.9500  151.0070  132.6260 C   0  0  0  0  0  0  0  0  0  0  0  0
  143.1260  152.3710  132.9120 C   0  0  0  0  0  0  0  0  0  0  0  0
  144.4830  152.9110  133.1650 C   0  0  0  0  0  0  0  0  0  0  0  0
  145.4990  152.2660  132.7820 O   0  0  0  0  0  0  0  0  0  0  0  0
  144.6240  154.1400  133.8260 O   0  0  0  0  0  0  0  0  0  0  0  0
  144.9980  154.2900  135.1660 C   0  0  0  0  0  0  0  0  0  0  0  0
  144.1990  154.7850  136.0090 O   0  0  0  0  0  0  0  0  0  0  0  0
  146.2780  153.8760  135.5510 O   0  0  0  0  0  0  0  0  0  0  0  0
  147.4690  154.4260  135.0530 C   0  0  0  0  0  0  0  0  0  0  0  0
  148.1150  155.2880  135.7090 O   0  0  0  0  0  0  0  0  0  0  0  0
  148.0010  153.9530  133.7320 C   0  0  0  0  0  0  0  0  0  0  0  0
  147.3270  154.6150  132.6040 N   0  0  0  0  0  0  0  0  0  0  0  0
  147.2610  156.0440  132.7980 C   0  0  0  0  0  0  0  0  0  0  0  0
  148.4370  156.8330  132.7040 C   0  0  0  0  0  0  0  0  0  0  0  0
  148.3830  158.2240  132.8940 C   0  0  0  0  0  0  0  0  0  0  0  0
  147.1430  158.8020  133.1560 C   0  0  0  0  0  0  0  0  0  0  0  0
  146.8110  160.1150  133.4080 C   0  0  0  0  0  0  0  0  0  0  0  0
  145.4340  160.1170  133.6140 C   0  0  0  0  0  0  0  0  0  0  0  0
  144.6440  161.3460  133.8420 C   0  0  0  0  0  0  0  0  0  0  0  0
  143.2270  161.3160  133.7030 N   0  0  0  0  0  0  0  0  0  0  0  0
  145.2030  162.4150  134.1960 O   0  0  0  0  0  0  0  0  0  0  0  0
  144.9340  158.8540  133.4970 N   0  0  0  0  0  0  0  0  0  0  0  0
  143.5810  158.4180  133.7170 C   0  0  0  0  0  0  0  0  0  0  0  0
  142.9470  157.8410  132.7900 O   0  0  0  0  0  0  0  0  0  0  0  0
  142.9570  158.6730  134.9470 O   0  0  0  0  0  0  0  0  0  0  0  0
  141.5480  158.8260  135.0920 C   0  0  0  0  0  0  0  0  0  0  0  0
  140.9660  157.6000  135.3650 F   0  0  0  0  0  0  0  0  0  0  0  0
  141.0200  159.3210  133.9150 F   0  0  0  0  0  0  0  0  0  0  0  0
  141.2710  159.7120  136.1180 F   0  0  0  0  0  0  0  0  0  0  0  0
  145.9940  158.0600  133.2180 C   0  0  0  0  0  0  0  0  0  0  0  0
  146.0190  156.6700  133.0580 C   0  0  0  0  0  0  0  0  0  0  0  0
  141.9970  153.2060  132.9780 C   0  0  0  0  0  0  0  0  0  0  0  0
  140.7030  152.6840  132.7740 C   0  0  0  0  0  0  0  0  0  0  0  0
  139.5550  153.4870  132.8450 O   0  0  0  0  0  0  0  0  0  0  0  0
  139.5700  154.9030  132.9840 C   0  0  0  0  0  0  0  0  0  0  0  0
  138.6633  148.8416  132.1654 H   0  0  0  0  0  0  0  0  0  0  0  0
  138.0424  149.9274  130.8761 H   0  0  0  0  0  0  0  0  0  0  0  0
  139.7680  149.4282  130.8761 H   0  0  0  0  0  0  0  0  0  0  0  0
  141.5478  149.4168  132.1897 H   0  0  0  0  0  0  0  0  0  0  0  0
  143.8259  150.3443  132.5662 H   0  0  0  0  0  0  0  0  0  0  0  0
  149.0777  154.1727  133.6823 H   0  0  0  0  0  0  0  0  0  0  0  0
  147.8147  152.8716  133.6552 H   0  0  0  0  0  0  0  0  0  0  0  0
  146.3550  154.2350  132.5260 H   0  0  0  0  0  0  0  0  0  0  0  0
  147.8160  154.3890  131.7080 H   0  0  0  0  0  0  0  0  0  0  0  0
  149.4000  156.3508  132.4802 H   0  0  0  0  0  0  0  0  0  0  0  0
  149.2934  158.8387  132.8375 H   0  0  0  0  0  0  0  0  0  0  0  0
  147.4905  160.9795  133.4398 H   0  0  0  0  0  0  0  0  0  0  0  0
  142.7070  160.4100  133.6690 H   0  0  0  0  0  0  0  0  0  0  0  0
  145.0949  156.0780  133.1326 H   0  0  0  0  0  0  0  0  0  0  0  0
  142.1243  154.2776  133.1910 H   0  0  0  0  0  0  0  0  0  0  0  0
  139.5728  155.1666  134.0519 H   0  0  0  0  0  0  0  0  0  0  0  0
  140.4725  155.3090  132.5037 H   0  0  0  0  0  0  0  0  0  0  0  0
  138.6763  155.3281  132.5037 H   0  0  0  0  0  0  0  0  0  0  0  0
  1  2  1  0
  2  3  1  0
  3  4  2  0
  4  5  1  0
  5  6  2  0
  6  7  1  0
  7  8  2  0
  7  9  1  0
  9 10  1  0
 10 11  2  0
 10 12  1  0
 12 13  1  0
 13 14  2  0
 13 15  1  0
 15 16  1  0
 16 17  1  0
 17 18  2  0
 18 19  1  0
 19 20  2  0
 20 21  1  0
 21 22  2  0
 22 23  1  0
 23 24  1  0
 23 25  2  0
 22 26  1  0
 26 27  1  0
 27 28  2  0
 27 29  1  0
 29 30  1  0
 30 31  1  0
 30 32  1  0
 30 33  1  0
 26 34  1  0
 34 35  2  0
  6 36  1  0
 36 37  2  0
 37 38  1  0
 38 39  1  0
 37  3  1  0
 35 17  1  0
 34 20  1  0
  1 40  1  0
  1 41  1  0
  1 42  1  0
  4 43  1  0
  5 44  1  0
 15 45  1  0
 15 46  1  0
 16 47  1  0
 16 48  1  0
 18 49  1  0
 19 50  1  0
 21 51  1  0
 24 52  1  0
 35 53  1  0
 36 54  1  0
 39 55  1  0
 39 56  1  0
 39 57  1  0
M  CHG  2  16   1  24  -1
M  END
>  <UniqueID>  (73) 
72

>  <SMILES>  (73) 
COc1ccc(C(=O)OC(=O)OC(=O)C[NH2+]c2ccc3cc(C([NH-])=O)n(C(=O)OC(F)(F)F)c3c2)cc1OC

>  <Energy>  (73) 
97.74175218093941

>  <Genealogy>  (73) 
COc1ccc(C(=O)OC(=O)OC(=O)C[NH2+]c2ccc3cc(C([NH-])=O)n(C(=O)OC(F)(F)F)c3c2)cc1OC (protonated)
COc1ccc(C(=O)OC(=O)OC(=O)C[NH2+]c2ccc3cc(C([NH-])=O)n(C(=O)OC(F)(F)F)c3c2)cc1OC (3D coordinates assigned)
COc1ccc(C(=O)OC(=O)OC(=O)C[NH2+]c2ccc3cc(C([NH-])=O)n(C(=O)OC(F)(F)F)c3c2)cc1OC (optimized conformer: 97.74175218093941 kcal/mol)

>  <smiles>  (73) 
COc1ccc(C(=O)OC(=O)OC(=O)CNc2ccc3cc(C(N)=O)n(C(=O)OC(F)(F)F)c3c2)cc1OC

>  <score_type>  (73) 
oracle

>  <origin>  (73) 
adg

>  <m_score__min__energy>  (73) 
-7.3300000000000001

>  <m_primary>  (73) 
energy

$$$$
73:0
     RDKit          3D

 49 50  0  0  0  0  0  0  0  0999 V2000
  146.4390  153.2120  133.2270 C   0  0  0  0  0  0  0  0  0  0  0  0
  146.8400  154.2050  134.0230 C   0  0  0  0  0  0  0  0  0  0  0  0
  146.5660  154.1890  135.4780 C   0  0  0  0  0  0  0  0  0  0  0  0
  145.6030  154.8730  135.9160 O   0  0  0  0  0  0  0  0  0  0  0  0
  147.3060  153.3810  136.4040 N   0  0  0  0  0  0  0  0  0  0  0  0
  148.3310  153.8660  137.3200 C   0  0  0  0  0  0  0  0  0  0  0  0
  147.6690  155.2440  133.4800 N   0  0  0  0  0  0  0  0  0  0  0  0
  148.8250  154.8550  132.6700 C   0  0  0  0  0  0  0  0  0  0  0  0
  147.2260  156.6180  133.5380 C   0  0  0  0  0  0  0  0  0  0  0  0
  148.1740  157.6760  133.5240 C   0  0  0  0  0  0  0  0  0  0  0  0
  147.7600  159.0170  133.5780 C   0  0  0  0  0  0  0  0  0  0  0  0
  146.3950  159.2770  133.6350 C   0  0  0  0  0  0  0  0  0  0  0  0
  145.7240  160.4760  133.7000 C   0  0  0  0  0  0  0  0  0  0  0  0
  144.3710  160.1400  133.7350 C   0  0  0  0  0  0  0  0  0  0  0  0
  143.2790  161.1360  133.7340 C   0  0  0  0  0  0  0  0  0  0  0  0
  141.9570  160.7400  134.0920 N   0  0  0  0  0  0  0  0  0  0  0  0
  143.5050  162.3420  133.4520 O   0  0  0  0  0  0  0  0  0  0  0  0
  144.2140  158.7870  133.6870 N   0  0  0  0  0  0  0  0  0  0  0  0
  142.9790  158.0490  133.7690 C   0  0  0  0  0  0  0  0  0  0  0  0
  142.0720  158.2820  132.9260 O   0  0  0  0  0  0  0  0  0  0  0  0
  142.6940  157.0900  134.8620 C   0  0  0  0  0  0  0  0  0  0  0  0
  141.7350  157.2140  135.8020 C   0  0  0  0  0  0  0  0  0  0  0  0
  141.4580  156.0640  136.7310 C   0  0  0  0  0  0  0  0  0  0  0  0
  140.8960  158.4190  135.9500 C   0  0  0  0  0  0  0  0  0  0  0  0
  141.3410  159.4340  136.5530 O   0  0  0  0  0  0  0  0  0  0  0  0
  139.5910  158.4090  135.4490 O   0  0  0  0  0  0  0  0  0  0  0  0
  139.3010  158.1610  134.0780 C   0  0  0  0  0  0  0  0  0  0  0  0
  145.4630  158.2730  133.6370 C   0  0  0  0  0  0  0  0  0  0  0  0
  145.8460  156.9280  133.6080 C   0  0  0  0  0  0  0  0  0  0  0  0
  146.6559  153.2493  132.1493 H   0  0  0  0  0  0  0  0  0  0  0  0
  145.8915  152.3561  133.6486 H   0  0  0  0  0  0  0  0  0  0  0  0
  147.9997  153.7093  138.3572 H   0  0  0  0  0  0  0  0  0  0  0  0
  149.2675  153.3155  137.1470 H   0  0  0  0  0  0  0  0  0  0  0  0
  148.4992  154.9392  137.1470 H   0  0  0  0  0  0  0  0  0  0  0  0
  149.6583  154.5746  133.3311 H   0  0  0  0  0  0  0  0  0  0  0  0
  148.5562  153.9978  132.0352 H   0  0  0  0  0  0  0  0  0  0  0  0
  149.1291  155.7003  132.0352 H   0  0  0  0  0  0  0  0  0  0  0  0
  149.2474  157.4416  133.4701 H   0  0  0  0  0  0  0  0  0  0  0  0
  148.4933  159.8369  133.5753 H   0  0  0  0  0  0  0  0  0  0  0  0
  146.1615  161.4851  133.7201 H   0  0  0  0  0  0  0  0  0  0  0  0
  141.7660  159.7830  134.4670 H   0  0  0  0  0  0  0  0  0  0  0  0
  143.3253  156.1905  134.9114 H   0  0  0  0  0  0  0  0  0  0  0  0
  141.5405  156.4064  137.7731 H   0  0  0  0  0  0  0  0  0  0  0  0
  140.4423  155.6826  136.5497 H   0  0  0  0  0  0  0  0  0  0  0  0
  142.1886  155.2619  136.5497 H   0  0  0  0  0  0  0  0  0  0  0  0
  138.4669  157.4478  134.0028 H   0  0  0  0  0  0  0  0  0  0  0  0
  139.0222  159.1044  133.5857 H   0  0  0  0  0  0  0  0  0  0  0  0
  140.1897  157.7392  133.5857 H   0  0  0  0  0  0  0  0  0  0  0  0
  145.0914  156.1282  133.6389 H   0  0  0  0  0  0  0  0  0  0  0  0
  1  2  2  0
  2  3  1  0
  3  4  2  0
  3  5  1  0
  5  6  1  0
  2  7  1  0
  7  8  1  0
  7  9  1  0
  9 10  2  0
 10 11  1  0
 11 12  2  0
 12 13  1  0
 13 14  2  0
 14 15  1  0
 15 16  1  0
 15 17  2  0
 14 18  1  0
 18 19  1  0
 19 20  2  0
 19 21  1  0
 21 22  2  3
 22 23  1  0
 22 24  1  0
 24 25  2  0
 24 26  1  0
 26 27  1  0
 18 28  1  0
 28 29  2  0
 29  9  1  0
 28 12  1  0
  1 30  1  0
  1 31  1  0
  6 32  1  0
  6 33  1  0
  6 34  1  0
  8 35  1  0
  8 36  1  0
  8 37  1  0
 10 38  1  0
 11 39  1  0
 13 40  1  0
 16 41  1  0
 21 42  1  0
 23 43  1  0
 23 44  1  0
 23 45  1  0
 27 46  1  0
 27 47  1  0
 27 48  1  0
 29 49  1  0
M  CHG  2   5  -1  16  -1
M  END
>  <UniqueID>  (74) 
73

>  <SMILES>  (74) 
C=C(C(=O)[N-]C)N(C)c1ccc2cc(C([NH-])=O)n(C(=O)C=C(C)C(=O)OC)c2c1

>  <Energy>  (74) 
101.30269510963585

>  <Genealogy>  (74) 
C=C(C(=O)[N-]C)N(C)c1ccc2cc(C([NH-])=O)n(C(=O)C=C(C)C(=O)OC)c2c1 (protonated)
C=C(C(=O)[N-]C)N(C)c1ccc2cc(C([NH-])=O)n(C(=O)C=C(C)C(=O)OC)c2c1 (3D coordinates assigned)
C=C(C(=O)[N-]C)N(C)c1ccc2cc(C([NH-])=O)n(C(=O)C=C(C)C(=O)OC)c2c1 (optimized conformer: 101.30269510963585 kcal/mol)

>  <smiles>  (74) 
C=C(C(=O)NC)N(C)c1ccc2cc(C(N)=O)n(C(=O)C=C(C)C(=O)OC)c2c1

>  <score_type>  (74) 
oracle

>  <origin>  (74) 
adg

>  <m_score__min__energy>  (74) 
-7.71

>  <m_primary>  (74) 
energy

$$$$
74:0
     RDKit          3D

 39 41  0  0  0  0  0  0  0  0999 V2000
  145.3860  154.0700  133.2920 C   0  0  0  0  0  0  0  0  0  0  0  0
  146.4600  155.1650  133.2430 C   0  0  0  0  0  0  0  0  0  0  0  0
  145.9550  156.4590  132.7720 N   0  0  0  0  0  0  0  0  0  0  0  0
  145.1200  157.3040  133.5810 C   0  0  0  0  0  0  0  0  0  0  0  0
  144.6960  156.8930  134.6960 O   0  0  0  0  0  0  0  0  0  0  0  0
  144.7460  158.6530  133.1190 C   0  0  0  0  0  0  0  0  0  0  0  0
  145.5540  159.3300  132.4300 O   0  0  0  0  0  0  0  0  0  0  0  0
  143.4470  159.1910  133.4110 N   0  0  0  0  0  0  0  0  0  0  0  0
  143.1200  160.4730  133.7430 C   0  0  0  0  0  0  0  0  0  0  0  0
  144.0400  161.6290  133.7450 C   0  0  0  0  0  0  0  0  0  0  0  0
  145.4230  161.4680  134.0570 N   0  0  0  0  0  0  0  0  0  0  0  0
  143.6090  162.7710  133.4330 O   0  0  0  0  0  0  0  0  0  0  0  0
  141.7560  160.5710  134.0190 C   0  0  0  0  0  0  0  0  0  0  0  0
  141.2540  159.3030  133.8320 C   0  0  0  0  0  0  0  0  0  0  0  0
  139.9550  158.8210  133.9710 C   0  0  0  0  0  0  0  0  0  0  0  0
  139.7290  157.4560  133.7290 C   0  0  0  0  0  0  0  0  0  0  0  0
  140.7990  156.6010  133.3570 C   0  0  0  0  0  0  0  0  0  0  0  0
  140.5540  155.1400  133.1080 C   0  0  0  0  0  0  0  0  0  0  0  0
  139.1950  154.9110  132.9810 F   0  0  0  0  0  0  0  0  0  0  0  0
  141.0440  154.3980  134.1670 F   0  0  0  0  0  0  0  0  0  0  0  0
  142.1020  157.1260  133.2270 C   0  0  0  0  0  0  0  0  0  0  0  0
  142.2950  158.4910  133.4640 C   0  0  0  0  0  0  0  0  0  0  0  0
  147.7750  154.7590  132.6070 C   0  0  0  0  0  0  0  0  0  0  0  0
  148.4770  154.8780  133.8220 O   0  0  0  0  0  0  0  0  0  0  0  0
  147.3050  155.2720  134.4980 C   0  0  0  0  0  0  0  0  0  0  0  0
  145.1526  153.8320  134.3403 H   0  0  0  0  0  0  0  0  0  0  0  0
  144.4766  154.4255  132.7854 H   0  0  0  0  0  0  0  0  0  0  0  0
  145.7590  153.1676  132.7854 H   0  0  0  0  0  0  0  0  0  0  0  0
  146.2880  156.8210  131.8490 H   0  0  0  0  0  0  0  0  0  0  0  0
  146.1190  161.2440  133.3130 H   0  0  0  0  0  0  0  0  0  0  0  0
  141.1998  161.4705  134.3217 H   0  0  0  0  0  0  0  0  0  0  0  0
  139.1308  159.4890  134.2615 H   0  0  0  0  0  0  0  0  0  0  0  0
  138.7132  157.0458  133.8288 H   0  0  0  0  0  0  0  0  0  0  0  0
  141.0664  154.8416  132.1815 H   0  0  0  0  0  0  0  0  0  0  0  0
  142.9453  156.4780  132.9462 H   0  0  0  0  0  0  0  0  0  0  0  0
  147.7689  153.7360  132.2028 H   0  0  0  0  0  0  0  0  0  0  0  0
  148.1347  155.3141  131.7281 H   0  0  0  0  0  0  0  0  0  0  0  0
  147.0011  154.5740  135.2920 H   0  0  0  0  0  0  0  0  0  0  0  0
  147.3066  156.2176  135.0601 H   0  0  0  0  0  0  0  0  0  0  0  0
  1  2  1  0
  2  3  1  0
  3  4  1  0
  4  5  2  0
  4  6  1  0
  6  7  2  0
  6  8  1  0
  8  9  1  0
  9 10  1  0
 10 11  1  0
 10 12  2  0
  9 13  2  0
 13 14  1  0
 14 15  2  0
 15 16  1  0
 16 17  2  0
 17 18  1  0
 18 19  1  0
 18 20  1  0
 17 21  1  0
 21 22  2  0
  2 23  1  0
 23 24  1  0
 24 25  1  0
 25  2  1  0
 22  8  1  0
 22 14  1  0
  1 26  1  0
  1 27  1  0
  1 28  1  0
  3 29  1  0
 11 30  1  0
 13 31  1  0
 15 32  1  0
 16 33  1  0
 18 34  1  0
 21 35  1  0
 23 36  1  0
 23 37  1  0
 25 38  1  0
 25 39  1  0
M  CHG  1  11  -1
M  END
>  <UniqueID>  (75) 
74

>  <SMILES>  (75) 
CC1(NC(=O)C(=O)n2c(C([NH-])=O)cc3ccc(C(F)F)cc32)COC1

>  <Energy>  (75) 
141.56725716220038

>  <Genealogy>  (75) 
CC1(NC(=O)C(=O)n2c(C([NH-])=O)cc3ccc(C(F)F)cc32)COC1 (protonated)
CC1(NC(=O)C(=O)n2c(C([NH-])=O)cc3ccc(C(F)F)cc32)COC1 (3D coordinates assigned)
CC1(NC(=O)C(=O)n2c(C([NH-])=O)cc3ccc(C(F)F)cc32)COC1 (nonaromatic ring conformer: 141.56725716220038 kcal/mol)

>  <smiles>  (75) 
CC1(NC(=O)C(=O)n2c(C(N)=O)cc3ccc(C(F)F)cc32)COC1

>  <score_type>  (75) 
oracle

>  <origin>  (75) 
adg

>  <m_score__min__energy>  (75) 
-7.0499999999999998

>  <m_primary>  (75) 
energy

$$$$
75:0
     RDKit          3D

 35 36  0  0  0  0  0  0  0  0999 V2000
  149.5870  158.7920  132.9670 N   0  0  0  0  0  0  0  0  0  0  0  0
  148.4580  159.6000  132.6300 C   0  0  0  0  0  0  0  0  0  0  0  0
  148.6380  160.6610  131.9770 O   0  0  0  0  0  0  0  0  0  0  0  0
  147.0940  159.2140  133.0590 C   0  0  0  0  0  0  0  0  0  0  0  0
  145.9630  160.0140  132.8970 C   0  0  0  0  0  0  0  0  0  0  0  0
  144.9070  159.2440  133.3300 C   0  0  0  0  0  0  0  0  0  0  0  0
  143.5480  159.5340  133.3800 C   0  0  0  0  0  0  0  0  0  0  0  0
  142.6810  158.5460  133.8780 C   0  0  0  0  0  0  0  0  0  0  0  0
  143.1860  157.3000  134.3340 C   0  0  0  0  0  0  0  0  0  0  0  0
  142.2410  156.2330  134.8250 C   0  0  0  0  0  0  0  0  0  0  0  0
  142.9280  155.0670  135.1170 F   0  0  0  0  0  0  0  0  0  0  0  0
  141.2880  155.9440  133.8640 F   0  0  0  0  0  0  0  0  0  0  0  0
  141.6050  156.6800  135.9690 F   0  0  0  0  0  0  0  0  0  0  0  0
  144.5710  157.0350  134.2410 C   0  0  0  0  0  0  0  0  0  0  0  0
  145.4070  158.0340  133.7330 C   0  0  0  0  0  0  0  0  0  0  0  0
  146.7470  158.0020  133.5770 N   0  0  0  0  0  0  0  0  0  0  0  0
  147.6130  156.9100  133.9270 C   0  0  0  0  0  0  0  0  0  0  0  0
  148.0660  156.8250  135.0990 O   0  0  0  0  0  0  0  0  0  0  0  0
  148.0050  155.9070  132.9270 C   0  0  0  0  0  0  0  0  0  0  0  0
  149.1320  155.9830  132.3670 O   0  0  0  0  0  0  0  0  0  0  0  0
  147.1260  154.8610  132.6210 O   0  0  0  0  0  0  0  0  0  0  0  0
  147.1260  153.6050  133.2990 C   0  0  0  0  0  0  0  0  0  0  0  0
  148.2440  152.7020  132.7730 C   0  0  0  0  0  0  0  0  0  0  0  0
  149.0470  153.3820  131.8480 O   0  0  0  0  0  0  0  0  0  0  0  0
  149.4750  157.8750  133.4520 H   0  0  0  0  0  0  0  0  0  0  0  0
  150.5480  159.0930  132.6870 H   0  0  0  0  0  0  0  0  0  0  0  0
  145.9232  161.0415  132.5064 H   0  0  0  0  0  0  0  0  0  0  0  0
  143.1632  160.5069  133.0402 H   0  0  0  0  0  0  0  0  0  0  0  0
  141.5990  158.7405  133.9148 H   0  0  0  0  0  0  0  0  0  0  0  0
  144.9816  156.0659  134.5607 H   0  0  0  0  0  0  0  0  0  0  0  0
  147.2773  153.7763  134.3750 H   0  0  0  0  0  0  0  0  0  0  0  0
  146.1602  153.1092  133.1216 H   0  0  0  0  0  0  0  0  0  0  0  0
  148.8678  152.3733  133.6173 H   0  0  0  0  0  0  0  0  0  0  0  0
  147.7875  151.8366  132.2704 H   0  0  0  0  0  0  0  0  0  0  0  0
  148.4870  154.1070  131.4650 H   0  0  0  0  0  0  0  0  0  0  0  0
  1  2  1  0
  2  3  2  0
  2  4  1  0
  4  5  2  0
  5  6  1  0
  6  7  2  0
  7  8  1  0
  8  9  2  0
  9 10  1  0
 10 11  1  0
 10 12  1  0
 10 13  1  0
  9 14  1  0
 14 15  2  0
 15 16  1  0
 16 17  1  0
 17 18  2  0
 17 19  1  0
 19 20  2  0
 19 21  1  0
 21 22  1  0
 22 23  1  0
 23 24  1  0
 16  4  1  0
 15  6  1  0
  1 25  1  0
  1 26  1  0
  5 27  1  0
  7 28  1  0
  8 29  1  0
 14 30  1  0
 22 31  1  0
 22 32  1  0
 23 33  1  0
 23 34  1  0
 24 35  1  0
M  END
>  <UniqueID>  (76) 
75

>  <SMILES>  (76) 
NC(=O)c1cc2ccc(C(F)(F)F)cc2n1C(=O)C(=O)OCCO

>  <Energy>  (76) 
71.43933891676545

>  <Genealogy>  (76) 
NC(=O)c1cc2ccc(C(F)(F)F)cc2n1C(=O)C(=O)OCCO (3D coordinates assigned)
NC(=O)c1cc2ccc(C(F)(F)F)cc2n1C(=O)C(=O)OCCO (optimized conformer: 71.43933891676545 kcal/mol)

>  <smiles>  (76) 
NC(=O)c1cc2ccc(C(F)(F)F)cc2n1C(=O)C(=O)OCCO

>  <score_type>  (76) 
oracle

>  <origin>  (76) 
adg

>  <m_score__min__energy>  (76) 
-5.8300000000000001

>  <m_primary>  (76) 
energy

$$$$
76:0
     RDKit          3D

 27 28  0  0  0  0  0  0  0  0999 V2000
  150.0130  158.9910  131.4850 N   0  0  0  0  0  0  0  0  0  0  0  0
  148.6890  159.2650  131.9360 C   0  0  0  0  0  0  0  0  0  0  0  0
  147.9350  160.0000  131.2450 O   0  0  0  0  0  0  0  0  0  0  0  0
  148.2130  158.7020  133.2080 C   0  0  0  0  0  0  0  0  0  0  0  0
  148.7990  159.0060  134.2820 O   0  0  0  0  0  0  0  0  0  0  0  0
  147.0850  157.8150  133.2430 N   0  0  0  0  0  0  0  0  0  0  0  0
  145.7860  158.1290  133.5090 C   0  0  0  0  0  0  0  0  0  0  0  0
  145.2460  159.4920  133.7010 C   0  0  0  0  0  0  0  0  0  0  0  0
  146.0760  160.6410  133.5500 N   0  0  0  0  0  0  0  0  0  0  0  0
  144.0260  159.6470  133.9750 O   0  0  0  0  0  0  0  0  0  0  0  0
  145.0020  156.9770  133.5330 C   0  0  0  0  0  0  0  0  0  0  0  0
  145.8690  155.9390  133.2740 C   0  0  0  0  0  0  0  0  0  0  0  0
  145.6350  154.5690  133.2100 C   0  0  0  0  0  0  0  0  0  0  0  0
  146.7300  153.7240  132.9670 C   0  0  0  0  0  0  0  0  0  0  0  0
  148.0320  154.2580  132.7820 C   0  0  0  0  0  0  0  0  0  0  0  0
  149.2080  153.3360  132.5820 C   0  0  0  0  0  0  0  0  0  0  0  0
  150.3330  154.0890  132.3000 F   0  0  0  0  0  0  0  0  0  0  0  0
  149.4410  152.5870  133.7220 F   0  0  0  0  0  0  0  0  0  0  0  0
  148.9730  152.4660  131.5320 F   0  0  0  0  0  0  0  0  0  0  0  0
  148.2330  155.6540  132.8810 C   0  0  0  0  0  0  0  0  0  0  0  0
  147.1200  156.4720  133.1050 C   0  0  0  0  0  0  0  0  0  0  0  0
  150.7450  158.6470  132.1460 H   0  0  0  0  0  0  0  0  0  0  0  0
  146.5200  160.8670  132.6330 H   0  0  0  0  0  0  0  0  0  0  0  0
  143.9199  156.9109  133.7194 H   0  0  0  0  0  0  0  0  0  0  0  0
  144.6229  154.1601  133.3457 H   0  0  0  0  0  0  0  0  0  0  0  0
  146.5769  152.6357  132.9195 H   0  0  0  0  0  0  0  0  0  0  0  0
  149.2398  156.0865  132.7843 H   0  0  0  0  0  0  0  0  0  0  0  0
  1  2  1  0
  2  3  2  0
  2  4  1  0
  4  5  2  0
  4  6  1  0
  6  7  1  0
  7  8  1  0
  8  9  1  0
  8 10  2  0
  7 11  2  0
 11 12  1  0
 12 13  2  0
 13 14  1  0
 14 15  2  0
 15 16  1  0
 16 17  1  0
 16 18  1  0
 16 19  1  0
 15 20  1  0
 20 21  2  0
 21  6  1  0
 21 12  1  0
  1 22  1  0
  9 23  1  0
 11 24  1  0
 13 25  1  0
 14 26  1  0
 20 27  1  0
M  CHG  2   1  -1   9  -1
M  END
>  <UniqueID>  (77) 
76

>  <SMILES>  (77) 
[NH-]C(=O)C(=O)n1c(C([NH-])=O)cc2ccc(C(F)(F)F)cc21

>  <Energy>  (77) 
66.93281626558569

>  <Genealogy>  (77) 
[NH-]C(=O)C(=O)n1c(C([NH-])=O)cc2ccc(C(F)(F)F)cc21 (protonated)
[NH-]C(=O)C(=O)n1c(C([NH-])=O)cc2ccc(C(F)(F)F)cc21 (3D coordinates assigned)
[NH-]C(=O)C(=O)n1c(C([NH-])=O)cc2ccc(C(F)(F)F)cc21 (optimized conformer: 66.93281626558569 kcal/mol)

>  <smiles>  (77) 
NC(=O)C(=O)n1c(C(N)=O)cc2ccc(C(F)(F)F)cc21

>  <score_type>  (77) 
oracle

>  <origin>  (77) 
adg

>  <m_score__min__energy>  (77) 
-5.3700000000000001

>  <m_primary>  (77) 
energy

$$$$
77:0
     RDKit          3D

 42 43  0  0  0  0  0  0  0  0999 V2000
  139.5750  158.6360  132.2670 C   0  0  0  0  0  0  0  0  0  0  0  0
  140.2460  159.3330  133.2940 O   0  0  0  0  0  0  0  0  0  0  0  0
  140.2170  158.5930  134.5030 C   0  0  0  0  0  0  0  0  0  0  0  0
  140.7730  157.1860  134.2690 C   0  0  0  0  0  0  0  0  0  0  0  0
  141.9290  156.9250  135.1430 N   0  0  0  0  0  0  0  0  0  0  0  0
  141.6970  156.7000  136.5750 C   0  0  0  0  0  0  0  0  0  0  0  0
  143.2530  156.8270  134.5610 C   0  0  0  0  0  0  0  0  0  0  0  0
  144.1370  156.1430  135.1480 O   0  0  0  0  0  0  0  0  0  0  0  0
  143.6350  157.5050  133.3000 C   0  0  0  0  0  0  0  0  0  0  0  0
  142.9410  157.3610  132.2590 O   0  0  0  0  0  0  0  0  0  0  0  0
  144.8420  158.2860  133.2330 N   0  0  0  0  0  0  0  0  0  0  0  0
  144.9660  159.6290  133.4290 C   0  0  0  0  0  0  0  0  0  0  0  0
  143.8530  160.5840  133.6020 C   0  0  0  0  0  0  0  0  0  0  0  0
  142.5270  160.2590  133.1900 N   0  0  0  0  0  0  0  0  0  0  0  0
  144.0870  161.7260  134.0800 O   0  0  0  0  0  0  0  0  0  0  0  0
  146.3070  160.0040  133.4290 C   0  0  0  0  0  0  0  0  0  0  0  0
  147.0100  158.8390  133.2200 C   0  0  0  0  0  0  0  0  0  0  0  0
  148.3840  158.6220  133.1470 C   0  0  0  0  0  0  0  0  0  0  0  0
  148.8350  157.3030  132.9700 C   0  0  0  0  0  0  0  0  0  0  0  0
  147.9110  156.2310  132.8910 C   0  0  0  0  0  0  0  0  0  0  0  0
  148.3910  154.8220  132.6960 C   0  0  0  0  0  0  0  0  0  0  0  0
  146.5270  156.4890  132.9630 C   0  0  0  0  0  0  0  0  0  0  0  0
  146.1040  157.8150  133.1110 C   0  0  0  0  0  0  0  0  0  0  0  0
  138.8771  157.9111  132.7112 H   0  0  0  0  0  0  0  0  0  0  0  0
  139.0154  159.3497  131.6445 H   0  0  0  0  0  0  0  0  0  0  0  0
  140.3094  158.1039  131.6445 H   0  0  0  0  0  0  0  0  0  0  0  0
  140.8299  159.1059  135.2588 H   0  0  0  0  0  0  0  0  0  0  0  0
  139.1776  158.5167  134.8548 H   0  0  0  0  0  0  0  0  0  0  0  0
  139.9861  156.4478  134.4828 H   0  0  0  0  0  0  0  0  0  0  0  0
  141.0998  157.1073  133.2216 H   0  0  0  0  0  0  0  0  0  0  0  0
  142.3653  157.3481  137.1610 H   0  0  0  0  0  0  0  0  0  0  0  0
  140.6507  156.9364  136.8185 H   0  0  0  0  0  0  0  0  0  0  0  0
  141.9013  155.6469  136.8185 H   0  0  0  0  0  0  0  0  0  0  0  0
  142.3300  159.4050  132.6220 H   0  0  0  0  0  0  0  0  0  0  0  0
  141.7450  160.9260  133.3700 H   0  0  0  0  0  0  0  0  0  0  0  0
  146.7171  161.0154  133.5666 H   0  0  0  0  0  0  0  0  0  0  0  0
  149.0946  159.4580  133.2256 H   0  0  0  0  0  0  0  0  0  0  0  0
  149.9135  157.1008  132.8921 H   0  0  0  0  0  0  0  0  0  0  0  0
  148.5517  154.3504  133.6767 H   0  0  0  0  0  0  0  0  0  0  0  0
  147.6364  154.2520  132.1342 H   0  0  0  0  0  0  0  0  0  0  0  0
  149.3367  154.8313  132.1342 H   0  0  0  0  0  0  0  0  0  0  0  0
  145.7971  155.6681  132.9043 H   0  0  0  0  0  0  0  0  0  0  0  0
  1  2  1  0
  2  3  1  0
  3  4  1  0
  4  5  1  0
  5  6  1  0
  5  7  1  0
  7  8  2  0
  7  9  1  0
  9 10  2  0
  9 11  1  0
 11 12  1  0
 12 13  1  0
 13 14  1  0
 13 15  2  0
 12 16  2  0
 16 17  1  0
 17 18  2  0
 18 19  1  0
 19 20  2  0
 20 21  1  0
 20 22  1  0
 22 23  2  0
 23 11  1  0
 23 17  1  0
  1 24  1  0
  1 25  1  0
  1 26  1  0
  3 27  1  0
  3 28  1  0
  4 29  1  0
  4 30  1  0
  6 31  1  0
  6 32  1  0
  6 33  1  0
 14 34  1  0
 14 35  1  0
 16 36  1  0
 18 37  1  0
 19 38  1  0
 21 39  1  0
 21 40  1  0
 21 41  1  0
 22 42  1  0
M  END
>  <UniqueID>  (78) 
77

>  <SMILES>  (78) 
COCCN(C)C(=O)C(=O)n1c(C(N)=O)cc2ccc(C)cc21

>  <Energy>  (78) 
81.1049656661956

>  <Genealogy>  (78) 
COCCN(C)C(=O)C(=O)n1c(C(N)=O)cc2ccc(C)cc21 (3D coordinates assigned)
COCCN(C)C(=O)C(=O)n1c(C(N)=O)cc2ccc(C)cc21 (optimized conformer: 81.1049656661956 kcal/mol)

>  <smiles>  (78) 
COCCN(C)C(=O)C(=O)n1c(C(N)=O)cc2ccc(C)cc21

>  <score_type>  (78) 
oracle

>  <origin>  (78) 
adg

>  <m_score__min__energy>  (78) 
-6.3099999999999996

>  <m_primary>  (78) 
energy

$$$$
78:0
     RDKit          3D

 36 38  0  0  0  0  0  0  0  0999 V2000
  143.2950  161.5540  133.7380 N   0  0  0  0  0  0  0  0  0  0  0  0
  144.7110  161.5980  133.8920 C   0  0  0  0  0  0  0  0  0  0  0  0
  145.2520  162.6520  134.3200 O   0  0  0  0  0  0  0  0  0  0  0  0
  145.5430  160.4090  133.6140 C   0  0  0  0  0  0  0  0  0  0  0  0
  146.9190  160.4680  133.4080 C   0  0  0  0  0  0  0  0  0  0  0  0
  147.3250  159.1610  133.2740 C   0  0  0  0  0  0  0  0  0  0  0  0
  148.5910  158.6360  133.0400 C   0  0  0  0  0  0  0  0  0  0  0  0
  148.7160  157.2440  132.9130 C   0  0  0  0  0  0  0  0  0  0  0  0
  147.5780  156.4000  133.0130 C   0  0  0  0  0  0  0  0  0  0  0  0
  147.7190  154.9290  132.8640 C   0  0  0  0  0  0  0  0  0  0  0  0
  146.5930  154.0940  132.9370 C   0  0  0  0  0  0  0  0  0  0  0  0
  146.7200  152.7080  132.7980 C   0  0  0  0  0  0  0  0  0  0  0  0
  145.5990  151.9480  132.8820 F   0  0  0  0  0  0  0  0  0  0  0  0
  147.9870  152.1220  132.5810 C   0  0  0  0  0  0  0  0  0  0  0  0
  148.1290  150.6500  132.4320 C   0  0  0  0  0  0  0  0  0  0  0  0
  147.2330  149.9690  131.8680 O   0  0  0  0  0  0  0  0  0  0  0  0
  149.2570  149.9920  132.9130 O   0  0  0  0  0  0  0  0  0  0  0  0
  149.1160  152.9660  132.5080 C   0  0  0  0  0  0  0  0  0  0  0  0
  150.3580  152.4610  132.2950 F   0  0  0  0  0  0  0  0  0  0  0  0
  148.9790  154.3490  132.6490 C   0  0  0  0  0  0  0  0  0  0  0  0
  146.3060  156.9740  133.2510 C   0  0  0  0  0  0  0  0  0  0  0  0
  146.2160  158.3630  133.3920 C   0  0  0  0  0  0  0  0  0  0  0  0
  145.1120  159.1160  133.5970 N   0  0  0  0  0  0  0  0  0  0  0  0
  143.7590  158.6410  133.6760 C   0  0  0  0  0  0  0  0  0  0  0  0
  143.2180  158.1240  132.6610 O   0  0  0  0  0  0  0  0  0  0  0  0
  143.0470  158.7800  134.8760 O   0  0  0  0  0  0  0  0  0  0  0  0
  141.6590  158.9330  134.9720 C   0  0  0  0  0  0  0  0  0  0  0  0
  141.1250  160.0670  135.0990 O   0  0  0  0  0  0  0  0  0  0  0  0
  142.7740  160.6530  133.8160 H   0  0  0  0  0  0  0  0  0  0  0  0
  147.5480  161.3693  133.3622 H   0  0  0  0  0  0  0  0  0  0  0  0
  149.4694  159.2929  132.9568 H   0  0  0  0  0  0  0  0  0  0  0  0
  149.7070  156.8014  132.7339 H   0  0  0  0  0  0  0  0  0  0  0  0
  145.5993  154.5347  133.1054 H   0  0  0  0  0  0  0  0  0  0  0  0
  149.8698  154.9917  132.5908 H   0  0  0  0  0  0  0  0  0  0  0  0
  145.4085  156.3421  133.3235 H   0  0  0  0  0  0  0  0  0  0  0  0
  141.0178  158.0400  134.9356 H   0  0  0  0  0  0  0  0  0  0  0  0
  1  2  1  0
  2  3  2  0
  2  4  1  0
  4  5  2  0
  5  6  1  0
  6  7  2  0
  7  8  1  0
  8  9  2  0
  9 10  1  0
 10 11  2  0
 11 12  1  0
 12 13  1  0
 12 14  2  0
 14 15  1  0
 15 16  2  0
 15 17  1  0
 14 18  1  0
 18 19  1  0
 18 20  2  0
  9 21  1  0
 21 22  2  0
 22 23  1  0
 23 24  1  0
 24 25  2  0
 24 26  1  0
 26 27  1  0
 27 28  2  0
 23  4  1  0
 22  6  1  0
 20 10  1  0
  1 29  1  0
  5 30  1  0
  7 31  1  0
  8 32  1  0
 11 33  1  0
 20 34  1  0
 21 35  1  0
 27 36  1  0
M  CHG  2   1  -1  17  -1
M  END
>  <UniqueID>  (79) 
78

>  <SMILES>  (79) 
[NH-]C(=O)c1cc2ccc(-c3cc(F)c(C(=O)[O-])c(F)c3)cc2n1C(=O)OC=O

>  <Energy>  (79) 
87.86822370766414

>  <Genealogy>  (79) 
[NH-]C(=O)c1cc2ccc(-c3cc(F)c(C(=O)[O-])c(F)c3)cc2n1C(=O)OC=O (protonated)
[NH-]C(=O)c1cc2ccc(-c3cc(F)c(C(=O)[O-])c(F)c3)cc2n1C(=O)OC=O (3D coordinates assigned)
[NH-]C(=O)c1cc2ccc(-c3cc(F)c(C(=O)[O-])c(F)c3)cc2n1C(=O)OC=O (optimized conformer: 87.86822370766414 kcal/mol)

>  <smiles>  (79) 
NC(=O)c1cc2ccc(-c3cc(F)c(C(=O)O)c(F)c3)cc2n1C(=O)OC=O

>  <score_type>  (79) 
oracle

>  <origin>  (79) 
adg

>  <m_score__min__energy>  (79) 
-7.1900000000000004

>  <m_primary>  (79) 
energy

$$$$
79:0
     RDKit          3D

 36 37  0  0  0  0  0  0  0  0999 V2000
  150.0820  160.0150  129.5150 C   0  0  0  0  0  0  0  0  0  0  0  0
  149.1570  160.4540  130.5650 N   0  0  0  0  0  0  0  0  0  0  0  0
  148.8850  161.8840  130.7510 C   0  0  0  0  0  0  0  0  0  0  0  0
  148.5160  159.4580  131.3930 C   0  0  0  0  0  0  0  0  0  0  0  0
  148.7140  158.2340  131.1600 O   0  0  0  0  0  0  0  0  0  0  0  0
  147.6130  159.8290  132.5400 C   0  0  0  0  0  0  0  0  0  0  0  0
  146.4910  158.8960  132.6460 N   0  0  0  0  0  0  0  0  0  0  0  0
  145.2060  159.2230  133.2120 C   0  0  0  0  0  0  0  0  0  0  0  0
  144.8440  160.5620  133.5190 C   0  0  0  0  0  0  0  0  0  0  0  0
  143.5900  160.8560  134.0790 C   0  0  0  0  0  0  0  0  0  0  0  0
  142.7180  159.7990  134.3200 C   0  0  0  0  0  0  0  0  0  0  0  0
  141.4600  159.8000  134.8770 C   0  0  0  0  0  0  0  0  0  0  0  0
  141.0610  158.4670  134.8880 C   0  0  0  0  0  0  0  0  0  0  0  0
  139.7210  158.0240  135.3280 C   0  0  0  0  0  0  0  0  0  0  0  0
  139.4290  157.8360  136.7110 N   0  0  0  0  0  0  0  0  0  0  0  0
  138.8390  157.7600  134.4690 O   0  0  0  0  0  0  0  0  0  0  0  0
  142.0370  157.6690  134.3670 N   0  0  0  0  0  0  0  0  0  0  0  0
  142.0520  156.2350  134.2910 C   0  0  0  0  0  0  0  0  0  0  0  0
  141.2180  155.6270  133.5700 O   0  0  0  0  0  0  0  0  0  0  0  0
  143.0040  155.5050  134.9910 O   0  0  0  0  0  0  0  0  0  0  0  0
  143.0440  158.5030  134.0210 C   0  0  0  0  0  0  0  0  0  0  0  0
  144.2940  158.1790  133.4800 C   0  0  0  0  0  0  0  0  0  0  0  0
  150.9841  159.5869  129.9765 H   0  0  0  0  0  0  0  0  0  0  0  0
  149.5928  159.2530  128.8905 H   0  0  0  0  0  0  0  0  0  0  0  0
  150.3629  160.8758  128.8905 H   0  0  0  0  0  0  0  0  0  0  0  0
  148.8416  162.1122  131.8262 H   0  0  0  0  0  0  0  0  0  0  0  0
  149.6871  162.4737  130.2831 H   0  0  0  0  0  0  0  0  0  0  0  0
  147.9224  162.1380  130.2831 H   0  0  0  0  0  0  0  0  0  0  0  0
  148.1910  159.8045  133.4756 H   0  0  0  0  0  0  0  0  0  0  0  0
  147.2142  160.8383  132.3602 H   0  0  0  0  0  0  0  0  0  0  0  0
  146.6320  157.9360  132.2590 H   0  0  0  0  0  0  0  0  0  0  0  0
  145.5537  161.3775  133.3159 H   0  0  0  0  0  0  0  0  0  0  0  0
  143.3058  161.8910  134.3198 H   0  0  0  0  0  0  0  0  0  0  0  0
  140.8907  160.6696  135.2371 H   0  0  0  0  0  0  0  0  0  0  0  0
  139.1040  158.6320  137.3030 H   0  0  0  0  0  0  0  0  0  0  0  0
  144.5600  157.1329  133.2681 H   0  0  0  0  0  0  0  0  0  0  0  0
  1  2  1  0
  2  3  1  0
  2  4  1  0
  4  5  2  0
  4  6  1  0
  6  7  1  0
  7  8  1  0
  8  9  2  0
  9 10  1  0
 10 11  2  0
 11 12  1  0
 12 13  2  0
 13 14  1  0
 14 15  1  0
 14 16  2  0
 13 17  1  0
 17 18  1  0
 18 19  2  0
 18 20  1  0
 17 21  1  0
 21 22  2  0
 22  8  1  0
 21 11  1  0
  1 23  1  0
  1 24  1  0
  1 25  1  0
  3 26  1  0
  3 27  1  0
  3 28  1  0
  6 29  1  0
  6 30  1  0
  7 31  1  0
  9 32  1  0
 10 33  1  0
 12 34  1  0
 15 35  1  0
 22 36  1  0
M  CHG  2  15  -1  20  -1
M  END
>  <UniqueID>  (80) 
79

>  <SMILES>  (80) 
CN(C)C(=O)CNc1ccc2cc(C([NH-])=O)n(C(=O)[O-])c2c1

>  <Energy>  (80) 
72.75638963224179

>  <Genealogy>  (80) 
CN(C)C(=O)CNc1ccc2cc(C([NH-])=O)n(C(=O)[O-])c2c1 (protonated)
CN(C)C(=O)CNc1ccc2cc(C([NH-])=O)n(C(=O)[O-])c2c1 (3D coordinates assigned)
CN(C)C(=O)CNc1ccc2cc(C([NH-])=O)n(C(=O)[O-])c2c1 (optimized conformer: 72.75638963224179 kcal/mol)

>  <smiles>  (80) 
CN(C)C(=O)CNc1ccc2cc(C(N)=O)n(C(=O)O)c2c1

>  <score_type>  (80) 
oracle

>  <origin>  (80) 
adg

>  <m_score__min__energy>  (80) 
-6.8700000000000001

>  <m_primary>  (80) 
energy

$$$$
80:0
     RDKit          3D

 33 34  0  0  0  0  0  0  0  0999 V2000
  148.9780  153.7620  132.5380 C   0  0  0  0  0  0  0  0  0  0  0  0
  148.6520  154.9170  132.6490 C   0  0  0  0  0  0  0  0  0  0  0  0
  148.2630  156.2970  132.7810 C   0  0  0  0  0  0  0  0  0  0  0  0
  149.2230  157.3190  132.6040 C   0  0  0  0  0  0  0  0  0  0  0  0
  148.8520  158.6710  132.7160 C   0  0  0  0  0  0  0  0  0  0  0  0
  147.5230  158.9590  133.0130 C   0  0  0  0  0  0  0  0  0  0  0  0
  146.8890  160.1740  133.1490 C   0  0  0  0  0  0  0  0  0  0  0  0
  145.5590  159.8680  133.4290 C   0  0  0  0  0  0  0  0  0  0  0  0
  144.5350  160.8900  133.7280 C   0  0  0  0  0  0  0  0  0  0  0  0
  143.1670  160.6780  133.3860 N   0  0  0  0  0  0  0  0  0  0  0  0
  144.8640  161.9440  134.3350 O   0  0  0  0  0  0  0  0  0  0  0  0
  145.3760  158.5170  133.4600 N   0  0  0  0  0  0  0  0  0  0  0  0
  144.1400  157.8030  133.6150 C   0  0  0  0  0  0  0  0  0  0  0  0
  143.9470  157.0980  134.6430 O   0  0  0  0  0  0  0  0  0  0  0  0
  143.1680  157.8710  132.6100 O   0  0  0  0  0  0  0  0  0  0  0  0
  141.8060  157.5020  132.8140 C   0  0  0  0  0  0  0  0  0  0  0  0
  140.9880  158.7010  133.1730 C   0  0  0  0  0  0  0  0  0  0  0  0
  140.7880  159.6040  132.3150 O   0  0  0  0  0  0  0  0  0  0  0  0
  140.4290  158.7950  134.4510 O   0  0  0  0  0  0  0  0  0  0  0  0
  141.1570  159.2830  135.5720 C   0  0  0  0  0  0  0  0  0  0  0  0
  146.5870  157.9750  133.2050 C   0  0  0  0  0  0  0  0  0  0  0  0
  146.9240  156.6220  133.0800 C   0  0  0  0  0  0  0  0  0  0  0  0
  149.2755  152.7079  132.4367 H   0  0  0  0  0  0  0  0  0  0  0  0
  150.2666  157.0554  132.3773 H   0  0  0  0  0  0  0  0  0  0  0  0
  149.5887  159.4753  132.5734 H   0  0  0  0  0  0  0  0  0  0  0  0
  147.3376  161.1741  133.0562 H   0  0  0  0  0  0  0  0  0  0  0  0
  142.9010  160.0270  132.6150 H   0  0  0  0  0  0  0  0  0  0  0  0
  141.4092  157.0563  131.8899 H   0  0  0  0  0  0  0  0  0  0  0  0
  141.7534  156.7751  133.6379 H   0  0  0  0  0  0  0  0  0  0  0  0
  140.6659  158.9538  136.4996 H   0  0  0  0  0  0  0  0  0  0  0  0
  142.1840  158.8902  135.5415 H   0  0  0  0  0  0  0  0  0  0  0  0
  141.1838  160.3823  135.5415 H   0  0  0  0  0  0  0  0  0  0  0  0
  146.1663  155.8354  133.2112 H   0  0  0  0  0  0  0  0  0  0  0  0
  1  2  3  0
  2  3  1  0
  3  4  2  0
  4  5  1  0
  5  6  2  0
  6  7  1  0
  7  8  2  0
  8  9  1  0
  9 10  1  0
  9 11  2  0
  8 12  1  0
 12 13  1  0
 13 14  2  0
 13 15  1  0
 15 16  1  0
 16 17  1  0
 17 18  2  0
 17 19  1  0
 19 20  1  0
 12 21  1  0
 21 22  2  0
 22  3  1  0
 21  6  1  0
  1 23  1  0
  4 24  1  0
  5 25  1  0
  7 26  1  0
 10 27  1  0
 16 28  1  0
 16 29  1  0
 20 30  1  0
 20 31  1  0
 20 32  1  0
 22 33  1  0
M  CHG  1  10  -1
M  END
>  <UniqueID>  (81) 
80

>  <SMILES>  (81) 
C#Cc1ccc2cc(C([NH-])=O)n(C(=O)OCC(=O)OC)c2c1

>  <Energy>  (81) 
66.01632697943299

>  <Genealogy>  (81) 
C#Cc1ccc2cc(C([NH-])=O)n(C(=O)OCC(=O)OC)c2c1 (protonated)
C#Cc1ccc2cc(C([NH-])=O)n(C(=O)OCC(=O)OC)c2c1 (3D coordinates assigned)
C#Cc1ccc2cc(C([NH-])=O)n(C(=O)OCC(=O)OC)c2c1 (optimized conformer: 66.01632697943299 kcal/mol)

>  <smiles>  (81) 
C#Cc1ccc2cc(C(N)=O)n(C(=O)OCC(=O)OC)c2c1

>  <score_type>  (81) 
oracle

>  <origin>  (81) 
adg

>  <m_score__min__energy>  (81) 
-6.21

>  <m_primary>  (81) 
energy

$$$$
81:0
     RDKit          3D

 38 39  0  0  0  0  0  0  0  0999 V2000
  149.5800  159.8760  129.8690 C   0  0  0  0  0  0  0  0  0  0  0  0
  148.5560  159.4790  130.7520 O   0  0  0  0  0  0  0  0  0  0  0  0
  148.3120  160.5130  131.6810 C   0  0  0  0  0  0  0  0  0  0  0  0
  147.2260  160.0880  132.6130 C   0  0  0  0  0  0  0  0  0  0  0  0
  146.7330  160.9260  133.4160 O   0  0  0  0  0  0  0  0  0  0  0  0
  146.7510  158.7700  132.5550 O   0  0  0  0  0  0  0  0  0  0  0  0
  147.3900  157.6600  133.1240 C   0  0  0  0  0  0  0  0  0  0  0  0
  148.3530  157.8100  133.9270 O   0  0  0  0  0  0  0  0  0  0  0  0
  146.9320  156.3470  132.7750 N   0  0  0  0  0  0  0  0  0  0  0  0
  147.5130  155.1290  133.2670 C   0  0  0  0  0  0  0  0  0  0  0  0
  148.4350  155.1590  134.1270 O   0  0  0  0  0  0  0  0  0  0  0  0
  147.0290  153.8610  132.7950 N   0  0  0  0  0  0  0  0  0  0  0  0
  145.7320  153.4960  132.5910 C   0  0  0  0  0  0  0  0  0  0  0  0
  144.5570  154.3850  132.6860 C   0  0  0  0  0  0  0  0  0  0  0  0
  143.3550  154.1090  131.9650 N   0  0  0  0  0  0  0  0  0  0  0  0
  144.5980  155.3830  133.4560 O   0  0  0  0  0  0  0  0  0  0  0  0
  145.6510  152.1470  132.2480 C   0  0  0  0  0  0  0  0  0  0  0  0
  146.9510  151.6940  132.2410 C   0  0  0  0  0  0  0  0  0  0  0  0
  147.4560  150.4220  131.9890 C   0  0  0  0  0  0  0  0  0  0  0  0
  148.8430  150.2280  132.1050 C   0  0  0  0  0  0  0  0  0  0  0  0
  149.6900  151.2970  132.4800 C   0  0  0  0  0  0  0  0  0  0  0  0
  151.0970  151.0820  132.6150 N   0  0  0  0  0  0  0  0  0  0  0  0
  149.1440  152.5750  132.7320 C   0  0  0  0  0  0  0  0  0  0  0  0
  147.7630  152.7470  132.5820 C   0  0  0  0  0  0  0  0  0  0  0  0
  150.4523  160.2142  130.4475 H   0  0  0  0  0  0  0  0  0  0  0  0
  149.8682  159.0244  129.2351 H   0  0  0  0  0  0  0  0  0  0  0  0
  149.2188  160.6993  129.2351 H   0  0  0  0  0  0  0  0  0  0  0  0
  149.2289  160.7177  132.2532 H   0  0  0  0  0  0  0  0  0  0  0  0
  148.0059  161.4250  131.1476 H   0  0  0  0  0  0  0  0  0  0  0  0
  146.1040  156.2790  132.1420 H   0  0  0  0  0  0  0  0  0  0  0  0
  142.5620  154.7890  131.9900 H   0  0  0  0  0  0  0  0  0  0  0  0
  143.2120  153.1970  131.4800 H   0  0  0  0  0  0  0  0  0  0  0  0
  144.7417  151.5678  132.0295 H   0  0  0  0  0  0  0  0  0  0  0  0
  146.7896  149.5934  131.7075 H   0  0  0  0  0  0  0  0  0  0  0  0
  149.2737  149.2363  131.9024 H   0  0  0  0  0  0  0  0  0  0  0  0
  151.4720  150.4540  133.3600 H   0  0  0  0  0  0  0  0  0  0  0  0
  151.7730  151.5510  131.9730 H   0  0  0  0  0  0  0  0  0  0  0  0
  149.7872  153.4132  133.0381 H   0  0  0  0  0  0  0  0  0  0  0  0
  1  2  1  0
  2  3  1  0
  3  4  1  0
  4  5  2  0
  4  6  1  0
  6  7  1  0
  7  8  2  0
  7  9  1  0
  9 10  1  0
 10 11  2  0
 10 12  1  0
 12 13  1  0
 13 14  1  0
 14 15  1  0
 14 16  2  0
 13 17  2  0
 17 18  1  0
 18 19  2  0
 19 20  1  0
 20 21  2  0
 21 22  1  0
 21 23  1  0
 23 24  2  0
 24 12  1  0
 24 18  1  0
  1 25  1  0
  1 26  1  0
  1 27  1  0
  3 28  1  0
  3 29  1  0
  9 30  1  0
 15 31  1  0
 15 32  1  0
 17 33  1  0
 19 34  1  0
 20 35  1  0
 22 36  1  0
 22 37  1  0
 23 38  1  0
M  END
>  <UniqueID>  (82) 
81

>  <SMILES>  (82) 
COCC(=O)OC(=O)NC(=O)n1c(C(N)=O)cc2ccc(N)cc21

>  <Energy>  (82) 
77.64399828097376

>  <Genealogy>  (82) 
COCC(=O)OC(=O)NC(=O)n1c(C(N)=O)cc2ccc(N)cc21 (3D coordinates assigned)
COCC(=O)OC(=O)NC(=O)n1c(C(N)=O)cc2ccc(N)cc21 (optimized conformer: 77.64399828097376 kcal/mol)

>  <smiles>  (82) 
COCC(=O)OC(=O)NC(=O)n1c(C(N)=O)cc2ccc(N)cc21

>  <score_type>  (82) 
oracle

>  <origin>  (82) 
adg

>  <m_score__min__energy>  (82) 
-6.96

>  <m_primary>  (82) 
energy

$$$$
82:0
     RDKit          3D

 47 49  0  0  0  0  0  0  0  0999 V2000
  149.4620  151.8320  133.9420 C   0  0  0  0  0  0  0  0  0  0  0  0
  149.0290  152.4240  132.5880 C   0  0  0  0  0  0  0  0  0  0  0  0
  149.1260  151.3630  131.4750 C   0  0  0  0  0  0  0  0  0  0  0  0
  149.9580  153.5960  132.2390 C   0  0  0  0  0  0  0  0  0  0  0  0
  147.6960  152.9500  132.6680 O   0  0  0  0  0  0  0  0  0  0  0  0
  147.2810  154.0570  133.4250 C   0  0  0  0  0  0  0  0  0  0  0  0
  148.0230  154.5410  134.3220 O   0  0  0  0  0  0  0  0  0  0  0  0
  145.9890  154.6350  133.1810 N   0  0  0  0  0  0  0  0  0  0  0  0
  144.8200  153.9730  132.9450 C   0  0  0  0  0  0  0  0  0  0  0  0
  144.6850  152.5160  132.7340 C   0  0  0  0  0  0  0  0  0  0  0  0
  145.5620  151.8240  131.8420 N   0  0  0  0  0  0  0  0  0  0  0  0
  143.8130  151.8630  133.3660 O   0  0  0  0  0  0  0  0  0  0  0  0
  143.7640  154.8760  132.8320 C   0  0  0  0  0  0  0  0  0  0  0  0
  144.3260  156.1190  133.0070 C   0  0  0  0  0  0  0  0  0  0  0  0
  143.7330  157.3790  132.9950 C   0  0  0  0  0  0  0  0  0  0  0  0
  144.5530  158.4960  133.2240 C   0  0  0  0  0  0  0  0  0  0  0  0
  145.9380  158.3330  133.4770 C   0  0  0  0  0  0  0  0  0  0  0  0
  146.8120  159.5370  133.6930 C   0  0  0  0  0  0  0  0  0  0  0  0
  147.9070  159.5590  132.6760 C   0  0  0  0  0  0  0  0  0  0  0  0
  148.9420  158.6490  132.5830 C   0  0  0  0  0  0  0  0  0  0  0  0
  149.7250  159.0800  131.5330 C   0  0  0  0  0  0  0  0  0  0  0  0
  149.1160  160.2270  131.0580 C   0  0  0  0  0  0  0  0  0  0  0  0
  149.5880  161.0500  129.9400 C   0  0  0  0  0  0  0  0  0  0  0  0
  149.9650  160.5030  128.8700 O   0  0  0  0  0  0  0  0  0  0  0  0
  149.6230  162.4340  130.0540 O   0  0  0  0  0  0  0  0  0  0  0  0
  148.0370  160.4900  131.7590 O   0  0  0  0  0  0  0  0  0  0  0  0
  146.5070  157.0400  133.4690 C   0  0  0  0  0  0  0  0  0  0  0  0
  145.6700  155.9470  133.2170 C   0  0  0  0  0  0  0  0  0  0  0  0
  149.0268  152.4271  134.7584 H   0  0  0  0  0  0  0  0  0  0  0  0
  149.1094  150.7928  134.0174 H   0  0  0  0  0  0  0  0  0  0  0  0
  150.5592  151.8533  134.0174 H   0  0  0  0  0  0  0  0  0  0  0  0
  149.2173  150.3645  131.9273 H   0  0  0  0  0  0  0  0  0  0  0  0
  148.2206  151.4018  130.8516 H   0  0  0  0  0  0  0  0  0  0  0  0
  150.0094  151.5653  130.8516 H   0  0  0  0  0  0  0  0  0  0  0  0
  150.3262  154.0605  133.1656 H   0  0  0  0  0  0  0  0  0  0  0  0
  150.8104  153.2256  131.6507 H   0  0  0  0  0  0  0  0  0  0  0  0
  149.4027  154.3414  131.6507 H   0  0  0  0  0  0  0  0  0  0  0  0
  146.2620  152.3370  131.2630 H   0  0  0  0  0  0  0  0  0  0  0  0
  145.4830  150.7890  131.7290 H   0  0  0  0  0  0  0  0  0  0  0  0
  142.7056  154.6436  132.6429 H   0  0  0  0  0  0  0  0  0  0  0  0
  142.6547  157.4959  132.8116 H   0  0  0  0  0  0  0  0  0  0  0  0
  144.1167  159.5056  133.2069 H   0  0  0  0  0  0  0  0  0  0  0  0
  146.2059  160.4499  133.5963 H   0  0  0  0  0  0  0  0  0  0  0  0
  147.2531  159.4887  134.6995 H   0  0  0  0  0  0  0  0  0  0  0  0
  149.1073  157.7642  133.2153 H   0  0  0  0  0  0  0  0  0  0  0  0
  150.6434  158.6092  131.1523 H   0  0  0  0  0  0  0  0  0  0  0  0
  147.5813  156.8958  133.6562 H   0  0  0  0  0  0  0  0  0  0  0  0
  1  2  1  0
  2  3  1  0
  2  4  1  0
  2  5  1  0
  5  6  1  0
  6  7  2  0
  6  8  1  0
  8  9  1  0
  9 10  1  0
 10 11  1  0
 10 12  2  0
  9 13  2  0
 13 14  1  0
 14 15  2  0
 15 16  1  0
 16 17  2  0
 17 18  1  0
 18 19  1  0
 19 20  2  0
 20 21  1  0
 21 22  2  0
 22 23  1  0
 23 24  2  0
 23 25  1  0
 22 26  1  0
 17 27  1  0
 27 28  2  0
 28  8  1  0
 28 14  1  0
 26 19  1  0
  1 29  1  0
  1 30  1  0
  1 31  1  0
  3 32  1  0
  3 33  1  0
  3 34  1  0
  4 35  1  0
  4 36  1  0
  4 37  1  0
 11 38  1  0
 11 39  1  0
 13 40  1  0
 15 41  1  0
 16 42  1  0
 18 43  1  0
 18 44  1  0
 20 45  1  0
 21 46  1  0
 27 47  1  0
M  CHG  1  25  -1
M  END
>  <UniqueID>  (83) 
82

>  <SMILES>  (83) 
CC(C)(C)OC(=O)n1c(C(N)=O)cc2ccc(Cc3ccc(C(=O)[O-])o3)cc21

>  <Energy>  (83) 
105.32690666399165

>  <Genealogy>  (83) 
CC(C)(C)OC(=O)n1c(C(N)=O)cc2ccc(Cc3ccc(C(=O)[O-])o3)cc21 (protonated)
CC(C)(C)OC(=O)n1c(C(N)=O)cc2ccc(Cc3ccc(C(=O)[O-])o3)cc21 (3D coordinates assigned)
CC(C)(C)OC(=O)n1c(C(N)=O)cc2ccc(Cc3ccc(C(=O)[O-])o3)cc21 (optimized conformer: 105.32690666399165 kcal/mol)

>  <smiles>  (83) 
CC(C)(C)OC(=O)n1c(C(N)=O)cc2ccc(Cc3ccc(C(=O)O)o3)cc21

>  <score_type>  (83) 
oracle

>  <origin>  (83) 
adg

>  <m_score__min__energy>  (83) 
-8.7200000000000006

>  <m_primary>  (83) 
energy

$$$$
83:0
     RDKit          3D

 43 44  0  0  0  0  0  0  0  0999 V2000
  150.2350  160.0650  130.3400 C   0  0  0  0  0  0  0  0  0  0  0  0
  149.4860  159.3430  131.3730 N   0  0  0  0  0  0  0  0  0  0  0  0
  150.0000  158.0650  131.8800 C   0  0  0  0  0  0  0  0  0  0  0  0
  148.3060  159.9610  131.9360 C   0  0  0  0  0  0  0  0  0  0  0  0
  148.1150  161.1950  131.7580 O   0  0  0  0  0  0  0  0  0  0  0  0
  147.2940  159.1980  132.7080 C   0  0  0  0  0  0  0  0  0  0  0  0
  147.5770  158.0620  133.1680 O   0  0  0  0  0  0  0  0  0  0  0  0
  145.9750  159.7440  132.8940 N   0  0  0  0  0  0  0  0  0  0  0  0
  144.9080  159.0540  133.5650 C   0  0  0  0  0  0  0  0  0  0  0  0
  145.1230  157.9680  134.1680 O   0  0  0  0  0  0  0  0  0  0  0  0
  143.5810  159.6010  133.5450 N   0  0  0  0  0  0  0  0  0  0  0  0
  143.2100  160.9060  133.6740 C   0  0  0  0  0  0  0  0  0  0  0  0
  144.1240  162.0670  133.7270 C   0  0  0  0  0  0  0  0  0  0  0  0
  145.4830  161.9150  134.1270 N   0  0  0  0  0  0  0  0  0  0  0  0
  143.7100  163.2040  133.3750 O   0  0  0  0  0  0  0  0  0  0  0  0
  141.8220  161.0190  133.6860 C   0  0  0  0  0  0  0  0  0  0  0  0
  141.3490  159.7320  133.5530 C   0  0  0  0  0  0  0  0  0  0  0  0
  140.0440  159.2570  133.5170 C   0  0  0  0  0  0  0  0  0  0  0  0
  139.8490  157.8710  133.4040 C   0  0  0  0  0  0  0  0  0  0  0  0
  140.9540  156.9750  133.3370 C   0  0  0  0  0  0  0  0  0  0  0  0
  140.7430  155.5430  133.2270 N   0  0  0  0  0  0  0  0  0  0  0  0
  139.4010  155.0060  132.9690 C   0  0  0  0  0  0  0  0  0  0  0  0
  141.8660  154.6090  133.3720 C   0  0  0  0  0  0  0  0  0  0  0  0
  142.2680  157.5090  133.3830 C   0  0  0  0  0  0  0  0  0  0  0  0
  142.4300  158.8970  133.4730 C   0  0  0  0  0  0  0  0  0  0  0  0
  150.9484  160.7527  130.8176 H   0  0  0  0  0  0  0  0  0  0  0  0
  150.7826  159.3454  129.7137 H   0  0  0  0  0  0  0  0  0  0  0  0
  149.5360  160.6386  129.7137 H   0  0  0  0  0  0  0  0  0  0  0  0
  149.9947  158.0781  132.9799 H   0  0  0  0  0  0  0  0  0  0  0  0
  149.3620  157.2444  131.5200 H   0  0  0  0  0  0  0  0  0  0  0  0
  151.0285  157.9147  131.5200 H   0  0  0  0  0  0  0  0  0  0  0  0
  145.7690  160.6970  132.5200 H   0  0  0  0  0  0  0  0  0  0  0  0
  146.2420  161.8010  133.4190 H   0  0  0  0  0  0  0  0  0  0  0  0
  141.2290  161.9406  133.7815 H   0  0  0  0  0  0  0  0  0  0  0  0
  139.1887  159.9463  133.5753 H   0  0  0  0  0  0  0  0  0  0  0  0
  138.8252  157.4704  133.3666 H   0  0  0  0  0  0  0  0  0  0  0  0
  138.8967  154.8042  133.9255 H   0  0  0  0  0  0  0  0  0  0  0  0
  138.8168  155.7396  132.3941 H   0  0  0  0  0  0  0  0  0  0  0  0
  139.4841  154.0719  132.3941 H   0  0  0  0  0  0  0  0  0  0  0  0
  142.0678  154.4412  134.4402 H   0  0  0  0  0  0  0  0  0  0  0  0
  141.6116  153.6524  132.8922 H   0  0  0  0  0  0  0  0  0  0  0  0
  142.7602  155.0334  132.8922 H   0  0  0  0  0  0  0  0  0  0  0  0
  143.1438  156.8443  133.3485 H   0  0  0  0  0  0  0  0  0  0  0  0
  1  2  1  0
  2  3  1  0
  2  4  1  0
  4  5  2  0
  4  6  1  0
  6  7  2  0
  6  8  1  0
  8  9  1  0
  9 10  2  0
  9 11  1  0
 11 12  1  0
 12 13  1  0
 13 14  1  0
 13 15  2  0
 12 16  2  0
 16 17  1  0
 17 18  2  0
 18 19  1  0
 19 20  2  0
 20 21  1  0
 21 22  1  0
 21 23  1  0
 20 24  1  0
 24 25  2  0
 25 11  1  0
 25 17  1  0
  1 26  1  0
  1 27  1  0
  1 28  1  0
  3 29  1  0
  3 30  1  0
  3 31  1  0
  8 32  1  0
 14 33  1  0
 16 34  1  0
 18 35  1  0
 19 36  1  0
 22 37  1  0
 22 38  1  0
 22 39  1  0
 23 40  1  0
 23 41  1  0
 23 42  1  0
 24 43  1  0
M  CHG  1  14  -1
M  END
>  <UniqueID>  (84) 
83

>  <SMILES>  (84) 
CN(C)C(=O)C(=O)NC(=O)n1c(C([NH-])=O)cc2ccc(N(C)C)cc21

>  <Energy>  (84) 
83.67721048101733

>  <Genealogy>  (84) 
CN(C)C(=O)C(=O)NC(=O)n1c(C([NH-])=O)cc2ccc(N(C)C)cc21 (protonated)
CN(C)C(=O)C(=O)NC(=O)n1c(C([NH-])=O)cc2ccc(N(C)C)cc21 (3D coordinates assigned)
CN(C)C(=O)C(=O)NC(=O)n1c(C([NH-])=O)cc2ccc(N(C)C)cc21 (optimized conformer: 83.67721048101733 kcal/mol)

>  <smiles>  (84) 
CN(C)C(=O)C(=O)NC(=O)n1c(C(N)=O)cc2ccc(N(C)C)cc21

>  <score_type>  (84) 
oracle

>  <origin>  (84) 
adg

>  <m_score__min__energy>  (84) 
-7.6100000000000003

>  <m_primary>  (84) 
energy

$$$$
84:0
     RDKit          3D

 54 57  0  0  0  0  0  0  0  0999 V2000
  137.3300  160.0870  130.7340 C   0  0  0  0  0  0  0  0  0  0  0  0
  138.7270  159.4710  130.8690 C   0  0  0  0  0  0  0  0  0  0  0  0
  139.4350  159.8180  132.1450 C   0  0  0  0  0  0  0  0  0  0  0  0
  139.4450  158.4490  132.6930 N   0  0  0  0  0  0  0  0  0  0  0  0
  139.9100  157.7850  133.8690 C   0  0  0  0  0  0  0  0  0  0  0  0
  139.6040  158.3100  135.1470 C   0  0  0  0  0  0  0  0  0  0  0  0
  140.0460  157.6550  136.3120 C   0  0  0  0  0  0  0  0  0  0  0  0
  140.7830  156.4820  136.1610 C   0  0  0  0  0  0  0  0  0  0  0  0
  141.3190  155.6340  137.1060 C   0  0  0  0  0  0  0  0  0  0  0  0
  141.9310  154.6110  136.3840 C   0  0  0  0  0  0  0  0  0  0  0  0
  142.6320  153.4620  136.9990 C   0  0  0  0  0  0  0  0  0  0  0  0
  144.0070  153.5520  137.3690 N   0  0  0  0  0  0  0  0  0  0  0  0
  142.0070  152.3840  137.1960 O   0  0  0  0  0  0  0  0  0  0  0  0
  141.7760  154.8240  135.0490 N   0  0  0  0  0  0  0  0  0  0  0  0
  142.2510  154.0200  133.9650 C   0  0  0  0  0  0  0  0  0  0  0  0
  143.2850  154.3720  133.3360 O   0  0  0  0  0  0  0  0  0  0  0  0
  141.5560  152.8140  133.6210 N   0  0  0  0  0  0  0  0  0  0  0  0
  142.1620  151.7290  132.9090 C   0  0  0  0  0  0  0  0  0  0  0  0
  143.3860  151.7540  132.6060 O   0  0  0  0  0  0  0  0  0  0  0  0
  141.3860  150.5830  132.5720 N   0  0  0  0  0  0  0  0  0  0  0  0
  141.6260  149.2230  132.0450 C   0  0  0  0  0  0  0  0  0  0  0  0
  140.1820  148.8240  131.9980 C   0  0  0  0  0  0  0  0  0  0  0  0
  139.6680  148.5680  130.6210 N   0  0  0  0  0  0  0  0  0  0  0  0
  139.6790  147.1190  130.3510 C   0  0  0  0  0  0  0  0  0  0  0  0
  138.3390  149.1350  130.2890 C   0  0  0  0  0  0  0  0  0  0  0  0
  139.9630  150.1960  132.5750 C   0  0  0  0  0  0  0  0  0  0  0  0
  141.0760  155.9670  134.9270 C   0  0  0  0  0  0  0  0  0  0  0  0
  140.6570  156.5970  133.7530 C   0  0  0  0  0  0  0  0  0  0  0  0
  138.7360  158.0880  131.4480 C   0  0  0  0  0  0  0  0  0  0  0  0
  136.9122  160.2712  131.7348 H   0  0  0  0  0  0  0  0  0  0  0  0
  137.4000  161.0377  130.1852 H   0  0  0  0  0  0  0  0  0  0  0  0
  136.6752  159.3941  130.1852 H   0  0  0  0  0  0  0  0  0  0  0  0
  139.1050  159.7232  129.8672 H   0  0  0  0  0  0  0  0  0  0  0  0
  140.4466  160.2152  131.9752 H   0  0  0  0  0  0  0  0  0  0  0  0
  138.9871  160.6051  132.7693 H   0  0  0  0  0  0  0  0  0  0  0  0
  139.0167  159.2363  135.2307 H   0  0  0  0  0  0  0  0  0  0  0  0
  139.8168  158.0565  137.3101 H   0  0  0  0  0  0  0  0  0  0  0  0
  141.2734  155.7419  138.1997 H   0  0  0  0  0  0  0  0  0  0  0  0
  144.4680  154.4810  137.4910 H   0  0  0  0  0  0  0  0  0  0  0  0
  140.5890  152.6860  133.9950 H   0  0  0  0  0  0  0  0  0  0  0  0
  142.0992  149.2282  131.0520 H   0  0  0  0  0  0  0  0  0  0  0  0
  142.3101  148.5754  132.6130 H   0  0  0  0  0  0  0  0  0  0  0  0
  139.7563  147.9185  132.4550 H   0  0  0  0  0  0  0  0  0  0  0  0
  139.6832  146.5686  131.3034 H   0  0  0  0  0  0  0  0  0  0  0  0
  138.7829  146.8467  129.7741 H   0  0  0  0  0  0  0  0  0  0  0  0
  140.5791  146.8604  129.7741 H   0  0  0  0  0  0  0  0  0  0  0  0
  137.7967  149.3664  131.2176 H   0  0  0  0  0  0  0  0  0  0  0  0
  138.4696  150.0558  129.7015 H   0  0  0  0  0  0  0  0  0  0  0  0
  137.7647  148.4036  129.7015 H   0  0  0  0  0  0  0  0  0  0  0  0
  139.3454  150.8369  131.9286 H   0  0  0  0  0  0  0  0  0  0  0  0
  139.4235  150.2618  133.5313 H   0  0  0  0  0  0  0  0  0  0  0  0
  140.9034  156.1773  132.7665 H   0  0  0  0  0  0  0  0  0  0  0  0
  139.2983  157.3720  130.8306 H   0  0  0  0  0  0  0  0  0  0  0  0
  137.7658  157.5799  131.5512 H   0  0  0  0  0  0  0  0  0  0  0  0
  1  2  1  0
  2  3  1  0
  3  4  1  0
  4  5  1  0
  5  6  2  0
  6  7  1  0
  7  8  2  0
  8  9  1  0
  9 10  2  0
 10 11  1  0
 11 12  1  0
 11 13  2  0
 10 14  1  0
 14 15  1  0
 15 16  2  0
 15 17  1  0
 17 18  1  0
 18 19  2  0
 18 20  1  0
 20 21  1  0
 21 22  1  0
 22 23  1  0
 23 24  1  0
 23 25  1  0
 22 26  1  0
 14 27  1  0
 27 28  2  0
  4 29  1  0
 29  2  1  0
 28  5  1  0
 27  8  1  0
 26 20  1  0
  1 30  1  0
  1 31  1  0
  1 32  1  0
  2 33  1  0
  3 34  1  0
  3 35  1  0
  6 36  1  0
  7 37  1  0
  9 38  1  0
 12 39  1  0
 17 40  1  0
 21 41  1  0
 21 42  1  0
 22 43  1  0
 24 44  1  0
 24 45  1  0
 24 46  1  0
 25 47  1  0
 25 48  1  0
 25 49  1  0
 26 50  1  0
 26 51  1  0
 28 52  1  0
 29 53  1  0
 29 54  1  0
M  CHG  1  12  -1
M  END
>  <UniqueID>  (85) 
84

>  <SMILES>  (85) 
CC1CN(c2ccc3cc(C([NH-])=O)n(C(=O)NC(=O)N4CC(N(C)C)C4)c3c2)C1

>  <Energy>  (85) 
192.16710348254531

>  <Genealogy>  (85) 
CC1CN(c2ccc3cc(C([NH-])=O)n(C(=O)NC(=O)N4CC(N(C)C)C4)c3c2)C1 (protonated)
CC1CN(c2ccc3cc(C([NH-])=O)n(C(=O)NC(=O)N4CC(N(C)C)C4)c3c2)C1 (3D coordinates assigned)
CC1CN(c2ccc3cc(C([NH-])=O)n(C(=O)NC(=O)N4CC(N(C)C)C4)c3c2)C1 (nonaromatic ring conformer: 192.16710348254531 kcal/mol)

>  <smiles>  (85) 
CC1CN(c2ccc3cc(C(N)=O)n(C(=O)NC(=O)N4CC(N(C)C)C4)c3c2)C1

>  <score_type>  (85) 
oracle

>  <origin>  (85) 
adg

>  <m_score__min__energy>  (85) 
-9.6400000000000006

>  <m_primary>  (85) 
energy

$$$$
85:0
     RDKit          3D

 42 44  0  0  0  0  0  0  0  0999 V2000
  139.8540  158.0010  136.0860 C   0  0  0  0  0  0  0  0  0  0  0  0
  140.3010  158.6590  134.9080 O   0  0  0  0  0  0  0  0  0  0  0  0
  141.3650  159.5670  134.9070 C   0  0  0  0  0  0  0  0  0  0  0  0
  142.0670  159.7340  135.9420 O   0  0  0  0  0  0  0  0  0  0  0  0
  141.6480  160.3650  133.6780 C   0  0  2  0  0  0  0  0  0  0  0  0
  140.4810  160.3510  132.8550 O   0  0  0  0  0  0  0  0  0  0  0  0
  140.1920  159.3540  131.9180 C   0  0  0  0  0  0  0  0  0  0  0  0
  139.9600  158.1690  132.2770 O   0  0  0  0  0  0  0  0  0  0  0  0
  140.1860  159.6720  130.5670 O   0  0  0  0  0  0  0  0  0  0  0  0
  142.7340  159.7550  132.9840 O   0  0  0  0  0  0  0  0  0  0  0  0
  144.0610  159.7860  133.4220 C   0  0  0  0  0  0  0  0  0  0  0  0
  144.5530  160.8460  133.8940 O   0  0  0  0  0  0  0  0  0  0  0  0
  144.8640  158.5960  133.3430 N   0  0  0  0  0  0  0  0  0  0  0  0
  144.5150  157.3330  133.7140 C   0  0  0  0  0  0  0  0  0  0  0  0
  143.1690  156.8930  134.1310 C   0  0  0  0  0  0  0  0  0  0  0  0
  142.0060  157.2690  133.3910 N   0  0  0  0  0  0  0  0  0  0  0  0
  143.0480  156.1280  135.1240 O   0  0  0  0  0  0  0  0  0  0  0  0
  145.6020  156.4690  133.6010 C   0  0  0  0  0  0  0  0  0  0  0  0
  146.6350  157.2480  133.1300 C   0  0  0  0  0  0  0  0  0  0  0  0
  147.9520  156.9060  132.8470 C   0  0  0  0  0  0  0  0  0  0  0  0
  148.8190  157.9210  132.4100 C   0  0  0  0  0  0  0  0  0  0  0  0
  148.3610  159.2640  132.2710 C   0  0  0  0  0  0  0  0  0  0  0  0
  149.2470  160.4120  131.8200 C   0  0  0  0  0  0  0  0  0  0  0  0
  148.7920  161.2060  130.6030 C   0  0  0  0  0  0  0  0  0  0  0  0
  149.9740  160.2510  130.4920 C   0  0  0  0  0  0  0  0  0  0  0  0
  147.0130  159.5640  132.5730 C   0  0  0  0  0  0  0  0  0  0  0  0
  146.1660  158.5270  132.9850 C   0  0  0  0  0  0  0  0  0  0  0  0
  140.2217  158.5422  136.9702 H   0  0  0  0  0  0  0  0  0  0  0  0
  138.7543  157.9805  136.0997 H   0  0  0  0  0  0  0  0  0  0  0  0
  140.2401  156.9711  136.0997 H   0  0  0  0  0  0  0  0  0  0  0  0
  141.9096  161.4024  133.9336 H   0  0  0  0  0  0  0  0  0  0  0  0
  141.0590  156.9790  133.7210 H   0  0  0  0  0  0  0  0  0  0  0  0
  142.0870  157.7570  132.4720 H   0  0  0  0  0  0  0  0  0  0  0  0
  145.6292  155.3950  133.8373 H   0  0  0  0  0  0  0  0  0  0  0  0
  148.3051  155.8706  132.9619 H   0  0  0  0  0  0  0  0  0  0  0  0
  149.8648  157.6766  132.1720 H   0  0  0  0  0  0  0  0  0  0  0  0
  149.5493  160.6661  132.8467 H   0  0  0  0  0  0  0  0  0  0  0  0
  147.8390  160.9612  130.1113 H   0  0  0  0  0  0  0  0  0  0  0  0
  148.6301  162.2721  130.3857 H   0  0  0  0  0  0  0  0  0  0  0  0
  149.8744  159.3166  129.9201 H   0  0  0  0  0  0  0  0  0  0  0  0
  151.0192  160.3419  130.1613 H   0  0  0  0  0  0  0  0  0  0  0  0
  146.6358  160.5936  132.4860 H   0  0  0  0  0  0  0  0  0  0  0  0
  1  2  1  0
  2  3  1  0
  3  4  2  0
  3  5  1  0
  5  6  1  0
  6  7  1  0
  7  8  2  0
  7  9  1  0
  5 10  1  0
 10 11  1  0
 11 12  2  0
 11 13  1  0
 13 14  1  0
 14 15  1  0
 15 16  1  0
 15 17  2  0
 14 18  2  0
 18 19  1  0
 19 20  2  0
 20 21  1  0
 21 22  2  0
 22 23  1  0
 23 24  1  0
 24 25  1  0
 22 26  1  0
 26 27  2  0
 27 13  1  0
 27 19  1  0
 25 23  1  0
  1 28  1  0
  1 29  1  0
  1 30  1  0
  5 31  1  1
 16 32  1  0
 16 33  1  0
 18 34  1  0
 20 35  1  0
 21 36  1  0
 23 37  1  0
 24 38  1  0
 24 39  1  0
 25 40  1  0
 25 41  1  0
 26 42  1  0
M  CHG  1   9  -1
M  END
>  <UniqueID>  (86) 
85

>  <SMILES>  (86) 
COC(=O)[C@H](OC(=O)[O-])OC(=O)n1c(C(N)=O)cc2ccc(C3CC3)cc21

>  <Energy>  (86) 
346.03988322471804

>  <Genealogy>  (86) 
COC(=O)C(OC(=O)[O-])OC(=O)n1c(C(N)=O)cc2ccc(C3CC3)cc21 (protonated)
COC(=O)[C@H](OC(=O)[O-])OC(=O)n1c(C(N)=O)cc2ccc(C3CC3)cc21 (chirality)
COC(=O)[C@H](OC(=O)[O-])OC(=O)n1c(C(N)=O)cc2ccc(C3CC3)cc21 (3D coordinates assigned)
COC(=O)[C@H](OC(=O)[O-])OC(=O)n1c(C(N)=O)cc2ccc(C3CC3)cc21 (nonaromatic ring conformer: 346.03988322471804 kcal/mol)

>  <smiles>  (86) 
COC(=O)C(OC(=O)O)OC(=O)n1c(C(N)=O)cc2ccc(C3CC3)cc21

>  <score_type>  (86) 
oracle

>  <origin>  (86) 
adg

>  <m_score__min__energy>  (86) 
-7.1799999999999997

>  <m_primary>  (86) 
energy

$$$$
86:0
     RDKit          3D

 40 41  0  0  0  0  0  0  0  0999 V2000
  148.0780  156.4940  135.0240 C   0  0  0  0  0  0  0  0  0  0  0  0
  147.4150  155.7430  133.9470 N   0  0  0  0  0  0  0  0  0  0  0  0
  146.9700  156.5100  132.8040 C   0  0  0  0  0  0  0  0  0  0  0  0
  147.0530  156.0120  131.6480 O   0  0  0  0  0  0  0  0  0  0  0  0
  146.4450  157.8390  132.9550 N   0  0  0  0  0  0  0  0  0  0  0  0
  147.0860  159.0230  132.7440 C   0  0  0  0  0  0  0  0  0  0  0  0
  148.5070  159.1840  132.3720 C   0  0  0  0  0  0  0  0  0  0  0  0
  149.0900  158.3140  131.4040 N   0  0  0  0  0  0  0  0  0  0  0  0
  149.2090  160.0920  132.8870 O   0  0  0  0  0  0  0  0  0  0  0  0
  146.2310  160.0920  133.0080 C   0  0  0  0  0  0  0  0  0  0  0  0
  145.0460  159.5200  133.4140 C   0  0  0  0  0  0  0  0  0  0  0  0
  143.8600  160.1140  133.8280 C   0  0  0  0  0  0  0  0  0  0  0  0
  142.8000  159.2750  134.2130 C   0  0  0  0  0  0  0  0  0  0  0  0
  142.9400  157.8630  134.1670 C   0  0  0  0  0  0  0  0  0  0  0  0
  141.8150  156.9720  134.6290 C   0  0  0  0  0  0  0  0  0  0  0  0
  142.2910  155.7150  134.9570 F   0  0  0  0  0  0  0  0  0  0  0  0
  140.8640  156.8280  133.6330 F   0  0  0  0  0  0  0  0  0  0  0  0
  141.2190  157.5330  135.7430 F   0  0  0  0  0  0  0  0  0  0  0  0
  144.1740  157.2980  133.7680 C   0  0  0  0  0  0  0  0  0  0  0  0
  145.2070  158.1600  133.3860 C   0  0  0  0  0  0  0  0  0  0  0  0
  146.9210  154.3500  134.1550 C   0  0  0  0  0  0  0  0  0  0  0  0
  145.7800  153.9710  133.1760 C   0  0  0  0  0  0  0  0  0  0  0  0
  148.0800  153.3580  133.9090 C   0  0  0  0  0  0  0  0  0  0  0  0
  146.3770  154.1970  135.5620 C   0  0  0  0  0  0  0  0  0  0  0  0
  145.3550  154.8430  135.9140 O   0  0  0  0  0  0  0  0  0  0  0  0
  146.9910  153.3550  136.4830 O   0  0  0  0  0  0  0  0  0  0  0  0
  147.7407  156.1119  135.9988 H   0  0  0  0  0  0  0  0  0  0  0  0
  149.1679  156.3714  134.9393 H   0  0  0  0  0  0  0  0  0  0  0  0
  147.8213  157.5603  134.9393 H   0  0  0  0  0  0  0  0  0  0  0  0
  148.6070  157.4360  131.1120 H   0  0  0  0  0  0  0  0  0  0  0  0
  146.4553  161.1646  132.9123 H   0  0  0  0  0  0  0  0  0  0  0  0
  143.7538  161.2086  133.8537 H   0  0  0  0  0  0  0  0  0  0  0  0
  141.8521  159.7171  134.5535 H   0  0  0  0  0  0  0  0  0  0  0  0
  144.3176  156.2075  133.7584 H   0  0  0  0  0  0  0  0  0  0  0  0
  144.8887  153.6749  133.7487 H   0  0  0  0  0  0  0  0  0  0  0  0
  145.5378  154.8369  132.5424 H   0  0  0  0  0  0  0  0  0  0  0  0
  146.1040  153.1322  132.5424 H   0  0  0  0  0  0  0  0  0  0  0  0
  148.4804  153.0153  134.8745 H   0  0  0  0  0  0  0  0  0  0  0  0
  147.7083  152.4940  133.3387 H   0  0  0  0  0  0  0  0  0  0  0  0
  148.8763  153.8586  133.3387 H   0  0  0  0  0  0  0  0  0  0  0  0
  1  2  1  0
  2  3  1  0
  3  4  2  0
  3  5  1  0
  5  6  1  0
  6  7  1  0
  7  8  1  0
  7  9  2  0
  6 10  2  0
 10 11  1  0
 11 12  2  0
 12 13  1  0
 13 14  2  0
 14 15  1  0
 15 16  1  0
 15 17  1  0
 15 18  1  0
 14 19  1  0
 19 20  2  0
  2 21  1  0
 21 22  1  0
 21 23  1  0
 21 24  1  0
 24 25  2  0
 24 26  1  0
 20  5  1  0
 20 11  1  0
  1 27  1  0
  1 28  1  0
  1 29  1  0
  8 30  1  0
 10 31  1  0
 12 32  1  0
 13 33  1  0
 19 34  1  0
 22 35  1  0
 22 36  1  0
 22 37  1  0
 23 38  1  0
 23 39  1  0
 23 40  1  0
M  CHG  2   8  -1  26  -1
M  END
>  <UniqueID>  (87) 
86

>  <SMILES>  (87) 
CN(C(=O)n1c(C([NH-])=O)cc2ccc(C(F)(F)F)cc21)C(C)(C)C(=O)[O-]

>  <Energy>  (87) 
84.59189649327134

>  <Genealogy>  (87) 
CN(C(=O)n1c(C([NH-])=O)cc2ccc(C(F)(F)F)cc21)C(C)(C)C(=O)[O-] (protonated)
CN(C(=O)n1c(C([NH-])=O)cc2ccc(C(F)(F)F)cc21)C(C)(C)C(=O)[O-] (3D coordinates assigned)
CN(C(=O)n1c(C([NH-])=O)cc2ccc(C(F)(F)F)cc21)C(C)(C)C(=O)[O-] (optimized conformer: 84.59189649327134 kcal/mol)

>  <smiles>  (87) 
CN(C(=O)n1c(C(N)=O)cc2ccc(C(F)(F)F)cc21)C(C)(C)C(=O)O

>  <score_type>  (87) 
oracle

>  <origin>  (87) 
adg

>  <m_score__min__energy>  (87) 
-6.3499999999999996

>  <m_primary>  (87) 
energy

$$$$
87:0
     RDKit          3D

 39 40  0  0  0  0  0  0  0  0999 V2000
  142.7090  156.3880  135.1330 N   0  0  0  0  0  0  0  0  0  0  0  0
  144.0340  155.8560  135.0680 C   0  0  0  0  0  0  0  0  0  0  0  0
  144.2560  154.7130  135.5490 O   0  0  0  0  0  0  0  0  0  0  0  0
  145.1400  156.6340  134.4620 C   0  0  0  0  0  0  0  0  0  0  0  0
  146.4920  156.3120  134.5780 C   0  0  0  0  0  0  0  0  0  0  0  0
  147.1570  157.2390  133.8050 C   0  0  0  0  0  0  0  0  0  0  0  0
  148.5180  157.3990  133.5620 C   0  0  0  0  0  0  0  0  0  0  0  0
  148.9190  158.4600  132.7310 C   0  0  0  0  0  0  0  0  0  0  0  0
  147.9580  159.3280  132.1490 C   0  0  0  0  0  0  0  0  0  0  0  0
  148.3960  160.4870  131.2940 C   0  0  2  0  0  0  0  0  0  0  0  0
  147.3780  160.8670  130.4340 F   0  0  0  0  0  0  0  0  0  0  0  0
  149.6150  160.1140  130.5100 C   0  0  0  0  0  0  0  0  0  0  0  0
  150.6830  159.8060  131.1020 O   0  0  0  0  0  0  0  0  0  0  0  0
  149.5860  160.1570  129.1220 O   0  0  0  0  0  0  0  0  0  0  0  0
  146.5860  159.1380  132.4290 C   0  0  0  0  0  0  0  0  0  0  0  0
  146.2200  158.0730  133.2560 C   0  0  0  0  0  0  0  0  0  0  0  0
  144.9820  157.7190  133.6540 N   0  0  0  0  0  0  0  0  0  0  0  0
  143.7650  158.3880  133.2940 C   0  0  0  0  0  0  0  0  0  0  0  0
  142.9150  157.7700  132.6010 O   0  0  0  0  0  0  0  0  0  0  0  0
  143.5370  159.7920  133.7090 C   0  0  0  0  0  0  0  0  0  0  0  0
  144.5160  160.4630  134.1320 O   0  0  0  0  0  0  0  0  0  0  0  0
  142.2570  160.4390  133.6350 N   0  0  0  0  0  0  0  0  0  0  0  0
  140.9950  159.9830  134.2180 C   0  0  1  0  0  0  0  0  0  0  0  0
  140.0930  159.4470  133.1000 C   0  0  0  0  0  0  0  0  0  0  0  0
  140.7830  159.3980  131.8800 O   0  0  0  0  0  0  0  0  0  0  0  0
  141.2510  158.9110  135.2410 C   0  0  0  0  0  0  0  0  0  0  0  0
  142.1840  159.0330  136.0770 O   0  0  0  0  0  0  0  0  0  0  0  0
  140.4780  157.7550  135.2400 O   0  0  0  0  0  0  0  0  0  0  0  0
  141.9480  155.8390  135.5940 H   0  0  0  0  0  0  0  0  0  0  0  0
  142.4630  157.3010  134.6930 H   0  0  0  0  0  0  0  0  0  0  0  0
  146.9340  155.4918  135.1627 H   0  0  0  0  0  0  0  0  0  0  0  0
  149.2573  156.7164  134.0064 H   0  0  0  0  0  0  0  0  0  0  0  0
  149.9886  158.6192  132.5297 H   0  0  0  0  0  0  0  0  0  0  0  0
  148.6365  161.3359  131.9510 H   0  0  0  0  0  0  0  0  0  0  0  0
  145.8256  159.8114  132.0067 H   0  0  0  0  0  0  0  0  0  0  0  0
  140.4963  160.8253  134.7199 H   0  0  0  0  0  0  0  0  0  0  0  0
  139.7559  158.4338  133.3640 H   0  0  0  0  0  0  0  0  0  0  0  0
  139.2316  160.1221  132.9895 H   0  0  0  0  0  0  0  0  0  0  0  0
  141.7510  159.4220  132.0990 H   0  0  0  0  0  0  0  0  0  0  0  0
  1  2  1  0
  2  3  2  0
  2  4  1  0
  4  5  2  0
  5  6  1  0
  6  7  2  0
  7  8  1  0
  8  9  2  0
  9 10  1  0
 10 11  1  0
 10 12  1  0
 12 13  2  0
 12 14  1  0
  9 15  1  0
 15 16  2  0
 16 17  1  0
 17 18  1  0
 18 19  2  0
 18 20  1  0
 20 21  2  0
 20 22  1  0
 22 23  1  0
 23 24  1  0
 24 25  1  0
 23 26  1  0
 26 27  2  0
 26 28  1  0
 17  4  1  0
 16  6  1  0
  1 29  1  0
  1 30  1  0
  5 31  1  0
  7 32  1  0
  8 33  1  0
 10 34  1  1
 15 35  1  0
 23 36  1  1
 24 37  1  0
 24 38  1  0
 25 39  1  0
M  CHG  3  14  -1  22  -1  28  -1
M  END
>  <UniqueID>  (88) 
87

>  <SMILES>  (88) 
NC(=O)c1cc2ccc([C@H](F)C(=O)[O-])cc2n1C(=O)C(=O)[N-][C@@H](CO)C(=O)[O-]

>  <Energy>  (88) 
76.60327477197882

>  <Genealogy>  (88) 
NC(=O)c1cc2ccc(C(F)C(=O)[O-])cc2n1C(=O)C(=O)[N-]C(CO)C(=O)[O-] (protonated)
NC(=O)c1cc2ccc([C@H](F)C(=O)[O-])cc2n1C(=O)C(=O)[N-][C@@H](CO)C(=O)[O-] (chirality)
NC(=O)c1cc2ccc([C@H](F)C(=O)[O-])cc2n1C(=O)C(=O)[N-][C@@H](CO)C(=O)[O-] (3D coordinates assigned)
NC(=O)c1cc2ccc([C@H](F)C(=O)[O-])cc2n1C(=O)C(=O)[N-][C@@H](CO)C(=O)[O-] (optimized conformer: 76.60327477197882 kcal/mol)

>  <smiles>  (88) 
NC(=O)c1cc2ccc(C(F)C(=O)O)cc2n1C(=O)C(=O)NC(CO)C(=O)O

>  <score_type>  (88) 
oracle

>  <origin>  (88) 
adg

>  <m_score__min__energy>  (88) 
-6.5499999999999998

>  <m_primary>  (88) 
energy

$$$$
88:0
     RDKit          3D

 37 38  0  0  0  0  0  0  0  0999 V2000
  149.2080  157.4520  132.5010 C   0  0  0  0  0  0  0  0  0  0  0  0
  148.0610  158.3540  132.8440 C   0  0  0  0  0  0  0  0  0  0  0  0
  148.2950  159.7340  133.0540 C   0  0  0  0  0  0  0  0  0  0  0  0
  147.2310  160.6040  133.3530 C   0  0  0  0  0  0  0  0  0  0  0  0
  145.9500  160.0650  133.4220 C   0  0  0  0  0  0  0  0  0  0  0  0
  144.7450  160.6710  133.7020 C   0  0  0  0  0  0  0  0  0  0  0  0
  143.7930  159.6550  133.6260 C   0  0  0  0  0  0  0  0  0  0  0  0
  142.3400  159.8810  133.7810 C   0  0  0  0  0  0  0  0  0  0  0  0
  141.4190  159.4550  132.7820 N   0  0  0  0  0  0  0  0  0  0  0  0
  141.9090  160.4860  134.7990 O   0  0  0  0  0  0  0  0  0  0  0  0
  144.3880  158.4700  133.3150 N   0  0  0  0  0  0  0  0  0  0  0  0
  143.7700  157.1800  133.1850 C   0  0  0  0  0  0  0  0  0  0  0  0
  142.9590  156.9760  132.2400 O   0  0  0  0  0  0  0  0  0  0  0  0
  144.0360  156.1360  134.1430 N   0  0  0  0  0  0  0  0  0  0  0  0
  142.9620  155.6860  135.0320 C   0  0  0  0  0  0  0  0  0  0  0  0
  145.2850  155.4160  134.1090 C   0  0  0  0  0  0  0  0  0  0  0  0
  145.6210  154.7770  133.0730 O   0  0  0  0  0  0  0  0  0  0  0  0
  146.1410  155.4420  135.2190 O   0  0  0  0  0  0  0  0  0  0  0  0
  147.4150  154.8060  135.2450 C   0  0  0  0  0  0  0  0  0  0  0  0
  147.6120  154.0620  136.5280 C   0  0  0  0  0  0  0  0  0  0  0  0
  146.9500  153.0160  136.7570 O   0  0  0  0  0  0  0  0  0  0  0  0
  148.5620  154.4910  137.4480 O   0  0  0  0  0  0  0  0  0  0  0  0
  145.7060  158.7350  133.1970 C   0  0  0  0  0  0  0  0  0  0  0  0
  146.7450  157.8450  132.9090 C   0  0  0  0  0  0  0  0  0  0  0  0
  149.6751  157.0847  133.4267 H   0  0  0  0  0  0  0  0  0  0  0  0
  148.8401  156.5987  131.9123 H   0  0  0  0  0  0  0  0  0  0  0  0
  149.9505  158.0107  131.9123 H   0  0  0  0  0  0  0  0  0  0  0  0
  149.3188  160.1299  132.9827 H   0  0  0  0  0  0  0  0  0  0  0  0
  147.4059  161.6760  133.5267 H   0  0  0  0  0  0  0  0  0  0  0  0
  144.5707  161.7316  133.9359 H   0  0  0  0  0  0  0  0  0  0  0  0
  141.7090  158.7880  132.0340 H   0  0  0  0  0  0  0  0  0  0  0  0
  143.2736  155.8166  136.0788 H   0  0  0  0  0  0  0  0  0  0  0  0
  142.0559  156.2801  134.8423 H   0  0  0  0  0  0  0  0  0  0  0  0
  142.7501  154.6234  134.8423 H   0  0  0  0  0  0  0  0  0  0  0  0
  147.4825  154.0995  134.4046 H   0  0  0  0  0  0  0  0  0  0  0  0
  148.1953  155.5768  135.1613 H   0  0  0  0  0  0  0  0  0  0  0  0
  146.5431  156.7773  132.7377 H   0  0  0  0  0  0  0  0  0  0  0  0
  1  2  1  0
  2  3  2  0
  3  4  1  0
  4  5  2  0
  5  6  1  0
  6  7  2  0
  7  8  1  0
  8  9  1  0
  8 10  2  0
  7 11  1  0
 11 12  1  0
 12 13  2  0
 12 14  1  0
 14 15  1  0
 14 16  1  0
 16 17  2  0
 16 18  1  0
 18 19  1  0
 19 20  1  0
 20 21  2  0
 20 22  1  0
 11 23  1  0
 23 24  2  0
 24  2  1  0
 23  5  1  0
  1 25  1  0
  1 26  1  0
  1 27  1  0
  3 28  1  0
  4 29  1  0
  6 30  1  0
  9 31  1  0
 15 32  1  0
 15 33  1  0
 15 34  1  0
 19 35  1  0
 19 36  1  0
 24 37  1  0
M  CHG  2   9  -1  22  -1
M  END
>  <UniqueID>  (89) 
88

>  <SMILES>  (89) 
Cc1ccc2cc(C([NH-])=O)n(C(=O)N(C)C(=O)OCC(=O)[O-])c2c1

>  <Energy>  (89) 
73.1638750089972

>  <Genealogy>  (89) 
Cc1ccc2cc(C([NH-])=O)n(C(=O)N(C)C(=O)OCC(=O)[O-])c2c1 (protonated)
Cc1ccc2cc(C([NH-])=O)n(C(=O)N(C)C(=O)OCC(=O)[O-])c2c1 (3D coordinates assigned)
Cc1ccc2cc(C([NH-])=O)n(C(=O)N(C)C(=O)OCC(=O)[O-])c2c1 (optimized conformer: 73.1638750089972 kcal/mol)

>  <smiles>  (89) 
Cc1ccc2cc(C(N)=O)n(C(=O)N(C)C(=O)OCC(=O)O)c2c1

>  <score_type>  (89) 
oracle

>  <origin>  (89) 
adg

>  <m_score__min__energy>  (89) 
-6.4000000000000004

>  <m_primary>  (89) 
energy

$$$$
89:0
     RDKit          3D

 44 46  0  0  0  0  0  0  0  0999 V2000
  139.1000  146.6560  129.9030 C   0  0  0  0  0  0  0  0  0  0  0  0
  139.5720  147.3550  131.0480 O   0  0  0  0  0  0  0  0  0  0  0  0
  139.2810  148.7030  131.2840 C   0  0  0  0  0  0  0  0  0  0  0  0
  138.1110  149.1380  131.0940 O   0  0  0  0  0  0  0  0  0  0  0  0
  140.3450  149.6160  131.7550 C   0  0  0  0  0  0  0  0  0  0  0  0
  141.6800  149.1810  131.8120 C   0  0  0  0  0  0  0  0  0  0  0  0
  142.6890  150.0400  132.2580 C   0  0  0  0  0  0  0  0  0  0  0  0
  142.3850  151.3530  132.6560 C   0  0  0  0  0  0  0  0  0  0  0  0
  143.4480  152.2660  133.1330 C   0  0  0  0  0  0  0  0  0  0  0  0
  144.2590  152.7740  132.3100 O   0  0  0  0  0  0  0  0  0  0  0  0
  143.5420  152.5560  134.5000 O   0  0  0  0  0  0  0  0  0  0  0  0
  143.2090  153.7800  135.0940 C   0  0  0  0  0  0  0  0  0  0  0  0
  142.5550  153.8170  136.1720 O   0  0  0  0  0  0  0  0  0  0  0  0
  143.6080  155.0070  134.4600 N   0  0  0  0  0  0  0  0  0  0  0  0
  144.8730  155.4900  134.3060 C   0  0  0  0  0  0  0  0  0  0  0  0
  146.1210  154.7680  134.6280 C   0  0  0  0  0  0  0  0  0  0  0  0
  146.2750  153.3820  134.3190 N   0  0  0  0  0  0  0  0  0  0  0  0
  147.0870  155.3980  135.1340 O   0  0  0  0  0  0  0  0  0  0  0  0
  144.8500  156.7620  133.7400 C   0  0  0  0  0  0  0  0  0  0  0  0
  143.5190  157.0420  133.5350 C   0  0  0  0  0  0  0  0  0  0  0  0
  142.9190  158.1840  133.0140 C   0  0  0  0  0  0  0  0  0  0  0  0
  141.5160  158.2210  132.9520 C   0  0  0  0  0  0  0  0  0  0  0  0
  140.7410  157.1210  133.4030 C   0  0  0  0  0  0  0  0  0  0  0  0
  139.2350  157.1960  133.3900 C   0  0  0  0  0  0  0  0  0  0  0  0
  138.7160  155.9180  133.2910 F   0  0  0  0  0  0  0  0  0  0  0  0
  138.7940  157.9460  132.3140 F   0  0  0  0  0  0  0  0  0  0  0  0
  138.7630  157.7850  134.5510 F   0  0  0  0  0  0  0  0  0  0  0  0
  141.3890  155.9910  133.9530 C   0  0  0  0  0  0  0  0  0  0  0  0
  142.7890  155.9700  133.9790 C   0  0  0  0  0  0  0  0  0  0  0  0
  141.0510  151.7880  132.5980 C   0  0  0  0  0  0  0  0  0  0  0  0
  140.0410  150.9290  132.1530 C   0  0  0  0  0  0  0  0  0  0  0  0
  138.5110  145.7838  130.2229 H   0  0  0  0  0  0  0  0  0  0  0  0
  138.4676  147.3244  129.3002 H   0  0  0  0  0  0  0  0  0  0  0  0
  139.9563  146.3192  129.3002 H   0  0  0  0  0  0  0  0  0  0  0  0
  141.9333  148.1561  131.5031 H   0  0  0  0  0  0  0  0  0  0  0  0
  143.7294  149.6851  132.2977 H   0  0  0  0  0  0  0  0  0  0  0  0
  147.1490  152.8790  134.5900 H   0  0  0  0  0  0  0  0  0  0  0  0
  145.5630  152.8750  133.7490 H   0  0  0  0  0  0  0  0  0  0  0  0
  145.7115  157.4050  133.5068 H   0  0  0  0  0  0  0  0  0  0  0  0
  143.5246  159.0319  132.6615 H   0  0  0  0  0  0  0  0  0  0  0  0
  141.0126  159.1124  132.5494 H   0  0  0  0  0  0  0  0  0  0  0  0
  140.8065  155.1473  134.3515 H   0  0  0  0  0  0  0  0  0  0  0  0
  140.7982  152.8135  132.9053 H   0  0  0  0  0  0  0  0  0  0  0  0
  139.0006  151.2839  132.1142 H   0  0  0  0  0  0  0  0  0  0  0  0
  1  2  1  0
  2  3  1  0
  3  4  2  0
  3  5  1  0
  5  6  2  0
  6  7  1  0
  7  8  2  0
  8  9  1  0
  9 10  2  0
  9 11  1  0
 11 12  1  0
 12 13  2  0
 12 14  1  0
 14 15  1  0
 15 16  1  0
 16 17  1  0
 16 18  2  0
 15 19  2  0
 19 20  1  0
 20 21  2  0
 21 22  1  0
 22 23  2  0
 23 24  1  0
 24 25  1  0
 24 26  1  0
 24 27  1  0
 23 28  1  0
 28 29  2  0
  8 30  1  0
 30 31  2  0
 31  5  1  0
 29 14  1  0
 29 20  1  0
  1 32  1  0
  1 33  1  0
  1 34  1  0
  6 35  1  0
  7 36  1  0
 17 37  1  0
 17 38  1  0
 19 39  1  0
 21 40  1  0
 22 41  1  0
 28 42  1  0
 30 43  1  0
 31 44  1  0
M  END
>  <UniqueID>  (90) 
89

>  <SMILES>  (90) 
COC(=O)c1ccc(C(=O)OC(=O)n2c(C(N)=O)cc3ccc(C(F)(F)F)cc32)cc1

>  <Energy>  (90) 
86.06746599533457

>  <Genealogy>  (90) 
COC(=O)c1ccc(C(=O)OC(=O)n2c(C(N)=O)cc3ccc(C(F)(F)F)cc32)cc1 (3D coordinates assigned)
COC(=O)c1ccc(C(=O)OC(=O)n2c(C(N)=O)cc3ccc(C(F)(F)F)cc32)cc1 (optimized conformer: 86.06746599533457 kcal/mol)

>  <smiles>  (90) 
COC(=O)c1ccc(C(=O)OC(=O)n2c(C(N)=O)cc3ccc(C(F)(F)F)cc32)cc1

>  <score_type>  (90) 
oracle

>  <origin>  (90) 
adg

>  <m_score__min__energy>  (90) 
-7.96

>  <m_primary>  (90) 
energy

$$$$
90:0
     RDKit          3D

 50 51  0  0  0  0  0  0  0  0999 V2000
  140.9960  150.0550  132.9600 C   0  0  0  0  0  0  0  0  0  0  0  0
  141.4020  151.2480  133.6210 O   0  0  0  0  0  0  0  0  0  0  0  0
  141.6040  152.4550  132.9410 C   0  0  0  0  0  0  0  0  0  0  0  0
  140.6270  153.1870  132.6200 O   0  0  0  0  0  0  0  0  0  0  0  0
  142.9980  152.8940  132.6200 C   0  0  0  0  0  0  0  0  0  0  0  0
  143.5520  153.7050  133.7470 C   0  0  0  0  0  0  0  0  0  0  0  0
  144.4120  153.1960  134.5170 O   0  0  0  0  0  0  0  0  0  0  0  0
  143.1190  155.0260  133.9150 O   0  0  0  0  0  0  0  0  0  0  0  0
  143.3610  156.0690  133.0130 C   0  0  0  0  0  0  0  0  0  0  0  0
  143.9810  155.8540  131.9340 O   0  0  0  0  0  0  0  0  0  0  0  0
  142.9050  157.3980  133.3210 N   0  0  0  0  0  0  0  0  0  0  0  0
  141.6780  157.7650  133.7900 C   0  0  0  0  0  0  0  0  0  0  0  0
  140.4870  156.8930  133.8690 C   0  0  0  0  0  0  0  0  0  0  0  0
  140.4920  155.5840  133.2960 N   0  0  0  0  0  0  0  0  0  0  0  0
  139.4320  157.3330  134.3980 O   0  0  0  0  0  0  0  0  0  0  0  0
  141.6690  159.1090  134.1490 C   0  0  0  0  0  0  0  0  0  0  0  0
  142.9360  159.5680  133.8720 C   0  0  0  0  0  0  0  0  0  0  0  0
  143.4900  160.8290  134.0610 C   0  0  0  0  0  0  0  0  0  0  0  0
  144.8430  161.0100  133.7330 C   0  0  0  0  0  0  0  0  0  0  0  0
  145.6210  159.9380  133.2310 C   0  0  0  0  0  0  0  0  0  0  0  0
  147.0090  160.1710  132.9170 N   0  0  0  0  0  0  0  0  0  0  0  0
  148.1390  159.4000  133.4420 C   0  0  0  0  0  0  0  0  0  0  0  0
  149.2880  159.3400  132.4260 C   0  0  0  0  0  0  0  0  0  0  0  0
  148.8910  159.9400  131.1330 N   0  0  0  0  0  0  0  0  0  0  0  0
  149.2040  159.0320  130.0190 C   0  0  0  0  0  0  0  0  0  0  0  0
  149.5670  161.2340  130.9210 C   0  0  0  0  0  0  0  0  0  0  0  0
  145.0140  158.6730  133.0380 C   0  0  0  0  0  0  0  0  0  0  0  0
  143.6620  158.5190  133.3700 C   0  0  0  0  0  0  0  0  0  0  0  0
  140.7362  149.2916  133.7081 H   0  0  0  0  0  0  0  0  0  0  0  0
  140.1187  150.2650  132.3305 H   0  0  0  0  0  0  0  0  0  0  0  0
  141.8192  149.6863  132.3305 H   0  0  0  0  0  0  0  0  0  0  0  0
  143.6315  152.0085  132.4628 H   0  0  0  0  0  0  0  0  0  0  0  0
  142.9816  153.5083  131.7076 H   0  0  0  0  0  0  0  0  0  0  0  0
  141.2960  155.2500  132.7210 H   0  0  0  0  0  0  0  0  0  0  0  0
  139.6500  154.9720  133.3840 H   0  0  0  0  0  0  0  0  0  0  0  0
  140.8279  159.6826  134.5656 H   0  0  0  0  0  0  0  0  0  0  0  0
  142.8865  161.6597  134.4556 H   0  0  0  0  0  0  0  0  0  0  0  0
  145.3057  161.9988  133.8678 H   0  0  0  0  0  0  0  0  0  0  0  0
  147.2420  160.9730  132.2840 H   0  0  0  0  0  0  0  0  0  0  0  0
  148.5006  159.8762  134.3653 H   0  0  0  0  0  0  0  0  0  0  0  0
  147.7977  158.3739  133.6437 H   0  0  0  0  0  0  0  0  0  0  0  0
  150.1511  159.8913  132.8274 H   0  0  0  0  0  0  0  0  0  0  0  0
  149.5471  158.2847  132.2553 H   0  0  0  0  0  0  0  0  0  0  0  0
  149.5380  158.0631  130.4185 H   0  0  0  0  0  0  0  0  0  0  0  0
  148.3049  158.8842  129.4027 H   0  0  0  0  0  0  0  0  0  0  0  0
  150.0031  159.4696  129.4027 H   0  0  0  0  0  0  0  0  0  0  0  0
  149.8040  161.6877  131.8946 H   0  0  0  0  0  0  0  0  0  0  0  0
  150.4966  161.0737  130.3552 H   0  0  0  0  0  0  0  0  0  0  0  0
  148.9045  161.9054  130.3552 H   0  0  0  0  0  0  0  0  0  0  0  0
  145.5927  157.8285  132.6355 H   0  0  0  0  0  0  0  0  0  0  0  0
  1  2  1  0
  2  3  1  0
  3  4  2  0
  3  5  1  0
  5  6  1  0
  6  7  2  0
  6  8  1  0
  8  9  1  0
  9 10  2  0
  9 11  1  0
 11 12  1  0
 12 13  1  0
 13 14  1  0
 13 15  2  0
 12 16  2  0
 16 17  1  0
 17 18  2  0
 18 19  1  0
 19 20  2  0
 20 21  1  0
 21 22  1  0
 22 23  1  0
 23 24  1  0
 24 25  1  0
 24 26  1  0
 20 27  1  0
 27 28  2  0
 28 11  1  0
 28 17  1  0
  1 29  1  0
  1 30  1  0
  1 31  1  0
  5 32  1  0
  5 33  1  0
 14 34  1  0
 14 35  1  0
 16 36  1  0
 18 37  1  0
 19 38  1  0
 21 39  1  0
 22 40  1  0
 22 41  1  0
 23 42  1  0
 23 43  1  0
 25 44  1  0
 25 45  1  0
 25 46  1  0
 26 47  1  0
 26 48  1  0
 26 49  1  0
 27 50  1  0
M  END
>  <UniqueID>  (91) 
90

>  <SMILES>  (91) 
COC(=O)CC(=O)OC(=O)n1c(C(N)=O)cc2ccc(NCCN(C)C)cc21

>  <Energy>  (91) 
82.99378124578801

>  <Genealogy>  (91) 
COC(=O)CC(=O)OC(=O)n1c(C(N)=O)cc2ccc(NCCN(C)C)cc21 (3D coordinates assigned)
COC(=O)CC(=O)OC(=O)n1c(C(N)=O)cc2ccc(NCCN(C)C)cc21 (optimized conformer: 82.99378124578801 kcal/mol)

>  <smiles>  (91) 
COC(=O)CC(=O)OC(=O)n1c(C(N)=O)cc2ccc(NCCN(C)C)cc21

>  <score_type>  (91) 
oracle

>  <origin>  (91) 
adg

>  <m_score__min__energy>  (91) 
-7.6799999999999997

>  <m_primary>  (91) 
energy

$$$$
91:0
     RDKit          3D

 47 49  0  0  0  0  0  0  0  0999 V2000
  148.5640  155.0610  132.6310 C   0  0  0  0  0  0  0  0  0  0  0  0
  148.2160  156.5150  132.7400 C   0  0  0  0  0  0  0  0  0  0  0  0
  149.1630  157.5000  132.3640 C   0  0  0  0  0  0  0  0  0  0  0  0
  148.8410  158.8660  132.4390 C   0  0  0  0  0  0  0  0  0  0  0  0
  147.5650  159.2130  132.8720 C   0  0  0  0  0  0  0  0  0  0  0  0
  147.0010  160.4540  133.0580 C   0  0  0  0  0  0  0  0  0  0  0  0
  145.7050  160.2080  133.5070 C   0  0  0  0  0  0  0  0  0  0  0  0
  144.7140  161.2760  133.7520 C   0  0  0  0  0  0  0  0  0  0  0  0
  143.3490  161.1120  133.3760 N   0  0  0  0  0  0  0  0  0  0  0  0
  145.0870  162.3680  134.2580 O   0  0  0  0  0  0  0  0  0  0  0  0
  145.4780  158.8670  133.6010 N   0  0  0  0  0  0  0  0  0  0  0  0
  144.3080  158.2120  134.1150 C   0  0  0  0  0  0  0  0  0  0  0  0
  144.1930  156.9610  134.0070 O   0  0  0  0  0  0  0  0  0  0  0  0
  143.3150  158.9720  134.7480 O   0  0  0  0  0  0  0  0  0  0  0  0
  141.9410  158.8950  134.4790 C   0  0  0  0  0  0  0  0  0  0  0  0
  141.1060  158.8080  135.4210 O   0  0  0  0  0  0  0  0  0  0  0  0
  141.4910  158.9160  133.1070 N   0  0  1  0  0  0  0  0  0  0  0  0
  141.2250  157.5490  132.5880 C   0  0  0  0  0  0  0  0  0  0  0  0
  139.7120  157.2150  132.4200 C   0  0  1  0  0  0  0  0  0  0  0  0
  139.0620  156.7920  133.7390 C   0  0  0  0  0  0  0  0  0  0  0  0
  138.9150  158.2260  131.8080 O   0  0  0  0  0  0  0  0  0  0  0  0
  139.5550  159.4830  131.6790 C   0  0  1  0  0  0  0  0  0  0  0  0
  138.4920  160.5450  131.4000 C   0  0  0  0  0  0  0  0  0  0  0  0
  140.3530  159.8420  132.9430 C   0  0  0  0  0  0  0  0  0  0  0  0
  146.6260  158.2710  133.2070 C   0  0  0  0  0  0  0  0  0  0  0  0
  146.9240  156.9040  133.1590 C   0  0  0  0  0  0  0  0  0  0  0  0
  148.6667  154.6320  133.6387 H   0  0  0  0  0  0  0  0  0  0  0  0
  147.7669  154.5330  132.0872 H   0  0  0  0  0  0  0  0  0  0  0  0
  149.5138  154.9511  132.0872 H   0  0  0  0  0  0  0  0  0  0  0  0
  150.1583  157.1929  132.0105 H   0  0  0  0  0  0  0  0  0  0  0  0
  149.5754  159.6373  132.1638 H   0  0  0  0  0  0  0  0  0  0  0  0
  147.4731  161.4329  132.8883 H   0  0  0  0  0  0  0  0  0  0  0  0
  143.0100  160.2150  132.9630 H   0  0  0  0  0  0  0  0  0  0  0  0
  142.2830  159.3060  132.5400 H   0  0  0  0  0  0  0  0  0  0  0  0
  141.7113  157.4517  131.6061 H   0  0  0  0  0  0  0  0  0  0  0  0
  141.6246  156.8441  133.3320 H   0  0  0  0  0  0  0  0  0  0  0  0
  139.7292  156.3708  131.7149 H   0  0  0  0  0  0  0  0  0  0  0  0
  139.6556  157.1783  134.5807 H   0  0  0  0  0  0  0  0  0  0  0  0
  138.0417  157.1996  133.7923 H   0  0  0  0  0  0  0  0  0  0  0  0
  139.0214  155.6940  133.7923 H   0  0  0  0  0  0  0  0  0  0  0  0
  140.2715  159.4363  130.8457 H   0  0  0  0  0  0  0  0  0  0  0  0
  138.1030  160.9336  132.3527 H   0  0  0  0  0  0  0  0  0  0  0  0
  138.9387  161.3683  130.8232 H   0  0  0  0  0  0  0  0  0  0  0  0
  137.6692  160.0975  130.8232 H   0  0  0  0  0  0  0  0  0  0  0  0
  140.7316  160.8709  132.8538 H   0  0  0  0  0  0  0  0  0  0  0  0
  139.6936  159.7594  133.8196 H   0  0  0  0  0  0  0  0  0  0  0  0
  146.1718  156.1523  133.4402 H   0  0  0  0  0  0  0  0  0  0  0  0
  1  2  1  0
  2  3  2  0
  3  4  1  0
  4  5  2  0
  5  6  1  0
  6  7  2  0
  7  8  1  0
  8  9  1  0
  8 10  2  0
  7 11  1  0
 11 12  1  0
 12 13  2  0
 12 14  1  0
 14 15  1  0
 15 16  2  0
 15 17  1  0
 17 18  1  0
 18 19  1  0
 19 20  1  0
 19 21  1  0
 21 22  1  0
 22 23  1  0
 22 24  1  0
 11 25  1  0
 25 26  2  0
 26  2  1  0
 25  5  1  0
 24 17  1  0
  1 27  1  0
  1 28  1  0
  1 29  1  0
  3 30  1  0
  4 31  1  0
  6 32  1  0
  9 33  1  0
 17 34  1  6
 18 35  1  0
 18 36  1  0
 19 37  1  6
 20 38  1  0
 20 39  1  0
 20 40  1  0
 22 41  1  6
 23 42  1  0
 23 43  1  0
 23 44  1  0
 24 45  1  0
 24 46  1  0
 26 47  1  0
M  CHG  2   9  -1  17   1
M  END
>  <UniqueID>  (92) 
91

>  <SMILES>  (92) 
Cc1ccc2cc(C([NH-])=O)n(C(=O)OC(=O)[NH+]3C[C@@H](C)O[C@@H](C)C3)c2c1

>  <Energy>  (92) 
101.249859577276

>  <Genealogy>  (92) 
Cc1ccc2cc(C([NH-])=O)n(C(=O)OC(=O)[NH+]3CC(C)OC(C)C3)c2c1 (protonated)
Cc1ccc2cc(C([NH-])=O)n(C(=O)OC(=O)[NH+]3C[C@@H](C)O[C@@H](C)C3)c2c1 (chirality)
Cc1ccc2cc(C([NH-])=O)n(C(=O)OC(=O)[NH+]3C[C@@H](C)O[C@@H](C)C3)c2c1 (3D coordinates assigned)
Cc1ccc2cc(C([NH-])=O)n(C(=O)OC(=O)[NH+]3C[C@@H](C)O[C@@H](C)C3)c2c1 (nonaromatic ring conformer: 101.249859577276 kcal/mol)

>  <smiles>  (92) 
Cc1ccc2cc(C(N)=O)n(C(=O)OC(=O)N3CC(C)OC(C)C3)c2c1

>  <score_type>  (92) 
oracle

>  <origin>  (92) 
adg

>  <m_score__min__energy>  (92) 
-8.3499999999999996

>  <m_primary>  (92) 
energy

$$$$
92:0
     RDKit          3D

 46 48  0  0  0  0  0  0  0  0999 V2000
  139.9370  157.4890  135.5180 C   0  0  0  0  0  0  0  0  0  0  0  0
  140.1900  156.9480  134.1790 N   0  0  0  0  0  0  0  0  0  0  0  0
  139.1270  156.9370  133.1640 C   0  0  0  0  0  0  0  0  0  0  0  0
  138.9740  158.2960  132.5480 C   0  0  0  0  0  0  0  0  0  0  0  0
  139.9890  159.2550  132.6700 C   0  0  0  0  0  0  0  0  0  0  0  0
  139.8330  160.4990  132.0560 C   0  0  0  0  0  0  0  0  0  0  0  0
  138.6760  160.7720  131.3230 C   0  0  0  0  0  0  0  0  0  0  0  0
  137.6810  159.7930  131.2190 C   0  0  0  0  0  0  0  0  0  0  0  0
  136.4890  160.0460  130.4770 N   0  0  0  0  0  0  0  0  0  0  0  0
  137.8540  158.5890  131.8300 N   0  0  0  0  0  0  0  0  0  0  0  0
  141.4910  156.4190  133.8610 C   0  0  0  0  0  0  0  0  0  0  0  0
  141.7180  155.1830  133.9870 O   0  0  0  0  0  0  0  0  0  0  0  0
  142.4990  157.2890  133.4250 O   0  0  0  0  0  0  0  0  0  0  0  0
  143.2130  158.1810  134.2360 C   0  0  0  0  0  0  0  0  0  0  0  0
  142.7630  158.5380  135.3580 O   0  0  0  0  0  0  0  0  0  0  0  0
  144.4610  158.7100  133.7640 N   0  0  0  0  0  0  0  0  0  0  0  0
  144.8040  160.0210  133.6170 C   0  0  0  0  0  0  0  0  0  0  0  0
  143.8910  161.1770  133.7350 C   0  0  0  0  0  0  0  0  0  0  0  0
  142.4770  160.9990  133.7210 N   0  0  0  0  0  0  0  0  0  0  0  0
  144.3660  162.3420  133.8060 O   0  0  0  0  0  0  0  0  0  0  0  0
  146.1480  160.1390  133.2730 C   0  0  0  0  0  0  0  0  0  0  0  0
  146.6230  158.8500  133.2100 C   0  0  0  0  0  0  0  0  0  0  0  0
  147.9070  158.3830  132.9480 C   0  0  0  0  0  0  0  0  0  0  0  0
  148.1270  156.9970  133.0020 C   0  0  0  0  0  0  0  0  0  0  0  0
  147.0670  156.1040  133.3060 C   0  0  0  0  0  0  0  0  0  0  0  0
  147.3370  154.6250  133.4230 C   0  0  0  0  0  0  0  0  0  0  0  0
  148.5340  154.2940  132.8120 F   0  0  0  0  0  0  0  0  0  0  0  0
  146.3110  153.9260  132.8140 F   0  0  0  0  0  0  0  0  0  0  0  0
  147.4120  154.2490  134.7530 F   0  0  0  0  0  0  0  0  0  0  0  0
  145.7820  156.6220  133.5920 C   0  0  0  0  0  0  0  0  0  0  0  0
  145.5860  158.0050  133.5110 C   0  0  0  0  0  0  0  0  0  0  0  0
  140.2750  156.7663  136.2753 H   0  0  0  0  0  0  0  0  0  0  0  0
  140.4867  158.4338  135.6416 H   0  0  0  0  0  0  0  0  0  0  0  0
  138.8595  157.6728  135.6416 H   0  0  0  0  0  0  0  0  0  0  0  0
  139.3838  156.2106  132.3789 H   0  0  0  0  0  0  0  0  0  0  0  0
  138.1787  156.6561  133.6454 H   0  0  0  0  0  0  0  0  0  0  0  0
  140.8998  159.0295  133.2441 H   0  0  0  0  0  0  0  0  0  0  0  0
  140.6195  161.2624  132.1493 H   0  0  0  0  0  0  0  0  0  0  0  0
  138.5478  161.7478  130.8317 H   0  0  0  0  0  0  0  0  0  0  0  0
  135.8090  160.7760  130.7860 H   0  0  0  0  0  0  0  0  0  0  0  0
  136.2760  159.4900  129.6190 H   0  0  0  0  0  0  0  0  0  0  0  0
  142.0460  160.0980  134.0230 H   0  0  0  0  0  0  0  0  0  0  0  0
  146.7105  161.0665  133.0904 H   0  0  0  0  0  0  0  0  0  0  0  0
  148.7247  159.0779  132.7060 H   0  0  0  0  0  0  0  0  0  0  0  0
  149.1335  156.5987  132.8062 H   0  0  0  0  0  0  0  0  0  0  0  0
  144.9554  155.9524  133.8718 H   0  0  0  0  0  0  0  0  0  0  0  0
  1  2  1  0
  2  3  1  0
  3  4  1  0
  4  5  2  0
  5  6  1  0
  6  7  2  0
  7  8  1  0
  8  9  1  0
  8 10  2  0
  2 11  1  0
 11 12  2  0
 11 13  1  0
 13 14  1  0
 14 15  2  0
 14 16  1  0
 16 17  1  0
 17 18  1  0
 18 19  1  0
 18 20  2  0
 17 21  2  0
 21 22  1  0
 22 23  2  0
 23 24  1  0
 24 25  2  0
 25 26  1  0
 26 27  1  0
 26 28  1  0
 26 29  1  0
 25 30  1  0
 30 31  2  0
 10  4  1  0
 31 16  1  0
 31 22  1  0
  1 32  1  0
  1 33  1  0
  1 34  1  0
  3 35  1  0
  3 36  1  0
  5 37  1  0
  6 38  1  0
  7 39  1  0
  9 40  1  0
  9 41  1  0
 19 42  1  0
 21 43  1  0
 23 44  1  0
 24 45  1  0
 30 46  1  0
M  CHG  1  19  -1
M  END
>  <UniqueID>  (93) 
92

>  <SMILES>  (93) 
CN(Cc1cccc(N)n1)C(=O)OC(=O)n1c(C([NH-])=O)cc2ccc(C(F)(F)F)cc21

>  <Energy>  (93) 
81.87795770610786

>  <Genealogy>  (93) 
CN(Cc1cccc(N)n1)C(=O)OC(=O)n1c(C([NH-])=O)cc2ccc(C(F)(F)F)cc21 (protonated)
CN(Cc1cccc(N)n1)C(=O)OC(=O)n1c(C([NH-])=O)cc2ccc(C(F)(F)F)cc21 (3D coordinates assigned)
CN(Cc1cccc(N)n1)C(=O)OC(=O)n1c(C([NH-])=O)cc2ccc(C(F)(F)F)cc21 (optimized conformer: 81.87795770610786 kcal/mol)

>  <smiles>  (93) 
CN(Cc1cccc(N)n1)C(=O)OC(=O)n1c(C(N)=O)cc2ccc(C(F)(F)F)cc21

>  <score_type>  (93) 
oracle

>  <origin>  (93) 
adg

>  <m_score__min__energy>  (93) 
-8.3000000000000007

>  <m_primary>  (93) 
energy

$$$$
93:0
     RDKit          3D

 40 41  0  0  0  0  0  0  0  0999 V2000
  142.4010  151.0670  138.9830 C   0  0  0  0  0  0  0  0  0  0  0  0
  140.9820  151.6010  138.7580 C   0  0  2  0  0  0  0  0  0  0  0  0
  140.3470  151.0020  137.5310 C   0  0  0  0  0  0  0  0  0  0  0  0
  139.2710  150.3510  137.6130 O   0  0  0  0  0  0  0  0  0  0  0  0
  140.9790  151.1220  136.3000 O   0  0  0  0  0  0  0  0  0  0  0  0
  140.9690  153.1150  138.6810 C   0  0  0  0  0  0  0  0  0  0  0  0
  140.5510  153.8770  139.8030 C   0  0  0  0  0  0  0  0  0  0  0  0
  140.5340  155.2830  139.7520 C   0  0  0  0  0  0  0  0  0  0  0  0
  140.9310  155.8980  138.5700 C   0  0  0  0  0  0  0  0  0  0  0  0
  141.0270  157.2340  138.2510 C   0  0  0  0  0  0  0  0  0  0  0  0
  141.4900  157.2670  136.9360 C   0  0  0  0  0  0  0  0  0  0  0  0
  141.7040  158.5100  136.1650 C   0  0  0  0  0  0  0  0  0  0  0  0
  142.4930  158.4850  134.9790 N   0  0  0  0  0  0  0  0  0  0  0  0
  141.2080  159.6000  136.5540 O   0  0  0  0  0  0  0  0  0  0  0  0
  141.6650  156.0030  136.4640 N   0  0  0  0  0  0  0  0  0  0  0  0
  142.1740  155.6040  135.1820 C   0  0  0  0  0  0  0  0  0  0  0  0
  143.4190  155.5800  134.9930 O   0  0  0  0  0  0  0  0  0  0  0  0
  141.2760  155.2330  134.1220 N   0  0  0  0  0  0  0  0  0  0  0  0
  141.0410  153.8200  133.8210 C   0  0  0  0  0  0  0  0  0  0  0  0
  140.3350  156.4500  133.3100 S   0  0  0  0  0  0  0  0  0  0  0  0
  139.2970  157.2790  134.4920 C   0  0  0  0  0  0  0  0  0  0  0  0
  139.4810  155.8110  132.2510 O   0  0  0  0  0  0  0  0  0  0  0  0
  141.2480  157.4450  132.6530 O   0  0  0  0  0  0  0  0  0  0  0  0
  141.3260  155.1780  137.4750 C   0  0  0  0  0  0  0  0  0  0  0  0
  141.3720  153.7820  137.4990 C   0  0  0  0  0  0  0  0  0  0  0  0
  142.5980  150.9929  140.0627 H   0  0  0  0  0  0  0  0  0  0  0  0
  142.4954  150.0719  138.5239 H   0  0  0  0  0  0  0  0  0  0  0  0
  143.1280  151.7530  138.5239 H   0  0  0  0  0  0  0  0  0  0  0  0
  140.3823  151.2954  139.6280 H   0  0  0  0  0  0  0  0  0  0  0  0
  140.2367  153.3625  140.7230 H   0  0  0  0  0  0  0  0  0  0  0  0
  140.2162  155.8777  140.6211 H   0  0  0  0  0  0  0  0  0  0  0  0
  140.7891  158.0926  138.8962 H   0  0  0  0  0  0  0  0  0  0  0  0
  142.5730  157.6170  134.4060 H   0  0  0  0  0  0  0  0  0  0  0  0
  140.9471  153.2557  134.7605 H   0  0  0  0  0  0  0  0  0  0  0  0
  140.1136  153.7186  133.2381 H   0  0  0  0  0  0  0  0  0  0  0  0
  141.8856  153.4239  133.2381 H   0  0  0  0  0  0  0  0  0  0  0  0
  139.6216  157.0197  135.5105 H   0  0  0  0  0  0  0  0  0  0  0  0
  139.3741  158.3669  134.3483 H   0  0  0  0  0  0  0  0  0  0  0  0
  138.2531  156.9633  134.3483 H   0  0  0  0  0  0  0  0  0  0  0  0
  141.7131  153.2146  136.6206 H   0  0  0  0  0  0  0  0  0  0  0  0
  1  2  1  0
  2  3  1  0
  3  4  2  0
  3  5  1  0
  2  6  1  0
  6  7  2  0
  7  8  1  0
  8  9  2  0
  9 10  1  0
 10 11  2  0
 11 12  1  0
 12 13  1  0
 12 14  2  0
 11 15  1  0
 15 16  1  0
 16 17  2  0
 16 18  1  0
 18 19  1  0
 18 20  1  0
 20 21  1  0
 20 22  2  0
 20 23  2  0
 15 24  1  0
 24 25  2  0
 25  6  1  0
 24  9  1  0
  1 26  1  0
  1 27  1  0
  1 28  1  0
  2 29  1  1
  7 30  1  0
  8 31  1  0
 10 32  1  0
 13 33  1  0
 19 34  1  0
 19 35  1  0
 19 36  1  0
 21 37  1  0
 21 38  1  0
 21 39  1  0
 25 40  1  0
M  CHG  2   5  -1  13  -1
M  END
>  <UniqueID>  (94) 
93

>  <SMILES>  (94) 
C[C@H](C(=O)[O-])c1ccc2cc(C([NH-])=O)n(C(=O)N(C)S(C)(=O)=O)c2c1

>  <Energy>  (94) 
73.27151470391446

>  <Genealogy>  (94) 
CC(C(=O)[O-])c1ccc2cc(C([NH-])=O)n(C(=O)N(C)S(C)(=O)=O)c2c1 (protonated)
C[C@H](C(=O)[O-])c1ccc2cc(C([NH-])=O)n(C(=O)N(C)S(C)(=O)=O)c2c1 (chirality)
C[C@H](C(=O)[O-])c1ccc2cc(C([NH-])=O)n(C(=O)N(C)S(C)(=O)=O)c2c1 (3D coordinates assigned)
C[C@H](C(=O)[O-])c1ccc2cc(C([NH-])=O)n(C(=O)N(C)S(C)(=O)=O)c2c1 (optimized conformer: 73.27151470391446 kcal/mol)

>  <smiles>  (94) 
CC(C(=O)O)c1ccc2cc(C(N)=O)n(C(=O)N(C)S(C)(=O)=O)c2c1

>  <score_type>  (94) 
oracle

>  <origin>  (94) 
adg

>  <m_score__min__energy>  (94) 
-7.3300000000000001

>  <m_primary>  (94) 
energy

$$$$
94:0
     RDKit          3D

 44 45  0  0  0  0  0  0  0  0999 V2000
  142.9030  160.3260  133.7440 C   0  0  0  0  0  0  0  0  0  0  0  0
  142.6000  158.9020  134.2340 C   0  0  2  0  0  0  0  0  0  0  0  0
  143.1620  157.9650  133.3490 O   0  0  0  0  0  0  0  0  0  0  0  0
  141.0810  158.6460  134.4010 C   0  0  1  0  0  0  0  0  0  0  0  0
  140.7400  157.3100  133.9000 N   0  0  0  0  0  0  0  0  0  0  0  0
  139.4380  156.9790  133.3910 C   0  0  0  0  0  0  0  0  0  0  0  0
  138.5180  157.8410  133.3830 O   0  0  0  0  0  0  0  0  0  0  0  0
  139.1400  155.5870  132.9200 C   0  0  0  0  0  0  0  0  0  0  0  0
  140.3370  154.8320  132.7420 O   0  0  0  0  0  0  0  0  0  0  0  0
  141.1200  154.3610  133.8020 C   0  0  0  0  0  0  0  0  0  0  0  0
  140.9800  154.8400  134.9600 O   0  0  0  0  0  0  0  0  0  0  0  0
  142.1120  153.3520  133.5580 N   0  0  0  0  0  0  0  0  0  0  0  0
  143.4610  153.4350  133.7460 C   0  0  0  0  0  0  0  0  0  0  0  0
  144.1810  154.5470  134.4010 C   0  0  0  0  0  0  0  0  0  0  0  0
  143.5060  155.7490  134.7570 N   0  0  0  0  0  0  0  0  0  0  0  0
  145.3980  154.4120  134.6970 O   0  0  0  0  0  0  0  0  0  0  0  0
  144.0890  152.2740  133.3020 C   0  0  0  0  0  0  0  0  0  0  0  0
  143.0770  151.4640  132.8430 C   0  0  0  0  0  0  0  0  0  0  0  0
  143.1360  150.1980  132.2690 C   0  0  0  0  0  0  0  0  0  0  0  0
  141.9330  149.6090  131.8460 C   0  0  0  0  0  0  0  0  0  0  0  0
  140.6970  150.2850  132.0110 C   0  0  0  0  0  0  0  0  0  0  0  0
  139.4210  149.6700  131.4960 C   0  0  0  0  0  0  0  0  0  0  0  0
  139.3310  148.3410  131.8730 F   0  0  0  0  0  0  0  0  0  0  0  0
  138.3420  150.3600  132.0160 F   0  0  0  0  0  0  0  0  0  0  0  0
  139.3720  149.7310  130.1130 F   0  0  0  0  0  0  0  0  0  0  0  0
  140.6830  151.5820  132.5760 C   0  0  0  0  0  0  0  0  0  0  0  0
  141.8940  152.1360  133.0070 C   0  0  0  0  0  0  0  0  0  0  0  0
  140.6610  158.7510  135.8420 C   0  0  0  0  0  0  0  0  0  0  0  0
  140.0640  157.7920  136.3980 O   0  0  0  0  0  0  0  0  0  0  0  0
  140.9360  159.9010  136.5720 O   0  0  0  0  0  0  0  0  0  0  0  0
  143.0442  160.9895  134.6100 H   0  0  0  0  0  0  0  0  0  0  0  0
  143.8194  160.3172  133.1356 H   0  0  0  0  0  0  0  0  0  0  0  0
  142.0624  160.6910  133.1356 H   0  0  0  0  0  0  0  0  0  0  0  0
  143.0541  158.7890  135.2295 H   0  0  0  0  0  0  0  0  0  0  0  0
  143.3540  157.1400  133.8670 H   0  0  0  0  0  0  0  0  0  0  0  0
  140.5477  159.4147  133.8226 H   0  0  0  0  0  0  0  0  0  0  0  0
  141.5010  156.5990  133.8160 H   0  0  0  0  0  0  0  0  0  0  0  0
  138.5070  155.0843  133.6660 H   0  0  0  0  0  0  0  0  0  0  0  0
  138.6234  155.6518  131.9510 H   0  0  0  0  0  0  0  0  0  0  0  0
  142.6400  156.0450  134.2540 H   0  0  0  0  0  0  0  0  0  0  0  0
  145.1663  152.0520  133.3156 H   0  0  0  0  0  0  0  0  0  0  0  0
  144.0959  149.6741  132.1500 H   0  0  0  0  0  0  0  0  0  0  0  0
  141.9496  148.6120  131.3814 H   0  0  0  0  0  0  0  0  0  0  0  0
  139.7416  152.1424  132.6744 H   0  0  0  0  0  0  0  0  0  0  0  0
  1  2  1  0
  2  3  1  0
  2  4  1  0
  4  5  1  0
  5  6  1  0
  6  7  2  0
  6  8  1  0
  8  9  1  0
  9 10  1  0
 10 11  2  0
 10 12  1  0
 12 13  1  0
 13 14  1  0
 14 15  1  0
 14 16  2  0
 13 17  2  0
 17 18  1  0
 18 19  2  0
 19 20  1  0
 20 21  2  0
 21 22  1  0
 22 23  1  0
 22 24  1  0
 22 25  1  0
 21 26  1  0
 26 27  2  0
  4 28  1  0
 28 29  2  0
 28 30  1  0
 27 12  1  0
 27 18  1  0
  1 31  1  0
  1 32  1  0
  1 33  1  0
  2 34  1  1
  3 35  1  0
  4 36  1  6
  5 37  1  0
  8 38  1  0
  8 39  1  0
 15 40  1  0
 17 41  1  0
 19 42  1  0
 20 43  1  0
 26 44  1  0
M  CHG  2  15  -1  30  -1
M  END
>  <UniqueID>  (95) 
94

>  <SMILES>  (95) 
C[C@H](O)[C@@H](NC(=O)COC(=O)n1c(C([NH-])=O)cc2ccc(C(F)(F)F)cc21)C(=O)[O-]

>  <Energy>  (95) 
77.0254645363428

>  <Genealogy>  (95) 
CC(O)C(NC(=O)COC(=O)n1c(C([NH-])=O)cc2ccc(C(F)(F)F)cc21)C(=O)[O-] (protonated)
C[C@H](O)[C@@H](NC(=O)COC(=O)n1c(C([NH-])=O)cc2ccc(C(F)(F)F)cc21)C(=O)[O-] (chirality)
C[C@H](O)[C@@H](NC(=O)COC(=O)n1c(C([NH-])=O)cc2ccc(C(F)(F)F)cc21)C(=O)[O-] (3D coordinates assigned)
C[C@H](O)[C@@H](NC(=O)COC(=O)n1c(C([NH-])=O)cc2ccc(C(F)(F)F)cc21)C(=O)[O-] (optimized conformer: 77.0254645363428 kcal/mol)

>  <smiles>  (95) 
CC(O)C(NC(=O)COC(=O)n1c(C(N)=O)cc2ccc(C(F)(F)F)cc21)C(=O)O

>  <score_type>  (95) 
oracle

>  <origin>  (95) 
adg

>  <m_score__min__energy>  (95) 
-6.2699999999999996

>  <m_primary>  (95) 
energy

$$$$
95:0
     RDKit          3D

 40 42  0  0  0  0  0  0  0  0999 V2000
  143.6190  161.7390  133.7330 N   0  0  0  0  0  0  0  0  0  0  0  0
  144.9790  161.6030  134.1330 C   0  0  0  0  0  0  0  0  0  0  0  0
  145.4810  162.4540  134.9160 O   0  0  0  0  0  0  0  0  0  0  0  0
  145.7920  160.4490  133.6920 C   0  0  0  0  0  0  0  0  0  0  0  0
  147.1490  160.5380  133.3950 C   0  0  0  0  0  0  0  0  0  0  0  0
  147.5480  159.2500  133.1200 C   0  0  0  0  0  0  0  0  0  0  0  0
  148.7960  158.7590  132.7550 C   0  0  0  0  0  0  0  0  0  0  0  0
  148.9160  157.3820  132.5020 C   0  0  0  0  0  0  0  0  0  0  0  0
  147.7890  156.5230  132.6110 C   0  0  0  0  0  0  0  0  0  0  0  0
  147.8860  155.1110  132.3440 N   0  0  0  0  0  0  0  0  0  0  0  0
  148.0300  154.0940  133.3870 C   0  0  0  0  0  0  0  0  0  0  0  0
  147.6960  154.5200  134.8270 C   0  0  0  0  0  0  0  0  0  0  0  0
  146.5620  153.8610  135.3290 O   0  0  0  0  0  0  0  0  0  0  0  0
  147.5870  152.7060  132.9430 C   0  0  0  0  0  0  0  0  0  0  0  0
  149.0710  153.0170  133.1070 C   0  0  0  0  0  0  0  0  0  0  0  0
  146.5380  157.0640  132.9840 C   0  0  0  0  0  0  0  0  0  0  0  0
  146.4540  158.4360  133.2480 C   0  0  0  0  0  0  0  0  0  0  0  0
  145.3650  159.1570  133.5950 N   0  0  0  0  0  0  0  0  0  0  0  0
  144.0270  158.6560  133.7410 C   0  0  0  0  0  0  0  0  0  0  0  0
  143.2830  159.0990  134.6590 O   0  0  0  0  0  0  0  0  0  0  0  0
  143.5460  157.6960  132.8460 O   0  0  0  0  0  0  0  0  0  0  0  0
  142.9200  156.4910  133.2720 C   0  0  0  0  0  0  0  0  0  0  0  0
  143.9340  155.6170  133.9280 C   0  0  0  0  0  0  0  0  0  0  0  0
  144.3540  154.5840  133.3440 O   0  0  0  0  0  0  0  0  0  0  0  0
  144.3770  155.9090  135.2120 O   0  0  0  0  0  0  0  0  0  0  0  0
  143.0370  160.9000  133.5140 H   0  0  0  0  0  0  0  0  0  0  0  0
  147.7706  161.4454  133.3827 H   0  0  0  0  0  0  0  0  0  0  0  0
  149.6642  159.4286  132.6668 H   0  0  0  0  0  0  0  0  0  0  0  0
  149.8928  156.9644  132.2165 H   0  0  0  0  0  0  0  0  0  0  0  0
  147.7590  154.7770  131.3620 H   0  0  0  0  0  0  0  0  0  0  0  0
  148.5553  154.2870  135.4730 H   0  0  0  0  0  0  0  0  0  0  0  0
  147.4811  155.5988  134.8172 H   0  0  0  0  0  0  0  0  0  0  0  0
  145.7690  154.2970  134.9200 H   0  0  0  0  0  0  0  0  0  0  0  0
  147.0836  152.0353  133.6549 H   0  0  0  0  0  0  0  0  0  0  0  0
  146.9599  152.3128  132.1293 H   0  0  0  0  0  0  0  0  0  0  0  0
  149.6381  152.5709  133.9373 H   0  0  0  0  0  0  0  0  0  0  0  0
  149.9580  152.9413  132.4608 H   0  0  0  0  0  0  0  0  0  0  0  0
  145.6494  156.4208  133.0651 H   0  0  0  0  0  0  0  0  0  0  0  0
  142.1186  156.7260  133.9879 H   0  0  0  0  0  0  0  0  0  0  0  0
  142.4903  155.9707  132.4033 H   0  0  0  0  0  0  0  0  0  0  0  0
  1  2  1  0
  2  3  2  0
  2  4  1  0
  4  5  2  0
  5  6  1  0
  6  7  2  0
  7  8  1  0
  8  9  2  0
  9 10  1  0
 10 11  1  0
 11 12  1  0
 12 13  1  0
 11 14  1  0
 14 15  1  0
  9 16  1  0
 16 17  2  0
 17 18  1  0
 18 19  1  0
 19 20  2  0
 19 21  1  0
 21 22  1  0
 22 23  1  0
 23 24  2  0
 23 25  1  0
 18  4  1  0
 17  6  1  0
 15 11  1  0
  1 26  1  0
  5 27  1  0
  7 28  1  0
  8 29  1  0
 10 30  1  0
 12 31  1  0
 12 32  1  0
 13 33  1  0
 14 34  1  0
 14 35  1  0
 15 36  1  0
 15 37  1  0
 16 38  1  0
 22 39  1  0
 22 40  1  0
M  CHG  2   1  -1  25  -1
M  END
>  <UniqueID>  (96) 
95

>  <SMILES>  (96) 
[NH-]C(=O)c1cc2ccc(NC3(CO)CC3)cc2n1C(=O)OCC(=O)[O-]

>  <Energy>  (96) 
345.4426306039354

>  <Genealogy>  (96) 
[NH-]C(=O)c1cc2ccc(NC3(CO)CC3)cc2n1C(=O)OCC(=O)[O-] (protonated)
[NH-]C(=O)c1cc2ccc(NC3(CO)CC3)cc2n1C(=O)OCC(=O)[O-] (3D coordinates assigned)
[NH-]C(=O)c1cc2ccc(NC3(CO)CC3)cc2n1C(=O)OCC(=O)[O-] (nonaromatic ring conformer: 345.4426306039354 kcal/mol)

>  <smiles>  (96) 
NC(=O)c1cc2ccc(NC3(CO)CC3)cc2n1C(=O)OCC(=O)O

>  <score_type>  (96) 
oracle

>  <origin>  (96) 
adg

>  <m_score__min__energy>  (96) 
-6.8300000000000001

>  <m_primary>  (96) 
energy

$$$$
96:0
     RDKit          3D

 35 36  0  0  0  0  0  0  0  0999 V2000
  144.3760  154.3610  133.2130 C   0  0  0  0  0  0  0  0  0  0  0  0
  145.1680  155.3110  133.9990 N   0  0  0  0  0  0  0  0  0  0  0  0
  145.3400  155.0980  135.4430 C   0  0  0  0  0  0  0  0  0  0  0  0
  146.7160  154.5860  135.7240 C   0  0  0  0  0  0  0  0  0  0  0  0
  147.7240  155.2010  135.2870 O   0  0  0  0  0  0  0  0  0  0  0  0
  146.8850  153.4020  136.4310 O   0  0  0  0  0  0  0  0  0  0  0  0
  145.8820  156.3620  133.3170 C   0  0  0  0  0  0  0  0  0  0  0  0
  146.8550  156.0780  132.5680 O   0  0  0  0  0  0  0  0  0  0  0  0
  145.5100  157.7380  133.4850 N   0  0  0  0  0  0  0  0  0  0  0  0
  146.3330  158.8160  133.6170 C   0  0  0  0  0  0  0  0  0  0  0  0
  147.8110  158.7540  133.6800 C   0  0  0  0  0  0  0  0  0  0  0  0
  148.4810  157.5430  134.0340 N   0  0  0  0  0  0  0  0  0  0  0  0
  148.4960  159.7760  133.4140 O   0  0  0  0  0  0  0  0  0  0  0  0
  145.5810  159.9860  133.7330 C   0  0  0  0  0  0  0  0  0  0  0  0
  144.2650  159.5820  133.6800 C   0  0  0  0  0  0  0  0  0  0  0  0
  143.0930  160.3290  133.7310 C   0  0  0  0  0  0  0  0  0  0  0  0
  141.8700  159.6450  133.6270 C   0  0  0  0  0  0  0  0  0  0  0  0
  141.8370  158.2320  133.4880 C   0  0  0  0  0  0  0  0  0  0  0  0
  140.5220  157.5170  133.3100 C   0  0  0  0  0  0  0  0  0  0  0  0
  139.8850  158.0120  132.1890 F   0  0  0  0  0  0  0  0  0  0  0  0
  140.7250  156.1560  133.1510 F   0  0  0  0  0  0  0  0  0  0  0  0
  139.7090  157.7060  134.4150 F   0  0  0  0  0  0  0  0  0  0  0  0
  143.0520  157.5120  133.4210 C   0  0  0  0  0  0  0  0  0  0  0  0
  144.2520  158.2200  133.5360 C   0  0  0  0  0  0  0  0  0  0  0  0
  143.8217  153.6960  133.8916 H   0  0  0  0  0  0  0  0  0  0  0  0
  143.6661  154.9120  132.5787 H   0  0  0  0  0  0  0  0  0  0  0  0
  145.0458  153.7618  132.5787 H   0  0  0  0  0  0  0  0  0  0  0  0
  145.1908  156.0508  135.9721 H   0  0  0  0  0  0  0  0  0  0  0  0
  144.6022  154.3593  135.7894 H   0  0  0  0  0  0  0  0  0  0  0  0
  149.5250  157.5050  134.0360 H   0  0  0  0  0  0  0  0  0  0  0  0
  147.9540  156.6940  134.3350 H   0  0  0  0  0  0  0  0  0  0  0  0
  145.9590  161.0131  133.8434 H   0  0  0  0  0  0  0  0  0  0  0  0
  143.1225  161.4222  133.8492 H   0  0  0  0  0  0  0  0  0  0  0  0
  140.9270  160.2107  133.6535 H   0  0  0  0  0  0  0  0  0  0  0  0
  143.0531  156.4208  133.2817 H   0  0  0  0  0  0  0  0  0  0  0  0
  1  2  1  0
  2  3  1  0
  3  4  1  0
  4  5  2  0
  4  6  1  0
  2  7  1  0
  7  8  2  0
  7  9  1  0
  9 10  1  0
 10 11  1  0
 11 12  1  0
 11 13  2  0
 10 14  2  0
 14 15  1  0
 15 16  2  0
 16 17  1  0
 17 18  2  0
 18 19  1  0
 19 20  1  0
 19 21  1  0
 19 22  1  0
 18 23  1  0
 23 24  2  0
 24  9  1  0
 24 15  1  0
  1 25  1  0
  1 26  1  0
  1 27  1  0
  3 28  1  0
  3 29  1  0
 12 30  1  0
 12 31  1  0
 14 32  1  0
 16 33  1  0
 17 34  1  0
 23 35  1  0
M  CHG  1   6  -1
M  END
>  <UniqueID>  (97) 
96

>  <SMILES>  (97) 
CN(CC(=O)[O-])C(=O)n1c(C(N)=O)cc2ccc(C(F)(F)F)cc21

>  <Energy>  (97) 
71.98231712098205

>  <Genealogy>  (97) 
CN(CC(=O)[O-])C(=O)n1c(C(N)=O)cc2ccc(C(F)(F)F)cc21 (protonated)
CN(CC(=O)[O-])C(=O)n1c(C(N)=O)cc2ccc(C(F)(F)F)cc21 (3D coordinates assigned)
CN(CC(=O)[O-])C(=O)n1c(C(N)=O)cc2ccc(C(F)(F)F)cc21 (optimized conformer: 71.98231712098205 kcal/mol)

>  <smiles>  (97) 
CN(CC(=O)O)C(=O)n1c(C(N)=O)cc2ccc(C(F)(F)F)cc21

>  <score_type>  (97) 
oracle

>  <origin>  (97) 
adg

>  <m_score__min__energy>  (97) 
-5.8899999999999997

>  <m_primary>  (97) 
energy

$$$$
97:0
     RDKit          3D

 54 56  0  0  0  0  0  0  0  0999 V2000
  148.1170  153.6910  134.2010 C   0  0  0  0  0  0  0  0  0  0  0  0
  147.0620  154.8120  134.3090 C   0  0  0  0  0  0  0  0  0  0  0  0
  147.6640  156.0130  135.0580 C   0  0  0  0  0  0  0  0  0  0  0  0
  145.8470  154.2750  135.0880 C   0  0  0  0  0  0  0  0  0  0  0  0
  146.6230  155.2680  132.9320 C   0  0  0  0  0  0  0  0  0  0  0  0
  147.2840  156.1450  132.3070 O   0  0  0  0  0  0  0  0  0  0  0  0
  145.4390  154.7650  132.3820 O   0  0  0  0  0  0  0  0  0  0  0  0
  144.2570  155.5470  132.2410 C   0  0  0  0  0  0  0  0  0  0  0  0
  143.7140  155.8530  133.5230 O   0  0  0  0  0  0  0  0  0  0  0  0
  142.5010  156.5300  133.6890 C   0  0  0  0  0  0  0  0  0  0  0  0
  141.4060  155.9180  133.5530 O   0  0  0  0  0  0  0  0  0  0  0  0
  142.5030  157.9210  134.0510 N   0  0  0  0  0  0  0  0  0  0  0  0
  141.4630  158.6570  134.5350 C   0  0  0  0  0  0  0  0  0  0  0  0
  140.1490  158.1290  134.9490 C   0  0  0  0  0  0  0  0  0  0  0  0
  139.2430  157.6310  133.9670 N   0  0  0  0  0  0  0  0  0  0  0  0
  139.8000  158.1480  136.1580 O   0  0  0  0  0  0  0  0  0  0  0  0
  141.8350  159.9920  134.6780 C   0  0  0  0  0  0  0  0  0  0  0  0
  143.1470  160.0500  134.2680 C   0  0  0  0  0  0  0  0  0  0  0  0
  144.0120  161.1380  134.1890 C   0  0  0  0  0  0  0  0  0  0  0  0
  145.3090  160.9130  133.7000 C   0  0  0  0  0  0  0  0  0  0  0  0
  145.7180  159.6170  133.2910 C   0  0  0  0  0  0  0  0  0  0  0  0
  147.0510  159.3970  132.7840 N   0  0  0  0  0  0  0  0  0  0  0  0
  148.0180  158.6500  133.5980 C   0  0  0  0  0  0  0  0  0  0  0  0
  149.4140  158.7030  132.9720 C   0  0  0  0  0  0  0  0  0  0  0  0
  149.3500  158.3450  131.5510 N   0  0  0  0  0  0  0  0  0  0  0  0
  148.4800  159.2400  130.7560 C   0  0  0  0  0  0  0  0  0  0  0  0
  147.5170  160.1110  131.5890 C   0  0  0  0  0  0  0  0  0  0  0  0
  144.8080  158.5390  133.3890 C   0  0  0  0  0  0  0  0  0  0  0  0
  143.5270  158.7880  133.8960 C   0  0  0  0  0  0  0  0  0  0  0  0
  148.4174  153.3718  135.2099 H   0  0  0  0  0  0  0  0  0  0  0  0
  147.6888  152.8355  133.6581 H   0  0  0  0  0  0  0  0  0  0  0  0
  148.9969  154.0666  133.6581 H   0  0  0  0  0  0  0  0  0  0  0  0
  147.5812  155.8478  136.1424 H   0  0  0  0  0  0  0  0  0  0  0  0
  148.7236  156.1226  134.7836 H   0  0  0  0  0  0  0  0  0  0  0  0
  147.1177  156.9275  134.7836 H   0  0  0  0  0  0  0  0  0  0  0  0
  146.0376  154.3592  136.1681 H   0  0  0  0  0  0  0  0  0  0  0  0
  144.9547  154.8626  134.8262 H   0  0  0  0  0  0  0  0  0  0  0  0
  145.6809  153.2196  134.8262 H   0  0  0  0  0  0  0  0  0  0  0  0
  144.5007  156.4828  131.7167 H   0  0  0  0  0  0  0  0  0  0  0  0
  143.5151  154.9757  131.6637 H   0  0  0  0  0  0  0  0  0  0  0  0
  139.5740  157.0060  133.1990 H   0  0  0  0  0  0  0  0  0  0  0  0
  141.2123  160.8228  135.0413 H   0  0  0  0  0  0  0  0  0  0  0  0
  143.6895  162.1426  134.4999 H   0  0  0  0  0  0  0  0  0  0  0  0
  146.0171  161.7521  133.6331 H   0  0  0  0  0  0  0  0  0  0  0  0
  148.0578  159.0907  134.6051 H   0  0  0  0  0  0  0  0  0  0  0  0
  147.6959  157.5995  133.6512 H   0  0  0  0  0  0  0  0  0  0  0  0
  149.8176  159.7214  133.0716 H   0  0  0  0  0  0  0  0  0  0  0  0
  150.0662  157.9859  133.4921 H   0  0  0  0  0  0  0  0  0  0  0  0
  148.9860  157.3650  131.4760 H   0  0  0  0  0  0  0  0  0  0  0  0
  149.1242  159.9092  130.1668 H   0  0  0  0  0  0  0  0  0  0  0  0
  147.8493  158.5877  130.1342 H   0  0  0  0  0  0  0  0  0  0  0  0
  148.0406  161.0270  131.9002 H   0  0  0  0  0  0  0  0  0  0  0  0
  146.6430  160.3547  130.9671 H   0  0  0  0  0  0  0  0  0  0  0  0
  145.1004  157.5265  133.0737 H   0  0  0  0  0  0  0  0  0  0  0  0
  1  2  1  0
  2  3  1  0
  2  4  1  0
  2  5  1  0
  5  6  2  0
  5  7  1  0
  7  8  1  0
  8  9  1  0
  9 10  1  0
 10 11  2  0
 10 12  1  0
 12 13  1  0
 13 14  1  0
 14 15  1  0
 14 16  2  0
 13 17  2  0
 17 18  1  0
 18 19  2  0
 19 20  1  0
 20 21  2  0
 21 22  1  0
 22 23  1  0
 23 24  1  0
 24 25  1  0
 25 26  1  0
 26 27  1  0
 21 28  1  0
 28 29  2  0
 29 12  1  0
 29 18  1  0
 27 22  1  0
  1 30  1  0
  1 31  1  0
  1 32  1  0
  3 33  1  0
  3 34  1  0
  3 35  1  0
  4 36  1  0
  4 37  1  0
  4 38  1  0
  8 39  1  0
  8 40  1  0
 15 41  1  0
 17 42  1  0
 19 43  1  0
 20 44  1  0
 23 45  1  0
 23 46  1  0
 24 47  1  0
 24 48  1  0
 25 49  1  0
 26 50  1  0
 26 51  1  0
 27 52  1  0
 27 53  1  0
 28 54  1  0
M  CHG  1  15  -1
M  END
>  <UniqueID>  (98) 
97

>  <SMILES>  (98) 
CC(C)(C)C(=O)OCOC(=O)n1c(C([NH-])=O)cc2ccc(N3CCNCC3)cc21

>  <Energy>  (98) 
93.31491510430322

>  <Genealogy>  (98) 
CC(C)(C)C(=O)OCOC(=O)n1c(C([NH-])=O)cc2ccc(N3CCNCC3)cc21 (protonated)
CC(C)(C)C(=O)OCOC(=O)n1c(C([NH-])=O)cc2ccc(N3CCNCC3)cc21 (3D coordinates assigned)
CC(C)(C)C(=O)OCOC(=O)n1c(C([NH-])=O)cc2ccc(N3CCNCC3)cc21 (nonaromatic ring conformer: 93.31491510430322 kcal/mol)

>  <smiles>  (98) 
CC(C)(C)C(=O)OCOC(=O)n1c(C(N)=O)cc2ccc(N3CCNCC3)cc21

>  <score_type>  (98) 
oracle

>  <origin>  (98) 
adg

>  <m_score__min__energy>  (98) 
-8.2899999999999991

>  <m_primary>  (98) 
energy

$$$$
