0:0
     RDKit          3D

 39 40  0  0  0  0  0  0  0  0999 V2000
  138.2510  159.0040  131.4460 C   0  0  0  0  0  0  0  0  0  0  0  0
  138.6610  158.2490  132.7050 C   0  0  0  0  0  0  0  0  0  0  0  0
  140.3250  158.6740  133.1910 S   0  0  0  0  0  0  0  0  0  0  0  0
  140.9220  159.6040  132.1730 O   0  0  0  0  0  0  0  0  0  0  0  0
  140.2880  159.3560  134.5300 O   0  0  0  0  0  0  0  0  0  0  0  0
  141.2950  157.1720  133.3090 C   0  0  0  0  0  0  0  0  0  0  0  0
  142.7750  157.4000  132.9860 C   0  0  0  0  0  0  0  0  0  0  0  0
  143.4500  158.2870  133.9960 C   0  0  0  0  0  0  0  0  0  0  0  0
  142.8840  158.4990  135.1030 O   0  0  0  0  0  0  0  0  0  0  0  0
  144.7010  158.9350  133.7010 N   0  0  0  0  0  0  0  0  0  0  0  0
  144.9720  160.2710  133.6760 C   0  0  0  0  0  0  0  0  0  0  0  0
  143.9740  161.3580  133.7330 C   0  0  0  0  0  0  0  0  0  0  0  0
  142.5810  161.0760  133.6410 N   0  0  0  0  0  0  0  0  0  0  0  0
  144.3590  162.5550  133.8130 O   0  0  0  0  0  0  0  0  0  0  0  0
  146.3310  160.4910  133.4600 C   0  0  0  0  0  0  0  0  0  0  0  0
  146.8850  159.2390  133.3250 C   0  0  0  0  0  0  0  0  0  0  0  0
  148.2050  158.8640  133.0970 C   0  0  0  0  0  0  0  0  0  0  0  0
  148.4950  157.4920  133.0140 C   0  0  0  0  0  0  0  0  0  0  0  0
  147.4650  156.5230  133.1360 C   0  0  0  0  0  0  0  0  0  0  0  0
  147.7970  155.0530  133.1020 C   0  0  0  0  0  0  0  0  0  0  0  0
  148.0750  154.5830  134.3740 F   0  0  0  0  0  0  0  0  0  0  0  0
  148.9020  154.8210  132.3030 F   0  0  0  0  0  0  0  0  0  0  0  0
  146.7170  154.3570  132.5900 F   0  0  0  0  0  0  0  0  0  0  0  0
  146.1400  156.9460  133.3850 C   0  0  0  0  0  0  0  0  0  0  0  0
  145.8790  158.3180  133.4650 C   0  0  0  0  0  0  0  0  0  0  0  0
  137.7436  159.9384  131.7277 H   0  0  0  0  0  0  0  0  0  0  0  0
  139.1461  159.2378  130.8508 H   0  0  0  0  0  0  0  0  0  0  0  0
  137.5675  158.3806  130.8508 H   0  0  0  0  0  0  0  0  0  0  0  0
  137.9704  158.5082  133.5210 H   0  0  0  0  0  0  0  0  0  0  0  0
  138.6215  157.1699  132.4955 H   0  0  0  0  0  0  0  0  0  0  0  0
  141.2143  156.7800  134.3336 H   0  0  0  0  0  0  0  0  0  0  0  0
  140.8984  156.4602  132.5701 H   0  0  0  0  0  0  0  0  0  0  0  0
  143.2877  156.4269  132.9712 H   0  0  0  0  0  0  0  0  0  0  0  0
  142.8327  157.8996  132.0077 H   0  0  0  0  0  0  0  0  0  0  0  0
  142.2130  160.1180  133.8290 H   0  0  0  0  0  0  0  0  0  0  0  0
  146.8502  161.4594  133.4084 H   0  0  0  0  0  0  0  0  0  0  0  0
  148.9974  159.6187  132.9851 H   0  0  0  0  0  0  0  0  0  0  0  0
  149.5327  157.1647  132.8525 H   0  0  0  0  0  0  0  0  0  0  0  0
  145.3308  156.2120  133.5132 H   0  0  0  0  0  0  0  0  0  0  0  0
  1  2  1  0
  2  3  1  0
  3  4  2  0
  3  5  2  0
  3  6  1  0
  6  7  1  0
  7  8  1  0
  8  9  2  0
  8 10  1  0
 10 11  1  0
 11 12  1  0
 12 13  1  0
 12 14  2  0
 11 15  2  0
 15 16  1  0
 16 17  2  0
 17 18  1  0
 18 19  2  0
 19 20  1  0
 20 21  1  0
 20 22  1  0
 20 23  1  0
 19 24  1  0
 24 25  2  0
 25 10  1  0
 25 16  1  0
  1 26  1  0
  1 27  1  0
  1 28  1  0
  2 29  1  0
  2 30  1  0
  6 31  1  0
  6 32  1  0
  7 33  1  0
  7 34  1  0
 13 35  1  0
 15 36  1  0
 17 37  1  0
 18 38  1  0
 24 39  1  0
M  CHG  1  13  -1
M  END
>  <UniqueID>  (1) 
1

>  <SMILES>  (1) 
CCS(=O)(=O)CCC(=O)n1c(C([NH-])=O)cc2ccc(C(F)(F)F)cc21

>  <Energy>  (1) 
66.98617833863739

>  <Genealogy>  (1) 
CCS(=O)(=O)CCC(=O)n1c(C([NH-])=O)cc2ccc(C(F)(F)F)cc21 (protonated)
CCS(=O)(=O)CCC(=O)n1c(C([NH-])=O)cc2ccc(C(F)(F)F)cc21 (3D coordinates assigned)
CCS(=O)(=O)CCC(=O)n1c(C([NH-])=O)cc2ccc(C(F)(F)F)cc21 (optimized conformer: 66.98617833863739 kcal/mol)

>  <smiles>  (1) 
CCS(=O)(=O)CCC(=O)n1c(C(N)=O)cc2ccc(C(F)(F)F)cc21

>  <score_type>  (1) 
oracle

>  <origin>  (1) 
adg

>  <m_score__min__energy>  (1) 
-6.5499999999999998

>  <m_primary>  (1) 
energy

$$$$
1:0
     RDKit          3D

 35 36  0  0  0  0  0  0  0  0999 V2000
  143.0110  161.3500  133.7310 N   0  0  0  0  0  0  0  0  0  0  0  0
  144.4140  161.5750  133.8410 C   0  0  0  0  0  0  0  0  0  0  0  0
  144.8370  162.7450  134.0380 O   0  0  0  0  0  0  0  0  0  0  0  0
  145.3770  160.4670  133.6700 C   0  0  0  0  0  0  0  0  0  0  0  0
  146.7460  160.6620  133.5070 C   0  0  0  0  0  0  0  0  0  0  0  0
  147.2700  159.4080  133.2910 C   0  0  0  0  0  0  0  0  0  0  0  0
  148.5880  159.0120  133.0790 C   0  0  0  0  0  0  0  0  0  0  0  0
  148.8460  157.6410  132.9170 C   0  0  0  0  0  0  0  0  0  0  0  0
  147.7900  156.7020  132.9770 C   0  0  0  0  0  0  0  0  0  0  0  0
  148.0690  155.2990  132.8210 C   0  0  0  0  0  0  0  0  0  0  0  0
  148.3020  154.1240  132.6900 C   0  0  0  0  0  0  0  0  0  0  0  0
  148.5860  152.6920  132.5300 C   0  0  0  0  0  0  0  0  0  0  0  0
  147.3590  151.9520  132.2410 N   0  0  0  0  0  0  0  0  0  0  0  0
  146.4660  157.1340  133.1930 C   0  0  0  0  0  0  0  0  0  0  0  0
  146.2360  158.5080  133.3340 C   0  0  0  0  0  0  0  0  0  0  0  0
  145.0650  159.1430  133.5680 N   0  0  0  0  0  0  0  0  0  0  0  0
  143.7850  158.5260  133.7740 C   0  0  0  0  0  0  0  0  0  0  0  0
  143.2360  158.5780  134.9090 O   0  0  0  0  0  0  0  0  0  0  0  0
  143.1410  157.8890  132.7090 O   0  0  0  0  0  0  0  0  0  0  0  0
  141.7310  157.7120  132.6570 C   0  0  0  0  0  0  0  0  0  0  0  0
  141.0600  159.0470  132.6770 C   0  0  0  0  0  0  0  0  0  0  0  0
  140.6450  159.5100  133.7270 O   0  0  0  0  0  0  0  0  0  0  0  0
  142.6020  160.4060  133.9140 H   0  0  0  0  0  0  0  0  0  0  0  0
  147.2926  161.6159  133.5432 H   0  0  0  0  0  0  0  0  0  0  0  0
  149.4023  159.7505  133.0396 H   0  0  0  0  0  0  0  0  0  0  0  0
  149.8756  157.2954  132.7424 H   0  0  0  0  0  0  0  0  0  0  0  0
  149.2946  152.5548  131.6999 H   0  0  0  0  0  0  0  0  0  0  0  0
  149.0176  152.3098  133.4668 H   0  0  0  0  0  0  0  0  0  0  0  0
  146.9920  151.5390  133.1280 H   0  0  0  0  0  0  0  0  0  0  0  0
  147.5550  151.1800  131.5630 H   0  0  0  0  0  0  0  0  0  0  0  0
  146.6350  152.5970  131.8440 H   0  0  0  0  0  0  0  0  0  0  0  0
  145.6374  156.4127  133.2492 H   0  0  0  0  0  0  0  0  0  0  0  0
  141.4621  157.1804  131.7323 H   0  0  0  0  0  0  0  0  0  0  0  0
  141.4031  157.1239  133.5268 H   0  0  0  0  0  0  0  0  0  0  0  0
  140.9397  159.6142  131.7422 H   0  0  0  0  0  0  0  0  0  0  0  0
  1  2  1  0
  2  3  2  0
  2  4  1  0
  4  5  2  0
  5  6  1  0
  6  7  2  0
  7  8  1  0
  8  9  2  0
  9 10  1  0
 10 11  3  0
 11 12  1  0
 12 13  1  0
  9 14  1  0
 14 15  2  0
 15 16  1  0
 16 17  1  0
 17 18  2  0
 17 19  1  0
 19 20  1  0
 20 21  1  0
 21 22  2  0
 16  4  1  0
 15  6  1  0
  1 23  1  0
  5 24  1  0
  7 25  1  0
  8 26  1  0
 12 27  1  0
 12 28  1  0
 13 29  1  0
 13 30  1  0
 13 31  1  0
 14 32  1  0
 20 33  1  0
 20 34  1  0
 21 35  1  0
M  CHG  2   1  -1  13   1
M  END
>  <UniqueID>  (2) 
2

>  <SMILES>  (2) 
[NH-]C(=O)c1cc2ccc(C#CC[NH3+])cc2n1C(=O)OCC=O

>  <Energy>  (2) 
64.85348151330324

>  <Genealogy>  (2) 
[NH-]C(=O)c1cc2ccc(C#CC[NH3+])cc2n1C(=O)OCC=O (protonated)
[NH-]C(=O)c1cc2ccc(C#CC[NH3+])cc2n1C(=O)OCC=O (3D coordinates assigned)
[NH-]C(=O)c1cc2ccc(C#CC[NH3+])cc2n1C(=O)OCC=O (optimized conformer: 64.85348151330324 kcal/mol)

>  <smiles>  (2) 
NCC#Cc1ccc2cc(C(N)=O)n(C(=O)OCC=O)c2c1

>  <score_type>  (2) 
oracle

>  <origin>  (2) 
adg

>  <m_score__min__energy>  (2) 
-6.4299999999999997

>  <m_primary>  (2) 
energy

$$$$
2:0
     RDKit          3D

 41 42  0  0  0  0  0  0  0  0999 V2000
  140.9520  159.3510  137.1220 C   0  0  0  0  0  0  0  0  0  0  0  0
  141.0830  159.4590  135.7220 O   0  0  0  0  0  0  0  0  0  0  0  0
  140.3480  158.4320  135.0830 C   0  0  0  0  0  0  0  0  0  0  0  0
  141.0040  157.0980  135.4410 C   0  0  0  0  0  0  0  0  0  0  0  0
  142.4370  157.2800  135.6380 N   0  0  0  0  0  0  0  0  0  0  0  0
  143.4100  156.8750  134.6720 C   0  0  0  0  0  0  0  0  0  0  0  0
  144.0190  155.7790  134.8050 O   0  0  0  0  0  0  0  0  0  0  0  0
  143.7080  157.7480  133.5270 C   0  0  0  0  0  0  0  0  0  0  0  0
  142.8620  157.8710  132.6010 O   0  0  0  0  0  0  0  0  0  0  0  0
  144.9490  158.4680  133.4540 N   0  0  0  0  0  0  0  0  0  0  0  0
  145.1310  159.8170  133.5100 C   0  0  0  0  0  0  0  0  0  0  0  0
  144.0760  160.8200  133.7630 C   0  0  0  0  0  0  0  0  0  0  0  0
  142.7040  160.4650  133.6000 N   0  0  0  0  0  0  0  0  0  0  0  0
  144.3720  161.9950  134.1050 O   0  0  0  0  0  0  0  0  0  0  0  0
  146.4790  160.1330  133.3460 C   0  0  0  0  0  0  0  0  0  0  0  0
  147.1200  158.9250  133.1800 C   0  0  0  0  0  0  0  0  0  0  0  0
  148.4650  158.6460  132.9570 C   0  0  0  0  0  0  0  0  0  0  0  0
  148.8410  157.3020  132.7920 C   0  0  0  0  0  0  0  0  0  0  0  0
  147.8690  156.2690  132.8420 C   0  0  0  0  0  0  0  0  0  0  0  0
  148.2730  154.8340  132.6550 C   0  0  0  0  0  0  0  0  0  0  0  0
  149.6100  154.7690  132.3060 F   0  0  0  0  0  0  0  0  0  0  0  0
  148.0730  154.1370  133.8310 F   0  0  0  0  0  0  0  0  0  0  0  0
  146.5140  156.5920  133.0670 C   0  0  0  0  0  0  0  0  0  0  0  0
  146.1730  157.9370  133.2470 C   0  0  0  0  0  0  0  0  0  0  0  0
  140.4190  158.6120  133.6750 O   0  0  0  0  0  0  0  0  0  0  0  0
  139.3410  157.9670  133.0330 C   0  0  0  0  0  0  0  0  0  0  0  0
  141.7123  159.9779  137.6108 H   0  0  0  0  0  0  0  0  0  0  0  0
  139.9494  159.6884  137.4236 H   0  0  0  0  0  0  0  0  0  0  0  0
  141.0921  158.3025  137.4236 H   0  0  0  0  0  0  0  0  0  0  0  0
  139.2962  158.4533  135.4044 H   0  0  0  0  0  0  0  0  0  0  0  0
  140.5560  156.7096  136.3675 H   0  0  0  0  0  0  0  0  0  0  0  0
  140.8418  156.3855  134.6188 H   0  0  0  0  0  0  0  0  0  0  0  0
  142.3480  159.5380  133.9230 H   0  0  0  0  0  0  0  0  0  0  0  0
  146.9341  161.1344  133.3486 H   0  0  0  0  0  0  0  0  0  0  0  0
  149.2112  159.4529  132.9113 H   0  0  0  0  0  0  0  0  0  0  0  0
  149.8979  157.0484  132.6226 H   0  0  0  0  0  0  0  0  0  0  0  0
  147.6623  154.3882  131.8560 H   0  0  0  0  0  0  0  0  0  0  0  0
  145.7451  155.8061  133.1001 H   0  0  0  0  0  0  0  0  0  0  0  0
  138.6558  157.5570  133.7896 H   0  0  0  0  0  0  0  0  0  0  0  0
  138.8022  158.6912  132.4044 H   0  0  0  0  0  0  0  0  0  0  0  0
  139.7245  157.1498  132.4044 H   0  0  0  0  0  0  0  0  0  0  0  0
  1  2  1  0
  2  3  1  0
  3  4  1  0
  4  5  1  0
  5  6  1  0
  6  7  2  0
  6  8  1  0
  8  9  2  0
  8 10  1  0
 10 11  1  0
 11 12  1  0
 12 13  1  0
 12 14  2  0
 11 15  2  0
 15 16  1  0
 16 17  2  0
 17 18  1  0
 18 19  2  0
 19 20  1  0
 20 21  1  0
 20 22  1  0
 19 23  1  0
 23 24  2  0
  3 25  1  0
 25 26  1  0
 24 10  1  0
 24 16  1  0
  1 27  1  0
  1 28  1  0
  1 29  1  0
  3 30  1  0
  4 31  1  0
  4 32  1  0
 13 33  1  0
 15 34  1  0
 17 35  1  0
 18 36  1  0
 20 37  1  0
 23 38  1  0
 26 39  1  0
 26 40  1  0
 26 41  1  0
M  CHG  2   5  -1  13  -1
M  END
>  <UniqueID>  (3) 
3

>  <SMILES>  (3) 
COC(C[N-]C(=O)C(=O)n1c(C([NH-])=O)cc2ccc(C(F)F)cc21)OC

>  <Energy>  (3) 
79.13152105507862

>  <Genealogy>  (3) 
COC(C[N-]C(=O)C(=O)n1c(C([NH-])=O)cc2ccc(C(F)F)cc21)OC (protonated)
COC(C[N-]C(=O)C(=O)n1c(C([NH-])=O)cc2ccc(C(F)F)cc21)OC (3D coordinates assigned)
COC(C[N-]C(=O)C(=O)n1c(C([NH-])=O)cc2ccc(C(F)F)cc21)OC (optimized conformer: 79.13152105507862 kcal/mol)

>  <smiles>  (3) 
COC(CNC(=O)C(=O)n1c(C(N)=O)cc2ccc(C(F)F)cc21)OC

>  <score_type>  (3) 
oracle

>  <origin>  (3) 
adg

>  <m_score__min__energy>  (3) 
-5.9699999999999998

>  <m_primary>  (3) 
energy

$$$$
3:0
     RDKit          3D

 33 34  0  0  0  0  0  0  0  0999 V2000
  145.3930  159.4450  133.1070 N   0  0  0  0  0  0  0  0  0  0  0  0
  144.7850  158.2260  133.5260 C   0  0  0  0  0  0  0  0  0  0  0  0
  143.6950  158.2650  134.1560 O   0  0  0  0  0  0  0  0  0  0  0  0
  145.4420  156.9250  133.2790 C   0  0  0  0  0  0  0  0  0  0  0  0
  144.7420  155.7500  133.0220 C   0  0  0  0  0  0  0  0  0  0  0  0
  145.7000  154.7650  132.9390 C   0  0  0  0  0  0  0  0  0  0  0  0
  145.5630  153.4020  132.6970 C   0  0  0  0  0  0  0  0  0  0  0  0
  146.7310  152.6230  132.6400 C   0  0  0  0  0  0  0  0  0  0  0  0
  148.0090  153.2170  132.8010 C   0  0  0  0  0  0  0  0  0  0  0  0
  149.2530  152.3650  132.7740 C   0  0  0  0  0  0  0  0  0  0  0  0
  149.1450  151.3740  131.8140 F   0  0  0  0  0  0  0  0  0  0  0  0
  149.4260  151.7760  134.0130 F   0  0  0  0  0  0  0  0  0  0  0  0
  150.3660  153.1330  132.4790 F   0  0  0  0  0  0  0  0  0  0  0  0
  148.1040  154.6040  133.0690 C   0  0  0  0  0  0  0  0  0  0  0  0
  146.9220  155.3510  133.1380 C   0  0  0  0  0  0  0  0  0  0  0  0
  146.7810  156.6790  133.3470 N   0  0  0  0  0  0  0  0  0  0  0  0
  147.8420  157.6350  133.4980 C   0  0  0  0  0  0  0  0  0  0  0  0
  147.7990  158.4790  134.4330 O   0  0  0  0  0  0  0  0  0  0  0  0
  148.9320  157.6060  132.6190 O   0  0  0  0  0  0  0  0  0  0  0  0
  148.9970  158.3870  131.4290 C   0  0  0  0  0  0  0  0  0  0  0  0
  148.2630  159.6760  131.6130 C   0  0  0  0  0  0  0  0  0  0  0  0
  147.5490  160.1280  130.6770 O   0  0  0  0  0  0  0  0  0  0  0  0
  148.4050  160.3900  132.8070 O   0  0  0  0  0  0  0  0  0  0  0  0
  147.3490  161.0600  133.3920 N   0  0  0  0  0  0  0  0  0  0  0  0
  146.4330  159.5460  133.0830 H   0  0  0  0  0  0  0  0  0  0  0  0
  143.6541  155.6332  132.9091 H   0  0  0  0  0  0  0  0  0  0  0  0
  144.5711  152.9482  132.5547 H   0  0  0  0  0  0  0  0  0  0  0  0
  146.6534  151.5392  132.4684 H   0  0  0  0  0  0  0  0  0  0  0  0
  149.0828  155.0830  133.2193 H   0  0  0  0  0  0  0  0  0  0  0  0
  150.0498  158.5997  131.1918 H   0  0  0  0  0  0  0  0  0  0  0  0
  148.5312  157.8246  130.6063 H   0  0  0  0  0  0  0  0  0  0  0  0
  146.9710  160.4590  134.1620 H   0  0  0  0  0  0  0  0  0  0  0  0
  146.5990  161.1730  132.6730 H   0  0  0  0  0  0  0  0  0  0  0  0
  1  2  1  0
  2  3  2  0
  2  4  1  0
  4  5  2  0
  5  6  1  0
  6  7  2  0
  7  8  1  0
  8  9  2  0
  9 10  1  0
 10 11  1  0
 10 12  1  0
 10 13  1  0
  9 14  1  0
 14 15  2  0
 15 16  1  0
 16 17  1  0
 17 18  2  0
 17 19  1  0
 19 20  1  0
 20 21  1  0
 21 22  2  0
 21 23  1  0
 23 24  1  0
 16  4  1  0
 15  6  1  0
  1 25  1  0
  5 26  1  0
  7 27  1  0
  8 28  1  0
 14 29  1  0
 20 30  1  0
 20 31  1  0
 24 32  1  0
 24 33  1  0
M  CHG  1   1  -1
M  END
>  <UniqueID>  (4) 
4

>  <SMILES>  (4) 
[NH-]C(=O)c1cc2ccc(C(F)(F)F)cc2n1C(=O)OCC(=O)ON

>  <Energy>  (4) 
69.91369481997802

>  <Genealogy>  (4) 
[NH-]C(=O)c1cc2ccc(C(F)(F)F)cc2n1C(=O)OCC(=O)ON (protonated)
[NH-]C(=O)c1cc2ccc(C(F)(F)F)cc2n1C(=O)OCC(=O)ON (3D coordinates assigned)
[NH-]C(=O)c1cc2ccc(C(F)(F)F)cc2n1C(=O)OCC(=O)ON (optimized conformer: 69.91369481997802 kcal/mol)

>  <smiles>  (4) 
NOC(=O)COC(=O)n1c(C(N)=O)cc2ccc(C(F)(F)F)cc21

>  <score_type>  (4) 
oracle

>  <origin>  (4) 
adg

>  <m_score__min__energy>  (4) 
-5.1500000000000004

>  <m_primary>  (4) 
energy

$$$$
4:0
     RDKit          3D

 39 40  0  0  0  0  0  0  0  0999 V2000
  139.0230  157.0720  133.4440 C   0  0  0  0  0  0  0  0  0  0  0  0
  140.0100  158.2400  133.5370 C   0  0  2  0  0  0  0  0  0  0  0  0
  140.1870  158.6900  134.9960 C   0  0  0  0  0  0  0  0  0  0  0  0
  141.6060  158.7400  135.3350 N   0  0  0  0  0  0  0  0  0  0  0  0
  142.6170  157.8430  134.8540 C   0  0  0  0  0  0  0  0  0  0  0  0
  142.8710  156.8120  135.5310 O   0  0  0  0  0  0  0  0  0  0  0  0
  143.3710  158.0760  133.6020 C   0  0  0  0  0  0  0  0  0  0  0  0
  142.8730  157.7690  132.4870 O   0  0  0  0  0  0  0  0  0  0  0  0
  144.6640  158.7030  133.6410 N   0  0  0  0  0  0  0  0  0  0  0  0
  144.9340  160.0380  133.6330 C   0  0  0  0  0  0  0  0  0  0  0  0
  143.9360  161.1220  133.7340 C   0  0  0  0  0  0  0  0  0  0  0  0
  142.5400  160.8650  133.5790 N   0  0  0  0  0  0  0  0  0  0  0  0
  144.3190  162.2910  134.0060 O   0  0  0  0  0  0  0  0  0  0  0  0
  146.3050  160.2600  133.5200 C   0  0  0  0  0  0  0  0  0  0  0  0
  146.8730  159.0070  133.4630 C   0  0  0  0  0  0  0  0  0  0  0  0
  148.2040  158.6340  133.3050 C   0  0  0  0  0  0  0  0  0  0  0  0
  148.4970  157.2630  133.2130 C   0  0  0  0  0  0  0  0  0  0  0  0
  147.4630  156.2930  133.2820 C   0  0  0  0  0  0  0  0  0  0  0  0
  147.7840  154.8290  133.1140 C   0  0  0  0  0  0  0  0  0  0  0  0
  146.6960  154.1470  132.5960 F   0  0  0  0  0  0  0  0  0  0  0  0
  148.1100  154.2910  134.3440 F   0  0  0  0  0  0  0  0  0  0  0  0
  148.8510  154.6590  132.2500 F   0  0  0  0  0  0  0  0  0  0  0  0
  146.1210  156.7150  133.4120 C   0  0  0  0  0  0  0  0  0  0  0  0
  145.8610  158.0850  133.5310 C   0  0  0  0  0  0  0  0  0  0  0  0
  139.5470  159.3800  132.6710 C   0  0  0  0  0  0  0  0  0  0  0  0
  138.4920  159.2800  131.9880 O   0  0  0  0  0  0  0  0  0  0  0  0
  140.2860  160.5560  132.6190 O   0  0  0  0  0  0  0  0  0  0  0  0
  138.7461  156.7444  134.4569 H   0  0  0  0  0  0  0  0  0  0  0  0
  138.1211  157.3962  132.9042 H   0  0  0  0  0  0  0  0  0  0  0  0
  139.4931  156.2368  132.9042 H   0  0  0  0  0  0  0  0  0  0  0  0
  140.9906  157.9025  133.1703 H   0  0  0  0  0  0  0  0  0  0  0  0
  139.7464  159.6896  135.1248 H   0  0  0  0  0  0  0  0  0  0  0  0
  139.6827  157.9715  135.6589 H   0  0  0  0  0  0  0  0  0  0  0  0
  141.8570  161.6550  133.5990 H   0  0  0  0  0  0  0  0  0  0  0  0
  142.1690  159.8900  133.5460 H   0  0  0  0  0  0  0  0  0  0  0  0
  146.8231  161.2297  133.4840 H   0  0  0  0  0  0  0  0  0  0  0  0
  149.0022  159.3891  133.2537 H   0  0  0  0  0  0  0  0  0  0  0  0
  149.5400  156.9375  133.0860 H   0  0  0  0  0  0  0  0  0  0  0  0
  145.2994  155.9836  133.4195 H   0  0  0  0  0  0  0  0  0  0  0  0
  1  2  1  0
  2  3  1  0
  3  4  1  0
  4  5  1  0
  5  6  2  0
  5  7  1  0
  7  8  2  0
  7  9  1  0
  9 10  1  0
 10 11  1  0
 11 12  1  0
 11 13  2  0
 10 14  2  0
 14 15  1  0
 15 16  2  0
 16 17  1  0
 17 18  2  0
 18 19  1  0
 19 20  1  0
 19 21  1  0
 19 22  1  0
 18 23  1  0
 23 24  2  0
  2 25  1  0
 25 26  2  0
 25 27  1  0
 24  9  1  0
 24 15  1  0
  1 28  1  0
  1 29  1  0
  1 30  1  0
  2 31  1  6
  3 32  1  0
  3 33  1  0
 12 34  1  0
 12 35  1  0
 14 36  1  0
 16 37  1  0
 17 38  1  0
 23 39  1  0
M  CHG  2   4  -1  27  -1
M  END
>  <UniqueID>  (5) 
5

>  <SMILES>  (5) 
C[C@H](C[N-]C(=O)C(=O)n1c(C(N)=O)cc2ccc(C(F)(F)F)cc21)C(=O)[O-]

>  <Energy>  (5) 
75.82772374990653

>  <Genealogy>  (5) 
CC(C[N-]C(=O)C(=O)n1c(C(N)=O)cc2ccc(C(F)(F)F)cc21)C(=O)[O-] (protonated)
C[C@H](C[N-]C(=O)C(=O)n1c(C(N)=O)cc2ccc(C(F)(F)F)cc21)C(=O)[O-] (chirality)
C[C@H](C[N-]C(=O)C(=O)n1c(C(N)=O)cc2ccc(C(F)(F)F)cc21)C(=O)[O-] (3D coordinates assigned)
C[C@H](C[N-]C(=O)C(=O)n1c(C(N)=O)cc2ccc(C(F)(F)F)cc21)C(=O)[O-] (optimized conformer: 75.82772374990653 kcal/mol)

>  <smiles>  (5) 
CC(CNC(=O)C(=O)n1c(C(N)=O)cc2ccc(C(F)(F)F)cc21)C(=O)O

>  <score_type>  (5) 
oracle

>  <origin>  (5) 
adg

>  <m_score__min__energy>  (5) 
-7.0800000000000001

>  <m_primary>  (5) 
energy

$$$$
5:0
     RDKit          3D

 34 35  0  0  0  0  0  0  0  0999 V2000
  149.4040  159.5820  131.5330 C   0  0  0  0  0  0  0  0  0  0  0  0
  148.1520  159.3990  131.9500 C   0  0  0  0  0  0  0  0  0  0  0  0
  147.7390  158.2150  132.7290 C   0  0  0  0  0  0  0  0  0  0  0  0
  148.6030  157.3990  133.1530 O   0  0  0  0  0  0  0  0  0  0  0  0
  146.3540  158.0070  133.0460 N   0  0  0  0  0  0  0  0  0  0  0  0
  145.6510  156.8390  133.0060 C   0  0  0  0  0  0  0  0  0  0  0  0
  146.2300  155.4990  132.7610 C   0  0  0  0  0  0  0  0  0  0  0  0
  147.3730  155.3380  131.9190 N   0  0  0  0  0  0  0  0  0  0  0  0
  145.7020  154.4790  133.2780 O   0  0  0  0  0  0  0  0  0  0  0  0
  144.3140  157.0660  133.3300 C   0  0  0  0  0  0  0  0  0  0  0  0
  144.2220  158.4180  133.5750 C   0  0  0  0  0  0  0  0  0  0  0  0
  143.1250  159.1880  133.9340 C   0  0  0  0  0  0  0  0  0  0  0  0
  143.3160  160.5690  134.1070 C   0  0  0  0  0  0  0  0  0  0  0  0
  144.5960  161.1660  133.9160 C   0  0  0  0  0  0  0  0  0  0  0  0
  144.7810  162.5950  134.0890 N   0  0  0  0  0  0  0  0  0  0  0  0
  143.9420  163.5500  133.3550 C   0  0  0  0  0  0  0  0  0  0  0  0
  145.8090  163.1100  135.0030 C   0  0  0  0  0  0  0  0  0  0  0  0
  145.6860  160.3340  133.5510 C   0  0  0  0  0  0  0  0  0  0  0  0
  145.4660  158.9610  133.4000 C   0  0  0  0  0  0  0  0  0  0  0  0
  149.6654  160.4806  130.9548 H   0  0  0  0  0  0  0  0  0  0  0  0
  150.1764  158.8345  131.7669 H   0  0  0  0  0  0  0  0  0  0  0  0
  147.3965  160.1598  131.7042 H   0  0  0  0  0  0  0  0  0  0  0  0
  147.8750  156.1620  131.5200 H   0  0  0  0  0  0  0  0  0  0  0  0
  147.7490  154.3840  131.7250 H   0  0  0  0  0  0  0  0  0  0  0  0
  143.5045  156.3228  133.3794 H   0  0  0  0  0  0  0  0  0  0  0  0
  142.1351  158.7307  134.0789 H   0  0  0  0  0  0  0  0  0  0  0  0
  142.4627  161.2006  134.3949 H   0  0  0  0  0  0  0  0  0  0  0  0
  143.3902  164.1781  134.0698 H   0  0  0  0  0  0  0  0  0  0  0  0
  144.5783  164.1865  132.7226 H   0  0  0  0  0  0  0  0  0  0  0  0
  143.2288  163.0010  132.7226 H   0  0  0  0  0  0  0  0  0  0  0  0
  145.4886  162.9495  136.0430 H   0  0  0  0  0  0  0  0  0  0  0  0
  146.7564  162.5801  134.8253 H   0  0  0  0  0  0  0  0  0  0  0  0
  145.9518  164.1861  134.8253 H   0  0  0  0  0  0  0  0  0  0  0  0
  146.6866  160.7614  133.3896 H   0  0  0  0  0  0  0  0  0  0  0  0
  1  2  2  0
  2  3  1  0
  3  4  2  0
  3  5  1  0
  5  6  1  0
  6  7  1  0
  7  8  1  0
  7  9  2  0
  6 10  2  0
 10 11  1  0
 11 12  2  0
 12 13  1  0
 13 14  2  0
 14 15  1  0
 15 16  1  0
 15 17  1  0
 14 18  1  0
 18 19  2  0
 19  5  1  0
 19 11  1  0
  1 20  1  0
  1 21  1  0
  2 22  1  0
  8 23  1  0
  8 24  1  0
 10 25  1  0
 12 26  1  0
 13 27  1  0
 16 28  1  0
 16 29  1  0
 16 30  1  0
 17 31  1  0
 17 32  1  0
 17 33  1  0
 18 34  1  0
M  END
>  <UniqueID>  (6) 
6

>  <SMILES>  (6) 
C=CC(=O)n1c(C(N)=O)cc2ccc(N(C)C)cc21

>  <Energy>  (6) 
73.49424770844969

>  <Genealogy>  (6) 
C=CC(=O)n1c(C(N)=O)cc2ccc(N(C)C)cc21 (3D coordinates assigned)
C=CC(=O)n1c(C(N)=O)cc2ccc(N(C)C)cc21 (optimized conformer: 73.49424770844969 kcal/mol)

>  <smiles>  (6) 
C=CC(=O)n1c(C(N)=O)cc2ccc(N(C)C)cc21

>  <score_type>  (6) 
oracle

>  <origin>  (6) 
adg

>  <m_score__min__energy>  (6) 
-6.3200000000000003

>  <m_primary>  (6) 
energy

$$$$
6:0
     RDKit          3D

 38 39  0  0  0  0  0  0  0  0999 V2000
  139.8660  159.3690  130.6970 C   0  0  0  0  0  0  0  0  0  0  0  0
  138.8330  159.5310  131.5310 C   0  0  0  0  0  0  0  0  0  0  0  0
  137.5380  160.0670  131.0090 C   0  0  0  0  0  0  0  0  0  0  0  0
  138.8950  159.1470  132.8800 O   0  0  0  0  0  0  0  0  0  0  0  0
  139.4000  157.9300  133.3590 C   0  0  0  0  0  0  0  0  0  0  0  0
  139.1740  156.8470  132.7520 O   0  0  0  0  0  0  0  0  0  0  0  0
  140.3120  157.9370  134.5430 C   0  0  0  0  0  0  0  0  0  0  0  0
  141.6020  158.6230  134.1890 C   0  0  0  0  0  0  0  0  0  0  0  0
  141.6380  160.0300  134.0210 C   0  0  0  0  0  0  0  0  0  0  0  0
  142.8480  160.6860  133.7400 C   0  0  0  0  0  0  0  0  0  0  0  0
  144.0020  159.9130  133.6380 C   0  0  0  0  0  0  0  0  0  0  0  0
  145.3050  160.2920  133.4140 C   0  0  0  0  0  0  0  0  0  0  0  0
  146.0420  159.1100  133.4380 C   0  0  0  0  0  0  0  0  0  0  0  0
  147.4910  159.0500  133.1710 C   0  0  0  0  0  0  0  0  0  0  0  0
  148.3580  158.2440  133.9720 N   0  0  0  0  0  0  0  0  0  0  0  0
  147.9670  159.6790  132.1890 O   0  0  0  0  0  0  0  0  0  0  0  0
  145.2280  158.0430  133.6830 N   0  0  0  0  0  0  0  0  0  0  0  0
  145.6070  156.6750  133.9120 C   0  0  0  0  0  0  0  0  0  0  0  0
  145.1690  155.5860  132.9830 C   0  0  0  0  0  0  0  0  0  0  0  0
  146.3440  156.3850  134.8910 O   0  0  0  0  0  0  0  0  0  0  0  0
  143.9830  158.5510  133.7960 C   0  0  0  0  0  0  0  0  0  0  0  0
  142.7940  157.8720  134.0890 C   0  0  0  0  0  0  0  0  0  0  0  0
  140.8212  158.9752  131.0746 H   0  0  0  0  0  0  0  0  0  0  0  0
  139.7604  159.6295  129.6335 H   0  0  0  0  0  0  0  0  0  0  0  0
  136.8861  160.3368  131.8529 H   0  0  0  0  0  0  0  0  0  0  0  0
  137.7312  160.9591  130.3951 H   0  0  0  0  0  0  0  0  0  0  0  0
  137.0443  159.2993  130.3951 H   0  0  0  0  0  0  0  0  0  0  0  0
  139.8289  158.4737  135.3728 H   0  0  0  0  0  0  0  0  0  0  0  0
  140.5231  156.9004  134.8446 H   0  0  0  0  0  0  0  0  0  0  0  0
  140.7100  160.6136  134.1115 H   0  0  0  0  0  0  0  0  0  0  0  0
  142.8830  161.7771  133.6047 H   0  0  0  0  0  0  0  0  0  0  0  0
  145.6844  161.3115  133.2507 H   0  0  0  0  0  0  0  0  0  0  0  0
  147.9750  157.5820  134.6820 H   0  0  0  0  0  0  0  0  0  0  0  0
  149.3870  158.2490  133.7970 H   0  0  0  0  0  0  0  0  0  0  0  0
  144.8216  154.7221  133.5687 H   0  0  0  0  0  0  0  0  0  0  0  0
  144.3485  155.9530  132.3488 H   0  0  0  0  0  0  0  0  0  0  0  0
  146.0151  155.2827  132.3488 H   0  0  0  0  0  0  0  0  0  0  0  0
  142.7884  156.7821  134.2374 H   0  0  0  0  0  0  0  0  0  0  0  0
  1  2  2  0
  2  3  1  0
  2  4  1  0
  4  5  1  0
  5  6  2  0
  5  7  1  0
  7  8  1  0
  8  9  2  0
  9 10  1  0
 10 11  2  0
 11 12  1  0
 12 13  2  0
 13 14  1  0
 14 15  1  0
 14 16  2  0
 13 17  1  0
 17 18  1  0
 18 19  1  0
 18 20  2  0
 17 21  1  0
 21 22  2  0
 22  8  1  0
 21 11  1  0
  1 23  1  0
  1 24  1  0
  3 25  1  0
  3 26  1  0
  3 27  1  0
  7 28  1  0
  7 29  1  0
  9 30  1  0
 10 31  1  0
 12 32  1  0
 15 33  1  0
 15 34  1  0
 19 35  1  0
 19 36  1  0
 19 37  1  0
 22 38  1  0
M  END
>  <UniqueID>  (7) 
7

>  <SMILES>  (7) 
C=C(C)OC(=O)Cc1ccc2cc(C(N)=O)n(C(C)=O)c2c1

>  <Energy>  (7) 
77.23475206360393

>  <Genealogy>  (7) 
C=C(C)OC(=O)Cc1ccc2cc(C(N)=O)n(C(C)=O)c2c1 (3D coordinates assigned)
C=C(C)OC(=O)Cc1ccc2cc(C(N)=O)n(C(C)=O)c2c1 (optimized conformer: 77.23475206360393 kcal/mol)

>  <smiles>  (7) 
C=C(C)OC(=O)Cc1ccc2cc(C(N)=O)n(C(C)=O)c2c1

>  <score_type>  (7) 
oracle

>  <origin>  (7) 
adg

>  <m_score__min__energy>  (7) 
-7.1299999999999999

>  <m_primary>  (7) 
energy

$$$$
7:0
     RDKit          3D

 50 52  0  0  0  0  0  0  0  0999 V2000
  148.1010  153.0680  137.6230 C   0  0  0  0  0  0  0  0  0  0  0  0
  147.0810  153.3100  136.6610 O   0  0  0  0  0  0  0  0  0  0  0  0
  147.2280  154.2360  135.6220 C   0  0  0  0  0  0  0  0  0  0  0  0
  147.6380  155.4040  135.8690 O   0  0  0  0  0  0  0  0  0  0  0  0
  146.9120  153.8510  134.2720 N   0  0  0  0  0  0  0  0  0  0  0  0
  147.9420  153.9730  133.2370 C   0  0  0  0  0  0  0  0  0  0  0  0
  145.5740  153.3430  133.9290 C   0  0  0  0  0  0  0  0  0  0  0  0
  144.9960  154.0780  132.7140 C   0  0  0  0  0  0  0  0  0  0  0  0
  144.5130  155.4550  133.0860 C   0  0  0  0  0  0  0  0  0  0  0  0
  143.1530  155.6640  133.4270 C   0  0  0  0  0  0  0  0  0  0  0  0
  142.6830  156.9500  133.7380 C   0  0  0  0  0  0  0  0  0  0  0  0
  143.5880  158.0060  133.6860 C   0  0  0  0  0  0  0  0  0  0  0  0
  143.4040  159.3430  133.9540 C   0  0  0  0  0  0  0  0  0  0  0  0
  144.6470  159.9370  133.7430 C   0  0  0  0  0  0  0  0  0  0  0  0
  144.8800  161.3920  133.8370 C   0  0  0  0  0  0  0  0  0  0  0  0
  146.1940  161.8860  134.0820 N   0  0  0  0  0  0  0  0  0  0  0  0
  143.9230  162.2050  133.7420 O   0  0  0  0  0  0  0  0  0  0  0  0
  145.5650  159.0020  133.3650 N   0  0  0  0  0  0  0  0  0  0  0  0
  146.9700  159.1980  133.1290 C   0  0  0  0  0  0  0  0  0  0  0  0
  147.8160  158.6320  133.8730 O   0  0  0  0  0  0  0  0  0  0  0  0
  147.3890  160.0390  132.0930 O   0  0  0  0  0  0  0  0  0  0  0  0
  148.7480  160.4480  131.9170 C   0  0  1  0  0  0  0  0  0  0  0  0
  149.6080  159.2880  131.5010 C   0  0  0  0  0  0  0  0  0  0  0  0
  149.5830  159.3520  129.9850 C   0  0  0  0  0  0  0  0  0  0  0  0
  149.0850  160.6040  129.5680 O   0  0  0  0  0  0  0  0  0  0  0  0
  148.8490  161.3720  130.7230 C   0  0  0  0  0  0  0  0  0  0  0  0
  144.9010  157.8260  133.3330 C   0  0  0  0  0  0  0  0  0  0  0  0
  145.4010  156.5520  133.0370 C   0  0  0  0  0  0  0  0  0  0  0  0
  147.6816  153.1675  138.6350 H   0  0  0  0  0  0  0  0  0  0  0  0
  148.4977  152.0508  137.4889 H   0  0  0  0  0  0  0  0  0  0  0  0
  148.9123  153.7986  137.4889 H   0  0  0  0  0  0  0  0  0  0  0  0
  148.9272  154.0897  133.7121 H   0  0  0  0  0  0  0  0  0  0  0  0
  147.9417  153.0685  132.6109 H   0  0  0  0  0  0  0  0  0  0  0  0
  147.7304  154.8524  132.6109 H   0  0  0  0  0  0  0  0  0  0  0  0
  145.6460  152.2699  133.6982 H   0  0  0  0  0  0  0  0  0  0  0  0
  144.9071  153.5115  134.7874 H   0  0  0  0  0  0  0  0  0  0  0  0
  145.7771  154.1680  131.9448 H   0  0  0  0  0  0  0  0  0  0  0  0
  144.1401  153.5009  132.3341 H   0  0  0  0  0  0  0  0  0  0  0  0
  142.4593  154.8106  133.4482 H   0  0  0  0  0  0  0  0  0  0  0  0
  141.6316  157.1177  134.0143 H   0  0  0  0  0  0  0  0  0  0  0  0
  142.4733  159.8380  134.2681 H   0  0  0  0  0  0  0  0  0  0  0  0
  146.9560  161.7580  133.3800 H   0  0  0  0  0  0  0  0  0  0  0  0
  149.0624  160.8998  132.8694 H   0  0  0  0  0  0  0  0  0  0  0  0
  150.6335  159.4025  131.8822 H   0  0  0  0  0  0  0  0  0  0  0  0
  149.2481  158.3259  131.8945 H   0  0  0  0  0  0  0  0  0  0  0  0
  150.6034  159.2172  129.5969 H   0  0  0  0  0  0  0  0  0  0  0  0
  148.9311  158.5547  129.5984 H   0  0  0  0  0  0  0  0  0  0  0  0
  149.6791  162.0781  130.8723 H   0  0  0  0  0  0  0  0  0  0  0  0
  147.9114  161.9358  130.6091 H   0  0  0  0  0  0  0  0  0  0  0  0
  146.4592  156.4092  132.7729 H   0  0  0  0  0  0  0  0  0  0  0  0
  1  2  1  0
  2  3  1  0
  3  4  2  0
  3  5  1  0
  5  6  1  0
  5  7  1  0
  7  8  1  0
  8  9  1  0
  9 10  2  0
 10 11  1  0
 11 12  2  0
 12 13  1  0
 13 14  2  0
 14 15  1  0
 15 16  1  0
 15 17  2  0
 14 18  1  0
 18 19  1  0
 19 20  2  0
 19 21  1  0
 21 22  1  0
 22 23  1  0
 23 24  1  0
 24 25  1  0
 25 26  1  0
 18 27  1  0
 27 28  2  0
 28  9  1  0
 27 12  1  0
 26 22  1  0
  1 29  1  0
  1 30  1  0
  1 31  1  0
  6 32  1  0
  6 33  1  0
  6 34  1  0
  7 35  1  0
  7 36  1  0
  8 37  1  0
  8 38  1  0
 10 39  1  0
 11 40  1  0
 13 41  1  0
 16 42  1  0
 22 43  1  1
 23 44  1  0
 23 45  1  0
 24 46  1  0
 24 47  1  0
 26 48  1  0
 26 49  1  0
 28 50  1  0
M  CHG  1  16  -1
M  END
>  <UniqueID>  (8) 
8

>  <SMILES>  (8) 
COC(=O)N(C)CCc1ccc2cc(C([NH-])=O)n(C(=O)O[C@H]3CCOC3)c2c1

>  <Energy>  (8) 
78.95477842664349

>  <Genealogy>  (8) 
COC(=O)N(C)CCc1ccc2cc(C([NH-])=O)n(C(=O)OC3CCOC3)c2c1 (protonated)
COC(=O)N(C)CCc1ccc2cc(C([NH-])=O)n(C(=O)O[C@H]3CCOC3)c2c1 (chirality)
COC(=O)N(C)CCc1ccc2cc(C([NH-])=O)n(C(=O)O[C@H]3CCOC3)c2c1 (3D coordinates assigned)
COC(=O)N(C)CCc1ccc2cc(C([NH-])=O)n(C(=O)O[C@H]3CCOC3)c2c1 (nonaromatic ring conformer: 78.95477842664349 kcal/mol)

>  <smiles>  (8) 
COC(=O)N(C)CCc1ccc2cc(C(N)=O)n(C(=O)OC3CCOC3)c2c1

>  <score_type>  (8) 
oracle

>  <origin>  (8) 
adg

>  <m_score__min__energy>  (8) 
-7.0800000000000001

>  <m_primary>  (8) 
energy

$$$$
8:0
     RDKit          3D

 28 29  0  0  0  0  0  0  0  0999 V2000
  146.2310  163.0940  134.8430 C   0  0  0  0  0  0  0  0  0  0  0  0
  145.3530  162.4260  134.3550 C   0  0  0  0  0  0  0  0  0  0  0  0
  144.3060  161.6290  133.7740 C   0  0  0  0  0  0  0  0  0  0  0  0
  143.2540  162.1930  133.3710 O   0  0  0  0  0  0  0  0  0  0  0  0
  144.4540  160.2060  133.6490 N   0  0  0  0  0  0  0  0  0  0  0  0
  143.5300  159.2460  133.9350 C   0  0  0  0  0  0  0  0  0  0  0  0
  142.1180  159.4810  134.3060 C   0  0  0  0  0  0  0  0  0  0  0  0
  141.2240  160.1420  133.4130 N   0  0  0  0  0  0  0  0  0  0  0  0
  141.6840  159.0570  135.4100 O   0  0  0  0  0  0  0  0  0  0  0  0
  144.0780  157.9750  133.7690 C   0  0  0  0  0  0  0  0  0  0  0  0
  145.3750  158.1870  133.3640 C   0  0  0  0  0  0  0  0  0  0  0  0
  146.3840  157.2710  133.0770 C   0  0  0  0  0  0  0  0  0  0  0  0
  147.6470  157.7740  132.7190 C   0  0  0  0  0  0  0  0  0  0  0  0
  147.8760  159.1710  132.6560 C   0  0  0  0  0  0  0  0  0  0  0  0
  149.2440  159.6950  132.3190 C   0  0  0  0  0  0  0  0  0  0  0  0
  149.2420  160.2880  130.9470 C   0  0  0  0  0  0  0  0  0  0  0  0
  149.5100  159.5710  129.9470 O   0  0  0  0  0  0  0  0  0  0  0  0
  148.9920  161.6440  130.7750 O   0  0  0  0  0  0  0  0  0  0  0  0
  146.8320  160.0690  132.9680 C   0  0  0  0  0  0  0  0  0  0  0  0
  145.5790  159.5410  133.3010 C   0  0  0  0  0  0  0  0  0  0  0  0
  147.0316  163.7031  135.2880 H   0  0  0  0  0  0  0  0  0  0  0  0
  141.5260  160.9890  132.8820 H   0  0  0  0  0  0  0  0  0  0  0  0
  143.5789  157.0078  133.9282 H   0  0  0  0  0  0  0  0  0  0  0  0
  146.1986  156.1880  133.1288 H   0  0  0  0  0  0  0  0  0  0  0  0
  148.4651  157.0767  132.4856 H   0  0  0  0  0  0  0  0  0  0  0  0
  149.5280  160.4673  133.0490 H   0  0  0  0  0  0  0  0  0  0  0  0
  149.9660  158.8658  132.3523 H   0  0  0  0  0  0  0  0  0  0  0  0
  146.9990  161.1561  132.9499 H   0  0  0  0  0  0  0  0  0  0  0  0
  1  2  3  0
  2  3  1  0
  3  4  2  0
  3  5  1  0
  5  6  1  0
  6  7  1  0
  7  8  1  0
  7  9  2  0
  6 10  2  0
 10 11  1  0
 11 12  2  0
 12 13  1  0
 13 14  2  0
 14 15  1  0
 15 16  1  0
 16 17  2  0
 16 18  1  0
 14 19  1  0
 19 20  2  0
 20  5  1  0
 20 11  1  0
  1 21  1  0
  8 22  1  0
 10 23  1  0
 12 24  1  0
 13 25  1  0
 15 26  1  0
 15 27  1  0
 19 28  1  0
M  CHG  2   8  -1  18  -1
M  END
>  <UniqueID>  (9) 
9

>  <SMILES>  (9) 
C#CC(=O)n1c(C([NH-])=O)cc2ccc(CC(=O)[O-])cc21

>  <Energy>  (9) 
64.91393002208062

>  <Genealogy>  (9) 
C#CC(=O)n1c(C([NH-])=O)cc2ccc(CC(=O)[O-])cc21 (protonated)
C#CC(=O)n1c(C([NH-])=O)cc2ccc(CC(=O)[O-])cc21 (3D coordinates assigned)
C#CC(=O)n1c(C([NH-])=O)cc2ccc(CC(=O)[O-])cc21 (optimized conformer: 64.91393002208062 kcal/mol)

>  <smiles>  (9) 
C#CC(=O)n1c(C(N)=O)cc2ccc(CC(=O)O)cc21

>  <score_type>  (9) 
oracle

>  <origin>  (9) 
adg

>  <m_score__min__energy>  (9) 
-7.04

>  <m_primary>  (9) 
energy

$$$$
9:0
     RDKit          3D

 39 41  0  0  0  0  0  0  0  0999 V2000
  144.2560  154.5390  133.4360 C   0  0  0  0  0  0  0  0  0  0  0  0
  144.2550  155.0620  134.8850 C   0  0  0  0  0  0  0  0  0  0  0  0
  143.0970  154.4440  135.6910 C   0  0  0  0  0  0  0  0  0  0  0  0
  144.1690  156.4950  134.8980 O   0  0  0  0  0  0  0  0  0  0  0  0
  144.1710  157.3430  133.7790 C   0  0  0  0  0  0  0  0  0  0  0  0
  143.1530  157.4490  133.0440 O   0  0  0  0  0  0  0  0  0  0  0  0
  145.3600  158.0810  133.4570 N   0  0  0  0  0  0  0  0  0  0  0  0
  145.5360  159.4330  133.5010 C   0  0  0  0  0  0  0  0  0  0  0  0
  144.4770  160.4400  133.7170 C   0  0  0  0  0  0  0  0  0  0  0  0
  143.1160  160.1480  133.4160 N   0  0  0  0  0  0  0  0  0  0  0  0
  144.7860  161.5900  134.1280 O   0  0  0  0  0  0  0  0  0  0  0  0
  146.8630  159.7610  133.2310 C   0  0  0  0  0  0  0  0  0  0  0  0
  147.4980  158.5610  133.0110 C   0  0  0  0  0  0  0  0  0  0  0  0
  148.8320  158.2960  132.7160 C   0  0  0  0  0  0  0  0  0  0  0  0
  149.2220  156.9540  132.5750 C   0  0  0  0  0  0  0  0  0  0  0  0
  148.2810  155.9050  132.7390 C   0  0  0  0  0  0  0  0  0  0  0  0
  148.6980  154.4960  132.6020 C   0  0  0  0  0  0  0  0  0  0  0  0
  149.9490  154.1120  132.2620 N   0  0  0  0  0  0  0  0  0  0  0  0
  149.8720  152.7670  132.2580 C   0  0  0  0  0  0  0  0  0  0  0  0
  148.5930  152.3860  132.5920 C   0  0  0  0  0  0  0  0  0  0  0  0
  147.8940  153.4730  132.7980 O   0  0  0  0  0  0  0  0  0  0  0  0
  146.9340  156.2150  133.0400 C   0  0  0  0  0  0  0  0  0  0  0  0
  146.5710  157.5620  133.1550 C   0  0  0  0  0  0  0  0  0  0  0  0
  145.5570  154.6750  135.5460 C   0  0  0  0  0  0  0  0  0  0  0  0
  146.4880  155.5160  135.6690 O   0  0  0  0  0  0  0  0  0  0  0  0
  145.7540  153.3780  136.0070 O   0  0  0  0  0  0  0  0  0  0  0  0
  144.2581  153.4390  133.4432 H   0  0  0  0  0  0  0  0  0  0  0  0
  143.3572  154.9006  132.9151 H   0  0  0  0  0  0  0  0  0  0  0  0
  145.1535  154.9040  132.9151 H   0  0  0  0  0  0  0  0  0  0  0  0
  143.3001  154.5524  136.7666 H   0  0  0  0  0  0  0  0  0  0  0  0
  142.1591  154.9615  135.4410 H   0  0  0  0  0  0  0  0  0  0  0  0
  143.0048  153.3768  135.4410 H   0  0  0  0  0  0  0  0  0  0  0  0
  142.8640  159.5410  132.6040 H   0  0  0  0  0  0  0  0  0  0  0  0
  147.3083  160.7664  133.2003 H   0  0  0  0  0  0  0  0  0  0  0  0
  149.5590  159.1128  132.5969 H   0  0  0  0  0  0  0  0  0  0  0  0
  150.2682  156.7138  132.3348 H   0  0  0  0  0  0  0  0  0  0  0  0
  150.7005  152.0820  132.0247 H   0  0  0  0  0  0  0  0  0  0  0  0
  148.2240  151.3528  132.6716 H   0  0  0  0  0  0  0  0  0  0  0  0
  146.1900  155.4170  133.1802 H   0  0  0  0  0  0  0  0  0  0  0  0
  1  2  1  0
  2  3  1  0
  2  4  1  0
  4  5  1  0
  5  6  2  0
  5  7  1  0
  7  8  1  0
  8  9  1  0
  9 10  1  0
  9 11  2  0
  8 12  2  0
 12 13  1  0
 13 14  2  0
 14 15  1  0
 15 16  2  0
 16 17  1  0
 17 18  2  0
 18 19  1  0
 19 20  2  0
 20 21  1  0
 16 22  1  0
 22 23  2  0
  2 24  1  0
 24 25  2  0
 24 26  1  0
 23  7  1  0
 23 13  1  0
 21 17  1  0
  1 27  1  0
  1 28  1  0
  1 29  1  0
  3 30  1  0
  3 31  1  0
  3 32  1  0
 10 33  1  0
 12 34  1  0
 14 35  1  0
 15 36  1  0
 19 37  1  0
 20 38  1  0
 22 39  1  0
M  CHG  2  10  -1  26  -1
M  END
>  <UniqueID>  (10) 
10

>  <SMILES>  (10) 
CC(C)(OC(=O)n1c(C([NH-])=O)cc2ccc(-c3ncco3)cc21)C(=O)[O-]

>  <Energy>  (10) 
107.72160262759535

>  <Genealogy>  (10) 
CC(C)(OC(=O)n1c(C([NH-])=O)cc2ccc(-c3ncco3)cc21)C(=O)[O-] (protonated)
CC(C)(OC(=O)n1c(C([NH-])=O)cc2ccc(-c3ncco3)cc21)C(=O)[O-] (3D coordinates assigned)
CC(C)(OC(=O)n1c(C([NH-])=O)cc2ccc(-c3ncco3)cc21)C(=O)[O-] (optimized conformer: 107.72160262759535 kcal/mol)

>  <smiles>  (10) 
CC(C)(OC(=O)n1c(C(N)=O)cc2ccc(-c3ncco3)cc21)C(=O)O

>  <score_type>  (10) 
oracle

>  <origin>  (10) 
adg

>  <m_score__min__energy>  (10) 
-7.0300000000000002

>  <m_primary>  (10) 
energy

$$$$
10:0
     RDKit          3D

 33 34  0  0  0  0  0  0  0  0999 V2000
  148.5090  157.9410  133.7640 N   0  0  0  0  0  0  0  0  0  0  0  0
  147.8280  159.1430  133.4020 C   0  0  0  0  0  0  0  0  0  0  0  0
  148.4820  160.0990  132.9080 O   0  0  0  0  0  0  0  0  0  0  0  0
  146.3620  159.2580  133.5340 C   0  0  0  0  0  0  0  0  0  0  0  0
  145.6940  160.4760  133.6050 C   0  0  0  0  0  0  0  0  0  0  0  0
  144.3580  160.1530  133.6520 C   0  0  0  0  0  0  0  0  0  0  0  0
  143.2430  160.9800  133.7340 C   0  0  0  0  0  0  0  0  0  0  0  0
  141.9770  160.3760  133.8010 C   0  0  0  0  0  0  0  0  0  0  0  0
  141.8470  158.9630  133.8130 C   0  0  0  0  0  0  0  0  0  0  0  0
  140.4810  158.3260  133.8510 C   0  0  0  0  0  0  0  0  0  0  0  0
  140.5620  156.9750  133.5610 F   0  0  0  0  0  0  0  0  0  0  0  0
  139.9120  158.4660  135.1050 F   0  0  0  0  0  0  0  0  0  0  0  0
  139.6670  158.9400  132.9170 F   0  0  0  0  0  0  0  0  0  0  0  0
  143.0040  158.1560  133.7060 C   0  0  0  0  0  0  0  0  0  0  0  0
  144.2530  158.7860  133.6190 C   0  0  0  0  0  0  0  0  0  0  0  0
  145.4800  158.2200  133.5470 N   0  0  0  0  0  0  0  0  0  0  0  0
  145.7900  156.8180  133.6160 C   0  0  0  0  0  0  0  0  0  0  0  0
  145.3570  156.1230  134.5760 O   0  0  0  0  0  0  0  0  0  0  0  0
  146.5870  156.2350  132.6250 O   0  0  0  0  0  0  0  0  0  0  0  0
  146.9980  154.8680  132.6390 C   0  0  0  0  0  0  0  0  0  0  0  0
  148.4980  154.7510  132.9020 C   0  0  0  0  0  0  0  0  0  0  0  0
  149.1440  155.9470  132.5660 O   0  0  0  0  0  0  0  0  0  0  0  0
  147.9800  157.0780  134.0190 H   0  0  0  0  0  0  0  0  0  0  0  0
  149.5500  157.8880  133.7000 H   0  0  0  0  0  0  0  0  0  0  0  0
  146.1389  161.4819  133.6203 H   0  0  0  0  0  0  0  0  0  0  0  0
  143.3495  162.0748  133.7460 H   0  0  0  0  0  0  0  0  0  0  0  0
  141.0759  161.0054  133.8447 H   0  0  0  0  0  0  0  0  0  0  0  0
  142.9252  157.0589  133.6914 H   0  0  0  0  0  0  0  0  0  0  0  0
  146.4511  154.3359  133.4313 H   0  0  0  0  0  0  0  0  0  0  0  0
  146.7786  154.4256  131.6561 H   0  0  0  0  0  0  0  0  0  0  0  0
  148.6640  154.5357  133.9679 H   0  0  0  0  0  0  0  0  0  0  0  0
  148.9074  153.9372  132.2855 H   0  0  0  0  0  0  0  0  0  0  0  0
  148.5950  156.3650  131.8540 H   0  0  0  0  0  0  0  0  0  0  0  0
  1  2  1  0
  2  3  2  0
  2  4  1  0
  4  5  2  0
  5  6  1  0
  6  7  2  0
  7  8  1  0
  8  9  2  0
  9 10  1  0
 10 11  1  0
 10 12  1  0
 10 13  1  0
  9 14  1  0
 14 15  2  0
 15 16  1  0
 16 17  1  0
 17 18  2  0
 17 19  1  0
 19 20  1  0
 20 21  1  0
 21 22  1  0
 16  4  1  0
 15  6  1  0
  1 23  1  0
  1 24  1  0
  5 25  1  0
  7 26  1  0
  8 27  1  0
 14 28  1  0
 20 29  1  0
 20 30  1  0
 21 31  1  0
 21 32  1  0
 22 33  1  0
M  END
>  <UniqueID>  (11) 
11

>  <SMILES>  (11) 
NC(=O)c1cc2ccc(C(F)(F)F)cc2n1C(=O)OCCO

>  <Energy>  (11) 
69.40464738276705

>  <Genealogy>  (11) 
NC(=O)c1cc2ccc(C(F)(F)F)cc2n1C(=O)OCCO (3D coordinates assigned)
NC(=O)c1cc2ccc(C(F)(F)F)cc2n1C(=O)OCCO (optimized conformer: 69.40464738276705 kcal/mol)

>  <smiles>  (11) 
NC(=O)c1cc2ccc(C(F)(F)F)cc2n1C(=O)OCCO

>  <score_type>  (11) 
oracle

>  <origin>  (11) 
adg

>  <m_score__min__energy>  (11) 
-5.6100000000000003

>  <m_primary>  (11) 
energy

$$$$
11:0
     RDKit          3D

 51 54  0  0  0  0  0  0  0  0999 V2000
  140.7320  159.3870  134.5070 N   0  0  0  0  0  0  0  0  0  0  0  0
  141.2370  158.4490  135.4550 C   0  0  0  0  0  0  0  0  0  0  0  0
  141.5800  158.8520  136.5970 O   0  0  0  0  0  0  0  0  0  0  0  0
  141.3140  157.0170  135.1020 C   0  0  0  0  0  0  0  0  0  0  0  0
  142.2270  156.1330  135.6730 C   0  0  0  0  0  0  0  0  0  0  0  0
  142.0390  154.9380  135.0180 C   0  0  0  0  0  0  0  0  0  0  0  0
  142.6760  153.7110  135.1890 C   0  0  0  0  0  0  0  0  0  0  0  0
  142.2600  152.6360  134.3860 C   0  0  0  0  0  0  0  0  0  0  0  0
  141.2210  152.8050  133.4430 C   0  0  0  0  0  0  0  0  0  0  0  0
  140.7990  151.7010  132.6400 N   0  0  0  0  0  0  0  0  0  0  0  0
  139.5260  151.0870  132.2160 C   0  0  0  0  0  0  0  0  0  0  0  0
  140.1480  149.9880  131.3910 C   0  0  0  0  0  0  0  0  0  0  0  0
  139.9290  148.5520  131.9300 C   0  0  0  0  0  0  0  0  0  0  0  0
  138.8550  147.7990  131.1180 C   0  0  0  0  0  0  0  0  0  0  0  0
  137.8580  148.7170  130.5500 N   0  0  0  0  0  0  0  0  0  0  0  0
  138.4440  149.6160  129.5360 C   0  0  0  0  0  0  0  0  0  0  0  0
  139.8690  150.1040  129.8810 C   0  0  0  0  0  0  0  0  0  0  0  0
  141.4300  150.6320  131.8420 C   0  0  0  0  0  0  0  0  0  0  0  0
  140.5970  154.0600  133.2940 C   0  0  0  0  0  0  0  0  0  0  0  0
  141.0410  155.1190  134.0940 C   0  0  0  0  0  0  0  0  0  0  0  0
  140.5830  156.3890  134.1360 N   0  0  0  0  0  0  0  0  0  0  0  0
  139.5090  156.9300  133.3510 C   0  0  0  0  0  0  0  0  0  0  0  0
  138.3200  156.8380  133.7650 O   0  0  0  0  0  0  0  0  0  0  0  0
  139.7850  157.5250  132.1150 O   0  0  0  0  0  0  0  0  0  0  0  0
  138.8460  158.3110  131.3820 C   0  0  0  0  0  0  0  0  0  0  0  0
  138.9120  159.7800  131.8080 C   0  0  0  0  0  0  0  0  0  0  0  0
  138.6990  160.7130  130.6530 C   0  0  0  0  0  0  0  0  0  0  0  0
  137.8240  160.4900  129.8310 O   0  0  0  0  0  0  0  0  0  0  0  0
  140.2830  159.0650  133.6210 H   0  0  0  0  0  0  0  0  0  0  0  0
  142.9463  156.3457  136.4776 H   0  0  0  0  0  0  0  0  0  0  0  0
  143.4798  153.5877  135.9298 H   0  0  0  0  0  0  0  0  0  0  0  0
  142.7467  151.6552  134.4920 H   0  0  0  0  0  0  0  0  0  0  0  0
  138.9373  150.7022  133.0618 H   0  0  0  0  0  0  0  0  0  0  0  0
  138.7967  151.7398  131.7140 H   0  0  0  0  0  0  0  0  0  0  0  0
  140.8775  147.9985  131.8672 H   0  0  0  0  0  0  0  0  0  0  0  0
  139.5849  148.6242  132.9723 H   0  0  0  0  0  0  0  0  0  0  0  0
  139.3454  147.2541  130.2979 H   0  0  0  0  0  0  0  0  0  0  0  0
  138.3354  147.1069  131.7969 H   0  0  0  0  0  0  0  0  0  0  0  0
  137.4430  149.2890  131.3230 H   0  0  0  0  0  0  0  0  0  0  0  0
  138.4848  149.0774  128.5777 H   0  0  0  0  0  0  0  0  0  0  0  0
  137.8027  150.5086  129.4916 H   0  0  0  0  0  0  0  0  0  0  0  0
  140.6003  149.4916  129.3331 H   0  0  0  0  0  0  0  0  0  0  0  0
  139.9541  151.1619  129.5917 H   0  0  0  0  0  0  0  0  0  0  0  0
  142.0515  149.9589  132.4508 H   0  0  0  0  0  0  0  0  0  0  0  0
  142.1358  150.9437  131.0579 H   0  0  0  0  0  0  0  0  0  0  0  0
  139.7828  154.2032  132.5684 H   0  0  0  0  0  0  0  0  0  0  0  0
  139.0746  158.2368  130.3086 H   0  0  0  0  0  0  0  0  0  0  0  0
  137.8342  157.9310  131.5868 H   0  0  0  0  0  0  0  0  0  0  0  0
  138.1332  159.9658  132.5623 H   0  0  0  0  0  0  0  0  0  0  0  0
  139.9160  159.9695  132.2156 H   0  0  0  0  0  0  0  0  0  0  0  0
  139.3352  161.6039  130.5458 H   0  0  0  0  0  0  0  0  0  0  0  0
  1  2  1  0
  2  3  2  0
  2  4  1  0
  4  5  2  0
  5  6  1  0
  6  7  2  0
  7  8  1  0
  8  9  2  0
  9 10  1  0
 10 11  1  0
 11 12  1  0
 12 13  1  0
 13 14  1  0
 14 15  1  0
 15 16  1  0
 16 17  1  0
 12 18  1  0
  9 19  1  0
 19 20  2  0
 20 21  1  0
 21 22  1  0
 22 23  2  0
 22 24  1  0
 24 25  1  0
 25 26  1  0
 26 27  1  0
 27 28  2  0
 21  4  1  0
 20  6  1  0
 18 10  1  0
 17 12  1  0
  1 29  1  0
  5 30  1  0
  7 31  1  0
  8 32  1  0
 11 33  1  0
 11 34  1  0
 13 35  1  0
 13 36  1  0
 14 37  1  0
 14 38  1  0
 15 39  1  0
 16 40  1  0
 16 41  1  0
 17 42  1  0
 17 43  1  0
 18 44  1  0
 18 45  1  0
 19 46  1  0
 25 47  1  0
 25 48  1  0
 26 49  1  0
 26 50  1  0
 27 51  1  0
M  CHG  1   1  -1
M  END
>  <UniqueID>  (12) 
12

>  <SMILES>  (12) 
[NH-]C(=O)c1cc2ccc(N3CC4(CCNCC4)C3)cc2n1C(=O)OCCC=O

>  <Energy>  (12) 
138.85487275183164

>  <Genealogy>  (12) 
[NH-]C(=O)c1cc2ccc(N3CC4(CCNCC4)C3)cc2n1C(=O)OCCC=O (protonated)
[NH-]C(=O)c1cc2ccc(N3CC4(CCNCC4)C3)cc2n1C(=O)OCCC=O (3D coordinates assigned)
[NH-]C(=O)c1cc2ccc(N3CC4(CCNCC4)C3)cc2n1C(=O)OCCC=O (nonaromatic ring conformer: 138.85487275183164 kcal/mol)

>  <smiles>  (12) 
NC(=O)c1cc2ccc(N3CC4(CCNCC4)C3)cc2n1C(=O)OCCC=O

>  <score_type>  (12) 
oracle

>  <origin>  (12) 
adg

>  <m_score__min__energy>  (12) 
-8.3300000000000001

>  <m_primary>  (12) 
energy

$$$$
12:0
     RDKit          3D

 40 42  0  0  0  0  0  0  0  0999 V2000
  148.7920  161.9060  130.7390 C   0  0  0  0  0  0  0  0  0  0  0  0
  149.2020  160.4980  130.6800 N   0  0  0  0  0  0  0  0  0  0  0  0
  150.2480  160.0830  129.7380 C   0  0  0  0  0  0  0  0  0  0  0  0
  148.5860  159.4990  131.5270 C   0  0  0  0  0  0  0  0  0  0  0  0
  149.2340  158.2900  131.8450 C   0  0  0  0  0  0  0  0  0  0  0  0
  148.6010  157.3670  132.6760 C   0  0  0  0  0  0  0  0  0  0  0  0
  147.3310  157.6390  133.1860 C   0  0  0  0  0  0  0  0  0  0  0  0
  146.6950  158.8440  132.8490 C   0  0  0  0  0  0  0  0  0  0  0  0
  145.3490  159.1910  133.3700 C   0  0  0  0  0  0  0  0  0  0  0  0
  145.0070  160.5530  133.5840 C   0  0  0  0  0  0  0  0  0  0  0  0
  143.7380  160.9140  134.0660 C   0  0  0  0  0  0  0  0  0  0  0  0
  142.8280  159.8970  134.3300 C   0  0  0  0  0  0  0  0  0  0  0  0
  141.5250  159.9640  134.7700 C   0  0  0  0  0  0  0  0  0  0  0  0
  141.0860  158.6420  134.8270 C   0  0  0  0  0  0  0  0  0  0  0  0
  139.7410  158.2460  135.2970 C   0  0  0  0  0  0  0  0  0  0  0  0
  139.4460  158.1540  136.6880 N   0  0  0  0  0  0  0  0  0  0  0  0
  138.8310  158.0110  134.4580 O   0  0  0  0  0  0  0  0  0  0  0  0
  142.0790  157.7940  134.4400 N   0  0  0  0  0  0  0  0  0  0  0  0
  142.0030  156.3690  134.2860 C   0  0  0  0  0  0  0  0  0  0  0  0
  142.8540  155.6340  134.8540 O   0  0  0  0  0  0  0  0  0  0  0  0
  140.9460  155.7530  133.4690 C   0  0  0  0  0  0  0  0  0  0  0  0
  140.2660  156.4540  132.6730 O   0  0  0  0  0  0  0  0  0  0  0  0
  140.7030  154.3890  133.5600 O   0  0  0  0  0  0  0  0  0  0  0  0
  143.1360  158.5770  134.1350 C   0  0  0  0  0  0  0  0  0  0  0  0
  144.3840  158.1880  133.6360 C   0  0  0  0  0  0  0  0  0  0  0  0
  147.3440  159.7300  132.0410 N   0  0  0  0  0  0  0  0  0  0  0  0
  148.7012  162.2177  131.7900 H   0  0  0  0  0  0  0  0  0  0  0  0
  149.5461  162.5289  130.2356 H   0  0  0  0  0  0  0  0  0  0  0  0
  147.8214  162.0267  130.2356 H   0  0  0  0  0  0  0  0  0  0  0  0
  151.1281  159.7338  130.2979 H   0  0  0  0  0  0  0  0  0  0  0  0
  149.8687  159.2672  129.1050 H   0  0  0  0  0  0  0  0  0  0  0  0
  150.5312  160.9369  129.1050 H   0  0  0  0  0  0  0  0  0  0  0  0
  150.2339  158.0751  131.4400 H   0  0  0  0  0  0  0  0  0  0  0  0
  149.1037  156.4222  132.9302 H   0  0  0  0  0  0  0  0  0  0  0  0
  146.8322  156.9148  133.8469 H   0  0  0  0  0  0  0  0  0  0  0  0
  145.7476  161.3373  133.3689 H   0  0  0  0  0  0  0  0  0  0  0  0
  143.4726  161.9689  134.2295 H   0  0  0  0  0  0  0  0  0  0  0  0
  140.9522  160.8684  135.0228 H   0  0  0  0  0  0  0  0  0  0  0  0
  139.4430  159.0040  137.2950 H   0  0  0  0  0  0  0  0  0  0  0  0
  144.6110  157.1271  133.4542 H   0  0  0  0  0  0  0  0  0  0  0  0
  1  2  1  0
  2  3  1  0
  2  4  1  0
  4  5  2  0
  5  6  1  0
  6  7  2  0
  7  8  1  0
  8  9  1  0
  9 10  2  0
 10 11  1  0
 11 12  2  0
 12 13  1  0
 13 14  2  0
 14 15  1  0
 15 16  1  0
 15 17  2  0
 14 18  1  0
 18 19  1  0
 19 20  2  0
 19 21  1  0
 21 22  2  0
 21 23  1  0
 18 24  1  0
 24 25  2  0
  8 26  2  0
 26  4  1  0
 25  9  1  0
 24 12  1  0
  1 27  1  0
  1 28  1  0
  1 29  1  0
  3 30  1  0
  3 31  1  0
  3 32  1  0
  5 33  1  0
  6 34  1  0
  7 35  1  0
 10 36  1  0
 11 37  1  0
 13 38  1  0
 16 39  1  0
 25 40  1  0
M  CHG  2  16  -1  23  -1
M  END
>  <UniqueID>  (13) 
13

>  <SMILES>  (13) 
CN(C)c1cccc(-c2ccc3cc(C([NH-])=O)n(C(=O)C(=O)[O-])c3c2)n1

>  <Energy>  (13) 
85.15807972661591

>  <Genealogy>  (13) 
CN(C)c1cccc(-c2ccc3cc(C([NH-])=O)n(C(=O)C(=O)[O-])c3c2)n1 (protonated)
CN(C)c1cccc(-c2ccc3cc(C([NH-])=O)n(C(=O)C(=O)[O-])c3c2)n1 (3D coordinates assigned)
CN(C)c1cccc(-c2ccc3cc(C([NH-])=O)n(C(=O)C(=O)[O-])c3c2)n1 (optimized conformer: 85.15807972661591 kcal/mol)

>  <smiles>  (13) 
CN(C)c1cccc(-c2ccc3cc(C(N)=O)n(C(=O)C(=O)O)c3c2)n1

>  <score_type>  (13) 
oracle

>  <origin>  (13) 
adg

>  <m_score__min__energy>  (13) 
-8.0600000000000005

>  <m_primary>  (13) 
energy

$$$$
13:0
     RDKit          3D

 58 59  0  0  0  0  0  0  0  0999 V2000
  136.8920  159.9120  130.7380 C   0  0  0  0  0  0  0  0  0  0  0  0
  138.3470  159.6820  130.7100 N   0  0  0  0  0  0  0  0  0  0  0  0
  139.0370  160.8140  131.3480 C   0  0  0  0  0  0  0  0  0  0  0  0
  138.7010  158.4130  131.3850 C   0  0  0  0  0  0  0  0  0  0  0  0
  139.8550  158.6240  132.3730 C   0  0  0  0  0  0  0  0  0  0  0  0
  140.2040  157.3610  133.0400 N   0  0  0  0  0  0  0  0  0  0  0  0
  139.4370  156.1460  132.7370 C   0  0  0  0  0  0  0  0  0  0  0  0
  141.2850  157.3340  133.9990 C   0  0  0  0  0  0  0  0  0  0  0  0
  141.8960  156.2520  134.2220 O   0  0  0  0  0  0  0  0  0  0  0  0
  141.7160  158.5620  134.7570 C   0  0  0  0  0  0  0  0  0  0  0  0
  143.0530  159.0620  134.2800 C   0  0  0  0  0  0  0  0  0  0  0  0
  143.2950  160.4550  134.1730 C   0  0  0  0  0  0  0  0  0  0  0  0
  144.5400  160.9330  133.7300 C   0  0  0  0  0  0  0  0  0  0  0  0
  145.5150  160.0000  133.3920 C   0  0  0  0  0  0  0  0  0  0  0  0
  146.8100  160.1890  132.9680 C   0  0  0  0  0  0  0  0  0  0  0  0
  147.3300  158.9090  132.7910 C   0  0  0  0  0  0  0  0  0  0  0  0
  148.6880  158.6480  132.2760 C   0  0  0  0  0  0  0  0  0  0  0  0
  149.0930  157.3340  131.8860 N   0  0  0  0  0  0  0  0  0  0  0  0
  149.4870  159.6090  132.1240 O   0  0  0  0  0  0  0  0  0  0  0  0
  146.4000  157.9630  133.1060 N   0  0  0  0  0  0  0  0  0  0  0  0
  146.5840  156.5390  133.1680 C   0  0  0  0  0  0  0  0  0  0  0  0
  145.7560  155.7710  132.6070 O   0  0  0  0  0  0  0  0  0  0  0  0
  147.6930  156.0110  133.8340 O   0  0  0  0  0  0  0  0  0  0  0  0
  147.7420  154.6760  134.3250 C   0  0  0  0  0  0  0  0  0  0  0  0
  148.2120  153.7420  133.2070 C   0  0  2  0  0  0  0  0  0  0  0  0
  148.3900  154.4900  132.0320 O   0  0  0  0  0  0  0  0  0  0  0  0
  147.1850  152.6260  132.9670 C   0  0  0  0  0  0  0  0  0  0  0  0
  146.0750  153.1230  132.2670 O   0  0  0  0  0  0  0  0  0  0  0  0
  145.2920  158.6490  133.4690 C   0  0  0  0  0  0  0  0  0  0  0  0
  144.0670  158.1450  133.9240 C   0  0  0  0  0  0  0  0  0  0  0  0
  136.5494  159.9662  131.7819 H   0  0  0  0  0  0  0  0  0  0  0  0
  136.6604  160.8579  130.2265 H   0  0  0  0  0  0  0  0  0  0  0  0
  136.3799  159.0837  130.2265 H   0  0  0  0  0  0  0  0  0  0  0  0
  138.9749  160.7121  132.4415 H   0  0  0  0  0  0  0  0  0  0  0  0
  140.0929  160.8207  131.0398 H   0  0  0  0  0  0  0  0  0  0  0  0
  138.5591  161.7556  131.0398 H   0  0  0  0  0  0  0  0  0  0  0  0
  137.8229  158.0381  131.9312 H   0  0  0  0  0  0  0  0  0  0  0  0
  139.0181  157.6855  130.6233 H   0  0  0  0  0  0  0  0  0  0  0  0
  140.7335  158.9994  131.8277 H   0  0  0  0  0  0  0  0  0  0  0  0
  139.5400  159.3518  133.1353 H   0  0  0  0  0  0  0  0  0  0  0  0
  139.1312  155.6617  133.6761 H   0  0  0  0  0  0  0  0  0  0  0  0
  138.5431  156.4125  132.1540 H   0  0  0  0  0  0  0  0  0  0  0  0
  140.0621  155.4536  132.1540 H   0  0  0  0  0  0  0  0  0  0  0  0
  140.9658  159.3533  134.6123 H   0  0  0  0  0  0  0  0  0  0  0  0
  141.8053  158.2979  135.8211 H   0  0  0  0  0  0  0  0  0  0  0  0
  142.5009  161.1681  134.4392 H   0  0  0  0  0  0  0  0  0  0  0  0
  144.7376  162.0123  133.6528 H   0  0  0  0  0  0  0  0  0  0  0  0
  147.3251  161.1469  132.8037 H   0  0  0  0  0  0  0  0  0  0  0  0
  150.0710  157.1590  131.5640 H   0  0  0  0  0  0  0  0  0  0  0  0
  148.4050  156.5500  131.8440 H   0  0  0  0  0  0  0  0  0  0  0  0
  148.4447  154.6208  135.1695 H   0  0  0  0  0  0  0  0  0  0  0  0
  146.7406  154.3710  134.6630 H   0  0  0  0  0  0  0  0  0  0  0  0
  149.1638  153.2757  133.5015 H   0  0  0  0  0  0  0  0  0  0  0  0
  147.4910  154.8050  131.7460 H   0  0  0  0  0  0  0  0  0  0  0  0
  147.6537  151.8228  132.3795 H   0  0  0  0  0  0  0  0  0  0  0  0
  146.8480  152.2370  133.9392 H   0  0  0  0  0  0  0  0  0  0  0  0
  146.3940  153.9010  131.7370 H   0  0  0  0  0  0  0  0  0  0  0  0
  143.8984  157.0608  134.0023 H   0  0  0  0  0  0  0  0  0  0  0  0
  1  2  1  0
  2  3  1  0
  2  4  1  0
  4  5  1  0
  5  6  1  0
  6  7  1  0
  6  8  1  0
  8  9  2  0
  8 10  1  0
 10 11  1  0
 11 12  2  0
 12 13  1  0
 13 14  2  0
 14 15  1  0
 15 16  2  0
 16 17  1  0
 17 18  1  0
 17 19  2  0
 16 20  1  0
 20 21  1  0
 21 22  2  0
 21 23  1  0
 23 24  1  0
 24 25  1  0
 25 26  1  0
 25 27  1  0
 27 28  1  0
 20 29  1  0
 29 30  2  0
 30 11  1  0
 29 14  1  0
  1 31  1  0
  1 32  1  0
  1 33  1  0
  3 34  1  0
  3 35  1  0
  3 36  1  0
  4 37  1  0
  4 38  1  0
  5 39  1  0
  5 40  1  0
  7 41  1  0
  7 42  1  0
  7 43  1  0
 10 44  1  0
 10 45  1  0
 12 46  1  0
 13 47  1  0
 15 48  1  0
 18 49  1  0
 18 50  1  0
 24 51  1  0
 24 52  1  0
 25 53  1  1
 26 54  1  0
 27 55  1  0
 27 56  1  0
 28 57  1  0
 30 58  1  0
M  END
>  <UniqueID>  (14) 
14

>  <SMILES>  (14) 
CN(C)CCN(C)C(=O)Cc1ccc2cc(C(N)=O)n(C(=O)OC[C@H](O)CO)c2c1

>  <Energy>  (14) 
85.69067639651244

>  <Genealogy>  (14) 
CN(C)CCN(C)C(=O)Cc1ccc2cc(C(N)=O)n(C(=O)OC[C@H](O)CO)c2c1 (chirality)
CN(C)CCN(C)C(=O)Cc1ccc2cc(C(N)=O)n(C(=O)OC[C@H](O)CO)c2c1 (3D coordinates assigned)
CN(C)CCN(C)C(=O)Cc1ccc2cc(C(N)=O)n(C(=O)OC[C@H](O)CO)c2c1 (optimized conformer: 85.69067639651244 kcal/mol)

>  <smiles>  (14) 
CN(C)CCN(C)C(=O)Cc1ccc2cc(C(N)=O)n(C(=O)OCC(O)CO)c2c1

>  <score_type>  (14) 
oracle

>  <origin>  (14) 
adg

>  <m_score__min__energy>  (14) 
-7.4100000000000001

>  <m_primary>  (14) 
energy

$$$$
14:0
     RDKit          3D

 38 39  0  0  0  0  0  0  0  0999 V2000
  148.5000  162.2220  130.7320 N   0  0  0  0  0  0  0  0  0  0  0  0
  149.5920  161.3160  130.3710 C   0  0  0  0  0  0  0  0  0  0  0  0
  149.1500  159.8400  130.2980 C   0  0  0  0  0  0  0  0  0  0  0  0
  149.6520  158.9470  131.4520 C   0  0  0  0  0  0  0  0  0  0  0  0
  149.1470  159.3700  132.8430 C   0  0  0  0  0  0  0  0  0  0  0  0
  147.8470  158.7120  133.2240 C   0  0  0  0  0  0  0  0  0  0  0  0
  146.6150  159.3760  132.9900 C   0  0  0  0  0  0  0  0  0  0  0  0
  145.3960  158.7580  133.3160 C   0  0  0  0  0  0  0  0  0  0  0  0
  145.4380  157.4880  133.8810 C   0  0  0  0  0  0  0  0  0  0  0  0
  144.4140  156.6490  134.2600 C   0  0  0  0  0  0  0  0  0  0  0  0
  145.0380  155.5030  134.7480 C   0  0  0  0  0  0  0  0  0  0  0  0
  144.3020  154.3550  135.3180 C   0  0  0  0  0  0  0  0  0  0  0  0
  144.5980  153.8560  136.6230 N   0  0  0  0  0  0  0  0  0  0  0  0
  143.3650  153.8330  134.6570 O   0  0  0  0  0  0  0  0  0  0  0  0
  146.3920  155.6200  134.6590 N   0  0  0  0  0  0  0  0  0  0  0  0
  147.3910  154.6280  134.9500 C   0  0  0  0  0  0  0  0  0  0  0  0
  148.0210  154.0830  134.0050 O   0  0  0  0  0  0  0  0  0  0  0  0
  147.6660  154.2100  136.3330 C   0  0  0  0  0  0  0  0  0  0  0  0
  148.5010  154.8390  137.0370 O   0  0  0  0  0  0  0  0  0  0  0  0
  146.9900  153.1280  136.8810 O   0  0  0  0  0  0  0  0  0  0  0  0
  146.6220  156.8430  134.1350 C   0  0  0  0  0  0  0  0  0  0  0  0
  147.8500  157.4280  133.8140 C   0  0  0  0  0  0  0  0  0  0  0  0
  147.7340  162.1550  130.0220 H   0  0  0  0  0  0  0  0  0  0  0  0
  148.1140  161.9440  131.6620 H   0  0  0  0  0  0  0  0  0  0  0  0
  149.9841  161.6137  129.3873 H   0  0  0  0  0  0  0  0  0  0  0  0
  150.3571  161.3923  131.1577 H   0  0  0  0  0  0  0  0  0  0  0  0
  148.0503  159.8134  130.3005 H   0  0  0  0  0  0  0  0  0  0  0  0
  149.5968  159.4322  129.3793 H   0  0  0  0  0  0  0  0  0  0  0  0
  149.3166  157.9168  131.2619 H   0  0  0  0  0  0  0  0  0  0  0  0
  150.7477  159.0420  131.4713 H   0  0  0  0  0  0  0  0  0  0  0  0
  149.9085  159.0993  133.5893 H   0  0  0  0  0  0  0  0  0  0  0  0
  148.9690  160.4550  132.8117 H   0  0  0  0  0  0  0  0  0  0  0  0
  146.6143  160.3839  132.5493 H   0  0  0  0  0  0  0  0  0  0  0  0
  144.4370  159.2637  133.1298 H   0  0  0  0  0  0  0  0  0  0  0  0
  143.3333  156.8425  134.1919 H   0  0  0  0  0  0  0  0  0  0  0  0
  145.2320  154.3720  137.2700 H   0  0  0  0  0  0  0  0  0  0  0  0
  144.1040  153.0090  136.9830 H   0  0  0  0  0  0  0  0  0  0  0  0
  148.7950  156.9022  134.0155 H   0  0  0  0  0  0  0  0  0  0  0  0
  1  2  1  0
  2  3  1  0
  3  4  1  0
  4  5  1  0
  5  6  1  0
  6  7  2  0
  7  8  1  0
  8  9  2  0
  9 10  1  0
 10 11  2  0
 11 12  1  0
 12 13  1  0
 12 14  2  0
 11 15  1  0
 15 16  1  0
 16 17  2  0
 16 18  1  0
 18 19  2  0
 18 20  1  0
 15 21  1  0
 21 22  2  0
 22  6  1  0
 21  9  1  0
  1 23  1  0
  1 24  1  0
  2 25  1  0
  2 26  1  0
  3 27  1  0
  3 28  1  0
  4 29  1  0
  4 30  1  0
  5 31  1  0
  5 32  1  0
  7 33  1  0
  8 34  1  0
 10 35  1  0
 13 36  1  0
 13 37  1  0
 22 38  1  0
M  CHG  1  20  -1
M  END
>  <UniqueID>  (15) 
15

>  <SMILES>  (15) 
NCCCCc1ccc2cc(C(N)=O)n(C(=O)C(=O)[O-])c2c1

>  <Energy>  (15) 
74.0931410666835

>  <Genealogy>  (15) 
NCCCCc1ccc2cc(C(N)=O)n(C(=O)C(=O)[O-])c2c1 (protonated)
NCCCCc1ccc2cc(C(N)=O)n(C(=O)C(=O)[O-])c2c1 (3D coordinates assigned)
NCCCCc1ccc2cc(C(N)=O)n(C(=O)C(=O)[O-])c2c1 (optimized conformer: 74.0931410666835 kcal/mol)

>  <smiles>  (15) 
NCCCCc1ccc2cc(C(N)=O)n(C(=O)C(=O)O)c2c1

>  <score_type>  (15) 
oracle

>  <origin>  (15) 
adg

>  <m_score__min__energy>  (15) 
-7.5199999999999996

>  <m_primary>  (15) 
energy

$$$$
15:0
     RDKit          3D

 39 40  0  0  0  0  0  0  0  0999 V2000
  144.1770  159.8900  133.8070 C   0  0  0  0  0  0  0  0  0  0  0  0
  145.4880  160.1770  133.2330 N   0  0  0  0  0  0  0  0  0  0  0  0
  146.5070  159.1790  133.0370 C   0  0  0  0  0  0  0  0  0  0  0  0
  147.8250  159.5290  132.6350 C   0  0  0  0  0  0  0  0  0  0  0  0
  148.8080  158.5410  132.4590 C   0  0  0  0  0  0  0  0  0  0  0  0
  148.4490  157.2160  132.6790 C   0  0  0  0  0  0  0  0  0  0  0  0
  149.2070  156.0680  132.6110 C   0  0  0  0  0  0  0  0  0  0  0  0
  148.3400  155.0310  132.9520 C   0  0  0  0  0  0  0  0  0  0  0  0
  148.7120  153.5960  132.9650 C   0  0  0  0  0  0  0  0  0  0  0  0
  147.8560  152.6210  133.5640 N   0  0  0  0  0  0  0  0  0  0  0  0
  149.8030  153.2230  132.4590 O   0  0  0  0  0  0  0  0  0  0  0  0
  147.0950  155.5200  133.2100 N   0  0  0  0  0  0  0  0  0  0  0  0
  145.9430  154.7840  133.6510 C   0  0  0  0  0  0  0  0  0  0  0  0
  145.2010  154.2210  132.8020 O   0  0  0  0  0  0  0  0  0  0  0  0
  145.6130  154.6840  135.0810 C   0  0  0  0  0  0  0  0  0  0  0  0
  144.8450  155.5330  135.6070 O   0  0  0  0  0  0  0  0  0  0  0  0
  146.1640  153.6130  135.8600 N   0  0  0  0  0  0  0  0  0  0  0  0
  147.0150  153.7560  137.0430 C   0  0  0  0  0  0  0  0  0  0  0  0
  148.4700  153.4000  136.7240 C   0  0  0  0  0  0  0  0  0  0  0  0
  146.4730  152.9360  138.2160 C   0  0  0  0  0  0  0  0  0  0  0  0
  147.1800  156.8580  133.0480 C   0  0  0  0  0  0  0  0  0  0  0  0
  146.1870  157.8210  133.2530 C   0  0  0  0  0  0  0  0  0  0  0  0
  144.2461  159.9051  134.9047 H   0  0  0  0  0  0  0  0  0  0  0  0
  143.4564  160.6517  133.4744 H   0  0  0  0  0  0  0  0  0  0  0  0
  143.8405  158.8969  133.4744 H   0  0  0  0  0  0  0  0  0  0  0  0
  145.6890  161.1650  132.9560 H   0  0  0  0  0  0  0  0  0  0  0  0
  148.0778  160.5851  132.4598 H   0  0  0  0  0  0  0  0  0  0  0  0
  149.8313  158.8078  132.1561 H   0  0  0  0  0  0  0  0  0  0  0  0
  150.2710  155.9867  132.3441 H   0  0  0  0  0  0  0  0  0  0  0  0
  148.1500  151.6190  133.5970 H   0  0  0  0  0  0  0  0  0  0  0  0
  146.9140  152.8730  133.9320 H   0  0  0  0  0  0  0  0  0  0  0  0
  146.9970  154.8128  137.3478 H   0  0  0  0  0  0  0  0  0  0  0  0
  149.0282  153.2634  137.6620 H   0  0  0  0  0  0  0  0  0  0  0  0
  148.5000  152.4680  136.1405 H   0  0  0  0  0  0  0  0  0  0  0  0
  148.9269  154.2128  136.1405 H   0  0  0  0  0  0  0  0  0  0  0  0
  146.7815  153.4027  139.1631 H   0  0  0  0  0  0  0  0  0  0  0  0
  145.3747  152.9032  138.1640 H   0  0  0  0  0  0  0  0  0  0  0  0
  146.8733  151.9127  138.1640 H   0  0  0  0  0  0  0  0  0  0  0  0
  145.1775  157.5266  133.5759 H   0  0  0  0  0  0  0  0  0  0  0  0
  1  2  1  0
  2  3  1  0
  3  4  2  0
  4  5  1  0
  5  6  2  0
  6  7  1  0
  7  8  2  0
  8  9  1  0
  9 10  1  0
  9 11  2  0
  8 12  1  0
 12 13  1  0
 13 14  2  0
 13 15  1  0
 15 16  2  0
 15 17  1  0
 17 18  1  0
 18 19  1  0
 18 20  1  0
 12 21  1  0
 21 22  2  0
 22  3  1  0
 21  6  1  0
  1 23  1  0
  1 24  1  0
  1 25  1  0
  2 26  1  0
  4 27  1  0
  5 28  1  0
  7 29  1  0
 10 30  1  0
 10 31  1  0
 18 32  1  0
 19 33  1  0
 19 34  1  0
 19 35  1  0
 20 36  1  0
 20 37  1  0
 20 38  1  0
 22 39  1  0
M  CHG  1  17  -1
M  END
>  <UniqueID>  (16) 
16

>  <SMILES>  (16) 
CNc1ccc2cc(C(N)=O)n(C(=O)C(=O)[N-]C(C)C)c2c1

>  <Energy>  (16) 
71.32928701518273

>  <Genealogy>  (16) 
CNc1ccc2cc(C(N)=O)n(C(=O)C(=O)[N-]C(C)C)c2c1 (protonated)
CNc1ccc2cc(C(N)=O)n(C(=O)C(=O)[N-]C(C)C)c2c1 (3D coordinates assigned)
CNc1ccc2cc(C(N)=O)n(C(=O)C(=O)[N-]C(C)C)c2c1 (optimized conformer: 71.32928701518273 kcal/mol)

>  <smiles>  (16) 
CNc1ccc2cc(C(N)=O)n(C(=O)C(=O)NC(C)C)c2c1

>  <score_type>  (16) 
oracle

>  <origin>  (16) 
adg

>  <m_score__min__energy>  (16) 
-6.9199999999999999

>  <m_primary>  (16) 
energy

$$$$
16:0
     RDKit          3D

 41 43  0  0  0  0  0  0  0  0999 V2000
  150.2150  158.1830  132.2420 N   0  0  0  0  0  0  0  0  0  0  0  0
  149.3750  159.3200  132.0310 C   0  0  0  0  0  0  0  0  0  0  0  0
  149.8680  160.3700  131.5330 O   0  0  0  0  0  0  0  0  0  0  0  0
  147.9630  159.3180  132.4640 C   0  0  0  0  0  0  0  0  0  0  0  0
  147.2230  160.4810  132.6570 C   0  0  0  0  0  0  0  0  0  0  0  0
  146.0130  160.0630  133.1590 C   0  0  0  0  0  0  0  0  0  0  0  0
  144.9030  160.8060  133.5490 C   0  0  0  0  0  0  0  0  0  0  0  0
  143.7820  160.1120  134.0320 C   0  0  0  0  0  0  0  0  0  0  0  0
  143.7840  158.6970  134.1020 C   0  0  0  0  0  0  0  0  0  0  0  0
  142.6350  158.0000  134.6180 N   0  0  0  0  0  0  0  0  0  0  0  0
  142.0030  158.4320  135.8700 C   0  0  0  0  0  0  0  0  0  0  0  0
  140.5300  158.7380  135.6050 C   0  0  0  0  0  0  0  0  0  0  0  0
  139.7780  157.5170  135.0040 C   0  0  0  0  0  0  0  0  0  0  0  0
  138.7290  157.9550  133.9630 C   0  0  0  0  0  0  0  0  0  0  0  0
  138.8660  157.2250  132.7720 O   0  0  0  0  0  0  0  0  0  0  0  0
  140.7210  156.4150  134.4500 C   0  0  0  0  0  0  0  0  0  0  0  0
  141.9890  156.9770  133.7860 C   0  0  0  0  0  0  0  0  0  0  0  0
  144.9290  157.9760  133.6970 C   0  0  0  0  0  0  0  0  0  0  0  0
  146.0430  158.6930  133.2420 C   0  0  0  0  0  0  0  0  0  0  0  0
  147.2360  158.2180  132.8120 N   0  0  0  0  0  0  0  0  0  0  0  0
  147.6180  156.8380  132.6810 C   0  0  0  0  0  0  0  0  0  0  0  0
  146.9700  156.0660  131.9240 O   0  0  0  0  0  0  0  0  0  0  0  0
  148.7220  156.3440  133.3620 O   0  0  0  0  0  0  0  0  0  0  0  0
  149.8790  157.3710  132.8040 H   0  0  0  0  0  0  0  0  0  0  0  0
  151.2120  158.1980  131.9330 H   0  0  0  0  0  0  0  0  0  0  0  0
  147.5389  161.5145  132.4517 H   0  0  0  0  0  0  0  0  0  0  0  0
  144.9037  161.9039  133.4810 H   0  0  0  0  0  0  0  0  0  0  0  0
  142.8937  160.6723  134.3592 H   0  0  0  0  0  0  0  0  0  0  0  0
  142.0840  157.6309  136.6194 H   0  0  0  0  0  0  0  0  0  0  0  0
  142.5071  159.3334  136.2485 H   0  0  0  0  0  0  0  0  0  0  0  0
  140.0497  159.0184  136.5540 H   0  0  0  0  0  0  0  0  0  0  0  0
  140.4806  159.5592  134.8748 H   0  0  0  0  0  0  0  0  0  0  0  0
  139.2439  157.0490  135.8441 H   0  0  0  0  0  0  0  0  0  0  0  0
  137.7226  157.7870  134.3740 H   0  0  0  0  0  0  0  0  0  0  0  0
  138.8814  159.0213  133.7396 H   0  0  0  0  0  0  0  0  0  0  0  0
  138.0950  156.6010  132.7120 H   0  0  0  0  0  0  0  0  0  0  0  0
  141.0228  155.7627  135.2827 H   0  0  0  0  0  0  0  0  0  0  0  0
  140.1631  155.8677  133.6759 H   0  0  0  0  0  0  0  0  0  0  0  0
  142.6987  156.1531  133.6203 H   0  0  0  0  0  0  0  0  0  0  0  0
  141.6967  157.4458  132.8348 H   0  0  0  0  0  0  0  0  0  0  0  0
  144.9455  156.8769  133.7380 H   0  0  0  0  0  0  0  0  0  0  0  0
  1  2  1  0
  2  3  2  0
  2  4  1  0
  4  5  2  0
  5  6  1  0
  6  7  2  0
  7  8  1  0
  8  9  2  0
  9 10  1  0
 10 11  1  0
 11 12  1  0
 12 13  1  0
 13 14  1  0
 14 15  1  0
 13 16  1  0
 16 17  1  0
  9 18  1  0
 18 19  2  0
 19 20  1  0
 20 21  1  0
 21 22  2  0
 21 23  1  0
 20  4  1  0
 19  6  1  0
 17 10  1  0
  1 24  1  0
  1 25  1  0
  5 26  1  0
  7 27  1  0
  8 28  1  0
 11 29  1  0
 11 30  1  0
 12 31  1  0
 12 32  1  0
 13 33  1  0
 14 34  1  0
 14 35  1  0
 15 36  1  0
 16 37  1  0
 16 38  1  0
 17 39  1  0
 17 40  1  0
 18 41  1  0
M  CHG  1  23  -1
M  END
>  <UniqueID>  (17) 
17

>  <SMILES>  (17) 
NC(=O)c1cc2ccc(N3CCC(CO)CC3)cc2n1C(=O)[O-]

>  <Energy>  (17) 
89.12848632288787

>  <Genealogy>  (17) 
NC(=O)c1cc2ccc(N3CCC(CO)CC3)cc2n1C(=O)[O-] (protonated)
NC(=O)c1cc2ccc(N3CCC(CO)CC3)cc2n1C(=O)[O-] (3D coordinates assigned)
NC(=O)c1cc2ccc(N3CCC(CO)CC3)cc2n1C(=O)[O-] (nonaromatic ring conformer: 89.12848632288787 kcal/mol)

>  <smiles>  (17) 
NC(=O)c1cc2ccc(N3CCC(CO)CC3)cc2n1C(=O)O

>  <score_type>  (17) 
oracle

>  <origin>  (17) 
adg

>  <m_score__min__energy>  (17) 
-7.71

>  <m_primary>  (17) 
energy

$$$$
17:0
     RDKit          3D

 36 37  0  0  0  0  0  0  0  0999 V2000
  146.5860  163.1430  134.1020 N   0  0  0  0  0  0  0  0  0  0  0  0
  145.3590  162.7390  134.7820 C   0  0  0  0  0  0  0  0  0  0  0  0
  144.3910  162.1000  133.7850 C   0  0  0  0  0  0  0  0  0  0  0  0
  144.5740  160.6060  133.7530 C   0  0  0  0  0  0  0  0  0  0  0  0
  143.4450  159.7510  133.7660 C   0  0  0  0  0  0  0  0  0  0  0  0
  143.6030  158.3560  133.7170 C   0  0  0  0  0  0  0  0  0  0  0  0
  144.8970  157.8480  133.6400 C   0  0  0  0  0  0  0  0  0  0  0  0
  145.3330  156.5440  133.5960 C   0  0  0  0  0  0  0  0  0  0  0  0
  146.7230  156.6220  133.5230 C   0  0  0  0  0  0  0  0  0  0  0  0
  147.6080  155.4460  133.3640 C   0  0  0  0  0  0  0  0  0  0  0  0
  148.7280  155.4910  132.4780 N   0  0  0  0  0  0  0  0  0  0  0  0
  147.3980  154.4000  134.0330 O   0  0  0  0  0  0  0  0  0  0  0  0
  147.1290  157.9230  133.5230 N   0  0  0  0  0  0  0  0  0  0  0  0
  148.4750  158.4240  133.5110 C   0  0  0  0  0  0  0  0  0  0  0  0
  148.9370  159.0130  134.5260 O   0  0  0  0  0  0  0  0  0  0  0  0
  149.2660  158.2660  132.3660 O   0  0  0  0  0  0  0  0  0  0  0  0
  149.7250  159.3590  131.5740 C   0  0  0  0  0  0  0  0  0  0  0  0
  148.5900  160.2760  131.2440 C   0  0  0  0  0  0  0  0  0  0  0  0
  148.0630  160.2410  130.1010 O   0  0  0  0  0  0  0  0  0  0  0  0
  148.1320  161.1870  132.1860 O   0  0  0  0  0  0  0  0  0  0  0  0
  145.9990  158.6620  133.5940 C   0  0  0  0  0  0  0  0  0  0  0  0
  145.8720  160.0550  133.6620 C   0  0  0  0  0  0  0  0  0  0  0  0
  146.8410  162.3840  133.4280 H   0  0  0  0  0  0  0  0  0  0  0  0
  147.3550  163.1800  134.8100 H   0  0  0  0  0  0  0  0  0  0  0  0
  145.6026  162.0112  135.5700 H   0  0  0  0  0  0  0  0  0  0  0  0
  144.8845  163.6267  135.2258 H   0  0  0  0  0  0  0  0  0  0  0  0
  143.3582  162.3315  134.0846 H   0  0  0  0  0  0  0  0  0  0  0  0
  144.5958  162.5042  132.7827 H   0  0  0  0  0  0  0  0  0  0  0  0
  142.4348  160.1834  133.8149 H   0  0  0  0  0  0  0  0  0  0  0  0
  142.7312  157.6856  133.7388 H   0  0  0  0  0  0  0  0  0  0  0  0
  144.7161  155.6335  133.6145 H   0  0  0  0  0  0  0  0  0  0  0  0
  148.9030  156.3180  131.8660 H   0  0  0  0  0  0  0  0  0  0  0  0
  149.3690  154.6700  132.4010 H   0  0  0  0  0  0  0  0  0  0  0  0
  150.4903  159.9163  132.1341 H   0  0  0  0  0  0  0  0  0  0  0  0
  150.1516  158.9678  130.6386 H   0  0  0  0  0  0  0  0  0  0  0  0
  146.7601  160.7038  133.6450 H   0  0  0  0  0  0  0  0  0  0  0  0
  1  2  1  0
  2  3  1  0
  3  4  1  0
  4  5  2  0
  5  6  1  0
  6  7  2  0
  7  8  1  0
  8  9  2  0
  9 10  1  0
 10 11  1  0
 10 12  2  0
  9 13  1  0
 13 14  1  0
 14 15  2  0
 14 16  1  0
 16 17  1  0
 17 18  1  0
 18 19  2  0
 18 20  1  0
 13 21  1  0
 21 22  2  0
 22  4  1  0
 21  7  1  0
  1 23  1  0
  1 24  1  0
  2 25  1  0
  2 26  1  0
  3 27  1  0
  3 28  1  0
  5 29  1  0
  6 30  1  0
  8 31  1  0
 11 32  1  0
 11 33  1  0
 17 34  1  0
 17 35  1  0
 22 36  1  0
M  CHG  1  20  -1
M  END
>  <UniqueID>  (18) 
18

>  <SMILES>  (18) 
NCCc1ccc2cc(C(N)=O)n(C(=O)OCC(=O)[O-])c2c1

>  <Energy>  (18) 
68.12203052438551

>  <Genealogy>  (18) 
NCCc1ccc2cc(C(N)=O)n(C(=O)OCC(=O)[O-])c2c1 (protonated)
NCCc1ccc2cc(C(N)=O)n(C(=O)OCC(=O)[O-])c2c1 (3D coordinates assigned)
NCCc1ccc2cc(C(N)=O)n(C(=O)OCC(=O)[O-])c2c1 (optimized conformer: 68.12203052438551 kcal/mol)

>  <smiles>  (18) 
NCCc1ccc2cc(C(N)=O)n(C(=O)OCC(=O)O)c2c1

>  <score_type>  (18) 
oracle

>  <origin>  (18) 
adg

>  <m_score__min__energy>  (18) 
-6.9900000000000002

>  <m_primary>  (18) 
energy

$$$$
18:0
     RDKit          3D

 27 28  0  0  0  0  0  0  0  0999 V2000
  145.5850  160.4840  132.8750 N   0  0  0  0  0  0  0  0  0  0  0  0
  145.0010  159.3590  133.5370 C   0  0  0  0  0  0  0  0  0  0  0  0
  143.9940  159.5380  134.2710 O   0  0  0  0  0  0  0  0  0  0  0  0
  145.5760  158.0020  133.3830 C   0  0  0  0  0  0  0  0  0  0  0  0
  144.8290  156.8230  133.3870 C   0  0  0  0  0  0  0  0  0  0  0  0
  145.7400  155.8140  133.1700 C   0  0  0  0  0  0  0  0  0  0  0  0
  145.5530  154.4360  133.1110 C   0  0  0  0  0  0  0  0  0  0  0  0
  146.6840  153.6250  132.9200 C   0  0  0  0  0  0  0  0  0  0  0  0
  147.9750  154.2000  132.7820 C   0  0  0  0  0  0  0  0  0  0  0  0
  149.1870  153.3150  132.6400 C   0  0  0  0  0  0  0  0  0  0  0  0
  149.3490  152.5230  133.7630 F   0  0  0  0  0  0  0  0  0  0  0  0
  150.3100  154.1040  132.4800 F   0  0  0  0  0  0  0  0  0  0  0  0
  149.0580  152.4840  131.5400 F   0  0  0  0  0  0  0  0  0  0  0  0
  148.1250  155.6030  132.8740 C   0  0  0  0  0  0  0  0  0  0  0  0
  146.9780  156.3860  133.0440 C   0  0  0  0  0  0  0  0  0  0  0  0
  146.8930  157.7280  133.1640 N   0  0  0  0  0  0  0  0  0  0  0  0
  147.9860  158.6600  133.1520 C   0  0  0  0  0  0  0  0  0  0  0  0
  148.4890  159.0430  134.2410 O   0  0  0  0  0  0  0  0  0  0  0  0
  148.5160  159.1870  131.8860 C   0  0  0  0  0  0  0  0  0  0  0  0
  149.6360  158.8060  131.4550 O   0  0  0  0  0  0  0  0  0  0  0  0
  147.7720  160.0970  131.1460 O   0  0  0  0  0  0  0  0  0  0  0  0
  146.3770  160.3750  132.2060 H   0  0  0  0  0  0  0  0  0  0  0  0
  145.1900  161.4390  133.0230 H   0  0  0  0  0  0  0  0  0  0  0  0
  143.7434  156.7216  133.5326 H   0  0  0  0  0  0  0  0  0  0  0  0
  144.5500  153.9954  133.2109 H   0  0  0  0  0  0  0  0  0  0  0  0
  146.5682  152.5320  132.8768 H   0  0  0  0  0  0  0  0  0  0  0  0
  149.1201  156.0679  132.8133 H   0  0  0  0  0  0  0  0  0  0  0  0
  1  2  1  0
  2  3  2  0
  2  4  1  0
  4  5  2  0
  5  6  1  0
  6  7  2  0
  7  8  1  0
  8  9  2  0
  9 10  1  0
 10 11  1  0
 10 12  1  0
 10 13  1  0
  9 14  1  0
 14 15  2  0
 15 16  1  0
 16 17  1  0
 17 18  2  0
 17 19  1  0
 19 20  2  0
 19 21  1  0
 16  4  1  0
 15  6  1  0
  1 22  1  0
  1 23  1  0
  5 24  1  0
  7 25  1  0
  8 26  1  0
 14 27  1  0
M  CHG  1  21  -1
M  END
>  <UniqueID>  (19) 
19

>  <SMILES>  (19) 
NC(=O)c1cc2ccc(C(F)(F)F)cc2n1C(=O)C(=O)[O-]

>  <Energy>  (19) 
67.22472616406137

>  <Genealogy>  (19) 
NC(=O)c1cc2ccc(C(F)(F)F)cc2n1C(=O)C(=O)[O-] (protonated)
NC(=O)c1cc2ccc(C(F)(F)F)cc2n1C(=O)C(=O)[O-] (3D coordinates assigned)
NC(=O)c1cc2ccc(C(F)(F)F)cc2n1C(=O)C(=O)[O-] (optimized conformer: 67.22472616406137 kcal/mol)

>  <smiles>  (19) 
NC(=O)c1cc2ccc(C(F)(F)F)cc2n1C(=O)C(=O)O

>  <score_type>  (19) 
oracle

>  <origin>  (19) 
adg

>  <m_score__min__energy>  (19) 
-5.71

>  <m_primary>  (19) 
energy

$$$$
19:0
     RDKit          3D

 39 41  0  0  0  0  0  0  0  0999 V2000
  149.3190  159.4930  130.7620 C   0  0  0  0  0  0  0  0  0  0  0  0
  149.2340  158.4070  131.5280 C   0  0  0  0  0  0  0  0  0  0  0  0
  148.6390  158.4270  132.8770 C   0  0  0  0  0  0  0  0  0  0  0  0
  149.2310  159.0560  133.7930 O   0  0  0  0  0  0  0  0  0  0  0  0
  147.4130  157.7380  133.1740 N   0  0  0  0  0  0  0  0  0  0  0  0
  146.1680  158.2780  133.2750 C   0  0  0  0  0  0  0  0  0  0  0  0
  145.8500  159.7200  133.2560 C   0  0  0  0  0  0  0  0  0  0  0  0
  146.8650  160.7100  133.4340 N   0  0  0  0  0  0  0  0  0  0  0  0
  144.6510  160.0860  133.1230 O   0  0  0  0  0  0  0  0  0  0  0  0
  145.2080  157.2760  133.3990 C   0  0  0  0  0  0  0  0  0  0  0  0
  145.9110  156.0940  133.3680 C   0  0  0  0  0  0  0  0  0  0  0  0
  145.4580  154.7790  133.4280 C   0  0  0  0  0  0  0  0  0  0  0  0
  146.4090  153.7500  133.3250 C   0  0  0  0  0  0  0  0  0  0  0  0
  147.7850  154.0470  133.1470 C   0  0  0  0  0  0  0  0  0  0  0  0
  148.7540  152.9880  133.0340 N   0  0  0  0  0  0  0  0  0  0  0  0
  149.1770  152.2480  134.2270 C   0  0  0  0  0  0  0  0  0  0  0  0
  149.6030  150.8320  133.8290 C   0  0  0  0  0  0  0  0  0  0  0  0
  150.5650  150.8700  132.7920 O   0  0  0  0  0  0  0  0  0  0  0  0
  149.9870  151.4110  131.6200 C   0  0  0  0  0  0  0  0  0  0  0  0
  149.5900  152.8750  131.8350 C   0  0  0  0  0  0  0  0  0  0  0  0
  148.2040  155.3960  133.0900 C   0  0  0  0  0  0  0  0  0  0  0  0
  147.2390  156.3990  133.2220 C   0  0  0  0  0  0  0  0  0  0  0  0
  149.7720  159.4265  129.7618 H   0  0  0  0  0  0  0  0  0  0  0  0
  148.9362  160.4566  131.1294 H   0  0  0  0  0  0  0  0  0  0  0  0
  149.6239  157.4552  131.1381 H   0  0  0  0  0  0  0  0  0  0  0  0
  147.8260  160.4490  133.7450 H   0  0  0  0  0  0  0  0  0  0  0  0
  146.6260  161.7230  133.3570 H   0  0  0  0  0  0  0  0  0  0  0  0
  144.1200  157.4030  133.5001 H   0  0  0  0  0  0  0  0  0  0  0  0
  144.3887  154.5527  133.5522 H   0  0  0  0  0  0  0  0  0  0  0  0
  146.0828  152.7011  133.3831 H   0  0  0  0  0  0  0  0  0  0  0  0
  150.0251  152.7667  134.6979 H   0  0  0  0  0  0  0  0  0  0  0  0
  148.3394  152.1913  134.9378 H   0  0  0  0  0  0  0  0  0  0  0  0
  150.0361  150.3261  134.7045 H   0  0  0  0  0  0  0  0  0  0  0  0
  148.7186  150.2853  133.4699 H   0  0  0  0  0  0  0  0  0  0  0  0
  150.7157  151.3519  130.7981 H   0  0  0  0  0  0  0  0  0  0  0  0
  149.0839  150.8334  131.3733 H   0  0  0  0  0  0  0  0  0  0  0  0
  150.4965  153.4850  131.9622 H   0  0  0  0  0  0  0  0  0  0  0  0
  149.0249  153.2319  130.9613 H   0  0  0  0  0  0  0  0  0  0  0  0
  149.2643  155.6505  132.9452 H   0  0  0  0  0  0  0  0  0  0  0  0
  1  2  2  0
  2  3  1  0
  3  4  2  0
  3  5  1  0
  5  6  1  0
  6  7  1  0
  7  8  1  0
  7  9  2  0
  6 10  2  0
 10 11  1  0
 11 12  2  0
 12 13  1  0
 13 14  2  0
 14 15  1  0
 15 16  1  0
 16 17  1  0
 17 18  1  0
 18 19  1  0
 19 20  1  0
 14 21  1  0
 21 22  2  0
 22  5  1  0
 22 11  1  0
 20 15  1  0
  1 23  1  0
  1 24  1  0
  2 25  1  0
  8 26  1  0
  8 27  1  0
 10 28  1  0
 12 29  1  0
 13 30  1  0
 16 31  1  0
 16 32  1  0
 17 33  1  0
 17 34  1  0
 19 35  1  0
 19 36  1  0
 20 37  1  0
 20 38  1  0
 21 39  1  0
M  END
>  <UniqueID>  (20) 
20

>  <SMILES>  (20) 
C=CC(=O)n1c(C(N)=O)cc2ccc(N3CCOCC3)cc21

>  <Energy>  (20) 
84.78457975533347

>  <Genealogy>  (20) 
C=CC(=O)n1c(C(N)=O)cc2ccc(N3CCOCC3)cc21 (3D coordinates assigned)
C=CC(=O)n1c(C(N)=O)cc2ccc(N3CCOCC3)cc21 (nonaromatic ring conformer: 84.78457975533347 kcal/mol)

>  <smiles>  (20) 
C=CC(=O)n1c(C(N)=O)cc2ccc(N3CCOCC3)cc21

>  <score_type>  (20) 
oracle

>  <origin>  (20) 
adg

>  <m_score__min__energy>  (20) 
-7.1900000000000004

>  <m_primary>  (20) 
energy

$$$$
20:0
     RDKit          3D

 46 47  0  0  0  0  0  0  0  0999 V2000
  146.3140  160.3100  133.5510 C   0  0  0  0  0  0  0  0  0  0  0  0
  145.0690  161.0060  133.8950 N   0  0  0  0  0  0  0  0  0  0  0  0
  145.1380  162.3970  134.3630 C   0  0  0  0  0  0  0  0  0  0  0  0
  143.7880  160.3330  133.7760 C   0  0  0  0  0  0  0  0  0  0  0  0
  142.5800  161.0800  133.7360 C   0  0  0  0  0  0  0  0  0  0  0  0
  141.3380  160.4410  133.6290 C   0  0  0  0  0  0  0  0  0  0  0  0
  141.3190  159.0550  133.5580 C   0  0  0  0  0  0  0  0  0  0  0  0
  140.2480  158.2030  133.4630 C   0  0  0  0  0  0  0  0  0  0  0  0
  140.7970  156.9290  133.4250 C   0  0  0  0  0  0  0  0  0  0  0  0
  139.9740  155.7170  133.2690 C   0  0  0  0  0  0  0  0  0  0  0  0
  140.5790  154.4250  133.2300 N   0  0  0  0  0  0  0  0  0  0  0  0
  138.7310  155.8300  133.0920 O   0  0  0  0  0  0  0  0  0  0  0  0
  142.1600  156.9730  133.5180 N   0  0  0  0  0  0  0  0  0  0  0  0
  143.0550  155.8460  133.6640 C   0  0  0  0  0  0  0  0  0  0  0  0
  143.3020  155.3680  134.8050 O   0  0  0  0  0  0  0  0  0  0  0  0
  143.6210  155.2470  132.5320 O   0  0  0  0  0  0  0  0  0  0  0  0
  144.8140  154.4610  132.5580 C   0  0  0  0  0  0  0  0  0  0  0  0
  144.5540  152.9860  132.2040 C   0  0  0  0  0  0  0  0  0  0  0  0
  143.9180  152.1720  133.3410 C   0  0  0  0  0  0  0  0  0  0  0  0
  142.1610  151.9110  133.1130 S   0  0  0  0  0  0  0  0  0  0  0  0
  141.8560  150.1690  132.9130 C   0  0  0  0  0  0  0  0  0  0  0  0
  141.4060  152.4070  134.3160 O   0  0  0  0  0  0  0  0  0  0  0  0
  141.6750  152.6330  131.8860 O   0  0  0  0  0  0  0  0  0  0  0  0
  142.4630  158.2990  133.5900 C   0  0  0  0  0  0  0  0  0  0  0  0
  143.7200  158.9170  133.7020 C   0  0  0  0  0  0  0  0  0  0  0  0
  146.8374  160.0174  134.4732 H   0  0  0  0  0  0  0  0  0  0  0  0
  146.0807  159.4114  132.9609 H   0  0  0  0  0  0  0  0  0  0  0  0
  146.9573  160.9793  132.9609 H   0  0  0  0  0  0  0  0  0  0  0  0
  145.1389  162.4142  135.4629 H   0  0  0  0  0  0  0  0  0  0  0  0
  146.0604  162.8646  133.9883 H   0  0  0  0  0  0  0  0  0  0  0  0
  144.2664  162.9536  133.9883 H   0  0  0  0  0  0  0  0  0  0  0  0
  142.6207  162.1779  133.7899 H   0  0  0  0  0  0  0  0  0  0  0  0
  140.4040  161.0214  133.6020 H   0  0  0  0  0  0  0  0  0  0  0  0
  139.1821  158.4721  133.4251 H   0  0  0  0  0  0  0  0  0  0  0  0
  141.6200  154.3250  133.2160 H   0  0  0  0  0  0  0  0  0  0  0  0
  139.9890  153.5710  133.1180 H   0  0  0  0  0  0  0  0  0  0  0  0
  145.5273  154.8779  131.8318 H   0  0  0  0  0  0  0  0  0  0  0  0
  145.2146  154.4941  133.5819 H   0  0  0  0  0  0  0  0  0  0  0  0
  143.8794  152.9526  131.3358 H   0  0  0  0  0  0  0  0  0  0  0  0
  145.5341  152.5313  131.9975 H   0  0  0  0  0  0  0  0  0  0  0  0
  144.4148  151.1919  133.3914 H   0  0  0  0  0  0  0  0  0  0  0  0
  144.0486  152.7455  134.2706 H   0  0  0  0  0  0  0  0  0  0  0  0
  141.7731  149.6953  133.9023 H   0  0  0  0  0  0  0  0  0  0  0  0
  140.9185  150.0224  132.3565 H   0  0  0  0  0  0  0  0  0  0  0  0
  142.6879  149.7126  132.3565 H   0  0  0  0  0  0  0  0  0  0  0  0
  144.6383  158.3121  133.7319 H   0  0  0  0  0  0  0  0  0  0  0  0
  1  2  1  0
  2  3  1  0
  2  4  1  0
  4  5  2  0
  5  6  1  0
  6  7  2  0
  7  8  1  0
  8  9  2  0
  9 10  1  0
 10 11  1  0
 10 12  2  0
  9 13  1  0
 13 14  1  0
 14 15  2  0
 14 16  1  0
 16 17  1  0
 17 18  1  0
 18 19  1  0
 19 20  1  0
 20 21  1  0
 20 22  2  0
 20 23  2  0
 13 24  1  0
 24 25  2  0
 25  4  1  0
 24  7  1  0
  1 26  1  0
  1 27  1  0
  1 28  1  0
  3 29  1  0
  3 30  1  0
  3 31  1  0
  5 32  1  0
  6 33  1  0
  8 34  1  0
 11 35  1  0
 11 36  1  0
 17 37  1  0
 17 38  1  0
 18 39  1  0
 18 40  1  0
 19 41  1  0
 19 42  1  0
 21 43  1  0
 21 44  1  0
 21 45  1  0
 25 46  1  0
M  END
>  <UniqueID>  (21) 
21

>  <SMILES>  (21) 
CN(C)c1ccc2cc(C(N)=O)n(C(=O)OCCCS(C)(=O)=O)c2c1

>  <Energy>  (21) 
76.75110138027388

>  <Genealogy>  (21) 
CN(C)c1ccc2cc(C(N)=O)n(C(=O)OCCCS(C)(=O)=O)c2c1 (3D coordinates assigned)
CN(C)c1ccc2cc(C(N)=O)n(C(=O)OCCCS(C)(=O)=O)c2c1 (optimized conformer: 76.75110138027388 kcal/mol)

>  <smiles>  (21) 
CN(C)c1ccc2cc(C(N)=O)n(C(=O)OCCCS(C)(=O)=O)c2c1

>  <score_type>  (21) 
oracle

>  <origin>  (21) 
adg

>  <m_score__min__energy>  (21) 
-6.6299999999999999

>  <m_primary>  (21) 
energy

$$$$
21:0
     RDKit          3D

 36 38  0  0  0  0  0  0  0  0999 V2000
  146.8230  160.7920  133.3530 N   0  0  0  0  0  0  0  0  0  0  0  0
  145.7870  159.8100  133.3680 C   0  0  0  0  0  0  0  0  0  0  0  0
  144.5850  160.1840  133.3560 O   0  0  0  0  0  0  0  0  0  0  0  0
  146.0970  158.3670  133.4500 C   0  0  0  0  0  0  0  0  0  0  0  0
  145.1360  157.3890  133.6920 C   0  0  0  0  0  0  0  0  0  0  0  0
  145.8220  156.1970  133.6900 C   0  0  0  0  0  0  0  0  0  0  0  0
  145.3530  154.8970  133.8460 C   0  0  0  0  0  0  0  0  0  0  0  0
  146.2770  153.8450  133.7330 C   0  0  0  0  0  0  0  0  0  0  0  0
  147.6450  154.1040  133.4520 C   0  0  0  0  0  0  0  0  0  0  0  0
  148.6210  152.9960  133.3120 C   0  0  0  0  0  0  0  0  0  0  0  0
  149.2680  152.5910  132.1480 C   0  0  0  0  0  0  0  0  0  0  0  0
  150.0640  151.5350  132.5380 C   0  0  0  0  0  0  0  0  0  0  0  0
  149.8830  151.3440  133.8540 N   0  0  0  0  0  0  0  0  0  0  0  0
  150.5150  150.3610  134.6280 N   0  0  0  0  0  0  0  0  0  0  0  0
  149.0170  152.2150  134.3400 N   0  0  0  0  0  0  0  0  0  0  0  0
  148.0770  155.4420  133.2940 C   0  0  0  0  0  0  0  0  0  0  0  0
  147.1420  156.4720  133.4450 C   0  0  0  0  0  0  0  0  0  0  0  0
  147.3290  157.8040  133.3040 N   0  0  0  0  0  0  0  0  0  0  0  0
  148.5450  158.4680  132.9200 C   0  0  0  0  0  0  0  0  0  0  0  0
  149.2480  159.0370  133.8000 O   0  0  0  0  0  0  0  0  0  0  0  0
  148.9920  158.4950  131.4860 C   0  0  0  0  0  0  0  0  0  0  0  0
  149.3800  159.8810  131.0810 C   0  0  0  0  0  0  0  0  0  0  0  0
  150.3200  160.0640  130.2640 O   0  0  0  0  0  0  0  0  0  0  0  0
  148.7300  160.9760  131.6370 O   0  0  0  0  0  0  0  0  0  0  0  0
  146.5860  161.8020  133.2360 H   0  0  0  0  0  0  0  0  0  0  0  0
  147.8130  160.5360  133.5610 H   0  0  0  0  0  0  0  0  0  0  0  0
  144.0578  157.5380  133.8509 H   0  0  0  0  0  0  0  0  0  0  0  0
  144.2907  154.6986  134.0516 H   0  0  0  0  0  0  0  0  0  0  0  0
  145.9367  152.8072  133.8638 H   0  0  0  0  0  0  0  0  0  0  0  0
  149.1666  153.0189  131.1397 H   0  0  0  0  0  0  0  0  0  0  0  0
  150.7302  150.9517  131.8854 H   0  0  0  0  0  0  0  0  0  0  0  0
  151.4710  150.0270  134.3780 H   0  0  0  0  0  0  0  0  0  0  0  0
  150.0340  149.9530  135.4620 H   0  0  0  0  0  0  0  0  0  0  0  0
  149.1271  155.6681  133.0571 H   0  0  0  0  0  0  0  0  0  0  0  0
  149.8578  157.8273  131.3647 H   0  0  0  0  0  0  0  0  0  0  0  0
  148.1602  158.1595  130.8492 H   0  0  0  0  0  0  0  0  0  0  0  0
  1  2  1  0
  2  3  2  0
  2  4  1  0
  4  5  2  0
  5  6  1  0
  6  7  2  0
  7  8  1  0
  8  9  2  0
  9 10  1  0
 10 11  1  0
 11 12  2  0
 12 13  1  0
 13 14  1  0
 13 15  1  0
  9 16  1  0
 16 17  2  0
 17 18  1  0
 18 19  1  0
 19 20  2  0
 19 21  1  0
 21 22  1  0
 22 23  2  0
 22 24  1  0
 18  4  1  0
 17  6  1  0
 15 10  2  0
  1 25  1  0
  1 26  1  0
  5 27  1  0
  7 28  1  0
  8 29  1  0
 11 30  1  0
 12 31  1  0
 14 32  1  0
 14 33  1  0
 16 34  1  0
 21 35  1  0
 21 36  1  0
M  CHG  1  24  -1
M  END
>  <UniqueID>  (22) 
22

>  <SMILES>  (22) 
NC(=O)c1cc2ccc(-c3ccn(N)n3)cc2n1C(=O)CC(=O)[O-]

>  <Energy>  (22) 
107.5396287487203

>  <Genealogy>  (22) 
NC(=O)c1cc2ccc(-c3ccn(N)n3)cc2n1C(=O)CC(=O)[O-] (protonated)
NC(=O)c1cc2ccc(-c3ccn(N)n3)cc2n1C(=O)CC(=O)[O-] (3D coordinates assigned)
NC(=O)c1cc2ccc(-c3ccn(N)n3)cc2n1C(=O)CC(=O)[O-] (optimized conformer: 107.5396287487203 kcal/mol)

>  <smiles>  (22) 
NC(=O)c1cc2ccc(-c3ccn(N)n3)cc2n1C(=O)CC(=O)O

>  <score_type>  (22) 
oracle

>  <origin>  (22) 
adg

>  <m_score__min__energy>  (22) 
-7.8399999999999999

>  <m_primary>  (22) 
energy

$$$$
22:0
     RDKit          3D

 44 45  0  0  0  0  0  0  0  0999 V2000
  147.7040  155.3180  133.1060 C   0  0  0  0  0  0  0  0  0  0  0  0
  147.6920  156.8310  133.2620 C   0  0  0  0  0  0  0  0  0  0  0  0
  148.2670  157.4110  132.1180 O   0  0  0  0  0  0  0  0  0  0  0  0
  148.7480  159.0030  132.4970 P   0  0  0  0  0  0  0  0  0  0  0  0
  149.1910  159.0780  133.9440 O   0  0  0  0  0  0  0  0  0  0  0  0
  147.3050  160.0950  132.2470 C   0  0  0  0  0  0  0  0  0  0  0  0
  146.6020  160.4460  133.5670 C   0  0  0  0  0  0  0  0  0  0  0  0
  145.1250  160.1400  133.5320 C   0  0  0  0  0  0  0  0  0  0  0  0
  144.1780  161.1790  133.7200 C   0  0  0  0  0  0  0  0  0  0  0  0
  142.8020  160.8960  133.7480 C   0  0  0  0  0  0  0  0  0  0  0  0
  142.4060  159.5720  133.5900 C   0  0  0  0  0  0  0  0  0  0  0  0
  141.1450  159.0220  133.5790 C   0  0  0  0  0  0  0  0  0  0  0  0
  141.3410  157.6540  133.3980 C   0  0  0  0  0  0  0  0  0  0  0  0
  140.2400  156.6710  133.4340 C   0  0  0  0  0  0  0  0  0  0  0  0
  140.4280  155.3430  132.9520 N   0  0  0  0  0  0  0  0  0  0  0  0
  139.1380  156.9880  133.9560 O   0  0  0  0  0  0  0  0  0  0  0  0
  142.6710  157.3710  133.2820 N   0  0  0  0  0  0  0  0  0  0  0  0
  143.2990  156.1130  132.9880 C   0  0  0  0  0  0  0  0  0  0  0  0
  143.1930  155.1360  133.7750 O   0  0  0  0  0  0  0  0  0  0  0  0
  143.3090  158.5560  133.4120 C   0  0  0  0  0  0  0  0  0  0  0  0
  144.6840  158.8090  133.3660 C   0  0  0  0  0  0  0  0  0  0  0  0
  150.0080  159.4650  131.4390 O   0  0  0  0  0  0  0  0  0  0  0  0
  149.6450  160.6610  130.7890 C   0  0  0  0  0  0  0  0  0  0  0  0
  149.6530  160.4300  129.2860 C   0  0  0  0  0  0  0  0  0  0  0  0
  147.7077  154.8469  134.1000 H   0  0  0  0  0  0  0  0  0  0  0  0
  146.8083  154.9993  132.5526 H   0  0  0  0  0  0  0  0  0  0  0  0
  148.6046  155.0136  132.5526 H   0  0  0  0  0  0  0  0  0  0  0  0
  146.6556  157.1826  133.3731 H   0  0  0  0  0  0  0  0  0  0  0  0
  148.2670  157.1183  134.1547 H   0  0  0  0  0  0  0  0  0  0  0  0
  147.6446  161.0257  131.7690 H   0  0  0  0  0  0  0  0  0  0  0  0
  146.5829  159.5579  131.6144 H   0  0  0  0  0  0  0  0  0  0  0  0
  147.0639  159.8646  134.3785 H   0  0  0  0  0  0  0  0  0  0  0  0
  146.7163  161.5278  133.7301 H   0  0  0  0  0  0  0  0  0  0  0  0
  144.5239  162.2157  133.8450 H   0  0  0  0  0  0  0  0  0  0  0  0
  142.0611  161.6965  133.8904 H   0  0  0  0  0  0  0  0  0  0  0  0
  140.1861  159.5496  133.6895 H   0  0  0  0  0  0  0  0  0  0  0  0
  141.3610  155.0250  132.6060 H   0  0  0  0  0  0  0  0  0  0  0  0
  143.8812  156.0016  132.0614 H   0  0  0  0  0  0  0  0  0  0  0  0
  145.4030  157.9923  133.2047 H   0  0  0  0  0  0  0  0  0  0  0  0
  148.6375  160.9641  131.1101 H   0  0  0  0  0  0  0  0  0  0  0  0
  150.3605  161.4558  131.0466 H   0  0  0  0  0  0  0  0  0  0  0  0
  149.6904  159.3499  129.0812 H   0  0  0  0  0  0  0  0  0  0  0  0
  148.7396  160.8554  128.8448 H   0  0  0  0  0  0  0  0  0  0  0  0
  150.5348  160.9176  128.8448 H   0  0  0  0  0  0  0  0  0  0  0  0
  1  2  1  0
  2  3  1  0
  3  4  1  0
  4  5  2  0
  4  6  1  0
  6  7  1  0
  7  8  1  0
  8  9  2  0
  9 10  1  0
 10 11  2  0
 11 12  1  0
 12 13  2  0
 13 14  1  0
 14 15  1  0
 14 16  2  0
 13 17  1  0
 17 18  1  0
 18 19  2  0
 17 20  1  0
 20 21  2  0
  4 22  1  0
 22 23  1  0
 23 24  1  0
 21  8  1  0
 20 11  1  0
  1 25  1  0
  1 26  1  0
  1 27  1  0
  2 28  1  0
  2 29  1  0
  6 30  1  0
  6 31  1  0
  7 32  1  0
  7 33  1  0
  9 34  1  0
 10 35  1  0
 12 36  1  0
 15 37  1  0
 18 38  1  0
 21 39  1  0
 23 40  1  0
 23 41  1  0
 24 42  1  0
 24 43  1  0
 24 44  1  0
M  CHG  1  15  -1
M  END
>  <UniqueID>  (23) 
23

>  <SMILES>  (23) 
CCOP(=O)(CCc1ccc2cc(C([NH-])=O)n(C=O)c2c1)OCC

>  <Energy>  (23) 
68.2633517237609

>  <Genealogy>  (23) 
CCOP(=O)(CCc1ccc2cc(C([NH-])=O)n(C=O)c2c1)OCC (protonated)
CCOP(=O)(CCc1ccc2cc(C([NH-])=O)n(C=O)c2c1)OCC (3D coordinates assigned)
CCOP(=O)(CCc1ccc2cc(C([NH-])=O)n(C=O)c2c1)OCC (optimized conformer: 68.2633517237609 kcal/mol)

>  <smiles>  (23) 
CCOP(=O)(CCc1ccc2cc(C(N)=O)n(C=O)c2c1)OCC

>  <score_type>  (23) 
oracle

>  <origin>  (23) 
adg

>  <m_score__min__energy>  (23) 
-7.1299999999999999

>  <m_primary>  (23) 
energy

$$$$
23:0
     RDKit          3D

 35 37  0  0  0  0  0  0  0  0999 V2000
  150.7190  150.3480  130.3220 C   0  0  0  0  0  0  0  0  0  0  0  0
  150.7190  150.3740  131.7440 O   0  0  0  0  0  0  0  0  0  0  0  0
  149.5930  150.7350  132.4900 C   0  0  0  0  0  0  0  0  0  0  0  0
  148.9370  149.8660  133.1270 O   0  0  0  0  0  0  0  0  0  0  0  0
  149.1710  152.1380  132.5340 C   0  0  0  0  0  0  0  0  0  0  0  0
  147.9810  152.5640  132.9930 N   0  0  0  0  0  0  0  0  0  0  0  0
  148.0620  153.9020  132.8320 C   0  0  0  0  0  0  0  0  0  0  0  0
  146.9980  154.8730  133.1890 C   0  0  0  0  0  0  0  0  0  0  0  0
  145.7800  154.4040  133.7490 C   0  0  0  0  0  0  0  0  0  0  0  0
  144.7560  155.2990  134.1020 C   0  0  0  0  0  0  0  0  0  0  0  0
  144.9720  156.6550  133.8850 C   0  0  0  0  0  0  0  0  0  0  0  0
  144.1580  157.7370  134.1410 C   0  0  0  0  0  0  0  0  0  0  0  0
  144.8840  158.8510  133.7230 C   0  0  0  0  0  0  0  0  0  0  0  0
  144.3520  160.2290  133.7380 C   0  0  0  0  0  0  0  0  0  0  0  0
  145.2400  161.3320  133.9070 N   0  0  0  0  0  0  0  0  0  0  0  0
  143.1160  160.4440  133.6280 O   0  0  0  0  0  0  0  0  0  0  0  0
  146.1000  158.4720  133.2390 N   0  0  0  0  0  0  0  0  0  0  0  0
  147.1570  159.3090  132.7450 C   0  0  0  0  0  0  0  0  0  0  0  0
  146.9210  160.1270  131.8160 O   0  0  0  0  0  0  0  0  0  0  0  0
  148.5230  159.1880  133.2720 C   0  0  0  0  0  0  0  0  0  0  0  0
  148.7170  158.9890  134.5000 O   0  0  0  0  0  0  0  0  0  0  0  0
  149.6110  159.2780  132.4130 O   0  0  0  0  0  0  0  0  0  0  0  0
  146.1340  157.1260  133.3370 C   0  0  0  0  0  0  0  0  0  0  0  0
  147.1760  156.2630  132.9830 C   0  0  0  0  0  0  0  0  0  0  0  0
  149.2510  154.2590  132.3000 N   0  0  0  0  0  0  0  0  0  0  0  0
  149.9040  153.1460  132.1310 O   0  0  0  0  0  0  0  0  0  0  0  0
  151.7561  150.3413  129.9554 H   0  0  0  0  0  0  0  0  0  0  0  0
  150.2004  149.4433  129.9718 H   0  0  0  0  0  0  0  0  0  0  0  0
  150.2004  151.2393  129.9390 H   0  0  0  0  0  0  0  0  0  0  0  0
  147.2030  151.9850  133.3770 H   0  0  0  0  0  0  0  0  0  0  0  0
  145.6363  153.3252  133.9086 H   0  0  0  0  0  0  0  0  0  0  0  0
  143.8123  154.9378  134.5368 H   0  0  0  0  0  0  0  0  0  0  0  0
  143.1501  157.7243  134.5814 H   0  0  0  0  0  0  0  0  0  0  0  0
  146.0210  161.5000  133.2350 H   0  0  0  0  0  0  0  0  0  0  0  0
  148.1108  156.6541  132.5551 H   0  0  0  0  0  0  0  0  0  0  0  0
  1  2  1  0
  2  3  1  0
  3  4  2  0
  3  5  1  0
  5  6  2  0
  6  7  1  0
  7  8  1  0
  8  9  2  0
  9 10  1  0
 10 11  2  0
 11 12  1  0
 12 13  2  0
 13 14  1  0
 14 15  1  0
 14 16  2  0
 13 17  1  0
 17 18  1  0
 18 19  2  0
 18 20  1  0
 20 21  2  0
 20 22  1  0
 17 23  1  0
 23 24  2  0
  7 25  2  0
 25 26  1  0
 26  5  1  0
 24  8  1  0
 23 11  1  0
  1 27  1  0
  1 28  1  0
  1 29  1  0
  6 30  1  0
  9 31  1  0
 10 32  1  0
 12 33  1  0
 15 34  1  0
 24 35  1  0
M  CHG  3   6   1  15  -1  22  -1
M  END
>  <UniqueID>  (24) 
24

>  <SMILES>  (24) 
COC(=O)c1[nH+]c(-c2ccc3cc(C([NH-])=O)n(C(=O)C(=O)[O-])c3c2)no1

>  <Energy>  (24) 
109.5696662598898

>  <Genealogy>  (24) 
COC(=O)c1[nH+]c(-c2ccc3cc(C([NH-])=O)n(C(=O)C(=O)[O-])c3c2)no1 (protonated)
COC(=O)c1[nH+]c(-c2ccc3cc(C([NH-])=O)n(C(=O)C(=O)[O-])c3c2)no1 (3D coordinates assigned)
COC(=O)c1[nH+]c(-c2ccc3cc(C([NH-])=O)n(C(=O)C(=O)[O-])c3c2)no1 (optimized conformer: 109.5696662598898 kcal/mol)

>  <smiles>  (24) 
COC(=O)c1nc(-c2ccc3cc(C(N)=O)n(C(=O)C(=O)O)c3c2)no1

>  <score_type>  (24) 
oracle

>  <origin>  (24) 
adg

>  <m_score__min__energy>  (24) 
-7.0300000000000002

>  <m_primary>  (24) 
energy

$$$$
24:0
     RDKit          3D

 45 47  0  0  0  0  0  0  0  0999 V2000
  142.8050  160.7650  133.3660 N   0  0  0  0  0  0  0  0  0  0  0  0
  144.1820  160.9390  133.6930 C   0  0  0  0  0  0  0  0  0  0  0  0
  144.5670  162.0330  134.1820 O   0  0  0  0  0  0  0  0  0  0  0  0
  145.1430  159.8470  133.4310 C   0  0  0  0  0  0  0  0  0  0  0  0
  146.4810  160.0550  133.0990 C   0  0  0  0  0  0  0  0  0  0  0  0
  147.0300  158.7970  132.9950 C   0  0  0  0  0  0  0  0  0  0  0  0
  148.3260  158.4100  132.6690 C   0  0  0  0  0  0  0  0  0  0  0  0
  148.6080  157.0340  132.6070 C   0  0  0  0  0  0  0  0  0  0  0  0
  147.5940  156.0720  132.8670 C   0  0  0  0  0  0  0  0  0  0  0  0
  147.8540  154.6580  132.7980 N   0  0  0  0  0  0  0  0  0  0  0  0
  148.1410  153.8060  133.9550 C   0  0  0  0  0  0  0  0  0  0  0  0
  148.9890  152.5910  133.5500 C   0  0  0  0  0  0  0  0  0  0  0  0
  148.6760  152.1670  132.1660 N   0  0  0  0  0  0  0  0  0  0  0  0
  149.8190  151.4850  131.5350 C   0  0  0  0  0  0  0  0  0  0  0  0
  149.6370  149.9820  131.7150 C   0  0  0  0  0  0  0  0  0  0  0  0
  148.2230  149.8000  132.2310 C   0  0  0  0  0  0  0  0  0  0  0  0
  147.5910  151.1770  132.1410 C   0  0  0  0  0  0  0  0  0  0  0  0
  146.2890  156.5100  133.1830 C   0  0  0  0  0  0  0  0  0  0  0  0
  146.0440  157.8850  133.2570 C   0  0  0  0  0  0  0  0  0  0  0  0
  144.8790  158.5130  133.5300 N   0  0  0  0  0  0  0  0  0  0  0  0
  143.6170  157.8900  133.8120 C   0  0  0  0  0  0  0  0  0  0  0  0
  143.2040  157.8200  135.0000 O   0  0  0  0  0  0  0  0  0  0  0  0
  142.7820  157.3150  132.7060 C   0  0  0  0  0  0  0  0  0  0  0  0
  141.7380  158.1910  132.3840 O   0  0  0  0  0  0  0  0  0  0  0  0
  142.5180  160.2150  132.5260 H   0  0  0  0  0  0  0  0  0  0  0  0
  146.9897  161.0191  132.9516 H   0  0  0  0  0  0  0  0  0  0  0  0
  149.1065  159.1580  132.4659 H   0  0  0  0  0  0  0  0  0  0  0  0
  149.6245  156.6980  132.3545 H   0  0  0  0  0  0  0  0  0  0  0  0
  147.7890  154.1870  131.8670 H   0  0  0  0  0  0  0  0  0  0  0  0
  148.6899  154.3930  134.7061 H   0  0  0  0  0  0  0  0  0  0  0  0
  147.1876  153.4447  134.3680 H   0  0  0  0  0  0  0  0  0  0  0  0
  150.0542  152.8580  133.6129 H   0  0  0  0  0  0  0  0  0  0  0  0
  148.7609  151.7593  134.2329 H   0  0  0  0  0  0  0  0  0  0  0  0
  149.8531  151.7300  130.4632 H   0  0  0  0  0  0  0  0  0  0  0  0
  150.7603  151.8118  132.0011 H   0  0  0  0  0  0  0  0  0  0  0  0
  149.7647  149.4622  130.7540 H   0  0  0  0  0  0  0  0  0  0  0  0
  150.3801  149.5628  132.4093 H   0  0  0  0  0  0  0  0  0  0  0  0
  147.6731  149.0808  131.6062 H   0  0  0  0  0  0  0  0  0  0  0  0
  148.2057  149.4040  133.2571 H   0  0  0  0  0  0  0  0  0  0  0  0
  147.0220  151.2679  131.2040 H   0  0  0  0  0  0  0  0  0  0  0  0
  146.9001  151.3403  132.9812 H   0  0  0  0  0  0  0  0  0  0  0  0
  145.4824  155.7851  133.3670 H   0  0  0  0  0  0  0  0  0  0  0  0
  143.4123  157.1588  131.8182 H   0  0  0  0  0  0  0  0  0  0  0  0
  142.3571  156.3561  133.0378 H   0  0  0  0  0  0  0  0  0  0  0  0
  142.1580  159.0670  132.1740 H   0  0  0  0  0  0  0  0  0  0  0  0
  1  2  1  0
  2  3  2  0
  2  4  1  0
  4  5  2  0
  5  6  1  0
  6  7  2  0
  7  8  1  0
  8  9  2  0
  9 10  1  0
 10 11  1  0
 11 12  1  0
 12 13  1  0
 13 14  1  0
 14 15  1  0
 15 16  1  0
 16 17  1  0
  9 18  1  0
 18 19  2  0
 19 20  1  0
 20 21  1  0
 21 22  2  0
 21 23  1  0
 23 24  1  0
 20  4  1  0
 19  6  1  0
 17 13  1  0
  1 25  1  0
  5 26  1  0
  7 27  1  0
  8 28  1  0
 10 29  1  0
 11 30  1  0
 11 31  1  0
 12 32  1  0
 12 33  1  0
 14 34  1  0
 14 35  1  0
 15 36  1  0
 15 37  1  0
 16 38  1  0
 16 39  1  0
 17 40  1  0
 17 41  1  0
 18 42  1  0
 23 43  1  0
 23 44  1  0
 24 45  1  0
M  CHG  1   1  -1
M  END
>  <UniqueID>  (25) 
25

>  <SMILES>  (25) 
[NH-]C(=O)c1cc2ccc(NCCN3CCCC3)cc2n1C(=O)CO

>  <Energy>  (25) 
85.80425447755353

>  <Genealogy>  (25) 
[NH-]C(=O)c1cc2ccc(NCCN3CCCC3)cc2n1C(=O)CO (protonated)
[NH-]C(=O)c1cc2ccc(NCCN3CCCC3)cc2n1C(=O)CO (3D coordinates assigned)
[NH-]C(=O)c1cc2ccc(NCCN3CCCC3)cc2n1C(=O)CO (nonaromatic ring conformer: 85.80425447755353 kcal/mol)

>  <smiles>  (25) 
NC(=O)c1cc2ccc(NCCN3CCCC3)cc2n1C(=O)CO

>  <score_type>  (25) 
oracle

>  <origin>  (25) 
adg

>  <m_score__min__energy>  (25) 
-7.2300000000000004

>  <m_primary>  (25) 
energy

$$$$
25:0
     RDKit          3D

 41 43  0  0  0  0  0  0  0  0999 V2000
  140.3490  150.4900  132.3080 C   0  0  0  0  0  0  0  0  0  0  0  0
  141.6200  151.3410  132.3370 C   0  0  1  0  0  0  0  0  0  0  0  0
  141.5260  152.3340  133.3580 O   0  0  0  0  0  0  0  0  0  0  0  0
  141.0220  153.6230  133.1440 C   0  0  0  0  0  0  0  0  0  0  0  0
  139.8220  153.7890  132.7930 O   0  0  0  0  0  0  0  0  0  0  0  0
  141.8710  154.7610  133.3530 N   0  0  0  0  0  0  0  0  0  0  0  0
  141.5070  156.0290  133.6990 C   0  0  0  0  0  0  0  0  0  0  0  0
  140.1260  156.5490  133.7610 C   0  0  0  0  0  0  0  0  0  0  0  0
  139.2670  156.4920  132.6250 N   0  0  0  0  0  0  0  0  0  0  0  0
  139.7130  157.0960  134.8190 O   0  0  0  0  0  0  0  0  0  0  0  0
  142.6340  156.8190  133.9140 C   0  0  0  0  0  0  0  0  0  0  0  0
  143.7090  155.9920  133.6820 C   0  0  0  0  0  0  0  0  0  0  0  0
  145.0730  156.2570  133.7500 C   0  0  0  0  0  0  0  0  0  0  0  0
  145.9620  155.2030  133.4820 C   0  0  0  0  0  0  0  0  0  0  0  0
  145.4820  153.9000  133.1820 C   0  0  0  0  0  0  0  0  0  0  0  0
  146.4100  152.8280  132.8810 N   0  0  0  0  0  0  0  0  0  0  0  0
  147.8010  152.9840  133.3750 C   0  0  0  0  0  0  0  0  0  0  0  0
  148.7930  151.9090  132.9790 C   0  0  0  0  0  0  0  0  0  0  0  0
  149.5720  152.8130  132.2280 O   0  0  0  0  0  0  0  0  0  0  0  0
  148.7110  153.8790  132.5570 C   0  0  0  0  0  0  0  0  0  0  0  0
  144.0850  153.6850  133.0860 C   0  0  0  0  0  0  0  0  0  0  0  0
  143.2230  154.7570  133.3440 C   0  0  0  0  0  0  0  0  0  0  0  0
  142.8100  150.4720  132.6070 C   0  0  0  0  0  0  0  0  0  0  0  0
  142.6950  149.2180  132.6130 O   0  0  0  0  0  0  0  0  0  0  0  0
  144.0590  151.0470  132.8090 O   0  0  0  0  0  0  0  0  0  0  0  0
  140.0280  150.2751  133.3380 H   0  0  0  0  0  0  0  0  0  0  0  0
  139.5529  151.0378  131.7826 H   0  0  0  0  0  0  0  0  0  0  0  0
  140.5522  149.5452  131.7826 H   0  0  0  0  0  0  0  0  0  0  0  0
  141.7341  151.8324  131.3595 H   0  0  0  0  0  0  0  0  0  0  0  0
  138.7270  155.6260  132.4030 H   0  0  0  0  0  0  0  0  0  0  0  0
  142.6592  157.8790  134.2070 H   0  0  0  0  0  0  0  0  0  0  0  0
  145.4438  157.2606  134.0057 H   0  0  0  0  0  0  0  0  0  0  0  0
  147.0459  155.3893  133.5047 H   0  0  0  0  0  0  0  0  0  0  0  0
  146.0340  151.9310  133.2680 H   0  0  0  0  0  0  0  0  0  0  0  0
  146.4540  152.6980  131.8440 H   0  0  0  0  0  0  0  0  0  0  0  0
  147.5094  153.1897  134.4155 H   0  0  0  0  0  0  0  0  0  0  0  0
  149.3303  151.4717  133.8335 H   0  0  0  0  0  0  0  0  0  0  0  0
  148.4221  150.9941  132.4938 H   0  0  0  0  0  0  0  0  0  0  0  0
  149.1970  154.6687  133.1488 H   0  0  0  0  0  0  0  0  0  0  0  0
  148.2766  154.4828  131.7466 H   0  0  0  0  0  0  0  0  0  0  0  0
  143.6862  152.6964  132.8144 H   0  0  0  0  0  0  0  0  0  0  0  0
  1  2  1  0
  2  3  1  0
  3  4  1  0
  4  5  2  0
  4  6  1  0
  6  7  1  0
  7  8  1  0
  8  9  1  0
  8 10  2  0
  7 11  2  0
 11 12  1  0
 12 13  2  0
 13 14  1  0
 14 15  2  0
 15 16  1  0
 16 17  1  0
 17 18  1  0
 18 19  1  0
 19 20  1  0
 15 21  1  0
 21 22  2  0
  2 23  1  0
 23 24  2  0
 23 25  1  0
 22  6  1  0
 22 12  1  0
 20 17  1  0
  1 26  1  0
  1 27  1  0
  1 28  1  0
  2 29  1  6
  9 30  1  0
 11 31  1  0
 13 32  1  0
 14 33  1  0
 16 34  1  0
 16 35  1  0
 17 36  1  0
 18 37  1  0
 18 38  1  0
 20 39  1  0
 20 40  1  0
 21 41  1  0
M  CHG  3   9  -1  16   1  25  -1
M  END
>  <UniqueID>  (26) 
26

>  <SMILES>  (26) 
C[C@@H](OC(=O)n1c(C([NH-])=O)cc2ccc([NH2+]C3COC3)cc21)C(=O)[O-]

>  <Energy>  (26) 
149.30148277885223

>  <Genealogy>  (26) 
CC(OC(=O)n1c(C([NH-])=O)cc2ccc([NH2+]C3COC3)cc21)C(=O)[O-] (protonated)
C[C@@H](OC(=O)n1c(C([NH-])=O)cc2ccc([NH2+]C3COC3)cc21)C(=O)[O-] (chirality)
C[C@@H](OC(=O)n1c(C([NH-])=O)cc2ccc([NH2+]C3COC3)cc21)C(=O)[O-] (3D coordinates assigned)
C[C@@H](OC(=O)n1c(C([NH-])=O)cc2ccc([NH2+]C3COC3)cc21)C(=O)[O-] (nonaromatic ring conformer: 149.30148277885223 kcal/mol)

>  <smiles>  (26) 
CC(OC(=O)n1c(C(N)=O)cc2ccc(NC3COC3)cc21)C(=O)O

>  <score_type>  (26) 
oracle

>  <origin>  (26) 
adg

>  <m_score__min__energy>  (26) 
-6.5599999999999996

>  <m_primary>  (26) 
energy

$$$$
26:0
     RDKit          3D

 47 48  0  0  0  0  0  0  0  0999 V2000
  149.6100  151.0290  134.2660 C   0  0  0  0  0  0  0  0  0  0  0  0
  148.9240  151.8630  133.2620 N   0  0  0  0  0  0  0  0  0  0  0  0
  148.1310  151.0010  132.3720 C   0  0  0  0  0  0  0  0  0  0  0  0
  149.8940  152.6540  132.4720 C   0  0  0  0  0  0  0  0  0  0  0  0
  149.3980  154.0920  132.2410 C   0  0  0  0  0  0  0  0  0  0  0  0
  148.0400  154.2850  132.7710 N   0  0  0  0  0  0  0  0  0  0  0  0
  147.7590  155.6930  132.9000 C   0  0  0  0  0  0  0  0  0  0  0  0
  148.7730  156.6500  132.6340 C   0  0  0  0  0  0  0  0  0  0  0  0
  148.5060  158.0260  132.7390 C   0  0  0  0  0  0  0  0  0  0  0  0
  147.2180  158.4150  133.0920 C   0  0  0  0  0  0  0  0  0  0  0  0
  146.6960  159.6740  133.2840 C   0  0  0  0  0  0  0  0  0  0  0  0
  145.3610  159.4720  133.6290 C   0  0  0  0  0  0  0  0  0  0  0  0
  144.4010  160.5750  133.8430 C   0  0  0  0  0  0  0  0  0  0  0  0
  143.0610  160.4500  133.3700 N   0  0  0  0  0  0  0  0  0  0  0  0
  144.7380  161.6110  134.4740 O   0  0  0  0  0  0  0  0  0  0  0  0
  145.0710  158.1400  133.6590 N   0  0  0  0  0  0  0  0  0  0  0  0
  143.8320  157.5210  134.0420 C   0  0  0  0  0  0  0  0  0  0  0  0
  142.7520  157.8830  133.5000 O   0  0  0  0  0  0  0  0  0  0  0  0
  143.8340  156.5020  134.9990 O   0  0  0  0  0  0  0  0  0  0  0  0
  143.8470  155.1210  134.6540 C   0  0  0  0  0  0  0  0  0  0  0  0
  144.6910  154.3550  135.6660 C   0  0  0  0  0  0  0  0  0  0  0  0
  145.9250  153.8110  135.0210 C   0  0  0  0  0  0  0  0  0  0  0  0
  146.9960  153.7210  135.6760 O   0  0  0  0  0  0  0  0  0  0  0  0
  145.8800  153.3560  133.7090 O   0  0  0  0  0  0  0  0  0  0  0  0
  146.2180  157.5070  133.3250 C   0  0  0  0  0  0  0  0  0  0  0  0
  146.4590  156.1300  133.2470 C   0  0  0  0  0  0  0  0  0  0  0  0
  149.3320  151.3670  135.2752 H   0  0  0  0  0  0  0  0  0  0  0  0
  149.3112  149.9784  134.1359 H   0  0  0  0  0  0  0  0  0  0  0  0
  150.6985  151.1195  134.1359 H   0  0  0  0  0  0  0  0  0  0  0  0
  147.5085  150.3244  132.9759 H   0  0  0  0  0  0  0  0  0  0  0  0
  147.4848  151.6251  131.7373 H   0  0  0  0  0  0  0  0  0  0  0  0
  148.8067  150.4090  131.7373 H   0  0  0  0  0  0  0  0  0  0  0  0
  150.8509  152.6892  133.0134 H   0  0  0  0  0  0  0  0  0  0  0  0
  150.0147  152.1702  131.4915 H   0  0  0  0  0  0  0  0  0  0  0  0
  150.0813  154.7912  132.7453 H   0  0  0  0  0  0  0  0  0  0  0  0
  149.3756  154.2796  131.1573 H   0  0  0  0  0  0  0  0  0  0  0  0
  147.3420  153.8430  132.1280 H   0  0  0  0  0  0  0  0  0  0  0  0
  147.9530  153.8260  133.7080 H   0  0  0  0  0  0  0  0  0  0  0  0
  149.7782  156.3113  132.3427 H   0  0  0  0  0  0  0  0  0  0  0  0
  149.2913  158.7722  132.5479 H   0  0  0  0  0  0  0  0  0  0  0  0
  147.2211  160.6356  133.1859 H   0  0  0  0  0  0  0  0  0  0  0  0
  142.8310  159.8170  132.5730 H   0  0  0  0  0  0  0  0  0  0  0  0
  142.8186  154.7306  134.6632 H   0  0  0  0  0  0  0  0  0  0  0  0
  144.2760  154.9972  133.6487 H   0  0  0  0  0  0  0  0  0  0  0  0
  144.9794  155.0332  136.4826 H   0  0  0  0  0  0  0  0  0  0  0  0
  144.0977  153.5159  136.0583 H   0  0  0  0  0  0  0  0  0  0  0  0
  145.6568  155.4054  133.4506 H   0  0  0  0  0  0  0  0  0  0  0  0
  1  2  1  0
  2  3  1  0
  2  4  1  0
  4  5  1  0
  5  6  1  0
  6  7  1  0
  7  8  2  0
  8  9  1  0
  9 10  2  0
 10 11  1  0
 11 12  2  0
 12 13  1  0
 13 14  1  0
 13 15  2  0
 12 16  1  0
 16 17  1  0
 17 18  2  0
 17 19  1  0
 19 20  1  0
 20 21  1  0
 21 22  1  0
 22 23  2  0
 22 24  1  0
 16 25  1  0
 25 26  2  0
 26  7  1  0
 25 10  1  0
  1 27  1  0
  1 28  1  0
  1 29  1  0
  3 30  1  0
  3 31  1  0
  3 32  1  0
  4 33  1  0
  4 34  1  0
  5 35  1  0
  5 36  1  0
  6 37  1  0
  6 38  1  0
  8 39  1  0
  9 40  1  0
 11 41  1  0
 14 42  1  0
 20 43  1  0
 20 44  1  0
 21 45  1  0
 21 46  1  0
 26 47  1  0
M  CHG  3   6   1  14  -1  24  -1
M  END
>  <UniqueID>  (27) 
27

>  <SMILES>  (27) 
CN(C)CC[NH2+]c1ccc2cc(C([NH-])=O)n(C(=O)OCCC(=O)[O-])c2c1

>  <Energy>  (27) 
79.34189567807674

>  <Genealogy>  (27) 
CN(C)CC[NH2+]c1ccc2cc(C([NH-])=O)n(C(=O)OCCC(=O)[O-])c2c1 (protonated)
CN(C)CC[NH2+]c1ccc2cc(C([NH-])=O)n(C(=O)OCCC(=O)[O-])c2c1 (3D coordinates assigned)
CN(C)CC[NH2+]c1ccc2cc(C([NH-])=O)n(C(=O)OCCC(=O)[O-])c2c1 (optimized conformer: 79.34189567807674 kcal/mol)

>  <smiles>  (27) 
CN(C)CCNc1ccc2cc(C(N)=O)n(C(=O)OCCC(=O)O)c2c1

>  <score_type>  (27) 
oracle

>  <origin>  (27) 
adg

>  <m_score__min__energy>  (27) 
-5.4500000000000002

>  <m_primary>  (27) 
energy

$$$$
27:0
     RDKit          3D

 32 33  0  0  0  0  0  0  0  0999 V2000
  148.1300  153.0610  134.2330 N   0  0  0  0  0  0  0  0  0  0  0  0
  148.4350  154.0470  133.2490 C   0  0  0  0  0  0  0  0  0  0  0  0
  149.2160  153.7530  132.3040 O   0  0  0  0  0  0  0  0  0  0  0  0
  147.8130  155.3860  133.2830 C   0  0  0  0  0  0  0  0  0  0  0  0
  148.4630  156.5460  132.8700 C   0  0  0  0  0  0  0  0  0  0  0  0
  147.5290  157.5500  132.9950 C   0  0  0  0  0  0  0  0  0  0  0  0
  147.6340  158.9100  132.7220 C   0  0  0  0  0  0  0  0  0  0  0  0
  146.5120  159.7190  132.9680 C   0  0  0  0  0  0  0  0  0  0  0  0
  145.3200  159.1650  133.5040 C   0  0  0  0  0  0  0  0  0  0  0  0
  144.1100  160.0370  133.7260 C   0  0  0  0  0  0  0  0  0  0  0  0
  144.3720  161.3430  133.3510 F   0  0  0  0  0  0  0  0  0  0  0  0
  143.7720  160.0130  135.0670 F   0  0  0  0  0  0  0  0  0  0  0  0
  143.0360  159.5800  132.9820 F   0  0  0  0  0  0  0  0  0  0  0  0
  145.2480  157.7730  133.7470 C   0  0  0  0  0  0  0  0  0  0  0  0
  146.3750  156.9910  133.4770 C   0  0  0  0  0  0  0  0  0  0  0  0
  146.5340  155.6630  133.6640 N   0  0  0  0  0  0  0  0  0  0  0  0
  145.5730  154.7720  134.2540 C   0  0  0  0  0  0  0  0  0  0  0  0
  144.9130  153.9890  133.5190 O   0  0  0  0  0  0  0  0  0  0  0  0
  145.3080  154.7900  135.7290 C   0  0  0  0  0  0  0  0  0  0  0  0
  145.6890  153.5500  136.2740 O   0  0  0  0  0  0  0  0  0  0  0  0
  147.2350  153.7230  136.9720 P   0  0  0  0  0  0  0  0  0  0  0  0
  147.9630  154.8880  136.3410 O   0  0  0  0  0  0  0  0  0  0  0  0
  148.1400  152.3080  136.7600 O   0  0  0  0  0  0  0  0  0  0  0  0
  147.0580  154.0160  138.6290 O   0  0  0  0  0  0  0  0  0  0  0  0
  148.6200  152.1390  134.2210 H   0  0  0  0  0  0  0  0  0  0  0  0
  147.3590  153.2040  134.9210 H   0  0  0  0  0  0  0  0  0  0  0  0
  149.5012  156.6403  132.5188 H   0  0  0  0  0  0  0  0  0  0  0  0
  148.5664  159.3386  132.3259 H   0  0  0  0  0  0  0  0  0  0  0  0
  146.5578  160.7947  132.7425 H   0  0  0  0  0  0  0  0  0  0  0  0
  144.3270  157.3168  134.1391 H   0  0  0  0  0  0  0  0  0  0  0  0
  145.8912  155.5953  136.1995 H   0  0  0  0  0  0  0  0  0  0  0  0
  144.2381  154.9663  135.9141 H   0  0  0  0  0  0  0  0  0  0  0  0
  1  2  1  0
  2  3  2  0
  2  4  1  0
  4  5  2  0
  5  6  1  0
  6  7  2  0
  7  8  1  0
  8  9  2  0
  9 10  1  0
 10 11  1  0
 10 12  1  0
 10 13  1  0
  9 14  1  0
 14 15  2  0
 15 16  1  0
 16 17  1  0
 17 18  2  0
 17 19  1  0
 19 20  1  0
 20 21  1  0
 21 22  2  0
 21 23  1  0
 21 24  1  0
 16  4  1  0
 15  6  1  0
  1 25  1  0
  1 26  1  0
  5 27  1  0
  7 28  1  0
  8 29  1  0
 14 30  1  0
 19 31  1  0
 19 32  1  0
M  CHG  2  23  -1  24  -1
M  END
>  <UniqueID>  (28) 
28

>  <SMILES>  (28) 
NC(=O)c1cc2ccc(C(F)(F)F)cc2n1C(=O)COP(=O)([O-])[O-]

>  <Energy>  (28) 
71.27121260954334

>  <Genealogy>  (28) 
NC(=O)c1cc2ccc(C(F)(F)F)cc2n1C(=O)COP(=O)([O-])[O-] (protonated)
NC(=O)c1cc2ccc(C(F)(F)F)cc2n1C(=O)COP(=O)([O-])[O-] (3D coordinates assigned)
NC(=O)c1cc2ccc(C(F)(F)F)cc2n1C(=O)COP(=O)([O-])[O-] (optimized conformer: 71.27121260954334 kcal/mol)

>  <smiles>  (28) 
NC(=O)c1cc2ccc(C(F)(F)F)cc2n1C(=O)COP(=O)(O)O

>  <score_type>  (28) 
oracle

>  <origin>  (28) 
adg

>  <m_score__min__energy>  (28) 
-5.9000000000000004

>  <m_primary>  (28) 
energy

$$$$
28:0
     RDKit          3D

 30 31  0  0  0  0  0  0  0  0999 V2000
  150.2110  159.7440  130.5580 C   0  0  0  0  0  0  0  0  0  0  0  0
  149.4260  160.2860  131.6130 O   0  0  0  0  0  0  0  0  0  0  0  0
  148.1490  159.8090  131.9230 C   0  0  0  0  0  0  0  0  0  0  0  0
  147.1550  160.1370  131.2190 O   0  0  0  0  0  0  0  0  0  0  0  0
  147.9660  158.9310  133.0870 C   0  0  0  0  0  0  0  0  0  0  0  0
  148.8170  158.9460  134.0160 O   0  0  0  0  0  0  0  0  0  0  0  0
  146.8270  158.0610  133.1830 N   0  0  0  0  0  0  0  0  0  0  0  0
  145.5290  158.4130  133.3990 C   0  0  0  0  0  0  0  0  0  0  0  0
  145.0130  159.7950  133.4820 C   0  0  0  0  0  0  0  0  0  0  0  0
  145.9100  160.8750  133.7290 N   0  0  0  0  0  0  0  0  0  0  0  0
  143.7820  160.0340  133.3560 O   0  0  0  0  0  0  0  0  0  0  0  0
  144.7240  157.2780  133.4840 C   0  0  0  0  0  0  0  0  0  0  0  0
  145.5800  156.2120  133.3190 C   0  0  0  0  0  0  0  0  0  0  0  0
  145.3190  154.8450  133.3190 C   0  0  0  0  0  0  0  0  0  0  0  0
  146.4040  153.9670  133.1470 C   0  0  0  0  0  0  0  0  0  0  0  0
  147.7250  154.4660  133.0050 C   0  0  0  0  0  0  0  0  0  0  0  0
  148.8750  153.5160  132.7820 C   0  0  0  0  0  0  0  0  0  0  0  0
  148.5380  152.5500  131.8500 F   0  0  0  0  0  0  0  0  0  0  0  0
  149.1930  152.8980  133.9770 F   0  0  0  0  0  0  0  0  0  0  0  0
  149.9880  154.1970  132.3180 F   0  0  0  0  0  0  0  0  0  0  0  0
  147.9450  155.8630  132.9880 C   0  0  0  0  0  0  0  0  0  0  0  0
  146.8430  156.7110  133.1430 C   0  0  0  0  0  0  0  0  0  0  0  0
  151.0464  159.1672  130.9816 H   0  0  0  0  0  0  0  0  0  0  0  0
  149.5866  159.0837  129.9382 H   0  0  0  0  0  0  0  0  0  0  0  0
  150.6071  160.5619  129.9382 H   0  0  0  0  0  0  0  0  0  0  0  0
  146.5280  161.2450  132.9710 H   0  0  0  0  0  0  0  0  0  0  0  0
  143.6369  157.2417  133.6479 H   0  0  0  0  0  0  0  0  0  0  0  0
  144.2957  154.4631  133.4495 H   0  0  0  0  0  0  0  0  0  0  0  0
  146.2269  152.8816  133.1223 H   0  0  0  0  0  0  0  0  0  0  0  0
  148.9573  156.2726  132.8562 H   0  0  0  0  0  0  0  0  0  0  0  0
  1  2  1  0
  2  3  1  0
  3  4  2  0
  3  5  1  0
  5  6  2  0
  5  7  1  0
  7  8  1  0
  8  9  1  0
  9 10  1  0
  9 11  2  0
  8 12  2  0
 12 13  1  0
 13 14  2  0
 14 15  1  0
 15 16  2  0
 16 17  1  0
 17 18  1  0
 17 19  1  0
 17 20  1  0
 16 21  1  0
 21 22  2  0
 22  7  1  0
 22 13  1  0
  1 23  1  0
  1 24  1  0
  1 25  1  0
 10 26  1  0
 12 27  1  0
 14 28  1  0
 15 29  1  0
 21 30  1  0
M  CHG  1  10  -1
M  END
>  <UniqueID>  (29) 
29

>  <SMILES>  (29) 
COC(=O)C(=O)n1c(C([NH-])=O)cc2ccc(C(F)(F)F)cc21

>  <Energy>  (29) 
67.64314842882638

>  <Genealogy>  (29) 
COC(=O)C(=O)n1c(C([NH-])=O)cc2ccc(C(F)(F)F)cc21 (protonated)
COC(=O)C(=O)n1c(C([NH-])=O)cc2ccc(C(F)(F)F)cc21 (3D coordinates assigned)
COC(=O)C(=O)n1c(C([NH-])=O)cc2ccc(C(F)(F)F)cc21 (optimized conformer: 67.64314842882638 kcal/mol)

>  <smiles>  (29) 
COC(=O)C(=O)n1c(C(N)=O)cc2ccc(C(F)(F)F)cc21

>  <score_type>  (29) 
oracle

>  <origin>  (29) 
adg

>  <m_score__min__energy>  (29) 
-5.4199999999999999

>  <m_primary>  (29) 
energy

$$$$
29:0
     RDKit          3D

 53 55  0  0  0  0  0  0  0  0999 V2000
  139.2550  159.0300  130.5550 C   0  0  0  0  0  0  0  0  0  0  0  0
  138.3650  159.3450  131.7630 C   0  0  1  0  0  0  0  0  0  0  0  0
  137.0170  159.0560  131.4810 O   0  0  0  0  0  0  0  0  0  0  0  0
  138.8350  158.5840  132.9830 C   0  0  0  0  0  0  0  0  0  0  0  0
  138.1500  157.6110  133.4010 O   0  0  0  0  0  0  0  0  0  0  0  0
  140.0790  158.9010  133.6380 N   0  0  0  0  0  0  0  0  0  0  0  0
  140.3160  158.6110  135.0410 C   0  0  0  0  0  0  0  0  0  0  0  0
  141.7020  159.1590  135.3550 C   0  0  0  0  0  0  0  0  0  0  0  0
  142.3710  159.4360  134.0010 C   0  0  1  0  0  0  0  0  0  0  0  0
  143.3850  158.3580  133.6520 C   0  0  0  0  0  0  0  0  0  0  0  0
  142.9800  157.0120  133.4380 C   0  0  0  0  0  0  0  0  0  0  0  0
  143.9220  156.0150  133.1420 C   0  0  0  0  0  0  0  0  0  0  0  0
  145.2610  156.3830  133.0690 C   0  0  0  0  0  0  0  0  0  0  0  0
  146.3770  155.6130  132.8350 C   0  0  0  0  0  0  0  0  0  0  0  0
  147.4530  156.4950  132.9010 C   0  0  0  0  0  0  0  0  0  0  0  0
  148.8490  156.0920  132.6310 C   0  0  0  0  0  0  0  0  0  0  0  0
  149.8270  157.0520  132.2400 N   0  0  0  0  0  0  0  0  0  0  0  0
  149.1700  154.8740  132.6940 O   0  0  0  0  0  0  0  0  0  0  0  0
  147.0210  157.7610  133.1720 N   0  0  0  0  0  0  0  0  0  0  0  0
  147.8260  158.9190  133.4400 C   0  0  0  0  0  0  0  0  0  0  0  0
  148.7250  158.8750  134.3240 O   0  0  0  0  0  0  0  0  0  0  0  0
  147.6240  160.0870  132.7000 O   0  0  0  0  0  0  0  0  0  0  0  0
  147.7080  160.1340  131.2800 C   0  0  0  0  0  0  0  0  0  0  0  0
  148.9300  159.3460  130.7990 C   0  0  0  0  0  0  0  0  0  0  0  0
  149.8390  160.1620  129.8640 C   0  0  0  0  0  0  0  0  0  0  0  0
  149.6060  161.6060  130.0030 C   0  0  0  0  0  0  0  0  0  0  0  0
  149.4200  162.7430  130.1120 N   0  0  0  0  0  0  0  0  0  0  0  0
  145.6750  157.6760  133.2680 C   0  0  0  0  0  0  0  0  0  0  0  0
  144.7580  158.6880  133.5810 C   0  0  0  0  0  0  0  0  0  0  0  0
  141.2270  159.5100  132.9830 C   0  0  0  0  0  0  0  0  0  0  0  0
  140.2382  158.6820  130.9047 H   0  0  0  0  0  0  0  0  0  0  0  0
  138.7830  158.2443  129.9468 H   0  0  0  0  0  0  0  0  0  0  0  0
  139.3824  159.9377  129.9468 H   0  0  0  0  0  0  0  0  0  0  0  0
  138.4436  160.4211  131.9771 H   0  0  0  0  0  0  0  0  0  0  0  0
  136.7910  158.1920  131.9110 H   0  0  0  0  0  0  0  0  0  0  0  0
  139.5586  159.1058  135.6668 H   0  0  0  0  0  0  0  0  0  0  0  0
  140.2537  157.5319  135.2454 H   0  0  0  0  0  0  0  0  0  0  0  0
  141.6213  160.0886  135.9376 H   0  0  0  0  0  0  0  0  0  0  0  0
  142.2885  158.4460  135.9530 H   0  0  0  0  0  0  0  0  0  0  0  0
  142.9454  160.3740  134.0141 H   0  0  0  0  0  0  0  0  0  0  0  0
  141.9141  156.7487  133.5054 H   0  0  0  0  0  0  0  0  0  0  0  0
  143.6106  154.9737  132.9728 H   0  0  0  0  0  0  0  0  0  0  0  0
  146.4120  154.5314  132.6378 H   0  0  0  0  0  0  0  0  0  0  0  0
  149.9740  157.9250  132.7940 H   0  0  0  0  0  0  0  0  0  0  0  0
  146.7977  159.6939  130.8469 H   0  0  0  0  0  0  0  0  0  0  0  0
  147.8061  161.1817  130.9595 H   0  0  0  0  0  0  0  0  0  0  0  0
  149.5164  159.0374  131.6770 H   0  0  0  0  0  0  0  0  0  0  0  0
  148.5610  158.4811  130.2282 H   0  0  0  0  0  0  0  0  0  0  0  0
  150.8891  159.9452  130.1094 H   0  0  0  0  0  0  0  0  0  0  0  0
  149.6091  159.8760  128.8270 H   0  0  0  0  0  0  0  0  0  0  0  0
  145.0989  159.7171  133.7675 H   0  0  0  0  0  0  0  0  0  0  0  0
  141.0105  160.5570  132.7243 H   0  0  0  0  0  0  0  0  0  0  0  0
  141.4822  158.9930  132.0462 H   0  0  0  0  0  0  0  0  0  0  0  0
  1  2  1  0
  2  3  1  0
  2  4  1  0
  4  5  2  0
  4  6  1  0
  6  7  1  0
  7  8  1  0
  8  9  1  0
  9 10  1  0
 10 11  2  0
 11 12  1  0
 12 13  2  0
 13 14  1  0
 14 15  2  0
 15 16  1  0
 16 17  1  0
 16 18  2  0
 15 19  1  0
 19 20  1  0
 20 21  2  0
 20 22  1  0
 22 23  1  0
 23 24  1  0
 24 25  1  0
 25 26  1  0
 26 27  3  0
 19 28  1  0
 28 29  2  0
  9 30  1  0
 30  6  1  0
 29 10  1  0
 28 13  1  0
  1 31  1  0
  1 32  1  0
  1 33  1  0
  2 34  1  1
  3 35  1  0
  7 36  1  0
  7 37  1  0
  8 38  1  0
  8 39  1  0
  9 40  1  1
 11 41  1  0
 12 42  1  0
 14 43  1  0
 17 44  1  0
 23 45  1  0
 23 46  1  0
 24 47  1  0
 24 48  1  0
 25 49  1  0
 25 50  1  0
 29 51  1  0
 30 52  1  0
 30 53  1  0
M  CHG  1  17  -1
M  END
>  <UniqueID>  (30) 
30

>  <SMILES>  (30) 
C[C@@H](O)C(=O)N1CC[C@@H](c2ccc3cc(C([NH-])=O)n(C(=O)OCCCC#N)c3c2)C1

>  <Energy>  (30) 
85.20409314006834

>  <Genealogy>  (30) 
C[C@@H](O)C(=O)N1CCC(c2ccc3cc(C([NH-])=O)n(C(=O)OCCCC#N)c3c2)C1 (protonated)
C[C@@H](O)C(=O)N1CC[C@@H](c2ccc3cc(C([NH-])=O)n(C(=O)OCCCC#N)c3c2)C1 (chirality)
C[C@@H](O)C(=O)N1CC[C@@H](c2ccc3cc(C([NH-])=O)n(C(=O)OCCCC#N)c3c2)C1 (3D coordinates assigned)
C[C@@H](O)C(=O)N1CC[C@@H](c2ccc3cc(C([NH-])=O)n(C(=O)OCCCC#N)c3c2)C1 (nonaromatic ring conformer: 85.20409314006834 kcal/mol)

>  <smiles>  (30) 
C[C@@H](O)C(=O)N1CCC(c2ccc3cc(C(N)=O)n(C(=O)OCCCC#N)c3c2)C1

>  <score_type>  (30) 
oracle

>  <origin>  (30) 
adg

>  <m_score__min__energy>  (30) 
-8.4499999999999993

>  <m_primary>  (30) 
energy

$$$$
30:0
     RDKit          3D

 38 39  0  0  0  0  0  0  0  0999 V2000
  146.5500  154.5800  135.6870 C   0  0  0  0  0  0  0  0  0  0  0  0
  147.7320  154.4380  134.9080 O   0  0  0  0  0  0  0  0  0  0  0  0
  147.7010  154.1640  133.5370 C   0  0  0  0  0  0  0  0  0  0  0  0
  147.0040  153.2150  133.0850 O   0  0  0  0  0  0  0  0  0  0  0  0
  148.5460  154.9740  132.6080 C   0  0  0  0  0  0  0  0  0  0  0  0
  148.2050  156.4320  132.7420 C   0  0  0  0  0  0  0  0  0  0  0  0
  149.2080  157.4200  132.5780 C   0  0  0  0  0  0  0  0  0  0  0  0
  148.8970  158.7830  132.7110 C   0  0  0  0  0  0  0  0  0  0  0  0
  147.5860  159.1260  133.0300 C   0  0  0  0  0  0  0  0  0  0  0  0
  147.0080  160.3650  133.1850 C   0  0  0  0  0  0  0  0  0  0  0  0
  145.6730  160.1120  133.4880 C   0  0  0  0  0  0  0  0  0  0  0  0
  144.6910  161.1730  133.7900 C   0  0  0  0  0  0  0  0  0  0  0  0
  143.2860  160.9150  133.7570 N   0  0  0  0  0  0  0  0  0  0  0  0
  145.1000  162.3140  134.1350 O   0  0  0  0  0  0  0  0  0  0  0  0
  145.4300  158.7710  133.5090 N   0  0  0  0  0  0  0  0  0  0  0  0
  144.1670  158.1090  133.6790 C   0  0  0  0  0  0  0  0  0  0  0  0
  143.9530  157.4190  134.7130 O   0  0  0  0  0  0  0  0  0  0  0  0
  143.1800  158.2320  132.6930 O   0  0  0  0  0  0  0  0  0  0  0  0
  141.8260  157.8360  132.8810 C   0  0  0  0  0  0  0  0  0  0  0  0
  140.9500  159.0570  133.9060 P   0  0  0  0  0  0  0  0  0  0  0  0
  139.5380  158.5920  134.1740 O   0  0  0  0  0  0  0  0  0  0  0  0
  141.7670  159.2480  135.3750 O   0  0  0  0  0  0  0  0  0  0  0  0
  140.9060  160.5400  133.0940 O   0  0  0  0  0  0  0  0  0  0  0  0
  146.6120  158.1810  133.2260 C   0  0  0  0  0  0  0  0  0  0  0  0
  146.8870  156.8170  133.0720 C   0  0  0  0  0  0  0  0  0  0  0  0
  146.8092  154.5489  136.7556 H   0  0  0  0  0  0  0  0  0  0  0  0
  146.0706  155.5422  135.4539 H   0  0  0  0  0  0  0  0  0  0  0  0
  145.8563  153.7587  135.4539 H   0  0  0  0  0  0  0  0  0  0  0  0
  149.6071  154.8238  132.8562 H   0  0  0  0  0  0  0  0  0  0  0  0
  148.3556  154.6522  131.5735 H   0  0  0  0  0  0  0  0  0  0  0  0
  150.2392  157.1164  132.3445 H   0  0  0  0  0  0  0  0  0  0  0  0
  149.6661  159.5563  132.5675 H   0  0  0  0  0  0  0  0  0  0  0  0
  147.4965  161.3460  133.0898 H   0  0  0  0  0  0  0  0  0  0  0  0
  142.6080  161.6890  133.9310 H   0  0  0  0  0  0  0  0  0  0  0  0
  142.9190  159.9450  133.6500 H   0  0  0  0  0  0  0  0  0  0  0  0
  141.3302  157.7611  131.9019 H   0  0  0  0  0  0  0  0  0  0  0  0
  141.8049  156.8604  133.3887 H   0  0  0  0  0  0  0  0  0  0  0  0
  146.0962  156.0640  133.2047 H   0  0  0  0  0  0  0  0  0  0  0  0
  1  2  1  0
  2  3  1  0
  3  4  2  0
  3  5  1  0
  5  6  1  0
  6  7  2  0
  7  8  1  0
  8  9  2  0
  9 10  1  0
 10 11  2  0
 11 12  1  0
 12 13  1  0
 12 14  2  0
 11 15  1  0
 15 16  1  0
 16 17  2  0
 16 18  1  0
 18 19  1  0
 19 20  1  0
 20 21  2  0
 20 22  1  0
 20 23  1  0
 15 24  1  0
 24 25  2  0
 25  6  1  0
 24  9  1  0
  1 26  1  0
  1 27  1  0
  1 28  1  0
  5 29  1  0
  5 30  1  0
  7 31  1  0
  8 32  1  0
 10 33  1  0
 13 34  1  0
 13 35  1  0
 19 36  1  0
 19 37  1  0
 25 38  1  0
M  CHG  2  22  -1  23  -1
M  END
>  <UniqueID>  (31) 
31

>  <SMILES>  (31) 
COC(=O)Cc1ccc2cc(C(N)=O)n(C(=O)OCP(=O)([O-])[O-])c2c1

>  <Energy>  (31) 
67.7938702040871

>  <Genealogy>  (31) 
COC(=O)Cc1ccc2cc(C(N)=O)n(C(=O)OCP(=O)([O-])[O-])c2c1 (protonated)
COC(=O)Cc1ccc2cc(C(N)=O)n(C(=O)OCP(=O)([O-])[O-])c2c1 (3D coordinates assigned)
COC(=O)Cc1ccc2cc(C(N)=O)n(C(=O)OCP(=O)([O-])[O-])c2c1 (optimized conformer: 67.7938702040871 kcal/mol)

>  <smiles>  (31) 
COC(=O)Cc1ccc2cc(C(N)=O)n(C(=O)OCP(=O)(O)O)c2c1

>  <score_type>  (31) 
oracle

>  <origin>  (31) 
adg

>  <m_score__min__energy>  (31) 
-6.0999999999999996

>  <m_primary>  (31) 
energy

$$$$
31:0
     RDKit          3D

 44 46  0  0  0  0  0  0  0  0999 V2000
  147.6840  156.0780  135.0910 C   0  0  0  0  0  0  0  0  0  0  0  0
  147.0380  155.7460  133.9750 C   0  0  0  0  0  0  0  0  0  0  0  0
  146.9530  156.6450  132.8080 C   0  0  0  0  0  0  0  0  0  0  0  0
  146.9860  156.1740  131.6380 O   0  0  0  0  0  0  0  0  0  0  0  0
  146.8330  158.0640  132.9990 N   0  0  0  0  0  0  0  0  0  0  0  0
  147.7830  159.0160  132.7780 C   0  0  0  0  0  0  0  0  0  0  0  0
  149.1890  158.7640  132.4010 C   0  0  0  0  0  0  0  0  0  0  0  0
  149.6480  157.4260  132.2230 N   0  0  0  0  0  0  0  0  0  0  0  0
  149.9860  159.7200  132.2100 O   0  0  0  0  0  0  0  0  0  0  0  0
  147.2630  160.2870  133.0190 C   0  0  0  0  0  0  0  0  0  0  0  0
  145.9550  160.0810  133.3940 C   0  0  0  0  0  0  0  0  0  0  0  0
  144.9620  160.9970  133.7290 C   0  0  0  0  0  0  0  0  0  0  0  0
  143.6860  160.5010  134.0440 C   0  0  0  0  0  0  0  0  0  0  0  0
  143.4180  159.1060  134.0190 C   0  0  0  0  0  0  0  0  0  0  0  0
  142.0150  158.6040  134.3250 C   0  0  2  0  0  0  0  0  0  0  0  0
  141.6170  157.3750  133.4670 C   0  0  0  0  0  0  0  0  0  0  0  0
  140.2430  157.5450  132.8060 C   0  0  0  0  0  0  0  0  0  0  0  0
  140.1940  158.7970  132.0230 N   0  0  1  0  0  0  0  0  0  0  0  0
  138.9050  158.8950  131.3160 C   0  0  0  0  0  0  0  0  0  0  0  0
  140.4460  160.0220  132.8380 C   0  0  0  0  0  0  0  0  0  0  0  0
  140.9800  159.7470  134.2610 C   0  0  0  0  0  0  0  0  0  0  0  0
  144.4550  158.2120  133.6600 C   0  0  0  0  0  0  0  0  0  0  0  0
  145.7190  158.7310  133.3710 C   0  0  0  0  0  0  0  0  0  0  0  0
  147.7203  155.3742  135.9356 H   0  0  0  0  0  0  0  0  0  0  0  0
  148.1814  157.0561  135.1684 H   0  0  0  0  0  0  0  0  0  0  0  0
  146.5482  154.7625  133.9209 H   0  0  0  0  0  0  0  0  0  0  0  0
  149.0820  156.7330  131.6830 H   0  0  0  0  0  0  0  0  0  0  0  0
  147.7870  161.2500  132.9286 H   0  0  0  0  0  0  0  0  0  0  0  0
  145.1702  162.0770  133.7466 H   0  0  0  0  0  0  0  0  0  0  0  0
  142.8830  161.2027  134.3139 H   0  0  0  0  0  0  0  0  0  0  0  0
  142.0215  158.2411  135.3634 H   0  0  0  0  0  0  0  0  0  0  0  0
  142.3727  157.2335  132.6803 H   0  0  0  0  0  0  0  0  0  0  0  0
  141.5629  156.5025  134.1347 H   0  0  0  0  0  0  0  0  0  0  0  0
  140.0559  156.6924  132.1366 H   0  0  0  0  0  0  0  0  0  0  0  0
  139.4743  157.5878  133.5917 H   0  0  0  0  0  0  0  0  0  0  0  0
  140.9330  158.7350  131.2820 H   0  0  0  0  0  0  0  0  0  0  0  0
  138.0880  158.9571  132.0500 H   0  0  0  0  0  0  0  0  0  0  0  0
  138.9004  159.7961  130.6851 H   0  0  0  0  0  0  0  0  0  0  0  0
  138.7642  158.0050  130.6851 H   0  0  0  0  0  0  0  0  0  0  0  0
  141.1845  160.6413  132.3078 H   0  0  0  0  0  0  0  0  0  0  0  0
  139.4736  160.5215  132.9603 H   0  0  0  0  0  0  0  0  0  0  0  0
  141.4533  160.6656  134.6379 H   0  0  0  0  0  0  0  0  0  0  0  0
  140.1200  159.4366  134.8727 H   0  0  0  0  0  0  0  0  0  0  0  0
  144.2689  157.1290  133.6096 H   0  0  0  0  0  0  0  0  0  0  0  0
  1  2  2  0
  2  3  1  0
  3  4  2  0
  3  5  1  0
  5  6  1  0
  6  7  1  0
  7  8  1  0
  7  9  2  0
  6 10  2  0
 10 11  1  0
 11 12  2  0
 12 13  1  0
 13 14  2  0
 14 15  1  0
 15 16  1  0
 16 17  1  0
 17 18  1  0
 18 19  1  0
 18 20  1  0
 20 21  1  0
 14 22  1  0
 22 23  2  0
 23  5  1  0
 23 11  1  0
 21 15  1  0
  1 24  1  0
  1 25  1  0
  2 26  1  0
  8 27  1  0
 10 28  1  0
 12 29  1  0
 13 30  1  0
 15 31  1  1
 16 32  1  0
 16 33  1  0
 17 34  1  0
 17 35  1  0
 18 36  1  6
 19 37  1  0
 19 38  1  0
 19 39  1  0
 20 40  1  0
 20 41  1  0
 21 42  1  0
 21 43  1  0
 22 44  1  0
M  CHG  2   8  -1  18   1
M  END
>  <UniqueID>  (32) 
32

>  <SMILES>  (32) 
C=CC(=O)n1c(C([NH-])=O)cc2ccc(C3CC[NH+](C)CC3)cc21

>  <Energy>  (32) 
92.83200994622489

>  <Genealogy>  (32) 
C=CC(=O)n1c(C([NH-])=O)cc2ccc(C3CC[NH+](C)CC3)cc21 (protonated)
C=CC(=O)n1c(C([NH-])=O)cc2ccc(C3CC[NH+](C)CC3)cc21 (3D coordinates assigned)
C=CC(=O)n1c(C([NH-])=O)cc2ccc(C3CC[NH+](C)CC3)cc21 (nonaromatic ring conformer: 92.83200994622489 kcal/mol)

>  <smiles>  (32) 
C=CC(=O)n1c(C(N)=O)cc2ccc(C3CCN(C)CC3)cc21

>  <score_type>  (32) 
oracle

>  <origin>  (32) 
adg

>  <m_score__min__energy>  (32) 
-6.9100000000000001

>  <m_primary>  (32) 
energy

$$$$
32:0
     RDKit          3D

 35 36  0  0  0  0  0  0  0  0999 V2000
  140.8850  160.0990  135.9760 N   0  0  0  0  0  0  0  0  0  0  0  0
  141.6380  159.7470  134.8170 C   0  0  0  0  0  0  0  0  0  0  0  0
  142.1630  160.6550  134.1200 O   0  0  0  0  0  0  0  0  0  0  0  0
  141.8210  158.3230  134.4600 C   0  0  0  0  0  0  0  0  0  0  0  0
  143.0410  157.7620  134.0880 C   0  0  0  0  0  0  0  0  0  0  0  0
  142.7610  156.4460  133.7890 C   0  0  0  0  0  0  0  0  0  0  0  0
  143.6040  155.4160  133.3810 C   0  0  0  0  0  0  0  0  0  0  0  0
  143.0360  154.1490  133.1590 C   0  0  0  0  0  0  0  0  0  0  0  0
  141.6420  153.9370  133.3300 C   0  0  0  0  0  0  0  0  0  0  0  0
  141.0490  152.5650  133.1320 C   0  0  0  0  0  0  0  0  0  0  0  0
  141.0010  151.8710  134.3300 F   0  0  0  0  0  0  0  0  0  0  0  0
  141.8090  151.8320  132.2380 F   0  0  0  0  0  0  0  0  0  0  0  0
  139.7650  152.6920  132.6340 F   0  0  0  0  0  0  0  0  0  0  0  0
  140.8250  155.0040  133.7720 C   0  0  0  0  0  0  0  0  0  0  0  0
  141.4200  156.2510  133.9810 C   0  0  0  0  0  0  0  0  0  0  0  0
  140.8310  157.3900  134.3960 N   0  0  0  0  0  0  0  0  0  0  0  0
  139.4470  157.5490  134.7260 C   0  0  0  0  0  0  0  0  0  0  0  0
  139.1100  157.6420  135.9360 O   0  0  0  0  0  0  0  0  0  0  0  0
  138.4370  157.7480  133.6290 C   0  0  0  0  0  0  0  0  0  0  0  0
  138.7760  158.9210  132.6880 C   0  0  0  0  0  0  0  0  0  0  0  0
  138.3230  158.7030  131.2340 C   0  0  0  0  0  0  0  0  0  0  0  0
  137.7450  159.9480  130.6340 C   0  0  0  0  0  0  0  0  0  0  0  0
  136.5050  160.1640  130.6930 O   0  0  0  0  0  0  0  0  0  0  0  0
  138.5730  160.8570  129.9850 O   0  0  0  0  0  0  0  0  0  0  0  0
  139.9720  159.6380  136.1850 H   0  0  0  0  0  0  0  0  0  0  0  0
  144.0193  158.2628  134.0426 H   0  0  0  0  0  0  0  0  0  0  0  0
  144.6809  155.5879  133.2368 H   0  0  0  0  0  0  0  0  0  0  0  0
  143.6790  153.3120  132.8492 H   0  0  0  0  0  0  0  0  0  0  0  0
  139.7491  154.8559  133.9467 H   0  0  0  0  0  0  0  0  0  0  0  0
  138.3853  156.8258  133.0316 H   0  0  0  0  0  0  0  0  0  0  0  0
  137.4775  157.9863  134.1113 H   0  0  0  0  0  0  0  0  0  0  0  0
  138.2841  159.8268  133.0722 H   0  0  0  0  0  0  0  0  0  0  0  0
  139.8722  159.0113  132.6714 H   0  0  0  0  0  0  0  0  0  0  0  0
  139.1906  158.3897  130.6348 H   0  0  0  0  0  0  0  0  0  0  0  0
  137.5399  157.9305  131.2341 H   0  0  0  0  0  0  0  0  0  0  0  0
  1  2  1  0
  2  3  2  0
  2  4  1  0
  4  5  2  0
  5  6  1  0
  6  7  2  0
  7  8  1  0
  8  9  2  0
  9 10  1  0
 10 11  1  0
 10 12  1  0
 10 13  1  0
  9 14  1  0
 14 15  2  0
 15 16  1  0
 16 17  1  0
 17 18  2  0
 17 19  1  0
 19 20  1  0
 20 21  1  0
 21 22  1  0
 22 23  2  0
 22 24  1  0
 16  4  1  0
 15  6  1  0
  1 25  1  0
  5 26  1  0
  7 27  1  0
  8 28  1  0
 14 29  1  0
 19 30  1  0
 19 31  1  0
 20 32  1  0
 20 33  1  0
 21 34  1  0
 21 35  1  0
M  CHG  2   1  -1  24  -1
M  END
>  <UniqueID>  (33) 
33

>  <SMILES>  (33) 
[NH-]C(=O)c1cc2ccc(C(F)(F)F)cc2n1C(=O)CCCC(=O)[O-]

>  <Energy>  (33) 
73.28029178698372

>  <Genealogy>  (33) 
[NH-]C(=O)c1cc2ccc(C(F)(F)F)cc2n1C(=O)CCCC(=O)[O-] (protonated)
[NH-]C(=O)c1cc2ccc(C(F)(F)F)cc2n1C(=O)CCCC(=O)[O-] (3D coordinates assigned)
[NH-]C(=O)c1cc2ccc(C(F)(F)F)cc2n1C(=O)CCCC(=O)[O-] (optimized conformer: 73.28029178698372 kcal/mol)

>  <smiles>  (33) 
NC(=O)c1cc2ccc(C(F)(F)F)cc2n1C(=O)CCCC(=O)O

>  <score_type>  (33) 
oracle

>  <origin>  (33) 
adg

>  <m_score__min__energy>  (33) 
-6.3700000000000001

>  <m_primary>  (33) 
energy

$$$$
33:0
     RDKit          3D

 32 33  0  0  0  0  0  0  0  0999 V2000
  149.9410  157.7180  131.8880 N   0  0  0  0  0  0  0  0  0  0  0  0
  149.3030  158.9680  132.1300 C   0  0  0  0  0  0  0  0  0  0  0  0
  149.9420  160.0360  131.9330 O   0  0  0  0  0  0  0  0  0  0  0  0
  147.9180  158.9990  132.6360 C   0  0  0  0  0  0  0  0  0  0  0  0
  147.1190  160.1420  132.6510 C   0  0  0  0  0  0  0  0  0  0  0  0
  145.8940  159.7250  133.1220 C   0  0  0  0  0  0  0  0  0  0  0  0
  144.7270  160.4470  133.3550 C   0  0  0  0  0  0  0  0  0  0  0  0
  143.6120  159.7530  133.8560 C   0  0  0  0  0  0  0  0  0  0  0  0
  143.6810  158.3610  134.1200 C   0  0  0  0  0  0  0  0  0  0  0  0
  142.4670  157.6570  134.6710 C   0  0  0  0  0  0  0  0  0  0  0  0
  141.8220  158.4900  135.5680 F   0  0  0  0  0  0  0  0  0  0  0  0
  141.6010  157.3510  133.6370 F   0  0  0  0  0  0  0  0  0  0  0  0
  142.8070  156.4850  135.3240 F   0  0  0  0  0  0  0  0  0  0  0  0
  144.8880  157.6650  133.8770 C   0  0  0  0  0  0  0  0  0  0  0  0
  145.9770  158.3810  133.3710 C   0  0  0  0  0  0  0  0  0  0  0  0
  147.2120  157.9230  133.0830 N   0  0  0  0  0  0  0  0  0  0  0  0
  147.6800  156.5830  133.2870 C   0  0  0  0  0  0  0  0  0  0  0  0
  147.7620  155.7940  132.3080 O   0  0  0  0  0  0  0  0  0  0  0  0
  147.9640  156.0810  134.6750 C   0  0  0  0  0  0  0  0  0  0  0  0
  147.2460  154.7550  134.9480 C   0  0  0  0  0  0  0  0  0  0  0  0
  147.5870  154.1920  136.2950 C   0  0  0  0  0  0  0  0  0  0  0  0
  148.4350  154.7690  137.0260 O   0  0  0  0  0  0  0  0  0  0  0  0
  146.9780  153.0260  136.7390 O   0  0  0  0  0  0  0  0  0  0  0  0
  149.4130  156.9200  131.4700 H   0  0  0  0  0  0  0  0  0  0  0  0
  147.4063  161.1604  132.3504 H   0  0  0  0  0  0  0  0  0  0  0  0
  144.6788  161.5273  133.1533 H   0  0  0  0  0  0  0  0  0  0  0  0
  142.6744  160.2961  134.0457 H   0  0  0  0  0  0  0  0  0  0  0  0
  144.9679  156.5870  134.0811 H   0  0  0  0  0  0  0  0  0  0  0  0
  149.0480  155.9305  134.7863 H   0  0  0  0  0  0  0  0  0  0  0  0
  147.5975  156.8277  135.3949 H   0  0  0  0  0  0  0  0  0  0  0  0
  146.1601  154.9238  134.8994 H   0  0  0  0  0  0  0  0  0  0  0  0
  147.5736  154.0312  134.1872 H   0  0  0  0  0  0  0  0  0  0  0  0
  1  2  1  0
  2  3  2  0
  2  4  1  0
  4  5  2  0
  5  6  1  0
  6  7  2  0
  7  8  1  0
  8  9  2  0
  9 10  1  0
 10 11  1  0
 10 12  1  0
 10 13  1  0
  9 14  1  0
 14 15  2  0
 15 16  1  0
 16 17  1  0
 17 18  2  0
 17 19  1  0
 19 20  1  0
 20 21  1  0
 21 22  2  0
 21 23  1  0
 16  4  1  0
 15  6  1  0
  1 24  1  0
  5 25  1  0
  7 26  1  0
  8 27  1  0
 14 28  1  0
 19 29  1  0
 19 30  1  0
 20 31  1  0
 20 32  1  0
M  CHG  2   1  -1  23  -1
M  END
>  <UniqueID>  (34) 
34

>  <SMILES>  (34) 
[NH-]C(=O)c1cc2ccc(C(F)(F)F)cc2n1C(=O)CCC(=O)[O-]

>  <Energy>  (34) 
68.99343780882327

>  <Genealogy>  (34) 
[NH-]C(=O)c1cc2ccc(C(F)(F)F)cc2n1C(=O)CCC(=O)[O-] (protonated)
[NH-]C(=O)c1cc2ccc(C(F)(F)F)cc2n1C(=O)CCC(=O)[O-] (3D coordinates assigned)
[NH-]C(=O)c1cc2ccc(C(F)(F)F)cc2n1C(=O)CCC(=O)[O-] (optimized conformer: 68.99343780882327 kcal/mol)

>  <smiles>  (34) 
NC(=O)c1cc2ccc(C(F)(F)F)cc2n1C(=O)CCC(=O)O

>  <score_type>  (34) 
oracle

>  <origin>  (34) 
adg

>  <m_score__min__energy>  (34) 
-6.3499999999999996

>  <m_primary>  (34) 
energy

$$$$
34:0
     RDKit          3D

 36 37  0  0  0  0  0  0  0  0999 V2000
  138.9960  160.2940  130.7340 C   0  0  0  0  0  0  0  0  0  0  0  0
  139.3990  159.4970  131.9700 C   0  0  0  0  0  0  0  0  0  0  0  0
  138.3660  158.4530  132.2970 C   0  0  0  0  0  0  0  0  0  0  0  0
  138.3560  157.6760  133.3900 C   0  0  0  0  0  0  0  0  0  0  0  0
  139.4200  157.6190  134.4120 C   0  0  0  0  0  0  0  0  0  0  0  0
  139.1000  157.7390  135.6240 O   0  0  0  0  0  0  0  0  0  0  0  0
  140.7860  157.3280  134.0710 N   0  0  0  0  0  0  0  0  0  0  0  0
  141.8540  158.1730  134.1250 C   0  0  0  0  0  0  0  0  0  0  0  0
  141.7970  159.6180  134.4280 C   0  0  0  0  0  0  0  0  0  0  0  0
  141.0220  160.0820  135.5320 N   0  0  0  0  0  0  0  0  0  0  0  0
  142.4430  160.4470  133.7350 O   0  0  0  0  0  0  0  0  0  0  0  0
  143.0270  157.4990  133.7900 C   0  0  0  0  0  0  0  0  0  0  0  0
  142.6430  156.2020  133.5350 C   0  0  0  0  0  0  0  0  0  0  0  0
  143.4060  155.0960  133.1740 C   0  0  0  0  0  0  0  0  0  0  0  0
  142.7460  153.8670  133.0060 C   0  0  0  0  0  0  0  0  0  0  0  0
  141.3460  153.7670  133.1990 C   0  0  0  0  0  0  0  0  0  0  0  0
  140.6560  152.4390  133.0570 C   0  0  0  0  0  0  0  0  0  0  0  0
  141.3700  151.4020  133.8630 C   0  0  0  0  0  0  0  0  0  0  0  0
  142.2860  150.7140  133.3420 O   0  0  0  0  0  0  0  0  0  0  0  0
  140.9910  151.1610  135.1780 O   0  0  0  0  0  0  0  0  0  0  0  0
  140.6070  154.9080  133.5800 C   0  0  0  0  0  0  0  0  0  0  0  0
  141.2870  156.1230  133.7190 C   0  0  0  0  0  0  0  0  0  0  0  0
  138.5198  161.2358  131.0442 H   0  0  0  0  0  0  0  0  0  0  0  0
  139.8903  160.5158  130.1331 H   0  0  0  0  0  0  0  0  0  0  0  0
  138.2872  159.7053  130.1331 H   0  0  0  0  0  0  0  0  0  0  0  0
  140.3632  159.0025  131.7809 H   0  0  0  0  0  0  0  0  0  0  0  0
  139.4817  160.1880  132.8218 H   0  0  0  0  0  0  0  0  0  0  0  0
  137.5468  158.3149  131.5760 H   0  0  0  0  0  0  0  0  0  0  0  0
  137.4809  157.0260  133.5376 H   0  0  0  0  0  0  0  0  0  0  0  0
  140.0920  159.6600  135.7480 H   0  0  0  0  0  0  0  0  0  0  0  0
  144.0440  157.9152  133.7400 H   0  0  0  0  0  0  0  0  0  0  0  0
  144.4925  155.1811  133.0247 H   0  0  0  0  0  0  0  0  0  0  0  0
  143.3218  152.9739  132.7219 H   0  0  0  0  0  0  0  0  0  0  0  0
  139.6192  152.5274  133.4138 H   0  0  0  0  0  0  0  0  0  0  0  0
  140.6625  152.1405  131.9983 H   0  0  0  0  0  0  0  0  0  0  0  0
  139.5242  154.8435  133.7629 H   0  0  0  0  0  0  0  0  0  0  0  0
  1  2  1  0
  2  3  1  0
  3  4  2  3
  4  5  1  0
  5  6  2  0
  5  7  1  0
  7  8  1  0
  8  9  1  0
  9 10  1  0
  9 11  2  0
  8 12  2  0
 12 13  1  0
 13 14  2  0
 14 15  1  0
 15 16  2  0
 16 17  1  0
 17 18  1  0
 18 19  2  0
 18 20  1  0
 16 21  1  0
 21 22  2  0
 22  7  1  0
 22 13  1  0
  1 23  1  0
  1 24  1  0
  1 25  1  0
  2 26  1  0
  2 27  1  0
  3 28  1  0
  4 29  1  0
 10 30  1  0
 12 31  1  0
 14 32  1  0
 15 33  1  0
 17 34  1  0
 17 35  1  0
 21 36  1  0
M  CHG  2  10  -1  20  -1
M  END
>  <UniqueID>  (35) 
35

>  <SMILES>  (35) 
CCC=CC(=O)n1c(C([NH-])=O)cc2ccc(CC(=O)[O-])cc21

>  <Energy>  (35) 
73.2535623786748

>  <Genealogy>  (35) 
CCC=CC(=O)n1c(C([NH-])=O)cc2ccc(CC(=O)[O-])cc21 (protonated)
CCC=CC(=O)n1c(C([NH-])=O)cc2ccc(CC(=O)[O-])cc21 (3D coordinates assigned)
CCC=CC(=O)n1c(C([NH-])=O)cc2ccc(CC(=O)[O-])cc21 (optimized conformer: 73.2535623786748 kcal/mol)

>  <smiles>  (35) 
CCC=CC(=O)n1c(C(N)=O)cc2ccc(CC(=O)O)cc21

>  <score_type>  (35) 
oracle

>  <origin>  (35) 
adg

>  <m_score__min__energy>  (35) 
-7.3600000000000003

>  <m_primary>  (35) 
energy

$$$$
35:0
     RDKit          3D

 56 59  0  0  0  0  0  0  0  0999 V2000
  147.2200  151.2330  132.2260 C   0  0  0  0  0  0  0  0  0  0  0  0
  146.5880  152.4480  132.6150 O   0  0  0  0  0  0  0  0  0  0  0  0
  145.2030  152.6060  132.7840 C   0  0  0  0  0  0  0  0  0  0  0  0
  144.3100  151.4960  132.7330 C   0  0  0  0  0  0  0  0  0  0  0  0
  142.9240  151.6770  132.8940 C   0  0  0  0  0  0  0  0  0  0  0  0
  142.4620  152.9710  133.0990 C   0  0  0  0  0  0  0  0  0  0  0  0
  141.1910  153.3730  133.2770 N   0  0  0  0  0  0  0  0  0  0  0  0
  141.3410  154.7150  133.4320 C   0  0  0  0  0  0  0  0  0  0  0  0
  140.2180  155.6310  133.6780 C   0  0  0  0  0  0  0  0  0  0  0  0
  139.1620  155.5190  133.0000 O   0  0  0  0  0  0  0  0  0  0  0  0
  140.3180  156.6550  134.6830 N   0  0  0  0  0  0  0  0  0  0  0  0
  139.8180  157.9220  134.6260 C   0  0  0  0  0  0  0  0  0  0  0  0
  139.1300  158.5190  133.4590 C   0  0  0  0  0  0  0  0  0  0  0  0
  137.9620  157.9080  132.9060 N   0  0  0  0  0  0  0  0  0  0  0  0
  139.5590  159.5880  132.9490 O   0  0  0  0  0  0  0  0  0  0  0  0
  140.1210  158.6150  135.7980 C   0  0  0  0  0  0  0  0  0  0  0  0
  140.8220  157.7250  136.5790 C   0  0  0  0  0  0  0  0  0  0  0  0
  141.3800  157.8870  137.8430 C   0  0  0  0  0  0  0  0  0  0  0  0
  142.0560  156.7920  138.4120 C   0  0  0  0  0  0  0  0  0  0  0  0
  142.1450  155.5560  137.7170 C   0  0  0  0  0  0  0  0  0  0  0  0
  142.8390  154.4270  138.2760 N   0  0  0  0  0  0  0  0  0  0  0  0
  142.1580  153.3590  139.0080 C   0  0  0  0  0  0  0  0  0  0  0  0
  141.5350  152.3750  138.0530 C   0  0  0  0  0  0  0  0  0  0  0  0
  141.7660  152.5070  136.8210 O   0  0  0  0  0  0  0  0  0  0  0  0
  140.7160  151.2770  138.5150 N   0  0  0  0  0  0  0  0  0  0  0  0
  140.4160  151.1070  139.9430 C   0  0  0  0  0  0  0  0  0  0  0  0
  140.1840  150.3250  137.5350 C   0  0  0  0  0  0  0  0  0  0  0  0
  141.5470  155.4290  136.4460 C   0  0  0  0  0  0  0  0  0  0  0  0
  140.9180  156.5470  135.8880 C   0  0  0  0  0  0  0  0  0  0  0  0
  142.5980  155.1160  133.3490 O   0  0  0  0  0  0  0  0  0  0  0  0
  143.3060  154.0370  133.1490 C   0  0  0  0  0  0  0  0  0  0  0  0
  144.6890  153.9070  133.0110 C   0  0  0  0  0  0  0  0  0  0  0  0
  145.5860  155.1100  133.0500 C   0  0  0  0  0  0  0  0  0  0  0  0
  147.5135  150.6687  133.1234 H   0  0  0  0  0  0  0  0  0  0  0  0
  146.5206  150.6313  131.6270 H   0  0  0  0  0  0  0  0  0  0  0  0
  148.1142  151.4603  131.6270 H   0  0  0  0  0  0  0  0  0  0  0  0
  144.7097  150.4849  132.5656 H   0  0  0  0  0  0  0  0  0  0  0  0
  142.2306  150.8238  132.8588 H   0  0  0  0  0  0  0  0  0  0  0  0
  137.4650  158.3600  132.1060 H   0  0  0  0  0  0  0  0  0  0  0  0
  137.6100  156.9900  133.2530 H   0  0  0  0  0  0  0  0  0  0  0  0
  139.8557  159.6534  136.0456 H   0  0  0  0  0  0  0  0  0  0  0  0
  141.2953  158.8424  138.3815 H   0  0  0  0  0  0  0  0  0  0  0  0
  142.5199  156.8938  139.4042 H   0  0  0  0  0  0  0  0  0  0  0  0
  143.8840  154.4200  138.2300 H   0  0  0  0  0  0  0  0  0  0  0  0
  142.8870  152.8343  139.6430 H   0  0  0  0  0  0  0  0  0  0  0  0
  141.3645  153.8035  139.6267 H   0  0  0  0  0  0  0  0  0  0  0  0
  141.2182  151.5616  140.5428 H   0  0  0  0  0  0  0  0  0  0  0  0
  139.4598  151.5975  140.1777 H   0  0  0  0  0  0  0  0  0  0  0  0
  140.3454  150.0347  140.1777 H   0  0  0  0  0  0  0  0  0  0  0  0
  139.7128  149.4818  138.0613 H   0  0  0  0  0  0  0  0  0  0  0  0
  139.4360  150.8276  136.9042 H   0  0  0  0  0  0  0  0  0  0  0  0
  141.0041  149.9513  136.9042 H   0  0  0  0  0  0  0  0  0  0  0  0
  141.5746  154.4715  135.9052 H   0  0  0  0  0  0  0  0  0  0  0  0
  145.7890  155.3822  134.0963 H   0  0  0  0  0  0  0  0  0  0  0  0
  146.5332  154.8778  132.5412 H   0  0  0  0  0  0  0  0  0  0  0  0
  145.0931  155.9515  132.5412 H   0  0  0  0  0  0  0  0  0  0  0  0
  1  2  1  0
  2  3  1  0
  3  4  2  0
  4  5  1  0
  5  6  2  0
  6  7  1  0
  7  8  2  0
  8  9  1  0
  9 10  2  0
  9 11  1  0
 11 12  1  0
 12 13  1  0
 13 14  1  0
 13 15  2  0
 12 16  2  0
 16 17  1  0
 17 18  2  0
 18 19  1  0
 19 20  2  0
 20 21  1  0
 21 22  1  0
 22 23  1  0
 23 24  2  0
 23 25  1  0
 25 26  1  0
 25 27  1  0
 20 28  1  0
 28 29  2  0
  8 30  1  0
 30 31  1  0
 31 32  2  0
 32 33  1  0
 32  3  1  0
 31  6  1  0
 29 11  1  0
 29 17  1  0
  1 34  1  0
  1 35  1  0
  1 36  1  0
  4 37  1  0
  5 38  1  0
 14 39  1  0
 14 40  1  0
 16 41  1  0
 18 42  1  0
 19 43  1  0
 21 44  1  0
 22 45  1  0
 22 46  1  0
 26 47  1  0
 26 48  1  0
 26 49  1  0
 27 50  1  0
 27 51  1  0
 27 52  1  0
 28 53  1  0
 33 54  1  0
 33 55  1  0
 33 56  1  0
M  END
>  <UniqueID>  (36) 
36

>  <SMILES>  (36) 
COc1ccc2nc(C(=O)n3c(C(N)=O)cc4ccc(NCC(=O)N(C)C)cc43)oc2c1C

>  <Energy>  (36) 
129.26720952940067

>  <Genealogy>  (36) 
COc1ccc2nc(C(=O)n3c(C(N)=O)cc4ccc(NCC(=O)N(C)C)cc43)oc2c1C (3D coordinates assigned)
COc1ccc2nc(C(=O)n3c(C(N)=O)cc4ccc(NCC(=O)N(C)C)cc43)oc2c1C (optimized conformer: 129.26720952940067 kcal/mol)

>  <smiles>  (36) 
COc1ccc2nc(C(=O)n3c(C(N)=O)cc4ccc(NCC(=O)N(C)C)cc43)oc2c1C

>  <score_type>  (36) 
oracle

>  <origin>  (36) 
adg

>  <m_score__min__energy>  (36) 
-8.6699999999999999

>  <m_primary>  (36) 
energy

$$$$
36:0
     RDKit          3D

 50 52  0  0  0  0  0  0  0  0999 V2000
  139.0680  160.3340  131.4090 N   0  0  0  0  0  0  0  0  0  0  0  0
  139.4560  159.4110  131.9900 C   0  0  0  0  0  0  0  0  0  0  0  0
  139.9470  158.2400  132.7290 C   0  0  0  0  0  0  0  0  0  0  0  0
  140.5430  158.6410  134.0830 C   0  0  0  0  0  0  0  0  0  0  0  0
  141.9690  159.1140  133.9470 C   0  0  0  0  0  0  0  0  0  0  0  0
  142.2520  160.4940  133.8160 C   0  0  0  0  0  0  0  0  0  0  0  0
  143.5750  160.9420  133.6980 C   0  0  0  0  0  0  0  0  0  0  0  0
  144.5930  159.9930  133.7380 C   0  0  0  0  0  0  0  0  0  0  0  0
  145.9470  160.1640  133.5990 C   0  0  0  0  0  0  0  0  0  0  0  0
  146.4860  158.8880  133.6970 C   0  0  0  0  0  0  0  0  0  0  0  0
  147.9330  158.6240  133.6410 C   0  0  0  0  0  0  0  0  0  0  0  0
  148.4370  157.3050  133.8290 N   0  0  0  0  0  0  0  0  0  0  0  0
  148.7380  159.5810  133.4860 O   0  0  0  0  0  0  0  0  0  0  0  0
  145.5130  157.9500  133.8860 N   0  0  0  0  0  0  0  0  0  0  0  0
  145.7040  156.5160  133.8910 C   0  0  0  0  0  0  0  0  0  0  0  0
  145.8180  155.9150  134.9940 O   0  0  0  0  0  0  0  0  0  0  0  0
  145.8440  155.7280  132.6120 C   0  0  0  0  0  0  0  0  0  0  0  0
  146.3430  154.2880  132.8060 C   0  0  0  0  0  0  0  0  0  0  0  0
  148.0010  154.1880  133.4790 S   0  0  0  0  0  0  0  0  0  0  0  0
  148.8980  155.1710  132.7800 O   0  0  0  0  0  0  0  0  0  0  0  0
  147.9440  154.5410  134.9400 O   0  0  0  0  0  0  0  0  0  0  0  0
  148.6440  152.5760  133.2810 N   0  0  0  0  0  0  0  0  0  0  0  0
  149.9110  152.5810  132.5460 C   0  0  0  0  0  0  0  0  0  0  0  0
  149.9960  151.2550  131.8000 C   0  0  0  0  0  0  0  0  0  0  0  0
  148.5980  150.6610  131.8630 C   0  0  0  0  0  0  0  0  0  0  0  0
  147.7400  151.7430  132.4890 C   0  0  0  0  0  0  0  0  0  0  0  0
  144.3470  158.6490  133.8990 C   0  0  0  0  0  0  0  0  0  0  0  0
  143.0270  158.1780  133.9850 C   0  0  0  0  0  0  0  0  0  0  0  0
  139.1097  157.5469  132.8980 H   0  0  0  0  0  0  0  0  0  0  0  0
  140.7369  157.7609  132.1320 H   0  0  0  0  0  0  0  0  0  0  0  0
  139.9376  159.4528  134.5126 H   0  0  0  0  0  0  0  0  0  0  0  0
  140.5362  157.7560  134.7362 H   0  0  0  0  0  0  0  0  0  0  0  0
  141.4270  161.2215  133.8066 H   0  0  0  0  0  0  0  0  0  0  0  0
  143.8022  162.0115  133.5774 H   0  0  0  0  0  0  0  0  0  0  0  0
  146.4890  161.1085  133.4434 H   0  0  0  0  0  0  0  0  0  0  0  0
  147.8000  156.5470  134.1580 H   0  0  0  0  0  0  0  0  0  0  0  0
  149.4580  157.1090  133.7400 H   0  0  0  0  0  0  0  0  0  0  0  0
  144.8596  155.6881  132.1228 H   0  0  0  0  0  0  0  0  0  0  0  0
  146.6029  156.2446  132.0061 H   0  0  0  0  0  0  0  0  0  0  0  0
  145.6568  153.7718  133.4936 H   0  0  0  0  0  0  0  0  0  0  0  0
  146.3697  153.8190  131.8113 H   0  0  0  0  0  0  0  0  0  0  0  0
  149.9311  153.4181  131.8327 H   0  0  0  0  0  0  0  0  0  0  0  0
  150.7629  152.7022  133.2313 H   0  0  0  0  0  0  0  0  0  0  0  0
  150.2961  151.4209  130.7548 H   0  0  0  0  0  0  0  0  0  0  0  0
  150.7443  150.5837  132.2465 H   0  0  0  0  0  0  0  0  0  0  0  0
  148.2361  150.4162  130.8535 H   0  0  0  0  0  0  0  0  0  0  0  0
  148.5719  149.7261  132.4421 H   0  0  0  0  0  0  0  0  0  0  0  0
  147.2548  152.3448  131.7065 H   0  0  0  0  0  0  0  0  0  0  0  0
  146.9439  151.3111  133.1133 H   0  0  0  0  0  0  0  0  0  0  0  0
  142.8206  157.1017  134.0801 H   0  0  0  0  0  0  0  0  0  0  0  0
  1  2  3  0
  2  3  1  0
  3  4  1  0
  4  5  1  0
  5  6  2  0
  6  7  1  0
  7  8  2  0
  8  9  1  0
  9 10  2  0
 10 11  1  0
 11 12  1  0
 11 13  2  0
 10 14  1  0
 14 15  1  0
 15 16  2  0
 15 17  1  0
 17 18  1  0
 18 19  1  0
 19 20  2  0
 19 21  2  0
 19 22  1  0
 22 23  1  0
 23 24  1  0
 24 25  1  0
 25 26  1  0
 14 27  1  0
 27 28  2  0
 28  5  1  0
 27  8  1  0
 26 22  1  0
  3 29  1  0
  3 30  1  0
  4 31  1  0
  4 32  1  0
  6 33  1  0
  7 34  1  0
  9 35  1  0
 12 36  1  0
 12 37  1  0
 17 38  1  0
 17 39  1  0
 18 40  1  0
 18 41  1  0
 23 42  1  0
 23 43  1  0
 24 44  1  0
 24 45  1  0
 25 46  1  0
 25 47  1  0
 26 48  1  0
 26 49  1  0
 28 50  1  0
M  END
>  <UniqueID>  (37) 
37

>  <SMILES>  (37) 
N#CCCc1ccc2cc(C(N)=O)n(C(=O)CCS(=O)(=O)N3CCCC3)c2c1

>  <Energy>  (37) 
83.1726006462004

>  <Genealogy>  (37) 
N#CCCc1ccc2cc(C(N)=O)n(C(=O)CCS(=O)(=O)N3CCCC3)c2c1 (3D coordinates assigned)
N#CCCc1ccc2cc(C(N)=O)n(C(=O)CCS(=O)(=O)N3CCCC3)c2c1 (nonaromatic ring conformer: 83.1726006462004 kcal/mol)

>  <smiles>  (37) 
N#CCCc1ccc2cc(C(N)=O)n(C(=O)CCS(=O)(=O)N3CCCC3)c2c1

>  <score_type>  (37) 
oracle

>  <origin>  (37) 
adg

>  <m_score__min__energy>  (37) 
-9.1099999999999994

>  <m_primary>  (37) 
energy

$$$$
37:0
     RDKit          3D

 57 59  0  0  0  0  0  0  0  0999 V2000
  139.2670  155.2590  132.9810 C   0  0  0  0  0  0  0  0  0  0  0  0
  140.6150  154.7290  133.4600 C   0  0  2  0  0  0  0  0  0  0  0  0
  141.6030  155.7470  133.3130 O   0  0  0  0  0  0  0  0  0  0  0  0
  142.1960  156.4180  134.3870 C   0  0  0  0  0  0  0  0  0  0  0  0
  142.7750  155.7750  135.3050 O   0  0  0  0  0  0  0  0  0  0  0  0
  142.2100  157.8510  134.4000 N   0  0  0  0  0  0  0  0  0  0  0  0
  141.1530  158.6940  134.5740 C   0  0  0  0  0  0  0  0  0  0  0  0
  139.7780  158.2900  134.9360 C   0  0  0  0  0  0  0  0  0  0  0  0
  139.4700  157.9550  136.2860 N   0  0  0  0  0  0  0  0  0  0  0  0
  138.8770  158.2160  134.0610 O   0  0  0  0  0  0  0  0  0  0  0  0
  141.5540  160.0190  134.4070 C   0  0  0  0  0  0  0  0  0  0  0  0
  142.8990  159.9580  134.1140 C   0  0  0  0  0  0  0  0  0  0  0  0
  143.7980  160.9760  133.8160 C   0  0  0  0  0  0  0  0  0  0  0  0
  145.1180  160.6160  133.4920 C   0  0  0  0  0  0  0  0  0  0  0  0
  145.5120  159.2540  133.4570 C   0  0  0  0  0  0  0  0  0  0  0  0
  146.9020  158.9070  133.0830 C   0  0  0  0  0  0  0  0  0  0  0  0
  147.7740  158.0610  133.7460 C   0  0  0  0  0  0  0  0  0  0  0  0
  148.9250  158.0360  133.0550 N   0  0  0  0  0  0  0  0  0  0  0  0
  148.7260  158.8540  132.0050 C   0  0  0  0  0  0  0  0  0  0  0  0
  147.5190  159.3750  132.0190 O   0  0  0  0  0  0  0  0  0  0  0  0
  144.5670  158.2470  133.7700 C   0  0  0  0  0  0  0  0  0  0  0  0
  143.2670  158.6390  134.1110 C   0  0  0  0  0  0  0  0  0  0  0  0
  140.9750  153.6350  132.6420 O   0  0  0  0  0  0  0  0  0  0  0  0
  142.1320  152.5670  133.3950 Si  0  0  0  0  0  4  0  0  0  0  0  0
  141.8140  150.8770  132.6580 C   0  0  0  0  0  0  0  0  0  0  0  0
  141.8020  152.3940  135.2350 C   0  0  0  0  0  0  0  0  0  0  0  0
  143.9490  153.0650  133.0580 C   0  0  0  0  0  0  0  0  0  0  0  0
  143.9870  154.1310  131.9460 C   0  0  0  0  0  0  0  0  0  0  0  0
  144.5660  153.6510  134.3400 C   0  0  0  0  0  0  0  0  0  0  0  0
  144.7710  151.8470  132.5970 C   0  0  0  0  0  0  0  0  0  0  0  0
  138.6400  155.5055  133.8505 H   0  0  0  0  0  0  0  0  0  0  0  0
  139.4232  156.1627  132.3736 H   0  0  0  0  0  0  0  0  0  0  0  0
  138.7659  154.4910  132.3736 H   0  0  0  0  0  0  0  0  0  0  0  0
  140.5472  154.4253  134.5151 H   0  0  0  0  0  0  0  0  0  0  0  0
  139.0870  158.6700  136.9440 H   0  0  0  0  0  0  0  0  0  0  0  0
  140.9297  160.9207  134.4912 H   0  0  0  0  0  0  0  0  0  0  0  0
  143.4861  162.0307  133.8332 H   0  0  0  0  0  0  0  0  0  0  0  0
  145.8543  161.4005  133.2628 H   0  0  0  0  0  0  0  0  0  0  0  0
  147.5620  157.5081  134.6730 H   0  0  0  0  0  0  0  0  0  0  0  0
  149.7890  157.4950  133.2820 H   0  0  0  0  0  0  0  0  0  0  0  0
  149.4798  159.0610  131.2311 H   0  0  0  0  0  0  0  0  0  0  0  0
  144.8473  157.1836  133.7458 H   0  0  0  0  0  0  0  0  0  0  0  0
  141.6761  150.1443  133.4668 H   0  0  0  0  0  0  0  0  0  0  0  0
  140.9068  150.9126  132.0369 H   0  0  0  0  0  0  0  0  0  0  0  0
  142.6721  150.5804  132.0369 H   0  0  0  0  0  0  0  0  0  0  0  0
  142.6378  152.8322  135.8002 H   0  0  0  0  0  0  0  0  0  0  0  0
  140.8704  152.9197  135.4915 H   0  0  0  0  0  0  0  0  0  0  0  0
  141.7044  151.3288  135.4915 H   0  0  0  0  0  0  0  0  0  0  0  0
  144.0227  155.1326  132.3993 H   0  0  0  0  0  0  0  0  0  0  0  0
  144.8803  153.9787  131.3224 H   0  0  0  0  0  0  0  0  0  0  0  0
  143.0851  154.0427  131.3224 H   0  0  0  0  0  0  0  0  0  0  0  0
  144.0865  153.1956  135.2190 H   0  0  0  0  0  0  0  0  0  0  0  0
  145.6448  153.4369  134.3587 H   0  0  0  0  0  0  0  0  0  0  0  0
  144.4078  154.7394  134.3587 H   0  0  0  0  0  0  0  0  0  0  0  0
  145.1404  151.2997  133.4768 H   0  0  0  0  0  0  0  0  0  0  0  0
  144.1354  151.1832  131.9925 H   0  0  0  0  0  0  0  0  0  0  0  0
  145.6243  152.1881  131.9925 H   0  0  0  0  0  0  0  0  0  0  0  0
  1  2  1  0
  2  3  1  0
  3  4  1  0
  4  5  2  0
  4  6  1  0
  6  7  1  0
  7  8  1  0
  8  9  1  0
  8 10  2  0
  7 11  2  0
 11 12  1  0
 12 13  2  0
 13 14  1  0
 14 15  2  0
 15 16  1  0
 16 17  2  0
 17 18  1  0
 18 19  2  0
 19 20  1  0
 15 21  1  0
 21 22  2  0
  2 23  1  0
 23 24  1  0
 24 25  1  0
 24 26  1  0
 24 27  1  0
 27 28  1  0
 27 29  1  0
 27 30  1  0
 22  6  1  0
 22 12  1  0
 20 16  1  0
  1 31  1  0
  1 32  1  0
  1 33  1  0
  2 34  1  1
  9 35  1  0
 11 36  1  0
 13 37  1  0
 14 38  1  0
 17 39  1  0
 18 40  1  0
 19 41  1  0
 21 42  1  0
 25 43  1  0
 25 44  1  0
 25 45  1  0
 26 46  1  0
 26 47  1  0
 26 48  1  0
 28 49  1  0
 28 50  1  0
 28 51  1  0
 29 52  1  0
 29 53  1  0
 29 54  1  0
 30 55  1  0
 30 56  1  0
 30 57  1  0
M  CHG  2   9  -1  18   1
M  END
>  <UniqueID>  (38) 
38

>  <SMILES>  (38) 
C[C@H](OC(=O)n1c(C([NH-])=O)cc2ccc(-c3c[nH+]co3)cc21)O[Si](C)(C)C(C)(C)C

>  <Energy>  (38) 
109.95192037364565

>  <Genealogy>  (38) 
CC(OC(=O)n1c(C([NH-])=O)cc2ccc(-c3c[nH+]co3)cc21)O[Si](C)(C)C(C)(C)C (protonated)
C[C@H](OC(=O)n1c(C([NH-])=O)cc2ccc(-c3c[nH+]co3)cc21)O[Si](C)(C)C(C)(C)C (chirality)
C[C@H](OC(=O)n1c(C([NH-])=O)cc2ccc(-c3c[nH+]co3)cc21)O[Si](C)(C)C(C)(C)C (3D coordinates assigned)
C[C@H](OC(=O)n1c(C([NH-])=O)cc2ccc(-c3c[nH+]co3)cc21)O[Si](C)(C)C(C)(C)C (optimized conformer: 109.95192037364565 kcal/mol)

>  <smiles>  (38) 
CC(OC(=O)n1c(C(N)=O)cc2ccc(-c3cnco3)cc21)O[Si](C)(C)C(C)(C)C

>  <score_type>  (38) 
oracle

>  <origin>  (38) 
adg

>  <m_score__min__energy>  (38) 
-8.4499999999999993

>  <m_primary>  (38) 
energy

$$$$
38:0
     RDKit          3D

 35 36  0  0  0  0  0  0  0  0999 V2000
  147.1920  154.5600  133.4350 C   0  0  0  0  0  0  0  0  0  0  0  0
  147.0150  156.0450  133.3310 C   0  0  0  0  0  0  0  0  0  0  0  0
  148.1190  156.8710  133.0030 C   0  0  0  0  0  0  0  0  0  0  0  0
  147.9710  158.2670  132.9290 C   0  0  0  0  0  0  0  0  0  0  0  0
  146.7170  158.8050  133.2020 C   0  0  0  0  0  0  0  0  0  0  0  0
  146.2910  160.1140  133.1950 C   0  0  0  0  0  0  0  0  0  0  0  0
  144.9440  160.0660  133.5470 C   0  0  0  0  0  0  0  0  0  0  0  0
  144.1130  161.2690  133.7610 C   0  0  0  0  0  0  0  0  0  0  0  0
  142.6970  161.2160  133.6080 N   0  0  0  0  0  0  0  0  0  0  0  0
  144.6550  162.3460  134.1260 O   0  0  0  0  0  0  0  0  0  0  0  0
  144.5490  158.7780  133.7490 N   0  0  0  0  0  0  0  0  0  0  0  0
  143.2300  158.2880  134.0370 C   0  0  0  0  0  0  0  0  0  0  0  0
  142.8680  158.1390  135.2340 O   0  0  0  0  0  0  0  0  0  0  0  0
  142.3110  157.8630  132.9310 C   0  0  0  0  0  0  0  0  0  0  0  0
  140.7340  158.6920  133.0660 S   0  0  0  0  0  0  0  0  0  0  0  0
  140.6660  159.4330  134.3720 O   0  0  0  0  0  0  0  0  0  0  0  0
  140.6060  159.6770  131.9380 O   0  0  0  0  0  0  0  0  0  0  0  0
  139.3800  157.5320  132.9820 C   0  0  0  0  0  0  0  0  0  0  0  0
  139.8260  156.1690  133.4000 C   0  0  0  0  0  0  0  0  0  0  0  0
  140.5180  156.0180  134.4420 O   0  0  0  0  0  0  0  0  0  0  0  0
  139.5090  155.0640  132.6200 O   0  0  0  0  0  0  0  0  0  0  0  0
  145.6470  158.0200  133.5460 C   0  0  0  0  0  0  0  0  0  0  0  0
  145.7630  156.6280  133.6210 C   0  0  0  0  0  0  0  0  0  0  0  0
  147.2268  154.2682  134.4950 H   0  0  0  0  0  0  0  0  0  0  0  0
  146.3477  154.0548  132.9431 H   0  0  0  0  0  0  0  0  0  0  0  0
  148.1314  154.2674  132.9431 H   0  0  0  0  0  0  0  0  0  0  0  0
  149.1005  156.4157  132.8046 H   0  0  0  0  0  0  0  0  0  0  0  0
  148.8201  158.9140  132.6635 H   0  0  0  0  0  0  0  0  0  0  0  0
  146.8876  161.0081  132.9611 H   0  0  0  0  0  0  0  0  0  0  0  0
  142.2330  160.3770  133.1950 H   0  0  0  0  0  0  0  0  0  0  0  0
  142.7697  158.1151  131.9635 H   0  0  0  0  0  0  0  0  0  0  0  0
  142.1473  156.7778  133.0048 H   0  0  0  0  0  0  0  0  0  0  0  0
  138.5738  157.8689  133.6503 H   0  0  0  0  0  0  0  0  0  0  0  0
  139.0197  157.4834  131.9438 H   0  0  0  0  0  0  0  0  0  0  0  0
  144.9007  156.0040  133.8988 H   0  0  0  0  0  0  0  0  0  0  0  0
  1  2  1  0
  2  3  2  0
  3  4  1  0
  4  5  2  0
  5  6  1  0
  6  7  2  0
  7  8  1  0
  8  9  1  0
  8 10  2  0
  7 11  1  0
 11 12  1  0
 12 13  2  0
 12 14  1  0
 14 15  1  0
 15 16  2  0
 15 17  2  0
 15 18  1  0
 18 19  1  0
 19 20  2  0
 19 21  1  0
 11 22  1  0
 22 23  2  0
 23  2  1  0
 22  5  1  0
  1 24  1  0
  1 25  1  0
  1 26  1  0
  3 27  1  0
  4 28  1  0
  6 29  1  0
  9 30  1  0
 14 31  1  0
 14 32  1  0
 18 33  1  0
 18 34  1  0
 23 35  1  0
M  CHG  2   9  -1  21  -1
M  END
>  <UniqueID>  (39) 
39

>  <SMILES>  (39) 
Cc1ccc2cc(C([NH-])=O)n(C(=O)CS(=O)(=O)CC(=O)[O-])c2c1

>  <Energy>  (39) 
63.23493203480265

>  <Genealogy>  (39) 
Cc1ccc2cc(C([NH-])=O)n(C(=O)CS(=O)(=O)CC(=O)[O-])c2c1 (protonated)
Cc1ccc2cc(C([NH-])=O)n(C(=O)CS(=O)(=O)CC(=O)[O-])c2c1 (3D coordinates assigned)
Cc1ccc2cc(C([NH-])=O)n(C(=O)CS(=O)(=O)CC(=O)[O-])c2c1 (optimized conformer: 63.23493203480265 kcal/mol)

>  <smiles>  (39) 
Cc1ccc2cc(C(N)=O)n(C(=O)CS(=O)(=O)CC(=O)O)c2c1

>  <score_type>  (39) 
oracle

>  <origin>  (39) 
adg

>  <m_score__min__energy>  (39) 
-6.8499999999999996

>  <m_primary>  (39) 
energy

$$$$
39:0
     RDKit          3D

 35 36  0  0  0  0  0  0  0  0999 V2000
  144.7770  160.4630  133.3880 C   0  0  0  0  0  0  0  0  0  0  0  0
  145.9160  159.4910  133.3090 C   0  0  0  0  0  0  0  0  0  0  0  0
  147.2230  159.9490  133.0070 C   0  0  0  0  0  0  0  0  0  0  0  0
  148.2900  159.0410  132.8830 C   0  0  0  0  0  0  0  0  0  0  0  0
  148.0190  157.6880  133.0640 C   0  0  0  0  0  0  0  0  0  0  0  0
  148.8520  156.5960  132.9810 C   0  0  0  0  0  0  0  0  0  0  0  0
  148.0410  155.4900  133.2300 C   0  0  0  0  0  0  0  0  0  0  0  0
  148.5470  154.0990  133.2790 C   0  0  0  0  0  0  0  0  0  0  0  0
  148.4490  153.3220  134.4700 N   0  0  0  0  0  0  0  0  0  0  0  0
  149.1040  153.6010  132.2650 O   0  0  0  0  0  0  0  0  0  0  0  0
  146.7580  155.8850  133.4600 N   0  0  0  0  0  0  0  0  0  0  0  0
  145.6130  155.0560  133.7090 C   0  0  0  0  0  0  0  0  0  0  0  0
  144.8370  155.3380  134.6610 O   0  0  0  0  0  0  0  0  0  0  0  0
  145.3380  153.8830  132.8570 C   0  0  0  0  0  0  0  0  0  0  0  0
  144.4340  153.9550  131.9810 O   0  0  0  0  0  0  0  0  0  0  0  0
  146.0790  152.6660  133.0240 N   0  0  0  0  0  0  0  0  0  0  0  0
  145.7770  151.4800  132.2200 C   0  0  0  0  0  0  0  0  0  0  0  0
  147.0560  150.7110  131.8780 C   0  0  0  0  0  0  0  0  0  0  0  0
  148.0560  150.9870  132.8210 O   0  0  0  0  0  0  0  0  0  0  0  0
  146.7590  157.2300  133.3530 C   0  0  0  0  0  0  0  0  0  0  0  0
  145.6750  158.1070  133.4630 C   0  0  0  0  0  0  0  0  0  0  0  0
  144.5400  160.6652  134.4430 H   0  0  0  0  0  0  0  0  0  0  0  0
  145.0607  161.4016  132.8895 H   0  0  0  0  0  0  0  0  0  0  0  0
  143.8947  160.0352  132.8895 H   0  0  0  0  0  0  0  0  0  0  0  0
  147.4046  161.0250  132.8683 H   0  0  0  0  0  0  0  0  0  0  0  0
  149.3070  159.3895  132.6502 H   0  0  0  0  0  0  0  0  0  0  0  0
  149.9304  156.5958  132.7640 H   0  0  0  0  0  0  0  0  0  0  0  0
  147.9980  152.3800  134.4620 H   0  0  0  0  0  0  0  0  0  0  0  0
  146.8480  152.6300  133.7290 H   0  0  0  0  0  0  0  0  0  0  0  0
  145.1024  150.8223  132.7878 H   0  0  0  0  0  0  0  0  0  0  0  0
  145.3002  151.8031  131.2828 H   0  0  0  0  0  0  0  0  0  0  0  0
  146.8424  149.6319  131.8807 H   0  0  0  0  0  0  0  0  0  0  0  0
  147.4062  151.0231  130.8830 H   0  0  0  0  0  0  0  0  0  0  0  0
  147.9480  151.9390  133.0810 H   0  0  0  0  0  0  0  0  0  0  0  0
  144.6616  157.7294  133.6641 H   0  0  0  0  0  0  0  0  0  0  0  0
  1  2  1  0
  2  3  2  0
  3  4  1  0
  4  5  2  0
  5  6  1  0
  6  7  2  0
  7  8  1  0
  8  9  1  0
  8 10  2  0
  7 11  1  0
 11 12  1  0
 12 13  2  0
 12 14  1  0
 14 15  2  0
 14 16  1  0
 16 17  1  0
 17 18  1  0
 18 19  1  0
 11 20  1  0
 20 21  2  0
 21  2  1  0
 20  5  1  0
  1 22  1  0
  1 23  1  0
  1 24  1  0
  3 25  1  0
  4 26  1  0
  6 27  1  0
  9 28  1  0
 16 29  1  0
 17 30  1  0
 17 31  1  0
 18 32  1  0
 18 33  1  0
 19 34  1  0
 21 35  1  0
M  CHG  1   9  -1
M  END
>  <UniqueID>  (40) 
40

>  <SMILES>  (40) 
Cc1ccc2cc(C([NH-])=O)n(C(=O)C(=O)NCCO)c2c1

>  <Energy>  (40) 
69.32022376565753

>  <Genealogy>  (40) 
Cc1ccc2cc(C([NH-])=O)n(C(=O)C(=O)NCCO)c2c1 (protonated)
Cc1ccc2cc(C([NH-])=O)n(C(=O)C(=O)NCCO)c2c1 (3D coordinates assigned)
Cc1ccc2cc(C([NH-])=O)n(C(=O)C(=O)NCCO)c2c1 (optimized conformer: 69.32022376565753 kcal/mol)

>  <smiles>  (40) 
Cc1ccc2cc(C(N)=O)n(C(=O)C(=O)NCCO)c2c1

>  <score_type>  (40) 
oracle

>  <origin>  (40) 
adg

>  <m_score__min__energy>  (40) 
-6.5199999999999996

>  <m_primary>  (40) 
energy

$$$$
40:0
     RDKit          3D

 32 33  0  0  0  0  0  0  0  0999 V2000
  148.8190  154.8770  132.8290 C   0  0  0  0  0  0  0  0  0  0  0  0
  148.3110  156.0360  133.5750 N   0  0  2  0  0  0  0  0  0  0  0  0
  147.7500  155.6050  134.8340 C   0  0  0  0  0  0  0  0  0  0  0  0
  146.9120  156.3210  135.4480 O   0  0  0  0  0  0  0  0  0  0  0  0
  148.0860  154.3600  135.3540 O   0  0  0  0  0  0  0  0  0  0  0  0
  147.3320  156.7640  132.7930 C   0  0  0  0  0  0  0  0  0  0  0  0
  146.7100  156.1810  131.8590 O   0  0  0  0  0  0  0  0  0  0  0  0
  147.1010  158.1690  133.0180 N   0  0  0  0  0  0  0  0  0  0  0  0
  147.9480  159.1990  132.7270 C   0  0  0  0  0  0  0  0  0  0  0  0
  149.3200  159.0770  132.1940 C   0  0  0  0  0  0  0  0  0  0  0  0
  150.0070  157.8280  132.1700 N   0  0  0  0  0  0  0  0  0  0  0  0
  149.9210  160.1090  131.7950 O   0  0  0  0  0  0  0  0  0  0  0  0
  147.3330  160.4250  132.9630 C   0  0  0  0  0  0  0  0  0  0  0  0
  146.0680  160.1180  133.4050 C   0  0  0  0  0  0  0  0  0  0  0  0
  145.0100  160.9630  133.7280 C   0  0  0  0  0  0  0  0  0  0  0  0
  143.7800  160.3780  134.0690 C   0  0  0  0  0  0  0  0  0  0  0  0
  143.6260  158.9690  134.0770 C   0  0  0  0  0  0  0  0  0  0  0  0
  142.2800  158.3540  134.3650 C   0  0  0  0  0  0  0  0  0  0  0  0
  141.8910  158.6920  135.6470 F   0  0  0  0  0  0  0  0  0  0  0  0
  142.3400  156.9750  134.2600 F   0  0  0  0  0  0  0  0  0  0  0  0
  141.3310  158.8150  133.4690 F   0  0  0  0  0  0  0  0  0  0  0  0
  144.7170  158.1470  133.7100 C   0  0  0  0  0  0  0  0  0  0  0  0
  145.9460  158.7520  133.4170 C   0  0  0  0  0  0  0  0  0  0  0  0
  149.1572  154.1053  133.5362 H   0  0  0  0  0  0  0  0  0  0  0  0
  148.0175  154.4683  132.1961 H   0  0  0  0  0  0  0  0  0  0  0  0
  149.6627  155.1894  132.1961 H   0  0  0  0  0  0  0  0  0  0  0  0
  149.1300  156.6570  133.7690 H   0  0  0  0  0  0  0  0  0  0  0  0
  149.9780  157.1630  132.9700 H   0  0  0  0  0  0  0  0  0  0  0  0
  147.7668  161.4264  132.8252 H   0  0  0  0  0  0  0  0  0  0  0  0
  145.1338  162.0559  133.7164 H   0  0  0  0  0  0  0  0  0  0  0  0
  142.9267  161.0201  134.3328 H   0  0  0  0  0  0  0  0  0  0  0  0
  144.6026  157.0543  133.6558 H   0  0  0  0  0  0  0  0  0  0  0  0
  1  2  1  0
  2  3  1  0
  3  4  2  0
  3  5  1  0
  2  6  1  0
  6  7  2  0
  6  8  1  0
  8  9  1  0
  9 10  1  0
 10 11  1  0
 10 12  2  0
  9 13  2  0
 13 14  1  0
 14 15  2  0
 15 16  1  0
 16 17  2  0
 17 18  1  0
 18 19  1  0
 18 20  1  0
 18 21  1  0
 17 22  1  0
 22 23  2  0
 23  8  1  0
 23 14  1  0
  1 24  1  0
  1 25  1  0
  1 26  1  0
  2 27  1  1
 11 28  1  0
 13 29  1  0
 15 30  1  0
 16 31  1  0
 22 32  1  0
M  CHG  3   2   1   5  -1  11  -1
M  END
>  <UniqueID>  (41) 
41

>  <SMILES>  (41) 
C[NH+](C(=O)[O-])C(=O)n1c(C([NH-])=O)cc2ccc(C(F)(F)F)cc21

>  <Energy>  (41) 
77.66787371503716

>  <Genealogy>  (41) 
C[NH+](C(=O)[O-])C(=O)n1c(C([NH-])=O)cc2ccc(C(F)(F)F)cc21 (protonated)
C[NH+](C(=O)[O-])C(=O)n1c(C([NH-])=O)cc2ccc(C(F)(F)F)cc21 (3D coordinates assigned)
C[NH+](C(=O)[O-])C(=O)n1c(C([NH-])=O)cc2ccc(C(F)(F)F)cc21 (optimized conformer: 77.66787371503716 kcal/mol)

>  <smiles>  (41) 
CN(C(=O)O)C(=O)n1c(C(N)=O)cc2ccc(C(F)(F)F)cc21

>  <score_type>  (41) 
oracle

>  <origin>  (41) 
adg

>  <m_score__min__energy>  (41) 
-5.3600000000000003

>  <m_primary>  (41) 
energy

$$$$
41:0
     RDKit          3D

 36 37  0  0  0  0  0  0  0  0999 V2000
  146.8600  153.7110  133.3330 C   0  0  0  0  0  0  0  0  0  0  0  0
  147.8840  154.7090  132.9980 N   0  0  0  0  0  0  0  0  0  0  0  0
  149.2180  154.2470  132.5920 C   0  0  0  0  0  0  0  0  0  0  0  0
  147.5860  156.1270  133.0680 C   0  0  0  0  0  0  0  0  0  0  0  0
  148.6180  157.0970  132.9090 C   0  0  0  0  0  0  0  0  0  0  0  0
  148.3410  158.4720  132.9850 C   0  0  0  0  0  0  0  0  0  0  0  0
  147.0270  158.8620  133.2110 C   0  0  0  0  0  0  0  0  0  0  0  0
  146.4870  160.1200  133.3560 C   0  0  0  0  0  0  0  0  0  0  0  0
  145.1280  159.9150  133.5790 C   0  0  0  0  0  0  0  0  0  0  0  0
  144.1490  161.0130  133.7290 C   0  0  0  0  0  0  0  0  0  0  0  0
  142.7720  160.8180  133.4190 N   0  0  0  0  0  0  0  0  0  0  0  0
  144.5400  162.1510  134.1030 O   0  0  0  0  0  0  0  0  0  0  0  0
  144.8410  158.5840  133.5750 N   0  0  0  0  0  0  0  0  0  0  0  0
  143.5760  157.9550  133.8340 C   0  0  0  0  0  0  0  0  0  0  0  0
  143.4770  157.1150  134.7680 O   0  0  0  0  0  0  0  0  0  0  0  0
  142.4350  158.2790  133.0280 N   0  0  0  0  0  0  0  0  0  0  0  0
  141.1310  157.6530  133.2290 C   0  0  0  0  0  0  0  0  0  0  0  0
  140.0510  158.5180  132.6620 C   0  0  0  0  0  0  0  0  0  0  0  0
  138.8480  158.1550  132.7340 O   0  0  0  0  0  0  0  0  0  0  0  0
  140.3740  159.7080  132.0230 O   0  0  0  0  0  0  0  0  0  0  0  0
  146.0130  157.9520  133.3480 C   0  0  0  0  0  0  0  0  0  0  0  0
  146.2600  156.5770  133.3000 C   0  0  0  0  0  0  0  0  0  0  0  0
  146.7738  153.6269  134.4264 H   0  0  0  0  0  0  0  0  0  0  0  0
  145.8928  154.0225  132.9118 H   0  0  0  0  0  0  0  0  0  0  0  0
  147.1465  152.7361  132.9118 H   0  0  0  0  0  0  0  0  0  0  0  0
  149.8218  154.0379  133.4873 H   0  0  0  0  0  0  0  0  0  0  0  0
  149.1216  153.3299  131.9923 H   0  0  0  0  0  0  0  0  0  0  0  0
  149.7095  155.0273  131.9923 H   0  0  0  0  0  0  0  0  0  0  0  0
  149.6495  156.7630  132.7235 H   0  0  0  0  0  0  0  0  0  0  0  0
  149.1410  159.2180  132.8690 H   0  0  0  0  0  0  0  0  0  0  0  0
  147.0167  161.0828  133.3063 H   0  0  0  0  0  0  0  0  0  0  0  0
  142.4810  160.3850  132.5140 H   0  0  0  0  0  0  0  0  0  0  0  0
  142.5320  159.0000  132.2790 H   0  0  0  0  0  0  0  0  0  0  0  0
  141.1156  156.6752  132.7253 H   0  0  0  0  0  0  0  0  0  0  0  0
  140.9576  157.5222  134.3073 H   0  0  0  0  0  0  0  0  0  0  0  0
  145.4409  155.8562  133.4396 H   0  0  0  0  0  0  0  0  0  0  0  0
  1  2  1  0
  2  3  1  0
  2  4  1  0
  4  5  2  0
  5  6  1  0
  6  7  2  0
  7  8  1  0
  8  9  2  0
  9 10  1  0
 10 11  1  0
 10 12  2  0
  9 13  1  0
 13 14  1  0
 14 15  2  0
 14 16  1  0
 16 17  1  0
 17 18  1  0
 18 19  2  0
 18 20  1  0
 13 21  1  0
 21 22  2  0
 22  4  1  0
 21  7  1  0
  1 23  1  0
  1 24  1  0
  1 25  1  0
  3 26  1  0
  3 27  1  0
  3 28  1  0
  5 29  1  0
  6 30  1  0
  8 31  1  0
 11 32  1  0
 16 33  1  0
 17 34  1  0
 17 35  1  0
 22 36  1  0
M  CHG  2  11  -1  20  -1
M  END
>  <UniqueID>  (42) 
42

>  <SMILES>  (42) 
CN(C)c1ccc2cc(C([NH-])=O)n(C(=O)NCC(=O)[O-])c2c1

>  <Energy>  (42) 
73.71805182125009

>  <Genealogy>  (42) 
CN(C)c1ccc2cc(C([NH-])=O)n(C(=O)NCC(=O)[O-])c2c1 (protonated)
CN(C)c1ccc2cc(C([NH-])=O)n(C(=O)NCC(=O)[O-])c2c1 (3D coordinates assigned)
CN(C)c1ccc2cc(C([NH-])=O)n(C(=O)NCC(=O)[O-])c2c1 (optimized conformer: 73.71805182125009 kcal/mol)

>  <smiles>  (42) 
CN(C)c1ccc2cc(C(N)=O)n(C(=O)NCC(=O)O)c2c1

>  <score_type>  (42) 
oracle

>  <origin>  (42) 
adg

>  <m_score__min__energy>  (42) 
-6.3099999999999996

>  <m_primary>  (42) 
energy

$$$$
42:0
     RDKit          3D

 25 26  0  0  0  0  0  0  0  0999 V2000
  138.3570  158.0210  131.3390 N   0  0  0  0  0  0  0  0  0  0  0  0
  139.5590  158.6740  131.7510 C   0  0  0  0  0  0  0  0  0  0  0  0
  140.2120  159.3460  130.9090 O   0  0  0  0  0  0  0  0  0  0  0  0
  140.0570  158.5390  133.1380 C   0  0  0  0  0  0  0  0  0  0  0  0
  140.4320  159.6160  133.9400 C   0  0  0  0  0  0  0  0  0  0  0  0
  140.7160  159.0710  135.1720 C   0  0  0  0  0  0  0  0  0  0  0  0
  141.1300  159.6860  136.3490 C   0  0  0  0  0  0  0  0  0  0  0  0
  141.3600  158.8730  137.4720 C   0  0  0  0  0  0  0  0  0  0  0  0
  141.1940  157.4650  137.3950 C   0  0  0  0  0  0  0  0  0  0  0  0
  141.4030  156.6090  138.6170 C   0  0  0  0  0  0  0  0  0  0  0  0
  140.2460  155.8980  138.8780 F   0  0  0  0  0  0  0  0  0  0  0  0
  142.4440  155.7180  138.4180 F   0  0  0  0  0  0  0  0  0  0  0  0
  141.7090  157.3930  139.7160 F   0  0  0  0  0  0  0  0  0  0  0  0
  140.7480  156.8820  136.1850 C   0  0  0  0  0  0  0  0  0  0  0  0
  140.5150  157.7180  135.0890 C   0  0  0  0  0  0  0  0  0  0  0  0
  140.1120  157.3760  133.8460 N   0  0  0  0  0  0  0  0  0  0  0  0
  139.8680  156.0430  133.3720 C   0  0  0  0  0  0  0  0  0  0  0  0
  138.7530  155.7450  132.8680 O   0  0  0  0  0  0  0  0  0  0  0  0
  141.1210  154.7570  133.5580 S   0  0  0  0  0  0  0  0  0  0  0  0
  137.7620  157.5000  132.0200 H   0  0  0  0  0  0  0  0  0  0  0  0
  138.0360  158.0920  130.3480 H   0  0  0  0  0  0  0  0  0  0  0  0
  140.4889  160.6756  133.6502 H   0  0  0  0  0  0  0  0  0  0  0  0
  141.2730  160.7755  136.3992 H   0  0  0  0  0  0  0  0  0  0  0  0
  141.6722  159.3327  138.4214 H   0  0  0  0  0  0  0  0  0  0  0  0
  140.5884  155.7963  136.1087 H   0  0  0  0  0  0  0  0  0  0  0  0
  1  2  1  0
  2  3  2  0
  2  4  1  0
  4  5  2  0
  5  6  1  0
  6  7  2  0
  7  8  1  0
  8  9  2  0
  9 10  1  0
 10 11  1  0
 10 12  1  0
 10 13  1  0
  9 14  1  0
 14 15  2  0
 15 16  1  0
 16 17  1  0
 17 18  2  0
 17 19  1  0
 16  4  1  0
 15  6  1  0
  1 20  1  0
  1 21  1  0
  5 22  1  0
  7 23  1  0
  8 24  1  0
 14 25  1  0
M  CHG  1  19  -1
M  END
>  <UniqueID>  (43) 
43

>  <SMILES>  (43) 
NC(=O)c1cc2ccc(C(F)(F)F)cc2n1C(=O)[S-]

>  <Energy>  (43) 
66.22998047585223

>  <Genealogy>  (43) 
NC(=O)c1cc2ccc(C(F)(F)F)cc2n1C(=O)[S-] (protonated)
NC(=O)c1cc2ccc(C(F)(F)F)cc2n1C(=O)[S-] (3D coordinates assigned)
NC(=O)c1cc2ccc(C(F)(F)F)cc2n1C(=O)[S-] (optimized conformer: 66.22998047585223 kcal/mol)

>  <smiles>  (43) 
NC(=O)c1cc2ccc(C(F)(F)F)cc2n1C(=O)S

>  <score_type>  (43) 
oracle

>  <origin>  (43) 
adg

>  <m_score__min__energy>  (43) 
-5.5599999999999996

>  <m_primary>  (43) 
energy

$$$$
43:0
     RDKit          3D

 40 41  0  0  0  0  0  0  0  0999 V2000
  143.8130  155.2160  134.5170 C   0  0  0  0  0  0  0  0  0  0  0  0
  143.7180  156.7160  134.7640 C   0  0  0  0  0  0  0  0  0  0  0  0
  144.0410  157.4810  133.5140 C   0  0  0  0  0  0  0  0  0  0  0  0
  143.1670  157.5980  132.6130 O   0  0  0  0  0  0  0  0  0  0  0  0
  145.3200  158.1100  133.3510 N   0  0  0  0  0  0  0  0  0  0  0  0
  145.5960  159.4450  133.3170 C   0  0  0  0  0  0  0  0  0  0  0  0
  144.6260  160.5380  133.5410 C   0  0  0  0  0  0  0  0  0  0  0  0
  143.2280  160.3340  133.3580 N   0  0  0  0  0  0  0  0  0  0  0  0
  145.0370  161.6670  133.9250 O   0  0  0  0  0  0  0  0  0  0  0  0
  146.9530  159.6540  133.0800 C   0  0  0  0  0  0  0  0  0  0  0  0
  147.5040  158.3970  132.9660 C   0  0  0  0  0  0  0  0  0  0  0  0
  148.8170  158.0120  132.7080 C   0  0  0  0  0  0  0  0  0  0  0  0
  149.0910  156.6360  132.6080 C   0  0  0  0  0  0  0  0  0  0  0  0
  148.0540  155.6860  132.7580 C   0  0  0  0  0  0  0  0  0  0  0  0
  148.3440  154.2830  132.6430 C   0  0  0  0  0  0  0  0  0  0  0  0
  148.5820  153.1050  132.5470 C   0  0  0  0  0  0  0  0  0  0  0  0
  148.8780  151.6620  132.4330 C   0  0  2  0  0  0  0  0  0  0  0  0
  149.6360  151.4110  131.1230 C   0  0  0  0  0  0  0  0  0  0  0  0
  147.6700  150.9400  132.3850 O   0  0  0  0  0  0  0  0  0  0  0  0
  149.7200  151.1930  133.6430 C   0  0  0  0  0  0  0  0  0  0  0  0
  149.2330  149.9870  134.1730 O   0  0  0  0  0  0  0  0  0  0  0  0
  146.7350  156.1100  133.0160 C   0  0  0  0  0  0  0  0  0  0  0  0
  146.4950  157.4830  133.1300 C   0  0  0  0  0  0  0  0  0  0  0  0
  143.8465  154.6871  135.4809 H   0  0  0  0  0  0  0  0  0  0  0  0
  142.9342  154.8821  133.9459 H   0  0  0  0  0  0  0  0  0  0  0  0
  144.7269  154.9956  133.9459 H   0  0  0  0  0  0  0  0  0  0  0  0
  142.6960  156.9649  135.0858 H   0  0  0  0  0  0  0  0  0  0  0  0
  144.4419  156.9924  135.5447 H   0  0  0  0  0  0  0  0  0  0  0  0
  142.8690  159.7350  132.5820 H   0  0  0  0  0  0  0  0  0  0  0  0
  147.4743  160.6194  133.0007 H   0  0  0  0  0  0  0  0  0  0  0  0
  149.6144  158.7599  132.5863 H   0  0  0  0  0  0  0  0  0  0  0  0
  150.1187  156.2965  132.4118 H   0  0  0  0  0  0  0  0  0  0  0  0
  150.6578  151.0726  131.3497 H   0  0  0  0  0  0  0  0  0  0  0  0
  149.1145  150.6376  130.5400 H   0  0  0  0  0  0  0  0  0  0  0  0
  149.6792  152.3428  130.5400 H   0  0  0  0  0  0  0  0  0  0  0  0
  147.3900  150.7470  133.3180 H   0  0  0  0  0  0  0  0  0  0  0  0
  150.7608  151.0463  133.3187 H   0  0  0  0  0  0  0  0  0  0  0  0
  149.6583  151.9635  134.4256 H   0  0  0  0  0  0  0  0  0  0  0  0
  148.2520  150.0960  134.2850 H   0  0  0  0  0  0  0  0  0  0  0  0
  145.9177  155.3819  133.1246 H   0  0  0  0  0  0  0  0  0  0  0  0
  1  2  1  0
  2  3  1  0
  3  4  2  0
  3  5  1  0
  5  6  1  0
  6  7  1  0
  7  8  1  0
  7  9  2  0
  6 10  2  0
 10 11  1  0
 11 12  2  0
 12 13  1  0
 13 14  2  0
 14 15  1  0
 15 16  3  0
 17 16  1  1
 17 18  1  0
 17 19  1  0
 17 20  1  0
 20 21  1  0
 14 22  1  0
 22 23  2  0
 23  5  1  0
 23 11  1  0
  1 24  1  0
  1 25  1  0
  1 26  1  0
  2 27  1  0
  2 28  1  0
  8 29  1  0
 10 30  1  0
 12 31  1  0
 13 32  1  0
 18 33  1  0
 18 34  1  0
 18 35  1  0
 19 36  1  0
 20 37  1  0
 20 38  1  0
 21 39  1  0
 22 40  1  0
M  CHG  1   8  -1
M  END
>  <UniqueID>  (44) 
44

>  <SMILES>  (44) 
CCC(=O)n1c(C([NH-])=O)cc2ccc(C#C[C@](C)(O)CO)cc21

>  <Energy>  (44) 
69.88249042269629

>  <Genealogy>  (44) 
CCC(=O)n1c(C([NH-])=O)cc2ccc(C#C[C@](C)(O)CO)cc21 (protonated)
CCC(=O)n1c(C([NH-])=O)cc2ccc(C#C[C@](C)(O)CO)cc21 (3D coordinates assigned)
CCC(=O)n1c(C([NH-])=O)cc2ccc(C#C[C@](C)(O)CO)cc21 (optimized conformer: 69.88249042269629 kcal/mol)

>  <smiles>  (44) 
CCC(=O)n1c(C(N)=O)cc2ccc(C#C[C@](C)(O)CO)cc21

>  <score_type>  (44) 
oracle

>  <origin>  (44) 
adg

>  <m_score__min__energy>  (44) 
-7.5999999999999996

>  <m_primary>  (44) 
energy

$$$$
44:0
     RDKit          3D

 57 60  0  0  0  0  0  0  0  0999 V2000
  142.8350  152.6170  134.8480 C   0  0  0  0  0  0  0  0  0  0  0  0
  142.0490  153.3380  133.7430 C   0  0  0  0  0  0  0  0  0  0  0  0
  143.0220  153.7330  132.6210 C   0  0  0  0  0  0  0  0  0  0  0  0
  140.9590  152.3890  133.2110 C   0  0  0  0  0  0  0  0  0  0  0  0
  141.4610  154.5100  134.3310 O   0  0  0  0  0  0  0  0  0  0  0  0
  140.6620  155.4620  133.6770 C   0  0  0  0  0  0  0  0  0  0  0  0
  140.0750  155.1730  132.6010 O   0  0  0  0  0  0  0  0  0  0  0  0
  140.5210  156.7750  134.2480 N   0  0  0  0  0  0  0  0  0  0  0  0
  141.2300  157.0770  135.5010 C   0  0  0  0  0  0  0  0  0  0  0  0
  141.1010  158.5560  135.8860 C   0  0  0  0  0  0  0  0  0  0  0  0
  141.2930  159.4760  134.6660 C   0  0  0  0  0  0  0  0  0  0  0  0
  142.7520  159.4950  134.2200 C   0  0  0  0  0  0  0  0  0  0  0  0
  143.3690  160.7390  133.9290 C   0  0  0  0  0  0  0  0  0  0  0  0
  144.7190  160.8060  133.5510 C   0  0  0  0  0  0  0  0  0  0  0  0
  145.4350  159.6150  133.4780 C   0  0  0  0  0  0  0  0  0  0  0  0
  146.7400  159.3880  133.1120 C   0  0  0  0  0  0  0  0  0  0  0  0
  146.9190  158.0090  133.2080 C   0  0  0  0  0  0  0  0  0  0  0  0
  148.1620  157.3330  132.7880 C   0  0  0  0  0  0  0  0  0  0  0  0
  149.0860  157.9710  131.9070 N   0  0  0  0  0  0  0  0  0  0  0  0
  148.3780  156.1470  133.1580 O   0  0  0  0  0  0  0  0  0  0  0  0
  145.7650  157.4050  133.6140 N   0  0  0  0  0  0  0  0  0  0  0  0
  145.4710  155.9990  133.6560 C   0  0  0  0  0  0  0  0  0  0  0  0
  145.4490  155.3380  132.5810 O   0  0  0  0  0  0  0  0  0  0  0  0
  145.1560  155.3620  134.8980 N   0  0  0  0  0  0  0  0  0  0  0  0
  146.0750  154.5880  135.6790 C   0  0  0  0  0  0  0  0  0  0  0  0
  145.7590  153.3800  136.1940 N   0  0  0  0  0  0  0  0  0  0  0  0
  146.8330  152.9980  136.8180 O   0  0  0  0  0  0  0  0  0  0  0  0
  147.7560  153.9180  136.6890 C   0  0  0  0  0  0  0  0  0  0  0  0
  148.9090  153.8220  137.1800 O   0  0  0  0  0  0  0  0  0  0  0  0
  147.3390  154.9760  135.9640 N   0  0  0  0  0  0  0  0  0  0  0  0
  144.8670  158.4040  133.7680 C   0  0  0  0  0  0  0  0  0  0  0  0
  143.5280  158.3080  134.1580 C   0  0  0  0  0  0  0  0  0  0  0  0
  140.2960  159.1420  133.5180 C   0  0  0  0  0  0  0  0  0  0  0  0
  139.6100  157.7700  133.6610 C   0  0  0  0  0  0  0  0  0  0  0  0
  142.4728  152.9493  135.8321 H   0  0  0  0  0  0  0  0  0  0  0  0
  142.6905  151.5308  134.7517 H   0  0  0  0  0  0  0  0  0  0  0  0
  143.9047  152.8545  134.7517 H   0  0  0  0  0  0  0  0  0  0  0  0
  143.9557  154.1121  133.0620 H   0  0  0  0  0  0  0  0  0  0  0  0
  143.2412  152.8527  131.9990 H   0  0  0  0  0  0  0  0  0  0  0  0
  142.5655  154.5170  131.9990 H   0  0  0  0  0  0  0  0  0  0  0  0
  140.4293  151.9278  134.0576 H   0  0  0  0  0  0  0  0  0  0  0  0
  140.2448  152.9581  132.5977 H   0  0  0  0  0  0  0  0  0  0  0  0
  141.4243  151.6033  132.5977 H   0  0  0  0  0  0  0  0  0  0  0  0
  140.8059  156.4608  136.3075 H   0  0  0  0  0  0  0  0  0  0  0  0
  142.2969  156.8541  135.3525 H   0  0  0  0  0  0  0  0  0  0  0  0
  140.1009  158.7290  136.3101 H   0  0  0  0  0  0  0  0  0  0  0  0
  141.8845  158.7906  136.6216 H   0  0  0  0  0  0  0  0  0  0  0  0
  141.0473  160.5038  134.9714 H   0  0  0  0  0  0  0  0  0  0  0  0
  142.7802  161.6654  134.0008 H   0  0  0  0  0  0  0  0  0  0  0  0
  145.1961  161.7698  133.3197 H   0  0  0  0  0  0  0  0  0  0  0  0
  147.4861  160.1367  132.8075 H   0  0  0  0  0  0  0  0  0  0  0  0
  149.5160  157.4550  131.1090 H   0  0  0  0  0  0  0  0  0  0  0  0
  143.0852  157.3335  134.4114 H   0  0  0  0  0  0  0  0  0  0  0  0
  139.5165  159.9180  133.5006 H   0  0  0  0  0  0  0  0  0  0  0  0
  140.8824  159.1084  132.5879 H   0  0  0  0  0  0  0  0  0  0  0  0
  138.7287  157.8761  134.3107 H   0  0  0  0  0  0  0  0  0  0  0  0
  139.3159  157.4230  132.6594 H   0  0  0  0  0  0  0  0  0  0  0  0
  1  2  1  0
  2  3  1  0
  2  4  1  0
  2  5  1  0
  5  6  1  0
  6  7  2  0
  6  8  1  0
  8  9  1  0
  9 10  1  0
 10 11  1  0
 11 12  1  0
 12 13  2  0
 13 14  1  0
 14 15  2  0
 15 16  1  0
 16 17  2  0
 17 18  1  0
 18 19  1  0
 18 20  2  0
 17 21  1  0
 21 22  1  0
 22 23  2  0
 22 24  1  0
 24 25  1  0
 25 26  2  0
 26 27  1  0
 27 28  1  0
 28 29  2  0
 28 30  1  0
 21 31  1  0
 31 32  2  0
 11 33  1  0
 33 34  1  0
 34  8  1  0
 32 12  1  0
 31 15  1  0
 30 25  1  0
  1 35  1  0
  1 36  1  0
  1 37  1  0
  3 38  1  0
  3 39  1  0
  3 40  1  0
  4 41  1  0
  4 42  1  0
  4 43  1  0
  9 44  1  0
  9 45  1  0
 10 46  1  0
 10 47  1  0
 11 48  1  0
 13 49  1  0
 14 50  1  0
 16 51  1  0
 19 52  1  0
 32 53  1  0
 33 54  1  0
 33 55  1  0
 34 56  1  0
 34 57  1  0
M  CHG  3  19  -1  24  -1  30  -1
M  END
>  <UniqueID>  (45) 
45

>  <SMILES>  (45) 
CC(C)(C)OC(=O)N1CCC(c2ccc3cc(C([NH-])=O)n(C(=O)[N-]c4noc(=O)[n-]4)c3c2)CC1

>  <Energy>  (45) 
133.92959232984802

>  <Genealogy>  (45) 
CC(C)(C)OC(=O)N1CCC(c2ccc3cc(C([NH-])=O)n(C(=O)[N-]c4noc(=O)[n-]4)c3c2)CC1 (protonated)
CC(C)(C)OC(=O)N1CCC(c2ccc3cc(C([NH-])=O)n(C(=O)[N-]c4noc(=O)[n-]4)c3c2)CC1 (3D coordinates assigned)
CC(C)(C)OC(=O)N1CCC(c2ccc3cc(C([NH-])=O)n(C(=O)[N-]c4noc(=O)[n-]4)c3c2)CC1 (nonaromatic ring conformer: 133.92959232984802 kcal/mol)

>  <smiles>  (45) 
CC(C)(C)OC(=O)N1CCC(c2ccc3cc(C(N)=O)n(C(=O)Nc4noc(=O)[nH]4)c3c2)CC1

>  <score_type>  (45) 
oracle

>  <origin>  (45) 
adg

>  <m_score__min__energy>  (45) 
-9.6899999999999995

>  <m_primary>  (45) 
energy

$$$$
45:0
     RDKit          3D

 44 46  0  0  0  0  0  0  0  0999 V2000
  145.2610  155.2850  133.5200 C   0  0  0  0  0  0  0  0  0  0  0  0
  144.0570  155.5460  134.3140 N   0  0  0  0  0  0  0  0  0  0  0  0
  143.9290  154.9790  135.6660 C   0  0  0  0  0  0  0  0  0  0  0  0
  142.5570  154.2990  135.8410 C   0  0  1  0  0  0  0  0  0  0  0  0
  141.5410  155.2640  135.9660 O   0  0  0  0  0  0  0  0  0  0  0  0
  142.2400  153.3400  134.6810 C   0  0  0  0  0  0  0  0  0  0  0  0
  141.0310  153.6940  134.0620 O   0  0  0  0  0  0  0  0  0  0  0  0
  142.9890  156.3200  133.7320 C   0  0  0  0  0  0  0  0  0  0  0  0
  142.1410  155.7620  132.9820 O   0  0  0  0  0  0  0  0  0  0  0  0
  142.8570  157.7240  134.0060 N   0  0  0  0  0  0  0  0  0  0  0  0
  141.7620  158.3830  134.4770 C   0  0  0  0  0  0  0  0  0  0  0  0
  140.4750  157.7580  134.8470 C   0  0  0  0  0  0  0  0  0  0  0  0
  139.9740  156.6600  134.0870 N   0  0  0  0  0  0  0  0  0  0  0  0
  139.8050  158.1930  135.8210 O   0  0  0  0  0  0  0  0  0  0  0  0
  142.0360  159.7440  134.6090 C   0  0  0  0  0  0  0  0  0  0  0  0
  143.3490  159.8910  134.2160 C   0  0  0  0  0  0  0  0  0  0  0  0
  144.1420  161.0300  134.1440 C   0  0  0  0  0  0  0  0  0  0  0  0
  145.4660  160.8850  133.6910 C   0  0  0  0  0  0  0  0  0  0  0  0
  145.9690  159.6090  133.3170 C   0  0  0  0  0  0  0  0  0  0  0  0
  147.3580  159.4440  132.8320 C   0  0  0  0  0  0  0  0  0  0  0  0
  148.4660  159.0310  133.5510 C   0  0  0  0  0  0  0  0  0  0  0  0
  149.5180  159.0250  132.7170 N   0  0  0  0  0  0  0  0  0  0  0  0
  149.0300  159.4280  131.5290 C   0  0  0  0  0  0  0  0  0  0  0  0
  147.7410  159.6790  131.5960 O   0  0  0  0  0  0  0  0  0  0  0  0
  145.1290  158.4770  133.4090 C   0  0  0  0  0  0  0  0  0  0  0  0
  143.8200  158.6540  133.8650 C   0  0  0  0  0  0  0  0  0  0  0  0
  146.1113  155.1007  134.1931 H   0  0  0  0  0  0  0  0  0  0  0  0
  145.0974  154.4015  132.8855 H   0  0  0  0  0  0  0  0  0  0  0  0
  145.4780  156.1570  132.8855 H   0  0  0  0  0  0  0  0  0  0  0  0
  144.7239  154.2350  135.8228 H   0  0  0  0  0  0  0  0  0  0  0  0
  144.0184  155.7920  136.4016 H   0  0  0  0  0  0  0  0  0  0  0  0
  142.6022  153.7022  136.7639 H   0  0  0  0  0  0  0  0  0  0  0  0
  141.3280  155.5950  135.0540 H   0  0  0  0  0  0  0  0  0  0  0  0
  143.0523  153.3874  133.9408 H   0  0  0  0  0  0  0  0  0  0  0  0
  142.1476  152.3193  135.0806 H   0  0  0  0  0  0  0  0  0  0  0  0
  141.0340  154.6810  133.9630 H   0  0  0  0  0  0  0  0  0  0  0  0
  140.3630  155.7000  134.2120 H   0  0  0  0  0  0  0  0  0  0  0  0
  141.3504  160.5323  134.9533 H   0  0  0  0  0  0  0  0  0  0  0  0
  143.7464  162.0151  134.4325 H   0  0  0  0  0  0  0  0  0  0  0  0
  146.1187  161.7680  133.6255 H   0  0  0  0  0  0  0  0  0  0  0  0
  148.4819  158.7566  134.6161 H   0  0  0  0  0  0  0  0  0  0  0  0
  150.5040  158.7640  132.9400 H   0  0  0  0  0  0  0  0  0  0  0  0
  149.6342  159.5341  130.6160 H   0  0  0  0  0  0  0  0  0  0  0  0
  145.4968  157.4791  133.1281 H   0  0  0  0  0  0  0  0  0  0  0  0
  1  2  1  0
  2  3  1  0
  3  4  1  0
  4  5  1  0
  4  6  1  0
  6  7  1  0
  2  8  1  0
  8  9  2  0
  8 10  1  0
 10 11  1  0
 11 12  1  0
 12 13  1  0
 12 14  2  0
 11 15  2  0
 15 16  1  0
 16 17  2  0
 17 18  1  0
 18 19  2  0
 19 20  1  0
 20 21  2  0
 21 22  1  0
 22 23  2  0
 23 24  1  0
 19 25  1  0
 25 26  2  0
 26 10  1  0
 26 16  1  0
 24 20  1  0
  1 27  1  0
  1 28  1  0
  1 29  1  0
  3 30  1  0
  3 31  1  0
  4 32  1  1
  5 33  1  0
  6 34  1  0
  6 35  1  0
  7 36  1  0
 13 37  1  0
 15 38  1  0
 17 39  1  0
 18 40  1  0
 21 41  1  0
 22 42  1  0
 23 43  1  0
 25 44  1  0
M  CHG  2  13  -1  22   1
M  END
>  <UniqueID>  (46) 
46

>  <SMILES>  (46) 
CN(C[C@@H](O)CO)C(=O)n1c(C([NH-])=O)cc2ccc(-c3c[nH+]co3)cc21

>  <Energy>  (46) 
111.32393215082631

>  <Genealogy>  (46) 
CN(C[C@@H](O)CO)C(=O)n1c(C([NH-])=O)cc2ccc(-c3c[nH+]co3)cc21 (protonated)
CN(C[C@@H](O)CO)C(=O)n1c(C([NH-])=O)cc2ccc(-c3c[nH+]co3)cc21 (3D coordinates assigned)
CN(C[C@@H](O)CO)C(=O)n1c(C([NH-])=O)cc2ccc(-c3c[nH+]co3)cc21 (optimized conformer: 111.32393215082631 kcal/mol)

>  <smiles>  (46) 
CN(C[C@@H](O)CO)C(=O)n1c(C(N)=O)cc2ccc(-c3cnco3)cc21

>  <score_type>  (46) 
oracle

>  <origin>  (46) 
adg

>  <m_score__min__energy>  (46) 
-6.0899999999999999

>  <m_primary>  (46) 
energy

$$$$
46:0
     RDKit          3D

 46 47  0  0  0  0  0  0  0  0999 V2000
  145.0110  155.0880  132.5870 C   0  0  0  0  0  0  0  0  0  0  0  0
  146.1450  155.7850  132.5980 C   0  0  0  0  0  0  0  0  0  0  0  0
  146.4330  156.8290  133.6000 C   0  0  0  0  0  0  0  0  0  0  0  0
  147.1590  156.5410  134.5880 O   0  0  0  0  0  0  0  0  0  0  0  0
  145.9150  158.1650  133.4720 N   0  0  0  0  0  0  0  0  0  0  0  0
  146.6260  159.3080  133.2650 C   0  0  0  0  0  0  0  0  0  0  0  0
  148.0710  159.3840  132.9720 C   0  0  0  0  0  0  0  0  0  0  0  0
  149.0220  158.6160  133.7120 N   0  0  0  0  0  0  0  0  0  0  0  0
  148.4710  160.1080  132.0220 O   0  0  0  0  0  0  0  0  0  0  0  0
  145.7960  160.4230  133.3650 C   0  0  0  0  0  0  0  0  0  0  0  0
  144.5450  159.9220  133.6410 C   0  0  0  0  0  0  0  0  0  0  0  0
  143.3460  160.5840  133.8740 C   0  0  0  0  0  0  0  0  0  0  0  0
  142.2120  159.8140  134.1850 C   0  0  0  0  0  0  0  0  0  0  0  0
  142.2870  158.3920  134.2610 C   0  0  0  0  0  0  0  0  0  0  0  0
  141.0770  157.5200  134.6340 C   0  0  0  0  0  0  0  0  0  0  0  0
  140.1010  158.2170  135.6070 C   0  0  0  0  0  0  0  0  0  0  0  0
  141.5990  156.2290  135.3020 C   0  0  0  0  0  0  0  0  0  0  0  0
  140.2870  157.2000  133.3760 C   0  0  0  0  0  0  0  0  0  0  0  0
  139.6800  156.0990  133.2560 O   0  0  0  0  0  0  0  0  0  0  0  0
  140.2050  158.1650  132.3630 O   0  0  0  0  0  0  0  0  0  0  0  0
  139.0050  158.8630  132.0360 C   0  0  2  0  0  0  0  0  0  0  0  0
  138.4020  158.2560  130.7730 C   0  0  0  0  0  0  0  0  0  0  0  0
  139.2920  160.3190  131.8160 C   0  0  0  0  0  0  0  0  0  0  0  0
  138.7240  160.9410  130.8800 O   0  0  0  0  0  0  0  0  0  0  0  0
  140.2160  160.9780  132.6180 O   0  0  0  0  0  0  0  0  0  0  0  0
  143.5460  157.7700  134.0520 C   0  0  0  0  0  0  0  0  0  0  0  0
  144.6460  158.5600  133.7130 C   0  0  0  0  0  0  0  0  0  0  0  0
  144.8451  154.3197  131.8175 H   0  0  0  0  0  0  0  0  0  0  0  0
  144.2398  155.2803  133.3475 H   0  0  0  0  0  0  0  0  0  0  0  0
  146.9001  155.5735  131.8266 H   0  0  0  0  0  0  0  0  0  0  0  0
  150.0430  158.7300  133.5270 H   0  0  0  0  0  0  0  0  0  0  0  0
  148.7180  157.8620  134.3670 H   0  0  0  0  0  0  0  0  0  0  0  0
  146.0807  161.4791  133.2481 H   0  0  0  0  0  0  0  0  0  0  0  0
  143.2858  161.6809  133.8166 H   0  0  0  0  0  0  0  0  0  0  0  0
  141.2515  160.3162  134.3727 H   0  0  0  0  0  0  0  0  0  0  0  0
  140.4010  158.0028  136.6434 H   0  0  0  0  0  0  0  0  0  0  0  0
  140.1254  159.3032  135.4353 H   0  0  0  0  0  0  0  0  0  0  0  0
  139.0814  157.8414  135.4353 H   0  0  0  0  0  0  0  0  0  0  0  0
  141.5548  156.3384  136.3957 H   0  0  0  0  0  0  0  0  0  0  0  0
  140.9743  155.3779  134.9931 H   0  0  0  0  0  0  0  0  0  0  0  0
  142.6397  156.0513  134.9931 H   0  0  0  0  0  0  0  0  0  0  0  0
  138.2926  158.7700  132.8690 H   0  0  0  0  0  0  0  0  0  0  0  0
  137.6519  157.5010  131.0511 H   0  0  0  0  0  0  0  0  0  0  0  0
  137.9224  159.0476  130.1786 H   0  0  0  0  0  0  0  0  0  0  0  0
  139.1968  157.7817  130.1786 H   0  0  0  0  0  0  0  0  0  0  0  0
  143.6533  156.6802  134.1558 H   0  0  0  0  0  0  0  0  0  0  0  0
  1  2  2  0
  2  3  1  0
  3  4  2  0
  3  5  1  0
  5  6  1  0
  6  7  1  0
  7  8  1  0
  7  9  2  0
  6 10  2  0
 10 11  1  0
 11 12  2  0
 12 13  1  0
 13 14  2  0
 14 15  1  0
 15 16  1  0
 15 17  1  0
 15 18  1  0
 18 19  2  0
 18 20  1  0
 20 21  1  0
 21 22  1  0
 21 23  1  0
 23 24  2  0
 23 25  1  0
 14 26  1  0
 26 27  2  0
 27  5  1  0
 27 11  1  0
  1 28  1  0
  1 29  1  0
  2 30  1  0
  8 31  1  0
  8 32  1  0
 10 33  1  0
 12 34  1  0
 13 35  1  0
 16 36  1  0
 16 37  1  0
 16 38  1  0
 17 39  1  0
 17 40  1  0
 17 41  1  0
 21 42  1  1
 22 43  1  0
 22 44  1  0
 22 45  1  0
 26 46  1  0
M  CHG  1  25  -1
M  END
>  <UniqueID>  (47) 
47

>  <SMILES>  (47) 
C=CC(=O)n1c(C(N)=O)cc2ccc(C(C)(C)C(=O)O[C@H](C)C(=O)[O-])cc21

>  <Energy>  (47) 
81.41613548947042

>  <Genealogy>  (47) 
C=CC(=O)n1c(C(N)=O)cc2ccc(C(C)(C)C(=O)OC(C)C(=O)[O-])cc21 (protonated)
C=CC(=O)n1c(C(N)=O)cc2ccc(C(C)(C)C(=O)O[C@H](C)C(=O)[O-])cc21 (chirality)
C=CC(=O)n1c(C(N)=O)cc2ccc(C(C)(C)C(=O)O[C@H](C)C(=O)[O-])cc21 (3D coordinates assigned)
C=CC(=O)n1c(C(N)=O)cc2ccc(C(C)(C)C(=O)O[C@H](C)C(=O)[O-])cc21 (optimized conformer: 81.41613548947042 kcal/mol)

>  <smiles>  (47) 
C=CC(=O)n1c(C(N)=O)cc2ccc(C(C)(C)C(=O)OC(C)C(=O)O)cc21

>  <score_type>  (47) 
oracle

>  <origin>  (47) 
adg

>  <m_score__min__energy>  (47) 
-8.0899999999999999

>  <m_primary>  (47) 
energy

$$$$
47:0
     RDKit          3D

 48 51  0  0  0  0  0  0  0  0999 V2000
  141.1060  156.3350  133.4180 C   0  0  0  0  0  0  0  0  0  0  0  0
  141.4520  157.8350  133.3370 C   0  0  0  0  0  0  0  0  0  0  0  0
  141.2420  158.4440  134.7450 C   0  0  0  0  0  0  0  0  0  0  0  0
  142.8420  157.8800  132.9740 O   0  0  0  0  0  0  0  0  0  0  0  0
  143.9550  157.7990  133.8230 C   0  0  0  0  0  0  0  0  0  0  0  0
  143.9580  157.0360  134.8230 O   0  0  0  0  0  0  0  0  0  0  0  0
  145.1220  158.5760  133.5220 N   0  0  0  0  0  0  0  0  0  0  0  0
  145.2590  159.9310  133.5560 C   0  0  0  0  0  0  0  0  0  0  0  0
  144.1700  160.9100  133.7640 C   0  0  0  0  0  0  0  0  0  0  0  0
  142.8360  160.6200  133.3550 N   0  0  0  0  0  0  0  0  0  0  0  0
  144.4310  162.0360  134.2670 O   0  0  0  0  0  0  0  0  0  0  0  0
  146.5750  160.2960  133.2770 C   0  0  0  0  0  0  0  0  0  0  0  0
  147.2430  159.1120  133.0600 C   0  0  0  0  0  0  0  0  0  0  0  0
  148.5790  158.8830  132.7510 C   0  0  0  0  0  0  0  0  0  0  0  0
  149.0040  157.5510  132.6060 C   0  0  0  0  0  0  0  0  0  0  0  0
  148.0920  156.4760  132.7790 C   0  0  0  0  0  0  0  0  0  0  0  0
  148.5290  155.0680  132.6390 C   0  0  0  0  0  0  0  0  0  0  0  0
  147.7910  153.9230  132.8990 C   0  0  0  0  0  0  0  0  0  0  0  0
  148.6570  152.8880  132.6110 C   0  0  0  0  0  0  0  0  0  0  0  0
  149.8270  153.4120  132.2080 N   0  0  0  0  0  0  0  0  0  0  0  0
  149.7270  154.7070  132.2330 O   0  0  0  0  0  0  0  0  0  0  0  0
  146.7420  156.7530  133.0940 C   0  0  0  0  0  0  0  0  0  0  0  0
  146.3440  158.0900  133.2130 C   0  0  0  0  0  0  0  0  0  0  0  0
  140.5850  158.4830  132.2020 C   0  0  0  0  0  0  0  0  0  0  0  0
  139.9760  159.8710  132.4340 C   0  0  0  0  0  0  0  0  0  0  0  0
  138.5840  159.3060  132.1890 C   0  0  0  0  0  0  0  0  0  0  0  0
  139.1730  157.9150  132.0100 C   0  0  0  0  0  0  0  0  0  0  0  0
  141.0360  156.0313  134.4729 H   0  0  0  0  0  0  0  0  0  0  0  0
  140.1424  156.1535  132.9194 H   0  0  0  0  0  0  0  0  0  0  0  0
  141.8927  155.7498  132.9194 H   0  0  0  0  0  0  0  0  0  0  0  0
  141.4997  157.6967  135.5099 H   0  0  0  0  0  0  0  0  0  0  0  0
  141.8876  159.3268  134.8627 H   0  0  0  0  0  0  0  0  0  0  0  0
  140.1895  158.7412  134.8627 H   0  0  0  0  0  0  0  0  0  0  0  0
  142.6470  159.9850  132.5490 H   0  0  0  0  0  0  0  0  0  0  0  0
  146.9912  161.3135  133.2384 H   0  0  0  0  0  0  0  0  0  0  0  0
  149.2824  159.7191  132.6238 H   0  0  0  0  0  0  0  0  0  0  0  0
  150.0540  157.3390  132.3559 H   0  0  0  0  0  0  0  0  0  0  0  0
  146.7520  153.8553  133.2539 H   0  0  0  0  0  0  0  0  0  0  0  0
  148.4283  151.8155  132.6968 H   0  0  0  0  0  0  0  0  0  0  0  0
  150.6800  152.8830  131.9200 H   0  0  0  0  0  0  0  0  0  0  0  0
  146.0203  155.9362  133.2423 H   0  0  0  0  0  0  0  0  0  0  0  0
  141.3655  158.3588  131.4368 H   0  0  0  0  0  0  0  0  0  0  0  0
  140.1282  160.2633  133.4503 H   0  0  0  0  0  0  0  0  0  0  0  0
  140.3330  160.7374  131.8578 H   0  0  0  0  0  0  0  0  0  0  0  0
  137.9052  159.3979  133.0497 H   0  0  0  0  0  0  0  0  0  0  0  0
  137.9387  159.7394  131.4107 H   0  0  0  0  0  0  0  0  0  0  0  0
  138.8695  157.1964  132.7855 H   0  0  0  0  0  0  0  0  0  0  0  0
  138.9306  157.3201  131.1170 H   0  0  0  0  0  0  0  0  0  0  0  0
  1  2  1  0
  2  3  1  0
  2  4  1  0
  4  5  1  0
  5  6  2  0
  5  7  1  0
  7  8  1  0
  8  9  1  0
  9 10  1  0
  9 11  2  0
  8 12  2  0
 12 13  1  0
 13 14  2  0
 14 15  1  0
 15 16  2  0
 16 17  1  0
 17 18  2  0
 18 19  1  0
 19 20  2  0
 20 21  1  0
 16 22  1  0
 22 23  2  0
  2 24  1  0
 24 25  1  0
 25 26  1  0
 26 27  1  0
 23  7  1  0
 27 24  1  0
 23 13  1  0
 21 17  1  0
  1 28  1  0
  1 29  1  0
  1 30  1  0
  3 31  1  0
  3 32  1  0
  3 33  1  0
 10 34  1  0
 12 35  1  0
 14 36  1  0
 15 37  1  0
 18 38  1  0
 19 39  1  0
 20 40  1  0
 22 41  1  0
 24 42  1  0
 25 43  1  0
 25 44  1  0
 26 45  1  0
 26 46  1  0
 27 47  1  0
 27 48  1  0
M  CHG  2  10  -1  20   1
M  END
>  <UniqueID>  (48) 
48

>  <SMILES>  (48) 
CC(C)(OC(=O)n1c(C([NH-])=O)cc2ccc(-c3cc[nH+]o3)cc21)C1CCC1

>  <Energy>  (48) 
184.30561098879375

>  <Genealogy>  (48) 
CC(C)(OC(=O)n1c(C([NH-])=O)cc2ccc(-c3cc[nH+]o3)cc21)C1CCC1 (protonated)
CC(C)(OC(=O)n1c(C([NH-])=O)cc2ccc(-c3cc[nH+]o3)cc21)C1CCC1 (3D coordinates assigned)
CC(C)(OC(=O)n1c(C([NH-])=O)cc2ccc(-c3cc[nH+]o3)cc21)C1CCC1 (nonaromatic ring conformer: 184.30561098879375 kcal/mol)

>  <smiles>  (48) 
CC(C)(OC(=O)n1c(C(N)=O)cc2ccc(-c3ccno3)cc21)C1CCC1

>  <score_type>  (48) 
oracle

>  <origin>  (48) 
adg

>  <m_score__min__energy>  (48) 
-9.1500000000000004

>  <m_primary>  (48) 
energy

$$$$
48:0
     RDKit          3D

 44 45  0  0  0  0  0  0  0  0999 V2000
  140.5500  156.0740  133.7260 C   0  0  0  0  0  0  0  0  0  0  0  0
  140.5340  157.5420  133.7050 N   0  0  0  0  0  0  0  0  0  0  0  0
  139.2400  158.2480  133.7300 C   0  0  0  0  0  0  0  0  0  0  0  0
  138.5610  158.2450  132.3540 C   0  0  0  0  0  0  0  0  0  0  0  0
  139.0390  159.6570  131.3660 S   0  0  0  0  0  0  0  0  0  0  0  0
  137.6660  160.1460  130.3490 C   0  0  0  0  0  0  0  0  0  0  0  0
  139.4200  160.8040  132.2580 O   0  0  0  0  0  0  0  0  0  0  0  0
  140.2040  159.2990  130.4860 O   0  0  0  0  0  0  0  0  0  0  0  0
  141.7880  158.2670  133.6770 C   0  0  0  0  0  0  0  0  0  0  0  0
  141.7960  159.6870  133.7360 C   0  0  0  0  0  0  0  0  0  0  0  0
  143.0030  160.4040  133.7390 C   0  0  0  0  0  0  0  0  0  0  0  0
  144.1900  159.6840  133.6640 C   0  0  0  0  0  0  0  0  0  0  0  0
  145.4930  160.1240  133.7100 C   0  0  0  0  0  0  0  0  0  0  0  0
  146.2710  158.9720  133.6360 C   0  0  0  0  0  0  0  0  0  0  0  0
  147.7490  158.9840  133.6580 C   0  0  0  0  0  0  0  0  0  0  0  0
  148.4970  157.8270  134.0340 N   0  0  0  0  0  0  0  0  0  0  0  0
  148.3620  160.0230  133.2940 O   0  0  0  0  0  0  0  0  0  0  0  0
  145.4840  157.8630  133.5490 N   0  0  0  0  0  0  0  0  0  0  0  0
  145.9100  156.4900  133.5890 C   0  0  0  0  0  0  0  0  0  0  0  0
  146.6680  156.0490  132.6840 O   0  0  0  0  0  0  0  0  0  0  0  0
  145.4660  155.5750  134.6940 C   0  0  0  0  0  0  0  0  0  0  0  0
  146.6460  155.0200  135.4250 C   0  0  0  0  0  0  0  0  0  0  0  0
  147.7060  155.6930  135.5230 O   0  0  0  0  0  0  0  0  0  0  0  0
  146.5640  153.7730  136.0340 O   0  0  0  0  0  0  0  0  0  0  0  0
  144.2090  158.3170  133.5770 C   0  0  0  0  0  0  0  0  0  0  0  0
  143.0230  157.5750  133.6040 C   0  0  0  0  0  0  0  0  0  0  0  0
  140.5538  155.7222  134.7682 H   0  0  0  0  0  0  0  0  0  0  0  0
  139.6560  155.6902  133.2127 H   0  0  0  0  0  0  0  0  0  0  0  0
  141.4522  155.7098  133.2127 H   0  0  0  0  0  0  0  0  0  0  0  0
  138.5778  157.7516  134.4546 H   0  0  0  0  0  0  0  0  0  0  0  0
  139.4271  159.2936  134.0160 H   0  0  0  0  0  0  0  0  0  0  0  0
  138.8448  157.3260  131.8203 H   0  0  0  0  0  0  0  0  0  0  0  0
  137.4736  158.2944  132.5123 H   0  0  0  0  0  0  0  0  0  0  0  0
  136.8237  160.4460  130.9897 H   0  0  0  0  0  0  0  0  0  0  0  0
  137.9636  160.9934  129.7139 H   0  0  0  0  0  0  0  0  0  0  0  0
  137.3609  159.3012  129.7139 H   0  0  0  0  0  0  0  0  0  0  0  0
  140.8419  160.2326  133.7800 H   0  0  0  0  0  0  0  0  0  0  0  0
  143.0094  161.5024  133.7989 H   0  0  0  0  0  0  0  0  0  0  0  0
  145.8445  161.1634  133.7885 H   0  0  0  0  0  0  0  0  0  0  0  0
  148.0350  156.9000  134.1470 H   0  0  0  0  0  0  0  0  0  0  0  0
  149.5380  157.8760  134.0980 H   0  0  0  0  0  0  0  0  0  0  0  0
  144.8367  156.1383  135.3987 H   0  0  0  0  0  0  0  0  0  0  0  0
  144.8964  154.7418  134.2566 H   0  0  0  0  0  0  0  0  0  0  0  0
  143.0485  156.4758  133.5693 H   0  0  0  0  0  0  0  0  0  0  0  0
  1  2  1  0
  2  3  1  0
  3  4  1  0
  4  5  1  0
  5  6  1  0
  5  7  2  0
  5  8  2  0
  2  9  1  0
  9 10  2  0
 10 11  1  0
 11 12  2  0
 12 13  1  0
 13 14  2  0
 14 15  1  0
 15 16  1  0
 15 17  2  0
 14 18  1  0
 18 19  1  0
 19 20  2  0
 19 21  1  0
 21 22  1  0
 22 23  2  0
 22 24  1  0
 18 25  1  0
 25 26  2  0
 26  9  1  0
 25 12  1  0
  1 27  1  0
  1 28  1  0
  1 29  1  0
  3 30  1  0
  3 31  1  0
  4 32  1  0
  4 33  1  0
  6 34  1  0
  6 35  1  0
  6 36  1  0
 10 37  1  0
 11 38  1  0
 13 39  1  0
 16 40  1  0
 16 41  1  0
 21 42  1  0
 21 43  1  0
 26 44  1  0
M  CHG  1  24  -1
M  END
>  <UniqueID>  (49) 
49

>  <SMILES>  (49) 
CN(CCS(C)(=O)=O)c1ccc2cc(C(N)=O)n(C(=O)CC(=O)[O-])c2c1

>  <Energy>  (49) 
74.83237822923721

>  <Genealogy>  (49) 
CN(CCS(C)(=O)=O)c1ccc2cc(C(N)=O)n(C(=O)CC(=O)[O-])c2c1 (protonated)
CN(CCS(C)(=O)=O)c1ccc2cc(C(N)=O)n(C(=O)CC(=O)[O-])c2c1 (3D coordinates assigned)
CN(CCS(C)(=O)=O)c1ccc2cc(C(N)=O)n(C(=O)CC(=O)[O-])c2c1 (optimized conformer: 74.83237822923721 kcal/mol)

>  <smiles>  (49) 
CN(CCS(C)(=O)=O)c1ccc2cc(C(N)=O)n(C(=O)CC(=O)O)c2c1

>  <score_type>  (49) 
oracle

>  <origin>  (49) 
adg

>  <m_score__min__energy>  (49) 
-7.8600000000000003

>  <m_primary>  (49) 
energy

$$$$
49:0
     RDKit          3D

 43 45  0  0  0  0  0  0  0  0999 V2000
  140.9830  159.3610  136.8430 C   0  0  0  0  0  0  0  0  0  0  0  0
  141.7780  158.4350  136.1350 O   0  0  0  0  0  0  0  0  0  0  0  0
  140.9630  157.5150  135.4290 C   0  0  0  0  0  0  0  0  0  0  0  0
  141.8130  156.3760  134.8760 C   0  0  0  0  0  0  0  0  0  0  0  0
  143.1100  156.8580  134.5400 O   0  0  0  0  0  0  0  0  0  0  0  0
  143.3220  157.8680  133.5970 C   0  0  0  0  0  0  0  0  0  0  0  0
  142.3980  158.2000  132.8040 O   0  0  0  0  0  0  0  0  0  0  0  0
  144.5880  158.5430  133.5500 N   0  0  0  0  0  0  0  0  0  0  0  0
  144.8300  159.8800  133.6680 C   0  0  0  0  0  0  0  0  0  0  0  0
  143.8080  160.9460  133.7350 C   0  0  0  0  0  0  0  0  0  0  0  0
  142.4530  160.6110  134.0280 N   0  0  0  0  0  0  0  0  0  0  0  0
  144.1240  162.1540  133.5700 O   0  0  0  0  0  0  0  0  0  0  0  0
  146.2000  160.1320  133.6360 C   0  0  0  0  0  0  0  0  0  0  0  0
  146.7950  158.9010  133.4860 C   0  0  0  0  0  0  0  0  0  0  0  0
  148.1420  158.5600  133.4210 C   0  0  0  0  0  0  0  0  0  0  0  0
  148.4720  157.2000  133.3050 C   0  0  0  0  0  0  0  0  0  0  0  0
  147.4580  156.2100  133.2520 C   0  0  0  0  0  0  0  0  0  0  0  0
  147.8340  154.7810  133.1640 C   0  0  0  0  0  0  0  0  0  0  0  0
  148.9790  154.2940  132.5560 C   0  0  0  0  0  0  0  0  0  0  0  0
  148.9120  152.9230  132.7180 C   0  0  0  0  0  0  0  0  0  0  0  0
  147.7800  152.6170  133.3770 N   0  0  0  0  0  0  0  0  0  0  0  0
  147.1200  153.7340  133.6380 N   0  0  0  0  0  0  0  0  0  0  0  0
  145.8240  153.7660  134.3120 C   0  0  0  0  0  0  0  0  0  0  0  0
  146.1010  156.5950  133.3350 C   0  0  0  0  0  0  0  0  0  0  0  0
  145.8010  157.9590  133.4340 C   0  0  0  0  0  0  0  0  0  0  0  0
  141.1154  159.2068  137.9241 H   0  0  0  0  0  0  0  0  0  0  0  0
  141.2884  160.3841  136.5785 H   0  0  0  0  0  0  0  0  0  0  0  0
  139.9255  159.2140  136.5785 H   0  0  0  0  0  0  0  0  0  0  0  0
  140.2040  157.1041  136.1109 H   0  0  0  0  0  0  0  0  0  0  0  0
  140.4736  158.0365  134.5932 H   0  0  0  0  0  0  0  0  0  0  0  0
  141.9031  155.5860  135.6361 H   0  0  0  0  0  0  0  0  0  0  0  0
  141.3323  155.9707  133.9734 H   0  0  0  0  0  0  0  0  0  0  0  0
  142.1970  159.6580  134.3690 H   0  0  0  0  0  0  0  0  0  0  0  0
  146.6999  161.1087  133.7142 H   0  0  0  0  0  0  0  0  0  0  0  0
  148.9247  159.3320  133.4593 H   0  0  0  0  0  0  0  0  0  0  0  0
  149.5289  156.8992  133.2547 H   0  0  0  0  0  0  0  0  0  0  0  0
  149.7690  154.8719  132.0540 H   0  0  0  0  0  0  0  0  0  0  0  0
  149.6622  152.1999  132.3654 H   0  0  0  0  0  0  0  0  0  0  0  0
  147.4590  151.6570  133.6340 H   0  0  0  0  0  0  0  0  0  0  0  0
  145.9770  153.7622  135.4013 H   0  0  0  0  0  0  0  0  0  0  0  0
  145.2818  154.6778  134.0211 H   0  0  0  0  0  0  0  0  0  0  0  0
  145.2375  152.8821  134.0211 H   0  0  0  0  0  0  0  0  0  0  0  0
  145.2998  155.8414  133.3222 H   0  0  0  0  0  0  0  0  0  0  0  0
  1  2  1  0
  2  3  1  0
  3  4  1  0
  4  5  1  0
  5  6  1  0
  6  7  2  0
  6  8  1  0
  8  9  1  0
  9 10  1  0
 10 11  1  0
 10 12  2  0
  9 13  2  0
 13 14  1  0
 14 15  2  0
 15 16  1  0
 16 17  2  0
 17 18  1  0
 18 19  2  0
 19 20  1  0
 20 21  2  0
 21 22  1  0
 22 23  1  0
 17 24  1  0
 24 25  2  0
 25  8  1  0
 25 14  1  0
 22 18  1  0
  1 26  1  0
  1 27  1  0
  1 28  1  0
  3 29  1  0
  3 30  1  0
  4 31  1  0
  4 32  1  0
 11 33  1  0
 13 34  1  0
 15 35  1  0
 16 36  1  0
 19 37  1  0
 20 38  1  0
 21 39  1  0
 23 40  1  0
 23 41  1  0
 23 42  1  0
 24 43  1  0
M  CHG  2  11  -1  21   1
M  END
>  <UniqueID>  (50) 
50

>  <SMILES>  (50) 
COCCOC(=O)n1c(C([NH-])=O)cc2ccc(-c3cc[nH+]n3C)cc21

>  <Energy>  (50) 
114.72319127605412

>  <Genealogy>  (50) 
COCCOC(=O)n1c(C([NH-])=O)cc2ccc(-c3cc[nH+]n3C)cc21 (protonated)
COCCOC(=O)n1c(C([NH-])=O)cc2ccc(-c3cc[nH+]n3C)cc21 (3D coordinates assigned)
COCCOC(=O)n1c(C([NH-])=O)cc2ccc(-c3cc[nH+]n3C)cc21 (optimized conformer: 114.72319127605412 kcal/mol)

>  <smiles>  (50) 
COCCOC(=O)n1c(C(N)=O)cc2ccc(-c3ccnn3C)cc21

>  <score_type>  (50) 
oracle

>  <origin>  (50) 
adg

>  <m_score__min__energy>  (50) 
-6.7599999999999998

>  <m_primary>  (50) 
energy

$$$$
50:0
     RDKit          3D

 43 45  0  0  0  0  0  0  0  0999 V2000
  146.6600  159.5660  133.3670 C   0  0  0  0  0  0  0  0  0  0  0  0
  147.8840  158.9400  132.8720 N   0  0  0  0  0  0  0  0  0  0  0  0
  148.9560  159.5690  132.3510 C   0  0  0  0  0  0  0  0  0  0  0  0
  149.9200  158.7100  131.9580 N   0  0  0  0  0  0  0  0  0  0  0  0
  149.4200  157.4880  132.2370 C   0  0  0  0  0  0  0  0  0  0  0  0
  148.1620  157.6270  132.7840 C   0  0  0  0  0  0  0  0  0  0  0  0
  147.2910  156.5110  133.2870 C   0  0  0  0  0  0  0  0  0  0  0  0
  146.0480  156.4400  132.5080 N   0  0  0  0  0  0  0  0  0  0  0  0
  145.4660  155.1270  132.6270 C   0  0  0  0  0  0  0  0  0  0  0  0
  146.2990  153.9780  132.6540 C   0  0  0  0  0  0  0  0  0  0  0  0
  145.7490  152.6960  132.8100 C   0  0  0  0  0  0  0  0  0  0  0  0
  144.3670  152.5900  132.9370 C   0  0  0  0  0  0  0  0  0  0  0  0
  143.5790  151.4780  133.1330 C   0  0  0  0  0  0  0  0  0  0  0  0
  142.2740  151.9590  133.2100 C   0  0  0  0  0  0  0  0  0  0  0  0
  141.0920  151.0830  133.3370 C   0  0  0  0  0  0  0  0  0  0  0  0
  140.1050  151.0310  132.3090 N   0  0  0  0  0  0  0  0  0  0  0  0
  140.9760  150.3330  134.3420 O   0  0  0  0  0  0  0  0  0  0  0  0
  142.2540  153.3160  133.0780 N   0  0  0  0  0  0  0  0  0  0  0  0
  141.1240  154.1930  133.2070 C   0  0  0  0  0  0  0  0  0  0  0  0
  140.0310  153.9000  132.6490 O   0  0  0  0  0  0  0  0  0  0  0  0
  141.2480  155.3810  133.9330 O   0  0  0  0  0  0  0  0  0  0  0  0
  141.2360  156.6640  133.3170 C   0  0  0  0  0  0  0  0  0  0  0  0
  142.4910  157.3970  133.6590 C   0  0  0  0  0  0  0  0  0  0  0  0
  142.7530  157.6770  134.8580 O   0  0  0  0  0  0  0  0  0  0  0  0
  143.3430  157.8300  132.6500 O   0  0  0  0  0  0  0  0  0  0  0  0
  143.5440  153.6870  132.9080 C   0  0  0  0  0  0  0  0  0  0  0  0
  144.0670  154.9780  132.7710 C   0  0  0  0  0  0  0  0  0  0  0  0
  146.6657  159.5631  134.4670 H   0  0  0  0  0  0  0  0  0  0  0  0
  146.6054  160.6027  133.0033 H   0  0  0  0  0  0  0  0  0  0  0  0
  145.7875  159.0034  133.0033 H   0  0  0  0  0  0  0  0  0  0  0  0
  149.0364  160.6620  132.2565 H   0  0  0  0  0  0  0  0  0  0  0  0
  149.9345  156.5326  132.0566 H   0  0  0  0  0  0  0  0  0  0  0  0
  147.8325  155.5582  133.1929 H   0  0  0  0  0  0  0  0  0  0  0  0
  147.0408  156.7014  134.3411 H   0  0  0  0  0  0  0  0  0  0  0  0
  145.3690  157.1580  132.8590 H   0  0  0  0  0  0  0  0  0  0  0  0
  146.2460  156.6480  131.5010 H   0  0  0  0  0  0  0  0  0  0  0  0
  147.3881  154.0935  132.5515 H   0  0  0  0  0  0  0  0  0  0  0  0
  146.3904  151.8026  132.8312 H   0  0  0  0  0  0  0  0  0  0  0  0
  143.9098  150.4319  133.2120 H   0  0  0  0  0  0  0  0  0  0  0  0
  139.7690  151.9020  131.8430 H   0  0  0  0  0  0  0  0  0  0  0  0
  141.1676  156.5452  132.2256 H   0  0  0  0  0  0  0  0  0  0  0  0
  140.3692  157.2352  133.6809 H   0  0  0  0  0  0  0  0  0  0  0  0
  143.4051  155.8566  132.7752 H   0  0  0  0  0  0  0  0  0  0  0  0
  1  2  1  0
  2  3  1  0
  3  4  2  0
  4  5  1  0
  5  6  2  0
  6  7  1  0
  7  8  1  0
  8  9  1  0
  9 10  2  0
 10 11  1  0
 11 12  2  0
 12 13  1  0
 13 14  2  0
 14 15  1  0
 15 16  1  0
 15 17  2  0
 14 18  1  0
 18 19  1  0
 19 20  2  0
 19 21  1  0
 21 22  1  0
 22 23  1  0
 23 24  2  0
 23 25  1  0
 18 26  1  0
 26 27  2  0
  6  2  1  0
 27  9  1  0
 26 12  1  0
  1 28  1  0
  1 29  1  0
  1 30  1  0
  3 31  1  0
  5 32  1  0
  7 33  1  0
  7 34  1  0
  8 35  1  0
  8 36  1  0
 10 37  1  0
 11 38  1  0
 13 39  1  0
 16 40  1  0
 22 41  1  0
 22 42  1  0
 27 43  1  0
M  CHG  3   8   1  16  -1  25  -1
M  END
>  <UniqueID>  (51) 
51

>  <SMILES>  (51) 
Cn1cncc1C[NH2+]c1ccc2cc(C([NH-])=O)n(C(=O)OCC(=O)[O-])c2c1

>  <Energy>  (51) 
109.55405659788524

>  <Genealogy>  (51) 
Cn1cncc1C[NH2+]c1ccc2cc(C([NH-])=O)n(C(=O)OCC(=O)[O-])c2c1 (protonated)
Cn1cncc1C[NH2+]c1ccc2cc(C([NH-])=O)n(C(=O)OCC(=O)[O-])c2c1 (3D coordinates assigned)
Cn1cncc1C[NH2+]c1ccc2cc(C([NH-])=O)n(C(=O)OCC(=O)[O-])c2c1 (optimized conformer: 109.55405659788524 kcal/mol)

>  <smiles>  (51) 
Cn1cncc1CNc1ccc2cc(C(N)=O)n(C(=O)OCC(=O)O)c2c1

>  <score_type>  (51) 
oracle

>  <origin>  (51) 
adg

>  <m_score__min__energy>  (51) 
-6.6200000000000001

>  <m_primary>  (51) 
energy

$$$$
51:0
     RDKit          3D

 48 49  0  0  0  0  0  0  0  0999 V2000
  140.9130  151.9640  132.6150 C   0  0  0  0  0  0  0  0  0  0  0  0
  140.6520  153.3610  132.6570 O   0  0  0  0  0  0  0  0  0  0  0  0
  141.2340  154.2070  133.6050 C   0  0  0  0  0  0  0  0  0  0  0  0
  141.7660  153.7370  134.6480 O   0  0  0  0  0  0  0  0  0  0  0  0
  141.1950  155.6850  133.3910 C   0  0  0  0  0  0  0  0  0  0  0  0
  140.0330  156.0490  132.6500 O   0  0  0  0  0  0  0  0  0  0  0  0
  139.2290  157.1500  132.9680 C   0  0  0  0  0  0  0  0  0  0  0  0
  138.3510  157.0560  133.8700 O   0  0  0  0  0  0  0  0  0  0  0  0
  139.3800  158.3790  132.2390 N   0  0  0  0  0  0  0  0  0  0  0  0
  138.6890  158.5430  130.9570 C   0  0  0  0  0  0  0  0  0  0  0  0
  140.1080  159.4910  132.7960 C   0  0  0  0  0  0  0  0  0  0  0  0
  140.0430  160.6200  132.2380 O   0  0  0  0  0  0  0  0  0  0  0  0
  140.8860  159.3550  134.0790 C   0  0  0  0  0  0  0  0  0  0  0  0
  142.3540  159.6340  133.8810 C   0  0  0  0  0  0  0  0  0  0  0  0
  142.8270  160.9690  133.8160 C   0  0  0  0  0  0  0  0  0  0  0  0
  144.1890  161.2390  133.6050 C   0  0  0  0  0  0  0  0  0  0  0  0
  145.0560  160.1570  133.4810 C   0  0  0  0  0  0  0  0  0  0  0  0
  146.4060  160.1310  133.2140 C   0  0  0  0  0  0  0  0  0  0  0  0
  146.7450  158.7820  133.1640 C   0  0  0  0  0  0  0  0  0  0  0  0
  148.1210  158.2980  132.9390 C   0  0  0  0  0  0  0  0  0  0  0  0
  148.4320  157.4280  131.8490 N   0  0  0  0  0  0  0  0  0  0  0  0
  149.0300  158.6140  133.7530 O   0  0  0  0  0  0  0  0  0  0  0  0
  145.6510  158.0020  133.3820 N   0  0  0  0  0  0  0  0  0  0  0  0
  145.5640  156.5720  133.2640 C   0  0  0  0  0  0  0  0  0  0  0  0
  146.2220  155.9700  132.3730 O   0  0  0  0  0  0  0  0  0  0  0  0
  144.7560  155.8520  134.1490 O   0  0  0  0  0  0  0  0  0  0  0  0
  145.2020  154.6730  134.8090 C   0  0  0  0  0  0  0  0  0  0  0  0
  144.6230  158.8590  133.5780 C   0  0  0  0  0  0  0  0  0  0  0  0
  143.2710  158.5640  133.7790 C   0  0  0  0  0  0  0  0  0  0  0  0
  140.9859  151.5736  133.6408 H   0  0  0  0  0  0  0  0  0  0  0  0
  140.0946  151.4538  132.0859 H   0  0  0  0  0  0  0  0  0  0  0  0
  141.8604  151.7837  132.0859 H   0  0  0  0  0  0  0  0  0  0  0  0
  141.1762  156.1922  134.3669 H   0  0  0  0  0  0  0  0  0  0  0  0
  142.0885  155.9874  132.8251 H   0  0  0  0  0  0  0  0  0  0  0  0
  137.6334  158.7935  131.1388 H   0  0  0  0  0  0  0  0  0  0  0  0
  139.1648  159.3532  130.3850 H   0  0  0  0  0  0  0  0  0  0  0  0
  138.7500  157.6054  130.3850 H   0  0  0  0  0  0  0  0  0  0  0  0
  140.4851  160.0676  134.8148 H   0  0  0  0  0  0  0  0  0  0  0  0
  140.7815  158.3183  134.4316 H   0  0  0  0  0  0  0  0  0  0  0  0
  142.1191  161.8029  133.9322 H   0  0  0  0  0  0  0  0  0  0  0  0
  144.5590  162.2729  133.5398 H   0  0  0  0  0  0  0  0  0  0  0  0
  147.0745  160.9927  133.0707 H   0  0  0  0  0  0  0  0  0  0  0  0
  147.6770  157.0080  131.2630 H   0  0  0  0  0  0  0  0  0  0  0  0
  149.4190  157.1360  131.6760 H   0  0  0  0  0  0  0  0  0  0  0  0
  145.1467  154.8191  135.8979 H   0  0  0  0  0  0  0  0  0  0  0  0
  144.5620  153.8264  134.5197 H   0  0  0  0  0  0  0  0  0  0  0  0
  146.2421  154.4620  134.5197 H   0  0  0  0  0  0  0  0  0  0  0  0
  142.9288  157.5214  133.8561 H   0  0  0  0  0  0  0  0  0  0  0  0
  1  2  1  0
  2  3  1  0
  3  4  2  0
  3  5  1  0
  5  6  1  0
  6  7  1  0
  7  8  2  0
  7  9  1  0
  9 10  1  0
  9 11  1  0
 11 12  2  0
 11 13  1  0
 13 14  1  0
 14 15  2  0
 15 16  1  0
 16 17  2  0
 17 18  1  0
 18 19  2  0
 19 20  1  0
 20 21  1  0
 20 22  2  0
 19 23  1  0
 23 24  1  0
 24 25  2  0
 24 26  1  0
 26 27  1  0
 23 28  1  0
 28 29  2  0
 29 14  1  0
 28 17  1  0
  1 30  1  0
  1 31  1  0
  1 32  1  0
  5 33  1  0
  5 34  1  0
 10 35  1  0
 10 36  1  0
 10 37  1  0
 13 38  1  0
 13 39  1  0
 15 40  1  0
 16 41  1  0
 18 42  1  0
 21 43  1  0
 21 44  1  0
 27 45  1  0
 27 46  1  0
 27 47  1  0
 29 48  1  0
M  END
>  <UniqueID>  (52) 
52

>  <SMILES>  (52) 
COC(=O)COC(=O)N(C)C(=O)Cc1ccc2cc(C(N)=O)n(C(=O)OC)c2c1

>  <Energy>  (52) 
81.51948313143576

>  <Genealogy>  (52) 
COC(=O)COC(=O)N(C)C(=O)Cc1ccc2cc(C(N)=O)n(C(=O)OC)c2c1 (3D coordinates assigned)
COC(=O)COC(=O)N(C)C(=O)Cc1ccc2cc(C(N)=O)n(C(=O)OC)c2c1 (optimized conformer: 81.51948313143576 kcal/mol)

>  <smiles>  (52) 
COC(=O)COC(=O)N(C)C(=O)Cc1ccc2cc(C(N)=O)n(C(=O)OC)c2c1

>  <score_type>  (52) 
oracle

>  <origin>  (52) 
adg

>  <m_score__min__energy>  (52) 
-6.4699999999999998

>  <m_primary>  (52) 
energy

$$$$
52:0
     RDKit          3D

 37 38  0  0  0  0  0  0  0  0999 V2000
  141.3570  158.9250  137.5280 C   0  0  0  0  0  0  0  0  0  0  0  0
  140.7830  159.4210  136.3240 O   0  0  0  0  0  0  0  0  0  0  0  0
  140.0940  158.5990  135.4260 C   0  0  0  0  0  0  0  0  0  0  0  0
  139.1020  157.9190  135.8070 O   0  0  0  0  0  0  0  0  0  0  0  0
  140.5110  158.5680  133.9910 C   0  0  0  0  0  0  0  0  0  0  0  0
  141.9100  159.1000  133.8520 C   0  0  0  0  0  0  0  0  0  0  0  0
  142.1360  160.4990  133.8150 C   0  0  0  0  0  0  0  0  0  0  0  0
  143.4420  161.0100  133.7420 C   0  0  0  0  0  0  0  0  0  0  0  0
  144.4970  160.1040  133.7060 C   0  0  0  0  0  0  0  0  0  0  0  0
  145.8540  160.3290  133.6780 C   0  0  0  0  0  0  0  0  0  0  0  0
  146.4360  159.0660  133.6760 C   0  0  0  0  0  0  0  0  0  0  0  0
  147.8920  158.8440  133.5840 C   0  0  0  0  0  0  0  0  0  0  0  0
  148.4780  157.6170  134.0190 N   0  0  0  0  0  0  0  0  0  0  0  0
  148.6220  159.7280  133.0620 O   0  0  0  0  0  0  0  0  0  0  0  0
  145.4840  158.0930  133.7140 N   0  0  0  0  0  0  0  0  0  0  0  0
  145.6920  156.6750  133.8430 C   0  0  0  0  0  0  0  0  0  0  0  0
  146.3520  156.0520  132.9690 O   0  0  0  0  0  0  0  0  0  0  0  0
  145.1480  155.9900  134.9370 O   0  0  0  0  0  0  0  0  0  0  0  0
  145.4140  154.6160  135.2130 C   0  0  0  0  0  0  0  0  0  0  0  0
  146.7280  154.4560  135.9110 C   0  0  0  0  0  0  0  0  0  0  0  0
  147.6270  155.3290  135.7810 O   0  0  0  0  0  0  0  0  0  0  0  0
  146.9500  153.3570  136.7330 O   0  0  0  0  0  0  0  0  0  0  0  0
  144.2980  158.7460  133.7310 C   0  0  0  0  0  0  0  0  0  0  0  0
  143.0060  158.2100  133.8270 C   0  0  0  0  0  0  0  0  0  0  0  0
  140.8410  159.3709  138.3911 H   0  0  0  0  0  0  0  0  0  0  0  0
  141.2496  157.8308  137.5618 H   0  0  0  0  0  0  0  0  0  0  0  0
  142.4241  159.1899  137.5618 H   0  0  0  0  0  0  0  0  0  0  0  0
  140.4769  157.5316  133.6238 H   0  0  0  0  0  0  0  0  0  0  0  0
  139.8255  159.1946  133.4015 H   0  0  0  0  0  0  0  0  0  0  0  0
  141.2809  161.1903  133.8437 H   0  0  0  0  0  0  0  0  0  0  0  0
  143.6253  162.0943  133.7141 H   0  0  0  0  0  0  0  0  0  0  0  0
  146.3689  161.3009  133.6608 H   0  0  0  0  0  0  0  0  0  0  0  0
  147.8820  156.8090  134.3020 H   0  0  0  0  0  0  0  0  0  0  0  0
  149.5120  157.4870  133.9780 H   0  0  0  0  0  0  0  0  0  0  0  0
  144.6146  154.2162  135.8542 H   0  0  0  0  0  0  0  0  0  0  0  0
  145.4531  154.0674  134.2603 H   0  0  0  0  0  0  0  0  0  0  0  0
  142.8499  157.1225  133.8815 H   0  0  0  0  0  0  0  0  0  0  0  0
  1  2  1  0
  2  3  1  0
  3  4  2  0
  3  5  1  0
  5  6  1  0
  6  7  2  0
  7  8  1  0
  8  9  2  0
  9 10  1  0
 10 11  2  0
 11 12  1  0
 12 13  1  0
 12 14  2  0
 11 15  1  0
 15 16  1  0
 16 17  2  0
 16 18  1  0
 18 19  1  0
 19 20  1  0
 20 21  2  0
 20 22  1  0
 15 23  1  0
 23 24  2  0
 24  6  1  0
 23  9  1  0
  1 25  1  0
  1 26  1  0
  1 27  1  0
  5 28  1  0
  5 29  1  0
  7 30  1  0
  8 31  1  0
 10 32  1  0
 13 33  1  0
 13 34  1  0
 19 35  1  0
 19 36  1  0
 24 37  1  0
M  CHG  1  22  -1
M  END
>  <UniqueID>  (53) 
53

>  <SMILES>  (53) 
COC(=O)Cc1ccc2cc(C(N)=O)n(C(=O)OCC(=O)[O-])c2c1

>  <Energy>  (53) 
69.9491001704836

>  <Genealogy>  (53) 
COC(=O)Cc1ccc2cc(C(N)=O)n(C(=O)OCC(=O)[O-])c2c1 (protonated)
COC(=O)Cc1ccc2cc(C(N)=O)n(C(=O)OCC(=O)[O-])c2c1 (3D coordinates assigned)
COC(=O)Cc1ccc2cc(C(N)=O)n(C(=O)OCC(=O)[O-])c2c1 (optimized conformer: 69.9491001704836 kcal/mol)

>  <smiles>  (53) 
COC(=O)Cc1ccc2cc(C(N)=O)n(C(=O)OCC(=O)O)c2c1

>  <score_type>  (53) 
oracle

>  <origin>  (53) 
adg

>  <m_score__min__energy>  (53) 
-6.3799999999999999

>  <m_primary>  (53) 
energy

$$$$
53:0
     RDKit          3D

 51 52  0  0  0  0  0  0  0  0999 V2000
  140.9620  158.9890  135.5690 C   0  0  0  0  0  0  0  0  0  0  0  0
  141.7510  159.1370  134.3430 N   0  0  0  0  0  0  0  0  0  0  0  0
  143.0190  158.4150  134.1850 C   0  0  0  0  0  0  0  0  0  0  0  0
  144.1210  159.3710  133.7140 C   0  0  0  0  0  0  0  0  0  0  0  0
  145.3760  158.6110  133.3900 C   0  0  0  0  0  0  0  0  0  0  0  0
  146.5490  159.3070  133.0030 C   0  0  0  0  0  0  0  0  0  0  0  0
  147.7350  158.6100  132.7210 C   0  0  0  0  0  0  0  0  0  0  0  0
  147.7240  157.2250  132.8520 C   0  0  0  0  0  0  0  0  0  0  0  0
  148.7230  156.3040  132.6250 C   0  0  0  0  0  0  0  0  0  0  0  0
  148.1520  155.0640  132.9070 C   0  0  0  0  0  0  0  0  0  0  0  0
  148.8940  153.7860  132.8450 C   0  0  0  0  0  0  0  0  0  0  0  0
  148.3230  152.6070  133.4090 N   0  0  0  0  0  0  0  0  0  0  0  0
  150.0180  153.7190  132.2820 O   0  0  0  0  0  0  0  0  0  0  0  0
  146.8550  155.2130  133.2960 N   0  0  0  0  0  0  0  0  0  0  0  0
  145.9180  154.1780  133.6320 C   0  0  0  0  0  0  0  0  0  0  0  0
  145.6760  153.9190  134.8410 O   0  0  0  0  0  0  0  0  0  0  0  0
  145.2150  153.4030  132.5570 C   0  0  0  0  0  0  0  0  0  0  0  0
  145.5830  152.0520  132.6180 O   0  0  0  0  0  0  0  0  0  0  0  0
  146.6070  156.5400  133.2540 C   0  0  0  0  0  0  0  0  0  0  0  0
  145.4050  157.2050  133.5220 C   0  0  0  0  0  0  0  0  0  0  0  0
  141.2790  159.9960  133.2890 C   0  0  0  0  0  0  0  0  0  0  0  0
  141.3770  161.2480  133.4070 O   0  0  0  0  0  0  0  0  0  0  0  0
  140.7130  159.4270  132.1360 O   0  0  0  0  0  0  0  0  0  0  0  0
  139.3170  159.3580  131.8150 C   0  0  0  0  0  0  0  0  0  0  0  0
  139.1150  158.7820  130.4010 C   0  0  0  0  0  0  0  0  0  0  0  0
  138.7750  160.7950  131.8470 C   0  0  0  0  0  0  0  0  0  0  0  0
  138.5610  158.5160  132.8600 C   0  0  0  0  0  0  0  0  0  0  0  0
  141.6174  159.1119  136.4439 H   0  0  0  0  0  0  0  0  0  0  0  0
  140.1726  159.7547  135.5917 H   0  0  0  0  0  0  0  0  0  0  0  0
  140.5038  157.9892  135.5917 H   0  0  0  0  0  0  0  0  0  0  0  0
  143.3087  157.9750  135.1506 H   0  0  0  0  0  0  0  0  0  0  0  0
  142.8880  157.6224  133.4336 H   0  0  0  0  0  0  0  0  0  0  0  0
  143.7780  159.9032  132.8145 H   0  0  0  0  0  0  0  0  0  0  0  0
  144.3379  160.0875  134.5200 H   0  0  0  0  0  0  0  0  0  0  0  0
  146.5298  160.4039  132.9229 H   0  0  0  0  0  0  0  0  0  0  0  0
  148.6446  159.1426  132.4062 H   0  0  0  0  0  0  0  0  0  0  0  0
  149.7521  156.5044  132.2921 H   0  0  0  0  0  0  0  0  0  0  0  0
  147.3470  152.6080  133.7800 H   0  0  0  0  0  0  0  0  0  0  0  0
  144.1275  153.4905  132.6974 H   0  0  0  0  0  0  0  0  0  0  0  0
  145.4997  153.8096  131.5754 H   0  0  0  0  0  0  0  0  0  0  0  0
  146.2510  151.9730  133.3480 H   0  0  0  0  0  0  0  0  0  0  0  0
  144.5071  156.6477  133.8272 H   0  0  0  0  0  0  0  0  0  0  0  0
  138.7518  157.7464  130.4754 H   0  0  0  0  0  0  0  0  0  0  0  0
  138.3769  159.3913  129.8588 H   0  0  0  0  0  0  0  0  0  0  0  0
  140.0720  158.7969  129.8588 H   0  0  0  0  0  0  0  0  0  0  0  0
  138.6532  161.1178  132.8915 H   0  0  0  0  0  0  0  0  0  0  0  0
  139.4822  161.4651  131.3362 H   0  0  0  0  0  0  0  0  0  0  0  0
  137.8015  160.8311  131.3362 H   0  0  0  0  0  0  0  0  0  0  0  0
  138.8511  158.8391  133.8707 H   0  0  0  0  0  0  0  0  0  0  0  0
  137.4777  158.6538  132.7278 H   0  0  0  0  0  0  0  0  0  0  0  0
  138.8143  157.4538  132.7278 H   0  0  0  0  0  0  0  0  0  0  0  0
  1  2  1  0
  2  3  1  0
  3  4  1  0
  4  5  1  0
  5  6  2  0
  6  7  1  0
  7  8  2  0
  8  9  1  0
  9 10  2  0
 10 11  1  0
 11 12  1  0
 11 13  2  0
 10 14  1  0
 14 15  1  0
 15 16  2  0
 15 17  1  0
 17 18  1  0
 14 19  1  0
 19 20  2  0
  2 21  1  0
 21 22  2  0
 21 23  1  0
 23 24  1  0
 24 25  1  0
 24 26  1  0
 24 27  1  0
 20  5  1  0
 19  8  1  0
  1 28  1  0
  1 29  1  0
  1 30  1  0
  3 31  1  0
  3 32  1  0
  4 33  1  0
  4 34  1  0
  6 35  1  0
  7 36  1  0
  9 37  1  0
 12 38  1  0
 17 39  1  0
 17 40  1  0
 18 41  1  0
 20 42  1  0
 25 43  1  0
 25 44  1  0
 25 45  1  0
 26 46  1  0
 26 47  1  0
 26 48  1  0
 27 49  1  0
 27 50  1  0
 27 51  1  0
M  CHG  1  12  -1
M  END
>  <UniqueID>  (54) 
54

>  <SMILES>  (54) 
CN(CCc1ccc2cc(C([NH-])=O)n(C(=O)CO)c2c1)C(=O)OC(C)(C)C

>  <Energy>  (54) 
77.66287645097049

>  <Genealogy>  (54) 
CN(CCc1ccc2cc(C([NH-])=O)n(C(=O)CO)c2c1)C(=O)OC(C)(C)C (protonated)
CN(CCc1ccc2cc(C([NH-])=O)n(C(=O)CO)c2c1)C(=O)OC(C)(C)C (3D coordinates assigned)
CN(CCc1ccc2cc(C([NH-])=O)n(C(=O)CO)c2c1)C(=O)OC(C)(C)C (optimized conformer: 77.66287645097049 kcal/mol)

>  <smiles>  (54) 
CN(CCc1ccc2cc(C(N)=O)n(C(=O)CO)c2c1)C(=O)OC(C)(C)C

>  <score_type>  (54) 
oracle

>  <origin>  (54) 
adg

>  <m_score__min__energy>  (54) 
-6.8600000000000003

>  <m_primary>  (54) 
energy

$$$$
54:0
     RDKit          3D

 40 42  0  0  0  0  0  0  0  0999 V2000
  149.2350  157.6940  131.8800 N   0  0  0  0  0  0  0  0  0  0  0  0
  148.7540  158.8050  132.6330 C   0  0  0  0  0  0  0  0  0  0  0  0
  149.5550  159.7180  132.9680 O   0  0  0  0  0  0  0  0  0  0  0  0
  147.3190  158.8950  132.9750 C   0  0  0  0  0  0  0  0  0  0  0  0
  146.6140  160.0970  133.0090 C   0  0  0  0  0  0  0  0  0  0  0  0
  145.3530  159.7680  133.4500 C   0  0  0  0  0  0  0  0  0  0  0  0
  144.2400  160.5760  133.6650 C   0  0  0  0  0  0  0  0  0  0  0  0
  143.0540  159.9630  134.0980 C   0  0  0  0  0  0  0  0  0  0  0  0
  142.9950  158.5600  134.2910 C   0  0  0  0  0  0  0  0  0  0  0  0
  141.7100  157.9040  134.7190 C   0  0  0  0  0  0  0  0  0  0  0  0
  140.6010  158.9140  134.8250 C   0  0  0  0  0  0  0  0  0  0  0  0
  140.2880  159.3670  135.9570 O   0  0  0  0  0  0  0  0  0  0  0  0
  139.8610  159.3510  133.6780 N   0  0  0  0  0  0  0  0  0  0  0  0
  139.6420  158.5380  132.4900 C   0  0  0  0  0  0  0  0  0  0  0  0
  138.3800  158.9000  131.7310 C   0  0  0  0  0  0  0  0  0  0  0  0
  139.7380  159.3420  131.2080 C   0  0  0  0  0  0  0  0  0  0  0  0
  144.1480  157.7740  134.0730 C   0  0  0  0  0  0  0  0  0  0  0  0
  145.3230  158.4140  133.6620 C   0  0  0  0  0  0  0  0  0  0  0  0
  146.5220  157.8630  133.3730 N   0  0  0  0  0  0  0  0  0  0  0  0
  146.8490  156.4650  133.4320 C   0  0  0  0  0  0  0  0  0  0  0  0
  147.2910  155.8770  132.4060 O   0  0  0  0  0  0  0  0  0  0  0  0
  146.6450  155.7540  134.6210 O   0  0  0  0  0  0  0  0  0  0  0  0
  147.4230  154.6240  135.0030 C   0  0  0  0  0  0  0  0  0  0  0  0
  146.6980  153.8160  136.0310 C   0  0  0  0  0  0  0  0  0  0  0  0
  147.3280  152.9890  136.7420 O   0  0  0  0  0  0  0  0  0  0  0  0
  145.3300  153.9720  136.2060 O   0  0  0  0  0  0  0  0  0  0  0  0
  148.5960  157.1490  131.2590 H   0  0  0  0  0  0  0  0  0  0  0  0
  146.9867  161.0964  132.7403 H   0  0  0  0  0  0  0  0  0  0  0  0
  144.2886  161.6625  133.5004 H   0  0  0  0  0  0  0  0  0  0  0  0
  142.1618  160.5772  134.2894 H   0  0  0  0  0  0  0  0  0  0  0  0
  141.4316  157.1399  133.9783 H   0  0  0  0  0  0  0  0  0  0  0  0
  141.8622  157.4443  135.7067 H   0  0  0  0  0  0  0  0  0  0  0  0
  140.0788  157.6005  132.8645 H   0  0  0  0  0  0  0  0  0  0  0  0
  137.8136  158.1199  131.2012 H   0  0  0  0  0  0  0  0  0  0  0  0
  137.4392  159.4110  131.9837 H   0  0  0  0  0  0  0  0  0  0  0  0
  140.1542  158.8818  130.2997 H   0  0  0  0  0  0  0  0  0  0  0  0
  140.1872  160.3055  130.9253 H   0  0  0  0  0  0  0  0  0  0  0  0
  144.1232  156.6845  134.2227 H   0  0  0  0  0  0  0  0  0  0  0  0
  147.6128  153.9987  134.1182 H   0  0  0  0  0  0  0  0  0  0  0  0
  148.3747  154.9736  135.4298 H   0  0  0  0  0  0  0  0  0  0  0  0
  1  2  1  0
  2  3  2  0
  2  4  1  0
  4  5  2  0
  5  6  1  0
  6  7  2  0
  7  8  1  0
  8  9  2  0
  9 10  1  0
 10 11  1  0
 11 12  2  0
 11 13  1  0
 13 14  1  0
 14 15  1  0
 15 16  1  0
  9 17  1  0
 17 18  2  0
 18 19  1  0
 19 20  1  0
 20 21  2  0
 20 22  1  0
 22 23  1  0
 23 24  1  0
 24 25  2  0
 24 26  1  0
 19  4  1  0
 18  6  1  0
 16 14  1  0
  1 27  1  0
  5 28  1  0
  7 29  1  0
  8 30  1  0
 10 31  1  0
 10 32  1  0
 14 33  1  0
 15 34  1  0
 15 35  1  0
 16 36  1  0
 16 37  1  0
 17 38  1  0
 23 39  1  0
 23 40  1  0
M  CHG  3   1  -1  13  -1  26  -1
M  END
>  <UniqueID>  (55) 
55

>  <SMILES>  (55) 
[NH-]C(=O)c1cc2ccc(CC(=O)[N-]C3CC3)cc2n1C(=O)OCC(=O)[O-]

>  <Energy>  (55) 
338.1699320695859

>  <Genealogy>  (55) 
[NH-]C(=O)c1cc2ccc(CC(=O)[N-]C3CC3)cc2n1C(=O)OCC(=O)[O-] (protonated)
[NH-]C(=O)c1cc2ccc(CC(=O)[N-]C3CC3)cc2n1C(=O)OCC(=O)[O-] (3D coordinates assigned)
[NH-]C(=O)c1cc2ccc(CC(=O)[N-]C3CC3)cc2n1C(=O)OCC(=O)[O-] (nonaromatic ring conformer: 338.1699320695859 kcal/mol)

>  <smiles>  (55) 
NC(=O)c1cc2ccc(CC(=O)NC3CC3)cc2n1C(=O)OCC(=O)O

>  <score_type>  (55) 
oracle

>  <origin>  (55) 
adg

>  <m_score__min__energy>  (55) 
-7.3300000000000001

>  <m_primary>  (55) 
energy

$$$$
55:0
     RDKit          3D

 30 31  0  0  0  0  0  0  0  0999 V2000
  148.8790  158.0940  131.6890 N   0  0  0  0  0  0  0  0  0  0  0  0
  148.4160  158.8010  132.8370 C   0  0  0  0  0  0  0  0  0  0  0  0
  149.2560  159.2960  133.6350 O   0  0  0  0  0  0  0  0  0  0  0  0
  146.9730  158.9090  133.1330 C   0  0  0  0  0  0  0  0  0  0  0  0
  146.2850  160.1210  133.1580 C   0  0  0  0  0  0  0  0  0  0  0  0
  145.0050  159.8060  133.5550 C   0  0  0  0  0  0  0  0  0  0  0  0
  143.8950  160.6260  133.7240 C   0  0  0  0  0  0  0  0  0  0  0  0
  142.6830  160.0240  134.1020 C   0  0  0  0  0  0  0  0  0  0  0  0
  142.6030  158.6230  134.3140 C   0  0  0  0  0  0  0  0  0  0  0  0
  141.2830  157.9820  134.6580 C   0  0  0  0  0  0  0  0  0  0  0  0
  140.2780  158.4590  133.8360 F   0  0  0  0  0  0  0  0  0  0  0  0
  141.3860  156.6130  134.4940 F   0  0  0  0  0  0  0  0  0  0  0  0
  140.9340  158.2530  135.9700 F   0  0  0  0  0  0  0  0  0  0  0  0
  143.7500  157.8210  134.1060 C   0  0  0  0  0  0  0  0  0  0  0  0
  144.9480  158.4500  133.7480 C   0  0  0  0  0  0  0  0  0  0  0  0
  146.1490  157.8840  133.4900 N   0  0  0  0  0  0  0  0  0  0  0  0
  146.4480  156.4790  133.4900 C   0  0  0  0  0  0  0  0  0  0  0  0
  147.0480  155.9620  132.5080 O   0  0  0  0  0  0  0  0  0  0  0  0
  146.0910  155.6940  134.5900 O   0  0  0  0  0  0  0  0  0  0  0  0
  146.4340  154.3180  134.6980 C   0  0  0  0  0  0  0  0  0  0  0  0
  147.2190  154.1040  135.9470 C   0  0  0  0  0  0  0  0  0  0  0  0
  148.0740  154.9550  136.3100 O   0  0  0  0  0  0  0  0  0  0  0  0
  146.9690  152.9950  136.7450 O   0  0  0  0  0  0  0  0  0  0  0  0
  148.5340  157.1320  131.4740 H   0  0  0  0  0  0  0  0  0  0  0  0
  146.6808  161.1176  132.9126 H   0  0  0  0  0  0  0  0  0  0  0  0
  143.9635  161.7125  133.5666 H   0  0  0  0  0  0  0  0  0  0  0  0
  141.7855  160.6460  134.2352 H   0  0  0  0  0  0  0  0  0  0  0  0
  143.7013  156.7283  134.2230 H   0  0  0  0  0  0  0  0  0  0  0  0
  145.5167  153.7119  134.7319 H   0  0  0  0  0  0  0  0  0  0  0  0
  147.0362  154.0183  133.8276 H   0  0  0  0  0  0  0  0  0  0  0  0
  1  2  1  0
  2  3  2  0
  2  4  1  0
  4  5  2  0
  5  6  1  0
  6  7  2  0
  7  8  1  0
  8  9  2  0
  9 10  1  0
 10 11  1  0
 10 12  1  0
 10 13  1  0
  9 14  1  0
 14 15  2  0
 15 16  1  0
 16 17  1  0
 17 18  2  0
 17 19  1  0
 19 20  1  0
 20 21  1  0
 21 22  2  0
 21 23  1  0
 16  4  1  0
 15  6  1  0
  1 24  1  0
  5 25  1  0
  7 26  1  0
  8 27  1  0
 14 28  1  0
 20 29  1  0
 20 30  1  0
M  CHG  2   1  -1  23  -1
M  END
>  <UniqueID>  (56) 
56

>  <SMILES>  (56) 
[NH-]C(=O)c1cc2ccc(C(F)(F)F)cc2n1C(=O)OCC(=O)[O-]

>  <Energy>  (56) 
67.06772980709538

>  <Genealogy>  (56) 
[NH-]C(=O)c1cc2ccc(C(F)(F)F)cc2n1C(=O)OCC(=O)[O-] (protonated)
[NH-]C(=O)c1cc2ccc(C(F)(F)F)cc2n1C(=O)OCC(=O)[O-] (3D coordinates assigned)
[NH-]C(=O)c1cc2ccc(C(F)(F)F)cc2n1C(=O)OCC(=O)[O-] (optimized conformer: 67.06772980709538 kcal/mol)

>  <smiles>  (56) 
NC(=O)c1cc2ccc(C(F)(F)F)cc2n1C(=O)OCC(=O)O

>  <score_type>  (56) 
oracle

>  <origin>  (56) 
adg

>  <m_score__min__energy>  (56) 
-5.5

>  <m_primary>  (56) 
energy

$$$$
56:0
     RDKit          3D

 55 58  0  0  0  0  0  0  0  0999 V2000
  139.1300  146.1880  129.3480 C   0  0  0  0  0  0  0  0  0  0  0  0
  139.2430  147.0190  130.3880 C   0  0  0  0  0  0  0  0  0  0  0  0
  139.1700  148.4720  130.2060 C   0  0  0  0  0  0  0  0  0  0  0  0
  138.2770  148.9430  129.4450 O   0  0  0  0  0  0  0  0  0  0  0  0
  140.0330  149.3530  130.9500 N   0  0  0  0  0  0  0  0  0  0  0  0
  139.6200  150.7390  131.2120 C   0  0  0  0  0  0  0  0  0  0  0  0
  140.1530  151.2020  132.5720 C   0  0  0  0  0  0  0  0  0  0  0  0
  141.6070  150.9620  132.6540 N   0  0  0  0  0  0  0  0  0  0  0  0
  142.1840  151.6710  133.8350 C   0  0  0  0  0  0  0  0  0  0  0  0
  141.6760  153.0720  134.0070 C   0  0  0  0  0  0  0  0  0  0  0  0
  142.9740  153.7370  133.7810 N   0  0  0  0  0  0  0  0  0  0  0  0
  143.4690  155.0690  133.6770 C   0  0  0  0  0  0  0  0  0  0  0  0
  142.5970  156.1130  133.2970 C   0  0  0  0  0  0  0  0  0  0  0  0
  143.0830  157.4210  133.1190 C   0  0  0  0  0  0  0  0  0  0  0  0
  144.4420  157.6430  133.3180 C   0  0  0  0  0  0  0  0  0  0  0  0
  145.1990  158.7720  133.0890 C   0  0  0  0  0  0  0  0  0  0  0  0
  146.5150  158.3970  133.3540 C   0  0  0  0  0  0  0  0  0  0  0  0
  147.6730  159.2940  133.1600 C   0  0  0  0  0  0  0  0  0  0  0  0
  149.0150  158.8470  133.3770 N   0  0  0  0  0  0  0  0  0  0  0  0
  147.4720  160.4890  132.8160 O   0  0  0  0  0  0  0  0  0  0  0  0
  146.5650  157.0930  133.7530 N   0  0  0  0  0  0  0  0  0  0  0  0
  147.7280  156.2810  133.9540 C   0  0  0  0  0  0  0  0  0  0  0  0
  148.3890  156.3900  135.0280 O   0  0  0  0  0  0  0  0  0  0  0  0
  148.0920  155.2720  132.9360 C   0  0  0  0  0  0  0  0  0  0  0  0
  148.2000  153.9740  133.2240 C   0  0  0  0  0  0  0  0  0  0  0  0
  145.2910  156.6430  133.7080 C   0  0  0  0  0  0  0  0  0  0  0  0
  144.8350  155.3350  133.8970 C   0  0  0  0  0  0  0  0  0  0  0  0
  143.5100  152.3670  133.6630 C   0  0  0  0  0  0  0  0  0  0  0  0
  141.8830  149.5080  132.5470 C   0  0  0  0  0  0  0  0  0  0  0  0
  141.4390  149.0030  131.1750 C   0  0  0  0  0  0  0  0  0  0  0  0
  139.1873  145.1006  129.5041 H   0  0  0  0  0  0  0  0  0  0  0  0
  138.9797  146.5912  128.3357 H   0  0  0  0  0  0  0  0  0  0  0  0
  139.3932  146.6066  131.3967 H   0  0  0  0  0  0  0  0  0  0  0  0
  140.0204  151.3927  130.4231 H   0  0  0  0  0  0  0  0  0  0  0  0
  138.5212  150.7905  131.2207 H   0  0  0  0  0  0  0  0  0  0  0  0
  139.9540  152.2769  132.6942 H   0  0  0  0  0  0  0  0  0  0  0  0
  139.6486  150.6356  133.3687 H   0  0  0  0  0  0  0  0  0  0  0  0
  142.0449  150.8429  134.5456 H   0  0  0  0  0  0  0  0  0  0  0  0
  140.9218  153.3457  133.2545 H   0  0  0  0  0  0  0  0  0  0  0  0
  141.1509  153.3032  134.9456 H   0  0  0  0  0  0  0  0  0  0  0  0
  141.5291  155.9016  133.1389 H   0  0  0  0  0  0  0  0  0  0  0  0
  142.4100  158.2422  132.8316 H   0  0  0  0  0  0  0  0  0  0  0  0
  144.8402  159.7602  132.7654 H   0  0  0  0  0  0  0  0  0  0  0  0
  149.2210  157.8910  133.7430 H   0  0  0  0  0  0  0  0  0  0  0  0
  149.7960  159.5390  133.3550 H   0  0  0  0  0  0  0  0  0  0  0  0
  148.2805  155.6037  131.9043 H   0  0  0  0  0  0  0  0  0  0  0  0
  148.4732  153.2567  132.4361 H   0  0  0  0  0  0  0  0  0  0  0  0
  148.0158  153.6210  134.2494 H   0  0  0  0  0  0  0  0  0  0  0  0
  145.5235  154.5358  134.2088 H   0  0  0  0  0  0  0  0  0  0  0  0
  143.9694  152.1722  132.6827 H   0  0  0  0  0  0  0  0  0  0  0  0
  144.3216  152.0823  134.3487 H   0  0  0  0  0  0  0  0  0  0  0  0
  142.9613  149.3297  132.6717 H   0  0  0  0  0  0  0  0  0  0  0  0
  141.3286  148.9717  133.3312 H   0  0  0  0  0  0  0  0  0  0  0  0
  142.0606  149.4680  130.3957 H   0  0  0  0  0  0  0  0  0  0  0  0
  141.5527  147.9096  131.1353 H   0  0  0  0  0  0  0  0  0  0  0  0
  1  2  2  0
  2  3  1  0
  3  4  2  0
  3  5  1  0
  5  6  1  0
  6  7  1  0
  7  8  1  0
  8  9  1  0
  9 10  1  0
 10 11  1  0
 11 12  1  0
 12 13  2  0
 13 14  1  0
 14 15  2  0
 15 16  1  0
 16 17  2  0
 17 18  1  0
 18 19  1  0
 18 20  2  0
 17 21  1  0
 21 22  1  0
 22 23  2  0
 22 24  1  0
 24 25  2  0
 21 26  1  0
 26 27  2  0
 11 28  1  0
  8 29  1  0
 29 30  1  0
 30  5  1  0
 28  9  1  0
 27 12  1  0
 26 15  1  0
  1 31  1  0
  1 32  1  0
  2 33  1  0
  6 34  1  0
  6 35  1  0
  7 36  1  0
  7 37  1  0
  9 38  1  0
 10 39  1  0
 10 40  1  0
 13 41  1  0
 14 42  1  0
 16 43  1  0
 19 44  1  0
 19 45  1  0
 24 46  1  0
 25 47  1  0
 25 48  1  0
 27 49  1  0
 28 50  1  0
 28 51  1  0
 29 52  1  0
 29 53  1  0
 30 54  1  0
 30 55  1  0
M  END
>  <UniqueID>  (57) 
57

>  <SMILES>  (57) 
C=CC(=O)N1CCN(C2CN(c3ccc4cc(C(N)=O)n(C(=O)C=C)c4c3)C2)CC1

>  <Energy>  (57) 
158.44220796903457

>  <Genealogy>  (57) 
C=CC(=O)N1CCN(C2CN(c3ccc4cc(C(N)=O)n(C(=O)C=C)c4c3)C2)CC1 (3D coordinates assigned)
C=CC(=O)N1CCN(C2CN(c3ccc4cc(C(N)=O)n(C(=O)C=C)c4c3)C2)CC1 (nonaromatic ring conformer: 158.44220796903457 kcal/mol)

>  <smiles>  (57) 
C=CC(=O)N1CCN(C2CN(c3ccc4cc(C(N)=O)n(C(=O)C=C)c4c3)C2)CC1

>  <score_type>  (57) 
oracle

>  <origin>  (57) 
adg

>  <m_score__min__energy>  (57) 
-9.5899999999999999

>  <m_primary>  (57) 
energy

$$$$
57:0
     RDKit          3D

 37 38  0  0  0  0  0  0  0  0999 V2000
  139.9860  158.2180  135.8720 C   0  0  0  0  0  0  0  0  0  0  0  0
  140.5480  157.8370  134.5000 C   0  0  1  0  0  0  0  0  0  0  0  0
  139.5360  158.0490  133.4530 C   0  0  0  0  0  0  0  0  0  0  0  0
  138.7390  158.2140  132.6290 N   0  0  0  0  0  0  0  0  0  0  0  0
  141.8030  158.6250  134.1900 C   0  0  0  0  0  0  0  0  0  0  0  0
  141.7570  160.0360  134.0310 C   0  0  0  0  0  0  0  0  0  0  0  0
  142.9250  160.7680  133.7510 C   0  0  0  0  0  0  0  0  0  0  0  0
  144.1220  160.0680  133.6420 C   0  0  0  0  0  0  0  0  0  0  0  0
  145.3940  160.5180  133.3630 C   0  0  0  0  0  0  0  0  0  0  0  0
  146.1980  159.3800  133.3730 C   0  0  0  0  0  0  0  0  0  0  0  0
  147.6630  159.4030  133.1840 C   0  0  0  0  0  0  0  0  0  0  0  0
  148.5230  158.9800  134.2400 N   0  0  0  0  0  0  0  0  0  0  0  0
  148.1650  159.7700  132.0880 O   0  0  0  0  0  0  0  0  0  0  0  0
  145.4510  158.2730  133.6420 N   0  0  0  0  0  0  0  0  0  0  0  0
  145.8790  156.9060  133.6750 C   0  0  0  0  0  0  0  0  0  0  0  0
  145.4970  156.1550  134.6120 O   0  0  0  0  0  0  0  0  0  0  0  0
  146.6730  156.3310  132.5410 C   0  0  0  0  0  0  0  0  0  0  0  0
  148.3480  156.0150  133.0660 S   0  0  0  0  0  0  0  0  0  0  0  0
  148.7740  154.3310  132.6860 C   0  0  0  0  0  0  0  0  0  0  0  0
  149.2900  156.9400  132.3470 O   0  0  0  0  0  0  0  0  0  0  0  0
  148.4670  156.2340  134.5480 O   0  0  0  0  0  0  0  0  0  0  0  0
  144.1870  158.7100  133.8090 C   0  0  0  0  0  0  0  0  0  0  0  0
  143.0430  157.9540  134.0800 C   0  0  0  0  0  0  0  0  0  0  0  0
  140.6207  157.7877  136.6606 H   0  0  0  0  0  0  0  0  0  0  0  0
  139.9707  159.3135  135.9706 H   0  0  0  0  0  0  0  0  0  0  0  0
  138.9627  157.8266  135.9706 H   0  0  0  0  0  0  0  0  0  0  0  0
  140.8120  156.7694  134.5234 H   0  0  0  0  0  0  0  0  0  0  0  0
  140.7961  160.5625  134.1281 H   0  0  0  0  0  0  0  0  0  0  0  0
  142.8928  161.8600  133.6223 H   0  0  0  0  0  0  0  0  0  0  0  0
  145.7080  161.5549  133.1729 H   0  0  0  0  0  0  0  0  0  0  0  0
  149.2270  158.2240  134.0870 H   0  0  0  0  0  0  0  0  0  0  0  0
  146.2101  155.3884  132.2136 H   0  0  0  0  0  0  0  0  0  0  0  0
  146.6856  157.0499  131.7086 H   0  0  0  0  0  0  0  0  0  0  0  0
  148.9162  153.7689  133.6208 H   0  0  0  0  0  0  0  0  0  0  0  0
  147.9640  153.8709  132.1011 H   0  0  0  0  0  0  0  0  0  0  0  0
  149.7054  154.3114  132.1011 H   0  0  0  0  0  0  0  0  0  0  0  0
  143.1057  156.8629  134.2048 H   0  0  0  0  0  0  0  0  0  0  0  0
  1  2  1  0
  2  3  1  0
  3  4  3  0
  2  5  1  0
  5  6  2  0
  6  7  1  0
  7  8  2  0
  8  9  1  0
  9 10  2  0
 10 11  1  0
 11 12  1  0
 11 13  2  0
 10 14  1  0
 14 15  1  0
 15 16  2  0
 15 17  1  0
 17 18  1  0
 18 19  1  0
 18 20  2  0
 18 21  2  0
 14 22  1  0
 22 23  2  0
 23  5  1  0
 22  8  1  0
  1 24  1  0
  1 25  1  0
  1 26  1  0
  2 27  1  1
  6 28  1  0
  7 29  1  0
  9 30  1  0
 12 31  1  0
 17 32  1  0
 17 33  1  0
 19 34  1  0
 19 35  1  0
 19 36  1  0
 23 37  1  0
M  CHG  1  12  -1
M  END
>  <UniqueID>  (58) 
58

>  <SMILES>  (58) 
C[C@@H](C#N)c1ccc2cc(C([NH-])=O)n(C(=O)CS(C)(=O)=O)c2c1

>  <Energy>  (58) 
64.99221123591076

>  <Genealogy>  (58) 
CC(C#N)c1ccc2cc(C([NH-])=O)n(C(=O)CS(C)(=O)=O)c2c1 (protonated)
C[C@@H](C#N)c1ccc2cc(C([NH-])=O)n(C(=O)CS(C)(=O)=O)c2c1 (chirality)
C[C@@H](C#N)c1ccc2cc(C([NH-])=O)n(C(=O)CS(C)(=O)=O)c2c1 (3D coordinates assigned)
C[C@@H](C#N)c1ccc2cc(C([NH-])=O)n(C(=O)CS(C)(=O)=O)c2c1 (optimized conformer: 64.99221123591076 kcal/mol)

>  <smiles>  (58) 
CC(C#N)c1ccc2cc(C(N)=O)n(C(=O)CS(C)(=O)=O)c2c1

>  <score_type>  (58) 
oracle

>  <origin>  (58) 
adg

>  <m_score__min__energy>  (58) 
-7.0599999999999996

>  <m_primary>  (58) 
energy

$$$$
58:0
     RDKit          3D

 41 42  0  0  0  0  0  0  0  0999 V2000
  151.2210  149.9660  129.9480 C   0  0  0  0  0  0  0  0  0  0  0  0
  150.0490  150.0580  130.7490 O   0  0  0  0  0  0  0  0  0  0  0  0
  150.0340  150.7050  131.9880 C   0  0  0  0  0  0  0  0  0  0  0  0
  151.1030  151.1290  132.5060 O   0  0  0  0  0  0  0  0  0  0  0  0
  148.7290  150.9360  132.6820 C   0  0  0  0  0  0  0  0  0  0  0  0
  148.1430  152.2860  132.2830 C   0  0  0  0  0  0  0  0  0  0  0  0
  148.4530  153.2480  133.2870 O   0  0  0  0  0  0  0  0  0  0  0  0
  148.8390  154.5570  132.9860 C   0  0  0  0  0  0  0  0  0  0  0  0
  149.8630  154.7720  132.2810 O   0  0  0  0  0  0  0  0  0  0  0  0
  148.0550  155.6590  133.4660 N   0  0  0  0  0  0  0  0  0  0  0  0
  146.9710  155.6120  134.2910 C   0  0  0  0  0  0  0  0  0  0  0  0
  146.4790  154.4200  135.0120 C   0  0  0  0  0  0  0  0  0  0  0  0
  147.3540  153.6460  135.8310 N   0  0  0  0  0  0  0  0  0  0  0  0
  145.2610  154.1080  134.9450 O   0  0  0  0  0  0  0  0  0  0  0  0
  146.4120  156.8790  134.4390 C   0  0  0  0  0  0  0  0  0  0  0  0
  147.1980  157.7150  133.6800 C   0  0  0  0  0  0  0  0  0  0  0  0
  147.0860  159.0840  133.4490 C   0  0  0  0  0  0  0  0  0  0  0  0
  148.0180  159.6850  132.5870 C   0  0  0  0  0  0  0  0  0  0  0  0
  149.0390  158.9130  131.9770 C   0  0  0  0  0  0  0  0  0  0  0  0
  150.0030  159.5600  131.0180 C   0  0  0  0  0  0  0  0  0  0  0  0
  149.2480  160.3450  129.9430 C   0  0  0  0  0  0  0  0  0  0  0  0
  149.0330  161.6630  130.3660 O   0  0  0  0  0  0  0  0  0  0  0  0
  149.1130  157.5240  132.2250 C   0  0  0  0  0  0  0  0  0  0  0  0
  148.1830  156.9550  133.1020 C   0  0  0  0  0  0  0  0  0  0  0  0
  152.1052  149.8966  130.5986 H   0  0  0  0  0  0  0  0  0  0  0  0
  151.1617  149.0697  129.3130 H   0  0  0  0  0  0  0  0  0  0  0  0
  151.3023  150.8605  129.3130 H   0  0  0  0  0  0  0  0  0  0  0  0
  148.0244  150.1388  132.4026 H   0  0  0  0  0  0  0  0  0  0  0  0
  148.8982  150.9291  133.7689 H   0  0  0  0  0  0  0  0  0  0  0  0
  148.5745  152.6047  131.3227 H   0  0  0  0  0  0  0  0  0  0  0  0
  147.0513  152.1985  132.1804 H   0  0  0  0  0  0  0  0  0  0  0  0
  148.0290  152.9710  135.4080 H   0  0  0  0  0  0  0  0  0  0  0  0
  145.5296  157.1530  135.0359 H   0  0  0  0  0  0  0  0  0  0  0  0
  146.2919  159.6764  133.9270 H   0  0  0  0  0  0  0  0  0  0  0  0
  147.9553  160.7642  132.3834 H   0  0  0  0  0  0  0  0  0  0  0  0
  150.6592  160.2465  131.5731 H   0  0  0  0  0  0  0  0  0  0  0  0
  150.5992  158.7746  130.5306 H   0  0  0  0  0  0  0  0  0  0  0  0
  149.8403  160.3532  129.0161 H   0  0  0  0  0  0  0  0  0  0  0  0
  148.2756  159.8630  129.7638 H   0  0  0  0  0  0  0  0  0  0  0  0
  148.2560  162.0040  129.8520 H   0  0  0  0  0  0  0  0  0  0  0  0
  149.8827  156.9052  131.7406 H   0  0  0  0  0  0  0  0  0  0  0  0
  1  2  1  0
  2  3  1  0
  3  4  2  0
  3  5  1  0
  5  6  1  0
  6  7  1  0
  7  8  1  0
  8  9  2  0
  8 10  1  0
 10 11  1  0
 11 12  1  0
 12 13  1  0
 12 14  2  0
 11 15  2  0
 15 16  1  0
 16 17  2  0
 17 18  1  0
 18 19  2  0
 19 20  1  0
 20 21  1  0
 21 22  1  0
 19 23  1  0
 23 24  2  0
 24 10  1  0
 24 16  1  0
  1 25  1  0
  1 26  1  0
  1 27  1  0
  5 28  1  0
  5 29  1  0
  6 30  1  0
  6 31  1  0
 13 32  1  0
 15 33  1  0
 17 34  1  0
 18 35  1  0
 20 36  1  0
 20 37  1  0
 21 38  1  0
 21 39  1  0
 22 40  1  0
 23 41  1  0
M  CHG  1  13  -1
M  END
>  <UniqueID>  (59) 
59

>  <SMILES>  (59) 
COC(=O)CCOC(=O)n1c(C([NH-])=O)cc2ccc(CCO)cc21

>  <Energy>  (59) 
69.10783840814216

>  <Genealogy>  (59) 
COC(=O)CCOC(=O)n1c(C([NH-])=O)cc2ccc(CCO)cc21 (protonated)
COC(=O)CCOC(=O)n1c(C([NH-])=O)cc2ccc(CCO)cc21 (3D coordinates assigned)
COC(=O)CCOC(=O)n1c(C([NH-])=O)cc2ccc(CCO)cc21 (optimized conformer: 69.10783840814216 kcal/mol)

>  <smiles>  (59) 
COC(=O)CCOC(=O)n1c(C(N)=O)cc2ccc(CCO)cc21

>  <score_type>  (59) 
oracle

>  <origin>  (59) 
adg

>  <m_score__min__energy>  (59) 
-6.5599999999999996

>  <m_primary>  (59) 
energy

$$$$
59:0
     RDKit          3D

 34 35  0  0  0  0  0  0  0  0999 V2000
  150.2890  159.9320  130.0790 C   0  0  0  0  0  0  0  0  0  0  0  0
  149.2430  159.8620  131.1060 N   0  0  0  0  0  0  0  0  0  0  0  0
  148.1160  160.7980  131.0560 C   0  0  0  0  0  0  0  0  0  0  0  0
  149.3040  158.8040  132.0890 C   0  0  0  0  0  0  0  0  0  0  0  0
  150.0780  157.8260  131.8970 O   0  0  0  0  0  0  0  0  0  0  0  0
  148.4930  158.8150  133.3290 C   0  0  0  0  0  0  0  0  0  0  0  0
  148.9290  159.3690  134.3720 O   0  0  0  0  0  0  0  0  0  0  0  0
  147.2360  158.1230  133.3760 N   0  0  0  0  0  0  0  0  0  0  0  0
  145.9840  158.6560  133.4530 C   0  0  0  0  0  0  0  0  0  0  0  0
  145.6600  160.0860  133.6440 C   0  0  0  0  0  0  0  0  0  0  0  0
  146.6920  161.0650  133.7340 N   0  0  0  0  0  0  0  0  0  0  0  0
  144.4590  160.4440  133.7660 O   0  0  0  0  0  0  0  0  0  0  0  0
  145.0210  157.6490  133.3980 C   0  0  0  0  0  0  0  0  0  0  0  0
  145.7300  156.4730  133.2960 C   0  0  0  0  0  0  0  0  0  0  0  0
  145.2800  155.1610  133.1910 C   0  0  0  0  0  0  0  0  0  0  0  0
  146.2400  154.1420  133.0710 C   0  0  0  0  0  0  0  0  0  0  0  0
  147.6270  154.4470  133.0730 C   0  0  0  0  0  0  0  0  0  0  0  0
  148.6450  153.3510  132.8850 C   0  0  0  0  0  0  0  0  0  0  0  0
  148.1240  152.3850  132.0440 F   0  0  0  0  0  0  0  0  0  0  0  0
  148.9640  152.7680  134.0990 F   0  0  0  0  0  0  0  0  0  0  0  0
  149.8080  153.8550  132.3280 F   0  0  0  0  0  0  0  0  0  0  0  0
  148.0430  155.7960  133.1570 C   0  0  0  0  0  0  0  0  0  0  0  0
  147.0630  156.7870  133.2880 C   0  0  0  0  0  0  0  0  0  0  0  0
  151.2745  159.9980  130.5632 H   0  0  0  0  0  0  0  0  0  0  0  0
  150.2483  159.0291  129.4520 H   0  0  0  0  0  0  0  0  0  0  0  0
  150.1283  160.8214  129.4520 H   0  0  0  0  0  0  0  0  0  0  0  0
  147.8069  161.0547  132.0800 H   0  0  0  0  0  0  0  0  0  0  0  0
  148.4215  161.7118  130.5252 H   0  0  0  0  0  0  0  0  0  0  0  0
  147.2739  160.3299  130.5252 H   0  0  0  0  0  0  0  0  0  0  0  0
  147.4880  160.9460  134.4000 H   0  0  0  0  0  0  0  0  0  0  0  0
  143.9280  157.7686  133.4294 H   0  0  0  0  0  0  0  0  0  0  0  0
  144.2050  154.9282  133.2016 H   0  0  0  0  0  0  0  0  0  0  0  0
  145.9135  153.0960  132.9744 H   0  0  0  0  0  0  0  0  0  0  0  0
  149.1102  156.0600  133.1203 H   0  0  0  0  0  0  0  0  0  0  0  0
  1  2  1  0
  2  3  1  0
  2  4  1  0
  4  5  2  0
  4  6  1  0
  6  7  2  0
  6  8  1  0
  8  9  1  0
  9 10  1  0
 10 11  1  0
 10 12  2  0
  9 13  2  0
 13 14  1  0
 14 15  2  0
 15 16  1  0
 16 17  2  0
 17 18  1  0
 18 19  1  0
 18 20  1  0
 18 21  1  0
 17 22  1  0
 22 23  2  0
 23  8  1  0
 23 14  1  0
  1 24  1  0
  1 25  1  0
  1 26  1  0
  3 27  1  0
  3 28  1  0
  3 29  1  0
 11 30  1  0
 13 31  1  0
 15 32  1  0
 16 33  1  0
 22 34  1  0
M  CHG  1  11  -1
M  END
>  <UniqueID>  (60) 
60

>  <SMILES>  (60) 
CN(C)C(=O)C(=O)n1c(C([NH-])=O)cc2ccc(C(F)(F)F)cc21

>  <Energy>  (60) 
74.64048630869105

>  <Genealogy>  (60) 
CN(C)C(=O)C(=O)n1c(C([NH-])=O)cc2ccc(C(F)(F)F)cc21 (protonated)
CN(C)C(=O)C(=O)n1c(C([NH-])=O)cc2ccc(C(F)(F)F)cc21 (3D coordinates assigned)
CN(C)C(=O)C(=O)n1c(C([NH-])=O)cc2ccc(C(F)(F)F)cc21 (optimized conformer: 74.64048630869105 kcal/mol)

>  <smiles>  (60) 
CN(C)C(=O)C(=O)n1c(C(N)=O)cc2ccc(C(F)(F)F)cc21

>  <score_type>  (60) 
oracle

>  <origin>  (60) 
adg

>  <m_score__min__energy>  (60) 
-6.1299999999999999

>  <m_primary>  (60) 
energy

$$$$
60:0
     RDKit          3D

 35 36  0  0  0  0  0  0  0  0999 V2000
  145.8680  154.3310  133.3070 C   0  0  0  0  0  0  0  0  0  0  0  0
  145.4680  154.6030  134.7600 C   0  0  2  0  0  0  0  0  0  0  0  0
  144.7900  155.8930  134.8680 N   0  0  0  0  0  0  0  0  0  0  0  0
  143.5310  156.2870  134.2970 C   0  0  0  0  0  0  0  0  0  0  0  0
  142.4870  155.7400  134.7390 O   0  0  0  0  0  0  0  0  0  0  0  0
  143.3950  157.2920  133.2150 C   0  0  0  0  0  0  0  0  0  0  0  0
  142.6660  157.0750  132.2120 O   0  0  0  0  0  0  0  0  0  0  0  0
  144.0980  158.5400  133.3030 N   0  0  0  0  0  0  0  0  0  0  0  0
  143.5730  159.7770  133.5310 C   0  0  0  0  0  0  0  0  0  0  0  0
  142.1350  160.1040  133.6220 C   0  0  0  0  0  0  0  0  0  0  0  0
  141.2090  159.6230  132.6510 N   0  0  0  0  0  0  0  0  0  0  0  0
  141.7190  160.8400  134.5560 O   0  0  0  0  0  0  0  0  0  0  0  0
  144.5900  160.7250  133.6300 C   0  0  0  0  0  0  0  0  0  0  0  0
  145.7630  160.0240  133.4590 C   0  0  0  0  0  0  0  0  0  0  0  0
  147.0830  160.4620  133.4810 C   0  0  0  0  0  0  0  0  0  0  0  0
  148.0970  159.5050  133.3070 C   0  0  0  0  0  0  0  0  0  0  0  0
  147.7770  158.1370  133.1220 C   0  0  0  0  0  0  0  0  0  0  0  0
  148.8780  157.1280  132.9520 C   0  0  0  0  0  0  0  0  0  0  0  0
  148.3540  155.9430  132.4730 F   0  0  0  0  0  0  0  0  0  0  0  0
  149.8150  157.6090  132.0570 F   0  0  0  0  0  0  0  0  0  0  0  0
  146.4250  157.7290  133.1090 C   0  0  0  0  0  0  0  0  0  0  0  0
  145.4370  158.7060  133.2680 C   0  0  0  0  0  0  0  0  0  0  0  0
  146.6950  154.6270  135.6220 C   0  0  0  0  0  0  0  0  0  0  0  0
  146.9620  153.6510  136.3720 O   0  0  0  0  0  0  0  0  0  0  0  0
  147.5680  155.7080  135.5670 O   0  0  0  0  0  0  0  0  0  0  0  0
  146.7775  153.7125  133.2867 H   0  0  0  0  0  0  0  0  0  0  0  0
  145.0519  153.7998  132.7953 H   0  0  0  0  0  0  0  0  0  0  0  0
  146.0620  155.2852  132.7953 H   0  0  0  0  0  0  0  0  0  0  0  0
  144.7873  153.8053  135.0920 H   0  0  0  0  0  0  0  0  0  0  0  0
  141.5040  158.9430  131.9150 H   0  0  0  0  0  0  0  0  0  0  0  0
  144.4791  161.8049  133.8073 H   0  0  0  0  0  0  0  0  0  0  0  0
  147.3255  161.5245  133.6300 H   0  0  0  0  0  0  0  0  0  0  0  0
  149.1506  159.8211  133.3145 H   0  0  0  0  0  0  0  0  0  0  0  0
  149.3575  156.9496  133.9258 H   0  0  0  0  0  0  0  0  0  0  0  0
  146.1561  156.6705  132.9773 H   0  0  0  0  0  0  0  0  0  0  0  0
  1  2  1  0
  2  3  1  0
  3  4  1  0
  4  5  2  0
  4  6  1  0
  6  7  2  0
  6  8  1  0
  8  9  1  0
  9 10  1  0
 10 11  1  0
 10 12  2  0
  9 13  2  0
 13 14  1  0
 14 15  2  0
 15 16  1  0
 16 17  2  0
 17 18  1  0
 18 19  1  0
 18 20  1  0
 17 21  1  0
 21 22  2  0
  2 23  1  0
 23 24  2  0
 23 25  1  0
 22  8  1  0
 22 14  1  0
  1 26  1  0
  1 27  1  0
  1 28  1  0
  2 29  1  1
 11 30  1  0
 13 31  1  0
 15 32  1  0
 16 33  1  0
 18 34  1  0
 21 35  1  0
M  CHG  3   3  -1  11  -1  25  -1
M  END
>  <UniqueID>  (61) 
61

>  <SMILES>  (61) 
C[C@H]([N-]C(=O)C(=O)n1c(C([NH-])=O)cc2ccc(C(F)F)cc21)C(=O)[O-]

>  <Energy>  (61) 
73.25973940735423

>  <Genealogy>  (61) 
CC([N-]C(=O)C(=O)n1c(C([NH-])=O)cc2ccc(C(F)F)cc21)C(=O)[O-] (protonated)
C[C@H]([N-]C(=O)C(=O)n1c(C([NH-])=O)cc2ccc(C(F)F)cc21)C(=O)[O-] (chirality)
C[C@H]([N-]C(=O)C(=O)n1c(C([NH-])=O)cc2ccc(C(F)F)cc21)C(=O)[O-] (3D coordinates assigned)
C[C@H]([N-]C(=O)C(=O)n1c(C([NH-])=O)cc2ccc(C(F)F)cc21)C(=O)[O-] (optimized conformer: 73.25973940735423 kcal/mol)

>  <smiles>  (61) 
CC(NC(=O)C(=O)n1c(C(N)=O)cc2ccc(C(F)F)cc21)C(=O)O

>  <score_type>  (61) 
oracle

>  <origin>  (61) 
adg

>  <m_score__min__energy>  (61) 
-6.9400000000000004

>  <m_primary>  (61) 
energy

$$$$
61:0
     RDKit          3D

 42 44  0  0  0  0  0  0  0  0999 V2000
  139.3320  147.0620  130.0560 C   0  0  0  0  0  0  0  0  0  0  0  0
  139.4480  148.3270  130.8400 C   0  0  0  0  0  0  0  0  0  0  0  0
  140.5460  148.7160  131.5770 C   0  0  0  0  0  0  0  0  0  0  0  0
  140.2260  149.8650  132.1970 N   0  0  0  0  0  0  0  0  0  0  0  0
  141.0420  150.5990  133.1600 C   0  0  0  0  0  0  0  0  0  0  0  0
  141.7760  151.7540  132.4720 C   0  0  0  0  0  0  0  0  0  0  0  0
  141.8650  152.9160  133.3560 N   0  0  0  0  0  0  0  0  0  0  0  0
  140.8910  153.9640  133.3580 C   0  0  0  0  0  0  0  0  0  0  0  0
  139.8380  153.8650  132.6690 O   0  0  0  0  0  0  0  0  0  0  0  0
  141.1000  155.1290  134.1650 N   0  0  0  0  0  0  0  0  0  0  0  0
  141.8860  155.2520  135.2680 C   0  0  0  0  0  0  0  0  0  0  0  0
  142.6690  154.1690  135.9000 C   0  0  0  0  0  0  0  0  0  0  0  0
  144.0450  154.3490  136.2320 N   0  0  0  0  0  0  0  0  0  0  0  0
  142.1180  153.0590  136.1410 O   0  0  0  0  0  0  0  0  0  0  0  0
  141.8650  156.5720  135.7290 C   0  0  0  0  0  0  0  0  0  0  0  0
  141.0440  157.2520  134.8550 C   0  0  0  0  0  0  0  0  0  0  0  0
  140.7060  158.6000  134.8020 C   0  0  0  0  0  0  0  0  0  0  0  0
  139.8790  159.0320  133.7530 C   0  0  0  0  0  0  0  0  0  0  0  0
  139.3800  158.1100  132.7930 C   0  0  0  0  0  0  0  0  0  0  0  0
  138.5540  158.6000  131.6290 C   0  0  0  0  0  0  0  0  0  0  0  0
  137.2180  158.6100  131.9900 F   0  0  0  0  0  0  0  0  0  0  0  0
  138.7150  157.7740  130.5300 F   0  0  0  0  0  0  0  0  0  0  0  0
  138.9310  159.8820  131.2670 F   0  0  0  0  0  0  0  0  0  0  0  0
  139.7580  156.7490  132.8750 C   0  0  0  0  0  0  0  0  0  0  0  0
  140.5920  156.3540  133.9220 C   0  0  0  0  0  0  0  0  0  0  0  0
  138.9490  150.1370  131.8450 C   0  0  0  0  0  0  0  0  0  0  0  0
  138.4330  149.2060  131.0120 N   0  0  0  0  0  0  0  0  0  0  0  0
  139.2538  146.2089  130.7460 H   0  0  0  0  0  0  0  0  0  0  0  0
  138.4340  147.1045  129.4222 H   0  0  0  0  0  0  0  0  0  0  0  0
  140.2228  146.9405  129.4222 H   0  0  0  0  0  0  0  0  0  0  0  0
  141.5066  148.1844  131.6452 H   0  0  0  0  0  0  0  0  0  0  0  0
  140.3929  151.0028  133.9510 H   0  0  0  0  0  0  0  0  0  0  0  0
  141.7851  149.9128  133.5923 H   0  0  0  0  0  0  0  0  0  0  0  0
  142.7914  151.4267  132.2040 H   0  0  0  0  0  0  0  0  0  0  0  0
  141.2142  152.0402  131.5706 H   0  0  0  0  0  0  0  0  0  0  0  0
  142.6600  152.9740  134.0300 H   0  0  0  0  0  0  0  0  0  0  0  0
  144.3300  154.8450  137.1070 H   0  0  0  0  0  0  0  0  0  0  0  0
  142.3919  156.9811  136.6037 H   0  0  0  0  0  0  0  0  0  0  0  0
  141.0757  159.3068  135.5595 H   0  0  0  0  0  0  0  0  0  0  0  0
  139.6140  160.0966  133.6730 H   0  0  0  0  0  0  0  0  0  0  0  0
  139.4032  156.0200  132.1316 H   0  0  0  0  0  0  0  0  0  0  0  0
  138.3922  151.0178  132.1973 H   0  0  0  0  0  0  0  0  0  0  0  0
  1  2  1  0
  2  3  2  0
  3  4  1  0
  4  5  1  0
  5  6  1  0
  6  7  1  0
  7  8  1  0
  8  9  2  0
  8 10  1  0
 10 11  1  0
 11 12  1  0
 12 13  1  0
 12 14  2  0
 11 15  2  0
 15 16  1  0
 16 17  2  0
 17 18  1  0
 18 19  2  0
 19 20  1  0
 20 21  1  0
 20 22  1  0
 20 23  1  0
 19 24  1  0
 24 25  2  0
  4 26  1  0
 26 27  2  0
 27  2  1  0
 25 10  1  0
 25 16  1  0
  1 28  1  0
  1 29  1  0
  1 30  1  0
  3 31  1  0
  5 32  1  0
  5 33  1  0
  6 34  1  0
  6 35  1  0
  7 36  1  0
 13 37  1  0
 15 38  1  0
 17 39  1  0
 18 40  1  0
 24 41  1  0
 26 42  1  0
M  CHG  1  13  -1
M  END
>  <UniqueID>  (62) 
62

>  <SMILES>  (62) 
Cc1cn(CCNC(=O)n2c(C([NH-])=O)cc3ccc(C(F)(F)F)cc32)cn1

>  <Energy>  (62) 
107.01808880103856

>  <Genealogy>  (62) 
Cc1cn(CCNC(=O)n2c(C([NH-])=O)cc3ccc(C(F)(F)F)cc32)cn1 (protonated)
Cc1cn(CCNC(=O)n2c(C([NH-])=O)cc3ccc(C(F)(F)F)cc32)cn1 (3D coordinates assigned)
Cc1cn(CCNC(=O)n2c(C([NH-])=O)cc3ccc(C(F)(F)F)cc32)cn1 (optimized conformer: 107.01808880103856 kcal/mol)

>  <smiles>  (62) 
Cc1cn(CCNC(=O)n2c(C(N)=O)cc3ccc(C(F)(F)F)cc32)cn1

>  <score_type>  (62) 
oracle

>  <origin>  (62) 
adg

>  <m_score__min__energy>  (62) 
-7.6900000000000004

>  <m_primary>  (62) 
energy

$$$$
62:0
     RDKit          3D

 38 39  0  0  0  0  0  0  0  0999 V2000
  143.1990  161.4220  133.7150 N   0  0  0  0  0  0  0  0  0  0  0  0
  144.6030  161.4900  133.9550 C   0  0  0  0  0  0  0  0  0  0  0  0
  145.0860  162.5210  134.4960 O   0  0  0  0  0  0  0  0  0  0  0  0
  145.4870  160.3530  133.6240 C   0  0  0  0  0  0  0  0  0  0  0  0
  146.8620  160.4790  133.4330 C   0  0  0  0  0  0  0  0  0  0  0  0
  147.3220  159.1970  133.2390 C   0  0  0  0  0  0  0  0  0  0  0  0
  148.6110  158.7370  132.9870 C   0  0  0  0  0  0  0  0  0  0  0  0
  148.7920  157.3560  132.7950 C   0  0  0  0  0  0  0  0  0  0  0  0
  147.6910  156.4680  132.8630 C   0  0  0  0  0  0  0  0  0  0  0  0
  147.8890  155.0030  132.6080 C   0  0  0  0  0  0  0  0  0  0  0  0
  149.2410  154.7150  132.6060 F   0  0  0  0  0  0  0  0  0  0  0  0
  146.3950  156.9730  133.1060 C   0  0  0  0  0  0  0  0  0  0  0  0
  146.2470  158.3500  133.3100 C   0  0  0  0  0  0  0  0  0  0  0  0
  145.1120  159.0450  133.5420 N   0  0  0  0  0  0  0  0  0  0  0  0
  143.7840  158.5070  133.6100 C   0  0  0  0  0  0  0  0  0  0  0  0
  143.3000  157.9010  132.6160 O   0  0  0  0  0  0  0  0  0  0  0  0
  143.0180  158.6510  134.8100 N   0  0  0  0  0  0  0  0  0  0  0  0
  142.3150  157.5480  135.4590 C   0  0  0  0  0  0  0  0  0  0  0  0
  140.8010  157.6190  135.2060 C   0  0  0  0  0  0  0  0  0  0  0  0
  140.3260  158.9680  134.6380 C   0  0  0  0  0  0  0  0  0  0  0  0
  140.2540  158.9770  133.1070 C   0  0  0  0  0  0  0  0  0  0  0  0
  141.2400  159.8230  132.5820 O   0  0  0  0  0  0  0  0  0  0  0  0
  142.6710  160.5330  133.8610 H   0  0  0  0  0  0  0  0  0  0  0  0
  147.4536  161.4064  133.4366 H   0  0  0  0  0  0  0  0  0  0  0  0
  149.4620  159.4324  132.9395 H   0  0  0  0  0  0  0  0  0  0  0  0
  149.7982  156.9617  132.5900 H   0  0  0  0  0  0  0  0  0  0  0  0
  147.3915  154.4225  133.3989 H   0  0  0  0  0  0  0  0  0  0  0  0
  147.4560  154.7386  131.6320 H   0  0  0  0  0  0  0  0  0  0  0  0
  145.5241  156.3017  133.1343 H   0  0  0  0  0  0  0  0  0  0  0  0
  142.6994  156.5966  135.0628 H   0  0  0  0  0  0  0  0  0  0  0  0
  142.4876  157.6188  136.5431 H   0  0  0  0  0  0  0  0  0  0  0  0
  140.5320  156.8280  134.4905 H   0  0  0  0  0  0  0  0  0  0  0  0
  140.3082  157.4920  136.1812 H   0  0  0  0  0  0  0  0  0  0  0  0
  139.3244  159.1844  135.0380 H   0  0  0  0  0  0  0  0  0  0  0  0
  141.0598  159.7302  134.9390 H   0  0  0  0  0  0  0  0  0  0  0  0
  140.4125  157.9560  132.7296 H   0  0  0  0  0  0  0  0  0  0  0  0
  139.2642  159.3424  132.7960 H   0  0  0  0  0  0  0  0  0  0  0  0
  142.0700  159.6480  133.0980 H   0  0  0  0  0  0  0  0  0  0  0  0
  1  2  1  0
  2  3  2  0
  2  4  1  0
  4  5  2  0
  5  6  1  0
  6  7  2  0
  7  8  1  0
  8  9  2  0
  9 10  1  0
 10 11  1  0
  9 12  1  0
 12 13  2  0
 13 14  1  0
 14 15  1  0
 15 16  2  0
 15 17  1  0
 17 18  1  0
 18 19  1  0
 19 20  1  0
 20 21  1  0
 21 22  1  0
 14  4  1  0
 13  6  1  0
  1 23  1  0
  5 24  1  0
  7 25  1  0
  8 26  1  0
 10 27  1  0
 10 28  1  0
 12 29  1  0
 18 30  1  0
 18 31  1  0
 19 32  1  0
 19 33  1  0
 20 34  1  0
 20 35  1  0
 21 36  1  0
 21 37  1  0
 22 38  1  0
M  CHG  2   1  -1  17  -1
M  END
>  <UniqueID>  (63) 
63

>  <SMILES>  (63) 
[NH-]C(=O)c1cc2ccc(CF)cc2n1C(=O)[N-]CCCCO

>  <Energy>  (63) 
69.53646116568859

>  <Genealogy>  (63) 
[NH-]C(=O)c1cc2ccc(CF)cc2n1C(=O)[N-]CCCCO (protonated)
[NH-]C(=O)c1cc2ccc(CF)cc2n1C(=O)[N-]CCCCO (3D coordinates assigned)
[NH-]C(=O)c1cc2ccc(CF)cc2n1C(=O)[N-]CCCCO (optimized conformer: 69.53646116568859 kcal/mol)

>  <smiles>  (63) 
NC(=O)c1cc2ccc(CF)cc2n1C(=O)NCCCCO

>  <score_type>  (63) 
oracle

>  <origin>  (63) 
adg

>  <m_score__min__energy>  (63) 
-5.6799999999999997

>  <m_primary>  (63) 
energy

$$$$
63:0
     RDKit          3D

 39 40  0  0  0  0  0  0  0  0999 V2000
  144.6440  154.4030  131.2820 C   0  0  0  0  0  0  0  0  0  0  0  0
  145.4680  153.6210  132.2230 N   0  0  2  0  0  0  0  0  0  0  0  0
  145.4180  152.1620  131.9620 C   0  0  0  0  0  0  0  0  0  0  0  0
  146.7320  151.4060  132.2420 C   0  0  0  0  0  0  0  0  0  0  0  0
  147.6570  152.2530  132.8670 O   0  0  0  0  0  0  0  0  0  0  0  0
  145.1500  153.9230  133.6070 C   0  0  0  0  0  0  0  0  0  0  0  0
  145.2130  153.0210  134.4890 O   0  0  0  0  0  0  0  0  0  0  0  0
  144.7950  155.2970  134.0220 C   0  0  0  0  0  0  0  0  0  0  0  0
  143.6990  155.5190  134.6030 O   0  0  0  0  0  0  0  0  0  0  0  0
  145.6890  156.3890  133.7590 N   0  0  0  0  0  0  0  0  0  0  0  0
  147.0410  156.3390  133.6030 C   0  0  0  0  0  0  0  0  0  0  0  0
  147.8620  155.1110  133.5870 C   0  0  0  0  0  0  0  0  0  0  0  0
  148.4470  154.6630  132.3660 N   0  0  0  0  0  0  0  0  0  0  0  0
  148.0410  154.4410  134.6380 O   0  0  0  0  0  0  0  0  0  0  0  0
  147.5550  157.6220  133.4100 C   0  0  0  0  0  0  0  0  0  0  0  0
  146.4650  158.4620  133.4590 C   0  0  0  0  0  0  0  0  0  0  0  0
  146.3940  159.8490  133.3570 C   0  0  0  0  0  0  0  0  0  0  0  0
  145.1330  160.4560  133.4850 C   0  0  0  0  0  0  0  0  0  0  0  0
  143.9680  159.6730  133.7020 C   0  0  0  0  0  0  0  0  0  0  0  0
  142.6300  160.3380  133.8980 C   0  0  0  0  0  0  0  0  0  0  0  0
  142.7370  161.7080  133.7280 F   0  0  0  0  0  0  0  0  0  0  0  0
  142.1750  160.0770  135.1760 F   0  0  0  0  0  0  0  0  0  0  0  0
  141.7070  159.8600  132.9840 F   0  0  0  0  0  0  0  0  0  0  0  0
  144.0880  158.2690  133.8260 C   0  0  0  0  0  0  0  0  0  0  0  0
  145.3520  157.6930  133.6750 C   0  0  0  0  0  0  0  0  0  0  0  0
  143.9593  155.0528  131.8468 H   0  0  0  0  0  0  0  0  0  0  0  0
  145.2974  155.0211  130.6488 H   0  0  0  0  0  0  0  0  0  0  0  0
  144.0609  153.7182  130.6488 H   0  0  0  0  0  0  0  0  0  0  0  0
  146.4560  153.9230  132.0490 H   0  0  0  0  0  0  0  0  0  0  0  0
  144.6322  151.7281  132.5978 H   0  0  0  0  0  0  0  0  0  0  0  0
  145.2205  152.0482  130.8859 H   0  0  0  0  0  0  0  0  0  0  0  0
  146.5242  150.5482  132.8985 H   0  0  0  0  0  0  0  0  0  0  0  0
  147.1542  151.0571  131.2881 H   0  0  0  0  0  0  0  0  0  0  0  0
  147.1970  152.6250  133.6630 H   0  0  0  0  0  0  0  0  0  0  0  0
  147.9070  154.0700  131.6980 H   0  0  0  0  0  0  0  0  0  0  0  0
  148.6069  157.9025  133.2523 H   0  0  0  0  0  0  0  0  0  0  0  0
  147.2976  160.4513  133.1815 H   0  0  0  0  0  0  0  0  0  0  0  0
  145.0472  161.5505  133.4163 H   0  0  0  0  0  0  0  0  0  0  0  0
  143.2067  157.6452  134.0364 H   0  0  0  0  0  0  0  0  0  0  0  0
  1  2  1  0
  2  3  1  0
  3  4  1  0
  4  5  1  0
  2  6  1  0
  6  7  2  0
  6  8  1  0
  8  9  2  0
  8 10  1  0
 10 11  1  0
 11 12  1  0
 12 13  1  0
 12 14  2  0
 11 15  2  0
 15 16  1  0
 16 17  2  0
 17 18  1  0
 18 19  2  0
 19 20  1  0
 20 21  1  0
 20 22  1  0
 20 23  1  0
 19 24  1  0
 24 25  2  0
 25 10  1  0
 25 16  1  0
  1 26  1  0
  1 27  1  0
  1 28  1  0
  2 29  1  6
  3 30  1  0
  3 31  1  0
  4 32  1  0
  4 33  1  0
  5 34  1  0
 13 35  1  0
 15 36  1  0
 17 37  1  0
 18 38  1  0
 24 39  1  0
M  CHG  2   2   1  13  -1
M  END
>  <UniqueID>  (64) 
64

>  <SMILES>  (64) 
C[N@H+](CCO)C(=O)C(=O)n1c(C([NH-])=O)cc2ccc(C(F)(F)F)cc21

>  <Energy>  (64) 
82.25977185344311

>  <Genealogy>  (64) 
C[NH+](CCO)C(=O)C(=O)n1c(C([NH-])=O)cc2ccc(C(F)(F)F)cc21 (protonated)
C[N@H+](CCO)C(=O)C(=O)n1c(C([NH-])=O)cc2ccc(C(F)(F)F)cc21 (chirality)
C[N@H+](CCO)C(=O)C(=O)n1c(C([NH-])=O)cc2ccc(C(F)(F)F)cc21 (3D coordinates assigned)
C[N@H+](CCO)C(=O)C(=O)n1c(C([NH-])=O)cc2ccc(C(F)(F)F)cc21 (optimized conformer: 82.25977185344311 kcal/mol)

>  <smiles>  (64) 
CN(CCO)C(=O)C(=O)n1c(C(N)=O)cc2ccc(C(F)(F)F)cc21

>  <score_type>  (64) 
oracle

>  <origin>  (64) 
adg

>  <m_score__min__energy>  (64) 
-4.7699999999999996

>  <m_primary>  (64) 
energy

$$$$
64:0
     RDKit          3D

 43 44  0  0  0  0  0  0  0  0999 V2000
  146.9390  153.4710  133.0240 C   0  0  0  0  0  0  0  0  0  0  0  0
  148.0100  154.4630  132.8580 N   0  0  0  0  0  0  0  0  0  0  0  0
  149.3690  153.9930  132.5600 C   0  0  0  0  0  0  0  0  0  0  0  0
  147.7300  155.8840  132.9920 C   0  0  0  0  0  0  0  0  0  0  0  0
  148.7860  156.8430  132.9900 C   0  0  0  0  0  0  0  0  0  0  0  0
  148.5210  158.2170  133.1090 C   0  0  0  0  0  0  0  0  0  0  0  0
  147.1990  158.6190  133.2430 C   0  0  0  0  0  0  0  0  0  0  0  0
  146.6610  159.8830  133.3500 C   0  0  0  0  0  0  0  0  0  0  0  0
  145.2830  159.6910  133.4420 C   0  0  0  0  0  0  0  0  0  0  0  0
  144.3130  160.7920  133.6220 C   0  0  0  0  0  0  0  0  0  0  0  0
  142.9260  160.5990  133.3620 N   0  0  0  0  0  0  0  0  0  0  0  0
  144.7110  161.9130  134.0390 O   0  0  0  0  0  0  0  0  0  0  0  0
  144.9850  158.3630  133.3950 N   0  0  0  0  0  0  0  0  0  0  0  0
  143.6860  157.7500  133.4000 C   0  0  0  0  0  0  0  0  0  0  0  0
  142.9450  157.8510  132.3860 O   0  0  0  0  0  0  0  0  0  0  0  0
  143.2190  156.9920  134.5680 C   0  0  0  0  0  0  0  0  0  0  0  0
  143.9880  156.1610  135.1270 O   0  0  0  0  0  0  0  0  0  0  0  0
  141.9250  157.2040  135.0540 O   0  0  0  0  0  0  0  0  0  0  0  0
  140.7490  156.9860  134.2740 C   0  0  0  0  0  0  0  0  0  0  0  0
  140.1460  158.3130  133.7880 C   0  0  1  0  0  0  0  0  0  0  0  0
  140.9820  159.3640  134.2020 O   0  0  0  0  0  0  0  0  0  0  0  0
  140.0050  158.3290  132.2570 C   0  0  0  0  0  0  0  0  0  0  0  0
  140.8060  159.3330  131.6970 O   0  0  0  0  0  0  0  0  0  0  0  0
  146.1680  157.7220  133.2670 C   0  0  0  0  0  0  0  0  0  0  0  0
  146.3950  156.3490  133.1270 C   0  0  0  0  0  0  0  0  0  0  0  0
  146.7577  153.3031  134.0959 H   0  0  0  0  0  0  0  0  0  0  0  0
  146.0184  153.8425  132.5502 H   0  0  0  0  0  0  0  0  0  0  0  0
  147.2391  152.5247  132.5502 H   0  0  0  0  0  0  0  0  0  0  0  0
  149.9072  153.8069  133.5011 H   0  0  0  0  0  0  0  0  0  0  0  0
  149.3153  153.0612  131.9778 H   0  0  0  0  0  0  0  0  0  0  0  0
  149.9024  154.7589  131.9778 H   0  0  0  0  0  0  0  0  0  0  0  0
  149.8267  156.5001  132.8935 H   0  0  0  0  0  0  0  0  0  0  0  0
  149.3377  158.9537  133.0964 H   0  0  0  0  0  0  0  0  0  0  0  0
  147.2033  160.8400  133.3606 H   0  0  0  0  0  0  0  0  0  0  0  0
  142.6010  159.8620  132.6980 H   0  0  0  0  0  0  0  0  0  0  0  0
  141.0077  156.3691  133.4008 H   0  0  0  0  0  0  0  0  0  0  0  0
  140.0046  156.4771  134.9040 H   0  0  0  0  0  0  0  0  0  0  0  0
  139.1412  158.4312  134.2197 H   0  0  0  0  0  0  0  0  0  0  0  0
  141.8250  159.2860  133.6830 H   0  0  0  0  0  0  0  0  0  0  0  0
  140.3156  157.3531  131.8554 H   0  0  0  0  0  0  0  0  0  0  0  0
  138.9544  158.5301  132.0004 H   0  0  0  0  0  0  0  0  0  0  0  0
  141.6810  159.2910  132.1630 H   0  0  0  0  0  0  0  0  0  0  0  0
  145.5532  155.6409  133.1216 H   0  0  0  0  0  0  0  0  0  0  0  0
  1  2  1  0
  2  3  1  0
  2  4  1  0
  4  5  2  0
  5  6  1  0
  6  7  2  0
  7  8  1  0
  8  9  2  0
  9 10  1  0
 10 11  1  0
 10 12  2  0
  9 13  1  0
 13 14  1  0
 14 15  2  0
 14 16  1  0
 16 17  2  0
 16 18  1  0
 18 19  1  0
 19 20  1  0
 20 21  1  0
 20 22  1  0
 22 23  1  0
 13 24  1  0
 24 25  2  0
 25  4  1  0
 24  7  1  0
  1 26  1  0
  1 27  1  0
  1 28  1  0
  3 29  1  0
  3 30  1  0
  3 31  1  0
  5 32  1  0
  6 33  1  0
  8 34  1  0
 11 35  1  0
 19 36  1  0
 19 37  1  0
 20 38  1  1
 21 39  1  0
 22 40  1  0
 22 41  1  0
 23 42  1  0
 25 43  1  0
M  CHG  1  11  -1
M  END
>  <UniqueID>  (65) 
65

>  <SMILES>  (65) 
CN(C)c1ccc2cc(C([NH-])=O)n(C(=O)C(=O)OC[C@@H](O)CO)c2c1

>  <Energy>  (65) 
77.34346155731032

>  <Genealogy>  (65) 
CN(C)c1ccc2cc(C([NH-])=O)n(C(=O)C(=O)OCC(O)CO)c2c1 (protonated)
CN(C)c1ccc2cc(C([NH-])=O)n(C(=O)C(=O)OC[C@@H](O)CO)c2c1 (chirality)
CN(C)c1ccc2cc(C([NH-])=O)n(C(=O)C(=O)OC[C@@H](O)CO)c2c1 (3D coordinates assigned)
CN(C)c1ccc2cc(C([NH-])=O)n(C(=O)C(=O)OC[C@@H](O)CO)c2c1 (optimized conformer: 77.34346155731032 kcal/mol)

>  <smiles>  (65) 
CN(C)c1ccc2cc(C(N)=O)n(C(=O)C(=O)OCC(O)CO)c2c1

>  <score_type>  (65) 
oracle

>  <origin>  (65) 
adg

>  <m_score__min__energy>  (65) 
-5.0499999999999998

>  <m_primary>  (65) 
energy

$$$$
65:0
     RDKit          3D

 39 40  0  0  0  0  0  0  0  0999 V2000
  145.4510  154.5480  137.3160 H   0  0  0  0  0  0  0  0  0  0  0  0
  145.5360  154.2530  136.3320 N   0  0  0  0  0  0  0  0  0  0  0  0
  144.5610  154.2840  135.5530 N   0  0  0  0  0  0  0  0  0  0  0  0
  143.2570  154.7370  135.9830 C   0  0  0  0  0  0  0  0  0  0  0  0
  142.8013  153.9691  136.6254 H   0  0  0  0  0  0  0  0  0  0  0  0
  143.3747  155.6784  136.5398 H   0  0  0  0  0  0  0  0  0  0  0  0
  142.3470  154.9880  134.7750 C   0  0  0  0  0  0  0  0  0  0  0  0
  142.8801  154.7006  133.8567 H   0  0  0  0  0  0  0  0  0  0  0  0
  141.4330  154.3874  134.8928 H   0  0  0  0  0  0  0  0  0  0  0  0
  141.9680  156.4100  134.6880 N   0  0  0  0  0  0  0  0  0  0  0  0
  142.9130  157.4140  134.2380 C   0  0  0  0  0  0  0  0  0  0  0  0
  142.4710  158.7290  133.9150 C   0  0  0  0  0  0  0  0  0  0  0  0
  141.4036  158.9791  134.0053 H   0  0  0  0  0  0  0  0  0  0  0  0
  143.3770  159.7110  133.4830 C   0  0  0  0  0  0  0  0  0  0  0  0
  143.0330  160.7224  133.2210 H   0  0  0  0  0  0  0  0  0  0  0  0
  144.7210  159.3680  133.3960 C   0  0  0  0  0  0  0  0  0  0  0  0
  145.8020  160.1110  132.9770 C   0  0  0  0  0  0  0  0  0  0  0  0
  145.8013  161.1566  132.6355 H   0  0  0  0  0  0  0  0  0  0  0  0
  146.8960  159.2560  133.0780 C   0  0  0  0  0  0  0  0  0  0  0  0
  148.2770  159.6480  132.7290 C   0  0  0  0  0  0  0  0  0  0  0  0
  148.4660  160.6330  131.9670 O   0  0  0  0  0  0  0  0  0  0  0  0
  149.4060  158.9630  133.2750 N   0  0  0  0  0  0  0  0  0  0  0  0
  149.3000  158.2810  134.0560 H   0  0  0  0  0  0  0  0  0  0  0  0
  150.3710  159.2200  132.9670 H   0  0  0  0  0  0  0  0  0  0  0  0
  146.5090  158.0350  133.5400 N   0  0  0  0  0  0  0  0  0  0  0  0
  147.3140  156.8490  133.6490 C   0  0  0  0  0  0  0  0  0  0  0  0
  148.0150  156.6710  134.6810 O   0  0  0  0  0  0  0  0  0  0  0  0
  147.3340  155.8230  132.5890 C   0  0  0  0  0  0  0  0  0  0  0  0
  146.8054  156.0289  131.6465 H   0  0  0  0  0  0  0  0  0  0  0  0
  147.9650  154.6580  132.7250 C   0  0  0  0  0  0  0  0  0  0  0  0
  147.9503  153.9255  131.9045 H   0  0  0  0  0  0  0  0  0  0  0  0
  148.5008  154.4283  133.6578 H   0  0  0  0  0  0  0  0  0  0  0  0
  145.1720  158.1170  133.7190 C   0  0  0  0  0  0  0  0  0  0  0  0
  144.2910  157.1070  134.1180 C   0  0  0  0  0  0  0  0  0  0  0  0
  144.6606  156.0938  134.3345 H   0  0  0  0  0  0  0  0  0  0  0  0
  140.6080  156.8130  135.0670 C   0  0  0  0  0  0  0  0  0  0  0  0
  140.5250  156.8376  136.1636 H   0  0  0  0  0  0  0  0  0  0  0  0
  140.3952  157.8128  134.6607 H   0  0  0  0  0  0  0  0  0  0  0  0
  139.8848  156.0905  134.6607 H   0  0  0  0  0  0  0  0  0  0  0  0
  1  2  1  0
  2  3  2  0
  3  4  1  0
  4  5  1  0
  4  6  1  0
  4  7  1  0
  7  8  1  0
  7  9  1  0
  7 10  1  0
 10 11  1  0
 11 12  2  0
 12 13  1  0
 12 14  1  0
 14 15  1  0
 14 16  2  0
 16 17  1  0
 17 18  1  0
 17 19  2  0
 19 20  1  0
 20 21  2  0
 20 22  1  0
 22 23  1  0
 22 24  1  0
 19 25  1  0
 25 26  1  0
 26 27  2  0
 26 28  1  0
 28 29  1  0
 28 30  2  0
 30 31  1  0
 30 32  1  0
 25 33  1  0
 33 34  2  0
 34 35  1  0
 10 36  1  0
 36 37  1  0
 36 38  1  0
 36 39  1  0
 34 11  1  0
 33 16  1  0
M  END
>  <UniqueID>  (66) 
66

>  <SMILES>  (66) 
[H]/N=N\CCN(C)c1ccc2cc(C(N)=O)n(C(=O)C=C)c2c1

>  <Energy>  (66) 
77.15364213452135

>  <Genealogy>  (66) 
[H]/N=N\CCN(C)c1ccc2cc(C(N)=O)n(C(=O)C=C)c2c1 (cis-trans isomerization)
[H]/N=N\CCN(C)c1ccc2cc(C(N)=O)n(C(=O)C=C)c2c1 (3D coordinates assigned)
[H]/N=N\CCN(C)c1ccc2cc(C(N)=O)n(C(=O)C=C)c2c1 (optimized conformer: 77.15364213452135 kcal/mol)

>  <smiles>  (66) 
C=CC(=O)n1c(C(N)=O)cc2ccc(N(C)CCN=N)cc21

>  <score_type>  (66) 
oracle

>  <origin>  (66) 
adg

>  <m_score__min__energy>  (66) 
-6.7999999999999998

>  <m_primary>  (66) 
energy

$$$$
66:0
     RDKit          3D

 30 31  0  0  0  0  0  0  0  0999 V2000
  148.5200  160.4840  130.3580 C   0  0  0  0  0  0  0  0  0  0  0  0
  149.1070  160.3850  131.6490 O   0  0  0  0  0  0  0  0  0  0  0  0
  149.2170  159.1720  132.3350 C   0  0  0  0  0  0  0  0  0  0  0  0
  149.9240  158.2360  131.8710 O   0  0  0  0  0  0  0  0  0  0  0  0
  148.4930  158.9880  133.6010 C   0  0  0  0  0  0  0  0  0  0  0  0
  149.1020  159.1390  134.6930 O   0  0  0  0  0  0  0  0  0  0  0  0
  147.1000  158.6400  133.6080 N   0  0  0  0  0  0  0  0  0  0  0  0
  146.5480  157.4090  133.4190 C   0  0  0  0  0  0  0  0  0  0  0  0
  147.2900  156.1370  133.2860 C   0  0  0  0  0  0  0  0  0  0  0  0
  148.7140  156.1060  133.3530 N   0  0  0  0  0  0  0  0  0  0  0  0
  146.6580  155.0580  133.1380 O   0  0  0  0  0  0  0  0  0  0  0  0
  145.1570  157.4950  133.4150 C   0  0  0  0  0  0  0  0  0  0  0  0
  144.8720  158.8290  133.6040 C   0  0  0  0  0  0  0  0  0  0  0  0
  143.6460  159.4850  133.6650 C   0  0  0  0  0  0  0  0  0  0  0  0
  143.6540  160.8790  133.8370 C   0  0  0  0  0  0  0  0  0  0  0  0
  144.8770  161.5880  133.9370 C   0  0  0  0  0  0  0  0  0  0  0  0
  144.8620  163.0810  134.1050 C   0  0  0  0  0  0  0  0  0  0  0  0
  145.1310  163.4050  135.4220 F   0  0  0  0  0  0  0  0  0  0  0  0
  143.6190  163.5760  133.7570 F   0  0  0  0  0  0  0  0  0  0  0  0
  146.1020  160.8890  133.8670 C   0  0  0  0  0  0  0  0  0  0  0  0
  146.0620  159.4980  133.7140 C   0  0  0  0  0  0  0  0  0  0  0  0
  147.4399  160.6662  130.4593 H   0  0  0  0  0  0  0  0  0  0  0  0
  148.9823  161.3169  129.8079 H   0  0  0  0  0  0  0  0  0  0  0  0
  148.6836  159.5456  129.8079 H   0  0  0  0  0  0  0  0  0  0  0  0
  149.2620  156.9740  133.5400 H   0  0  0  0  0  0  0  0  0  0  0  0
  144.4388  156.6716  133.2878 H   0  0  0  0  0  0  0  0  0  0  0  0
  142.7004  158.9292  133.5811 H   0  0  0  0  0  0  0  0  0  0  0  0
  142.7014  161.4259  133.8947 H   0  0  0  0  0  0  0  0  0  0  0  0
  145.6298  163.5245  133.4540 H   0  0  0  0  0  0  0  0  0  0  0  0
  147.0616  161.4230  133.9310 H   0  0  0  0  0  0  0  0  0  0  0  0
  1  2  1  0
  2  3  1  0
  3  4  2  0
  3  5  1  0
  5  6  2  0
  5  7  1  0
  7  8  1  0
  8  9  1  0
  9 10  1  0
  9 11  2  0
  8 12  2  0
 12 13  1  0
 13 14  2  0
 14 15  1  0
 15 16  2  0
 16 17  1  0
 17 18  1  0
 17 19  1  0
 16 20  1  0
 20 21  2  0
 21  7  1  0
 21 13  1  0
  1 22  1  0
  1 23  1  0
  1 24  1  0
 10 25  1  0
 12 26  1  0
 14 27  1  0
 15 28  1  0
 17 29  1  0
 20 30  1  0
M  CHG  1  10  -1
M  END
>  <UniqueID>  (67) 
67

>  <SMILES>  (67) 
COC(=O)C(=O)n1c(C([NH-])=O)cc2ccc(C(F)F)cc21

>  <Energy>  (67) 
67.04268745789548

>  <Genealogy>  (67) 
COC(=O)C(=O)n1c(C([NH-])=O)cc2ccc(C(F)F)cc21 (protonated)
COC(=O)C(=O)n1c(C([NH-])=O)cc2ccc(C(F)F)cc21 (3D coordinates assigned)
COC(=O)C(=O)n1c(C([NH-])=O)cc2ccc(C(F)F)cc21 (optimized conformer: 67.04268745789548 kcal/mol)

>  <smiles>  (67) 
COC(=O)C(=O)n1c(C(N)=O)cc2ccc(C(F)F)cc21

>  <score_type>  (67) 
oracle

>  <origin>  (67) 
adg

>  <m_score__min__energy>  (67) 
-5.3600000000000003

>  <m_primary>  (67) 
energy

$$$$
67:0
     RDKit          3D

 28 30  0  0  0  0  0  0  0  0999 V2000
  142.8870  161.2390  133.6920 N   0  0  0  0  0  0  0  0  0  0  0  0
  144.2950  161.4500  133.7430 C   0  0  0  0  0  0  0  0  0  0  0  0
  144.7390  162.6250  133.8420 O   0  0  0  0  0  0  0  0  0  0  0  0
  145.2380  160.3200  133.6230 C   0  0  0  0  0  0  0  0  0  0  0  0
  146.6060  160.4830  133.4110 C   0  0  0  0  0  0  0  0  0  0  0  0
  147.1060  159.2090  133.2660 C   0  0  0  0  0  0  0  0  0  0  0  0
  148.4100  158.7820  133.0460 C   0  0  0  0  0  0  0  0  0  0  0  0
  148.6480  157.4000  132.9670 C   0  0  0  0  0  0  0  0  0  0  0  0
  147.5850  156.4670  133.1130 C   0  0  0  0  0  0  0  0  0  0  0  0
  147.8390  155.0040  133.0420 C   0  0  0  0  0  0  0  0  0  0  0  0
  146.9430  153.9760  133.3440 C   0  0  0  0  0  0  0  0  0  0  0  0
  147.4460  152.7220  133.1920 N   0  0  0  0  0  0  0  0  0  0  0  0
  148.7290  152.7100  132.7740 C   0  0  0  0  0  0  0  0  0  0  0  0
  149.2930  154.2790  132.5780 S   0  0  0  0  0  0  0  0  0  0  0  0
  146.2720  156.9480  133.3400 C   0  0  0  0  0  0  0  0  0  0  0  0
  146.0620  158.3310  133.3960 C   0  0  0  0  0  0  0  0  0  0  0  0
  144.9070  158.9970  133.6180 N   0  0  0  0  0  0  0  0  0  0  0  0
  143.6240  158.4120  133.8950 C   0  0  0  0  0  0  0  0  0  0  0  0
  143.0910  158.5540  135.0260 O   0  0  0  0  0  0  0  0  0  0  0  0
  142.9490  157.7060  132.9070 O   0  0  0  0  0  0  0  0  0  0  0  0
  142.4790  160.2930  133.8670 H   0  0  0  0  0  0  0  0  0  0  0  0
  147.1665  161.4285  133.3686 H   0  0  0  0  0  0  0  0  0  0  0  0
  149.2317  159.5051  132.9369 H   0  0  0  0  0  0  0  0  0  0  0  0
  149.6703  157.0346  132.7898 H   0  0  0  0  0  0  0  0  0  0  0  0
  145.9123  154.1658  133.6782 H   0  0  0  0  0  0  0  0  0  0  0  0
  146.8950  151.8550  133.3820 H   0  0  0  0  0  0  0  0  0  0  0  0
  149.3209  151.8017  132.5882 H   0  0  0  0  0  0  0  0  0  0  0  0
  145.4334  156.2481  133.4698 H   0  0  0  0  0  0  0  0  0  0  0  0
  1  2  1  0
  2  3  2  0
  2  4  1  0
  4  5  2  0
  5  6  1  0
  6  7  2  0
  7  8  1  0
  8  9  2  0
  9 10  1  0
 10 11  2  0
 11 12  1  0
 12 13  2  0
 13 14  1  0
  9 15  1  0
 15 16  2  0
 16 17  1  0
 17 18  1  0
 18 19  2  0
 18 20  1  0
 17  4  1  0
 16  6  1  0
 14 10  1  0
  1 21  1  0
  5 22  1  0
  7 23  1  0
  8 24  1  0
 11 25  1  0
 12 26  1  0
 13 27  1  0
 15 28  1  0
M  CHG  3   1  -1  12   1  20  -1
M  END
>  <UniqueID>  (68) 
68

>  <SMILES>  (68) 
[NH-]C(=O)c1cc2ccc(-c3c[nH+]cs3)cc2n1C(=O)[O-]

>  <Energy>  (68) 
102.24608988094953

>  <Genealogy>  (68) 
[NH-]C(=O)c1cc2ccc(-c3c[nH+]cs3)cc2n1C(=O)[O-] (protonated)
[NH-]C(=O)c1cc2ccc(-c3c[nH+]cs3)cc2n1C(=O)[O-] (3D coordinates assigned)
[NH-]C(=O)c1cc2ccc(-c3c[nH+]cs3)cc2n1C(=O)[O-] (optimized conformer: 102.24608988094953 kcal/mol)

>  <smiles>  (68) 
NC(=O)c1cc2ccc(-c3cncs3)cc2n1C(=O)O

>  <score_type>  (68) 
oracle

>  <origin>  (68) 
adg

>  <m_score__min__energy>  (68) 
-6.5800000000000001

>  <m_primary>  (68) 
energy

$$$$
68:0
     RDKit          3D

 42 44  0  0  0  0  0  0  0  0999 V2000
  148.9520  157.3290  131.8950 N   0  0  0  0  0  0  0  0  0  0  0  0
  148.6190  158.5240  132.6030 C   0  0  0  0  0  0  0  0  0  0  0  0
  149.5400  159.2790  133.0110 O   0  0  0  0  0  0  0  0  0  0  0  0
  147.2160  158.8470  132.9280 C   0  0  0  0  0  0  0  0  0  0  0  0
  146.7420  160.1490  133.0500 C   0  0  0  0  0  0  0  0  0  0  0  0
  145.4310  160.0200  133.4480 C   0  0  0  0  0  0  0  0  0  0  0  0
  144.4820  160.9990  133.7160 C   0  0  0  0  0  0  0  0  0  0  0  0
  143.1950  160.5830  134.0920 C   0  0  0  0  0  0  0  0  0  0  0  0
  142.8730  159.2040  134.1840 C   0  0  0  0  0  0  0  0  0  0  0  0
  141.5460  158.7870  134.5780 N   0  0  0  0  0  0  0  0  0  0  0  0
  141.3100  158.2280  135.9160 C   0  0  0  0  0  0  0  0  0  0  0  0
  139.8520  158.4510  136.3340 C   0  0  0  0  0  0  0  0  0  0  0  0
  138.8960  157.8730  135.3710 N   0  0  0  0  0  0  0  0  0  0  0  0
  139.3320  157.9100  133.9590 C   0  0  0  0  0  0  0  0  0  0  0  0
  140.4020  158.9720  133.6770 C   0  0  0  0  0  0  0  0  0  0  0  0
  143.8670  158.2390  133.8940 C   0  0  0  0  0  0  0  0  0  0  0  0
  145.1500  158.6820  133.5440 C   0  0  0  0  0  0  0  0  0  0  0  0
  146.2380  157.9460  133.2230 N   0  0  0  0  0  0  0  0  0  0  0  0
  146.3060  156.5150  133.0840 C   0  0  0  0  0  0  0  0  0  0  0  0
  145.3590  155.8850  132.5410 O   0  0  0  0  0  0  0  0  0  0  0  0
  147.4340  155.8260  133.5480 O   0  0  0  0  0  0  0  0  0  0  0  0
  147.6040  154.4160  133.4160 C   0  0  0  0  0  0  0  0  0  0  0  0
  148.8290  154.0960  132.6160 C   0  0  0  0  0  0  0  0  0  0  0  0
  149.6100  155.0190  132.2590 O   0  0  0  0  0  0  0  0  0  0  0  0
  149.1330  152.7780  132.3020 O   0  0  0  0  0  0  0  0  0  0  0  0
  148.2260  156.6080  131.6910 H   0  0  0  0  0  0  0  0  0  0  0  0
  149.9460  157.1190  131.6570 H   0  0  0  0  0  0  0  0  0  0  0  0
  147.2961  161.0816  132.8675 H   0  0  0  0  0  0  0  0  0  0  0  0
  144.7316  162.0673  133.6360 H   0  0  0  0  0  0  0  0  0  0  0  0
  142.4258  161.3361  134.3183 H   0  0  0  0  0  0  0  0  0  0  0  0
  141.5227  157.1489  135.9015 H   0  0  0  0  0  0  0  0  0  0  0  0
  141.9708  158.7317  136.6368 H   0  0  0  0  0  0  0  0  0  0  0  0
  139.6906  157.9828  137.3162 H   0  0  0  0  0  0  0  0  0  0  0  0
  139.6760  159.5362  136.3708 H   0  0  0  0  0  0  0  0  0  0  0  0
  137.9950  158.3990  135.4580 H   0  0  0  0  0  0  0  0  0  0  0  0
  139.7420  156.9240  133.6952 H   0  0  0  0  0  0  0  0  0  0  0  0
  138.4504  158.1703  133.3548 H   0  0  0  0  0  0  0  0  0  0  0  0
  140.7410  158.8791  132.6347 H   0  0  0  0  0  0  0  0  0  0  0  0
  139.9709  159.9703  133.8427 H   0  0  0  0  0  0  0  0  0  0  0  0
  143.6376  157.1643  133.9422 H   0  0  0  0  0  0  0  0  0  0  0  0
  147.7013  153.9701  134.4168 H   0  0  0  0  0  0  0  0  0  0  0  0
  146.7273  154.0045  132.8945 H   0  0  0  0  0  0  0  0  0  0  0  0
  1  2  1  0
  2  3  2  0
  2  4  1  0
  4  5  2  0
  5  6  1  0
  6  7  2  0
  7  8  1  0
  8  9  2  0
  9 10  1  0
 10 11  1  0
 11 12  1  0
 12 13  1  0
 13 14  1  0
 14 15  1  0
  9 16  1  0
 16 17  2  0
 17 18  1  0
 18 19  1  0
 19 20  2  0
 19 21  1  0
 21 22  1  0
 22 23  1  0
 23 24  2  0
 23 25  1  0
 18  4  1  0
 17  6  1  0
 15 10  1  0
  1 26  1  0
  1 27  1  0
  5 28  1  0
  7 29  1  0
  8 30  1  0
 11 31  1  0
 11 32  1  0
 12 33  1  0
 12 34  1  0
 13 35  1  0
 14 36  1  0
 14 37  1  0
 15 38  1  0
 15 39  1  0
 16 40  1  0
 22 41  1  0
 22 42  1  0
M  CHG  1  25  -1
M  END
>  <UniqueID>  (69) 
69

>  <SMILES>  (69) 
NC(=O)c1cc2ccc(N3CCNCC3)cc2n1C(=O)OCC(=O)[O-]

>  <Energy>  (69) 
88.0265451741361

>  <Genealogy>  (69) 
NC(=O)c1cc2ccc(N3CCNCC3)cc2n1C(=O)OCC(=O)[O-] (protonated)
NC(=O)c1cc2ccc(N3CCNCC3)cc2n1C(=O)OCC(=O)[O-] (3D coordinates assigned)
NC(=O)c1cc2ccc(N3CCNCC3)cc2n1C(=O)OCC(=O)[O-] (nonaromatic ring conformer: 88.0265451741361 kcal/mol)

>  <smiles>  (69) 
NC(=O)c1cc2ccc(N3CCNCC3)cc2n1C(=O)OCC(=O)O

>  <score_type>  (69) 
oracle

>  <origin>  (69) 
adg

>  <m_score__min__energy>  (69) 
-7.5999999999999996

>  <m_primary>  (69) 
energy

$$$$
69:0
     RDKit          3D

 46 48  0  0  0  0  0  0  0  0999 V2000
  144.5890  155.1120  133.1750 C   0  0  0  0  0  0  0  0  0  0  0  0
  145.7640  155.5850  132.7660 C   0  0  0  0  0  0  0  0  0  0  0  0
  146.5320  156.5730  133.5460 C   0  0  0  0  0  0  0  0  0  0  0  0
  147.3760  156.1950  134.4040 O   0  0  0  0  0  0  0  0  0  0  0  0
  146.3300  157.9770  133.3230 N   0  0  0  0  0  0  0  0  0  0  0  0
  147.2120  158.8700  132.7960 C   0  0  0  0  0  0  0  0  0  0  0  0
  148.5370  158.5470  132.2230 C   0  0  0  0  0  0  0  0  0  0  0  0
  149.2600  157.3940  132.6460 N   0  0  0  0  0  0  0  0  0  0  0  0
  149.0240  159.2830  131.3230 O   0  0  0  0  0  0  0  0  0  0  0  0
  146.6720  160.1550  132.8120 C   0  0  0  0  0  0  0  0  0  0  0  0
  145.4210  160.0180  133.3700 C   0  0  0  0  0  0  0  0  0  0  0  0
  144.4540  160.9780  133.6440 C   0  0  0  0  0  0  0  0  0  0  0  0
  143.2620  160.5560  134.2580 C   0  0  0  0  0  0  0  0  0  0  0  0
  143.0620  159.1910  134.5870 C   0  0  0  0  0  0  0  0  0  0  0  0
  141.8020  158.7660  135.2400 C   0  0  0  0  0  0  0  0  0  0  0  0
  141.7570  158.6810  136.6430 C   0  0  0  0  0  0  0  0  0  0  0  0
  140.5970  158.2550  137.2930 C   0  0  0  0  0  0  0  0  0  0  0  0
  139.4670  157.9110  136.5520 C   0  0  0  0  0  0  0  0  0  0  0  0
  139.4900  157.9990  135.1590 C   0  0  0  0  0  0  0  0  0  0  0  0
  140.6480  158.4250  134.4880 C   0  0  0  0  0  0  0  0  0  0  0  0
  140.6200  158.5570  133.0530 N   0  0  0  0  0  0  0  0  0  0  0  0
  141.5840  157.8230  132.2310 C   0  0  0  0  0  0  0  0  0  0  0  0
  139.7310  159.4990  132.4250 C   0  0  0  0  0  0  0  0  0  0  0  0
  139.9140  160.7390  132.5730 O   0  0  0  0  0  0  0  0  0  0  0  0
  138.6590  159.0360  131.6540 O   0  0  0  0  0  0  0  0  0  0  0  0
  137.9480  159.8710  130.7500 C   0  0  0  0  0  0  0  0  0  0  0  0
  144.0740  158.2470  134.3030 C   0  0  0  0  0  0  0  0  0  0  0  0
  145.2400  158.6940  133.6730 C   0  0  0  0  0  0  0  0  0  0  0  0
  144.0491  154.3754  132.5619 H   0  0  0  0  0  0  0  0  0  0  0  0
  144.1579  155.4577  134.1261 H   0  0  0  0  0  0  0  0  0  0  0  0
  146.1770  155.2260  131.8118 H   0  0  0  0  0  0  0  0  0  0  0  0
  149.2360  157.0800  133.6410 H   0  0  0  0  0  0  0  0  0  0  0  0
  147.1450  161.0816  132.4547 H   0  0  0  0  0  0  0  0  0  0  0  0
  144.6165  162.0354  133.3882 H   0  0  0  0  0  0  0  0  0  0  0  0
  142.4766  161.2917  134.4855 H   0  0  0  0  0  0  0  0  0  0  0  0
  142.6441  158.9527  137.2340 H   0  0  0  0  0  0  0  0  0  0  0  0
  140.5745  158.1907  138.3909 H   0  0  0  0  0  0  0  0  0  0  0  0
  138.5562  157.5698  137.0658 H   0  0  0  0  0  0  0  0  0  0  0  0
  138.5927  157.7322  134.5814 H   0  0  0  0  0  0  0  0  0  0  0  0
  142.2886  157.2865  132.8834 H   0  0  0  0  0  0  0  0  0  0  0  0
  141.0497  157.1010  131.5960 H   0  0  0  0  0  0  0  0  0  0  0  0
  142.1379  158.5301  131.5960 H   0  0  0  0  0  0  0  0  0  0  0  0
  137.3369  160.5887  131.3170 H   0  0  0  0  0  0  0  0  0  0  0  0
  138.6622  160.4176  130.1166 H   0  0  0  0  0  0  0  0  0  0  0  0
  137.2946  159.2530  130.1166 H   0  0  0  0  0  0  0  0  0  0  0  0
  143.9482  157.1875  134.5705 H   0  0  0  0  0  0  0  0  0  0  0  0
  1  2  2  0
  2  3  1  0
  3  4  2  0
  3  5  1  0
  5  6  1  0
  6  7  1  0
  7  8  1  0
  7  9  2  0
  6 10  2  0
 10 11  1  0
 11 12  2  0
 12 13  1  0
 13 14  2  0
 14 15  1  0
 15 16  2  0
 16 17  1  0
 17 18  2  0
 18 19  1  0
 19 20  2  0
 20 21  1  0
 21 22  1  0
 21 23  1  0
 23 24  2  0
 23 25  1  0
 25 26  1  0
 14 27  1  0
 27 28  2  0
 28  5  1  0
 28 11  1  0
 20 15  1  0
  1 29  1  0
  1 30  1  0
  2 31  1  0
  8 32  1  0
 10 33  1  0
 12 34  1  0
 13 35  1  0
 16 36  1  0
 17 37  1  0
 18 38  1  0
 19 39  1  0
 22 40  1  0
 22 41  1  0
 22 42  1  0
 26 43  1  0
 26 44  1  0
 26 45  1  0
 27 46  1  0
M  CHG  1   8  -1
M  END
>  <UniqueID>  (70) 
70

>  <SMILES>  (70) 
C=CC(=O)n1c(C([NH-])=O)cc2ccc(-c3ccccc3N(C)C(=O)OC)cc21

>  <Energy>  (70) 
93.79437666674598

>  <Genealogy>  (70) 
C=CC(=O)n1c(C([NH-])=O)cc2ccc(-c3ccccc3N(C)C(=O)OC)cc21 (protonated)
C=CC(=O)n1c(C([NH-])=O)cc2ccc(-c3ccccc3N(C)C(=O)OC)cc21 (3D coordinates assigned)
C=CC(=O)n1c(C([NH-])=O)cc2ccc(-c3ccccc3N(C)C(=O)OC)cc21 (optimized conformer: 93.79437666674598 kcal/mol)

>  <smiles>  (70) 
C=CC(=O)n1c(C(N)=O)cc2ccc(-c3ccccc3N(C)C(=O)OC)cc21

>  <score_type>  (70) 
oracle

>  <origin>  (70) 
adg

>  <m_score__min__energy>  (70) 
-8.2100000000000009

>  <m_primary>  (70) 
energy

$$$$
70:0
     RDKit          3D

 37 38  0  0  0  0  0  0  0  0999 V2000
  143.1900  157.4780  132.2290 N   0  0  0  0  0  0  0  0  0  0  0  0
  143.5910  156.5110  133.1960 C   0  0  0  0  0  0  0  0  0  0  0  0
  144.2690  156.8820  134.1920 O   0  0  0  0  0  0  0  0  0  0  0  0
  143.1870  155.0950  133.0720 C   0  0  0  0  0  0  0  0  0  0  0  0
  144.0940  154.0380  133.0320 C   0  0  0  0  0  0  0  0  0  0  0  0
  143.3240  152.8970  132.9840 C   0  0  0  0  0  0  0  0  0  0  0  0
  143.7050  151.5620  132.9250 C   0  0  0  0  0  0  0  0  0  0  0  0
  142.6930  150.5890  132.8560 C   0  0  0  0  0  0  0  0  0  0  0  0
  141.3250  150.9670  132.8200 C   0  0  0  0  0  0  0  0  0  0  0  0
  140.2470  149.9150  132.7840 C   0  0  0  0  0  0  0  0  0  0  0  0
  139.0230  150.4800  132.4710 F   0  0  0  0  0  0  0  0  0  0  0  0
  140.5350  148.9520  131.8330 F   0  0  0  0  0  0  0  0  0  0  0  0
  140.1600  149.3110  134.0250 F   0  0  0  0  0  0  0  0  0  0  0  0
  140.9800  152.3360  132.9050 C   0  0  0  0  0  0  0  0  0  0  0  0
  142.0080  153.2800  132.9910 C   0  0  0  0  0  0  0  0  0  0  0  0
  141.9070  154.6270  133.0460 N   0  0  0  0  0  0  0  0  0  0  0  0
  140.6950  155.3950  132.9890 C   0  0  0  0  0  0  0  0  0  0  0  0
  139.6250  154.8430  132.6130 O   0  0  0  0  0  0  0  0  0  0  0  0
  140.7010  156.7820  133.3570 N   0  0  0  0  0  0  0  0  0  0  0  0
  139.5220  157.6430  133.2420 C   0  0  0  0  0  0  0  0  0  0  0  0
  139.8250  158.9600  132.4970 C   0  0  2  0  0  0  0  0  0  0  0  0
  140.4730  158.7300  131.2710 O   0  0  0  0  0  0  0  0  0  0  0  0
  140.5750  160.0000  133.3520 C   0  0  0  0  0  0  0  0  0  0  0  0
  141.9590  159.9650  133.1210 O   0  0  0  0  0  0  0  0  0  0  0  0
  142.2760  157.9750  132.3130 H   0  0  0  0  0  0  0  0  0  0  0  0
  145.1922  154.1014  133.0376 H   0  0  0  0  0  0  0  0  0  0  0  0
  144.7669  151.2752  132.9321 H   0  0  0  0  0  0  0  0  0  0  0  0
  142.9638  149.5232  132.8296 H   0  0  0  0  0  0  0  0  0  0  0  0
  139.9261  152.6512  132.9035 H   0  0  0  0  0  0  0  0  0  0  0  0
  141.6090  157.2240  133.6290 H   0  0  0  0  0  0  0  0  0  0  0  0
  138.7394  157.0987  132.6931 H   0  0  0  0  0  0  0  0  0  0  0  0
  139.1952  157.9014  134.2600 H   0  0  0  0  0  0  0  0  0  0  0  0
  138.8435  159.4071  132.2809 H   0  0  0  0  0  0  0  0  0  0  0  0
  141.4370  158.5890  131.4540 H   0  0  0  0  0  0  0  0  0  0  0  0
  140.1980  161.0032  133.1041 H   0  0  0  0  0  0  0  0  0  0  0  0
  140.3993  159.7620  134.4115 H   0  0  0  0  0  0  0  0  0  0  0  0
  142.1080  159.3580  132.3500 H   0  0  0  0  0  0  0  0  0  0  0  0
  1  2  1  0
  2  3  2  0
  2  4  1  0
  4  5  2  0
  5  6  1  0
  6  7  2  0
  7  8  1  0
  8  9  2  0
  9 10  1  0
 10 11  1  0
 10 12  1  0
 10 13  1  0
  9 14  1  0
 14 15  2  0
 15 16  1  0
 16 17  1  0
 17 18  2  0
 17 19  1  0
 19 20  1  0
 20 21  1  0
 21 22  1  0
 21 23  1  0
 23 24  1  0
 16  4  1  0
 15  6  1  0
  1 25  1  0
  5 26  1  0
  7 27  1  0
  8 28  1  0
 14 29  1  0
 19 30  1  0
 20 31  1  0
 20 32  1  0
 21 33  1  6
 22 34  1  0
 23 35  1  0
 23 36  1  0
 24 37  1  0
M  CHG  1   1  -1
M  END
>  <UniqueID>  (71) 
71

>  <SMILES>  (71) 
[NH-]C(=O)c1cc2ccc(C(F)(F)F)cc2n1C(=O)NC[C@H](O)CO

>  <Energy>  (71) 
74.65534444442318

>  <Genealogy>  (71) 
[NH-]C(=O)c1cc2ccc(C(F)(F)F)cc2n1C(=O)NC[C@H](O)CO (protonated)
[NH-]C(=O)c1cc2ccc(C(F)(F)F)cc2n1C(=O)NC[C@H](O)CO (3D coordinates assigned)
[NH-]C(=O)c1cc2ccc(C(F)(F)F)cc2n1C(=O)NC[C@H](O)CO (optimized conformer: 74.65534444442318 kcal/mol)

>  <smiles>  (71) 
NC(=O)c1cc2ccc(C(F)(F)F)cc2n1C(=O)NC[C@H](O)CO

>  <score_type>  (71) 
oracle

>  <origin>  (71) 
adg

>  <m_score__min__energy>  (71) 
-5.9100000000000001

>  <m_primary>  (71) 
energy

$$$$
71:0
     RDKit          3D

 33 34  0  0  0  0  0  0  0  0999 V2000
  149.9080  158.9440  131.4470 C   0  0  0  0  0  0  0  0  0  0  0  0
  148.5150  159.0800  131.8800 N   0  0  0  0  0  0  0  0  0  0  0  0
  147.6520  160.1130  131.3000 C   0  0  0  0  0  0  0  0  0  0  0  0
  148.0210  158.2450  132.9470 C   0  0  0  0  0  0  0  0  0  0  0  0
  148.8300  157.6060  133.6730 O   0  0  0  0  0  0  0  0  0  0  0  0
  146.6150  158.1430  133.2090 N   0  0  0  0  0  0  0  0  0  0  0  0
  145.8120  157.0620  133.0040 C   0  0  0  0  0  0  0  0  0  0  0  0
  146.2620  155.7140  132.6010 C   0  0  0  0  0  0  0  0  0  0  0  0
  147.5400  155.5020  132.0000 N   0  0  0  0  0  0  0  0  0  0  0  0
  145.5180  154.7230  132.8270 O   0  0  0  0  0  0  0  0  0  0  0  0
  144.4760  157.4030  133.2110 C   0  0  0  0  0  0  0  0  0  0  0  0
  144.4880  158.7390  133.5450 C   0  0  0  0  0  0  0  0  0  0  0  0
  143.4360  159.6020  133.8310 C   0  0  0  0  0  0  0  0  0  0  0  0
  143.7400  160.9490  134.0920 C   0  0  0  0  0  0  0  0  0  0  0  0
  145.0800  161.4160  134.0300 C   0  0  0  0  0  0  0  0  0  0  0  0
  145.3990  162.8540  134.3480 C   0  0  0  0  0  0  0  0  0  0  0  0
  144.4200  163.6940  133.8460 F   0  0  0  0  0  0  0  0  0  0  0  0
  145.4680  163.0130  135.7190 F   0  0  0  0  0  0  0  0  0  0  0  0
  146.6110  163.2220  133.7900 F   0  0  0  0  0  0  0  0  0  0  0  0
  146.1230  160.5010  133.7530 C   0  0  0  0  0  0  0  0  0  0  0  0
  145.7900  159.1630  133.5250 C   0  0  0  0  0  0  0  0  0  0  0  0
  150.5617  158.8802  132.3294 H   0  0  0  0  0  0  0  0  0  0  0  0
  150.0168  158.0310  130.8433 H   0  0  0  0  0  0  0  0  0  0  0  0
  150.1914  159.8187  130.8433 H   0  0  0  0  0  0  0  0  0  0  0  0
  147.1730  160.6864  132.1073 H   0  0  0  0  0  0  0  0  0  0  0  0
  148.2569  160.7898  130.6787 H   0  0  0  0  0  0  0  0  0  0  0  0
  146.8784  159.6381  130.6787 H   0  0  0  0  0  0  0  0  0  0  0  0
  147.8070  154.5490  131.6650 H   0  0  0  0  0  0  0  0  0  0  0  0
  148.2640  156.2520  131.9790 H   0  0  0  0  0  0  0  0  0  0  0  0
  143.5988  156.7448  133.1257 H   0  0  0  0  0  0  0  0  0  0  0  0
  142.3971  159.2413  133.8523 H   0  0  0  0  0  0  0  0  0  0  0  0
  142.9312  161.6495  134.3472 H   0  0  0  0  0  0  0  0  0  0  0  0
  147.1706  160.8347  133.7180 H   0  0  0  0  0  0  0  0  0  0  0  0
  1  2  1  0
  2  3  1  0
  2  4  1  0
  4  5  2  0
  4  6  1  0
  6  7  1  0
  7  8  1  0
  8  9  1  0
  8 10  2  0
  7 11  2  0
 11 12  1  0
 12 13  2  0
 13 14  1  0
 14 15  2  0
 15 16  1  0
 16 17  1  0
 16 18  1  0
 16 19  1  0
 15 20  1  0
 20 21  2  0
 21  6  1  0
 21 12  1  0
  1 22  1  0
  1 23  1  0
  1 24  1  0
  3 25  1  0
  3 26  1  0
  3 27  1  0
  9 28  1  0
  9 29  1  0
 11 30  1  0
 13 31  1  0
 14 32  1  0
 20 33  1  0
M  END
>  <UniqueID>  (72) 
72

>  <SMILES>  (72) 
CN(C)C(=O)n1c(C(N)=O)cc2ccc(C(F)(F)F)cc21

>  <Energy>  (72) 
71.59831944418204

>  <Genealogy>  (72) 
CN(C)C(=O)n1c(C(N)=O)cc2ccc(C(F)(F)F)cc21 (3D coordinates assigned)
CN(C)C(=O)n1c(C(N)=O)cc2ccc(C(F)(F)F)cc21 (optimized conformer: 71.59831944418204 kcal/mol)

>  <smiles>  (72) 
CN(C)C(=O)n1c(C(N)=O)cc2ccc(C(F)(F)F)cc21

>  <score_type>  (72) 
oracle

>  <origin>  (72) 
adg

>  <m_score__min__energy>  (72) 
-6.0199999999999996

>  <m_primary>  (72) 
energy

$$$$
72:0
     RDKit          3D

 44 46  0  0  0  0  0  0  0  0999 V2000
  137.8220  160.4850  129.9260 C   0  0  0  0  0  0  0  0  0  0  0  0
  137.6530  159.5810  131.1390 C   0  0  0  0  0  0  0  0  0  0  0  0
  139.2370  159.0170  131.7420 S   0  0  0  0  0  0  0  0  0  0  0  0
  140.2540  159.0750  130.6370 O   0  0  0  0  0  0  0  0  0  0  0  0
  139.6830  159.9110  132.8650 O   0  0  0  0  0  0  0  0  0  0  0  0
  139.1190  157.3410  132.3580 C   0  0  0  0  0  0  0  0  0  0  0  0
  139.8720  157.1470  133.6440 C   0  0  0  0  0  0  0  0  0  0  0  0
  139.3010  157.3450  134.7490 O   0  0  0  0  0  0  0  0  0  0  0  0
  141.2020  156.6060  133.6240 N   0  0  0  0  0  0  0  0  0  0  0  0
  142.3710  157.2890  133.7670 C   0  0  0  0  0  0  0  0  0  0  0  0
  142.4810  158.7340  134.0710 C   0  0  0  0  0  0  0  0  0  0  0  0
  142.1530  159.7170  133.0860 N   0  0  0  0  0  0  0  0  0  0  0  0
  142.8850  159.1120  135.2030 O   0  0  0  0  0  0  0  0  0  0  0  0
  143.4570  156.4210  133.6480 C   0  0  0  0  0  0  0  0  0  0  0  0
  142.9080  155.1790  133.4150 C   0  0  0  0  0  0  0  0  0  0  0  0
  143.5260  153.9490  133.2070 C   0  0  0  0  0  0  0  0  0  0  0  0
  142.7070  152.8350  132.9560 C   0  0  0  0  0  0  0  0  0  0  0  0
  141.2970  152.9740  132.8990 C   0  0  0  0  0  0  0  0  0  0  0  0
  140.4290  151.7790  132.6270 C   0  0  0  0  0  0  0  0  0  0  0  0
  141.1710  150.4920  133.0060 C   0  0  0  0  0  0  0  0  0  0  0  0
  140.4040  149.2060  132.7390 C   0  0  0  0  0  0  0  0  0  0  0  0
  141.5700  149.5960  131.8430 C   0  0  0  0  0  0  0  0  0  0  0  0
  140.7070  154.2350  133.1340 C   0  0  0  0  0  0  0  0  0  0  0  0
  141.5450  155.3210  133.3990 C   0  0  0  0  0  0  0  0  0  0  0  0
  138.0146  161.5151  130.2604 H   0  0  0  0  0  0  0  0  0  0  0  0
  138.6696  160.1315  129.3205 H   0  0  0  0  0  0  0  0  0  0  0  0
  136.9039  160.4616  129.3205 H   0  0  0  0  0  0  0  0  0  0  0  0
  137.1429  160.1409  131.9367 H   0  0  0  0  0  0  0  0  0  0  0  0
  137.0582  158.7044  130.8429 H   0  0  0  0  0  0  0  0  0  0  0  0
  138.0592  157.1021  132.5301 H   0  0  0  0  0  0  0  0  0  0  0  0
  139.5661  156.6755  131.6049 H   0  0  0  0  0  0  0  0  0  0  0  0
  141.7330  159.4500  132.1690 H   0  0  0  0  0  0  0  0  0  0  0  0
  142.2780  160.7310  133.3000 H   0  0  0  0  0  0  0  0  0  0  0  0
  144.5247  156.6745  133.7241 H   0  0  0  0  0  0  0  0  0  0  0  0
  144.6213  153.8522  133.2382 H   0  0  0  0  0  0  0  0  0  0  0  0
  143.1639  151.8462  132.8023 H   0  0  0  0  0  0  0  0  0  0  0  0
  139.5069  151.8561  133.2219 H   0  0  0  0  0  0  0  0  0  0  0  0
  140.1817  151.7499  131.5556 H   0  0  0  0  0  0  0  0  0  0  0  0
  141.6987  150.9245  133.8689 H   0  0  0  0  0  0  0  0  0  0  0  0
  140.5011  148.3545  133.4285 H   0  0  0  0  0  0  0  0  0  0  0  0
  139.3469  148.9511  132.5730 H   0  0  0  0  0  0  0  0  0  0  0  0
  142.5102  149.0266  131.8847 H   0  0  0  0  0  0  0  0  0  0  0  0
  141.7053  149.7399  130.7609 H   0  0  0  0  0  0  0  0  0  0  0  0
  139.6143  154.3593  133.1091 H   0  0  0  0  0  0  0  0  0  0  0  0
  1  2  1  0
  2  3  1  0
  3  4  2  0
  3  5  2  0
  3  6  1  0
  6  7  1  0
  7  8  2  0
  7  9  1  0
  9 10  1  0
 10 11  1  0
 11 12  1  0
 11 13  2  0
 10 14  2  0
 14 15  1  0
 15 16  2  0
 16 17  1  0
 17 18  2  0
 18 19  1  0
 19 20  1  0
 20 21  1  0
 21 22  1  0
 18 23  1  0
 23 24  2  0
 24  9  1  0
 24 15  1  0
 22 20  1  0
  1 25  1  0
  1 26  1  0
  1 27  1  0
  2 28  1  0
  2 29  1  0
  6 30  1  0
  6 31  1  0
 12 32  1  0
 12 33  1  0
 14 34  1  0
 16 35  1  0
 17 36  1  0
 19 37  1  0
 19 38  1  0
 20 39  1  0
 21 40  1  0
 21 41  1  0
 22 42  1  0
 22 43  1  0
 23 44  1  0
M  END
>  <UniqueID>  (73) 
73

>  <SMILES>  (73) 
CCS(=O)(=O)CC(=O)n1c(C(N)=O)cc2ccc(CC3CC3)cc21

>  <Energy>  (73) 
335.70617944273425

>  <Genealogy>  (73) 
CCS(=O)(=O)CC(=O)n1c(C(N)=O)cc2ccc(CC3CC3)cc21 (3D coordinates assigned)
CCS(=O)(=O)CC(=O)n1c(C(N)=O)cc2ccc(CC3CC3)cc21 (nonaromatic ring conformer: 335.70617944273425 kcal/mol)

>  <smiles>  (73) 
CCS(=O)(=O)CC(=O)n1c(C(N)=O)cc2ccc(CC3CC3)cc21

>  <score_type>  (73) 
oracle

>  <origin>  (73) 
adg

>  <m_score__min__energy>  (73) 
-8.3800000000000008

>  <m_primary>  (73) 
energy

$$$$
73:0
     RDKit          3D

 54 56  0  0  0  0  0  0  0  0999 V2000
  141.2306  154.8707  134.5741 H   0  0  0  0  0  0  0  0  0  0  0  0
  140.6360  154.7920  133.6520 C   0  0  0  0  0  0  0  0  0  0  0  0
  139.9020  155.9790  133.1750 C   0  0  0  0  0  0  0  0  0  0  0  0
  139.0650  155.8770  132.2350 O   0  0  0  0  0  0  0  0  0  0  0  0
  140.1720  157.2710  133.7420 N   0  0  0  0  0  0  0  0  0  0  0  0
  139.9710  158.4850  133.1560 C   0  0  0  0  0  0  0  0  0  0  0  0
  139.5590  158.7090  131.7550 C   0  0  0  0  0  0  0  0  0  0  0  0
  140.3420  159.3070  130.9690 O   0  0  0  0  0  0  0  0  0  0  0  0
  138.3150  158.2120  131.2570 N   0  0  0  0  0  0  0  0  0  0  0  0
  138.0200  158.4270  130.2780 H   0  0  0  0  0  0  0  0  0  0  0  0
  137.7320  157.5540  131.8190 H   0  0  0  0  0  0  0  0  0  0  0  0
  140.2440  159.5140  134.0530 C   0  0  0  0  0  0  0  0  0  0  0  0
  140.1684  160.5962  133.8709 H   0  0  0  0  0  0  0  0  0  0  0  0
  140.6290  158.8870  135.2170 C   0  0  0  0  0  0  0  0  0  0  0  0
  141.0060  159.4290  136.4410 C   0  0  0  0  0  0  0  0  0  0  0  0
  141.0537  160.5181  136.5878 H   0  0  0  0  0  0  0  0  0  0  0  0
  141.3240  158.5440  137.4840 C   0  0  0  0  0  0  0  0  0  0  0  0
  141.6397  158.9446  138.4586 H   0  0  0  0  0  0  0  0  0  0  0  0
  141.2430  157.1330  137.2960 C   0  0  0  0  0  0  0  0  0  0  0  0
  141.5650  156.1210  138.3820 C   0  0  0  0  0  0  0  0  0  0  0  0
  142.2947  156.7842  138.8695 H   0  0  0  0  0  0  0  0  0  0  0  0
  141.5440  154.6460  138.0050 C   0  0  0  0  0  0  0  0  0  0  0  0
  141.3464  154.3467  136.9651 H   0  0  0  0  0  0  0  0  0  0  0  0
  142.2447  153.8051  138.1137 H   0  0  0  0  0  0  0  0  0  0  0  0
  140.4240  155.2320  138.8550 C   0  0  0  0  0  0  0  0  0  0  0  0
  139.4174  155.3557  138.4290 H   0  0  0  0  0  0  0  0  0  0  0  0
  139.9807  154.9893  139.8320 H   0  0  0  0  0  0  0  0  0  0  0  0
  140.8490  156.6300  136.0370 C   0  0  0  0  0  0  0  0  0  0  0  0
  140.7615  155.5464  135.8692 H   0  0  0  0  0  0  0  0  0  0  0  0
  140.5720  157.5350  135.0070 C   0  0  0  0  0  0  0  0  0  0  0  0
  140.6040  153.6240  133.0030 C   0  0  0  0  0  0  0  0  0  0  0  0
  139.9896  153.5288  132.0956 H   0  0  0  0  0  0  0  0  0  0  0  0
  141.3880  152.4410  133.4860 C   0  0  0  0  0  0  0  0  0  0  0  0
  141.6581  152.6029  134.5400 H   0  0  0  0  0  0  0  0  0  0  0  0
  142.2808  152.3487  132.8501 H   0  0  0  0  0  0  0  0  0  0  0  0
  140.6290  151.1810  133.3800 N   0  0  0  0  0  0  0  0  0  0  0  0
  139.6680  151.4470  133.0600 H   0  0  0  0  0  0  0  0  0  0  0  0
  141.1550  150.1190  132.4750 C   0  0  0  0  0  0  0  0  0  0  0  0
  140.9490  148.7630  133.1910 C   0  0  0  0  0  0  0  0  0  0  0  0
  140.9723  148.9161  134.2800 H   0  0  0  0  0  0  0  0  0  0  0  0
  139.9762  148.3393  132.9010 H   0  0  0  0  0  0  0  0  0  0  0  0
  141.7521  148.0695  132.9010 H   0  0  0  0  0  0  0  0  0  0  0  0
  142.6780  150.2830  132.2600 C   0  0  0  0  0  0  0  0  0  0  0  0
  143.1823  150.3373  133.2361 H   0  0  0  0  0  0  0  0  0  0  0  0
  143.0635  149.4212  131.6955 H   0  0  0  0  0  0  0  0  0  0  0  0
  142.8712  151.2071  131.6955 H   0  0  0  0  0  0  0  0  0  0  0  0
  140.4060  150.0540  131.1110 C   0  0  0  0  0  0  0  0  0  0  0  0
  140.4944  149.0372  130.7008 H   0  0  0  0  0  0  0  0  0  0  0  0
  140.8597  150.7873  130.4281 H   0  0  0  0  0  0  0  0  0  0  0  0
  139.0370  150.3720  131.2660 O   0  0  0  0  0  0  0  0  0  0  0  0
  138.2550  149.2230  131.0280 C   0  0  0  0  0  0  0  0  0  0  0  0
  137.9532  148.7795  131.9883 H   0  0  0  0  0  0  0  0  0  0  0  0
  137.3584  149.5019  130.4550 H   0  0  0  0  0  0  0  0  0  0  0  0
  138.8434  148.4912  130.4550 H   0  0  0  0  0  0  0  0  0  0  0  0
  1  2  1  0
  2  3  1  0
  3  4  2  0
  3  5  1  0
  5  6  1  0
  6  7  1  0
  7  8  2  0
  7  9  1  0
  9 10  1  0
  9 11  1  0
  6 12  2  0
 12 13  1  0
 12 14  1  0
 14 15  2  0
 15 16  1  0
 15 17  1  0
 17 18  1  0
 17 19  2  0
 19 20  1  0
 20 21  1  0
 20 22  1  0
 22 23  1  0
 22 24  1  0
 22 25  1  0
 25 26  1  0
 25 27  1  0
 19 28  1  0
 28 29  1  0
 28 30  2  0
  2 31  2  0
 31 32  1  0
 31 33  1  0
 33 34  1  0
 33 35  1  0
 33 36  1  0
 36 37  1  0
 36 38  1  0
 38 39  1  0
 39 40  1  0
 39 41  1  0
 39 42  1  0
 38 43  1  0
 43 44  1  0
 43 45  1  0
 43 46  1  0
 38 47  1  0
 47 48  1  0
 47 49  1  0
 47 50  1  0
 50 51  1  0
 51 52  1  0
 51 53  1  0
 51 54  1  0
 30  5  1  0
 30 14  1  0
 25 20  1  0
M  END
>  <UniqueID>  (74) 
74

>  <SMILES>  (74) 
COCC(C)(C)NC/C=C/C(=O)n1c(C(N)=O)cc2ccc(C3CC3)cc21

>  <Energy>  (74) 
364.37947877693017

>  <Genealogy>  (74) 
COCC(C)(C)NC/C=C/C(=O)n1c(C(N)=O)cc2ccc(C3CC3)cc21 (cis-trans isomerization)
COCC(C)(C)NC/C=C/C(=O)n1c(C(N)=O)cc2ccc(C3CC3)cc21 (3D coordinates assigned)
COCC(C)(C)NC/C=C/C(=O)n1c(C(N)=O)cc2ccc(C3CC3)cc21 (nonaromatic ring conformer: 364.37947877693017 kcal/mol)

>  <smiles>  (74) 
COCC(C)(C)NC/C=C/C(=O)n1c(C(N)=O)cc2ccc(C3CC3)cc21

>  <score_type>  (74) 
oracle

>  <origin>  (74) 
adg

>  <m_score__min__energy>  (74) 
-8.9199999999999999

>  <m_primary>  (74) 
energy

$$$$
74:0
     RDKit          3D

 39 41  0  0  0  0  0  0  0  0999 V2000
  139.5150  158.4450  135.9860 N   0  0  0  0  0  0  0  0  0  0  0  0
  139.9630  158.3790  134.6330 C   0  0  0  0  0  0  0  0  0  0  0  0
  139.2000  157.9010  133.7540 O   0  0  0  0  0  0  0  0  0  0  0  0
  141.3280  158.8290  134.2880 C   0  0  0  0  0  0  0  0  0  0  0  0
  141.7770  160.1340  134.4850 C   0  0  0  0  0  0  0  0  0  0  0  0
  143.1070  160.1170  134.1310 C   0  0  0  0  0  0  0  0  0  0  0  0
  144.0420  161.1480  134.1220 C   0  0  0  0  0  0  0  0  0  0  0  0
  145.3430  160.8530  133.6820 C   0  0  0  0  0  0  0  0  0  0  0  0
  145.6850  159.5430  133.2590 C   0  0  0  0  0  0  0  0  0  0  0  0
  147.0590  159.2510  132.7830 C   0  0  0  0  0  0  0  0  0  0  0  0
  147.8020  160.2670  132.1570 C   0  0  0  0  0  0  0  0  0  0  0  0
  149.0920  160.0180  131.6910 C   0  0  0  0  0  0  0  0  0  0  0  0
  149.6570  158.7520  131.8430 C   0  0  0  0  0  0  0  0  0  0  0  0
  148.9370  157.7330  132.4690 C   0  0  0  0  0  0  0  0  0  0  0  0
  147.6350  157.9720  132.9570 C   0  0  0  0  0  0  0  0  0  0  0  0
  146.8890  156.9790  133.6200 O   0  0  0  0  0  0  0  0  0  0  0  0
  147.2730  155.6170  133.8180 C   0  0  0  0  0  0  0  0  0  0  0  0
  146.3530  154.6720  133.0460 C   0  0  0  0  0  0  0  0  0  0  0  0
  145.8360  155.3090  131.9110 O   0  0  0  0  0  0  0  0  0  0  0  0
  144.7040  158.5260  133.2750 C   0  0  0  0  0  0  0  0  0  0  0  0
  143.4210  158.8430  133.7370 C   0  0  0  0  0  0  0  0  0  0  0  0
  142.3380  158.0390  133.8250 N   0  0  0  0  0  0  0  0  0  0  0  0
  142.2660  156.6570  133.4360 C   0  0  0  0  0  0  0  0  0  0  0  0
  141.1900  156.0160  133.5630 O   0  0  0  0  0  0  0  0  0  0  0  0
  143.3910  156.0070  132.9420 O   0  0  0  0  0  0  0  0  0  0  0  0
  139.4850  159.3550  136.4970 H   0  0  0  0  0  0  0  0  0  0  0  0
  141.1932  160.9935  134.8461 H   0  0  0  0  0  0  0  0  0  0  0  0
  143.7706  162.1625  134.4493 H   0  0  0  0  0  0  0  0  0  0  0  0
  146.1047  161.6464  133.6653 H   0  0  0  0  0  0  0  0  0  0  0  0
  147.3615  161.2674  132.0338 H   0  0  0  0  0  0  0  0  0  0  0  0
  149.6646  160.8205  131.2031 H   0  0  0  0  0  0  0  0  0  0  0  0
  150.6726  158.5560  131.4687 H   0  0  0  0  0  0  0  0  0  0  0  0
  149.3881  156.7362  132.5826 H   0  0  0  0  0  0  0  0  0  0  0  0
  148.3064  155.4797  133.4670 H   0  0  0  0  0  0  0  0  0  0  0  0
  147.1965  155.3831  134.8901 H   0  0  0  0  0  0  0  0  0  0  0  0
  146.9242  153.7850  132.7346 H   0  0  0  0  0  0  0  0  0  0  0  0
  145.5186  154.3759  133.6988 H   0  0  0  0  0  0  0  0  0  0  0  0
  145.4370  156.1590  132.2310 H   0  0  0  0  0  0  0  0  0  0  0  0
  144.9430  157.5085  132.9322 H   0  0  0  0  0  0  0  0  0  0  0  0
  1  2  1  0
  2  3  2  0
  2  4  1  0
  4  5  2  0
  5  6  1  0
  6  7  2  0
  7  8  1  0
  8  9  2  0
  9 10  1  0
 10 11  2  0
 11 12  1  0
 12 13  2  0
 13 14  1  0
 14 15  2  0
 15 16  1  0
 16 17  1  0
 17 18  1  0
 18 19  1  0
  9 20  1  0
 20 21  2  0
 21 22  1  0
 22 23  1  0
 23 24  2  0
 23 25  1  0
 22  4  1  0
 21  6  1  0
 15 10  1  0
  1 26  1  0
  5 27  1  0
  7 28  1  0
  8 29  1  0
 11 30  1  0
 12 31  1  0
 13 32  1  0
 14 33  1  0
 17 34  1  0
 17 35  1  0
 18 36  1  0
 18 37  1  0
 19 38  1  0
 20 39  1  0
M  CHG  2   1  -1  25  -1
M  END
>  <UniqueID>  (75) 
75

>  <SMILES>  (75) 
[NH-]C(=O)c1cc2ccc(-c3ccccc3OCCO)cc2n1C(=O)[O-]

>  <Energy>  (75) 
86.17244117189124

>  <Genealogy>  (75) 
[NH-]C(=O)c1cc2ccc(-c3ccccc3OCCO)cc2n1C(=O)[O-] (protonated)
[NH-]C(=O)c1cc2ccc(-c3ccccc3OCCO)cc2n1C(=O)[O-] (3D coordinates assigned)
[NH-]C(=O)c1cc2ccc(-c3ccccc3OCCO)cc2n1C(=O)[O-] (optimized conformer: 86.17244117189124 kcal/mol)

>  <smiles>  (75) 
NC(=O)c1cc2ccc(-c3ccccc3OCCO)cc2n1C(=O)O

>  <score_type>  (75) 
oracle

>  <origin>  (75) 
adg

>  <m_score__min__energy>  (75) 
-6.9299999999999997

>  <m_primary>  (75) 
energy

$$$$
75:0
     RDKit          3D

 42 44  0  0  0  0  0  0  0  0999 V2000
  148.2210  154.8710  132.6050 C   0  0  0  0  0  0  0  0  0  0  0  0
  147.8190  156.2870  132.8940 C   0  0  0  0  0  0  0  0  0  0  0  0
  148.8030  157.3030  132.9750 C   0  0  0  0  0  0  0  0  0  0  0  0
  148.4340  158.6400  133.2010 C   0  0  0  0  0  0  0  0  0  0  0  0
  147.0780  158.9280  133.3350 C   0  0  0  0  0  0  0  0  0  0  0  0
  146.4460  160.1340  133.5240 C   0  0  0  0  0  0  0  0  0  0  0  0
  145.0840  159.8410  133.5480 C   0  0  0  0  0  0  0  0  0  0  0  0
  144.0380  160.8790  133.6940 C   0  0  0  0  0  0  0  0  0  0  0  0
  142.6780  160.6180  133.3580 N   0  0  0  0  0  0  0  0  0  0  0  0
  144.3550  162.0270  134.1050 O   0  0  0  0  0  0  0  0  0  0  0  0
  144.8830  158.4970  133.4100 N   0  0  0  0  0  0  0  0  0  0  0  0
  143.6300  157.7910  133.3850 C   0  0  0  0  0  0  0  0  0  0  0  0
  143.1040  157.5340  132.2680 O   0  0  0  0  0  0  0  0  0  0  0  0
  142.9940  157.2220  134.6510 C   0  0  2  0  0  0  0  0  0  0  0  0
  141.9520  156.1350  134.3300 C   0  0  0  0  0  0  0  0  0  0  0  0
  140.7190  156.6900  133.5950 C   0  0  0  0  0  0  0  0  0  0  0  0
  140.3960  158.1610  133.9310 C   0  0  0  0  0  0  0  0  0  0  0  0
  140.8720  158.6100  135.3260 C   0  0  1  0  0  0  0  0  0  0  0  0
  139.9800  158.0810  136.4230 C   0  0  0  0  0  0  0  0  0  0  0  0
  138.7290  158.2120  136.3270 O   0  0  0  0  0  0  0  0  0  0  0  0
  140.5140  157.4980  137.5660 O   0  0  0  0  0  0  0  0  0  0  0  0
  142.3670  158.2830  135.5980 C   0  0  0  0  0  0  0  0  0  0  0  0
  146.1140  157.9580  133.2570 C   0  0  0  0  0  0  0  0  0  0  0  0
  146.4520  156.6220  133.0140 C   0  0  0  0  0  0  0  0  0  0  0  0
  148.3738  154.3327  133.5520 H   0  0  0  0  0  0  0  0  0  0  0  0
  147.4280  154.3757  132.0255 H   0  0  0  0  0  0  0  0  0  0  0  0
  149.1560  154.8663  132.0255 H   0  0  0  0  0  0  0  0  0  0  0  0
  149.8656  157.0429  132.8599 H   0  0  0  0  0  0  0  0  0  0  0  0
  149.1922  159.4340  133.2699 H   0  0  0  0  0  0  0  0  0  0  0  0
  146.9164  161.1223  133.6333 H   0  0  0  0  0  0  0  0  0  0  0  0
  142.4250  159.8470  132.7030 H   0  0  0  0  0  0  0  0  0  0  0  0
  143.8392  156.7771  135.1966 H   0  0  0  0  0  0  0  0  0  0  0  0
  142.4250  155.3710  133.6956 H   0  0  0  0  0  0  0  0  0  0  0  0
  141.6065  155.7145  135.2859 H   0  0  0  0  0  0  0  0  0  0  0  0
  140.8987  156.6141  132.5124 H   0  0  0  0  0  0  0  0  0  0  0  0
  139.8566  156.0920  133.9248 H   0  0  0  0  0  0  0  0  0  0  0  0
  140.8804  158.8009  133.1788 H   0  0  0  0  0  0  0  0  0  0  0  0
  139.2998  158.2526  133.9267 H   0  0  0  0  0  0  0  0  0  0  0  0
  140.7921  159.7071  135.3307 H   0  0  0  0  0  0  0  0  0  0  0  0
  142.9434  159.2142  135.4952 H   0  0  0  0  0  0  0  0  0  0  0  0
  142.4066  157.8518  136.6092 H   0  0  0  0  0  0  0  0  0  0  0  0
  145.6725  155.8517  132.9188 H   0  0  0  0  0  0  0  0  0  0  0  0
  1  2  1  0
  2  3  2  0
  3  4  1  0
  4  5  2  0
  5  6  1  0
  6  7  2  0
  7  8  1  0
  8  9  1  0
  8 10  2  0
  7 11  1  0
 11 12  1  0
 12 13  2  0
 12 14  1  0
 14 15  1  0
 15 16  1  0
 16 17  1  0
 17 18  1  0
 18 19  1  0
 19 20  2  0
 19 21  1  0
 18 22  1  0
 11 23  1  0
 23 24  2  0
 24  2  1  0
 23  5  1  0
 22 14  1  0
  1 25  1  0
  1 26  1  0
  1 27  1  0
  3 28  1  0
  4 29  1  0
  6 30  1  0
  9 31  1  0
 14 32  1  1
 15 33  1  0
 15 34  1  0
 16 35  1  0
 16 36  1  0
 17 37  1  0
 17 38  1  0
 18 39  1  6
 22 40  1  0
 22 41  1  0
 24 42  1  0
M  CHG  2   9  -1  21  -1
M  END
>  <UniqueID>  (76) 
76

>  <SMILES>  (76) 
Cc1ccc2cc(C([NH-])=O)n(C(=O)[C@@H]3CCC[C@@H](C(=O)[O-])C3)c2c1

>  <Energy>  (76) 
90.94525464360002

>  <Genealogy>  (76) 
Cc1ccc2cc(C([NH-])=O)n(C(=O)C3CCCC(C(=O)[O-])C3)c2c1 (protonated)
Cc1ccc2cc(C([NH-])=O)n(C(=O)[C@@H]3CCC[C@@H](C(=O)[O-])C3)c2c1 (chirality)
Cc1ccc2cc(C([NH-])=O)n(C(=O)[C@@H]3CCC[C@@H](C(=O)[O-])C3)c2c1 (3D coordinates assigned)
Cc1ccc2cc(C([NH-])=O)n(C(=O)[C@@H]3CCC[C@@H](C(=O)[O-])C3)c2c1 (nonaromatic ring conformer: 90.94525464360002 kcal/mol)

>  <smiles>  (76) 
Cc1ccc2cc(C(N)=O)n(C(=O)C3CCCC(C(=O)O)C3)c2c1

>  <score_type>  (76) 
oracle

>  <origin>  (76) 
adg

>  <m_score__min__energy>  (76) 
-8.3000000000000007

>  <m_primary>  (76) 
energy

$$$$
76:0
     RDKit          3D

 30 32  0  0  0  0  0  0  0  0999 V2000
  147.8930  152.4410  133.3830 N   0  0  0  0  0  0  0  0  0  0  0  0
  148.7710  153.4940  132.9840 C   0  0  0  0  0  0  0  0  0  0  0  0
  149.9450  153.2130  132.6240 O   0  0  0  0  0  0  0  0  0  0  0  0
  148.3480  154.9090  133.0320 C   0  0  0  0  0  0  0  0  0  0  0  0
  149.1470  155.9670  132.6070 C   0  0  0  0  0  0  0  0  0  0  0  0
  148.3940  157.0990  132.8210 C   0  0  0  0  0  0  0  0  0  0  0  0
  148.6840  158.4320  132.5470 C   0  0  0  0  0  0  0  0  0  0  0  0
  147.6950  159.3920  132.8180 C   0  0  0  0  0  0  0  0  0  0  0  0
  146.4310  159.0080  133.3420 C   0  0  0  0  0  0  0  0  0  0  0  0
  145.3870  160.0300  133.6100 C   0  0  0  0  0  0  0  0  0  0  0  0
  144.0160  159.9050  133.4630 C   0  0  0  0  0  0  0  0  0  0  0  0
  143.4290  161.0630  133.8160 N   0  0  0  0  0  0  0  0  0  0  0  0
  144.3750  161.8840  134.1670 O   0  0  0  0  0  0  0  0  0  0  0  0
  145.5580  161.3250  134.0660 C   0  0  0  0  0  0  0  0  0  0  0  0
  146.1770  157.6390  133.6000 C   0  0  0  0  0  0  0  0  0  0  0  0
  147.1920  156.7100  133.3480 C   0  0  0  0  0  0  0  0  0  0  0  0
  147.1510  155.3670  133.4910 N   0  0  0  0  0  0  0  0  0  0  0  0
  146.0130  154.5830  133.8830 C   0  0  0  0  0  0  0  0  0  0  0  0
  145.2090  154.1700  133.0030 O   0  0  0  0  0  0  0  0  0  0  0  0
  145.7870  154.2230  135.2900 C   0  0  0  0  0  0  0  0  0  0  0  0
  146.5650  153.4250  135.8770 O   0  0  0  0  0  0  0  0  0  0  0  0
  144.6980  154.7450  135.9760 O   0  0  0  0  0  0  0  0  0  0  0  0
  146.9920  152.6410  133.8690 H   0  0  0  0  0  0  0  0  0  0  0  0
  148.1930  151.4450  133.2850 H   0  0  0  0  0  0  0  0  0  0  0  0
  150.1631  155.9103  132.1894 H   0  0  0  0  0  0  0  0  0  0  0  0
  149.6589  158.7254  132.1305 H   0  0  0  0  0  0  0  0  0  0  0  0
  147.9015  160.4545  132.6221 H   0  0  0  0  0  0  0  0  0  0  0  0
  143.4910  159.0037  133.1137 H   0  0  0  0  0  0  0  0  0  0  0  0
  146.5197  161.8035  134.3030 H   0  0  0  0  0  0  0  0  0  0  0  0
  145.2017  157.3129  133.9905 H   0  0  0  0  0  0  0  0  0  0  0  0
  1  2  1  0
  2  3  2  0
  2  4  1  0
  4  5  2  0
  5  6  1  0
  6  7  2  0
  7  8  1  0
  8  9  2  0
  9 10  1  0
 10 11  1  0
 11 12  2  0
 12 13  1  0
 13 14  1  0
  9 15  1  0
 15 16  2  0
 16 17  1  0
 17 18  1  0
 18 19  2  0
 18 20  1  0
 20 21  2  0
 20 22  1  0
 17  4  1  0
 16  6  1  0
 14 10  2  0
  1 23  1  0
  1 24  1  0
  5 25  1  0
  7 26  1  0
  8 27  1  0
 11 28  1  0
 14 29  1  0
 15 30  1  0
M  CHG  1  22  -1
M  END
>  <UniqueID>  (77) 
77

>  <SMILES>  (77) 
NC(=O)c1cc2ccc(-c3cnoc3)cc2n1C(=O)C(=O)[O-]

>  <Energy>  (77) 
105.38202785080074

>  <Genealogy>  (77) 
NC(=O)c1cc2ccc(-c3cnoc3)cc2n1C(=O)C(=O)[O-] (protonated)
NC(=O)c1cc2ccc(-c3cnoc3)cc2n1C(=O)C(=O)[O-] (3D coordinates assigned)
NC(=O)c1cc2ccc(-c3cnoc3)cc2n1C(=O)C(=O)[O-] (optimized conformer: 105.38202785080074 kcal/mol)

>  <smiles>  (77) 
NC(=O)c1cc2ccc(-c3cnoc3)cc2n1C(=O)C(=O)O

>  <score_type>  (77) 
oracle

>  <origin>  (77) 
adg

>  <m_score__min__energy>  (77) 
-6.9199999999999999

>  <m_primary>  (77) 
energy

$$$$
77:0
     RDKit          3D

 25 26  0  0  0  0  0  0  0  0999 V2000
  148.4850  161.5410  131.5210 N   0  0  0  0  0  0  0  0  0  0  0  0
  149.0060  160.2600  131.1650 C   0  0  0  0  0  0  0  0  0  0  0  0
  149.7760  160.1620  130.1730 O   0  0  0  0  0  0  0  0  0  0  0  0
  148.6070  159.0420  131.8960 C   0  0  0  0  0  0  0  0  0  0  0  0
  149.3350  157.8570  131.8600 C   0  0  0  0  0  0  0  0  0  0  0  0
  148.6030  156.9590  132.6010 C   0  0  0  0  0  0  0  0  0  0  0  0
  148.8640  155.6250  132.8990 C   0  0  0  0  0  0  0  0  0  0  0  0
  147.9480  154.9410  133.7150 C   0  0  0  0  0  0  0  0  0  0  0  0
  146.8080  155.6030  134.2400 C   0  0  0  0  0  0  0  0  0  0  0  0
  145.8140  154.8470  135.0850 C   0  0  0  0  0  0  0  0  0  0  0  0
  145.4130  153.6850  134.4480 F   0  0  0  0  0  0  0  0  0  0  0  0
  144.7080  155.6430  135.3080 F   0  0  0  0  0  0  0  0  0  0  0  0
  146.3740  154.5000  136.3030 F   0  0  0  0  0  0  0  0  0  0  0  0
  146.5670  156.9540  133.8970 C   0  0  0  0  0  0  0  0  0  0  0  0
  147.4860  157.6060  133.0650 C   0  0  0  0  0  0  0  0  0  0  0  0
  147.4750  158.8920  132.6400 N   0  0  0  0  0  0  0  0  0  0  0  0
  146.5340  159.9150  133.0090 C   0  0  0  0  0  0  0  0  0  0  0  0
  146.9120  160.9270  133.6540 O   0  0  0  0  0  0  0  0  0  0  0  0
  145.1970  159.7970  132.6530 O   0  0  0  0  0  0  0  0  0  0  0  0
  147.7220  161.6350  132.2280 H   0  0  0  0  0  0  0  0  0  0  0  0
  148.8060  162.3980  131.0170 H   0  0  0  0  0  0  0  0  0  0  0  0
  150.2918  157.6768  131.3481 H   0  0  0  0  0  0  0  0  0  0  0  0
  149.7603  155.1216  132.5075 H   0  0  0  0  0  0  0  0  0  0  0  0
  148.1163  153.8796  133.9498 H   0  0  0  0  0  0  0  0  0  0  0  0
  145.6782  157.4805  134.2750 H   0  0  0  0  0  0  0  0  0  0  0  0
  1  2  1  0
  2  3  2  0
  2  4  1  0
  4  5  2  0
  5  6  1  0
  6  7  2  0
  7  8  1  0
  8  9  2  0
  9 10  1  0
 10 11  1  0
 10 12  1  0
 10 13  1  0
  9 14  1  0
 14 15  2  0
 15 16  1  0
 16 17  1  0
 17 18  2  0
 17 19  1  0
 16  4  1  0
 15  6  1  0
  1 20  1  0
  1 21  1  0
  5 22  1  0
  7 23  1  0
  8 24  1  0
 14 25  1  0
M  CHG  1  19  -1
M  END
>  <UniqueID>  (78) 
78

>  <SMILES>  (78) 
NC(=O)c1cc2ccc(C(F)(F)F)cc2n1C(=O)[O-]

>  <Energy>  (78) 
66.32011349667486

>  <Genealogy>  (78) 
NC(=O)c1cc2ccc(C(F)(F)F)cc2n1C(=O)[O-] (protonated)
NC(=O)c1cc2ccc(C(F)(F)F)cc2n1C(=O)[O-] (3D coordinates assigned)
NC(=O)c1cc2ccc(C(F)(F)F)cc2n1C(=O)[O-] (optimized conformer: 66.32011349667486 kcal/mol)

>  <smiles>  (78) 
NC(=O)c1cc2ccc(C(F)(F)F)cc2n1C(=O)O

>  <score_type>  (78) 
oracle

>  <origin>  (78) 
adg

>  <m_score__min__energy>  (78) 
-5.3300000000000001

>  <m_primary>  (78) 
energy

$$$$
78:0
     RDKit          3D

 43 45  0  0  0  0  0  0  0  0999 V2000
  149.9810  151.1670  132.1490 C   0  0  0  0  0  0  0  0  0  0  0  0
  149.1650  152.2510  132.7250 N   0  0  0  0  0  0  0  0  0  0  0  0
  149.6230  153.5650  132.2480 C   0  0  0  0  0  0  0  0  0  0  0  0
  148.8530  154.6790  132.9640 C   0  0  0  0  0  0  0  0  0  0  0  0
  147.3950  154.4870  132.8480 N   0  0  0  0  0  0  0  0  0  0  0  0
  146.5070  155.6290  133.0410 C   0  0  0  0  0  0  0  0  0  0  0  0
  145.1560  155.4430  133.4610 C   0  0  0  0  0  0  0  0  0  0  0  0
  144.3100  156.5380  133.7020 C   0  0  0  0  0  0  0  0  0  0  0  0
  144.8360  157.8140  133.5500 C   0  0  0  0  0  0  0  0  0  0  0  0
  144.2600  159.0330  133.8000 C   0  0  0  0  0  0  0  0  0  0  0  0
  145.2530  159.9710  133.5520 C   0  0  0  0  0  0  0  0  0  0  0  0
  145.0550  161.4020  133.8150 C   0  0  0  0  0  0  0  0  0  0  0  0
  146.1460  162.1890  134.2930 N   0  0  0  0  0  0  0  0  0  0  0  0
  143.9100  161.9180  133.7200 O   0  0  0  0  0  0  0  0  0  0  0  0
  146.4180  159.3620  133.1640 N   0  0  0  0  0  0  0  0  0  0  0  0
  147.7370  159.9470  133.0330 C   0  0  0  0  0  0  0  0  0  0  0  0
  148.4500  160.1060  134.0640 O   0  0  0  0  0  0  0  0  0  0  0  0
  148.2780  160.4030  131.7020 C   0  0  0  0  0  0  0  0  0  0  0  0
  149.4710  159.6120  131.2430 C   0  0  0  0  0  0  0  0  0  0  0  0
  150.3000  160.1190  130.4400 O   0  0  0  0  0  0  0  0  0  0  0  0
  149.6130  158.2830  131.6260 O   0  0  0  0  0  0  0  0  0  0  0  0
  146.1310  158.0330  133.1600 C   0  0  0  0  0  0  0  0  0  0  0  0
  146.9760  156.9570  132.8460 C   0  0  0  0  0  0  0  0  0  0  0  0
  146.8780  153.1220  133.0560 C   0  0  0  0  0  0  0  0  0  0  0  0
  147.7490  152.0690  132.3660 C   0  0  0  0  0  0  0  0  0  0  0  0
  150.4277  150.5736  132.9603 H   0  0  0  0  0  0  0  0  0  0  0  0
  149.3446  150.5191  131.5284 H   0  0  0  0  0  0  0  0  0  0  0  0
  150.7797  151.5994  131.5284 H   0  0  0  0  0  0  0  0  0  0  0  0
  150.6978  153.6736  132.4553 H   0  0  0  0  0  0  0  0  0  0  0  0
  149.4429  153.6394  131.1654 H   0  0  0  0  0  0  0  0  0  0  0  0
  149.1303  154.6784  134.0285 H   0  0  0  0  0  0  0  0  0  0  0  0
  149.1141  155.6380  132.4927 H   0  0  0  0  0  0  0  0  0  0  0  0
  144.7696  154.4223  133.5987 H   0  0  0  0  0  0  0  0  0  0  0  0
  143.2623  156.3892  134.0021 H   0  0  0  0  0  0  0  0  0  0  0  0
  143.2281  159.2269  134.1281 H   0  0  0  0  0  0  0  0  0  0  0  0
  147.0800  161.7570  134.4650 H   0  0  0  0  0  0  0  0  0  0  0  0
  147.4823  160.3035  130.9490 H   0  0  0  0  0  0  0  0  0  0  0  0
  148.6055  161.4461  131.8233 H   0  0  0  0  0  0  0  0  0  0  0  0
  147.9877  157.1388  132.4542 H   0  0  0  0  0  0  0  0  0  0  0  0
  146.8542  152.9116  134.1354 H   0  0  0  0  0  0  0  0  0  0  0  0
  145.8700  153.0695  132.6188 H   0  0  0  0  0  0  0  0  0  0  0  0
  147.4222  151.0670  132.6809 H   0  0  0  0  0  0  0  0  0  0  0  0
  147.6425  152.1795  131.2767 H   0  0  0  0  0  0  0  0  0  0  0  0
  1  2  1  0
  2  3  1  0
  3  4  1  0
  4  5  1  0
  5  6  1  0
  6  7  2  0
  7  8  1  0
  8  9  2  0
  9 10  1  0
 10 11  2  0
 11 12  1  0
 12 13  1  0
 12 14  2  0
 11 15  1  0
 15 16  1  0
 16 17  2  0
 16 18  1  0
 18 19  1  0
 19 20  2  0
 19 21  1  0
 15 22  1  0
 22 23  2  0
  5 24  1  0
 24 25  1  0
 25  2  1  0
 23  6  1  0
 22  9  1  0
  1 26  1  0
  1 27  1  0
  1 28  1  0
  3 29  1  0
  3 30  1  0
  4 31  1  0
  4 32  1  0
  7 33  1  0
  8 34  1  0
 10 35  1  0
 13 36  1  0
 18 37  1  0
 18 38  1  0
 23 39  1  0
 24 40  1  0
 24 41  1  0
 25 42  1  0
 25 43  1  0
M  CHG  2  13  -1  21  -1
M  END
>  <UniqueID>  (79) 
79

>  <SMILES>  (79) 
CN1CCN(c2ccc3cc(C([NH-])=O)n(C(=O)CC(=O)[O-])c3c2)CC1

>  <Energy>  (79) 
97.14996799138004

>  <Genealogy>  (79) 
CN1CCN(c2ccc3cc(C([NH-])=O)n(C(=O)CC(=O)[O-])c3c2)CC1 (protonated)
CN1CCN(c2ccc3cc(C([NH-])=O)n(C(=O)CC(=O)[O-])c3c2)CC1 (3D coordinates assigned)
CN1CCN(c2ccc3cc(C([NH-])=O)n(C(=O)CC(=O)[O-])c3c2)CC1 (nonaromatic ring conformer: 97.14996799138004 kcal/mol)

>  <smiles>  (79) 
CN1CCN(c2ccc3cc(C(N)=O)n(C(=O)CC(=O)O)c3c2)CC1

>  <score_type>  (79) 
oracle

>  <origin>  (79) 
adg

>  <m_score__min__energy>  (79) 
-7.4699999999999998

>  <m_primary>  (79) 
energy

$$$$
79:0
     RDKit          3D

 31 32  0  0  0  0  0  0  0  0999 V2000
  149.6010  162.1500  130.3230 C   0  0  0  0  0  0  0  0  0  0  0  0
  149.2770  160.8650  131.0250 C   0  0  0  0  0  0  0  0  0  0  0  0
  150.1180  159.7360  130.8650 C   0  0  0  0  0  0  0  0  0  0  0  0
  149.7980  158.5140  131.4780 C   0  0  0  0  0  0  0  0  0  0  0  0
  148.6320  158.4500  132.2380 C   0  0  0  0  0  0  0  0  0  0  0  0
  148.0740  157.3890  132.9130 C   0  0  0  0  0  0  0  0  0  0  0  0
  146.9020  157.8870  133.4810 C   0  0  0  0  0  0  0  0  0  0  0  0
  146.0190  157.1050  134.3740 C   0  0  0  0  0  0  0  0  0  0  0  0
  144.5980  157.2320  134.2910 N   0  0  0  0  0  0  0  0  0  0  0  0
  146.5130  156.2940  135.2010 O   0  0  0  0  0  0  0  0  0  0  0  0
  146.7430  159.2040  133.1680 N   0  0  0  0  0  0  0  0  0  0  0  0
  145.6430  160.0590  133.5170 C   0  0  0  0  0  0  0  0  0  0  0  0
  145.8590  161.1530  134.1080 O   0  0  0  0  0  0  0  0  0  0  0  0
  144.3020  159.6680  133.2000 N   0  0  0  0  0  0  0  0  0  0  0  0
  143.1210  160.2880  133.7880 C   0  0  0  0  0  0  0  0  0  0  0  0
  142.0670  159.2580  134.0390 C   0  0  0  0  0  0  0  0  0  0  0  0
  140.9150  159.4010  133.5520 O   0  0  0  0  0  0  0  0  0  0  0  0
  142.3440  158.1560  134.8380 O   0  0  0  0  0  0  0  0  0  0  0  0
  147.8100  159.5340  132.4060 C   0  0  0  0  0  0  0  0  0  0  0  0
  148.0950  160.7590  131.7900 C   0  0  0  0  0  0  0  0  0  0  0  0
  149.7989  162.9349  131.0678 H   0  0  0  0  0  0  0  0  0  0  0  0
  150.4918  162.0092  129.6931 H   0  0  0  0  0  0  0  0  0  0  0  0
  148.7500  162.4484  129.6931 H   0  0  0  0  0  0  0  0  0  0  0  0
  151.0298  159.8176  130.2551 H   0  0  0  0  0  0  0  0  0  0  0  0
  150.4479  157.6342  131.3618 H   0  0  0  0  0  0  0  0  0  0  0  0
  148.4687  156.3650  132.9886 H   0  0  0  0  0  0  0  0  0  0  0  0
  144.1510  157.9350  133.6620 H   0  0  0  0  0  0  0  0  0  0  0  0
  143.9830  156.6460  134.8990 H   0  0  0  0  0  0  0  0  0  0  0  0
  143.3970  160.7647  134.7401 H   0  0  0  0  0  0  0  0  0  0  0  0
  142.7269  161.0418  133.0905 H   0  0  0  0  0  0  0  0  0  0  0  0
  147.4152  161.6169  131.8994 H   0  0  0  0  0  0  0  0  0  0  0  0
  1  2  1  0
  2  3  2  0
  3  4  1  0
  4  5  2  0
  5  6  1  0
  6  7  2  0
  7  8  1  0
  8  9  1  0
  8 10  2  0
  7 11  1  0
 11 12  1  0
 12 13  2  0
 12 14  1  0
 14 15  1  0
 15 16  1  0
 16 17  2  0
 16 18  1  0
 11 19  1  0
 19 20  2  0
 20  2  1  0
 19  5  1  0
  1 21  1  0
  1 22  1  0
  1 23  1  0
  3 24  1  0
  4 25  1  0
  6 26  1  0
  9 27  1  0
  9 28  1  0
 15 29  1  0
 15 30  1  0
 20 31  1  0
M  CHG  2  14  -1  18  -1
M  END
>  <UniqueID>  (80) 
80

>  <SMILES>  (80) 
Cc1ccc2cc(C(N)=O)n(C(=O)[N-]CC(=O)[O-])c2c1

>  <Energy>  (80) 
66.63975863289993

>  <Genealogy>  (80) 
Cc1ccc2cc(C(N)=O)n(C(=O)[N-]CC(=O)[O-])c2c1 (protonated)
Cc1ccc2cc(C(N)=O)n(C(=O)[N-]CC(=O)[O-])c2c1 (3D coordinates assigned)
Cc1ccc2cc(C(N)=O)n(C(=O)[N-]CC(=O)[O-])c2c1 (optimized conformer: 66.63975863289993 kcal/mol)

>  <smiles>  (80) 
Cc1ccc2cc(C(N)=O)n(C(=O)NCC(=O)O)c2c1

>  <score_type>  (80) 
oracle

>  <origin>  (80) 
adg

>  <m_score__min__energy>  (80) 
-6.3899999999999997

>  <m_primary>  (80) 
energy

$$$$
80:0
     RDKit          3D

 31 33  0  0  0  0  0  0  0  0999 V2000
  140.4240  158.9180  136.3530 N   0  0  0  0  0  0  0  0  0  0  0  0
  140.7660  158.7140  134.9850 C   0  0  0  0  0  0  0  0  0  0  0  0
  139.8580  158.7350  134.1120 O   0  0  0  0  0  0  0  0  0  0  0  0
  142.1740  158.5390  134.5710 C   0  0  0  0  0  0  0  0  0  0  0  0
  142.8640  157.3350  134.6950 C   0  0  0  0  0  0  0  0  0  0  0  0
  144.0930  157.5580  134.1190 C   0  0  0  0  0  0  0  0  0  0  0  0
  145.1820  156.7040  133.9760 C   0  0  0  0  0  0  0  0  0  0  0  0
  146.3410  157.2100  133.3680 C   0  0  0  0  0  0  0  0  0  0  0  0
  146.3990  158.5560  132.9190 C   0  0  0  0  0  0  0  0  0  0  0  0
  147.6370  159.0790  132.2900 C   0  0  0  0  0  0  0  0  0  0  0  0
  148.7290  158.2270  132.0500 C   0  0  0  0  0  0  0  0  0  0  0  0
  149.8870  158.7390  131.4630 C   0  0  0  0  0  0  0  0  0  0  0  0
  149.9530  160.0880  131.1200 C   0  0  0  0  0  0  0  0  0  0  0  0
  148.8540  160.9110  131.3690 C   0  0  0  0  0  0  0  0  0  0  0  0
  147.7300  160.3990  131.9430 N   0  0  0  0  0  0  0  0  0  0  0  0
  145.2680  159.3930  133.0840 C   0  0  0  0  0  0  0  0  0  0  0  0
  144.1200  158.8550  133.6770 C   0  0  0  0  0  0  0  0  0  0  0  0
  142.9490  159.4740  133.9520 N   0  0  0  0  0  0  0  0  0  0  0  0
  142.6410  160.8570  133.7220 C   0  0  0  0  0  0  0  0  0  0  0  0
  141.4560  161.2160  133.4930 O   0  0  0  0  0  0  0  0  0  0  0  0
  143.6530  161.8110  133.7210 O   0  0  0  0  0  0  0  0  0  0  0  0
  139.4770  159.2640  136.6240 H   0  0  0  0  0  0  0  0  0  0  0  0
  142.5026  156.4038  135.1557 H   0  0  0  0  0  0  0  0  0  0  0  0
  145.1358  155.6632  134.3290 H   0  0  0  0  0  0  0  0  0  0  0  0
  147.2157  156.5558  133.2375 H   0  0  0  0  0  0  0  0  0  0  0  0
  148.6712  157.1631  132.3233 H   0  0  0  0  0  0  0  0  0  0  0  0
  150.7459  158.0790  131.2715 H   0  0  0  0  0  0  0  0  0  0  0  0
  150.8622  160.4999  130.6577 H   0  0  0  0  0  0  0  0  0  0  0  0
  148.8956  161.9770  131.1008 H   0  0  0  0  0  0  0  0  0  0  0  0
  146.9200  161.0430  132.0930 H   0  0  0  0  0  0  0  0  0  0  0  0
  145.2915  160.4419  132.7536 H   0  0  0  0  0  0  0  0  0  0  0  0
  1  2  1  0
  2  3  2  0
  2  4  1  0
  4  5  2  0
  5  6  1  0
  6  7  2  0
  7  8  1  0
  8  9  2  0
  9 10  1  0
 10 11  2  0
 11 12  1  0
 12 13  2  0
 13 14  1  0
 14 15  2  0
  9 16  1  0
 16 17  2  0
 17 18  1  0
 18 19  1  0
 19 20  2  0
 19 21  1  0
 18  4  1  0
 17  6  1  0
 15 10  1  0
  1 22  1  0
  5 23  1  0
  7 24  1  0
  8 25  1  0
 11 26  1  0
 12 27  1  0
 13 28  1  0
 14 29  1  0
 15 30  1  0
 16 31  1  0
M  CHG  3   1  -1  15   1  21  -1
M  END
>  <UniqueID>  (81) 
81

>  <SMILES>  (81) 
[NH-]C(=O)c1cc2ccc(-c3cccc[nH+]3)cc2n1C(=O)[O-]

>  <Energy>  (81) 
78.88995817768928

>  <Genealogy>  (81) 
[NH-]C(=O)c1cc2ccc(-c3cccc[nH+]3)cc2n1C(=O)[O-] (protonated)
[NH-]C(=O)c1cc2ccc(-c3cccc[nH+]3)cc2n1C(=O)[O-] (3D coordinates assigned)
[NH-]C(=O)c1cc2ccc(-c3cccc[nH+]3)cc2n1C(=O)[O-] (optimized conformer: 78.88995817768928 kcal/mol)

>  <smiles>  (81) 
NC(=O)c1cc2ccc(-c3ccccn3)cc2n1C(=O)O

>  <score_type>  (81) 
oracle

>  <origin>  (81) 
adg

>  <m_score__min__energy>  (81) 
-6.8799999999999999

>  <m_primary>  (81) 
energy

$$$$
81:0
     RDKit          3D

 63 66  0  0  0  0  0  0  0  0999 V2000
  140.1290  149.3940  131.0910 C   0  0  0  0  0  0  0  0  0  0  0  0
  141.1290  149.9700  132.1160 C   0  0  0  0  0  0  0  0  0  0  0  0
  142.4910  149.2830  131.9170 C   0  0  0  0  0  0  0  0  0  0  0  0
  140.6470  149.7120  133.5550 C   0  0  0  0  0  0  0  0  0  0  0  0
  141.3240  151.3740  131.8930 O   0  0  0  0  0  0  0  0  0  0  0  0
  141.0270  152.4120  132.7940 C   0  0  0  0  0  0  0  0  0  0  0  0
  139.8480  152.8430  132.9090 O   0  0  0  0  0  0  0  0  0  0  0  0
  142.0840  152.9860  133.5850 N   0  0  0  0  0  0  0  0  0  0  0  0
  141.8630  154.2050  134.3810 C   0  0  0  0  0  0  0  0  0  0  0  0
  143.0140  155.1970  134.1610 C   0  0  0  0  0  0  0  0  0  0  0  0
  144.3220  154.5200  134.1260 N   0  0  0  0  0  0  0  0  0  0  0  0
  145.4760  155.2220  133.6120 C   0  0  0  0  0  0  0  0  0  0  0  0
  146.5860  154.5030  133.0930 C   0  0  0  0  0  0  0  0  0  0  0  0
  147.7140  155.1780  132.5990 C   0  0  0  0  0  0  0  0  0  0  0  0
  147.6950  156.5690  132.6000 C   0  0  0  0  0  0  0  0  0  0  0  0
  148.6640  157.4640  132.2130 C   0  0  0  0  0  0  0  0  0  0  0  0
  148.1100  158.7210  132.4300 C   0  0  0  0  0  0  0  0  0  0  0  0
  148.8170  159.9830  132.1210 C   0  0  0  0  0  0  0  0  0  0  0  0
  148.1110  161.2140  131.9600 N   0  0  0  0  0  0  0  0  0  0  0  0
  150.0640  159.9640  131.9470 O   0  0  0  0  0  0  0  0  0  0  0  0
  146.8490  158.6130  132.9370 N   0  0  0  0  0  0  0  0  0  0  0  0
  145.9810  159.6880  133.3420 C   0  0  0  0  0  0  0  0  0  0  0  0
  146.4760  160.7200  133.8760 O   0  0  0  0  0  0  0  0  0  0  0  0
  144.5140  159.6650  133.0000 C   0  0  0  0  0  0  0  0  0  0  0  0
  143.6290  160.0750  134.1870 C   0  0  0  0  0  0  0  0  0  0  0  0
  143.1630  158.9310  134.8710 O   0  0  0  0  0  0  0  0  0  0  0  0
  141.7940  159.1240  135.0200 C   0  0  0  0  0  0  0  0  0  0  0  0
  141.4060  160.1400  133.9900 C   0  0  0  0  0  0  0  0  0  0  0  0
  142.5610  160.8680  133.7160 O   0  0  0  0  0  0  0  0  0  0  0  0
  146.6140  157.2840  133.0460 C   0  0  0  0  0  0  0  0  0  0  0  0
  145.4960  156.6370  133.5860 C   0  0  0  0  0  0  0  0  0  0  0  0
  144.3920  153.0960  134.4830 C   0  0  0  0  0  0  0  0  0  0  0  0
  143.3930  152.3150  133.6240 C   0  0  0  0  0  0  0  0  0  0  0  0
  139.2947  148.9134  131.6229 H   0  0  0  0  0  0  0  0  0  0  0  0
  139.7415  150.2073  130.4598 H   0  0  0  0  0  0  0  0  0  0  0  0
  140.6381  148.6508  130.4598 H   0  0  0  0  0  0  0  0  0  0  0  0
  142.9354  149.0588  132.8980 H   0  0  0  0  0  0  0  0  0  0  0  0
  142.3513  148.3476  131.3554 H   0  0  0  0  0  0  0  0  0  0  0  0
  143.1602  149.9514  131.3554 H   0  0  0  0  0  0  0  0  0  0  0  0
  141.3869  150.1081  134.2661 H   0  0  0  0  0  0  0  0  0  0  0  0
  139.6810  150.2136  133.7136 H   0  0  0  0  0  0  0  0  0  0  0  0
  140.5287  148.6300  133.7136 H   0  0  0  0  0  0  0  0  0  0  0  0
  140.9161  154.6730  134.0738 H   0  0  0  0  0  0  0  0  0  0  0  0
  141.8199  153.9353  135.4466 H   0  0  0  0  0  0  0  0  0  0  0  0
  142.8571  155.7177  133.2048 H   0  0  0  0  0  0  0  0  0  0  0  0
  143.0190  155.9062  135.0019 H   0  0  0  0  0  0  0  0  0  0  0  0
  146.5615  153.4034  133.0779 H   0  0  0  0  0  0  0  0  0  0  0  0
  148.5863  154.6235  132.2226 H   0  0  0  0  0  0  0  0  0  0  0  0
  149.6641  157.2348  131.8164 H   0  0  0  0  0  0  0  0  0  0  0  0
  148.6410  162.1040  131.8250 H   0  0  0  0  0  0  0  0  0  0  0  0
  147.0720  161.2340  131.8720 H   0  0  0  0  0  0  0  0  0  0  0  0
  144.3343  160.3619  132.1682 H   0  0  0  0  0  0  0  0  0  0  0  0
  144.2499  158.6330  132.7257 H   0  0  0  0  0  0  0  0  0  0  0  0
  144.2170  160.6680  134.9030 H   0  0  0  0  0  0  0  0  0  0  0  0
  141.2542  158.1809  134.8490 H   0  0  0  0  0  0  0  0  0  0  0  0
  141.5431  159.4637  136.0357 H   0  0  0  0  0  0  0  0  0  0  0  0
  141.0431  159.6416  133.0790 H   0  0  0  0  0  0  0  0  0  0  0  0
  140.5954  160.7904  134.3505 H   0  0  0  0  0  0  0  0  0  0  0  0
  144.6496  157.2171  133.9824 H   0  0  0  0  0  0  0  0  0  0  0  0
  145.4091  152.7196  134.2993 H   0  0  0  0  0  0  0  0  0  0  0  0
  144.1455  152.9679  135.5474 H   0  0  0  0  0  0  0  0  0  0  0  0
  143.7860  152.2359  132.5996 H   0  0  0  0  0  0  0  0  0  0  0  0
  143.2591  151.3171  134.0670 H   0  0  0  0  0  0  0  0  0  0  0  0
  1  2  1  0
  2  3  1  0
  2  4  1  0
  2  5  1  0
  5  6  1  0
  6  7  2  0
  6  8  1  0
  8  9  1  0
  9 10  1  0
 10 11  1  0
 11 12  1  0
 12 13  2  0
 13 14  1  0
 14 15  2  0
 15 16  1  0
 16 17  2  0
 17 18  1  0
 18 19  1  0
 18 20  2  0
 17 21  1  0
 21 22  1  0
 22 23  2  0
 22 24  1  0
 24 25  1  0
 25 26  1  0
 26 27  1  0
 27 28  1  0
 28 29  1  0
 21 30  1  0
 30 31  2  0
 11 32  1  0
 32 33  1  0
 33  8  1  0
 31 12  1  0
 30 15  1  0
 29 25  1  0
  1 34  1  0
  1 35  1  0
  1 36  1  0
  3 37  1  0
  3 38  1  0
  3 39  1  0
  4 40  1  0
  4 41  1  0
  4 42  1  0
  9 43  1  0
  9 44  1  0
 10 45  1  0
 10 46  1  0
 13 47  1  0
 14 48  1  0
 16 49  1  0
 19 50  1  0
 19 51  1  0
 24 52  1  0
 24 53  1  0
 25 54  1  0
 27 55  1  0
 27 56  1  0
 28 57  1  0
 28 58  1  0
 31 59  1  0
 32 60  1  0
 32 61  1  0
 33 62  1  0
 33 63  1  0
M  END
>  <UniqueID>  (82) 
82

>  <SMILES>  (82) 
CC(C)(C)OC(=O)N1CCN(c2ccc3cc(C(N)=O)n(C(=O)CC4OCCO4)c3c2)CC1

>  <Energy>  (82) 
98.35699427820502

>  <Genealogy>  (82) 
CC(C)(C)OC(=O)N1CCN(c2ccc3cc(C(N)=O)n(C(=O)CC4OCCO4)c3c2)CC1 (3D coordinates assigned)
CC(C)(C)OC(=O)N1CCN(c2ccc3cc(C(N)=O)n(C(=O)CC4OCCO4)c3c2)CC1 (nonaromatic ring conformer: 98.35699427820502 kcal/mol)

>  <smiles>  (82) 
CC(C)(C)OC(=O)N1CCN(c2ccc3cc(C(N)=O)n(C(=O)CC4OCCO4)c3c2)CC1

>  <score_type>  (82) 
oracle

>  <origin>  (82) 
adg

>  <m_score__min__energy>  (82) 
-8.9000000000000004

>  <m_primary>  (82) 
energy

$$$$
82:0
     RDKit          3D

 48 50  0  0  0  0  0  0  0  0999 V2000
  150.3950  150.3640  130.6100 C   0  0  0  0  0  0  0  0  0  0  0  0
  149.3340  150.3580  131.5590 O   0  0  0  0  0  0  0  0  0  0  0  0
  148.7020  151.5070  132.0550 C   0  0  0  0  0  0  0  0  0  0  0  0
  149.4970  152.6170  132.3670 C   0  0  0  0  0  0  0  0  0  0  0  0
  148.9160  153.7990  132.8290 C   0  0  0  0  0  0  0  0  0  0  0  0
  147.5310  153.8820  132.9900 C   0  0  0  0  0  0  0  0  0  0  0  0
  146.7190  152.7750  132.7060 C   0  0  0  0  0  0  0  0  0  0  0  0
  145.2550  152.8720  132.8750 C   0  0  0  0  0  0  0  0  0  0  0  0
  144.4580  151.7020  132.8090 C   0  0  0  0  0  0  0  0  0  0  0  0
  143.0620  151.7780  132.9420 C   0  0  0  0  0  0  0  0  0  0  0  0
  142.4930  153.0320  133.1320 C   0  0  0  0  0  0  0  0  0  0  0  0
  141.1680  153.3950  133.2230 C   0  0  0  0  0  0  0  0  0  0  0  0
  141.1740  154.7850  133.3360 C   0  0  0  0  0  0  0  0  0  0  0  0
  139.9600  155.6200  133.4780 C   0  0  0  0  0  0  0  0  0  0  0  0
  139.9630  156.7870  134.3030 N   0  0  0  0  0  0  0  0  0  0  0  0
  138.9100  155.3170  132.8540 O   0  0  0  0  0  0  0  0  0  0  0  0
  142.4520  155.2580  133.3290 N   0  0  0  0  0  0  0  0  0  0  0  0
  142.8550  156.6350  133.2840 C   0  0  0  0  0  0  0  0  0  0  0  0
  142.6770  157.2920  132.2240 O   0  0  0  0  0  0  0  0  0  0  0  0
  143.3330  157.3280  134.5310 C   0  0  0  0  0  0  0  0  0  0  0  0
  142.4710  158.8720  134.8280 S   0  0  0  0  0  0  0  0  0  0  0  0
  141.2540  158.9310  133.9470 O   0  0  0  0  0  0  0  0  0  0  0  0
  143.3720  160.0230  134.4800 O   0  0  0  0  0  0  0  0  0  0  0  0
  141.9920  159.0080  136.5460 C   0  0  0  0  0  0  0  0  0  0  0  0
  140.9920  157.5780  137.0630 P   0  0  0  0  0  0  0  0  0  0  0  0
  139.5730  157.7360  136.5690 O   0  0  0  0  0  0  0  0  0  0  0  0
  141.6560  156.1620  136.4220 O   0  0  0  0  0  0  0  0  0  0  0  0
  140.9830  157.4770  138.7510 O   0  0  0  0  0  0  0  0  0  0  0  0
  143.2480  154.1740  133.2020 C   0  0  0  0  0  0  0  0  0  0  0  0
  144.6400  154.1300  133.0720 C   0  0  0  0  0  0  0  0  0  0  0  0
  147.3060  151.5870  132.2390 C   0  0  0  0  0  0  0  0  0  0  0  0
  151.3597  150.3695  131.1386 H   0  0  0  0  0  0  0  0  0  0  0  0
  150.3277  149.4655  129.9791 H   0  0  0  0  0  0  0  0  0  0  0  0
  150.3175  151.2617  129.9791 H   0  0  0  0  0  0  0  0  0  0  0  0
  150.5888  152.5568  132.2469 H   0  0  0  0  0  0  0  0  0  0  0  0
  149.5496  154.6662  133.0666 H   0  0  0  0  0  0  0  0  0  0  0  0
  147.0756  154.8197  133.3411 H   0  0  0  0  0  0  0  0  0  0  0  0
  144.9376  150.7246  132.6520 H   0  0  0  0  0  0  0  0  0  0  0  0
  142.4381  150.8732  132.8972 H   0  0  0  0  0  0  0  0  0  0  0  0
  140.2916  152.7304  133.2095 H   0  0  0  0  0  0  0  0  0  0  0  0
  140.7820  157.0280  134.9020 H   0  0  0  0  0  0  0  0  0  0  0  0
  139.1130  157.3920  134.3570 H   0  0  0  0  0  0  0  0  0  0  0  0
  143.1696  156.6612  135.3905 H   0  0  0  0  0  0  0  0  0  0  0  0
  144.4000  157.5598  134.3979 H   0  0  0  0  0  0  0  0  0  0  0  0
  142.8975  159.0570  137.1686 H   0  0  0  0  0  0  0  0  0  0  0  0
  141.3882  159.9192  136.6691 H   0  0  0  0  0  0  0  0  0  0  0  0
  145.2407  155.0502  133.1217 H   0  0  0  0  0  0  0  0  0  0  0  0
  146.6737  150.7150  132.0158 H   0  0  0  0  0  0  0  0  0  0  0  0
  1  2  1  0
  2  3  1  0
  3  4  2  0
  4  5  1  0
  5  6  2  0
  6  7  1  0
  7  8  1  0
  8  9  2  0
  9 10  1  0
 10 11  2  0
 11 12  1  0
 12 13  2  0
 13 14  1  0
 14 15  1  0
 14 16  2  0
 13 17  1  0
 17 18  1  0
 18 19  2  0
 18 20  1  0
 20 21  1  0
 21 22  2  0
 21 23  2  0
 21 24  1  0
 24 25  1  0
 25 26  2  0
 25 27  1  0
 25 28  1  0
 17 29  1  0
 29 30  2  0
  7 31  2  0
 31  3  1  0
 30  8  1  0
 29 11  1  0
  1 32  1  0
  1 33  1  0
  1 34  1  0
  4 35  1  0
  5 36  1  0
  6 37  1  0
  9 38  1  0
 10 39  1  0
 12 40  1  0
 15 41  1  0
 15 42  1  0
 20 43  1  0
 20 44  1  0
 24 45  1  0
 24 46  1  0
 30 47  1  0
 31 48  1  0
M  CHG  2  27  -1  28  -1
M  END
>  <UniqueID>  (83) 
83

>  <SMILES>  (83) 
COc1cccc(-c2ccc3cc(C(N)=O)n(C(=O)CS(=O)(=O)CP(=O)([O-])[O-])c3c2)c1

>  <Energy>  (83) 
83.3050419913059

>  <Genealogy>  (83) 
COc1cccc(-c2ccc3cc(C(N)=O)n(C(=O)CS(=O)(=O)CP(=O)([O-])[O-])c3c2)c1 (protonated)
COc1cccc(-c2ccc3cc(C(N)=O)n(C(=O)CS(=O)(=O)CP(=O)([O-])[O-])c3c2)c1 (3D coordinates assigned)
COc1cccc(-c2ccc3cc(C(N)=O)n(C(=O)CS(=O)(=O)CP(=O)([O-])[O-])c3c2)c1 (optimized conformer: 83.3050419913059 kcal/mol)

>  <smiles>  (83) 
COc1cccc(-c2ccc3cc(C(N)=O)n(C(=O)CS(=O)(=O)CP(=O)(O)O)c3c2)c1

>  <score_type>  (83) 
oracle

>  <origin>  (83) 
adg

>  <m_score__min__energy>  (83) 
-9.1899999999999995

>  <m_primary>  (83) 
energy

$$$$
83:0
     RDKit          3D

 47 48  0  0  0  0  0  0  0  0999 V2000
  141.0370  159.4150  136.3410 C   0  0  0  0  0  0  0  0  0  0  0  0
  141.4320  158.3740  135.8790 C   0  0  0  0  0  0  0  0  0  0  0  0
  141.9150  157.1100  135.3100 C   0  0  0  0  0  0  0  0  0  0  0  0
  143.2720  157.2430  134.8920 O   0  0  0  0  0  0  0  0  0  0  0  0
  143.6500  157.8750  133.7020 C   0  0  0  0  0  0  0  0  0  0  0  0
  142.8660  157.8940  132.7130 O   0  0  0  0  0  0  0  0  0  0  0  0
  144.9210  158.5350  133.6190 N   0  0  0  0  0  0  0  0  0  0  0  0
  145.1650  159.8730  133.5270 C   0  0  0  0  0  0  0  0  0  0  0  0
  144.1610  160.9490  133.6530 C   0  0  0  0  0  0  0  0  0  0  0  0
  142.7850  160.7090  133.3610 N   0  0  0  0  0  0  0  0  0  0  0  0
  144.5140  162.0880  134.0610 O   0  0  0  0  0  0  0  0  0  0  0  0
  146.5280  160.1080  133.3580 C   0  0  0  0  0  0  0  0  0  0  0  0
  147.1150  158.8620  133.3530 C   0  0  0  0  0  0  0  0  0  0  0  0
  148.4470  158.5010  133.1900 C   0  0  0  0  0  0  0  0  0  0  0  0
  148.7630  157.1330  133.1770 C   0  0  0  0  0  0  0  0  0  0  0  0
  147.7510  156.1400  133.3180 C   0  0  0  0  0  0  0  0  0  0  0  0
  148.0890  154.7250  133.2730 N   0  0  0  0  0  0  0  0  0  0  0  0
  149.0210  154.2160  132.2600 C   0  0  0  0  0  0  0  0  0  0  0  0
  147.4700  153.7570  134.1930 C   0  0  0  0  0  0  0  0  0  0  0  0
  145.9730  153.5890  133.8690 C   0  0  0  0  0  0  0  0  0  0  0  0
  145.7350  153.2780  132.4390 N   0  0  0  0  0  0  0  0  0  0  0  0
  145.4640  151.8410  132.2350 C   0  0  0  0  0  0  0  0  0  0  0  0
  144.5920  154.0660  131.9380 C   0  0  0  0  0  0  0  0  0  0  0  0
  146.4060  156.5630  133.4880 C   0  0  0  0  0  0  0  0  0  0  0  0
  146.1250  157.9330  133.5120 C   0  0  0  0  0  0  0  0  0  0  0  0
  140.6766  160.3649  136.7626 H   0  0  0  0  0  0  0  0  0  0  0  0
  141.8455  156.3191  136.0713 H   0  0  0  0  0  0  0  0  0  0  0  0
  141.2957  156.8494  134.4390 H   0  0  0  0  0  0  0  0  0  0  0  0
  142.5040  160.0320  132.6190 H   0  0  0  0  0  0  0  0  0  0  0  0
  147.0287  161.0816  133.2513 H   0  0  0  0  0  0  0  0  0  0  0  0
  149.2306  159.2643  133.0746 H   0  0  0  0  0  0  0  0  0  0  0  0
  149.8112  156.8222  133.0557 H   0  0  0  0  0  0  0  0  0  0  0  0
  149.8821  153.7457  132.7573 H   0  0  0  0  0  0  0  0  0  0  0  0
  148.5092  153.4721  131.6317 H   0  0  0  0  0  0  0  0  0  0  0  0
  149.3702  155.0486  131.6317 H   0  0  0  0  0  0  0  0  0  0  0  0
  147.9745  152.7850  134.0895 H   0  0  0  0  0  0  0  0  0  0  0  0
  147.5724  154.1284  135.2233 H   0  0  0  0  0  0  0  0  0  0  0  0
  145.5692  152.7688  134.4807 H   0  0  0  0  0  0  0  0  0  0  0  0
  145.4727  154.5429  134.0923 H   0  0  0  0  0  0  0  0  0  0  0  0
  146.5770  153.5440  131.8760 H   0  0  0  0  0  0  0  0  0  0  0  0
  145.3702  151.3433  133.2115 H   0  0  0  0  0  0  0  0  0  0  0  0
  144.5274  151.7210  131.6708 H   0  0  0  0  0  0  0  0  0  0  0  0
  146.2926  151.3881  131.6708 H   0  0  0  0  0  0  0  0  0  0  0  0
  144.0182  154.4616  132.7891 H   0  0  0  0  0  0  0  0  0  0  0  0
  144.9627  154.9013  131.3258 H   0  0  0  0  0  0  0  0  0  0  0  0
  143.9432  153.4224  131.3258 H   0  0  0  0  0  0  0  0  0  0  0  0
  145.5980  155.8249  133.5991 H   0  0  0  0  0  0  0  0  0  0  0  0
  1  2  3  0
  2  3  1  0
  3  4  1  0
  4  5  1  0
  5  6  2  0
  5  7  1  0
  7  8  1  0
  8  9  1  0
  9 10  1  0
  9 11  2  0
  8 12  2  0
 12 13  1  0
 13 14  2  0
 14 15  1  0
 15 16  2  0
 16 17  1  0
 17 18  1  0
 17 19  1  0
 19 20  1  0
 20 21  1  0
 21 22  1  0
 21 23  1  0
 16 24  1  0
 24 25  2  0
 25  7  1  0
 25 13  1  0
  1 26  1  0
  3 27  1  0
  3 28  1  0
 10 29  1  0
 12 30  1  0
 14 31  1  0
 15 32  1  0
 18 33  1  0
 18 34  1  0
 18 35  1  0
 19 36  1  0
 19 37  1  0
 20 38  1  0
 20 39  1  0
 21 40  1  0
 22 41  1  0
 22 42  1  0
 22 43  1  0
 23 44  1  0
 23 45  1  0
 23 46  1  0
 24 47  1  0
M  CHG  2  10  -1  21   1
M  END
>  <UniqueID>  (84) 
84

>  <SMILES>  (84) 
C#CCOC(=O)n1c(C([NH-])=O)cc2ccc(N(C)CC[NH+](C)C)cc21

>  <Energy>  (84) 
82.54311383740237

>  <Genealogy>  (84) 
C#CCOC(=O)n1c(C([NH-])=O)cc2ccc(N(C)CC[NH+](C)C)cc21 (protonated)
C#CCOC(=O)n1c(C([NH-])=O)cc2ccc(N(C)CC[NH+](C)C)cc21 (3D coordinates assigned)
C#CCOC(=O)n1c(C([NH-])=O)cc2ccc(N(C)CC[NH+](C)C)cc21 (optimized conformer: 82.54311383740237 kcal/mol)

>  <smiles>  (84) 
C#CCOC(=O)n1c(C(N)=O)cc2ccc(N(C)CCN(C)C)cc21

>  <score_type>  (84) 
oracle

>  <origin>  (84) 
adg

>  <m_score__min__energy>  (84) 
-6.6900000000000004

>  <m_primary>  (84) 
energy

$$$$
84:0
     RDKit          3D

 54 58  0  0  0  0  0  0  0  0999 V2000
  139.7680  149.4670  130.3650 C   0  0  0  0  0  0  0  0  0  0  0  0
  140.6320  148.6190  131.2050 N   0  0  0  0  0  0  0  0  0  0  0  0
  140.1520  148.5610  132.6030 C   0  0  0  0  0  0  0  0  0  0  0  0
  140.3010  149.9160  133.3160 C   0  0  0  0  0  0  0  0  0  0  0  0
  141.5430  150.5830  132.9090 N   0  0  0  0  0  0  0  0  0  0  0  0
  141.6960  152.0040  133.0950 C   0  0  0  0  0  0  0  0  0  0  0  0
  142.9580  152.5540  133.3740 C   0  0  0  0  0  0  0  0  0  0  0  0
  143.1100  153.9330  133.5400 C   0  0  0  0  0  0  0  0  0  0  0  0
  142.0030  154.7930  133.4230 C   0  0  0  0  0  0  0  0  0  0  0  0
  142.1650  156.2580  133.6000 C   0  0  0  0  0  0  0  0  0  0  0  0
  141.0290  157.0870  133.8020 C   0  0  0  0  0  0  0  0  0  0  0  0
  141.1720  158.4740  133.9780 C   0  0  0  0  0  0  0  0  0  0  0  0
  142.4550  159.0070  133.9440 C   0  0  0  0  0  0  0  0  0  0  0  0
  142.8820  160.3070  134.1020 C   0  0  0  0  0  0  0  0  0  0  0  0
  144.2700  160.2580  133.9780 C   0  0  0  0  0  0  0  0  0  0  0  0
  145.1350  161.4560  133.9990 C   0  0  0  0  0  0  0  0  0  0  0  0
  146.5550  161.3360  134.0040 N   0  0  0  0  0  0  0  0  0  0  0  0
  144.6140  162.6030  133.9760 O   0  0  0  0  0  0  0  0  0  0  0  0
  144.6830  158.9770  133.7620 N   0  0  0  0  0  0  0  0  0  0  0  0
  146.0270  158.4850  133.6530 C   0  0  0  0  0  0  0  0  0  0  0  0
  146.4400  157.6110  134.4600 O   0  0  0  0  0  0  0  0  0  0  0  0
  146.9400  159.0290  132.6380 C   0  0  0  0  0  0  0  0  0  0  0  0
  146.6980  160.1270  131.8940 N   0  0  0  0  0  0  0  0  0  0  0  0
  147.7350  160.2710  131.1250 O   0  0  0  0  0  0  0  0  0  0  0  0
  148.5740  159.2990  131.3910 C   0  0  0  0  0  0  0  0  0  0  0  0
  149.6840  159.1450  130.8190 O   0  0  0  0  0  0  0  0  0  0  0  0
  148.1070  158.5070  132.3270 O   0  0  0  0  0  0  0  0  0  0  0  0
  143.5620  158.2260  133.7370 C   0  0  0  0  0  0  0  0  0  0  0  0
  143.4540  156.8420  133.5710 C   0  0  0  0  0  0  0  0  0  0  0  0
  140.7430  154.2410  133.1340 C   0  0  0  0  0  0  0  0  0  0  0  0
  140.5920  152.8620  132.9680 C   0  0  0  0  0  0  0  0  0  0  0  0
  142.6060  149.7750  132.3060 C   0  0  0  0  0  0  0  0  0  0  0  0
  142.0630  149.0020  131.0890 C   0  0  0  0  0  0  0  0  0  0  0  0
  139.1311  150.0921  131.0081 H   0  0  0  0  0  0  0  0  0  0  0  0
  140.3931  150.1119  129.7299 H   0  0  0  0  0  0  0  0  0  0  0  0
  139.1349  148.8300  129.7299 H   0  0  0  0  0  0  0  0  0  0  0  0
  139.0902  148.2737  132.6030 H   0  0  0  0  0  0  0  0  0  0  0  0
  140.7621  147.8220  133.1431 H   0  0  0  0  0  0  0  0  0  0  0  0
  139.4453  150.5566  133.0562 H   0  0  0  0  0  0  0  0  0  0  0  0
  140.3324  149.7425  134.4018 H   0  0  0  0  0  0  0  0  0  0  0  0
  143.8335  151.8939  133.4625 H   0  0  0  0  0  0  0  0  0  0  0  0
  144.1032  154.3494  133.7639 H   0  0  0  0  0  0  0  0  0  0  0  0
  140.0251  156.6377  133.8209 H   0  0  0  0  0  0  0  0  0  0  0  0
  140.2949  159.1183  134.1378 H   0  0  0  0  0  0  0  0  0  0  0  0
  142.2601  161.1953  134.2868 H   0  0  0  0  0  0  0  0  0  0  0  0
  147.1110  161.4930  133.1360 H   0  0  0  0  0  0  0  0  0  0  0  0
  145.8610  160.7490  131.9130 H   0  0  0  0  0  0  0  0  0  0  0  0
  144.3498  156.2214  133.4213 H   0  0  0  0  0  0  0  0  0  0  0  0
  139.8680  154.9006  133.0377 H   0  0  0  0  0  0  0  0  0  0  0  0
  139.6007  152.4454  132.7361 H   0  0  0  0  0  0  0  0  0  0  0  0
  143.4241  150.4349  131.9815 H   0  0  0  0  0  0  0  0  0  0  0  0
  142.9761  149.0557  133.0514 H   0  0  0  0  0  0  0  0  0  0  0  0
  142.1804  149.6348  130.1970 H   0  0  0  0  0  0  0  0  0  0  0  0
  142.6383  148.0667  131.0239 H   0  0  0  0  0  0  0  0  0  0  0  0
  1  2  1  0
  2  3  1  0
  3  4  1  0
  4  5  1  0
  5  6  1  0
  6  7  2  0
  7  8  1  0
  8  9  2  0
  9 10  1  0
 10 11  2  0
 11 12  1  0
 12 13  2  0
 13 14  1  0
 14 15  2  0
 15 16  1  0
 16 17  1  0
 16 18  2  0
 15 19  1  0
 19 20  1  0
 20 21  2  0
 20 22  1  0
 22 23  2  0
 23 24  1  0
 24 25  1  0
 25 26  2  0
 25 27  1  0
 19 28  1  0
 28 29  2  0
  9 30  1  0
 30 31  2  0
  5 32  1  0
 32 33  1  0
 33  2  1  0
 31  6  1  0
 29 10  1  0
 28 13  1  0
 27 22  1  0
  1 34  1  0
  1 35  1  0
  1 36  1  0
  3 37  1  0
  3 38  1  0
  4 39  1  0
  4 40  1  0
  7 41  1  0
  8 42  1  0
 11 43  1  0
 12 44  1  0
 14 45  1  0
 17 46  1  0
 23 47  1  0
 29 48  1  0
 30 49  1  0
 31 50  1  0
 32 51  1  0
 32 52  1  0
 33 53  1  0
 33 54  1  0
M  CHG  2  17  -1  23   1
M  END
>  <UniqueID>  (85) 
85

>  <SMILES>  (85) 
CN1CCN(c2ccc(-c3ccc4cc(C([NH-])=O)n(C(=O)c5[nH+]oc(=O)o5)c4c3)cc2)CC1

>  <Energy>  (85) 
153.65567036715592

>  <Genealogy>  (85) 
CN1CCN(c2ccc(-c3ccc4cc(C([NH-])=O)n(C(=O)c5[nH+]oc(=O)o5)c4c3)cc2)CC1 (protonated)
CN1CCN(c2ccc(-c3ccc4cc(C([NH-])=O)n(C(=O)c5[nH+]oc(=O)o5)c4c3)cc2)CC1 (3D coordinates assigned)
CN1CCN(c2ccc(-c3ccc4cc(C([NH-])=O)n(C(=O)c5[nH+]oc(=O)o5)c4c3)cc2)CC1 (nonaromatic ring conformer: 153.65567036715592 kcal/mol)

>  <smiles>  (85) 
CN1CCN(c2ccc(-c3ccc4cc(C(N)=O)n(C(=O)c5noc(=O)o5)c4c3)cc2)CC1

>  <score_type>  (85) 
oracle

>  <origin>  (85) 
adg

>  <m_score__min__energy>  (85) 
-9.2400000000000002

>  <m_primary>  (85) 
energy

$$$$
85:0
     RDKit          3D

 51 53  0  0  0  0  0  0  0  0999 V2000
  149.6490  150.5430  135.4100 C   0  0  0  0  0  0  0  0  0  0  0  0
  149.2290  151.8320  135.7860 O   0  0  0  0  0  0  0  0  0  0  0  0
  149.0930  151.9150  137.1940 C   0  0  0  0  0  0  0  0  0  0  0  0
  148.8510  153.3630  137.6320 C   0  0  0  0  0  0  0  0  0  0  0  0
  147.8770  154.0520  136.7200 C   0  0  0  0  0  0  0  0  0  0  0  0
  148.1150  155.2190  136.3010 O   0  0  0  0  0  0  0  0  0  0  0  0
  146.7220  153.3750  136.3240 O   0  0  0  0  0  0  0  0  0  0  0  0
  145.5600  154.0450  135.8470 C   0  0  0  0  0  0  0  0  0  0  0  0
  145.1760  153.5030  134.5880 O   0  0  0  0  0  0  0  0  0  0  0  0
  145.3750  154.1640  133.3770 C   0  0  0  0  0  0  0  0  0  0  0  0
  144.7230  153.8110  132.3590 O   0  0  0  0  0  0  0  0  0  0  0  0
  146.3340  155.2370  133.2910 N   0  0  0  0  0  0  0  0  0  0  0  0
  147.6890  155.1170  133.2010 C   0  0  0  0  0  0  0  0  0  0  0  0
  148.4420  153.8570  133.0440 C   0  0  0  0  0  0  0  0  0  0  0  0
  148.0470  152.6700  133.7370 N   0  0  0  0  0  0  0  0  0  0  0  0
  149.4090  153.8160  132.2320 O   0  0  0  0  0  0  0  0  0  0  0  0
  148.3030  156.3630  133.2360 C   0  0  0  0  0  0  0  0  0  0  0  0
  147.2720  157.2680  133.3300 C   0  0  0  0  0  0  0  0  0  0  0  0
  147.3160  158.6560  133.3890 C   0  0  0  0  0  0  0  0  0  0  0  0
  146.1010  159.3500  133.4930 C   0  0  0  0  0  0  0  0  0  0  0  0
  144.8630  158.6530  133.5520 C   0  0  0  0  0  0  0  0  0  0  0  0
  143.6170  159.3810  133.6590 N   0  0  0  0  0  0  0  0  0  0  0  0
  142.3030  158.7820  133.4710 C   0  0  0  0  0  0  0  0  0  0  0  0
  141.2970  159.8730  133.8130 C   0  0  0  0  0  0  0  0  0  0  0  0
  142.0720  161.1820  133.7280 C   0  0  0  0  0  0  0  0  0  0  0  0
  143.5330  160.8060  133.9330 C   0  0  0  0  0  0  0  0  0  0  0  0
  144.8680  157.2370  133.5020 C   0  0  0  0  0  0  0  0  0  0  0  0
  146.0930  156.5690  133.3680 C   0  0  0  0  0  0  0  0  0  0  0  0
  149.8443  149.9435  136.3114 H   0  0  0  0  0  0  0  0  0  0  0  0
  148.8616  150.0606  134.8123 H   0  0  0  0  0  0  0  0  0  0  0  0
  150.5695  150.6171  134.8123 H   0  0  0  0  0  0  0  0  0  0  0  0
  148.2416  151.2950  137.5114 H   0  0  0  0  0  0  0  0  0  0  0  0
  150.0224  151.5559  137.6601 H   0  0  0  0  0  0  0  0  0  0  0  0
  148.4474  153.3654  138.6553 H   0  0  0  0  0  0  0  0  0  0  0  0
  149.8082  153.9034  137.5907 H   0  0  0  0  0  0  0  0  0  0  0  0
  144.7397  153.9121  136.5677 H   0  0  0  0  0  0  0  0  0  0  0  0
  145.7796  155.1165  135.7304 H   0  0  0  0  0  0  0  0  0  0  0  0
  147.1740  152.6460  134.3050 H   0  0  0  0  0  0  0  0  0  0  0  0
  148.6310  151.8030  133.6670 H   0  0  0  0  0  0  0  0  0  0  0  0
  149.3809  156.5788  133.1969 H   0  0  0  0  0  0  0  0  0  0  0  0
  148.2747  159.1943  133.3552 H   0  0  0  0  0  0  0  0  0  0  0  0
  146.1062  160.4494  133.5294 H   0  0  0  0  0  0  0  0  0  0  0  0
  142.1758  158.4571  132.4278 H   0  0  0  0  0  0  0  0  0  0  0  0
  142.1684  157.8937  134.1057 H   0  0  0  0  0  0  0  0  0  0  0  0
  140.4667  159.8702  133.0915 H   0  0  0  0  0  0  0  0  0  0  0  0
  140.8559  159.7237  134.8096 H   0  0  0  0  0  0  0  0  0  0  0  0
  141.9303  161.6490  132.7422 H   0  0  0  0  0  0  0  0  0  0  0  0
  141.7289  161.9080  134.4798 H   0  0  0  0  0  0  0  0  0  0  0  0
  144.1744  161.3682  133.2383 H   0  0  0  0  0  0  0  0  0  0  0  0
  143.8732  161.0433  134.9518 H   0  0  0  0  0  0  0  0  0  0  0  0
  143.9267  156.6716  133.5672 H   0  0  0  0  0  0  0  0  0  0  0  0
  1  2  1  0
  2  3  1  0
  3  4  1  0
  4  5  1  0
  5  6  2  0
  5  7  1  0
  7  8  1  0
  8  9  1  0
  9 10  1  0
 10 11  2  0
 10 12  1  0
 12 13  1  0
 13 14  1  0
 14 15  1  0
 14 16  2  0
 13 17  2  0
 17 18  1  0
 18 19  2  0
 19 20  1  0
 20 21  2  0
 21 22  1  0
 22 23  1  0
 23 24  1  0
 24 25  1  0
 25 26  1  0
 21 27  1  0
 27 28  2  0
 28 12  1  0
 28 18  1  0
 26 22  1  0
  1 29  1  0
  1 30  1  0
  1 31  1  0
  3 32  1  0
  3 33  1  0
  4 34  1  0
  4 35  1  0
  8 36  1  0
  8 37  1  0
 15 38  1  0
 15 39  1  0
 17 40  1  0
 19 41  1  0
 20 42  1  0
 23 43  1  0
 23 44  1  0
 24 45  1  0
 24 46  1  0
 25 47  1  0
 25 48  1  0
 26 49  1  0
 26 50  1  0
 27 51  1  0
M  END
>  <UniqueID>  (86) 
86

>  <SMILES>  (86) 
COCCC(=O)OCOC(=O)n1c(C(N)=O)cc2ccc(N3CCCC3)cc21

>  <Energy>  (86) 
88.55480229457797

>  <Genealogy>  (86) 
COCCC(=O)OCOC(=O)n1c(C(N)=O)cc2ccc(N3CCCC3)cc21 (3D coordinates assigned)
COCCC(=O)OCOC(=O)n1c(C(N)=O)cc2ccc(N3CCCC3)cc21 (nonaromatic ring conformer: 88.55480229457797 kcal/mol)

>  <smiles>  (86) 
COCCC(=O)OCOC(=O)n1c(C(N)=O)cc2ccc(N3CCCC3)cc21

>  <score_type>  (86) 
oracle

>  <origin>  (86) 
adg

>  <m_score__min__energy>  (86) 
-7.0999999999999996

>  <m_primary>  (86) 
energy

$$$$
86:0
     RDKit          3D

 48 49  0  0  0  0  0  0  0  0999 V2000
  149.0770  156.6950  131.8060 H   0  0  0  0  0  0  0  0  0  0  0  0
  149.7050  157.4690  132.1200 N   0  0  0  0  0  0  0  0  0  0  0  0
  149.2200  158.8050  132.2310 C   0  0  0  0  0  0  0  0  0  0  0  0
  149.9730  159.7630  131.9120 O   0  0  0  0  0  0  0  0  0  0  0  0
  147.8520  159.0530  132.7300 C   0  0  0  0  0  0  0  0  0  0  0  0
  147.3030  160.3220  132.9080 C   0  0  0  0  0  0  0  0  0  0  0  0
  147.7891  161.2911  132.7223 H   0  0  0  0  0  0  0  0  0  0  0  0
  146.0220  160.1040  133.3660 C   0  0  0  0  0  0  0  0  0  0  0  0
  145.0310  161.0120  133.7280 C   0  0  0  0  0  0  0  0  0  0  0  0
  145.1982  162.0963  133.6487 H   0  0  0  0  0  0  0  0  0  0  0  0
  143.8100  160.4990  134.1980 C   0  0  0  0  0  0  0  0  0  0  0  0
  143.0039  161.1902  134.4851 H   0  0  0  0  0  0  0  0  0  0  0  0
  143.6060  159.1010  134.3060 C   0  0  0  0  0  0  0  0  0  0  0  0
  142.2820  158.5690  134.7750 C   0  0  0  0  0  0  0  0  0  0  0  0
  141.4873  159.2823  134.5110 H   0  0  0  0  0  0  0  0  0  0  0  0
  142.3102  158.4337  135.8663 H   0  0  0  0  0  0  0  0  0  0  0  0
  142.0060  157.2540  134.1210 C   0  0  0  0  0  0  0  0  0  0  0  0
  142.4780  156.1990  134.6210 O   0  0  0  0  0  0  0  0  0  0  0  0
  141.1500  157.2070  132.9710 N   0  0  0  0  0  0  0  0  0  0  0  0
  139.6860  157.1260  132.9730 C   0  0  0  0  0  0  0  0  0  0  0  0
  139.1840  157.7370  134.2920 C   0  0  0  0  0  0  0  0  0  0  0  0
  139.6290  157.1954  135.1398 H   0  0  0  0  0  0  0  0  0  0  0  0
  139.4759  158.7965  134.3399 H   0  0  0  0  0  0  0  0  0  0  0  0
  138.0880  157.6561  134.3399 H   0  0  0  0  0  0  0  0  0  0  0  0
  139.1060  157.9380  131.8000 C   0  0  0  0  0  0  0  0  0  0  0  0
  138.5088  158.7741  132.1927 H   0  0  0  0  0  0  0  0  0  0  0  0
  139.9283  158.3320  131.1847 H   0  0  0  0  0  0  0  0  0  0  0  0
  138.4666  157.2879  131.1847 H   0  0  0  0  0  0  0  0  0  0  0  0
  139.2310  155.6510  132.8820 C   0  0  0  0  0  0  0  0  0  0  0  0
  138.5749  155.4208  133.7343 H   0  0  0  0  0  0  0  0  0  0  0  0
  138.6885  155.5024  131.9367 H   0  0  0  0  0  0  0  0  0  0  0  0
  140.3410  154.7950  132.9090 O   0  0  0  0  0  0  0  0  0  0  0  0
  141.1210  155.3600  133.1470 H   0  0  0  0  0  0  0  0  0  0  0  0
  144.6310  158.2090  133.9160 C   0  0  0  0  0  0  0  0  0  0  0  0
  144.4875  157.1203  133.9798 H   0  0  0  0  0  0  0  0  0  0  0  0
  145.8320  158.7490  133.4470 C   0  0  0  0  0  0  0  0  0  0  0  0
  146.9430  158.0930  133.0550 N   0  0  0  0  0  0  0  0  0  0  0  0
  147.1450  156.6720  133.0790 C   0  0  0  0  0  0  0  0  0  0  0  0
  148.1380  156.2020  133.6960 O   0  0  0  0  0  0  0  0  0  0  0  0
  146.2250  155.7480  132.3920 C   0  0  0  0  0  0  0  0  0  0  0  0
  146.5546  155.2766  131.4544 H   0  0  0  0  0  0  0  0  0  0  0  0
  145.0080  155.4590  132.8600 C   0  0  0  0  0  0  0  0  0  0  0  0
  144.6754  155.8882  133.8166 H   0  0  0  0  0  0  0  0  0  0  0  0
  144.0910  154.5540  132.0920 C   0  0  0  0  0  0  0  0  0  0  0  0
  143.9805  154.9360  131.0664 H   0  0  0  0  0  0  0  0  0  0  0  0
  144.5215  153.5419  132.0746 H   0  0  0  0  0  0  0  0  0  0  0  0
  142.8310  154.5010  132.7030 O   0  0  0  0  0  0  0  0  0  0  0  0
  142.4240  155.4000  132.5940 H   0  0  0  0  0  0  0  0  0  0  0  0
  1  2  1  0
  2  3  1  0
  3  4  2  0
  3  5  1  0
  5  6  2  0
  6  7  1  0
  6  8  1  0
  8  9  2  0
  9 10  1  0
  9 11  1  0
 11 12  1  0
 11 13  2  0
 13 14  1  0
 14 15  1  0
 14 16  1  0
 14 17  1  0
 17 18  2  0
 17 19  1  0
 19 20  1  0
 20 21  1  0
 21 22  1  0
 21 23  1  0
 21 24  1  0
 20 25  1  0
 25 26  1  0
 25 27  1  0
 25 28  1  0
 20 29  1  0
 29 30  1  0
 29 31  1  0
 29 32  1  0
 32 33  1  0
 13 34  1  0
 34 35  1  0
 34 36  2  0
 36 37  1  0
 37 38  1  0
 38 39  2  0
 38 40  1  0
 40 41  1  0
 40 42  2  0
 42 43  1  0
 42 44  1  0
 44 45  1  0
 44 46  1  0
 44 47  1  0
 47 48  1  0
 37  5  1  0
 36  8  1  0
M  CHG  2   2  -1  19  -1
M  END
>  <UniqueID>  (87) 
87

>  <SMILES>  (87) 
CC(C)(CO)[N-]C(=O)Cc1ccc2cc(C([NH-])=O)n(C(=O)/C=C/CO)c2c1

>  <Energy>  (87) 
74.51429329618524

>  <Genealogy>  (87) 
CC(C)(CO)[N-]C(=O)Cc1ccc2cc(C([NH-])=O)n(C(=O)C=CCO)c2c1 (protonated)
CC(C)(CO)[N-]C(=O)Cc1ccc2cc(C([NH-])=O)n(C(=O)/C=C/CO)c2c1 (cis-trans isomerization)
CC(C)(CO)[N-]C(=O)Cc1ccc2cc(C([NH-])=O)n(C(=O)/C=C/CO)c2c1 (3D coordinates assigned)
CC(C)(CO)[N-]C(=O)Cc1ccc2cc(C([NH-])=O)n(C(=O)/C=C/CO)c2c1 (optimized conformer: 74.51429329618524 kcal/mol)

>  <smiles>  (87) 
CC(C)(CO)NC(=O)Cc1ccc2cc(C(N)=O)n(C(=O)C=CCO)c2c1

>  <score_type>  (87) 
oracle

>  <origin>  (87) 
adg

>  <m_score__min__energy>  (87) 
-7.2000000000000002

>  <m_primary>  (87) 
energy

$$$$
87:0
     RDKit          3D

 47 49  0  0  0  0  0  0  0  0999 V2000
  142.6750  159.5390  132.9990 N   0  0  0  0  0  0  0  0  0  0  0  0
  143.9580  159.7720  133.5850 C   0  0  0  0  0  0  0  0  0  0  0  0
  144.1850  160.8730  134.1510 O   0  0  0  0  0  0  0  0  0  0  0  0
  145.0410  158.7760  133.4730 C   0  0  0  0  0  0  0  0  0  0  0  0
  146.3900  159.1070  133.5530 C   0  0  0  0  0  0  0  0  0  0  0  0
  147.0650  157.9320  133.3200 C   0  0  0  0  0  0  0  0  0  0  0  0
  148.4320  157.6830  133.2800 C   0  0  0  0  0  0  0  0  0  0  0  0
  148.8560  156.3670  133.0380 C   0  0  0  0  0  0  0  0  0  0  0  0
  147.9150  155.3160  132.8490 C   0  0  0  0  0  0  0  0  0  0  0  0
  148.3630  153.9630  132.5980 N   0  0  0  0  0  0  0  0  0  0  0  0
  149.7330  153.6120  132.2410 C   0  0  0  0  0  0  0  0  0  0  0  0
  149.7770  152.0910  132.2030 C   0  0  0  0  0  0  0  0  0  0  0  0
  148.3230  151.6450  132.0690 C   0  0  1  0  0  0  0  0  0  0  0  0
  148.1030  150.4560  132.7840 O   0  0  0  0  0  0  0  0  0  0  0  0
  147.4910  152.8000  132.6290 C   0  0  0  0  0  0  0  0  0  0  0  0
  146.5310  155.6180  132.9060 C   0  0  0  0  0  0  0  0  0  0  0  0
  146.1370  156.9440  133.1240 C   0  0  0  0  0  0  0  0  0  0  0  0
  144.8840  157.4480  133.2170 N   0  0  0  0  0  0  0  0  0  0  0  0
  143.6470  156.7180  133.1630 C   0  0  0  0  0  0  0  0  0  0  0  0
  142.8600  156.8760  132.1900 O   0  0  0  0  0  0  0  0  0  0  0  0
  143.3150  155.8400  134.2000 O   0  0  0  0  0  0  0  0  0  0  0  0
  142.2260  156.0680  135.0890 C   0  0  0  0  0  0  0  0  0  0  0  0
  140.9070  155.9710  134.3190 C   0  0  2  0  0  0  0  0  0  0  0  0
  141.0860  155.1730  133.1780 O   0  0  0  0  0  0  0  0  0  0  0  0
  140.3920  157.3660  133.9220 C   0  0  0  0  0  0  0  0  0  0  0  0
  140.6130  157.6230  132.5610 O   0  0  0  0  0  0  0  0  0  0  0  0
  141.9100  160.2390  133.1110 H   0  0  0  0  0  0  0  0  0  0  0  0
  142.5050  158.7140  132.3830 H   0  0  0  0  0  0  0  0  0  0  0  0
  146.8237  160.0968  133.7586 H   0  0  0  0  0  0  0  0  0  0  0  0
  149.1599  158.4933  133.4335 H   0  0  0  0  0  0  0  0  0  0  0  0
  149.9323  156.1445  132.9937 H   0  0  0  0  0  0  0  0  0  0  0  0
  149.9899  154.0270  131.2552 H   0  0  0  0  0  0  0  0  0  0  0  0
  150.4558  154.0192  132.9633 H   0  0  0  0  0  0  0  0  0  0  0  0
  150.3665  151.7447  131.3413 H   0  0  0  0  0  0  0  0  0  0  0  0
  150.2510  151.6735  133.1036 H   0  0  0  0  0  0  0  0  0  0  0  0
  148.0502  151.4275  131.0258 H   0  0  0  0  0  0  0  0  0  0  0  0
  147.7650  150.7290  133.6780 H   0  0  0  0  0  0  0  0  0  0  0  0
  146.6017  152.9704  132.0044 H   0  0  0  0  0  0  0  0  0  0  0  0
  147.1336  152.5871  133.6473 H   0  0  0  0  0  0  0  0  0  0  0  0
  145.7796  154.8244  132.7812 H   0  0  0  0  0  0  0  0  0  0  0  0
  142.2405  155.3115  135.8875 H   0  0  0  0  0  0  0  0  0  0  0  0
  142.3185  157.0710  135.5310 H   0  0  0  0  0  0  0  0  0  0  0  0
  140.1528  155.5087  134.9728 H   0  0  0  0  0  0  0  0  0  0  0  0
  141.7390  155.6440  132.5970 H   0  0  0  0  0  0  0  0  0  0  0  0
  139.3125  157.4208  134.1262 H   0  0  0  0  0  0  0  0  0  0  0  0
  140.9383  158.1179  134.5103 H   0  0  0  0  0  0  0  0  0  0  0  0
  141.1980  156.8940  132.2250 H   0  0  0  0  0  0  0  0  0  0  0  0
  1  2  1  0
  2  3  2  0
  2  4  1  0
  4  5  2  0
  5  6  1  0
  6  7  2  0
  7  8  1  0
  8  9  2  0
  9 10  1  0
 10 11  1  0
 11 12  1  0
 12 13  1  0
 13 14  1  0
 13 15  1  0
  9 16  1  0
 16 17  2  0
 17 18  1  0
 18 19  1  0
 19 20  2  0
 19 21  1  0
 21 22  1  0
 22 23  1  0
 23 24  1  0
 23 25  1  0
 25 26  1  0
 18  4  1  0
 17  6  1  0
 15 10  1  0
  1 27  1  0
  1 28  1  0
  5 29  1  0
  7 30  1  0
  8 31  1  0
 11 32  1  0
 11 33  1  0
 12 34  1  0
 12 35  1  0
 13 36  1  6
 14 37  1  0
 15 38  1  0
 15 39  1  0
 16 40  1  0
 22 41  1  0
 22 42  1  0
 23 43  1  1
 24 44  1  0
 25 45  1  0
 25 46  1  0
 26 47  1  0
M  END
>  <UniqueID>  (88) 
88

>  <SMILES>  (88) 
NC(=O)c1cc2ccc(N3CC[C@@H](O)C3)cc2n1C(=O)OC[C@H](O)CO

>  <Energy>  (88) 
83.61083233816503

>  <Genealogy>  (88) 
NC(=O)c1cc2ccc(N3CC[C@@H](O)C3)cc2n1C(=O)OC[C@H](O)CO (chirality)
NC(=O)c1cc2ccc(N3CC[C@@H](O)C3)cc2n1C(=O)OC[C@H](O)CO (3D coordinates assigned)
NC(=O)c1cc2ccc(N3CC[C@@H](O)C3)cc2n1C(=O)OC[C@H](O)CO (nonaromatic ring conformer: 83.61083233816503 kcal/mol)

>  <smiles>  (88) 
NC(=O)c1cc2ccc(N3CC[C@@H](O)C3)cc2n1C(=O)OCC(O)CO

>  <score_type>  (88) 
oracle

>  <origin>  (88) 
adg

>  <m_score__min__energy>  (88) 
-6.79

>  <m_primary>  (88) 
energy

$$$$
88:0
     RDKit          3D

 37 38  0  0  0  0  0  0  0  0999 V2000
  141.1250  155.6830  133.3370 N   0  0  0  0  0  0  0  0  0  0  0  0
  141.3020  156.7710  134.2420 C   0  0  0  0  0  0  0  0  0  0  0  0
  140.4400  156.9730  135.1390 O   0  0  0  0  0  0  0  0  0  0  0  0
  142.4520  157.6900  134.1130 C   0  0  0  0  0  0  0  0  0  0  0  0
  142.3600  159.0680  134.3030 C   0  0  0  0  0  0  0  0  0  0  0  0
  143.6130  159.5610  134.0190 C   0  0  0  0  0  0  0  0  0  0  0  0
  144.0920  160.8670  134.0550 C   0  0  0  0  0  0  0  0  0  0  0  0
  145.4440  161.0810  133.7390 C   0  0  0  0  0  0  0  0  0  0  0  0
  146.2920  159.9930  133.4160 C   0  0  0  0  0  0  0  0  0  0  0  0
  147.7330  160.2360  133.0610 C   0  0  0  0  0  0  0  0  0  0  0  0
  148.5040  158.9160  133.0010 C   0  0  0  0  0  0  0  0  0  0  0  0
  148.8630  158.5050  134.2920 O   0  0  0  0  0  0  0  0  0  0  0  0
  145.7680  158.6820  133.3790 C   0  0  0  0  0  0  0  0  0  0  0  0
  144.4120  158.5000  133.6770 C   0  0  0  0  0  0  0  0  0  0  0  0
  143.7140  157.3450  133.7300 N   0  0  0  0  0  0  0  0  0  0  0  0
  144.2410  156.0280  133.5140 C   0  0  0  0  0  0  0  0  0  0  0  0
  144.0040  155.4260  132.4330 O   0  0  0  0  0  0  0  0  0  0  0  0
  145.0100  155.3930  134.5390 N   0  0  0  0  0  0  0  0  0  0  0  0
  146.7310  155.2130  134.4640 S   0  0  0  0  0  0  0  0  0  0  0  0
  147.1380  154.0740  135.3560 O   0  0  0  0  0  0  0  0  0  0  0  0
  147.4030  156.4680  134.9460 O   0  0  0  0  0  0  0  0  0  0  0  0
  147.2310  154.8480  132.7910 C   0  0  0  0  0  0  0  0  0  0  0  0
  148.7080  155.0100  132.6390 C   0  0  0  0  0  0  0  0  0  0  0  0
  149.2210  156.1600  132.6150 O   0  0  0  0  0  0  0  0  0  0  0  0
  149.5180  153.8930  132.4810 O   0  0  0  0  0  0  0  0  0  0  0  0
  141.8240  155.4940  132.5840 H   0  0  0  0  0  0  0  0  0  0  0  0
  141.4735  159.6401  134.6141 H   0  0  0  0  0  0  0  0  0  0  0  0
  143.4325  161.7057  134.3226 H   0  0  0  0  0  0  0  0  0  0  0  0
  145.8484  162.1039  133.7424 H   0  0  0  0  0  0  0  0  0  0  0  0
  147.7850  160.7297  132.0794 H   0  0  0  0  0  0  0  0  0  0  0  0
  148.1851  160.8753  133.8336 H   0  0  0  0  0  0  0  0  0  0  0  0
  147.8698  158.1457  132.5379 H   0  0  0  0  0  0  0  0  0  0  0  0
  149.4165  159.0606  132.4041 H   0  0  0  0  0  0  0  0  0  0  0  0
  149.1660  157.5630  134.2160 H   0  0  0  0  0  0  0  0  0  0  0  0
  146.4089  157.8256  133.1226 H   0  0  0  0  0  0  0  0  0  0  0  0
  146.9537  153.8116  132.5483 H   0  0  0  0  0  0  0  0  0  0  0  0
  146.7245  155.5460  132.1082 H   0  0  0  0  0  0  0  0  0  0  0  0
  1  2  1  0
  2  3  2  0
  2  4  1  0
  4  5  2  0
  5  6  1  0
  6  7  2  0
  7  8  1  0
  8  9  2  0
  9 10  1  0
 10 11  1  0
 11 12  1  0
  9 13  1  0
 13 14  2  0
 14 15  1  0
 15 16  1  0
 16 17  2  0
 16 18  1  0
 18 19  1  0
 19 20  2  0
 19 21  2  0
 19 22  1  0
 22 23  1  0
 23 24  2  0
 23 25  1  0
 15  4  1  0
 14  6  1  0
  1 26  1  0
  5 27  1  0
  7 28  1  0
  8 29  1  0
 10 30  1  0
 10 31  1  0
 11 32  1  0
 11 33  1  0
 12 34  1  0
 13 35  1  0
 22 36  1  0
 22 37  1  0
M  CHG  3   1  -1  18  -1  25  -1
M  END
>  <UniqueID>  (89) 
89

>  <SMILES>  (89) 
[NH-]C(=O)c1cc2ccc(CCO)cc2n1C(=O)[N-]S(=O)(=O)CC(=O)[O-]

>  <Energy>  (89) 
69.47935276352028

>  <Genealogy>  (89) 
[NH-]C(=O)c1cc2ccc(CCO)cc2n1C(=O)[N-]S(=O)(=O)CC(=O)[O-] (protonated)
[NH-]C(=O)c1cc2ccc(CCO)cc2n1C(=O)[N-]S(=O)(=O)CC(=O)[O-] (3D coordinates assigned)
[NH-]C(=O)c1cc2ccc(CCO)cc2n1C(=O)[N-]S(=O)(=O)CC(=O)[O-] (optimized conformer: 69.47935276352028 kcal/mol)

>  <smiles>  (89) 
NC(=O)c1cc2ccc(CCO)cc2n1C(=O)NS(=O)(=O)CC(=O)O

>  <score_type>  (89) 
oracle

>  <origin>  (89) 
adg

>  <m_score__min__energy>  (89) 
-7

>  <m_primary>  (89) 
energy

$$$$
89:0
     RDKit          3D

 48 49  0  0  0  0  0  0  0  0999 V2000
  142.5020  157.7720  133.3140 C   0  0  0  0  0  0  0  0  0  0  0  0
  142.8920  158.7410  134.3530 N   0  0  0  0  0  0  0  0  0  0  0  0
  141.8600  158.7840  135.4000 C   0  0  0  0  0  0  0  0  0  0  0  0
  143.1050  160.0860  133.7720 C   0  0  0  0  0  0  0  0  0  0  0  0
  144.3080  160.7860  134.4210 C   0  0  0  0  0  0  0  0  0  0  0  0
  145.4380  160.8640  133.4910 N   0  0  0  0  0  0  0  0  0  0  0  0
  146.3650  159.7930  133.2290 C   0  0  0  0  0  0  0  0  0  0  0  0
  147.7250  160.1070  132.9810 C   0  0  0  0  0  0  0  0  0  0  0  0
  148.6710  159.0930  132.7500 C   0  0  0  0  0  0  0  0  0  0  0  0
  148.2270  157.7750  132.7620 C   0  0  0  0  0  0  0  0  0  0  0  0
  148.9300  156.5980  132.6210 C   0  0  0  0  0  0  0  0  0  0  0  0
  147.9820  155.5850  132.7610 C   0  0  0  0  0  0  0  0  0  0  0  0
  148.2920  154.1460  132.6530 C   0  0  0  0  0  0  0  0  0  0  0  0
  147.3230  153.1780  133.0490 N   0  0  0  0  0  0  0  0  0  0  0  0
  149.4160  153.7610  132.2380 O   0  0  0  0  0  0  0  0  0  0  0  0
  146.7450  156.1170  132.9750 N   0  0  0  0  0  0  0  0  0  0  0  0
  145.5290  155.4290  133.3040 C   0  0  0  0  0  0  0  0  0  0  0  0
  145.2910  155.1310  134.5050 O   0  0  0  0  0  0  0  0  0  0  0  0
  144.5490  155.0300  132.2390 C   0  0  0  0  0  0  0  0  0  0  0  0
  144.8600  153.6910  131.7320 N   0  0  0  0  0  0  0  0  0  0  0  0
  144.1020  152.4840  132.7260 S   0  0  0  0  0  0  0  0  0  0  0  0
  142.3310  152.6370  132.6240 C   0  0  0  0  0  0  0  0  0  0  0  0
  144.5000  151.1220  132.2330 O   0  0  0  0  0  0  0  0  0  0  0  0
  144.5400  152.6350  134.1570 O   0  0  0  0  0  0  0  0  0  0  0  0
  146.9130  157.4550  132.9710 C   0  0  0  0  0  0  0  0  0  0  0  0
  145.9500  158.4390  133.2040 C   0  0  0  0  0  0  0  0  0  0  0  0
  142.1319  156.8524  133.7907 H   0  0  0  0  0  0  0  0  0  0  0  0
  141.7083  158.2054  132.6878 H   0  0  0  0  0  0  0  0  0  0  0  0
  143.3747  157.5347  132.6878 H   0  0  0  0  0  0  0  0  0  0  0  0
  142.3404  158.7640  136.3894 H   0  0  0  0  0  0  0  0  0  0  0  0
  141.2713  159.7075  135.2968 H   0  0  0  0  0  0  0  0  0  0  0  0
  141.1965  157.9127  135.2968 H   0  0  0  0  0  0  0  0  0  0  0  0
  143.2878  159.9857  132.6919 H   0  0  0  0  0  0  0  0  0  0  0  0
  142.2064  160.6926  133.9581 H   0  0  0  0  0  0  0  0  0  0  0  0
  144.0148  161.8043  134.7163 H   0  0  0  0  0  0  0  0  0  0  0  0
  144.6189  160.2028  135.3003 H   0  0  0  0  0  0  0  0  0  0  0  0
  145.6110  161.7880  133.0340 H   0  0  0  0  0  0  0  0  0  0  0  0
  148.0448  161.1594  132.9691 H   0  0  0  0  0  0  0  0  0  0  0  0
  149.7283  159.3342  132.5657 H   0  0  0  0  0  0  0  0  0  0  0  0
  150.0084  156.4824  132.4373 H   0  0  0  0  0  0  0  0  0  0  0  0
  146.3520  153.4650  133.3070 H   0  0  0  0  0  0  0  0  0  0  0  0
  143.5339  155.0300  132.6627 H   0  0  0  0  0  0  0  0  0  0  0  0
  144.6131  155.7488  131.4088 H   0  0  0  0  0  0  0  0  0  0  0  0
  145.8920  153.5440  131.8090 H   0  0  0  0  0  0  0  0  0  0  0  0
  141.9071  152.6736  133.6384 H   0  0  0  0  0  0  0  0  0  0  0  0
  142.0732  153.5608  132.0853 H   0  0  0  0  0  0  0  0  0  0  0  0
  141.9186  151.7711  132.0853 H   0  0  0  0  0  0  0  0  0  0  0  0
  144.8956  158.1694  133.3641 H   0  0  0  0  0  0  0  0  0  0  0  0
  1  2  1  0
  2  3  1  0
  2  4  1  0
  4  5  1  0
  5  6  1  0
  6  7  1  0
  7  8  2  0
  8  9  1  0
  9 10  2  0
 10 11  1  0
 11 12  2  0
 12 13  1  0
 13 14  1  0
 13 15  2  0
 12 16  1  0
 16 17  1  0
 17 18  2  0
 17 19  1  0
 19 20  1  0
 20 21  1  0
 21 22  1  0
 21 23  2  0
 21 24  2  0
 16 25  1  0
 25 26  2  0
 26  7  1  0
 25 10  1  0
  1 27  1  0
  1 28  1  0
  1 29  1  0
  3 30  1  0
  3 31  1  0
  3 32  1  0
  4 33  1  0
  4 34  1  0
  5 35  1  0
  5 36  1  0
  6 37  1  0
  8 38  1  0
  9 39  1  0
 11 40  1  0
 14 41  1  0
 19 42  1  0
 19 43  1  0
 20 44  1  0
 22 45  1  0
 22 46  1  0
 22 47  1  0
 26 48  1  0
M  CHG  1  14  -1
M  END
>  <UniqueID>  (90) 
90

>  <SMILES>  (90) 
CN(C)CCNc1ccc2cc(C([NH-])=O)n(C(=O)CNS(C)(=O)=O)c2c1

>  <Energy>  (90) 
76.93689661349954

>  <Genealogy>  (90) 
CN(C)CCNc1ccc2cc(C([NH-])=O)n(C(=O)CNS(C)(=O)=O)c2c1 (protonated)
CN(C)CCNc1ccc2cc(C([NH-])=O)n(C(=O)CNS(C)(=O)=O)c2c1 (3D coordinates assigned)
CN(C)CCNc1ccc2cc(C([NH-])=O)n(C(=O)CNS(C)(=O)=O)c2c1 (optimized conformer: 76.93689661349954 kcal/mol)

>  <smiles>  (90) 
CN(C)CCNc1ccc2cc(C(N)=O)n(C(=O)CNS(C)(=O)=O)c2c1

>  <score_type>  (90) 
oracle

>  <origin>  (90) 
adg

>  <m_score__min__energy>  (90) 
-7.3700000000000001

>  <m_primary>  (90) 
energy

$$$$
90:0
     RDKit          3D

 37 38  0  0  0  0  0  0  0  0999 V2000
  141.2720  157.2670  134.7270 C   0  0  0  0  0  0  0  0  0  0  0  0
  141.6590  158.7540  134.8310 C   0  0  0  0  0  0  0  0  0  0  0  0
  141.1570  159.3620  136.1530 C   0  0  0  0  0  0  0  0  0  0  0  0
  143.0830  158.9070  134.7170 O   0  0  0  0  0  0  0  0  0  0  0  0
  143.8730  158.5830  133.6030 C   0  0  0  0  0  0  0  0  0  0  0  0
  143.4290  157.8390  132.6890 O   0  0  0  0  0  0  0  0  0  0  0  0
  145.2130  159.0960  133.5170 N   0  0  0  0  0  0  0  0  0  0  0  0
  145.6160  160.3950  133.6000 C   0  0  0  0  0  0  0  0  0  0  0  0
  144.7490  161.5440  133.9450 C   0  0  0  0  0  0  0  0  0  0  0  0
  143.3370  161.4830  133.7280 N   0  0  0  0  0  0  0  0  0  0  0  0
  145.2530  162.6010  134.4080 O   0  0  0  0  0  0  0  0  0  0  0  0
  146.9940  160.4900  133.4100 C   0  0  0  0  0  0  0  0  0  0  0  0
  147.4250  159.2000  133.2100 C   0  0  0  0  0  0  0  0  0  0  0  0
  148.7060  158.7120  132.9640 C   0  0  0  0  0  0  0  0  0  0  0  0
  148.8580  157.3290  132.7690 C   0  0  0  0  0  0  0  0  0  0  0  0
  147.7350  156.4650  132.8170 C   0  0  0  0  0  0  0  0  0  0  0  0
  147.8980  154.9890  132.5900 C   0  0  0  0  0  0  0  0  0  0  0  0
  149.2430  154.6750  132.5100 F   0  0  0  0  0  0  0  0  0  0  0  0
  147.3280  154.2920  133.6390 F   0  0  0  0  0  0  0  0  0  0  0  0
  146.4510  156.9970  133.0680 C   0  0  0  0  0  0  0  0  0  0  0  0
  146.3310  158.3760  133.2770 C   0  0  0  0  0  0  0  0  0  0  0  0
  141.0160  159.5050  133.6890 C   0  0  0  0  0  0  0  0  0  0  0  0
  140.5330  158.8850  132.7040 O   0  0  0  0  0  0  0  0  0  0  0  0
  140.9770  160.8960  133.6980 O   0  0  0  0  0  0  0  0  0  0  0  0
  141.1622  156.8452  135.7370 H   0  0  0  0  0  0  0  0  0  0  0  0
  140.3195  157.1731  134.1849 H   0  0  0  0  0  0  0  0  0  0  0  0
  142.0579  156.7206  134.1849 H   0  0  0  0  0  0  0  0  0  0  0  0
  141.6045  158.8200  136.9991 H   0  0  0  0  0  0  0  0  0  0  0  0
  141.4465  160.4221  136.2023 H   0  0  0  0  0  0  0  0  0  0  0  0
  140.0613  159.2784  136.2023 H   0  0  0  0  0  0  0  0  0  0  0  0
  142.8750  160.6070  133.4000 H   0  0  0  0  0  0  0  0  0  0  0  0
  142.7390  162.3130  133.9380 H   0  0  0  0  0  0  0  0  0  0  0  0
  147.6065  161.4036  133.4184 H   0  0  0  0  0  0  0  0  0  0  0  0
  149.5723  159.3887  132.9236 H   0  0  0  0  0  0  0  0  0  0  0  0
  149.8579  156.9126  132.5772 H   0  0  0  0  0  0  0  0  0  0  0  0
  147.3997  154.7115  131.6494 H   0  0  0  0  0  0  0  0  0  0  0  0
  145.5666  156.3436  133.0985 H   0  0  0  0  0  0  0  0  0  0  0  0
  1  2  1  0
  2  3  1  0
  2  4  1  0
  4  5  1  0
  5  6  2  0
  5  7  1  0
  7  8  1  0
  8  9  1  0
  9 10  1  0
  9 11  2  0
  8 12  2  0
 12 13  1  0
 13 14  2  0
 14 15  1  0
 15 16  2  0
 16 17  1  0
 17 18  1  0
 17 19  1  0
 16 20  1  0
 20 21  2  0
  2 22  1  0
 22 23  2  0
 22 24  1  0
 21  7  1  0
 21 13  1  0
  1 25  1  0
  1 26  1  0
  1 27  1  0
  3 28  1  0
  3 29  1  0
  3 30  1  0
 10 31  1  0
 10 32  1  0
 12 33  1  0
 14 34  1  0
 15 35  1  0
 17 36  1  0
 20 37  1  0
M  CHG  1  24  -1
M  END
>  <UniqueID>  (91) 
91

>  <SMILES>  (91) 
CC(C)(OC(=O)n1c(C(N)=O)cc2ccc(C(F)F)cc21)C(=O)[O-]

>  <Energy>  (91) 
72.97370348657009

>  <Genealogy>  (91) 
CC(C)(OC(=O)n1c(C(N)=O)cc2ccc(C(F)F)cc21)C(=O)[O-] (protonated)
CC(C)(OC(=O)n1c(C(N)=O)cc2ccc(C(F)F)cc21)C(=O)[O-] (3D coordinates assigned)
CC(C)(OC(=O)n1c(C(N)=O)cc2ccc(C(F)F)cc21)C(=O)[O-] (optimized conformer: 72.97370348657009 kcal/mol)

>  <smiles>  (91) 
CC(C)(OC(=O)n1c(C(N)=O)cc2ccc(C(F)F)cc21)C(=O)O

>  <score_type>  (91) 
oracle

>  <origin>  (91) 
adg

>  <m_score__min__energy>  (91) 
-6.3600000000000003

>  <m_primary>  (91) 
energy

$$$$
91:0
     RDKit          3D

 46 49  0  0  0  0  0  0  0  0999 V2000
  141.3540  159.6330  134.4350 N   0  0  0  0  0  0  0  0  0  0  0  0
  142.6180  159.1010  134.0510 C   0  0  0  0  0  0  0  0  0  0  0  0
  143.6420  159.8380  134.0930 O   0  0  0  0  0  0  0  0  0  0  0  0
  142.7500  157.6880  133.6390 C   0  0  0  0  0  0  0  0  0  0  0  0
  143.8930  157.1580  133.0420 C   0  0  0  0  0  0  0  0  0  0  0  0
  143.6370  155.8130  132.8940 C   0  0  0  0  0  0  0  0  0  0  0  0
  144.4210  154.8040  132.3480 C   0  0  0  0  0  0  0  0  0  0  0  0
  143.8890  153.5040  132.3090 C   0  0  0  0  0  0  0  0  0  0  0  0
  142.5860  153.2360  132.8030 C   0  0  0  0  0  0  0  0  0  0  0  0
  142.0580  151.8960  132.7610 N   0  0  0  0  0  0  0  0  0  0  0  0
  140.6200  151.6610  132.9570 C   0  0  0  0  0  0  0  0  0  0  0  0
  140.1260  150.4280  132.1660 C   0  0  0  0  0  0  0  0  0  0  0  0
  141.1600  149.7340  131.4910 O   0  0  0  0  0  0  0  0  0  0  0  0
  142.2170  149.4650  132.3860 C   0  0  0  0  0  0  0  0  0  0  0  0
  142.9800  150.7570  132.6760 C   0  0  0  0  0  0  0  0  0  0  0  0
  141.8190  154.2910  133.3510 C   0  0  0  0  0  0  0  0  0  0  0  0
  142.3810  155.5710  133.3890 C   0  0  0  0  0  0  0  0  0  0  0  0
  141.8210  156.7120  133.8400 N   0  0  0  0  0  0  0  0  0  0  0  0
  140.4810  156.8560  134.3370 C   0  0  0  0  0  0  0  0  0  0  0  0
  140.2920  157.0120  135.5750 O   0  0  0  0  0  0  0  0  0  0  0  0
  139.3280  156.7770  133.4180 C   0  0  0  0  0  0  0  0  0  0  0  0
  139.2240  155.7950  132.6360 O   0  0  0  0  0  0  0  0  0  0  0  0
  138.2990  157.8670  133.3630 C   0  0  0  0  0  0  0  0  0  0  0  0
  138.5350  158.7270  132.1640 C   0  0  0  0  0  0  0  0  0  0  0  0
  139.7560  158.9470  131.5550 C   0  0  0  0  0  0  0  0  0  0  0  0
  139.4860  159.7650  130.4780 C   0  0  0  0  0  0  0  0  0  0  0  0
  138.1240  159.9890  130.4950 C   0  0  0  0  0  0  0  0  0  0  0  0
  137.5850  159.3530  131.5090 O   0  0  0  0  0  0  0  0  0  0  0  0
  140.6670  159.0650  134.9800 H   0  0  0  0  0  0  0  0  0  0  0  0
  144.8054  157.6992  132.7510 H   0  0  0  0  0  0  0  0  0  0  0  0
  145.4274  155.0164  131.9582 H   0  0  0  0  0  0  0  0  0  0  0  0
  144.4903  152.6836  131.8902 H   0  0  0  0  0  0  0  0  0  0  0  0
  140.4289  151.4969  134.0278 H   0  0  0  0  0  0  0  0  0  0  0  0
  140.0763  152.5434  132.5887 H   0  0  0  0  0  0  0  0  0  0  0  0
  139.6437  149.7339  132.8700 H   0  0  0  0  0  0  0  0  0  0  0  0
  139.4304  150.7961  131.3975 H   0  0  0  0  0  0  0  0  0  0  0  0
  141.8091  149.0615  133.3245 H   0  0  0  0  0  0  0  0  0  0  0  0
  142.8997  148.7289  131.9366 H   0  0  0  0  0  0  0  0  0  0  0  0
  143.5152  150.6536  133.6314 H   0  0  0  0  0  0  0  0  0  0  0  0
  143.6920  150.9386  131.8574 H   0  0  0  0  0  0  0  0  0  0  0  0
  140.8054  154.1089  133.7377 H   0  0  0  0  0  0  0  0  0  0  0  0
  137.2962  157.4194  133.2995 H   0  0  0  0  0  0  0  0  0  0  0  0
  138.3737  158.4827  134.2715 H   0  0  0  0  0  0  0  0  0  0  0  0
  140.7355  158.5531  131.8638 H   0  0  0  0  0  0  0  0  0  0  0  0
  140.2109  160.1599  129.7509 H   0  0  0  0  0  0  0  0  0  0  0  0
  137.5741  160.6064  129.7694 H   0  0  0  0  0  0  0  0  0  0  0  0
  1  2  1  0
  2  3  2  0
  2  4  1  0
  4  5  2  0
  5  6  1  0
  6  7  2  0
  7  8  1  0
  8  9  2  0
  9 10  1  0
 10 11  1  0
 11 12  1  0
 12 13  1  0
 13 14  1  0
 14 15  1  0
  9 16  1  0
 16 17  2  0
 17 18  1  0
 18 19  1  0
 19 20  2  0
 19 21  1  0
 21 22  2  0
 21 23  1  0
 23 24  1  0
 24 25  2  0
 25 26  1  0
 26 27  2  0
 27 28  1  0
 18  4  1  0
 28 24  1  0
 17  6  1  0
 15 10  1  0
  1 29  1  0
  5 30  1  0
  7 31  1  0
  8 32  1  0
 11 33  1  0
 11 34  1  0
 12 35  1  0
 12 36  1  0
 14 37  1  0
 14 38  1  0
 15 39  1  0
 15 40  1  0
 16 41  1  0
 23 42  1  0
 23 43  1  0
 25 44  1  0
 26 45  1  0
 27 46  1  0
M  CHG  1   1  -1
M  END
>  <UniqueID>  (92) 
92

>  <SMILES>  (92) 
[NH-]C(=O)c1cc2ccc(N3CCOCC3)cc2n1C(=O)C(=O)Cc1ccco1

>  <Energy>  (92) 
122.6368735025704

>  <Genealogy>  (92) 
[NH-]C(=O)c1cc2ccc(N3CCOCC3)cc2n1C(=O)C(=O)Cc1ccco1 (protonated)
[NH-]C(=O)c1cc2ccc(N3CCOCC3)cc2n1C(=O)C(=O)Cc1ccco1 (3D coordinates assigned)
[NH-]C(=O)c1cc2ccc(N3CCOCC3)cc2n1C(=O)C(=O)Cc1ccco1 (nonaromatic ring conformer: 122.6368735025704 kcal/mol)

>  <smiles>  (92) 
NC(=O)c1cc2ccc(N3CCOCC3)cc2n1C(=O)C(=O)Cc1ccco1

>  <score_type>  (92) 
oracle

>  <origin>  (92) 
adg

>  <m_score__min__energy>  (92) 
-7.79

>  <m_primary>  (92) 
energy

$$$$
92:0
     RDKit          3D

 41 43  0  0  0  0  0  0  0  0999 V2000
  139.0780  158.0000  132.1910 C   0  0  0  0  0  0  0  0  0  0  0  0
  140.2280  158.7790  132.8380 C   0  0  2  0  0  0  0  0  0  0  0  0
  140.8430  159.6220  131.8970 O   0  0  0  0  0  0  0  0  0  0  0  0
  141.2570  157.8270  133.4720 C   0  0  0  0  0  0  0  0  0  0  0  0
  142.5830  158.1950  133.0960 O   0  0  0  0  0  0  0  0  0  0  0  0
  143.7150  157.8910  133.8620 C   0  0  0  0  0  0  0  0  0  0  0  0
  143.6320  157.0910  134.8330 O   0  0  0  0  0  0  0  0  0  0  0  0
  144.9730  158.5080  133.5490 N   0  0  0  0  0  0  0  0  0  0  0  0
  145.2850  159.8340  133.5960 C   0  0  0  0  0  0  0  0  0  0  0  0
  144.3350  160.9410  133.8350 C   0  0  0  0  0  0  0  0  0  0  0  0
  142.9880  160.8300  133.3810 N   0  0  0  0  0  0  0  0  0  0  0  0
  144.6890  161.9700  134.4690 O   0  0  0  0  0  0  0  0  0  0  0  0
  146.6340  160.0300  133.3040 C   0  0  0  0  0  0  0  0  0  0  0  0
  147.1410  158.7720  133.0680 C   0  0  0  0  0  0  0  0  0  0  0  0
  148.4340  158.3760  132.7460 C   0  0  0  0  0  0  0  0  0  0  0  0
  148.6840  157.0020  132.5880 C   0  0  0  0  0  0  0  0  0  0  0  0
  147.6420  156.0500  132.7620 C   0  0  0  0  0  0  0  0  0  0  0  0
  147.8800  154.6370  132.6160 N   0  0  0  0  0  0  0  0  0  0  0  0
  148.5520  153.8280  133.6340 C   0  0  0  0  0  0  0  0  0  0  0  0
  147.6820  153.6670  134.8400 C   0  0  0  0  0  0  0  0  0  0  0  0
  148.1270  153.2840  136.0490 N   0  0  0  0  0  0  0  0  0  0  0  0
  147.0600  153.3350  136.8280 N   0  0  0  0  0  0  0  0  0  0  0  0
  146.0130  153.7430  136.1280 N   0  0  0  0  0  0  0  0  0  0  0  0
  146.3720  153.9670  134.8740 N   0  0  0  0  0  0  0  0  0  0  0  0
  146.3420  156.4970  133.0890 C   0  0  0  0  0  0  0  0  0  0  0  0
  146.1200  157.8720  133.2220 C   0  0  0  0  0  0  0  0  0  0  0  0
  138.4403  157.5680  132.9763 H   0  0  0  0  0  0  0  0  0  0  0  0
  138.4804  158.6800  131.5661 H   0  0  0  0  0  0  0  0  0  0  0  0
  139.4878  157.1928  131.5661 H   0  0  0  0  0  0  0  0  0  0  0  0
  139.8074  159.4019  133.6412 H   0  0  0  0  0  0  0  0  0  0  0  0
  141.8250  159.5620  132.0340 H   0  0  0  0  0  0  0  0  0  0  0  0
  141.1659  157.8744  134.5672 H   0  0  0  0  0  0  0  0  0  0  0  0
  141.0593  156.8050  133.1165 H   0  0  0  0  0  0  0  0  0  0  0  0
  142.7520  160.2620  132.5370 H   0  0  0  0  0  0  0  0  0  0  0  0
  147.1774  160.9858  133.2695 H   0  0  0  0  0  0  0  0  0  0  0  0
  149.2377  159.1161  132.6186 H   0  0  0  0  0  0  0  0  0  0  0  0
  149.6962  156.6594  132.3270 H   0  0  0  0  0  0  0  0  0  0  0  0
  147.5550  154.1720  131.7370 H   0  0  0  0  0  0  0  0  0  0  0  0
  148.7772  152.8357  133.2161 H   0  0  0  0  0  0  0  0  0  0  0  0
  149.4809  154.3357  133.9330 H   0  0  0  0  0  0  0  0  0  0  0  0
  145.5217  155.7790  133.2359 H   0  0  0  0  0  0  0  0  0  0  0  0
  1  2  1  0
  2  3  1  0
  2  4  1  0
  4  5  1  0
  5  6  1  0
  6  7  2  0
  6  8  1  0
  8  9  1  0
  9 10  1  0
 10 11  1  0
 10 12  2  0
  9 13  2  0
 13 14  1  0
 14 15  2  0
 15 16  1  0
 16 17  2  0
 17 18  1  0
 18 19  1  0
 19 20  1  0
 20 21  1  0
 21 22  2  0
 22 23  1  0
 23 24  1  0
 17 25  1  0
 25 26  2  0
 26  8  1  0
 26 14  1  0
 24 20  2  0
  1 27  1  0
  1 28  1  0
  1 29  1  0
  2 30  1  1
  3 31  1  0
  4 32  1  0
  4 33  1  0
 11 34  1  0
 13 35  1  0
 15 36  1  0
 16 37  1  0
 18 38  1  0
 19 39  1  0
 19 40  1  0
 25 41  1  0
M  CHG  2  11  -1  23  -1
M  END
>  <UniqueID>  (93) 
93

>  <SMILES>  (93) 
C[C@H](O)COC(=O)n1c(C([NH-])=O)cc2ccc(NCc3nn[n-]n3)cc21

>  <Energy>  (93) 
114.12604033292905

>  <Genealogy>  (93) 
CC(O)COC(=O)n1c(C([NH-])=O)cc2ccc(NCc3nn[n-]n3)cc21 (protonated)
C[C@H](O)COC(=O)n1c(C([NH-])=O)cc2ccc(NCc3nn[n-]n3)cc21 (chirality)
C[C@H](O)COC(=O)n1c(C([NH-])=O)cc2ccc(NCc3nn[n-]n3)cc21 (3D coordinates assigned)
C[C@H](O)COC(=O)n1c(C([NH-])=O)cc2ccc(NCc3nn[n-]n3)cc21 (optimized conformer: 114.12604033292905 kcal/mol)

>  <smiles>  (93) 
CC(O)COC(=O)n1c(C(N)=O)cc2ccc(NCc3nn[nH]n3)cc21

>  <score_type>  (93) 
oracle

>  <origin>  (93) 
adg

>  <m_score__min__energy>  (93) 
-7.4500000000000002

>  <m_primary>  (93) 
energy

$$$$
93:0
     RDKit          3D

 33 35  0  0  0  0  0  0  0  0999 V2000
  144.2890  153.6630  137.1300 N   0  0  0  0  0  0  0  0  0  0  0  0
  143.6390  154.1410  135.9500 C   0  0  0  0  0  0  0  0  0  0  0  0
  142.5950  153.5590  135.5510 O   0  0  0  0  0  0  0  0  0  0  0  0
  144.1860  155.2890  135.1900 C   0  0  0  0  0  0  0  0  0  0  0  0
  143.4630  156.4350  134.8620 C   0  0  0  0  0  0  0  0  0  0  0  0
  144.3560  157.2550  134.2080 C   0  0  0  0  0  0  0  0  0  0  0  0
  144.1690  158.5150  133.6490 C   0  0  0  0  0  0  0  0  0  0  0  0
  145.2630  159.1180  133.0040 C   0  0  0  0  0  0  0  0  0  0  0  0
  146.5140  158.4510  132.9130 C   0  0  0  0  0  0  0  0  0  0  0  0
  147.6740  159.0770  132.2300 C   0  0  0  0  0  0  0  0  0  0  0  0
  148.9190  158.4250  132.1350 C   0  0  0  0  0  0  0  0  0  0  0  0
  149.9810  159.0590  131.4870 C   0  0  0  0  0  0  0  0  0  0  0  0
  149.8050  160.3310  130.9430 C   0  0  0  0  0  0  0  0  0  0  0  0
  148.5630  160.9580  131.0610 C   0  0  0  0  0  0  0  0  0  0  0  0
  147.5400  160.3250  131.6950 N   0  0  0  0  0  0  0  0  0  0  0  0
  146.6610  157.1730  133.5050 C   0  0  0  0  0  0  0  0  0  0  0  0
  145.5600  156.6080  134.1570 C   0  0  0  0  0  0  0  0  0  0  0  0
  145.4750  155.4040  134.7640 N   0  0  0  0  0  0  0  0  0  0  0  0
  146.5160  154.4170  134.8560 C   0  0  0  0  0  0  0  0  0  0  0  0
  146.8390  153.7570  133.8330 O   0  0  0  0  0  0  0  0  0  0  0  0
  147.1970  154.1540  136.1320 C   0  0  0  0  0  0  0  0  0  0  0  0
  148.0810  154.9430  136.5580 O   0  0  0  0  0  0  0  0  0  0  0  0
  146.8520  153.0400  136.8870 O   0  0  0  0  0  0  0  0  0  0  0  0
  143.9100  152.8310  137.6340 H   0  0  0  0  0  0  0  0  0  0  0  0
  145.1150  154.1530  137.5350 H   0  0  0  0  0  0  0  0  0  0  0  0
  142.4045  156.6407  135.0793 H   0  0  0  0  0  0  0  0  0  0  0  0
  143.1956  159.0237  133.7097 H   0  0  0  0  0  0  0  0  0  0  0  0
  145.1488  160.1196  132.5639 H   0  0  0  0  0  0  0  0  0  0  0  0
  149.0537  157.4230  132.5684 H   0  0  0  0  0  0  0  0  0  0  0  0
  150.9557  158.5556  131.4057 H   0  0  0  0  0  0  0  0  0  0  0  0
  150.6354  160.8348  130.4266 H   0  0  0  0  0  0  0  0  0  0  0  0
  148.4121  161.9635  130.6413 H   0  0  0  0  0  0  0  0  0  0  0  0
  147.6199  156.6364  133.4533 H   0  0  0  0  0  0  0  0  0  0  0  0
  1  2  1  0
  2  3  2  0
  2  4  1  0
  4  5  2  0
  5  6  1  0
  6  7  2  0
  7  8  1  0
  8  9  2  0
  9 10  1  0
 10 11  2  0
 11 12  1  0
 12 13  2  0
 13 14  1  0
 14 15  2  0
  9 16  1  0
 16 17  2  0
 17 18  1  0
 18 19  1  0
 19 20  2  0
 19 21  1  0
 21 22  2  0
 21 23  1  0
 18  4  1  0
 17  6  1  0
 15 10  1  0
  1 24  1  0
  1 25  1  0
  5 26  1  0
  7 27  1  0
  8 28  1  0
 11 29  1  0
 12 30  1  0
 13 31  1  0
 14 32  1  0
 16 33  1  0
M  CHG  1  23  -1
M  END
>  <UniqueID>  (94) 
94

>  <SMILES>  (94) 
NC(=O)c1cc2ccc(-c3ccccn3)cc2n1C(=O)C(=O)[O-]

>  <Energy>  (94) 
79.63616733482151

>  <Genealogy>  (94) 
NC(=O)c1cc2ccc(-c3ccccn3)cc2n1C(=O)C(=O)[O-] (protonated)
NC(=O)c1cc2ccc(-c3ccccn3)cc2n1C(=O)C(=O)[O-] (3D coordinates assigned)
NC(=O)c1cc2ccc(-c3ccccn3)cc2n1C(=O)C(=O)[O-] (optimized conformer: 79.63616733482151 kcal/mol)

>  <smiles>  (94) 
NC(=O)c1cc2ccc(-c3ccccn3)cc2n1C(=O)C(=O)O

>  <score_type>  (94) 
oracle

>  <origin>  (94) 
adg

>  <m_score__min__energy>  (94) 
-7.3399999999999999

>  <m_primary>  (94) 
energy

$$$$
