0:0
     RDKit          3D

 37 38  0  0  0  0  0  0  0  0999 V2000
  144.8300  160.8190  133.4090 N   0  0  0  0  0  0  0  0  0  0  0  0
  143.6040  160.0940  133.3860 C   0  0  0  0  0  0  0  0  0  0  0  0
  142.5110  160.7230  133.3710 O   0  0  0  0  0  0  0  0  0  0  0  0
  143.6070  158.6560  133.3910 N   0  0  0  0  0  0  0  0  0  0  0  0
  142.5320  157.8260  133.2910 C   0  0  0  0  0  0  0  0  0  0  0  0
  141.1140  158.2400  133.3170 C   0  0  0  0  0  0  0  0  0  0  0  0
  140.6180  159.2410  132.4280 N   0  0  0  0  0  0  0  0  0  0  0  0
  140.3400  157.7400  134.1760 O   0  0  0  0  0  0  0  0  0  0  0  0
  142.9390  156.4990  133.1960 C   0  0  0  0  0  0  0  0  0  0  0  0
  144.3130  156.5360  133.2550 C   0  0  0  0  0  0  0  0  0  0  0  0
  145.2380  155.4990  133.1810 C   0  0  0  0  0  0  0  0  0  0  0  0
  146.6030  155.8300  133.2140 C   0  0  0  0  0  0  0  0  0  0  0  0
  147.0150  157.1820  133.3130 C   0  0  0  0  0  0  0  0  0  0  0  0
  148.4820  157.5240  133.3020 C   0  0  0  0  0  0  0  0  0  0  0  0
  148.7810  158.8560  134.0120 C   0  0  0  0  0  0  0  0  0  0  0  0
  148.4720  160.0900  133.1410 C   0  0  2  0  0  0  0  0  0  0  0  0
  147.3220  160.7320  133.6300 O   0  0  0  0  0  0  0  0  0  0  0  0
  148.2390  159.6680  131.6820 C   0  0  0  0  0  0  0  0  0  0  0  0
  146.9880  160.1180  131.2350 O   0  0  0  0  0  0  0  0  0  0  0  0
  146.0470  158.2080  133.3850 C   0  0  0  0  0  0  0  0  0  0  0  0
  144.6940  157.8500  133.3700 C   0  0  0  0  0  0  0  0  0  0  0  0
  145.4350  160.8790  132.5600 H   0  0  0  0  0  0  0  0  0  0  0  0
  141.2650  159.7980  131.8280 H   0  0  0  0  0  0  0  0  0  0  0  0
  139.6040  159.4900  132.4320 H   0  0  0  0  0  0  0  0  0  0  0  0
  142.2989  155.6101  133.0952 H   0  0  0  0  0  0  0  0  0  0  0  0
  144.9105  154.4521  133.0992 H   0  0  0  0  0  0  0  0  0  0  0  0
  147.3587  155.0323  133.1625 H   0  0  0  0  0  0  0  0  0  0  0  0
  149.0354  156.7209  133.8107 H   0  0  0  0  0  0  0  0  0  0  0  0
  148.7937  157.6271  132.2521 H   0  0  0  0  0  0  0  0  0  0  0  0
  148.1701  158.9105  134.9251 H   0  0  0  0  0  0  0  0  0  0  0  0
  149.8581  158.8738  134.2345 H   0  0  0  0  0  0  0  0  0  0  0  0
  149.3291  160.7782  133.1816 H   0  0  0  0  0  0  0  0  0  0  0  0
  146.9390  161.2550  132.8780 H   0  0  0  0  0  0  0  0  0  0  0  0
  149.0272  160.1020  131.0492 H   0  0  0  0  0  0  0  0  0  0  0  0
  148.2653  158.5700  131.6204 H   0  0  0  0  0  0  0  0  0  0  0  0
  146.4670  160.3650  132.0430 H   0  0  0  0  0  0  0  0  0  0  0  0
  146.3493  159.2636  133.4513 H   0  0  0  0  0  0  0  0  0  0  0  0
  1  2  1  0
  2  3  2  0
  2  4  1  0
  4  5  1  0
  5  6  1  0
  6  7  1  0
  6  8  2  0
  5  9  2  0
  9 10  1  0
 10 11  2  0
 11 12  1  0
 12 13  2  0
 13 14  1  0
 14 15  1  0
 15 16  1  0
 16 17  1  0
 16 18  1  0
 18 19  1  0
 13 20  1  0
 20 21  2  0
 21  4  1  0
 21 10  1  0
  1 22  1  0
  7 23  1  0
  7 24  1  0
  9 25  1  0
 11 26  1  0
 12 27  1  0
 14 28  1  0
 14 29  1  0
 15 30  1  0
 15 31  1  0
 16 32  1  6
 17 33  1  0
 18 34  1  0
 18 35  1  0
 19 36  1  0
 20 37  1  0
M  CHG  1   1  -1
M  END
>  <UniqueID>  (1) 
1

>  <SMILES>  (1) 
[NH-]C(=O)n1c(C(N)=O)cc2ccc(CC[C@H](O)CO)cc21

>  <Energy>  (1) 
71.52752993796427

>  <Genealogy>  (1) 
[NH-]C(=O)n1c(C(N)=O)cc2ccc(CCC(O)CO)cc21 (protonated)
[NH-]C(=O)n1c(C(N)=O)cc2ccc(CC[C@H](O)CO)cc21 (chirality)
[NH-]C(=O)n1c(C(N)=O)cc2ccc(CC[C@H](O)CO)cc21 (3D coordinates assigned)
[NH-]C(=O)n1c(C(N)=O)cc2ccc(CC[C@H](O)CO)cc21 (optimized conformer: 71.52752993796427 kcal/mol)

>  <smiles>  (1) 
NC(=O)c1cc2ccc(CCC(O)CO)cc2n1C(N)=O

>  <score_type>  (1) 
oracle

>  <origin>  (1) 
adg

>  <m_score__min__energy>  (1) 
-6.8899999999999997

>  <m_primary>  (1) 
energy

$$$$
1:0
     RDKit          3D

 39 42  0  0  0  0  0  0  0  0999 V2000
  141.6880  160.4230  133.4350 N   0  0  0  0  0  0  0  0  0  0  0  0
  141.4050  159.6080  134.5690 C   0  0  0  0  0  0  0  0  0  0  0  0
  140.9300  160.1440  135.6060 O   0  0  0  0  0  0  0  0  0  0  0  0
  141.6260  158.1450  134.5370 C   0  0  0  0  0  0  0  0  0  0  0  0
  142.4240  157.4660  135.4590 C   0  0  0  0  0  0  0  0  0  0  0  0
  142.3140  156.1340  135.1300 C   0  0  0  0  0  0  0  0  0  0  0  0
  142.9120  155.0150  135.7030 C   0  0  0  0  0  0  0  0  0  0  0  0
  142.6460  153.7600  135.1290 C   0  0  0  0  0  0  0  0  0  0  0  0
  141.7920  153.6390  134.0000 C   0  0  0  0  0  0  0  0  0  0  0  0
  141.5720  152.3100  133.3690 C   0  0  0  0  0  0  0  0  0  0  0  0
  142.6290  151.3890  133.2580 C   0  0  0  0  0  0  0  0  0  0  0  0
  142.4410  150.1640  132.6130 C   0  0  0  0  0  0  0  0  0  0  0  0
  141.1940  149.8410  132.0620 C   0  0  0  0  0  0  0  0  0  0  0  0
  140.1210  150.7440  132.1950 C   0  0  0  0  0  0  0  0  0  0  0  0
  140.3110  151.9670  132.8450 C   0  0  0  0  0  0  0  0  0  0  0  0
  138.8450  150.4270  131.6320 N   0  0  0  0  0  0  0  0  0  0  0  0
  138.7020  149.3060  130.7560 C   0  0  0  0  0  0  0  0  0  0  0  0
  137.5620  148.9750  130.3400 O   0  0  0  0  0  0  0  0  0  0  0  0
  139.9300  148.5880  130.2780 C   0  0  0  0  0  0  0  0  0  0  0  0
  140.9730  148.5010  131.4000 C   0  0  0  0  0  0  0  0  0  0  0  0
  141.1900  154.8010  133.4590 C   0  0  0  0  0  0  0  0  0  0  0  0
  141.4770  156.0380  134.0530 C   0  0  0  0  0  0  0  0  0  0  0  0
  141.0520  157.2620  133.6740 N   0  0  0  0  0  0  0  0  0  0  0  0
  140.1770  157.5430  132.5740 C   0  0  0  0  0  0  0  0  0  0  0  0
  140.4870  158.5980  131.6660 N   0  0  0  0  0  0  0  0  0  0  0  0
  139.1430  156.8470  132.3980 O   0  0  0  0  0  0  0  0  0  0  0  0
  141.9430  159.9990  132.5170 H   0  0  0  0  0  0  0  0  0  0  0  0
  143.0161  157.9033  136.2764 H   0  0  0  0  0  0  0  0  0  0  0  0
  143.5721  155.1101  136.5777 H   0  0  0  0  0  0  0  0  0  0  0  0
  143.1056  152.8584  135.5601 H   0  0  0  0  0  0  0  0  0  0  0  0
  143.6132  151.6355  133.6830 H   0  0  0  0  0  0  0  0  0  0  0  0
  143.2749  149.4506  132.5375 H   0  0  0  0  0  0  0  0  0  0  0  0
  139.4686  152.6669  132.9479 H   0  0  0  0  0  0  0  0  0  0  0  0
  139.6544  147.5715  129.9605 H   0  0  0  0  0  0  0  0  0  0  0  0
  140.3617  149.1453  129.4336 H   0  0  0  0  0  0  0  0  0  0  0  0
  140.6239  147.7828  132.1565 H   0  0  0  0  0  0  0  0  0  0  0  0
  141.9262  148.1754  130.9579 H   0  0  0  0  0  0  0  0  0  0  0  0
  140.5138  154.7346  132.5939 H   0  0  0  0  0  0  0  0  0  0  0  0
  141.3950  159.1100  131.7310 H   0  0  0  0  0  0  0  0  0  0  0  0
  1  2  1  0
  2  3  2  0
  2  4  1  0
  4  5  2  0
  5  6  1  0
  6  7  2  0
  7  8  1  0
  8  9  2  0
  9 10  1  0
 10 11  2  0
 11 12  1  0
 12 13  2  0
 13 14  1  0
 14 15  2  0
 14 16  1  0
 16 17  1  0
 17 18  2  0
 17 19  1  0
 19 20  1  0
  9 21  1  0
 21 22  2  0
 22 23  1  0
 23 24  1  0
 24 25  1  0
 24 26  2  0
 23  4  1  0
 22  6  1  0
 15 10  1  0
 20 13  1  0
  1 27  1  0
  5 28  1  0
  7 29  1  0
  8 30  1  0
 11 31  1  0
 12 32  1  0
 15 33  1  0
 19 34  1  0
 19 35  1  0
 20 36  1  0
 20 37  1  0
 21 38  1  0
 25 39  1  0
M  CHG  3   1  -1  16  -1  25  -1
M  END
>  <UniqueID>  (2) 
2

>  <SMILES>  (2) 
[NH-]C(=O)c1cc2ccc(-c3ccc4c(c3)[N-]C(=O)CC4)cc2n1C([NH-])=O

>  <Energy>  (2) 
89.16213186224408

>  <Genealogy>  (2) 
[NH-]C(=O)c1cc2ccc(-c3ccc4c(c3)[N-]C(=O)CC4)cc2n1C([NH-])=O (protonated)
[NH-]C(=O)c1cc2ccc(-c3ccc4c(c3)[N-]C(=O)CC4)cc2n1C([NH-])=O (3D coordinates assigned)
[NH-]C(=O)c1cc2ccc(-c3ccc4c(c3)[N-]C(=O)CC4)cc2n1C([NH-])=O (nonaromatic ring conformer: 89.16213186224408 kcal/mol)

>  <smiles>  (2) 
NC(=O)c1cc2ccc(-c3ccc4c(c3)NC(=O)CC4)cc2n1C(N)=O

>  <score_type>  (2) 
oracle

>  <origin>  (2) 
adg

>  <m_score__min__energy>  (2) 
-8.7400000000000002

>  <m_primary>  (2) 
energy

$$$$
2:0
     RDKit          3D

 40 41  0  0  0  0  0  0  0  0999 V2000
  149.5860  153.4500  132.2470 C   0  0  0  0  0  0  0  0  0  0  0  0
  148.9500  154.4710  132.9830 O   0  0  0  0  0  0  0  0  0  0  0  0
  148.0900  153.9190  133.9640 C   0  0  0  0  0  0  0  0  0  0  0  0
  147.3610  155.0380  134.7060 C   0  0  0  0  0  0  0  0  0  0  0  0
  146.3780  155.6450  133.8700 O   0  0  0  0  0  0  0  0  0  0  0  0
  146.6930  156.4780  132.7890 C   0  0  0  0  0  0  0  0  0  0  0  0
  146.9990  155.9810  131.6710 O   0  0  0  0  0  0  0  0  0  0  0  0
  146.6440  157.9030  132.9520 N   0  0  0  0  0  0  0  0  0  0  0  0
  147.6190  158.8140  132.6700 C   0  0  0  0  0  0  0  0  0  0  0  0
  149.0040  158.5020  132.2550 C   0  0  0  0  0  0  0  0  0  0  0  0
  149.5020  157.1730  132.3900 N   0  0  0  0  0  0  0  0  0  0  0  0
  149.7420  159.3890  131.7510 O   0  0  0  0  0  0  0  0  0  0  0  0
  147.1620  160.1080  132.9060 C   0  0  0  0  0  0  0  0  0  0  0  0
  145.8690  159.9620  133.3560 C   0  0  0  0  0  0  0  0  0  0  0  0
  144.9340  160.9260  133.7240 C   0  0  0  0  0  0  0  0  0  0  0  0
  143.6590  160.4890  134.1190 C   0  0  0  0  0  0  0  0  0  0  0  0
  143.3440  159.1080  134.1400 C   0  0  0  0  0  0  0  0  0  0  0  0
  141.9560  158.6560  134.5180 C   0  0  0  0  0  0  0  0  0  0  0  0
  141.4420  159.3830  135.7670 C   0  0  0  0  0  0  0  0  0  0  0  0
  140.6330  158.4760  136.6440 C   0  0  0  0  0  0  0  0  0  0  0  0
  139.4310  158.2300  136.3610 O   0  0  0  0  0  0  0  0  0  0  0  0
  141.3860  157.6900  138.0790 S   0  0  0  0  0  0  0  0  0  0  0  0
  144.3160  158.1590  133.7510 C   0  0  0  0  0  0  0  0  0  0  0  0
  145.5810  158.6220  133.3760 C   0  0  0  0  0  0  0  0  0  0  0  0
  150.0376  152.7251  132.9403 H   0  0  0  0  0  0  0  0  0  0  0  0
  148.8459  152.9394  131.6133 H   0  0  0  0  0  0  0  0  0  0  0  0
  150.3706  153.8891  131.6133 H   0  0  0  0  0  0  0  0  0  0  0  0
  147.3528  153.2644  133.4760 H   0  0  0  0  0  0  0  0  0  0  0  0
  148.6864  153.3371  134.6821 H   0  0  0  0  0  0  0  0  0  0  0  0
  146.8684  154.6191  135.5958 H   0  0  0  0  0  0  0  0  0  0  0  0
  148.0953  155.8030  134.9986 H   0  0  0  0  0  0  0  0  0  0  0  0
  149.0280  156.3730  131.9160 H   0  0  0  0  0  0  0  0  0  0  0  0
  147.7163  161.0474  132.7632 H   0  0  0  0  0  0  0  0  0  0  0  0
  145.1861  161.9966  133.7059 H   0  0  0  0  0  0  0  0  0  0  0  0
  142.8979  161.2260  134.4148 H   0  0  0  0  0  0  0  0  0  0  0  0
  141.2737  158.8616  133.6800 H   0  0  0  0  0  0  0  0  0  0  0  0
  141.9950  157.5794  134.7402 H   0  0  0  0  0  0  0  0  0  0  0  0
  142.3025  159.7584  136.3402 H   0  0  0  0  0  0  0  0  0  0  0  0
  140.7946  160.2100  135.4398 H   0  0  0  0  0  0  0  0  0  0  0  0
  144.0835  157.0839  133.7434 H   0  0  0  0  0  0  0  0  0  0  0  0
  1  2  1  0
  2  3  1  0
  3  4  1  0
  4  5  1  0
  5  6  1  0
  6  7  2  0
  6  8  1  0
  8  9  1  0
  9 10  1  0
 10 11  1  0
 10 12  2  0
  9 13  2  0
 13 14  1  0
 14 15  2  0
 15 16  1  0
 16 17  2  0
 17 18  1  0
 18 19  1  0
 19 20  1  0
 20 21  2  0
 20 22  1  0
 17 23  1  0
 23 24  2  0
 24  8  1  0
 24 14  1  0
  1 25  1  0
  1 26  1  0
  1 27  1  0
  3 28  1  0
  3 29  1  0
  4 30  1  0
  4 31  1  0
 11 32  1  0
 13 33  1  0
 15 34  1  0
 16 35  1  0
 18 36  1  0
 18 37  1  0
 19 38  1  0
 19 39  1  0
 23 40  1  0
M  CHG  2  11  -1  22  -1
M  END
>  <UniqueID>  (3) 
3

>  <SMILES>  (3) 
COCCOC(=O)n1c(C([NH-])=O)cc2ccc(CCC(=O)[S-])cc21

>  <Energy>  (3) 
72.9034373163174

>  <Genealogy>  (3) 
COCCOC(=O)n1c(C([NH-])=O)cc2ccc(CCC(=O)[S-])cc21 (protonated)
COCCOC(=O)n1c(C([NH-])=O)cc2ccc(CCC(=O)[S-])cc21 (3D coordinates assigned)
COCCOC(=O)n1c(C([NH-])=O)cc2ccc(CCC(=O)[S-])cc21 (optimized conformer: 72.9034373163174 kcal/mol)

>  <smiles>  (3) 
COCCOC(=O)n1c(C(N)=O)cc2ccc(CCC(=O)S)cc21

>  <score_type>  (3) 
oracle

>  <origin>  (3) 
adg

>  <m_score__min__energy>  (3) 
-6.2699999999999996

>  <m_primary>  (3) 
energy

$$$$
3:0
     RDKit          3D

 33 35  0  0  0  0  0  0  0  0999 V2000
  140.6230  159.3110  130.7550 N   0  0  0  0  0  0  0  0  0  0  0  0
  140.3640  159.0310  131.8460 C   0  0  0  0  0  0  0  0  0  0  0  0
  140.0400  158.6810  133.2100 C   0  0  0  0  0  0  0  0  0  0  0  0
  138.7390  158.2570  133.5030 C   0  0  0  0  0  0  0  0  0  0  0  0
  138.3930  157.8870  134.8040 C   0  0  0  0  0  0  0  0  0  0  0  0
  139.3450  157.9400  135.8220 C   0  0  0  0  0  0  0  0  0  0  0  0
  140.6510  158.3610  135.5500 C   0  0  0  0  0  0  0  0  0  0  0  0
  141.7960  158.4470  136.8850 Cl  0  0  0  0  0  0  0  0  0  0  0  0
  141.0140  158.7350  134.2360 C   0  0  0  0  0  0  0  0  0  0  0  0
  142.3960  159.1810  133.9430 C   0  0  0  0  0  0  0  0  0  0  0  0
  142.7040  160.5630  133.9160 C   0  0  0  0  0  0  0  0  0  0  0  0
  144.0140  160.9970  133.6600 C   0  0  0  0  0  0  0  0  0  0  0  0
  144.9890  160.0310  133.4300 C   0  0  0  0  0  0  0  0  0  0  0  0
  146.3370  160.1750  133.1960 C   0  0  0  0  0  0  0  0  0  0  0  0
  146.8260  158.8800  133.0560 C   0  0  0  0  0  0  0  0  0  0  0  0
  148.2320  158.5760  132.7270 C   0  0  0  0  0  0  0  0  0  0  0  0
  148.5710  157.4920  131.8600 N   0  0  0  0  0  0  0  0  0  0  0  0
  149.1470  159.3180  133.1730 O   0  0  0  0  0  0  0  0  0  0  0  0
  145.8270  157.9660  133.2120 N   0  0  0  0  0  0  0  0  0  0  0  0
  145.9560  156.5340  133.2630 C   0  0  0  0  0  0  0  0  0  0  0  0
  146.4150  155.8990  132.2780 O   0  0  0  0  0  0  0  0  0  0  0  0
  145.5670  155.8350  134.4000 O   0  0  0  0  0  0  0  0  0  0  0  0
  144.7050  158.6880  133.4380 C   0  0  0  0  0  0  0  0  0  0  0  0
  143.4100  158.2270  133.7090 C   0  0  0  0  0  0  0  0  0  0  0  0
  137.9845  158.2150  132.7036 H   0  0  0  0  0  0  0  0  0  0  0  0
  137.3687  157.5534  135.0264 H   0  0  0  0  0  0  0  0  0  0  0  0
  139.0669  157.6488  136.8457 H   0  0  0  0  0  0  0  0  0  0  0  0
  141.9100  161.3024  134.0972 H   0  0  0  0  0  0  0  0  0  0  0  0
  144.2625  162.0684  133.6417 H   0  0  0  0  0  0  0  0  0  0  0  0
  146.9068  161.1138  133.1330 H   0  0  0  0  0  0  0  0  0  0  0  0
  147.8330  156.9620  131.3460 H   0  0  0  0  0  0  0  0  0  0  0  0
  149.5730  157.2690  131.6670 H   0  0  0  0  0  0  0  0  0  0  0  0
  143.1891  157.1498  133.7387 H   0  0  0  0  0  0  0  0  0  0  0  0
  1  2  3  0
  2  3  1  0
  3  4  2  0
  4  5  1  0
  5  6  2  0
  6  7  1  0
  7  8  1  0
  7  9  2  0
  9 10  1  0
 10 11  2  0
 11 12  1  0
 12 13  2  0
 13 14  1  0
 14 15  2  0
 15 16  1  0
 16 17  1  0
 16 18  2  0
 15 19  1  0
 19 20  1  0
 20 21  2  0
 20 22  1  0
 19 23  1  0
 23 24  2  0
  9  3  1  0
 24 10  1  0
 23 13  1  0
  4 25  1  0
  5 26  1  0
  6 27  1  0
 11 28  1  0
 12 29  1  0
 14 30  1  0
 17 31  1  0
 17 32  1  0
 24 33  1  0
M  CHG  1  22  -1
M  END
>  <UniqueID>  (4) 
4

>  <SMILES>  (4) 
N#Cc1cccc(Cl)c1-c1ccc2cc(C(N)=O)n(C(=O)[O-])c2c1

>  <Energy>  (4) 
84.32557818829726

>  <Genealogy>  (4) 
N#Cc1cccc(Cl)c1-c1ccc2cc(C(N)=O)n(C(=O)[O-])c2c1 (protonated)
N#Cc1cccc(Cl)c1-c1ccc2cc(C(N)=O)n(C(=O)[O-])c2c1 (3D coordinates assigned)
N#Cc1cccc(Cl)c1-c1ccc2cc(C(N)=O)n(C(=O)[O-])c2c1 (optimized conformer: 84.32557818829726 kcal/mol)

>  <smiles>  (4) 
N#Cc1cccc(Cl)c1-c1ccc2cc(C(N)=O)n(C(=O)O)c2c1

>  <score_type>  (4) 
oracle

>  <origin>  (4) 
adg

>  <m_score__min__energy>  (4) 
-7.8399999999999999

>  <m_primary>  (4) 
energy

$$$$
4:0
     RDKit          3D

 38 40  0  0  0  0  0  0  0  0999 V2000
  149.3440  161.5790  130.4080 C   0  0  0  0  0  0  0  0  0  0  0  0
  149.5870  160.0740  130.3670 C   0  0  0  0  0  0  0  0  0  0  0  0
  148.5310  159.3770  131.0240 O   0  0  0  0  0  0  0  0  0  0  0  0
  148.7430  158.3610  131.9650 C   0  0  0  0  0  0  0  0  0  0  0  0
  149.9100  157.9390  132.1930 O   0  0  0  0  0  0  0  0  0  0  0  0
  147.6280  157.8150  132.6870 N   0  0  0  0  0  0  0  0  0  0  0  0
  146.5450  158.4830  133.1800 C   0  0  0  0  0  0  0  0  0  0  0  0
  146.3760  159.9530  133.1910 C   0  0  0  0  0  0  0  0  0  0  0  0
  147.4950  160.8190  132.9940 N   0  0  0  0  0  0  0  0  0  0  0  0
  145.2310  160.4570  133.3430 O   0  0  0  0  0  0  0  0  0  0  0  0
  145.6490  157.5920  133.7670 C   0  0  0  0  0  0  0  0  0  0  0  0
  146.2190  156.3490  133.6210 C   0  0  0  0  0  0  0  0  0  0  0  0
  145.7530  155.0980  134.0160 C   0  0  0  0  0  0  0  0  0  0  0  0
  146.5420  153.9760  133.7120 C   0  0  0  0  0  0  0  0  0  0  0  0
  147.7660  154.1250  133.0190 C   0  0  0  0  0  0  0  0  0  0  0  0
  148.5530  152.9740  132.7040 N   0  0  0  0  0  0  0  0  0  0  0  0
  149.9800  152.6390  132.5470 C   0  0  0  0  0  0  0  0  0  0  0  0
  149.7660  151.1990  132.2160 C   0  0  0  0  0  0  0  0  0  0  0  0
  150.0940  150.9030  130.9040 F   0  0  0  0  0  0  0  0  0  0  0  0
  148.3250  151.5550  132.3790 C   0  0  0  0  0  0  0  0  0  0  0  0
  148.2090  155.4060  132.6330 C   0  0  0  0  0  0  0  0  0  0  0  0
  147.4130  156.5100  132.9650 C   0  0  0  0  0  0  0  0  0  0  0  0
  149.2900  161.9133  131.4546 H   0  0  0  0  0  0  0  0  0  0  0  0
  150.1700  162.0978  129.8995 H   0  0  0  0  0  0  0  0  0  0  0  0
  148.3967  161.8114  129.8995 H   0  0  0  0  0  0  0  0  0  0  0  0
  149.6401  159.7448  129.3188 H   0  0  0  0  0  0  0  0  0  0  0  0
  150.5328  159.8533  130.8836 H   0  0  0  0  0  0  0  0  0  0  0  0
  148.4650  160.4420  132.9200 H   0  0  0  0  0  0  0  0  0  0  0  0
  147.3570  161.8540  132.9640 H   0  0  0  0  0  0  0  0  0  0  0  0
  144.6884  157.8321  134.2461 H   0  0  0  0  0  0  0  0  0  0  0  0
  144.7969  154.9914  134.5495 H   0  0  0  0  0  0  0  0  0  0  0  0
  146.2052  152.9737  134.0153 H   0  0  0  0  0  0  0  0  0  0  0  0
  150.4600  153.1964  131.7291 H   0  0  0  0  0  0  0  0  0  0  0  0
  150.6451  152.8662  133.3932 H   0  0  0  0  0  0  0  0  0  0  0  0
  150.2592  150.3647  132.7363 H   0  0  0  0  0  0  0  0  0  0  0  0
  147.7462  151.4186  131.4536 H   0  0  0  0  0  0  0  0  0  0  0  0
  147.7400  150.9631  133.0983 H   0  0  0  0  0  0  0  0  0  0  0  0
  149.1544  155.5355  132.0857 H   0  0  0  0  0  0  0  0  0  0  0  0
  1  2  1  0
  2  3  1  0
  3  4  1  0
  4  5  2  0
  4  6  1  0
  6  7  1  0
  7  8  1  0
  8  9  1  0
  8 10  2  0
  7 11  2  0
 11 12  1  0
 12 13  2  0
 13 14  1  0
 14 15  2  0
 15 16  1  0
 16 17  1  0
 17 18  1  0
 18 19  1  0
 18 20  1  0
 15 21  1  0
 21 22  2  0
 22  6  1  0
 22 12  1  0
 20 16  1  0
  1 23  1  0
  1 24  1  0
  1 25  1  0
  2 26  1  0
  2 27  1  0
  9 28  1  0
  9 29  1  0
 11 30  1  0
 13 31  1  0
 14 32  1  0
 17 33  1  0
 17 34  1  0
 18 35  1  0
 20 36  1  0
 20 37  1  0
 21 38  1  0
M  END
>  <UniqueID>  (5) 
5

>  <SMILES>  (5) 
CCOC(=O)n1c(C(N)=O)cc2ccc(N3CC(F)C3)cc21

>  <Energy>  (5) 
117.25261444109665

>  <Genealogy>  (5) 
CCOC(=O)n1c(C(N)=O)cc2ccc(N3CC(F)C3)cc21 (3D coordinates assigned)
CCOC(=O)n1c(C(N)=O)cc2ccc(N3CC(F)C3)cc21 (nonaromatic ring conformer: 117.25261444109665 kcal/mol)

>  <smiles>  (5) 
CCOC(=O)n1c(C(N)=O)cc2ccc(N3CC(F)C3)cc21

>  <score_type>  (5) 
oracle

>  <origin>  (5) 
adg

>  <m_score__min__energy>  (5) 
-6.6399999999999997

>  <m_primary>  (5) 
energy

$$$$
5:0
     RDKit          3D

 33 35  0  0  0  0  0  0  0  0999 V2000
  149.7140  159.3890  131.9580 N   0  0  0  0  0  0  0  0  0  0  0  0
  148.7980  158.3660  132.3390 C   0  0  0  0  0  0  0  0  0  0  0  0
  149.1690  157.1630  132.3050 O   0  0  0  0  0  0  0  0  0  0  0  0
  147.4420  158.7010  132.8230 C   0  0  0  0  0  0  0  0  0  0  0  0
  147.0100  160.0050  133.0570 C   0  0  0  0  0  0  0  0  0  0  0  0
  145.6800  159.8930  133.3950 C   0  0  0  0  0  0  0  0  0  0  0  0
  144.7570  160.8760  133.7360 C   0  0  0  0  0  0  0  0  0  0  0  0
  143.4530  160.4690  134.0640 C   0  0  0  0  0  0  0  0  0  0  0  0
  143.0970  159.0960  134.0500 C   0  0  0  0  0  0  0  0  0  0  0  0
  141.7210  158.6780  134.4050 C   0  0  0  0  0  0  0  0  0  0  0  0
  141.3030  158.6630  135.7510 C   0  0  0  0  0  0  0  0  0  0  0  0
  142.1610  159.0010  136.7470 F   0  0  0  0  0  0  0  0  0  0  0  0
  140.0030  158.2680  136.0800 C   0  0  0  0  0  0  0  0  0  0  0  0
  139.1080  157.8870  135.0780 C   0  0  0  0  0  0  0  0  0  0  0  0
  139.5120  157.8990  133.7410 C   0  0  0  0  0  0  0  0  0  0  0  0
  140.8100  158.2920  133.4010 C   0  0  0  0  0  0  0  0  0  0  0  0
  141.1660  158.3240  132.0910 F   0  0  0  0  0  0  0  0  0  0  0  0
  144.0640  158.1280  133.6980 C   0  0  0  0  0  0  0  0  0  0  0  0
  145.3510  158.5640  133.3630 C   0  0  0  0  0  0  0  0  0  0  0  0
  146.4220  157.8180  133.0190 N   0  0  0  0  0  0  0  0  0  0  0  0
  146.4710  156.3850  132.9600 C   0  0  0  0  0  0  0  0  0  0  0  0
  147.1030  155.7270  131.8610 N   0  0  0  0  0  0  0  0  0  0  0  0
  145.9870  155.6980  133.8980 O   0  0  0  0  0  0  0  0  0  0  0  0
  150.6950  159.3930  132.3150 H   0  0  0  0  0  0  0  0  0  0  0  0
  147.6050  160.9275  132.9867 H   0  0  0  0  0  0  0  0  0  0  0  0
  145.0393  161.9391  133.7485 H   0  0  0  0  0  0  0  0  0  0  0  0
  142.6997  161.2235  134.3347 H   0  0  0  0  0  0  0  0  0  0  0  0
  139.6837  158.2573  137.1326 H   0  0  0  0  0  0  0  0  0  0  0  0
  138.0858  157.5777  135.3414 H   0  0  0  0  0  0  0  0  0  0  0  0
  138.8063  157.5981  132.9526 H   0  0  0  0  0  0  0  0  0  0  0  0
  143.8114  157.0574  133.6875 H   0  0  0  0  0  0  0  0  0  0  0  0
  147.1280  154.6850  131.8130 H   0  0  0  0  0  0  0  0  0  0  0  0
  147.5770  156.2800  131.1130 H   0  0  0  0  0  0  0  0  0  0  0  0
  1  2  1  0
  2  3  2  0
  2  4  1  0
  4  5  2  0
  5  6  1  0
  6  7  2  0
  7  8  1  0
  8  9  2  0
  9 10  1  0
 10 11  2  0
 11 12  1  0
 11 13  1  0
 13 14  2  0
 14 15  1  0
 15 16  2  0
 16 17  1  0
  9 18  1  0
 18 19  2  0
 19 20  1  0
 20 21  1  0
 21 22  1  0
 21 23  2  0
 20  4  1  0
 19  6  1  0
 16 10  1  0
  1 24  1  0
  5 25  1  0
  7 26  1  0
  8 27  1  0
 13 28  1  0
 14 29  1  0
 15 30  1  0
 18 31  1  0
 22 32  1  0
 22 33  1  0
M  CHG  1   1  -1
M  END
>  <UniqueID>  (6) 
6

>  <SMILES>  (6) 
[NH-]C(=O)c1cc2ccc(-c3c(F)cccc3F)cc2n1C(N)=O

>  <Energy>  (6) 
81.4533864408719

>  <Genealogy>  (6) 
[NH-]C(=O)c1cc2ccc(-c3c(F)cccc3F)cc2n1C(N)=O (protonated)
[NH-]C(=O)c1cc2ccc(-c3c(F)cccc3F)cc2n1C(N)=O (3D coordinates assigned)
[NH-]C(=O)c1cc2ccc(-c3c(F)cccc3F)cc2n1C(N)=O (optimized conformer: 81.4533864408719 kcal/mol)

>  <smiles>  (6) 
NC(=O)c1cc2ccc(-c3c(F)cccc3F)cc2n1C(N)=O

>  <score_type>  (6) 
oracle

>  <origin>  (6) 
adg

>  <m_score__min__energy>  (6) 
-7.7300000000000004

>  <m_primary>  (6) 
energy

$$$$
6:0
     RDKit          3D

 46 48  0  0  0  0  0  0  0  0999 V2000
  141.0470  159.3660  136.2000 C   0  0  0  0  0  0  0  0  0  0  0  0
  141.5470  158.4110  135.1230 C   0  0  0  0  0  0  0  0  0  0  0  0
  142.9600  158.5190  134.9720 O   0  0  0  0  0  0  0  0  0  0  0  0
  143.6150  158.4180  133.7400 C   0  0  0  0  0  0  0  0  0  0  0  0
  143.0560  157.8440  132.7650 O   0  0  0  0  0  0  0  0  0  0  0  0
  144.9180  158.9980  133.5760 N   0  0  0  0  0  0  0  0  0  0  0  0
  145.2690  160.3120  133.6760 C   0  0  0  0  0  0  0  0  0  0  0  0
  144.3390  161.4520  133.8170 C   0  0  0  0  0  0  0  0  0  0  0  0
  142.9290  161.2650  133.7220 N   0  0  0  0  0  0  0  0  0  0  0  0
  144.7970  162.6150  133.9740 O   0  0  0  0  0  0  0  0  0  0  0  0
  146.6480  160.4600  133.5430 C   0  0  0  0  0  0  0  0  0  0  0  0
  147.1350  159.1880  133.3470 C   0  0  0  0  0  0  0  0  0  0  0  0
  148.4410  158.7480  133.1640 C   0  0  0  0  0  0  0  0  0  0  0  0
  148.6580  157.3670  133.0130 C   0  0  0  0  0  0  0  0  0  0  0  0
  147.5710  156.4540  133.0540 C   0  0  0  0  0  0  0  0  0  0  0  0
  147.7840  154.9950  132.9090 C   0  0  0  0  0  0  0  0  0  0  0  0
  146.8310  153.9940  133.0240 C   0  0  0  0  0  0  0  0  0  0  0  0
  147.4980  152.8090  132.8010 C   0  0  0  0  0  0  0  0  0  0  0  0
  148.8130  153.1560  132.5660 C   0  0  0  0  0  0  0  0  0  0  0  0
  149.9360  152.2050  132.2510 C   0  0  0  0  0  0  0  0  0  0  0  0
  149.4860  150.9670  131.5760 N   0  0  0  0  0  0  0  0  0  0  0  0
  148.9250  149.9870  132.5200 C   0  0  0  0  0  0  0  0  0  0  0  0
  150.5460  150.3610  130.7560 C   0  0  0  0  0  0  0  0  0  0  0  0
  148.9530  154.4590  132.6360 O   0  0  0  0  0  0  0  0  0  0  0  0
  146.2580  156.9430  133.2410 C   0  0  0  0  0  0  0  0  0  0  0  0
  146.0710  158.3240  133.3710 C   0  0  0  0  0  0  0  0  0  0  0  0
  141.2667  158.9464  137.1928 H   0  0  0  0  0  0  0  0  0  0  0  0
  141.5524  160.3371  136.0923 H   0  0  0  0  0  0  0  0  0  0  0  0
  139.9610  159.5039  136.0923 H   0  0  0  0  0  0  0  0  0  0  0  0
  141.2919  157.3796  135.4079 H   0  0  0  0  0  0  0  0  0  0  0  0
  141.0678  158.6721  134.1679 H   0  0  0  0  0  0  0  0  0  0  0  0
  142.5040  160.3180  133.8360 H   0  0  0  0  0  0  0  0  0  0  0  0
  147.2251  161.3955  133.5856 H   0  0  0  0  0  0  0  0  0  0  0  0
  149.2798  159.4592  133.1381 H   0  0  0  0  0  0  0  0  0  0  0  0
  149.6802  156.9899  132.8616 H   0  0  0  0  0  0  0  0  0  0  0  0
  145.7614  154.1202  133.2475 H   0  0  0  0  0  0  0  0  0  0  0  0
  147.0705  151.7955  132.8087 H   0  0  0  0  0  0  0  0  0  0  0  0
  150.6541  152.7186  131.5949 H   0  0  0  0  0  0  0  0  0  0  0  0
  150.3874  151.9069  133.2088 H   0  0  0  0  0  0  0  0  0  0  0  0
  149.1157  150.3201  133.5509 H   0  0  0  0  0  0  0  0  0  0  0  0
  147.8405  149.9004  132.3573 H   0  0  0  0  0  0  0  0  0  0  0  0
  149.3995  149.0080  132.3573 H   0  0  0  0  0  0  0  0  0  0  0  0
  151.3122  149.9230  131.4125 H   0  0  0  0  0  0  0  0  0  0  0  0
  150.1135  149.5737  130.1211 H   0  0  0  0  0  0  0  0  0  0  0  0
  151.0050  151.1331  130.1211 H   0  0  0  0  0  0  0  0  0  0  0  0
  145.4020  156.2534  133.2834 H   0  0  0  0  0  0  0  0  0  0  0  0
  1  2  1  0
  2  3  1  0
  3  4  1  0
  4  5  2  0
  4  6  1  0
  6  7  1  0
  7  8  1  0
  8  9  1  0
  8 10  2  0
  7 11  2  0
 11 12  1  0
 12 13  2  0
 13 14  1  0
 14 15  2  0
 15 16  1  0
 16 17  2  0
 17 18  1  0
 18 19  2  0
 19 20  1  0
 20 21  1  0
 21 22  1  0
 21 23  1  0
 19 24  1  0
 15 25  1  0
 25 26  2  0
 26  6  1  0
 26 12  1  0
 24 16  1  0
  1 27  1  0
  1 28  1  0
  1 29  1  0
  2 30  1  0
  2 31  1  0
  9 32  1  0
 11 33  1  0
 13 34  1  0
 14 35  1  0
 17 36  1  0
 18 37  1  0
 20 38  1  0
 20 39  1  0
 22 40  1  0
 22 41  1  0
 22 42  1  0
 23 43  1  0
 23 44  1  0
 23 45  1  0
 25 46  1  0
M  CHG  1   9  -1
M  END
>  <UniqueID>  (7) 
7

>  <SMILES>  (7) 
CCOC(=O)n1c(C([NH-])=O)cc2ccc(-c3ccc(CN(C)C)o3)cc21

>  <Energy>  (7) 
110.83324729519039

>  <Genealogy>  (7) 
CCOC(=O)n1c(C([NH-])=O)cc2ccc(-c3ccc(CN(C)C)o3)cc21 (protonated)
CCOC(=O)n1c(C([NH-])=O)cc2ccc(-c3ccc(CN(C)C)o3)cc21 (3D coordinates assigned)
CCOC(=O)n1c(C([NH-])=O)cc2ccc(-c3ccc(CN(C)C)o3)cc21 (optimized conformer: 110.83324729519039 kcal/mol)

>  <smiles>  (7) 
CCOC(=O)n1c(C(N)=O)cc2ccc(-c3ccc(CN(C)C)o3)cc21

>  <score_type>  (7) 
oracle

>  <origin>  (7) 
adg

>  <m_score__min__energy>  (7) 
-7.3499999999999996

>  <m_primary>  (7) 
energy

$$$$
7:0
     RDKit          3D

 41 42  0  0  0  0  0  0  0  0999 V2000
  140.6110  155.3690  138.3990 C   0  0  0  0  0  0  0  0  0  0  0  0
  141.3050  156.7210  138.5230 C   0  0  0  0  0  0  0  0  0  0  0  0
  141.0880  157.5470  137.2840 C   0  0  0  0  0  0  0  0  0  0  0  0
  141.2840  158.9500  137.3240 C   0  0  0  0  0  0  0  0  0  0  0  0
  141.0670  159.7350  136.1790 C   0  0  0  0  0  0  0  0  0  0  0  0
  140.6370  159.0940  135.0210 C   0  0  0  0  0  0  0  0  0  0  0  0
  140.3840  159.6090  133.7700 C   0  0  0  0  0  0  0  0  0  0  0  0
  139.9950  158.5190  132.9960 C   0  0  0  0  0  0  0  0  0  0  0  0
  139.5720  158.6320  131.5870 C   0  0  0  0  0  0  0  0  0  0  0  0
  138.3950  157.9760  131.1140 N   0  0  0  0  0  0  0  0  0  0  0  0
  140.2300  159.3640  130.8000 O   0  0  0  0  0  0  0  0  0  0  0  0
  140.0180  157.3720  133.7330 N   0  0  0  0  0  0  0  0  0  0  0  0
  139.8050  156.0330  133.2570 C   0  0  0  0  0  0  0  0  0  0  0  0
  139.0960  155.8370  132.2340 O   0  0  0  0  0  0  0  0  0  0  0  0
  140.3880  154.9570  133.9440 O   0  0  0  0  0  0  0  0  0  0  0  0
  141.7260  154.4650  133.7820 C   0  0  0  0  0  0  0  0  0  0  0  0
  142.6760  155.6000  133.3550 C   0  0  0  0  0  0  0  0  0  0  0  0
  141.7580  153.3150  132.7570 C   0  0  0  0  0  0  0  0  0  0  0  0
  142.1790  153.9270  135.1480 C   0  0  0  0  0  0  0  0  0  0  0  0
  140.4130  157.7410  134.9730 C   0  0  0  0  0  0  0  0  0  0  0  0
  140.6430  156.9330  136.0930 C   0  0  0  0  0  0  0  0  0  0  0  0
  140.4056  154.9689  139.4028 H   0  0  0  0  0  0  0  0  0  0  0  0
  139.6643  155.4915  137.8524 H   0  0  0  0  0  0  0  0  0  0  0  0
  141.2624  154.6712  137.8524 H   0  0  0  0  0  0  0  0  0  0  0  0
  140.8959  157.2584  139.3912 H   0  0  0  0  0  0  0  0  0  0  0  0
  142.3846  156.5534  138.6512 H   0  0  0  0  0  0  0  0  0  0  0  0
  141.6088  159.4286  138.2596 H   0  0  0  0  0  0  0  0  0  0  0  0
  141.2319  160.8224  136.1974 H   0  0  0  0  0  0  0  0  0  0  0  0
  140.4706  160.6578  133.4500 H   0  0  0  0  0  0  0  0  0  0  0  0
  138.1360  158.0260  130.1040 H   0  0  0  0  0  0  0  0  0  0  0  0
  137.7380  157.5070  131.7760 H   0  0  0  0  0  0  0  0  0  0  0  0
  143.0866  156.0906  134.2498 H   0  0  0  0  0  0  0  0  0  0  0  0
  143.4986  155.1835  132.7551 H   0  0  0  0  0  0  0  0  0  0  0  0
  142.1211  156.3364  132.7551 H   0  0  0  0  0  0  0  0  0  0  0  0
  141.7848  152.3517  133.2874 H   0  0  0  0  0  0  0  0  0  0  0  0
  140.8582  153.3612  132.1259 H   0  0  0  0  0  0  0  0  0  0  0  0
  142.6538  153.4111  132.1259 H   0  0  0  0  0  0  0  0  0  0  0  0
  141.6932  154.5039  135.9487 H   0  0  0  0  0  0  0  0  0  0  0  0
  141.8970  152.8675  135.2366 H   0  0  0  0  0  0  0  0  0  0  0  0
  143.2711  154.0244  135.2366 H   0  0  0  0  0  0  0  0  0  0  0  0
  140.4809  155.8460  136.0462 H   0  0  0  0  0  0  0  0  0  0  0  0
  1  2  1  0
  2  3  1  0
  3  4  2  0
  4  5  1  0
  5  6  2  0
  6  7  1  0
  7  8  2  0
  8  9  1  0
  9 10  1  0
  9 11  2  0
  8 12  1  0
 12 13  1  0
 13 14  2  0
 13 15  1  0
 15 16  1  0
 16 17  1  0
 16 18  1  0
 16 19  1  0
 12 20  1  0
 20 21  2  0
 21  3  1  0
 20  6  1  0
  1 22  1  0
  1 23  1  0
  1 24  1  0
  2 25  1  0
  2 26  1  0
  4 27  1  0
  5 28  1  0
  7 29  1  0
 10 30  1  0
 10 31  1  0
 17 32  1  0
 17 33  1  0
 17 34  1  0
 18 35  1  0
 18 36  1  0
 18 37  1  0
 19 38  1  0
 19 39  1  0
 19 40  1  0
 21 41  1  0
M  END
>  <UniqueID>  (8) 
8

>  <SMILES>  (8) 
CCc1ccc2cc(C(N)=O)n(C(=O)OC(C)(C)C)c2c1

>  <Energy>  (8) 
71.42578990350037

>  <Genealogy>  (8) 
CCc1ccc2cc(C(N)=O)n(C(=O)OC(C)(C)C)c2c1 (3D coordinates assigned)
CCc1ccc2cc(C(N)=O)n(C(=O)OC(C)(C)C)c2c1 (optimized conformer: 71.42578990350037 kcal/mol)

>  <smiles>  (8) 
CCc1ccc2cc(C(N)=O)n(C(=O)OC(C)(C)C)c2c1

>  <score_type>  (8) 
oracle

>  <origin>  (8) 
adg

>  <m_score__min__energy>  (8) 
-7.3300000000000001

>  <m_primary>  (8) 
energy

$$$$
8:0
     RDKit          3D

 44 46  0  0  0  0  0  0  0  0999 V2000
  146.3510  155.6420  132.3310 C   0  0  0  0  0  0  0  0  0  0  0  0
  147.1020  156.7240  133.0400 C   0  0  0  0  0  0  0  0  0  0  0  0
  148.2320  156.4640  133.5330 O   0  0  0  0  0  0  0  0  0  0  0  0
  146.5570  158.0500  133.1620 N   0  0  0  0  0  0  0  0  0  0  0  0
  147.1490  159.2200  132.7930 C   0  0  0  0  0  0  0  0  0  0  0  0
  148.5360  159.3560  132.2930 C   0  0  0  0  0  0  0  0  0  0  0  0
  149.6200  158.7100  132.9600 N   0  0  0  0  0  0  0  0  0  0  0  0
  148.7710  160.0340  131.2570 O   0  0  0  0  0  0  0  0  0  0  0  0
  146.2870  160.2930  133.0140 C   0  0  0  0  0  0  0  0  0  0  0  0
  145.1380  159.7370  133.5300 C   0  0  0  0  0  0  0  0  0  0  0  0
  143.9460  160.3430  133.9140 C   0  0  0  0  0  0  0  0  0  0  0  0
  142.9080  159.5180  134.3790 C   0  0  0  0  0  0  0  0  0  0  0  0
  143.0700  158.1100  134.4430 C   0  0  0  0  0  0  0  0  0  0  0  0
  141.9260  157.2390  134.9170 C   0  0  1  0  0  0  0  0  0  0  0  0
  142.4490  156.0230  135.6930 C   0  0  0  0  0  0  0  0  0  0  0  0
  140.9420  158.0400  135.7300 C   0  0  0  0  0  0  0  0  0  0  0  0
  140.8640  157.8370  136.9720 O   0  0  0  0  0  0  0  0  0  0  0  0
  140.0360  158.9440  135.0810 N   0  0  0  0  0  0  0  0  0  0  0  0
  139.7260  158.9950  133.6820 C   0  0  0  0  0  0  0  0  0  0  0  0
  139.1110  157.8830  133.0910 C   0  0  0  0  0  0  0  0  0  0  0  0
  138.8170  157.8790  131.7240 C   0  0  0  0  0  0  0  0  0  0  0  0
  139.1470  158.9840  130.9350 C   0  0  0  0  0  0  0  0  0  0  0  0
  139.7810  160.0880  131.5100 C   0  0  0  0  0  0  0  0  0  0  0  0
  140.0770  160.0950  132.8770 C   0  0  0  0  0  0  0  0  0  0  0  0
  144.2980  157.5350  134.0310 C   0  0  0  0  0  0  0  0  0  0  0  0
  145.3240  158.3830  133.6030 C   0  0  0  0  0  0  0  0  0  0  0  0
  145.8866  154.9729  133.0704 H   0  0  0  0  0  0  0  0  0  0  0  0
  145.5692  156.0908  131.7006 H   0  0  0  0  0  0  0  0  0  0  0  0
  147.0449  155.0666  131.7006 H   0  0  0  0  0  0  0  0  0  0  0  0
  149.4790  158.1970  133.8570 H   0  0  0  0  0  0  0  0  0  0  0  0
  150.5880  158.7800  132.5740 H   0  0  0  0  0  0  0  0  0  0  0  0
  146.4831  161.3575  132.8179 H   0  0  0  0  0  0  0  0  0  0  0  0
  143.8200  161.4342  133.8554 H   0  0  0  0  0  0  0  0  0  0  0  0
  141.9571  159.9699  134.6977 H   0  0  0  0  0  0  0  0  0  0  0  0
  141.3910  156.8598  134.0338 H   0  0  0  0  0  0  0  0  0  0  0  0
  142.3668  156.2142  136.7731 H   0  0  0  0  0  0  0  0  0  0  0  0
  141.8525  155.1366  135.4311 H   0  0  0  0  0  0  0  0  0  0  0  0
  143.5027  155.8464  135.4311 H   0  0  0  0  0  0  0  0  0  0  0  0
  138.8578  157.0073  133.7067 H   0  0  0  0  0  0  0  0  0  0  0  0
  138.3259  157.0059  131.2697 H   0  0  0  0  0  0  0  0  0  0  0  0
  138.9076  158.9845  129.8614 H   0  0  0  0  0  0  0  0  0  0  0  0
  140.0481  160.9538  130.8863 H   0  0  0  0  0  0  0  0  0  0  0  0
  140.5852  160.9621  133.3240 H   0  0  0  0  0  0  0  0  0  0  0  0
  144.4410  156.4445  134.0476 H   0  0  0  0  0  0  0  0  0  0  0  0
  1  2  1  0
  2  3  2  0
  2  4  1  0
  4  5  1  0
  5  6  1  0
  6  7  1  0
  6  8  2  0
  5  9  2  0
  9 10  1  0
 10 11  2  0
 11 12  1  0
 12 13  2  0
 13 14  1  0
 14 15  1  0
 14 16  1  0
 16 17  2  0
 16 18  1  0
 18 19  1  0
 19 20  2  0
 20 21  1  0
 21 22  2  0
 22 23  1  0
 23 24  2  0
 13 25  1  0
 25 26  2  0
 26  4  1  0
 26 10  1  0
 24 19  1  0
  1 27  1  0
  1 28  1  0
  1 29  1  0
  7 30  1  0
  7 31  1  0
  9 32  1  0
 11 33  1  0
 12 34  1  0
 14 35  1  6
 15 36  1  0
 15 37  1  0
 15 38  1  0
 20 39  1  0
 21 40  1  0
 22 41  1  0
 23 42  1  0
 24 43  1  0
 25 44  1  0
M  CHG  1  18  -1
M  END
>  <UniqueID>  (9) 
9

>  <SMILES>  (9) 
CC(=O)n1c(C(N)=O)cc2ccc([C@@H](C)C(=O)[N-]c3ccccc3)cc21

>  <Energy>  (9) 
85.39389713233382

>  <Genealogy>  (9) 
CC(=O)n1c(C(N)=O)cc2ccc(C(C)C(=O)[N-]c3ccccc3)cc21 (protonated)
CC(=O)n1c(C(N)=O)cc2ccc([C@@H](C)C(=O)[N-]c3ccccc3)cc21 (chirality)
CC(=O)n1c(C(N)=O)cc2ccc([C@@H](C)C(=O)[N-]c3ccccc3)cc21 (3D coordinates assigned)
CC(=O)n1c(C(N)=O)cc2ccc([C@@H](C)C(=O)[N-]c3ccccc3)cc21 (optimized conformer: 85.39389713233382 kcal/mol)

>  <smiles>  (9) 
CC(=O)n1c(C(N)=O)cc2ccc(C(C)C(=O)Nc3ccccc3)cc21

>  <score_type>  (9) 
oracle

>  <origin>  (9) 
adg

>  <m_score__min__energy>  (9) 
-8.8900000000000006

>  <m_primary>  (9) 
energy

$$$$
9:0
     RDKit          3D

 44 46  0  0  0  0  0  0  0  0999 V2000
  144.4980  152.4370  138.7190 N   0  0  0  0  0  0  0  0  0  0  0  0
  143.7730  153.1640  137.7290 C   0  0  0  0  0  0  0  0  0  0  0  0
  142.5150  153.1420  137.7480 O   0  0  0  0  0  0  0  0  0  0  0  0
  144.5040  153.9650  136.7240 C   0  0  0  0  0  0  0  0  0  0  0  0
  143.8750  154.6450  135.6830 C   0  0  0  0  0  0  0  0  0  0  0  0
  144.8940  155.1820  134.9300 C   0  0  0  0  0  0  0  0  0  0  0  0
  144.8390  155.9580  133.7760 C   0  0  0  0  0  0  0  0  0  0  0  0
  146.0520  156.3940  133.2180 C   0  0  0  0  0  0  0  0  0  0  0  0
  147.2870  156.0650  133.8300 C   0  0  0  0  0  0  0  0  0  0  0  0
  148.5820  156.5080  133.2050 C   0  0  0  0  0  0  0  0  0  0  0  0
  148.4560  157.9230  132.7080 C   0  0  0  0  0  0  0  0  0  0  0  0
  148.9460  158.2740  131.4420 C   0  0  0  0  0  0  0  0  0  0  0  0
  148.7900  159.5760  130.9660 C   0  0  0  0  0  0  0  0  0  0  0  0
  148.1320  160.5310  131.7430 C   0  0  0  0  0  0  0  0  0  0  0  0
  147.6160  160.1990  133.0030 C   0  0  0  0  0  0  0  0  0  0  0  0
  146.9490  161.2170  133.7120 O   0  0  0  0  0  0  0  0  0  0  0  0
  145.5750  161.2900  134.1220 C   0  0  0  0  0  0  0  0  0  0  0  0
  145.0490  162.7330  134.1440 C   0  0  0  0  0  0  0  0  0  0  0  0
  145.4760  163.3740  135.2930 F   0  0  0  0  0  0  0  0  0  0  0  0
  144.6820  160.3170  133.3380 C   0  0  0  0  0  0  0  0  0  0  0  0
  143.9890  159.5020  134.2160 F   0  0  0  0  0  0  0  0  0  0  0  0
  147.7860  158.8860  133.4820 C   0  0  0  0  0  0  0  0  0  0  0  0
  147.3030  155.2680  134.9960 C   0  0  0  0  0  0  0  0  0  0  0  0
  146.0810  154.8300  135.5190 C   0  0  0  0  0  0  0  0  0  0  0  0
  145.8590  154.0830  136.6230 N   0  0  0  0  0  0  0  0  0  0  0  0
  146.8590  153.5820  137.5260 C   0  0  0  0  0  0  0  0  0  0  0  0
  147.0250  154.1150  138.6550 O   0  0  0  0  0  0  0  0  0  0  0  0
  147.6720  152.5190  137.1510 O   0  0  0  0  0  0  0  0  0  0  0  0
  145.5330  152.5430  138.8120 H   0  0  0  0  0  0  0  0  0  0  0  0
  142.7937  154.7337  135.5017 H   0  0  0  0  0  0  0  0  0  0  0  0
  143.8756  156.2217  133.3152 H   0  0  0  0  0  0  0  0  0  0  0  0
  146.0432  156.9963  132.2976 H   0  0  0  0  0  0  0  0  0  0  0  0
  149.3851  156.4554  133.9548 H   0  0  0  0  0  0  0  0  0  0  0  0
  148.8187  155.8474  132.3579 H   0  0  0  0  0  0  0  0  0  0  0  0
  149.4548  157.5207  130.8225 H   0  0  0  0  0  0  0  0  0  0  0  0
  149.1860  159.8505  129.9771 H   0  0  0  0  0  0  0  0  0  0  0  0
  148.0171  161.5564  131.3617 H   0  0  0  0  0  0  0  0  0  0  0  0
  145.5307  160.9491  135.1669 H   0  0  0  0  0  0  0  0  0  0  0  0
  145.4280  163.2725  133.2635 H   0  0  0  0  0  0  0  0  0  0  0  0
  143.9493  162.7171  134.1265 H   0  0  0  0  0  0  0  0  0  0  0  0
  143.9664  160.8888  132.7290 H   0  0  0  0  0  0  0  0  0  0  0  0
  145.3111  159.6939  132.6853 H   0  0  0  0  0  0  0  0  0  0  0  0
  147.3908  158.6113  134.4711 H   0  0  0  0  0  0  0  0  0  0  0  0
  148.2527  154.9982  135.4811 H   0  0  0  0  0  0  0  0  0  0  0  0
  1  2  1  0
  2  3  2  0
  2  4  1  0
  4  5  2  0
  5  6  1  0
  6  7  2  0
  7  8  1  0
  8  9  2  0
  9 10  1  0
 10 11  1  0
 11 12  2  0
 12 13  1  0
 13 14  2  0
 14 15  1  0
 15 16  1  0
 16 17  1  0
 17 18  1  0
 18 19  1  0
 17 20  1  0
 20 21  1  0
 15 22  2  0
  9 23  1  0
 23 24  2  0
 24 25  1  0
 25 26  1  0
 26 27  2  0
 26 28  1  0
 25  4  1  0
 24  6  1  0
 22 11  1  0
  1 29  1  0
  5 30  1  0
  7 31  1  0
  8 32  1  0
 10 33  1  0
 10 34  1  0
 12 35  1  0
 13 36  1  0
 14 37  1  0
 17 38  1  0
 18 39  1  0
 18 40  1  0
 20 41  1  0
 20 42  1  0
 22 43  1  0
 23 44  1  0
M  CHG  2   1  -1  28  -1
M  END
>  <UniqueID>  (10) 
10

>  <SMILES>  (10) 
[NH-]C(=O)c1cc2ccc(Cc3cccc(OC(CF)CF)c3)cc2n1C(=O)[O-]

>  <Energy>  (10) 
85.4538356843341

>  <Genealogy>  (10) 
[NH-]C(=O)c1cc2ccc(Cc3cccc(OC(CF)CF)c3)cc2n1C(=O)[O-] (protonated)
[NH-]C(=O)c1cc2ccc(Cc3cccc(OC(CF)CF)c3)cc2n1C(=O)[O-] (3D coordinates assigned)
[NH-]C(=O)c1cc2ccc(Cc3cccc(OC(CF)CF)c3)cc2n1C(=O)[O-] (optimized conformer: 85.4538356843341 kcal/mol)

>  <smiles>  (10) 
NC(=O)c1cc2ccc(Cc3cccc(OC(CF)CF)c3)cc2n1C(=O)O

>  <score_type>  (10) 
oracle

>  <origin>  (10) 
adg

>  <m_score__min__energy>  (10) 
-7.0300000000000002

>  <m_primary>  (10) 
energy

$$$$
10:0
     RDKit          3D

 57 59  0  0  0  0  0  0  0  0999 V2000
  141.6860  149.2470  131.4620 C   0  0  0  0  0  0  0  0  0  0  0  0
  140.6500  150.0420  132.2810 C   0  0  0  0  0  0  0  0  0  0  0  0
  140.4100  149.3160  133.6140 C   0  0  0  0  0  0  0  0  0  0  0  0
  139.3150  150.1370  131.5190 C   0  0  0  0  0  0  0  0  0  0  0  0
  141.1480  151.3510  132.5950 O   0  0  0  0  0  0  0  0  0  0  0  0
  142.3440  151.6440  133.2700 C   0  0  0  0  0  0  0  0  0  0  0  0
  143.4560  151.2480  132.8340 O   0  0  0  0  0  0  0  0  0  0  0  0
  142.3050  152.4070  134.4760 N   0  0  0  0  0  0  0  0  0  0  0  0
  143.3530  153.3560  134.8310 C   0  0  0  0  0  0  0  0  0  0  0  0
  142.9220  154.7800  134.4760 C   0  0  0  0  0  0  0  0  0  0  0  0
  143.8480  155.8300  135.1020 C   0  0  0  0  0  0  0  0  0  0  0  0
  143.4060  157.1450  134.7710 O   0  0  0  0  0  0  0  0  0  0  0  0
  143.7490  157.7970  133.5810 C   0  0  0  0  0  0  0  0  0  0  0  0
  142.9260  157.8570  132.6270 O   0  0  0  0  0  0  0  0  0  0  0  0
  145.0350  158.4260  133.4600 N   0  0  0  0  0  0  0  0  0  0  0  0
  145.3360  159.7490  133.5930 C   0  0  0  0  0  0  0  0  0  0  0  0
  144.3610  160.8480  133.7590 C   0  0  0  0  0  0  0  0  0  0  0  0
  143.0050  160.6590  133.3610 N   0  0  0  0  0  0  0  0  0  0  0  0
  144.7040  161.9420  134.2800 O   0  0  0  0  0  0  0  0  0  0  0  0
  146.7080  159.9520  133.4660 C   0  0  0  0  0  0  0  0  0  0  0  0
  147.2420  158.7040  133.2420 C   0  0  0  0  0  0  0  0  0  0  0  0
  148.5650  158.3180  133.0500 C   0  0  0  0  0  0  0  0  0  0  0  0
  148.8330  156.9530  132.8630 C   0  0  0  0  0  0  0  0  0  0  0  0
  147.7840  155.9970  132.8790 C   0  0  0  0  0  0  0  0  0  0  0  0
  148.0810  154.5540  132.6920 C   0  0  0  0  0  0  0  0  0  0  0  0
  147.0520  153.5960  132.7780 C   0  0  0  0  0  0  0  0  0  0  0  0
  147.3340  152.2370  132.6040 C   0  0  0  0  0  0  0  0  0  0  0  0
  148.6400  151.8190  132.3410 C   0  0  0  0  0  0  0  0  0  0  0  0
  148.9170  150.4680  132.1680 O   0  0  0  0  0  0  0  0  0  0  0  0
  149.6700  152.7610  132.2540 C   0  0  0  0  0  0  0  0  0  0  0  0
  149.3930  154.1200  132.4280 C   0  0  0  0  0  0  0  0  0  0  0  0
  146.4510  156.4320  133.0780 C   0  0  0  0  0  0  0  0  0  0  0  0
  146.2130  157.8000  133.2430 C   0  0  0  0  0  0  0  0  0  0  0  0
  142.3696  148.7224  132.1458 H   0  0  0  0  0  0  0  0  0  0  0  0
  141.1671  148.5131  130.8279 H   0  0  0  0  0  0  0  0  0  0  0  0
  142.2606  149.9381  130.8279 H   0  0  0  0  0  0  0  0  0  0  0  0
  140.6351  149.9969  134.4481 H   0  0  0  0  0  0  0  0  0  0  0  0
  139.3588  148.9976  133.6740 H   0  0  0  0  0  0  0  0  0  0  0  0
  141.0643  148.4338  133.6740 H   0  0  0  0  0  0  0  0  0  0  0  0
  138.4853  150.1960  132.2388 H   0  0  0  0  0  0  0  0  0  0  0  0
  139.3168  151.0373  130.8870 H   0  0  0  0  0  0  0  0  0  0  0  0
  139.1893  149.2455  130.8870 H   0  0  0  0  0  0  0  0  0  0  0  0
  143.5473  153.2945  135.9119 H   0  0  0  0  0  0  0  0  0  0  0  0
  144.2657  153.1079  134.2694 H   0  0  0  0  0  0  0  0  0  0  0  0
  142.9415  154.8953  133.3822 H   0  0  0  0  0  0  0  0  0  0  0  0
  141.9086  154.9387  134.8732 H   0  0  0  0  0  0  0  0  0  0  0  0
  143.8436  155.7109  136.1955 H   0  0  0  0  0  0  0  0  0  0  0  0
  144.8656  155.6869  134.7096 H   0  0  0  0  0  0  0  0  0  0  0  0
  142.7620  160.0110  132.5780 H   0  0  0  0  0  0  0  0  0  0  0  0
  147.2496  160.9072  133.5310 H   0  0  0  0  0  0  0  0  0  0  0  0
  149.3766  159.0605  133.0449 H   0  0  0  0  0  0  0  0  0  0  0  0
  149.8689  156.6200  132.7020 H   0  0  0  0  0  0  0  0  0  0  0  0
  146.0205  153.9184  132.9832 H   0  0  0  0  0  0  0  0  0  0  0  0
  146.5246  151.4955  132.6746 H   0  0  0  0  0  0  0  0  0  0  0  0
  150.6993  152.4321  132.0484 H   0  0  0  0  0  0  0  0  0  0  0  0
  150.2074  154.8561  132.3579 H   0  0  0  0  0  0  0  0  0  0  0  0
  145.6215  155.7100  133.1022 H   0  0  0  0  0  0  0  0  0  0  0  0
  1  2  1  0
  2  3  1  0
  2  4  1  0
  2  5  1  0
  5  6  1  0
  6  7  2  0
  6  8  1  0
  8  9  1  0
  9 10  1  0
 10 11  1  0
 11 12  1  0
 12 13  1  0
 13 14  2  0
 13 15  1  0
 15 16  1  0
 16 17  1  0
 17 18  1  0
 17 19  2  0
 16 20  2  0
 20 21  1  0
 21 22  2  0
 22 23  1  0
 23 24  2  0
 24 25  1  0
 25 26  2  0
 26 27  1  0
 27 28  2  0
 28 29  1  0
 28 30  1  0
 30 31  2  0
 24 32  1  0
 32 33  2  0
 33 15  1  0
 33 21  1  0
 31 25  1  0
  1 34  1  0
  1 35  1  0
  1 36  1  0
  3 37  1  0
  3 38  1  0
  3 39  1  0
  4 40  1  0
  4 41  1  0
  4 42  1  0
  9 43  1  0
  9 44  1  0
 10 45  1  0
 10 46  1  0
 11 47  1  0
 11 48  1  0
 18 49  1  0
 20 50  1  0
 22 51  1  0
 23 52  1  0
 26 53  1  0
 27 54  1  0
 30 55  1  0
 31 56  1  0
 32 57  1  0
M  CHG  3   8  -1  18  -1  29  -1
M  END
>  <UniqueID>  (11) 
11

>  <SMILES>  (11) 
CC(C)(C)OC(=O)[N-]CCCOC(=O)n1c(C([NH-])=O)cc2ccc(-c3ccc([O-])cc3)cc21

>  <Energy>  (11) 
90.36412912649244

>  <Genealogy>  (11) 
CC(C)(C)OC(=O)[N-]CCCOC(=O)n1c(C([NH-])=O)cc2ccc(-c3ccc([O-])cc3)cc21 (protonated)
CC(C)(C)OC(=O)[N-]CCCOC(=O)n1c(C([NH-])=O)cc2ccc(-c3ccc([O-])cc3)cc21 (3D coordinates assigned)
CC(C)(C)OC(=O)[N-]CCCOC(=O)n1c(C([NH-])=O)cc2ccc(-c3ccc([O-])cc3)cc21 (optimized conformer: 90.36412912649244 kcal/mol)

>  <smiles>  (11) 
CC(C)(C)OC(=O)NCCCOC(=O)n1c(C(N)=O)cc2ccc(-c3ccc(O)cc3)cc21

>  <score_type>  (11) 
oracle

>  <origin>  (11) 
adg

>  <m_score__min__energy>  (11) 
-8.7799999999999994

>  <m_primary>  (11) 
energy

$$$$
11:0
     RDKit          3D

 35 37  0  0  0  0  0  0  0  0999 V2000
  149.2200  158.9990  131.0850 C   0  0  0  0  0  0  0  0  0  0  0  0
  148.7990  160.4630  131.1200 C   0  0  0  0  0  0  0  0  0  0  0  0
  148.0520  160.7430  132.3030 O   0  0  0  0  0  0  0  0  0  0  0  0
  147.8380  159.8070  133.3220 C   0  0  0  0  0  0  0  0  0  0  0  0
  148.7600  159.5290  134.1350 O   0  0  0  0  0  0  0  0  0  0  0  0
  146.5510  159.1850  133.4560 N   0  0  0  0  0  0  0  0  0  0  0  0
  145.3400  159.7900  133.6200 C   0  0  0  0  0  0  0  0  0  0  0  0
  145.1150  161.2360  133.8300 C   0  0  0  0  0  0  0  0  0  0  0  0
  146.2210  162.0930  134.1050 N   0  0  0  0  0  0  0  0  0  0  0  0
  143.9610  161.7300  133.7360 O   0  0  0  0  0  0  0  0  0  0  0  0
  144.3200  158.8420  133.6510 C   0  0  0  0  0  0  0  0  0  0  0  0
  144.9490  157.6260  133.5060 C   0  0  0  0  0  0  0  0  0  0  0  0
  144.4150  156.3440  133.4590 C   0  0  0  0  0  0  0  0  0  0  0  0
  145.2980  155.2670  133.2760 C   0  0  0  0  0  0  0  0  0  0  0  0
  146.6950  155.4850  133.1330 C   0  0  0  0  0  0  0  0  0  0  0  0
  147.6280  154.3460  132.9290 C   0  0  0  0  0  0  0  0  0  0  0  0
  147.3150  152.9870  132.9730 C   0  0  0  0  0  0  0  0  0  0  0  0
  148.4130  152.1500  132.7380 C   0  0  0  0  0  0  0  0  0  0  0  0
  149.5990  152.8320  132.5090 C   0  0  0  0  0  0  0  0  0  0  0  0
  149.2770  154.4780  132.5950 S   0  0  0  0  0  0  0  0  0  0  0  0
  147.1950  156.8080  133.1890 C   0  0  0  0  0  0  0  0  0  0  0  0
  146.2940  157.8590  133.3910 C   0  0  0  0  0  0  0  0  0  0  0  0
  149.3279  158.6238  132.1134 H   0  0  0  0  0  0  0  0  0  0  0  0
  148.4549  158.4099  130.5582 H   0  0  0  0  0  0  0  0  0  0  0  0
  150.1812  158.9064  130.5582 H   0  0  0  0  0  0  0  0  0  0  0  0
  149.6971  161.0979  131.1009 H   0  0  0  0  0  0  0  0  0  0  0  0
  148.1669  160.6711  130.2441 H   0  0  0  0  0  0  0  0  0  0  0  0
  146.9600  162.2620  133.3870 H   0  0  0  0  0  0  0  0  0  0  0  0
  143.2417  159.0258  133.7667 H   0  0  0  0  0  0  0  0  0  0  0  0
  143.3326  156.1774  133.5621 H   0  0  0  0  0  0  0  0  0  0  0  0
  144.9028  154.2410  133.2429 H   0  0  0  0  0  0  0  0  0  0  0  0
  146.3017  152.6088  133.1733 H   0  0  0  0  0  0  0  0  0  0  0  0
  148.3415  151.0523  132.7353 H   0  0  0  0  0  0  0  0  0  0  0  0
  150.5788  152.3748  132.3065 H   0  0  0  0  0  0  0  0  0  0  0  0
  148.2711  157.0059  133.0759 H   0  0  0  0  0  0  0  0  0  0  0  0
  1  2  1  0
  2  3  1  0
  3  4  1  0
  4  5  2  0
  4  6  1  0
  6  7  1  0
  7  8  1  0
  8  9  1  0
  8 10  2  0
  7 11  2  0
 11 12  1  0
 12 13  2  0
 13 14  1  0
 14 15  2  0
 15 16  1  0
 16 17  2  0
 17 18  1  0
 18 19  2  0
 19 20  1  0
 15 21  1  0
 21 22  2  0
 22  6  1  0
 22 12  1  0
 20 16  1  0
  1 23  1  0
  1 24  1  0
  1 25  1  0
  2 26  1  0
  2 27  1  0
  9 28  1  0
 11 29  1  0
 13 30  1  0
 14 31  1  0
 17 32  1  0
 18 33  1  0
 19 34  1  0
 21 35  1  0
M  CHG  1   9  -1
M  END
>  <UniqueID>  (12) 
12

>  <SMILES>  (12) 
CCOC(=O)n1c(C([NH-])=O)cc2ccc(-c3cccs3)cc21

>  <Energy>  (12) 
100.38531161760189

>  <Genealogy>  (12) 
CCOC(=O)n1c(C([NH-])=O)cc2ccc(-c3cccs3)cc21 (protonated)
CCOC(=O)n1c(C([NH-])=O)cc2ccc(-c3cccs3)cc21 (3D coordinates assigned)
CCOC(=O)n1c(C([NH-])=O)cc2ccc(-c3cccs3)cc21 (optimized conformer: 100.38531161760189 kcal/mol)

>  <smiles>  (12) 
CCOC(=O)n1c(C(N)=O)cc2ccc(-c3cccs3)cc21

>  <score_type>  (12) 
oracle

>  <origin>  (12) 
adg

>  <m_score__min__energy>  (12) 
-7.1299999999999999

>  <m_primary>  (12) 
energy

$$$$
12:0
     RDKit          3D

 37 39  0  0  0  0  0  0  0  0999 V2000
  143.5910  155.4240  133.1730 C   0  0  0  0  0  0  0  0  0  0  0  0
  144.3490  156.7130  133.2870 C   0  0  0  0  0  0  0  0  0  0  0  0
  145.7640  156.7130  133.2210 C   0  0  0  0  0  0  0  0  0  0  0  0
  146.4860  157.9110  133.3500 C   0  0  0  0  0  0  0  0  0  0  0  0
  145.7700  159.0840  133.5660 C   0  0  0  0  0  0  0  0  0  0  0  0
  146.2140  160.3790  133.7080 C   0  0  0  0  0  0  0  0  0  0  0  0
  145.0660  161.1450  133.8980 C   0  0  0  0  0  0  0  0  0  0  0  0
  145.0920  162.5970  134.1760 C   0  0  0  0  0  0  0  0  0  0  0  0
  145.9760  163.1130  135.1680 N   0  0  0  0  0  0  0  0  0  0  0  0
  144.3170  163.3840  133.5700 O   0  0  0  0  0  0  0  0  0  0  0  0
  143.9540  160.3550  133.8680 N   0  0  0  0  0  0  0  0  0  0  0  0
  142.5800  160.7600  133.9690 C   0  0  0  0  0  0  0  0  0  0  0  0
  142.1930  161.8140  133.3950 O   0  0  0  0  0  0  0  0  0  0  0  0
  141.6670  159.9810  134.7510 N   0  0  0  0  0  0  0  0  0  0  0  0
  140.6560  159.0880  134.2550 C   0  0  0  0  0  0  0  0  0  0  0  0
  140.3040  159.0500  132.8950 C   0  0  0  0  0  0  0  0  0  0  0  0
  139.3360  158.1500  132.4480 C   0  0  0  0  0  0  0  0  0  0  0  0
  138.7350  157.2830  133.3580 C   0  0  0  0  0  0  0  0  0  0  0  0
  139.1010  157.3100  134.6660 N   0  0  0  0  0  0  0  0  0  0  0  0
  140.0420  158.1750  135.1360 C   0  0  0  0  0  0  0  0  0  0  0  0
  140.4010  158.1460  136.5900 C   0  0  0  0  0  0  0  0  0  0  0  0
  144.4030  159.0970  133.6650 C   0  0  0  0  0  0  0  0  0  0  0  0
  143.6560  157.9210  133.5220 C   0  0  0  0  0  0  0  0  0  0  0  0
  143.3657  155.0409  134.1792 H   0  0  0  0  0  0  0  0  0  0  0  0
  142.6515  155.5981  132.6281 H   0  0  0  0  0  0  0  0  0  0  0  0
  144.1999  154.6875  132.6281 H   0  0  0  0  0  0  0  0  0  0  0  0
  146.3024  155.7661  133.0673 H   0  0  0  0  0  0  0  0  0  0  0  0
  147.5839  157.9213  133.2823 H   0  0  0  0  0  0  0  0  0  0  0  0
  147.2547  160.7339  133.6778 H   0  0  0  0  0  0  0  0  0  0  0  0
  147.0100  163.0210  135.0660 H   0  0  0  0  0  0  0  0  0  0  0  0
  140.7922  159.7306  132.1820 H   0  0  0  0  0  0  0  0  0  0  0  0
  139.0498  158.1252  131.3862 H   0  0  0  0  0  0  0  0  0  0  0  0
  137.9639  156.5764  133.0173 H   0  0  0  0  0  0  0  0  0  0  0  0
  139.4855  158.2200  137.1953 H   0  0  0  0  0  0  0  0  0  0  0  0
  140.9182  157.2031  136.8212 H   0  0  0  0  0  0  0  0  0  0  0  0
  141.0629  158.9936  136.8212 H   0  0  0  0  0  0  0  0  0  0  0  0
  142.5583  157.9377  133.5909 H   0  0  0  0  0  0  0  0  0  0  0  0
  1  2  1  0
  2  3  2  0
  3  4  1  0
  4  5  2  0
  5  6  1  0
  6  7  2  0
  7  8  1  0
  8  9  1  0
  8 10  2  0
  7 11  1  0
 11 12  1  0
 12 13  2  0
 12 14  1  0
 14 15  1  0
 15 16  2  0
 16 17  1  0
 17 18  2  0
 18 19  1  0
 19 20  2  0
 20 21  1  0
 11 22  1  0
 22 23  2  0
 23  2  1  0
 22  5  1  0
 20 15  1  0
  1 24  1  0
  1 25  1  0
  1 26  1  0
  3 27  1  0
  4 28  1  0
  6 29  1  0
  9 30  1  0
 16 31  1  0
 17 32  1  0
 18 33  1  0
 21 34  1  0
 21 35  1  0
 21 36  1  0
 23 37  1  0
M  CHG  2   9  -1  14  -1
M  END
>  <UniqueID>  (13) 
13

>  <SMILES>  (13) 
Cc1ccc2cc(C([NH-])=O)n(C(=O)[N-]c3cccnc3C)c2c1

>  <Energy>  (13) 
81.35030902843985

>  <Genealogy>  (13) 
Cc1ccc2cc(C([NH-])=O)n(C(=O)[N-]c3cccnc3C)c2c1 (protonated)
Cc1ccc2cc(C([NH-])=O)n(C(=O)[N-]c3cccnc3C)c2c1 (3D coordinates assigned)
Cc1ccc2cc(C([NH-])=O)n(C(=O)[N-]c3cccnc3C)c2c1 (optimized conformer: 81.35030902843985 kcal/mol)

>  <smiles>  (13) 
Cc1ccc2cc(C(N)=O)n(C(=O)Nc3cccnc3C)c2c1

>  <score_type>  (13) 
oracle

>  <origin>  (13) 
adg

>  <m_score__min__energy>  (13) 
-8

>  <m_primary>  (13) 
energy

$$$$
13:0
     RDKit          3D

 48 49  0  0  0  0  0  0  0  0999 V2000
  143.1720  153.8120  133.5030 C   0  0  0  0  0  0  0  0  0  0  0  0
  144.4240  154.3440  132.9630 N   0  0  0  0  0  0  0  0  0  0  0  0
  144.5610  154.5080  131.5130 C   0  0  0  0  0  0  0  0  0  0  0  0
  145.4800  154.7260  133.8660 C   0  0  0  0  0  0  0  0  0  0  0  0
  145.5090  154.2480  135.0330 O   0  0  0  0  0  0  0  0  0  0  0  0
  146.4960  155.6590  133.4650 N   0  0  0  0  0  0  0  0  0  0  0  0
  147.8120  155.4020  133.2250 C   0  0  0  0  0  0  0  0  0  0  0  0
  148.4290  154.0560  133.2160 C   0  0  0  0  0  0  0  0  0  0  0  0
  147.8500  152.9780  133.9550 N   0  0  0  0  0  0  0  0  0  0  0  0
  149.4850  153.8500  132.5620 O   0  0  0  0  0  0  0  0  0  0  0  0
  148.4880  156.5840  132.9220 C   0  0  0  0  0  0  0  0  0  0  0  0
  147.5370  157.5780  132.9950 C   0  0  0  0  0  0  0  0  0  0  0  0
  147.6560  158.9490  132.7960 C   0  0  0  0  0  0  0  0  0  0  0  0
  146.5070  159.7410  132.9570 C   0  0  0  0  0  0  0  0  0  0  0  0
  145.2660  159.1550  133.3230 C   0  0  0  0  0  0  0  0  0  0  0  0
  144.0360  160.0260  133.4890 C   0  0  1  0  0  0  0  0  0  0  0  0
  143.0300  159.3770  134.4790 C   0  0  0  0  0  0  0  0  0  0  0  0
  141.5230  159.5340  134.1130 C   0  0  0  0  0  0  0  0  0  0  0  0
  141.1040  158.5430  133.0000 C   0  0  0  0  0  0  0  0  0  0  0  0
  140.6840  159.2260  135.3650 C   0  0  0  0  0  0  0  0  0  0  0  0
  141.2390  160.8610  133.7330 O   0  0  0  0  0  0  0  0  0  0  0  0
  144.4570  161.4090  133.9180 C   0  0  0  0  0  0  0  0  0  0  0  0
  143.9040  162.4190  133.4090 O   0  0  0  0  0  0  0  0  0  0  0  0
  145.4890  161.5870  134.8330 O   0  0  0  0  0  0  0  0  0  0  0  0
  145.1920  157.7560  133.5270 C   0  0  0  0  0  0  0  0  0  0  0  0
  146.3460  156.9940  133.3330 C   0  0  0  0  0  0  0  0  0  0  0  0
  143.2105  153.8284  134.6022 H   0  0  0  0  0  0  0  0  0  0  0  0
  142.3310  154.4305  133.1563 H   0  0  0  0  0  0  0  0  0  0  0  0
  143.0335  152.7773  133.1563 H   0  0  0  0  0  0  0  0  0  0  0  0
  145.2531  155.3364  131.3015 H   0  0  0  0  0  0  0  0  0  0  0  0
  144.9556  153.5795  131.0746 H   0  0  0  0  0  0  0  0  0  0  0  0
  143.5771  154.7311  131.0746 H   0  0  0  0  0  0  0  0  0  0  0  0
  148.3140  152.0430  133.9640 H   0  0  0  0  0  0  0  0  0  0  0  0
  146.9430  153.0870  134.4580 H   0  0  0  0  0  0  0  0  0  0  0  0
  149.5542  156.6981  132.6768 H   0  0  0  0  0  0  0  0  0  0  0  0
  148.6209  159.3999  132.5208 H   0  0  0  0  0  0  0  0  0  0  0  0
  146.5691  160.8276  132.7978 H   0  0  0  0  0  0  0  0  0  0  0  0
  143.5112  160.1150  132.5264 H   0  0  0  0  0  0  0  0  0  0  0  0
  143.2544  158.3014  134.5319 H   0  0  0  0  0  0  0  0  0  0  0  0
  143.1634  159.9086  135.4327 H   0  0  0  0  0  0  0  0  0  0  0  0
  140.7144  157.6215  133.4572 H   0  0  0  0  0  0  0  0  0  0  0  0
  140.3227  159.0014  132.3760 H   0  0  0  0  0  0  0  0  0  0  0  0
  141.9772  158.3019  132.3760 H   0  0  0  0  0  0  0  0  0  0  0  0
  141.2764  159.4435  136.2660 H   0  0  0  0  0  0  0  0  0  0  0  0
  139.7783  159.8503  135.3622 H   0  0  0  0  0  0  0  0  0  0  0  0
  140.3973  158.1640  135.3622 H   0  0  0  0  0  0  0  0  0  0  0  0
  142.0770  161.3890  133.7730 H   0  0  0  0  0  0  0  0  0  0  0  0
  144.2478  157.2805  133.8311 H   0  0  0  0  0  0  0  0  0  0  0  0
  1  2  1  0
  2  3  1  0
  2  4  1  0
  4  5  2  0
  4  6  1  0
  6  7  1  0
  7  8  1  0
  8  9  1  0
  8 10  2  0
  7 11  2  0
 11 12  1  0
 12 13  2  0
 13 14  1  0
 14 15  2  0
 15 16  1  0
 16 17  1  0
 17 18  1  0
 18 19  1  0
 18 20  1  0
 18 21  1  0
 16 22  1  0
 22 23  2  0
 22 24  1  0
 15 25  1  0
 25 26  2  0
 26  6  1  0
 26 12  1  0
  1 27  1  0
  1 28  1  0
  1 29  1  0
  3 30  1  0
  3 31  1  0
  3 32  1  0
  9 33  1  0
  9 34  1  0
 11 35  1  0
 13 36  1  0
 14 37  1  0
 16 38  1  6
 17 39  1  0
 17 40  1  0
 19 41  1  0
 19 42  1  0
 19 43  1  0
 20 44  1  0
 20 45  1  0
 20 46  1  0
 21 47  1  0
 25 48  1  0
M  CHG  1  24  -1
M  END
>  <UniqueID>  (14) 
14

>  <SMILES>  (14) 
CN(C)C(=O)n1c(C(N)=O)cc2ccc([C@@H](CC(C)(C)O)C(=O)[O-])cc21

>  <Energy>  (14) 
83.67912965306483

>  <Genealogy>  (14) 
CN(C)C(=O)n1c(C(N)=O)cc2ccc([C@@H](CC(C)(C)O)C(=O)[O-])cc21 (protonated)
CN(C)C(=O)n1c(C(N)=O)cc2ccc([C@@H](CC(C)(C)O)C(=O)[O-])cc21 (3D coordinates assigned)
CN(C)C(=O)n1c(C(N)=O)cc2ccc([C@@H](CC(C)(C)O)C(=O)[O-])cc21 (optimized conformer: 83.67912965306483 kcal/mol)

>  <smiles>  (14) 
CN(C)C(=O)n1c(C(N)=O)cc2ccc([C@@H](CC(C)(C)O)C(=O)O)cc21

>  <score_type>  (14) 
oracle

>  <origin>  (14) 
adg

>  <m_score__min__energy>  (14) 
-8.0700000000000003

>  <m_primary>  (14) 
energy

$$$$
14:0
     RDKit          3D

 46 48  0  0  0  0  0  0  0  0999 V2000
  145.7890  155.1550  134.2990 C   0  0  0  0  0  0  0  0  0  0  0  0
  144.3570  154.9290  133.7770 C   0  0  0  0  0  0  0  0  0  0  0  0
  144.2720  155.2350  132.2690 C   0  0  0  0  0  0  0  0  0  0  0  0
  143.9690  153.4600  134.0060 C   0  0  0  0  0  0  0  0  0  0  0  0
  143.4210  155.7320  134.5070 O   0  0  0  0  0  0  0  0  0  0  0  0
  142.3620  156.4780  133.9680 C   0  0  0  0  0  0  0  0  0  0  0  0
  141.4150  155.9120  133.3590 O   0  0  0  0  0  0  0  0  0  0  0  0
  142.3470  157.9020  134.1420 N   0  0  0  0  0  0  0  0  0  0  0  0
  141.3430  158.6800  134.6370 C   0  0  0  0  0  0  0  0  0  0  0  0
  139.9750  158.2280  134.9670 C   0  0  0  0  0  0  0  0  0  0  0  0
  139.5380  158.1360  136.3210 N   0  0  0  0  0  0  0  0  0  0  0  0
  139.1960  157.8740  134.0430 O   0  0  0  0  0  0  0  0  0  0  0  0
  141.7510  160.0100  134.7170 C   0  0  0  0  0  0  0  0  0  0  0  0
  143.0420  160.0250  134.2410 C   0  0  0  0  0  0  0  0  0  0  0  0
  143.9330  161.0840  134.1020 C   0  0  0  0  0  0  0  0  0  0  0  0
  145.2160  160.8060  133.6040 C   0  0  0  0  0  0  0  0  0  0  0  0
  145.5930  159.4790  133.2650 C   0  0  0  0  0  0  0  0  0  0  0  0
  146.9560  159.1910  132.7490 C   0  0  0  0  0  0  0  0  0  0  0  0
  147.6260  158.0130  133.1270 C   0  0  0  0  0  0  0  0  0  0  0  0
  148.9070  157.7440  132.6440 C   0  0  0  0  0  0  0  0  0  0  0  0
  149.5360  158.6410  131.7790 C   0  0  0  0  0  0  0  0  0  0  0  0
  148.8890  159.8240  131.3870 C   0  0  0  0  0  0  0  0  0  0  0  0
  149.5360  160.7560  130.4990 N   0  0  0  0  0  0  0  0  0  0  0  0
  149.5130  161.9820  130.7370 O   0  0  0  0  0  0  0  0  0  0  0  0
  150.1920  160.3100  129.3740 O   0  0  0  0  0  0  0  0  0  0  0  0
  147.5970  160.0910  131.8780 C   0  0  0  0  0  0  0  0  0  0  0  0
  144.6570  158.4300  133.4250 C   0  0  0  0  0  0  0  0  0  0  0  0
  143.3790  158.7410  133.9010 C   0  0  0  0  0  0  0  0  0  0  0  0
  145.7827  155.1540  135.3990 H   0  0  0  0  0  0  0  0  0  0  0  0
  146.4433  154.3490  133.9353 H   0  0  0  0  0  0  0  0  0  0  0  0
  146.1633  156.1233  133.9353 H   0  0  0  0  0  0  0  0  0  0  0  0
  143.9802  156.2856  132.1239 H   0  0  0  0  0  0  0  0  0  0  0  0
  145.2530  155.0593  131.8033 H   0  0  0  0  0  0  0  0  0  0  0  0
  143.5222  154.5785  131.8033 H   0  0  0  0  0  0  0  0  0  0  0  0
  143.9159  153.2589  135.0862 H   0  0  0  0  0  0  0  0  0  0  0  0
  142.9883  153.2641  133.5479 H   0  0  0  0  0  0  0  0  0  0  0  0
  144.7250  152.8054  133.5479 H   0  0  0  0  0  0  0  0  0  0  0  0
  139.4690  158.9860  136.9220 H   0  0  0  0  0  0  0  0  0  0  0  0
  141.1654  160.8662  135.0830 H   0  0  0  0  0  0  0  0  0  0  0  0
  143.6411  162.1090  134.3742 H   0  0  0  0  0  0  0  0  0  0  0  0
  145.9380  161.6257  133.4748 H   0  0  0  0  0  0  0  0  0  0  0  0
  147.1371  157.3000  133.8072 H   0  0  0  0  0  0  0  0  0  0  0  0
  149.4235  156.8210  132.9462 H   0  0  0  0  0  0  0  0  0  0  0  0
  150.5453  158.4197  131.4019 H   0  0  0  0  0  0  0  0  0  0  0  0
  147.0820  161.0152  131.5769 H   0  0  0  0  0  0  0  0  0  0  0  0
  144.9285  157.3925  133.1804 H   0  0  0  0  0  0  0  0  0  0  0  0
  1  2  1  0
  2  3  1  0
  2  4  1  0
  2  5  1  0
  5  6  1  0
  6  7  2  0
  6  8  1  0
  8  9  1  0
  9 10  1  0
 10 11  1  0
 10 12  2  0
  9 13  2  0
 13 14  1  0
 14 15  2  0
 15 16  1  0
 16 17  2  0
 17 18  1  0
 18 19  2  0
 19 20  1  0
 20 21  2  0
 21 22  1  0
 22 23  1  0
 23 24  2  0
 23 25  1  0
 22 26  2  0
 17 27  1  0
 27 28  2  0
 28  8  1  0
 28 14  1  0
 26 18  1  0
  1 29  1  0
  1 30  1  0
  1 31  1  0
  3 32  1  0
  3 33  1  0
  3 34  1  0
  4 35  1  0
  4 36  1  0
  4 37  1  0
 11 38  1  0
 13 39  1  0
 15 40  1  0
 16 41  1  0
 19 42  1  0
 20 43  1  0
 21 44  1  0
 26 45  1  0
 27 46  1  0
M  CHG  3  11  -1  23   1  25  -1
M  END
>  <UniqueID>  (15) 
15

>  <SMILES>  (15) 
CC(C)(C)OC(=O)n1c(C([NH-])=O)cc2ccc(-c3cccc([N+](=O)[O-])c3)cc21

>  <Energy>  (15) 
88.74097177443213

>  <Genealogy>  (15) 
CC(C)(C)OC(=O)n1c(C([NH-])=O)cc2ccc(-c3cccc([N+](=O)[O-])c3)cc21 (protonated)
CC(C)(C)OC(=O)n1c(C([NH-])=O)cc2ccc(-c3cccc([N+](=O)[O-])c3)cc21 (3D coordinates assigned)
CC(C)(C)OC(=O)n1c(C([NH-])=O)cc2ccc(-c3cccc([N+](=O)[O-])c3)cc21 (optimized conformer: 88.74097177443213 kcal/mol)

>  <smiles>  (15) 
CC(C)(C)OC(=O)n1c(C(N)=O)cc2ccc(-c3cccc([N+](=O)[O-])c3)cc21

>  <score_type>  (15) 
oracle

>  <origin>  (15) 
adg

>  <m_score__min__energy>  (15) 
-8.9700000000000006

>  <m_primary>  (15) 
energy

$$$$
15:0
     RDKit          3D

 47 49  0  0  0  0  0  0  0  0999 V2000
  140.5150  158.6800  132.2270 C   0  0  0  0  0  0  0  0  0  0  0  0
  141.3650  157.6970  133.0220 C   0  0  0  0  0  0  0  0  0  0  0  0
  142.7510  157.9020  132.7540 O   0  0  0  0  0  0  0  0  0  0  0  0
  143.7320  157.9570  133.7510 C   0  0  0  0  0  0  0  0  0  0  0  0
  143.5400  157.3980  134.8650 O   0  0  0  0  0  0  0  0  0  0  0  0
  144.9540  158.6690  133.5080 N   0  0  0  0  0  0  0  0  0  0  0  0
  145.1530  160.0170  133.5390 C   0  0  0  0  0  0  0  0  0  0  0  0
  144.0960  161.0430  133.6670 C   0  0  0  0  0  0  0  0  0  0  0  0
  142.7430  160.7080  133.3690 N   0  0  0  0  0  0  0  0  0  0  0  0
  144.3700  162.2030  134.0720 O   0  0  0  0  0  0  0  0  0  0  0  0
  146.4990  160.3180  133.3510 C   0  0  0  0  0  0  0  0  0  0  0  0
  147.1260  159.1030  133.1980 C   0  0  0  0  0  0  0  0  0  0  0  0
  148.4710  158.8090  132.9970 C   0  0  0  0  0  0  0  0  0  0  0  0
  148.8440  157.4590  132.9070 C   0  0  0  0  0  0  0  0  0  0  0  0
  147.8760  156.4260  133.0240 C   0  0  0  0  0  0  0  0  0  0  0  0
  148.2860  155.0000  132.9440 C   0  0  0  0  0  0  0  0  0  0  0  0
  149.5900  154.6380  132.5830 C   0  0  0  0  0  0  0  0  0  0  0  0
  149.9440  153.3290  132.5250 N   0  0  0  0  0  0  0  0  0  0  0  0
  149.0550  152.3390  132.8050 C   0  0  0  0  0  0  0  0  0  0  0  0
  149.5060  150.8850  132.7560 C   0  0  0  0  0  0  0  0  0  0  0  0
  149.9230  150.4360  134.1630 C   0  0  0  0  0  0  0  0  0  0  0  0
  148.3730  149.9790  132.2350 C   0  0  0  0  0  0  0  0  0  0  0  0
  150.6300  150.7490  131.9170 O   0  0  0  0  0  0  0  0  0  0  0  0
  147.7800  152.6680  133.1650 N   0  0  0  0  0  0  0  0  0  0  0  0
  147.3850  153.9670  133.2350 C   0  0  0  0  0  0  0  0  0  0  0  0
  146.5180  156.7680  133.2260 C   0  0  0  0  0  0  0  0  0  0  0  0
  146.1730  158.1230  133.2960 C   0  0  0  0  0  0  0  0  0  0  0  0
  139.9564  159.3260  132.9203 H   0  0  0  0  0  0  0  0  0  0  0  0
  141.1668  159.2994  131.5933 H   0  0  0  0  0  0  0  0  0  0  0  0
  139.8080  158.1244  131.5933 H   0  0  0  0  0  0  0  0  0  0  0  0
  141.1787  157.8441  134.0961 H   0  0  0  0  0  0  0  0  0  0  0  0
  141.0938  156.6729  132.7260 H   0  0  0  0  0  0  0  0  0  0  0  0
  142.5110  160.0540  132.5870 H   0  0  0  0  0  0  0  0  0  0  0  0
  146.9627  161.3152  133.3294 H   0  0  0  0  0  0  0  0  0  0  0  0
  149.2195  159.6105  132.9112 H   0  0  0  0  0  0  0  0  0  0  0  0
  149.8999  157.1974  132.7437 H   0  0  0  0  0  0  0  0  0  0  0  0
  150.3295  155.4170  132.3457 H   0  0  0  0  0  0  0  0  0  0  0  0
  149.3756  151.0254  134.9133 H   0  0  0  0  0  0  0  0  0  0  0  0
  149.6881  149.3692  134.2921 H   0  0  0  0  0  0  0  0  0  0  0  0
  151.0043  150.5916  134.2921 H   0  0  0  0  0  0  0  0  0  0  0  0
  147.8297  149.5446  133.0871 H   0  0  0  0  0  0  0  0  0  0  0  0
  147.6795  150.5744  131.6230 H   0  0  0  0  0  0  0  0  0  0  0  0
  148.8013  149.1715  131.6230 H   0  0  0  0  0  0  0  0  0  0  0  0
  151.0840  151.6320  131.8650 H   0  0  0  0  0  0  0  0  0  0  0  0
  147.0850  151.9260  133.4060 H   0  0  0  0  0  0  0  0  0  0  0  0
  146.3510  154.2088  133.5221 H   0  0  0  0  0  0  0  0  0  0  0  0
  145.7503  155.9865  133.3258 H   0  0  0  0  0  0  0  0  0  0  0  0
  1  2  1  0
  2  3  1  0
  3  4  1  0
  4  5  2  0
  4  6  1  0
  6  7  1  0
  7  8  1  0
  8  9  1  0
  8 10  2  0
  7 11  2  0
 11 12  1  0
 12 13  2  0
 13 14  1  0
 14 15  2  0
 15 16  1  0
 16 17  2  0
 17 18  1  0
 18 19  2  0
 19 20  1  0
 20 21  1  0
 20 22  1  0
 20 23  1  0
 19 24  1  0
 24 25  2  0
 15 26  1  0
 26 27  2  0
 27  6  1  0
 27 12  1  0
 25 16  1  0
  1 28  1  0
  1 29  1  0
  1 30  1  0
  2 31  1  0
  2 32  1  0
  9 33  1  0
 11 34  1  0
 13 35  1  0
 14 36  1  0
 17 37  1  0
 21 38  1  0
 21 39  1  0
 21 40  1  0
 22 41  1  0
 22 42  1  0
 22 43  1  0
 23 44  1  0
 24 45  1  0
 25 46  1  0
 26 47  1  0
M  CHG  2   9  -1  24   1
M  END
>  <UniqueID>  (16) 
16

>  <SMILES>  (16) 
CCOC(=O)n1c(C([NH-])=O)cc2ccc(-c3cnc(C(C)(C)O)[nH+]c3)cc21

>  <Energy>  (16) 
87.92849464698959

>  <Genealogy>  (16) 
CCOC(=O)n1c(C([NH-])=O)cc2ccc(-c3cnc(C(C)(C)O)[nH+]c3)cc21 (protonated)
CCOC(=O)n1c(C([NH-])=O)cc2ccc(-c3cnc(C(C)(C)O)[nH+]c3)cc21 (3D coordinates assigned)
CCOC(=O)n1c(C([NH-])=O)cc2ccc(-c3cnc(C(C)(C)O)[nH+]c3)cc21 (optimized conformer: 87.92849464698959 kcal/mol)

>  <smiles>  (16) 
CCOC(=O)n1c(C(N)=O)cc2ccc(-c3cnc(C(C)(C)O)nc3)cc21

>  <score_type>  (16) 
oracle

>  <origin>  (16) 
adg

>  <m_score__min__energy>  (16) 
-8.3800000000000008

>  <m_primary>  (16) 
energy

$$$$
17:0
     RDKit          3D

 38 40  0  0  0  0  0  0  0  0999 V2000
  149.2210  157.5390  132.2370 C   0  0  0  0  0  0  0  0  0  0  0  0
  149.0640  158.9000  131.6360 C   0  0  0  0  0  0  0  0  0  0  0  0
  149.5930  159.2390  130.4410 N   0  0  0  0  0  0  0  0  0  0  0  0
  149.2260  160.5270  130.2700 C   0  0  0  0  0  0  0  0  0  0  0  0
  148.4830  160.9440  131.3520 C   0  0  0  0  0  0  0  0  0  0  0  0
  148.3740  159.9130  132.2050 N   0  0  0  0  0  0  0  0  0  0  0  0
  147.7190  159.9390  133.5120 C   0  0  0  0  0  0  0  0  0  0  0  0
  146.2640  160.3900  133.3660 C   0  0  0  0  0  0  0  0  0  0  0  0
  145.3390  159.2040  133.3830 C   0  0  0  0  0  0  0  0  0  0  0  0
  145.8700  157.8910  133.3720 C   0  0  0  0  0  0  0  0  0  0  0  0
  145.0170  156.7750  133.3690 C   0  0  0  0  0  0  0  0  0  0  0  0
  143.6440  157.0030  133.3560 C   0  0  0  0  0  0  0  0  0  0  0  0
  142.6000  156.1070  133.3800 C   0  0  0  0  0  0  0  0  0  0  0  0
  141.4480  156.8870  133.3600 C   0  0  0  0  0  0  0  0  0  0  0  0
  140.0850  156.3180  133.3150 C   0  0  0  0  0  0  0  0  0  0  0  0
  138.9330  157.1610  133.2850 N   0  0  0  0  0  0  0  0  0  0  0  0
  139.9380  155.0700  133.2440 O   0  0  0  0  0  0  0  0  0  0  0  0
  141.7610  158.2130  133.3380 N   0  0  0  0  0  0  0  0  0  0  0  0
  140.8560  159.3270  133.4270 C   0  0  0  0  0  0  0  0  0  0  0  0
  140.6520  159.8940  134.5330 O   0  0  0  0  0  0  0  0  0  0  0  0
  140.1970  159.7910  132.2960 O   0  0  0  0  0  0  0  0  0  0  0  0
  143.1130  158.2680  133.3330 C   0  0  0  0  0  0  0  0  0  0  0  0
  143.9400  159.3970  133.3600 C   0  0  0  0  0  0  0  0  0  0  0  0
  149.2117  157.6193  133.3340 H   0  0  0  0  0  0  0  0  0  0  0  0
  148.3911  156.8956  131.9094 H   0  0  0  0  0  0  0  0  0  0  0  0
  150.1756  157.1014  131.9094 H   0  0  0  0  0  0  0  0  0  0  0  0
  149.4815  161.1486  129.3992 H   0  0  0  0  0  0  0  0  0  0  0  0
  148.0537  161.9469  131.4928 H   0  0  0  0  0  0  0  0  0  0  0  0
  147.7444  158.9308  133.9511 H   0  0  0  0  0  0  0  0  0  0  0  0
  148.2500  160.6470  134.1652 H   0  0  0  0  0  0  0  0  0  0  0  0
  146.0078  161.0605  134.1995 H   0  0  0  0  0  0  0  0  0  0  0  0
  146.1498  160.9157  132.4065 H   0  0  0  0  0  0  0  0  0  0  0  0
  146.9601  157.7439  133.3657 H   0  0  0  0  0  0  0  0  0  0  0  0
  145.4217  155.7522  133.3767 H   0  0  0  0  0  0  0  0  0  0  0  0
  142.6627  155.0092  133.4088 H   0  0  0  0  0  0  0  0  0  0  0  0
  139.0240  158.1940  133.1710 H   0  0  0  0  0  0  0  0  0  0  0  0
  137.9770  156.7420  133.2920 H   0  0  0  0  0  0  0  0  0  0  0  0
  143.5108  160.4098  133.3632 H   0  0  0  0  0  0  0  0  0  0  0  0
  1  2  1  0
  2  3  2  0
  3  4  1  0
  4  5  2  0
  5  6  1  0
  6  7  1  0
  7  8  1  0
  8  9  1  0
  9 10  2  0
 10 11  1  0
 11 12  2  0
 12 13  1  0
 13 14  2  0
 14 15  1  0
 15 16  1  0
 15 17  2  0
 14 18  1  0
 18 19  1  0
 19 20  2  0
 19 21  1  0
 18 22  1  0
 22 23  2  0
  6  2  1  0
 23  9  1  0
 22 12  1  0
  1 24  1  0
  1 25  1  0
  1 26  1  0
  4 27  1  0
  5 28  1  0
  7 29  1  0
  7 30  1  0
  8 31  1  0
  8 32  1  0
 10 33  1  0
 11 34  1  0
 13 35  1  0
 16 36  1  0
 16 37  1  0
 23 38  1  0
M  CHG  1  21  -1
M  END
>  <UniqueID>  (17) 
17

>  <SMILES>  (17) 
Cc1nccn1CCc1ccc2cc(C(N)=O)n(C(=O)[O-])c2c1

>  <Energy>  (17) 
104.53665160809344

>  <Genealogy>  (17) 
Cc1nccn1CCc1ccc2cc(C(N)=O)n(C(=O)[O-])c2c1 (protonated)
Cc1nccn1CCc1ccc2cc(C(N)=O)n(C(=O)[O-])c2c1 (3D coordinates assigned)
Cc1nccn1CCc1ccc2cc(C(N)=O)n(C(=O)[O-])c2c1 (optimized conformer: 104.53665160809344 kcal/mol)

>  <smiles>  (17) 
Cc1nccn1CCc1ccc2cc(C(N)=O)n(C(=O)O)c2c1

>  <score_type>  (17) 
oracle

>  <origin>  (17) 
adg

>  <m_score__min__energy>  (17) 
-7.5199999999999996

>  <m_primary>  (17) 
energy

$$$$
18:0
     RDKit          3D

 37 39  0  0  0  0  0  0  0  0999 V2000
  140.8720  159.7770  136.4260 N   0  0  0  0  0  0  0  0  0  0  0  0
  141.4500  159.5220  135.1500 C   0  0  0  0  0  0  0  0  0  0  0  0
  141.7410  160.4930  134.4000 O   0  0  0  0  0  0  0  0  0  0  0  0
  141.7540  158.1440  134.7110 C   0  0  0  0  0  0  0  0  0  0  0  0
  143.0490  157.6410  134.5940 C   0  0  0  0  0  0  0  0  0  0  0  0
  142.8980  156.3220  134.2290 C   0  0  0  0  0  0  0  0  0  0  0  0
  143.8580  155.3520  133.9590 C   0  0  0  0  0  0  0  0  0  0  0  0
  143.4140  154.0780  133.5680 C   0  0  0  0  0  0  0  0  0  0  0  0
  142.0280  153.7970  133.4420 C   0  0  0  0  0  0  0  0  0  0  0  0
  141.5700  152.4490  133.0150 C   0  0  0  0  0  0  0  0  0  0  0  0
  142.4660  151.3660  132.9860 C   0  0  0  0  0  0  0  0  0  0  0  0
  142.0350  150.0980  132.5840 C   0  0  0  0  0  0  0  0  0  0  0  0
  140.6960  149.8890  132.2040 C   0  0  0  0  0  0  0  0  0  0  0  0
  140.2090  148.6380  131.7930 O   0  0  0  0  0  0  0  0  0  0  0  0
  139.4550  148.3980  130.6060 C   0  0  0  0  0  0  0  0  0  0  0  0
  138.1510  148.8300  130.7730 F   0  0  0  0  0  0  0  0  0  0  0  0
  139.4440  147.0400  130.3510 F   0  0  0  0  0  0  0  0  0  0  0  0
  140.0350  149.0490  129.5320 F   0  0  0  0  0  0  0  0  0  0  0  0
  139.8060  150.9680  132.2330 C   0  0  0  0  0  0  0  0  0  0  0  0
  140.2340  152.2370  132.6330 C   0  0  0  0  0  0  0  0  0  0  0  0
  141.0850  154.8140  133.7240 C   0  0  0  0  0  0  0  0  0  0  0  0
  141.5560  156.0660  134.1330 C   0  0  0  0  0  0  0  0  0  0  0  0
  140.8400  157.1730  134.4270 N   0  0  0  0  0  0  0  0  0  0  0  0
  139.4120  157.3020  134.3640 C   0  0  0  0  0  0  0  0  0  0  0  0
  138.7250  158.1780  135.2580 N   0  0  0  0  0  0  0  0  0  0  0  0
  138.7550  156.6340  133.5200 O   0  0  0  0  0  0  0  0  0  0  0  0
  139.8400  159.8870  136.5370 H   0  0  0  0  0  0  0  0  0  0  0  0
  143.9919  158.1832  134.7585 H   0  0  0  0  0  0  0  0  0  0  0  0
  144.9313  155.5757  134.0489 H   0  0  0  0  0  0  0  0  0  0  0  0
  144.1496  153.2879  133.3567 H   0  0  0  0  0  0  0  0  0  0  0  0
  143.5146  151.5174  133.2819 H   0  0  0  0  0  0  0  0  0  0  0  0
  142.7464  149.2592  132.5646 H   0  0  0  0  0  0  0  0  0  0  0  0
  138.7574  150.8159  131.9376 H   0  0  0  0  0  0  0  0  0  0  0  0
  139.5212  153.0747  132.6489 H   0  0  0  0  0  0  0  0  0  0  0  0
  140.0062  154.6242  133.6238 H   0  0  0  0  0  0  0  0  0  0  0  0
  139.2570  158.7840  135.9210 H   0  0  0  0  0  0  0  0  0  0  0  0
  137.6840  158.2480  135.2320 H   0  0  0  0  0  0  0  0  0  0  0  0
  1  2  1  0
  2  3  2  0
  2  4  1  0
  4  5  2  0
  5  6  1  0
  6  7  2  0
  7  8  1  0
  8  9  2  0
  9 10  1  0
 10 11  2  0
 11 12  1  0
 12 13  2  0
 13 14  1  0
 14 15  1  0
 15 16  1  0
 15 17  1  0
 15 18  1  0
 13 19  1  0
 19 20  2  0
  9 21  1  0
 21 22  2  0
 22 23  1  0
 23 24  1  0
 24 25  1  0
 24 26  2  0
 23  4  1  0
 22  6  1  0
 20 10  1  0
  1 27  1  0
  5 28  1  0
  7 29  1  0
  8 30  1  0
 11 31  1  0
 12 32  1  0
 19 33  1  0
 20 34  1  0
 21 35  1  0
 25 36  1  0
 25 37  1  0
M  CHG  1   1  -1
M  END
>  <UniqueID>  (18) 
18

>  <SMILES>  (18) 
[NH-]C(=O)c1cc2ccc(-c3ccc(OC(F)(F)F)cc3)cc2n1C(N)=O

>  <Energy>  (18) 
83.69405941675868

>  <Genealogy>  (18) 
[NH-]C(=O)c1cc2ccc(-c3ccc(OC(F)(F)F)cc3)cc2n1C(N)=O (protonated)
[NH-]C(=O)c1cc2ccc(-c3ccc(OC(F)(F)F)cc3)cc2n1C(N)=O (3D coordinates assigned)
[NH-]C(=O)c1cc2ccc(-c3ccc(OC(F)(F)F)cc3)cc2n1C(N)=O (optimized conformer: 83.69405941675868 kcal/mol)

>  <smiles>  (18) 
NC(=O)c1cc2ccc(-c3ccc(OC(F)(F)F)cc3)cc2n1C(N)=O

>  <score_type>  (18) 
oracle

>  <origin>  (18) 
adg

>  <m_score__min__energy>  (18) 
-7.79

>  <m_primary>  (18) 
energy

$$$$
19:0
     RDKit          3D

 73 77  0  0  0  0  0  0  0  0999 V2000
  141.4990  156.9110  138.4400 C   0  0  0  0  0  0  0  0  0  0  0  0
  142.2110  157.2110  139.7530 C   0  0  0  0  0  0  0  0  0  0  0  0
  141.8100  156.2910  140.7660 O   0  0  0  0  0  0  0  0  0  0  0  0
  142.4060  155.0350  140.9460 C   0  0  0  0  0  0  0  0  0  0  0  0
  143.6390  154.9380  141.1880 O   0  0  0  0  0  0  0  0  0  0  0  0
  141.5710  153.7900  140.8210 C   0  0  2  0  0  0  0  0  0  0  0  0
  142.3800  152.6860  140.1010 C   0  0  0  0  0  0  0  0  0  0  0  0
  141.4540  151.5900  139.5660 C   0  0  0  0  0  0  0  0  0  0  0  0
  140.4420  152.1290  138.5240 C   0  0  2  0  0  0  0  0  0  0  0  0
  140.9280  151.8420  137.2090 O   0  0  0  0  0  0  0  0  0  0  0  0
  141.9080  152.5720  136.5180 C   0  0  0  0  0  0  0  0  0  0  0  0
  142.1380  152.4250  135.1380 C   0  0  0  0  0  0  0  0  0  0  0  0
  143.1600  153.1530  134.5290 C   0  0  0  0  0  0  0  0  0  0  0  0
  143.9610  154.0260  135.2810 C   0  0  0  0  0  0  0  0  0  0  0  0
  145.0960  154.7540  134.6520 C   0  0  0  0  0  0  0  0  0  0  0  0
  146.2920  154.0620  134.3160 C   0  0  0  0  0  0  0  0  0  0  0  0
  147.3820  154.7390  133.7470 C   0  0  0  0  0  0  0  0  0  0  0  0
  147.2570  156.1050  133.5220 C   0  0  0  0  0  0  0  0  0  0  0  0
  148.1710  157.0060  133.0250 C   0  0  0  0  0  0  0  0  0  0  0  0
  147.5240  158.2430  133.0510 C   0  0  0  0  0  0  0  0  0  0  0  0
  148.1190  159.5190  132.5850 C   0  0  0  0  0  0  0  0  0  0  0  0
  147.3370  160.4850  131.8760 N   0  0  0  0  0  0  0  0  0  0  0  0
  149.3320  159.7680  132.8080 O   0  0  0  0  0  0  0  0  0  0  0  0
  146.2590  158.1010  133.5400 N   0  0  0  0  0  0  0  0  0  0  0  0
  145.3000  159.1470  133.7760 C   0  0  0  0  0  0  0  0  0  0  0  0
  145.6880  160.3470  133.7410 O   0  0  0  0  0  0  0  0  0  0  0  0
  143.8570  158.8250  134.1160 C   0  0  0  0  0  0  0  0  0  0  0  0
  143.1600  158.0390  132.9720 C   0  0  0  0  0  0  0  0  0  0  0  0
  141.6240  158.1740  132.9700 C   0  0  0  0  0  0  0  0  0  0  0  0
  141.0710  158.4560  134.3700 C   0  0  0  0  0  0  0  0  0  0  0  0
  141.6340  159.7680  134.9510 C   0  0  0  0  0  0  0  0  0  0  0  0
  143.0560  160.1010  134.4550 C   0  0  0  0  0  0  0  0  0  0  0  0
  146.1110  156.7900  133.8270 C   0  0  0  0  0  0  0  0  0  0  0  0
  145.0120  156.1470  134.4040 C   0  0  0  0  0  0  0  0  0  0  0  0
  143.6800  154.1630  136.6530 C   0  0  0  0  0  0  0  0  0  0  0  0
  142.6810  153.4410  137.2250 N   0  0  0  0  0  0  0  0  0  0  0  0
  140.1840  153.6480  138.6660 C   0  0  0  0  0  0  0  0  0  0  0  0
  140.2120  154.0920  140.1340 C   0  0  0  0  0  0  0  0  0  0  0  0
  140.5039  156.4917  138.6500 H   0  0  0  0  0  0  0  0  0  0  0  0
  141.3907  157.8400  137.8610 H   0  0  0  0  0  0  0  0  0  0  0  0
  142.0882  156.1846  137.8610 H   0  0  0  0  0  0  0  0  0  0  0  0
  143.2975  157.1299  139.6012 H   0  0  0  0  0  0  0  0  0  0  0  0
  141.9453  158.2288  140.0746 H   0  0  0  0  0  0  0  0  0  0  0  0
  141.3242  153.4147  141.8251 H   0  0  0  0  0  0  0  0  0  0  0  0
  142.9312  153.1335  139.2608 H   0  0  0  0  0  0  0  0  0  0  0  0
  143.0778  152.2352  140.8220 H   0  0  0  0  0  0  0  0  0  0  0  0
  142.0673  150.8095  139.0920 H   0  0  0  0  0  0  0  0  0  0  0  0
  140.8804  151.1910  140.4156 H   0  0  0  0  0  0  0  0  0  0  0  0
  139.4810  151.6249  138.7039 H   0  0  0  0  0  0  0  0  0  0  0  0
  141.5158  151.7403  134.5430 H   0  0  0  0  0  0  0  0  0  0  0  0
  143.3398  153.0418  133.4495 H   0  0  0  0  0  0  0  0  0  0  0  0
  146.3640  152.9807  134.5047 H   0  0  0  0  0  0  0  0  0  0  0  0
  148.3076  154.2045  133.4869 H   0  0  0  0  0  0  0  0  0  0  0  0
  149.1943  156.7961  132.6803 H   0  0  0  0  0  0  0  0  0  0  0  0
  146.3220  160.3440  131.6850 H   0  0  0  0  0  0  0  0  0  0  0  0
  147.7930  161.3520  131.5150 H   0  0  0  0  0  0  0  0  0  0  0  0
  143.8766  158.1833  135.0092 H   0  0  0  0  0  0  0  0  0  0  0  0
  143.5423  158.4135  132.0110 H   0  0  0  0  0  0  0  0  0  0  0  0
  143.3878  156.9745  133.1297 H   0  0  0  0  0  0  0  0  0  0  0  0
  141.3411  159.0017  132.3031 H   0  0  0  0  0  0  0  0  0  0  0  0
  141.1996  157.2204  132.6228 H   0  0  0  0  0  0  0  0  0  0  0  0
  139.9752  158.5330  134.3117 H   0  0  0  0  0  0  0  0  0  0  0  0
  141.3732  157.6304  135.0311 H   0  0  0  0  0  0  0  0  0  0  0  0
  140.9636  160.5916  134.6642 H   0  0  0  0  0  0  0  0  0  0  0  0
  141.6940  159.6390  136.0418 H   0  0  0  0  0  0  0  0  0  0  0  0
  142.9815  160.7253  133.5524 H   0  0  0  0  0  0  0  0  0  0  0  0
  143.5838  160.6330  135.2602 H   0  0  0  0  0  0  0  0  0  0  0  0
  144.1021  156.7097  134.6599 H   0  0  0  0  0  0  0  0  0  0  0  0
  144.2723  154.8584  137.2659 H   0  0  0  0  0  0  0  0  0  0  0  0
  140.9616  154.1952  138.1129 H   0  0  0  0  0  0  0  0  0  0  0  0
  139.1852  153.8662  138.2601 H   0  0  0  0  0  0  0  0  0  0  0  0
  140.0275  155.1755  140.1783 H   0  0  0  0  0  0  0  0  0  0  0  0
  139.4344  153.5269  140.6688 H   0  0  0  0  0  0  0  0  0  0  0  0
  1  2  1  0
  2  3  1  0
  3  4  1  0
  4  5  2  0
  4  6  1  0
  6  7  1  0
  7  8  1  0
  8  9  1  0
  9 10  1  0
 10 11  1  0
 11 12  2  0
 12 13  1  0
 13 14  2  0
 14 15  1  0
 15 16  2  0
 16 17  1  0
 17 18  2  0
 18 19  1  0
 19 20  2  0
 20 21  1  0
 21 22  1  0
 21 23  2  0
 20 24  1  0
 24 25  1  0
 25 26  2  0
 25 27  1  0
 27 28  1  0
 28 29  1  0
 29 30  1  0
 30 31  1  0
 31 32  1  0
 24 33  1  0
 33 34  2  0
 14 35  1  0
 35 36  2  0
  9 37  1  0
 37 38  1  0
 38  6  1  0
 36 11  1  0
 34 15  1  0
 33 18  1  0
 32 27  1  0
  1 39  1  0
  1 40  1  0
  1 41  1  0
  2 42  1  0
  2 43  1  0
  6 44  1  1
  7 45  1  0
  7 46  1  0
  8 47  1  0
  8 48  1  0
  9 49  1  1
 12 50  1  0
 13 51  1  0
 16 52  1  0
 17 53  1  0
 19 54  1  0
 22 55  1  0
 22 56  1  0
 27 57  1  0
 28 58  1  0
 28 59  1  0
 29 60  1  0
 29 61  1  0
 30 62  1  0
 30 63  1  0
 31 64  1  0
 31 65  1  0
 32 66  1  0
 32 67  1  0
 34 68  1  0
 35 69  1  0
 37 70  1  0
 37 71  1  0
 38 72  1  0
 38 73  1  0
M  END
>  <UniqueID>  (19) 
19

>  <SMILES>  (19) 
CCOC(=O)C1CCC(Oc2ccc(-c3ccc4cc(C(N)=O)n(C(=O)C5CCCCC5)c4c3)cn2)CC1

>  <Energy>  (19) 
124.0060956938418

>  <Genealogy>  (19) 
CCOC(=O)C1CCC(Oc2ccc(-c3ccc4cc(C(N)=O)n(C(=O)C5CCCCC5)c4c3)cn2)CC1 (3D coordinates assigned)
CCOC(=O)C1CCC(Oc2ccc(-c3ccc4cc(C(N)=O)n(C(=O)C5CCCCC5)c4c3)cn2)CC1 (nonaromatic ring conformer: 124.0060956938418 kcal/mol)

>  <smiles>  (19) 
CCOC(=O)C1CCC(Oc2ccc(-c3ccc4cc(C(N)=O)n(C(=O)C5CCCCC5)c4c3)cn2)CC1

>  <score_type>  (19) 
oracle

>  <origin>  (19) 
adg

>  <m_score__min__energy>  (19) 
-11.91

>  <m_primary>  (19) 
energy

$$$$
20:0
     RDKit          3D

 40 42  0  0  0  0  0  0  0  0999 V2000
  139.8580  150.9170  132.2930 N   0  0  0  0  0  0  0  0  0  0  0  0
  140.9250  150.8110  133.2330 C   0  0  0  0  0  0  0  0  0  0  0  0
  140.7840  150.0750  134.2460 O   0  0  0  0  0  0  0  0  0  0  0  0
  142.1650  151.5950  133.0650 C   0  0  0  0  0  0  0  0  0  0  0  0
  143.4030  151.0200  132.7830 C   0  0  0  0  0  0  0  0  0  0  0  0
  144.3020  152.0600  132.8010 C   0  0  0  0  0  0  0  0  0  0  0  0
  145.6750  152.0610  132.5760 C   0  0  0  0  0  0  0  0  0  0  0  0
  146.3510  153.2910  132.6300 C   0  0  0  0  0  0  0  0  0  0  0  0
  145.6490  154.4960  132.9010 C   0  0  0  0  0  0  0  0  0  0  0  0
  146.3730  155.7920  132.9450 C   0  0  0  0  0  0  0  0  0  0  0  0
  147.7320  155.8650  132.5890 C   0  0  0  0  0  0  0  0  0  0  0  0
  148.4100  157.0870  132.6300 C   0  0  0  0  0  0  0  0  0  0  0  0
  147.7500  158.2550  133.0250 C   0  0  0  0  0  0  0  0  0  0  0  0
  148.4770  159.4550  133.0480 O   0  0  0  0  0  0  0  0  0  0  0  0
  149.6010  159.7320  132.2170 C   0  0  0  0  0  0  0  0  0  0  0  0
  149.1250  160.3140  130.9260 C   0  0  0  0  0  0  0  0  0  0  0  0
  147.8000  160.8320  130.8150 N   0  0  0  0  0  0  0  0  0  0  0  0
  149.8840  160.3140  129.9210 O   0  0  0  0  0  0  0  0  0  0  0  0
  146.3910  158.1880  133.3820 C   0  0  0  0  0  0  0  0  0  0  0  0
  145.7100  156.9670  133.3410 C   0  0  0  0  0  0  0  0  0  0  0  0
  144.2530  154.4500  133.1240 C   0  0  0  0  0  0  0  0  0  0  0  0
  143.6090  153.2080  133.0800 C   0  0  0  0  0  0  0  0  0  0  0  0
  142.2930  152.9410  133.2410 N   0  0  0  0  0  0  0  0  0  0  0  0
  141.2500  153.9040  133.4530 C   0  0  0  0  0  0  0  0  0  0  0  0
  139.9870  153.7480  132.8110 N   0  0  0  0  0  0  0  0  0  0  0  0
  141.4570  154.9110  134.1820 O   0  0  0  0  0  0  0  0  0  0  0  0
  139.6280  151.8300  131.8440 H   0  0  0  0  0  0  0  0  0  0  0  0
  143.6157  149.9586  132.5874 H   0  0  0  0  0  0  0  0  0  0  0  0
  146.2148  151.1267  132.3623 H   0  0  0  0  0  0  0  0  0  0  0  0
  147.4374  153.3217  132.4604 H   0  0  0  0  0  0  0  0  0  0  0  0
  148.2646  154.9548  132.2764 H   0  0  0  0  0  0  0  0  0  0  0  0
  149.4726  157.1302  132.3489 H   0  0  0  0  0  0  0  0  0  0  0  0
  150.2641  160.4498  132.7220 H   0  0  0  0  0  0  0  0  0  0  0  0
  150.1546  158.8018  132.0215 H   0  0  0  0  0  0  0  0  0  0  0  0
  147.4630  161.2270  129.9090 H   0  0  0  0  0  0  0  0  0  0  0  0
  147.1530  160.8170  131.6340 H   0  0  0  0  0  0  0  0  0  0  0  0
  145.8615  159.1000  133.6948 H   0  0  0  0  0  0  0  0  0  0  0  0
  144.6470  156.9256  133.6209 H   0  0  0  0  0  0  0  0  0  0  0  0
  143.6858  155.3702  133.3276 H   0  0  0  0  0  0  0  0  0  0  0  0
  139.8600  153.0620  132.0350 H   0  0  0  0  0  0  0  0  0  0  0  0
  1  2  1  0
  2  3  2  0
  2  4  1  0
  4  5  2  0
  5  6  1  0
  6  7  2  0
  7  8  1  0
  8  9  2  0
  9 10  1  0
 10 11  2  0
 11 12  1  0
 12 13  2  0
 13 14  1  0
 14 15  1  0
 15 16  1  0
 16 17  1  0
 16 18  2  0
 13 19  1  0
 19 20  2  0
  9 21  1  0
 21 22  2  0
 22 23  1  0
 23 24  1  0
 24 25  1  0
 24 26  2  0
 23  4  1  0
 22  6  1  0
 20 10  1  0
  1 27  1  0
  5 28  1  0
  7 29  1  0
  8 30  1  0
 11 31  1  0
 12 32  1  0
 15 33  1  0
 15 34  1  0
 17 35  1  0
 17 36  1  0
 19 37  1  0
 20 38  1  0
 21 39  1  0
 25 40  1  0
M  CHG  2   1  -1  25  -1
M  END
>  <UniqueID>  (20) 
20

>  <SMILES>  (20) 
[NH-]C(=O)c1cc2ccc(-c3ccc(OCC(N)=O)cc3)cc2n1C([NH-])=O

>  <Energy>  (20) 
84.17706692100587

>  <Genealogy>  (20) 
[NH-]C(=O)c1cc2ccc(-c3ccc(OCC(N)=O)cc3)cc2n1C([NH-])=O (protonated)
[NH-]C(=O)c1cc2ccc(-c3ccc(OCC(N)=O)cc3)cc2n1C([NH-])=O (3D coordinates assigned)
[NH-]C(=O)c1cc2ccc(-c3ccc(OCC(N)=O)cc3)cc2n1C([NH-])=O (optimized conformer: 84.17706692100587 kcal/mol)

>  <smiles>  (20) 
NC(=O)COc1ccc(-c2ccc3cc(C(N)=O)n(C(N)=O)c3c2)cc1

>  <score_type>  (20) 
oracle

>  <origin>  (20) 
adg

>  <m_score__min__energy>  (20) 
-8.1500000000000004

>  <m_primary>  (20) 
energy

$$$$
21:0
     RDKit          3D

 51 53  0  0  0  0  0  0  0  0999 V2000
  138.3860  158.5590  132.6840 C   0  0  0  0  0  0  0  0  0  0  0  0
  139.8510  158.8110  132.2840 C   0  0  0  0  0  0  0  0  0  0  0  0
  139.9250  159.0090  130.7620 C   0  0  0  0  0  0  0  0  0  0  0  0
  140.3970  160.0750  132.9760 C   0  0  0  0  0  0  0  0  0  0  0  0
  140.6660  157.6740  132.6010 O   0  0  0  0  0  0  0  0  0  0  0  0
  141.8620  157.6850  133.3340 C   0  0  0  0  0  0  0  0  0  0  0  0
  142.9010  158.2250  132.8690 O   0  0  0  0  0  0  0  0  0  0  0  0
  141.9050  157.0420  134.6180 N   0  0  0  0  0  0  0  0  0  0  0  0
  141.2410  157.3920  135.7560 C   0  0  0  0  0  0  0  0  0  0  0  0
  140.2030  158.4390  135.8680 C   0  0  0  0  0  0  0  0  0  0  0  0
  140.5630  159.7520  136.2910 N   0  0  0  0  0  0  0  0  0  0  0  0
  138.9950  158.1770  135.6320 O   0  0  0  0  0  0  0  0  0  0  0  0
  141.6130  156.5640  136.8120 C   0  0  0  0  0  0  0  0  0  0  0  0
  142.5260  155.6820  136.2810 C   0  0  0  0  0  0  0  0  0  0  0  0
  143.2310  154.6460  136.8900 C   0  0  0  0  0  0  0  0  0  0  0  0
  144.1380  153.9160  136.1030 C   0  0  0  0  0  0  0  0  0  0  0  0
  144.3290  154.2420  134.7380 C   0  0  0  0  0  0  0  0  0  0  0  0
  145.2870  153.4750  133.9190 C   0  0  0  0  0  0  0  0  0  0  0  0
  144.7700  152.5750  132.9770 C   0  0  0  0  0  0  0  0  0  0  0  0
  145.6240  151.8480  132.1520 C   0  0  0  0  0  0  0  0  0  0  0  0
  147.0030  152.0080  132.2590 C   0  0  0  0  0  0  0  0  0  0  0  0
  147.5510  152.8960  133.1960 C   0  0  0  0  0  0  0  0  0  0  0  0
  148.9770  153.0170  133.2770 N   0  0  0  0  0  0  0  0  0  0  0  0
  149.5540  153.9540  132.6880 O   0  0  0  0  0  0  0  0  0  0  0  0
  149.7250  151.9540  133.7280 O   0  0  0  0  0  0  0  0  0  0  0  0
  146.6920  153.6520  134.0390 C   0  0  0  0  0  0  0  0  0  0  0  0
  147.2520  154.7420  134.9360 C   0  0  0  0  0  0  0  0  0  0  0  0
  147.6080  154.1820  136.2780 C   0  0  0  0  0  0  0  0  0  0  0  0
  148.4600  154.7640  137.0000 O   0  0  0  0  0  0  0  0  0  0  0  0
  146.9920  153.0260  136.7380 O   0  0  0  0  0  0  0  0  0  0  0  0
  143.5910  155.2910  134.1520 C   0  0  0  0  0  0  0  0  0  0  0  0
  142.6840  155.9910  134.9550 C   0  0  0  0  0  0  0  0  0  0  0  0
  138.3026  158.5447  133.7807 H   0  0  0  0  0  0  0  0  0  0  0  0
  137.7520  159.3613  132.2786 H   0  0  0  0  0  0  0  0  0  0  0  0
  138.0565  157.5910  132.2786 H   0  0  0  0  0  0  0  0  0  0  0  0
  140.3023  160.0185  130.5415 H   0  0  0  0  0  0  0  0  0  0  0  0
  140.6041  158.2607  130.3275 H   0  0  0  0  0  0  0  0  0  0  0  0
  138.9215  158.8896  130.3275 H   0  0  0  0  0  0  0  0  0  0  0  0
  140.3422  159.9482  134.0673 H   0  0  0  0  0  0  0  0  0  0  0  0
  141.4438  160.2334  132.6773 H   0  0  0  0  0  0  0  0  0  0  0  0
  139.7948  160.9457  132.6773 H   0  0  0  0  0  0  0  0  0  0  0  0
  139.9060  160.3330  136.8570 H   0  0  0  0  0  0  0  0  0  0  0  0
  141.2532  156.6061  137.8506 H   0  0  0  0  0  0  0  0  0  0  0  0
  143.0823  154.4070  137.9534 H   0  0  0  0  0  0  0  0  0  0  0  0
  144.7037  153.0854  136.5503 H   0  0  0  0  0  0  0  0  0  0  0  0
  143.6816  152.4421  132.8889 H   0  0  0  0  0  0  0  0  0  0  0  0
  145.2085  151.1459  131.4142 H   0  0  0  0  0  0  0  0  0  0  0  0
  147.6701  151.4314  131.6013 H   0  0  0  0  0  0  0  0  0  0  0  0
  148.1531  155.1674  134.4701 H   0  0  0  0  0  0  0  0  0  0  0  0
  146.4891  155.5236  135.0665 H   0  0  0  0  0  0  0  0  0  0  0  0
  143.7248  155.5520  133.0918 H   0  0  0  0  0  0  0  0  0  0  0  0
  1  2  1  0
  2  3  1  0
  2  4  1  0
  2  5  1  0
  5  6  1  0
  6  7  2  0
  6  8  1  0
  8  9  1  0
  9 10  1  0
 10 11  1  0
 10 12  2  0
  9 13  2  0
 13 14  1  0
 14 15  2  0
 15 16  1  0
 16 17  2  0
 17 18  1  0
 18 19  2  0
 19 20  1  0
 20 21  2  0
 21 22  1  0
 22 23  1  0
 23 24  2  0
 23 25  1  0
 22 26  2  0
 26 27  1  0
 27 28  1  0
 28 29  2  0
 28 30  1  0
 17 31  1  0
 31 32  2  0
 32  8  1  0
 32 14  1  0
 26 18  1  0
  1 33  1  0
  1 34  1  0
  1 35  1  0
  3 36  1  0
  3 37  1  0
  3 38  1  0
  4 39  1  0
  4 40  1  0
  4 41  1  0
 11 42  1  0
 13 43  1  0
 15 44  1  0
 16 45  1  0
 19 46  1  0
 20 47  1  0
 21 48  1  0
 27 49  1  0
 27 50  1  0
 31 51  1  0
M  CHG  4  11  -1  23   1  25  -1  30  -1
M  END
>  <UniqueID>  (21) 
21

>  <SMILES>  (21) 
CC(C)(C)OC(=O)n1c(C([NH-])=O)cc2ccc(-c3cccc([N+](=O)[O-])c3CC(=O)[O-])cc21

>  <Energy>  (21) 
101.20059141498217

>  <Genealogy>  (21) 
CC(C)(C)OC(=O)n1c(C([NH-])=O)cc2ccc(-c3cccc([N+](=O)[O-])c3CC(=O)[O-])cc21 (protonated)
CC(C)(C)OC(=O)n1c(C([NH-])=O)cc2ccc(-c3cccc([N+](=O)[O-])c3CC(=O)[O-])cc21 (3D coordinates assigned)
CC(C)(C)OC(=O)n1c(C([NH-])=O)cc2ccc(-c3cccc([N+](=O)[O-])c3CC(=O)[O-])cc21 (optimized conformer: 101.20059141498217 kcal/mol)

>  <smiles>  (21) 
CC(C)(C)OC(=O)n1c(C(N)=O)cc2ccc(-c3cccc([N+](=O)[O-])c3CC(=O)O)cc21

>  <score_type>  (21) 
oracle

>  <origin>  (21) 
adg

>  <m_score__min__energy>  (21) 
-9.0399999999999991

>  <m_primary>  (21) 
energy

$$$$
22:0
     RDKit          3D

 32 34  0  0  0  0  0  0  0  0999 V2000
  149.6190  157.7440  132.0350 N   0  0  0  0  0  0  0  0  0  0  0  0
  149.1150  159.0430  132.3350 C   0  0  0  0  0  0  0  0  0  0  0  0
  149.8430  160.0500  132.1280 O   0  0  0  0  0  0  0  0  0  0  0  0
  147.7340  159.2270  132.8280 C   0  0  0  0  0  0  0  0  0  0  0  0
  147.1570  160.4770  133.0380 C   0  0  0  0  0  0  0  0  0  0  0  0
  145.8550  160.2220  133.4000 C   0  0  0  0  0  0  0  0  0  0  0  0
  144.8270  161.1030  133.7250 C   0  0  0  0  0  0  0  0  0  0  0  0
  143.5830  160.5580  134.0850 C   0  0  0  0  0  0  0  0  0  0  0  0
  143.3940  159.1590  134.1340 C   0  0  0  0  0  0  0  0  0  0  0  0
  142.1320  158.6670  134.4970 O   0  0  0  0  0  0  0  0  0  0  0  0
  141.0090  158.6130  133.6580 C   0  0  0  0  0  0  0  0  0  0  0  0
  140.2500  157.4380  133.5060 C   0  0  0  0  0  0  0  0  0  0  0  0
  139.1270  157.4300  132.6720 C   0  0  0  0  0  0  0  0  0  0  0  0
  138.7460  158.5930  131.9970 C   0  0  0  0  0  0  0  0  0  0  0  0
  139.4840  159.7680  132.1610 C   0  0  0  0  0  0  0  0  0  0  0  0
  139.1090  160.9000  131.5130 F   0  0  0  0  0  0  0  0  0  0  0  0
  140.6080  159.7800  132.9940 C   0  0  0  0  0  0  0  0  0  0  0  0
  144.4560  158.2940  133.7780 C   0  0  0  0  0  0  0  0  0  0  0  0
  145.6810  158.8620  133.4060 C   0  0  0  0  0  0  0  0  0  0  0  0
  146.8270  158.2360  133.0600 N   0  0  0  0  0  0  0  0  0  0  0  0
  147.0550  156.8170  133.0490 C   0  0  0  0  0  0  0  0  0  0  0  0
  147.1190  156.1920  131.9580 O   0  0  0  0  0  0  0  0  0  0  0  0
  147.1810  156.1190  134.2430 O   0  0  0  0  0  0  0  0  0  0  0  0
  149.0510  157.0620  131.4850 H   0  0  0  0  0  0  0  0  0  0  0  0
  147.6402  161.4599  132.9359 H   0  0  0  0  0  0  0  0  0  0  0  0
  144.9838  162.1915  133.7007 H   0  0  0  0  0  0  0  0  0  0  0  0
  142.7466  161.2285  134.3315 H   0  0  0  0  0  0  0  0  0  0  0  0
  140.5404  156.5237  134.0442 H   0  0  0  0  0  0  0  0  0  0  0  0
  138.5426  156.5065  132.5472 H   0  0  0  0  0  0  0  0  0  0  0  0
  137.8659  158.5833  131.3372 H   0  0  0  0  0  0  0  0  0  0  0  0
  141.1797  160.7101  133.1284 H   0  0  0  0  0  0  0  0  0  0  0  0
  144.3226  157.2022  133.7931 H   0  0  0  0  0  0  0  0  0  0  0  0
  1  2  1  0
  2  3  2  0
  2  4  1  0
  4  5  2  0
  5  6  1  0
  6  7  2  0
  7  8  1  0
  8  9  2  0
  9 10  1  0
 10 11  1  0
 11 12  2  0
 12 13  1  0
 13 14  2  0
 14 15  1  0
 15 16  1  0
 15 17  2  0
  9 18  1  0
 18 19  2  0
 19 20  1  0
 20 21  1  0
 21 22  2  0
 21 23  1  0
 20  4  1  0
 19  6  1  0
 17 11  1  0
  1 24  1  0
  5 25  1  0
  7 26  1  0
  8 27  1  0
 12 28  1  0
 13 29  1  0
 14 30  1  0
 17 31  1  0
 18 32  1  0
M  CHG  2   1  -1  23  -1
M  END
>  <UniqueID>  (22) 
22

>  <SMILES>  (22) 
[NH-]C(=O)c1cc2ccc(Oc3cccc(F)c3)cc2n1C(=O)[O-]

>  <Energy>  (22) 
81.34784912145886

>  <Genealogy>  (22) 
[NH-]C(=O)c1cc2ccc(Oc3cccc(F)c3)cc2n1C(=O)[O-] (protonated)
[NH-]C(=O)c1cc2ccc(Oc3cccc(F)c3)cc2n1C(=O)[O-] (3D coordinates assigned)
[NH-]C(=O)c1cc2ccc(Oc3cccc(F)c3)cc2n1C(=O)[O-] (optimized conformer: 81.34784912145886 kcal/mol)

>  <smiles>  (22) 
NC(=O)c1cc2ccc(Oc3cccc(F)c3)cc2n1C(=O)O

>  <score_type>  (22) 
oracle

>  <origin>  (22) 
adg

>  <m_score__min__energy>  (22) 
-7.2300000000000004

>  <m_primary>  (22) 
energy

$$$$
23:0
     RDKit          3D

 64 66  0  0  0  0  0  0  0  0999 V2000
  139.3160  149.2780  129.8860 C   0  0  0  0  0  0  0  0  0  0  0  0
  139.5090  148.6450  131.2560 C   0  0  0  0  0  0  0  0  0  0  0  0
  140.0880  149.5930  132.1430 O   0  0  0  0  0  0  0  0  0  0  0  0
  141.4590  149.8700  132.1640 C   0  0  0  0  0  0  0  0  0  0  0  0
  142.2610  149.1390  131.5160 O   0  0  0  0  0  0  0  0  0  0  0  0
  141.9500  150.9880  132.9260 N   0  0  0  0  0  0  0  0  0  0  0  0
  141.0200  151.7660  133.7520 C   0  0  0  0  0  0  0  0  0  0  0  0
  141.7870  152.6530  134.7420 C   0  0  0  0  0  0  0  0  0  0  0  0
  142.7970  153.5140  134.0760 N   0  0  0  0  0  0  0  0  0  0  0  0
  142.2180  154.8110  133.6620 C   0  0  0  0  0  0  0  0  0  0  0  0
  142.4470  155.8860  134.7340 C   0  0  0  0  0  0  0  0  0  0  0  0
  143.3320  156.9780  134.1960 C   0  0  0  0  0  0  0  0  0  0  0  0
  142.7700  158.2270  133.8390 C   0  0  0  0  0  0  0  0  0  0  0  0
  143.5820  159.2690  133.3650 C   0  0  0  0  0  0  0  0  0  0  0  0
  144.9510  159.0380  133.2760 C   0  0  0  0  0  0  0  0  0  0  0  0
  145.9500  159.8800  132.8600 C   0  0  0  0  0  0  0  0  0  0  0  0
  147.1230  159.1440  132.9770 C   0  0  0  0  0  0  0  0  0  0  0  0
  148.4350  159.6720  132.5610 C   0  0  0  0  0  0  0  0  0  0  0  0
  149.6320  158.9710  132.8950 N   0  0  0  0  0  0  0  0  0  0  0  0
  148.5080  160.7700  131.9480 O   0  0  0  0  0  0  0  0  0  0  0  0
  146.8740  157.8950  133.4740 N   0  0  0  0  0  0  0  0  0  0  0  0
  147.8520  156.9130  133.8880 C   0  0  0  0  0  0  0  0  0  0  0  0
  148.4770  157.0590  134.9720 O   0  0  0  0  0  0  0  0  0  0  0  0
  148.1430  155.8200  133.0560 O   0  0  0  0  0  0  0  0  0  0  0  0
  147.7670  154.4510  133.2690 C   0  0  0  0  0  0  0  0  0  0  0  0
  146.4090  154.1470  132.6040 C   0  0  0  0  0  0  0  0  0  0  0  0
  148.8510  153.5810  132.6080 C   0  0  0  0  0  0  0  0  0  0  0  0
  147.7180  154.1400  134.7790 C   0  0  0  0  0  0  0  0  0  0  0  0
  145.5260  157.8440  133.6400 C   0  0  0  0  0  0  0  0  0  0  0  0
  144.7280  156.7820  134.1050 C   0  0  0  0  0  0  0  0  0  0  0  0
  143.5330  152.8500  132.9620 C   0  0  0  0  0  0  0  0  0  0  0  0
  143.3760  151.3240  132.9450 C   0  0  0  0  0  0  0  0  0  0  0  0
  138.9971  150.3238  130.0069 H   0  0  0  0  0  0  0  0  0  0  0  0
  140.2648  149.2459  129.3303 H   0  0  0  0  0  0  0  0  0  0  0  0
  138.5466  148.7220  129.3303 H   0  0  0  0  0  0  0  0  0  0  0  0
  138.5342  148.3224  131.6506 H   0  0  0  0  0  0  0  0  0  0  0  0
  140.1762  147.7752  131.1653 H   0  0  0  0  0  0  0  0  0  0  0  0
  140.4031  152.4020  133.1001 H   0  0  0  0  0  0  0  0  0  0  0  0
  140.3836  151.0708  134.3191 H   0  0  0  0  0  0  0  0  0  0  0  0
  141.0672  153.2973  135.2680 H   0  0  0  0  0  0  0  0  0  0  0  0
  142.3223  151.9894  135.4370 H   0  0  0  0  0  0  0  0  0  0  0  0
  142.6925  155.1330  132.7233 H   0  0  0  0  0  0  0  0  0  0  0  0
  141.1345  154.6815  133.5230 H   0  0  0  0  0  0  0  0  0  0  0  0
  141.4787  156.3160  135.0297 H   0  0  0  0  0  0  0  0  0  0  0  0
  142.9357  155.4251  135.6051 H   0  0  0  0  0  0  0  0  0  0  0  0
  141.6852  158.3827  133.9341 H   0  0  0  0  0  0  0  0  0  0  0  0
  143.1497  160.2375  133.0732 H   0  0  0  0  0  0  0  0  0  0  0  0
  145.8453  160.9171  132.5085 H   0  0  0  0  0  0  0  0  0  0  0  0
  150.5600  159.3410  132.5900 H   0  0  0  0  0  0  0  0  0  0  0  0
  149.5930  158.0550  133.3950 H   0  0  0  0  0  0  0  0  0  0  0  0
  145.6498  153.9771  133.3817 H   0  0  0  0  0  0  0  0  0  0  0  0
  146.1081  155.0000  131.9780 H   0  0  0  0  0  0  0  0  0  0  0  0
  146.5005  153.2471  131.9780 H   0  0  0  0  0  0  0  0  0  0  0  0
  149.4566  153.0949  133.3871 H   0  0  0  0  0  0  0  0  0  0  0  0
  148.3734  152.8127  131.9822 H   0  0  0  0  0  0  0  0  0  0  0  0
  149.4977  154.2136  131.9822 H   0  0  0  0  0  0  0  0  0  0  0  0
  147.8644  155.0690  135.3496 H   0  0  0  0  0  0  0  0  0  0  0  0
  146.7402  153.7044  135.0321 H   0  0  0  0  0  0  0  0  0  0  0  0
  148.5146  153.4249  135.0321 H   0  0  0  0  0  0  0  0  0  0  0  0
  145.1810  155.8213  134.3910 H   0  0  0  0  0  0  0  0  0  0  0  0
  143.1551  153.2490  132.0091 H   0  0  0  0  0  0  0  0  0  0  0  0
  144.6021  153.0624  133.1102 H   0  0  0  0  0  0  0  0  0  0  0  0
  143.8629  150.9138  132.0480 H   0  0  0  0  0  0  0  0  0  0  0  0
  143.8458  150.8935  133.8416 H   0  0  0  0  0  0  0  0  0  0  0  0
  1  2  1  0
  2  3  1  0
  3  4  1  0
  4  5  2  0
  4  6  1  0
  6  7  1  0
  7  8  1  0
  8  9  1  0
  9 10  1  0
 10 11  1  0
 11 12  1  0
 12 13  2  0
 13 14  1  0
 14 15  2  0
 15 16  1  0
 16 17  2  0
 17 18  1  0
 18 19  1  0
 18 20  2  0
 17 21  1  0
 21 22  1  0
 22 23  2  0
 22 24  1  0
 24 25  1  0
 25 26  1  0
 25 27  1  0
 25 28  1  0
 21 29  1  0
 29 30  2  0
  9 31  1  0
 31 32  1  0
 32  6  1  0
 30 12  1  0
 29 15  1  0
  1 33  1  0
  1 34  1  0
  1 35  1  0
  2 36  1  0
  2 37  1  0
  7 38  1  0
  7 39  1  0
  8 40  1  0
  8 41  1  0
 10 42  1  0
 10 43  1  0
 11 44  1  0
 11 45  1  0
 13 46  1  0
 14 47  1  0
 16 48  1  0
 19 49  1  0
 19 50  1  0
 26 51  1  0
 26 52  1  0
 26 53  1  0
 27 54  1  0
 27 55  1  0
 27 56  1  0
 28 57  1  0
 28 58  1  0
 28 59  1  0
 30 60  1  0
 31 61  1  0
 31 62  1  0
 32 63  1  0
 32 64  1  0
M  END
>  <UniqueID>  (23) 
23

>  <SMILES>  (23) 
CCOC(=O)N1CCN(CCc2ccc3cc(C(N)=O)n(C(=O)OC(C)(C)C)c3c2)CC1

>  <Energy>  (23) 
101.01090120285767

>  <Genealogy>  (23) 
CCOC(=O)N1CCN(CCc2ccc3cc(C(N)=O)n(C(=O)OC(C)(C)C)c3c2)CC1 (3D coordinates assigned)
CCOC(=O)N1CCN(CCc2ccc3cc(C(N)=O)n(C(=O)OC(C)(C)C)c3c2)CC1 (nonaromatic ring conformer: 101.01090120285767 kcal/mol)

>  <smiles>  (23) 
CCOC(=O)N1CCN(CCc2ccc3cc(C(N)=O)n(C(=O)OC(C)(C)C)c3c2)CC1

>  <score_type>  (23) 
oracle

>  <origin>  (23) 
adg

>  <m_score__min__energy>  (23) 
-9.0099999999999998

>  <m_primary>  (23) 
energy

$$$$
24:0
     RDKit          3D

 35 37  0  0  0  0  0  0  0  0999 V2000
  141.5880  150.5570  132.8050 C   0  0  0  0  0  0  0  0  0  0  0  0
  140.4810  151.4830  133.0100 N   0  0  0  0  0  0  0  0  0  0  0  0
  140.6830  152.8950  133.1310 C   0  0  0  0  0  0  0  0  0  0  0  0
  141.9190  153.3960  133.4000 N   0  0  0  0  0  0  0  0  0  0  0  0
  142.1250  154.7320  133.5180 C   0  0  0  0  0  0  0  0  0  0  0  0
  141.0570  155.6280  133.3600 C   0  0  0  0  0  0  0  0  0  0  0  0
  141.2560  157.0940  133.4830 C   0  0  0  0  0  0  0  0  0  0  0  0
  140.1390  157.9600  133.6220 C   0  0  0  0  0  0  0  0  0  0  0  0
  140.3140  159.3500  133.7280 C   0  0  0  0  0  0  0  0  0  0  0  0
  141.6130  159.8470  133.7010 C   0  0  0  0  0  0  0  0  0  0  0  0
  142.0640  161.1460  133.7630 C   0  0  0  0  0  0  0  0  0  0  0  0
  143.4520  161.0580  133.6860 C   0  0  0  0  0  0  0  0  0  0  0  0
  144.3480  162.2280  133.8070 C   0  0  0  0  0  0  0  0  0  0  0  0
  145.5990  162.1240  134.4810 N   0  0  0  0  0  0  0  0  0  0  0  0
  143.9810  163.3440  133.3540 O   0  0  0  0  0  0  0  0  0  0  0  0
  143.8430  159.7570  133.5710 N   0  0  0  0  0  0  0  0  0  0  0  0
  145.1730  159.2520  133.3710 C   0  0  0  0  0  0  0  0  0  0  0  0
  146.1210  160.0030  132.6170 N   0  0  0  0  0  0  0  0  0  0  0  0
  145.4990  158.1270  133.8360 O   0  0  0  0  0  0  0  0  0  0  0  0
  142.7050  159.0290  133.5860 C   0  0  0  0  0  0  0  0  0  0  0  0
  142.5600  157.6420  133.4600 C   0  0  0  0  0  0  0  0  0  0  0  0
  139.7930  155.0870  133.0800 C   0  0  0  0  0  0  0  0  0  0  0  0
  139.6330  153.7420  132.9740 N   0  0  0  0  0  0  0  0  0  0  0  0
  141.9783  150.2305  133.7802 H   0  0  0  0  0  0  0  0  0  0  0  0
  141.2342  149.6820  132.2400 H   0  0  0  0  0  0  0  0  0  0  0  0
  142.3868  151.0598  132.2400 H   0  0  0  0  0  0  0  0  0  0  0  0
  139.5080  151.1020  133.0710 H   0  0  0  0  0  0  0  0  0  0  0  0
  143.1328  155.1138  133.7383 H   0  0  0  0  0  0  0  0  0  0  0  0
  139.1239  157.5371  133.6470 H   0  0  0  0  0  0  0  0  0  0  0  0
  139.4508  160.0242  133.8292 H   0  0  0  0  0  0  0  0  0  0  0  0
  141.4574  162.0591  133.8540 H   0  0  0  0  0  0  0  0  0  0  0  0
  146.3210  161.4370  134.1680 H   0  0  0  0  0  0  0  0  0  0  0  0
  146.1560  161.0440  132.6830 H   0  0  0  0  0  0  0  0  0  0  0  0
  143.4406  156.9928  133.3457 H   0  0  0  0  0  0  0  0  0  0  0  0
  138.9287  155.7541  132.9459 H   0  0  0  0  0  0  0  0  0  0  0  0
  1  2  1  0
  2  3  1  0
  3  4  2  0
  4  5  1  0
  5  6  2  0
  6  7  1  0
  7  8  2  0
  8  9  1  0
  9 10  2  0
 10 11  1  0
 11 12  2  0
 12 13  1  0
 13 14  1  0
 13 15  2  0
 12 16  1  0
 16 17  1  0
 17 18  1  0
 17 19  2  0
 16 20  1  0
 20 21  2  0
  6 22  1  0
 22 23  2  0
 23  3  1  0
 21  7  1  0
 20 10  1  0
  1 24  1  0
  1 25  1  0
  1 26  1  0
  2 27  1  0
  5 28  1  0
  8 29  1  0
  9 30  1  0
 11 31  1  0
 14 32  1  0
 18 33  1  0
 21 34  1  0
 22 35  1  0
M  CHG  2  14  -1  18  -1
M  END
>  <UniqueID>  (24) 
24

>  <SMILES>  (24) 
CNc1ncc(-c2ccc3cc(C([NH-])=O)n(C([NH-])=O)c3c2)cn1

>  <Energy>  (24) 
80.24053094964559

>  <Genealogy>  (24) 
CNc1ncc(-c2ccc3cc(C([NH-])=O)n(C([NH-])=O)c3c2)cn1 (protonated)
CNc1ncc(-c2ccc3cc(C([NH-])=O)n(C([NH-])=O)c3c2)cn1 (3D coordinates assigned)
CNc1ncc(-c2ccc3cc(C([NH-])=O)n(C([NH-])=O)c3c2)cn1 (optimized conformer: 80.24053094964559 kcal/mol)

>  <smiles>  (24) 
CNc1ncc(-c2ccc3cc(C(N)=O)n(C(N)=O)c3c2)cn1

>  <score_type>  (24) 
oracle

>  <origin>  (24) 
adg

>  <m_score__min__energy>  (24) 
-7.1799999999999997

>  <m_primary>  (24) 
energy

$$$$
25:0
     RDKit          3D

 46 48  0  0  0  0  0  0  0  0999 V2000
  146.2200  155.9120  134.4890 N   0  0  0  0  0  0  0  0  0  0  0  0
  146.3550  156.5980  133.2470 C   0  0  0  0  0  0  0  0  0  0  0  0
  146.6090  155.9340  132.2090 O   0  0  0  0  0  0  0  0  0  0  0  0
  146.2480  158.0360  133.1880 N   0  0  0  0  0  0  0  0  0  0  0  0
  147.2550  158.9310  132.9750 C   0  0  0  0  0  0  0  0  0  0  0  0
  148.6470  158.5980  132.6300 C   0  0  0  0  0  0  0  0  0  0  0  0
  148.9490  157.4380  131.8560 N   0  0  0  0  0  0  0  0  0  0  0  0
  149.5730  159.3850  132.9610 O   0  0  0  0  0  0  0  0  0  0  0  0
  146.8160  160.2350  133.1760 C   0  0  0  0  0  0  0  0  0  0  0  0
  145.4840  160.1220  133.4940 C   0  0  0  0  0  0  0  0  0  0  0  0
  144.5500  161.1140  133.7790 C   0  0  0  0  0  0  0  0  0  0  0  0
  143.2340  160.7170  134.0620 C   0  0  0  0  0  0  0  0  0  0  0  0
  142.8750  159.3460  134.0450 C   0  0  0  0  0  0  0  0  0  0  0  0
  141.4600  158.9280  134.3570 C   0  0  0  0  0  0  0  0  0  0  0  0
  141.1520  157.5090  133.8620 C   0  0  0  0  0  0  0  0  0  0  0  0
  139.4380  157.3130  133.3670 S   0  0  0  0  0  0  0  0  0  0  0  0
  138.5400  157.8700  134.4360 O   0  0  0  0  0  0  0  0  0  0  0  0
  139.1350  155.8520  133.1860 O   0  0  0  0  0  0  0  0  0  0  0  0
  139.1010  158.1580  131.8170 C   0  0  0  0  0  0  0  0  0  0  0  0
  140.0940  159.3140  131.5640 C   0  0  0  0  0  0  0  0  0  0  0  0
  139.4360  160.6770  131.8250 C   0  0  0  0  0  0  0  0  0  0  0  0
  138.3020  160.9290  131.0040 O   0  0  0  0  0  0  0  0  0  0  0  0
  137.5060  159.7790  130.7310 C   0  0  0  0  0  0  0  0  0  0  0  0
  137.6420  158.6430  131.7590 C   0  0  0  0  0  0  0  0  0  0  0  0
  143.8500  158.3680  133.7510 C   0  0  0  0  0  0  0  0  0  0  0  0
  145.1610  158.7880  133.4940 C   0  0  0  0  0  0  0  0  0  0  0  0
  145.4310  156.1250  135.1380 H   0  0  0  0  0  0  0  0  0  0  0  0
  148.1840  156.8470  131.4600 H   0  0  0  0  0  0  0  0  0  0  0  0
  149.9390  157.2020  131.6250 H   0  0  0  0  0  0  0  0  0  0  0  0
  147.4080  161.1588  133.0973 H   0  0  0  0  0  0  0  0  0  0  0  0
  144.8347  162.1765  133.7823 H   0  0  0  0  0  0  0  0  0  0  0  0
  142.4745  161.4765  134.2991 H   0  0  0  0  0  0  0  0  0  0  0  0
  141.3125  158.9629  135.4465 H   0  0  0  0  0  0  0  0  0  0  0  0
  140.7812  159.6211  133.8385 H   0  0  0  0  0  0  0  0  0  0  0  0
  141.7964  157.2887  132.9982 H   0  0  0  0  0  0  0  0  0  0  0  0
  141.3418  156.8153  134.6943 H   0  0  0  0  0  0  0  0  0  0  0  0
  139.2458  157.4296  131.0056 H   0  0  0  0  0  0  0  0  0  0  0  0
  140.9582  159.1982  132.2347 H   0  0  0  0  0  0  0  0  0  0  0  0
  140.4125  159.2762  130.5118 H   0  0  0  0  0  0  0  0  0  0  0  0
  139.1183  160.7138  132.8775 H   0  0  0  0  0  0  0  0  0  0  0  0
  140.1843  161.4472  131.5864 H   0  0  0  0  0  0  0  0  0  0  0  0
  136.4516  160.0912  130.7031 H   0  0  0  0  0  0  0  0  0  0  0  0
  137.8637  159.3746  129.7726 H   0  0  0  0  0  0  0  0  0  0  0  0
  137.3408  159.0112  132.7508 H   0  0  0  0  0  0  0  0  0  0  0  0
  136.9946  157.8056  131.4596 H   0  0  0  0  0  0  0  0  0  0  0  0
  143.5859  157.3005  133.7244 H   0  0  0  0  0  0  0  0  0  0  0  0
  1  2  1  0
  2  3  2  0
  2  4  1  0
  4  5  1  0
  5  6  1  0
  6  7  1  0
  6  8  2  0
  5  9  2  0
  9 10  1  0
 10 11  2  0
 11 12  1  0
 12 13  2  0
 13 14  1  0
 14 15  1  0
 15 16  1  0
 16 17  2  0
 16 18  2  0
 16 19  1  0
 19 20  1  0
 20 21  1  0
 21 22  1  0
 22 23  1  0
 23 24  1  0
 13 25  1  0
 25 26  2  0
 26  4  1  0
 26 10  1  0
 24 19  1  0
  1 27  1  0
  7 28  1  0
  7 29  1  0
  9 30  1  0
 11 31  1  0
 12 32  1  0
 14 33  1  0
 14 34  1  0
 15 35  1  0
 15 36  1  0
 19 37  1  0
 20 38  1  0
 20 39  1  0
 21 40  1  0
 21 41  1  0
 23 42  1  0
 23 43  1  0
 24 44  1  0
 24 45  1  0
 25 46  1  0
M  CHG  1   1  -1
M  END
>  <UniqueID>  (25) 
25

>  <SMILES>  (25) 
[NH-]C(=O)n1c(C(N)=O)cc2ccc(CCS(=O)(=O)C3CCOCC3)cc21

>  <Energy>  (25) 
89.99649263626287

>  <Genealogy>  (25) 
[NH-]C(=O)n1c(C(N)=O)cc2ccc(CCS(=O)(=O)C3CCOCC3)cc21 (protonated)
[NH-]C(=O)n1c(C(N)=O)cc2ccc(CCS(=O)(=O)C3CCOCC3)cc21 (3D coordinates assigned)
[NH-]C(=O)n1c(C(N)=O)cc2ccc(CCS(=O)(=O)C3CCOCC3)cc21 (nonaromatic ring conformer: 89.99649263626287 kcal/mol)

>  <smiles>  (25) 
NC(=O)c1cc2ccc(CCS(=O)(=O)C3CCOCC3)cc2n1C(N)=O

>  <score_type>  (25) 
oracle

>  <origin>  (25) 
adg

>  <m_score__min__energy>  (25) 
-9.2799999999999994

>  <m_primary>  (25) 
energy

$$$$
26:0
     RDKit          3D

 68 72  0  0  0  0  0  0  0  0999 V2000
  149.2560  152.9590  138.2420 C   0  0  0  0  0  0  0  0  0  0  0  0
  147.7840  152.5050  138.2810 C   0  0  0  0  0  0  0  0  0  0  0  0
  147.0940  153.0010  139.5680 C   0  0  0  0  0  0  0  0  0  0  0  0
  147.7330  150.9690  138.2570 C   0  0  0  0  0  0  0  0  0  0  0  0
  147.0880  152.9700  137.1170 O   0  0  0  0  0  0  0  0  0  0  0  0
  147.5020  153.9920  136.2480 C   0  0  0  0  0  0  0  0  0  0  0  0
  148.1500  154.9830  136.6770 O   0  0  0  0  0  0  0  0  0  0  0  0
  147.1350  153.9260  134.8620 N   0  0  0  0  0  0  0  0  0  0  0  0
  147.8010  153.3050  133.8440 C   0  0  0  0  0  0  0  0  0  0  0  0
  148.9870  152.4340  133.9810 C   0  0  0  0  0  0  0  0  0  0  0  0
  149.2460  151.7800  135.2220 N   0  0  0  0  0  0  0  0  0  0  0  0
  149.7930  152.2830  133.0230 O   0  0  0  0  0  0  0  0  0  0  0  0
  147.1550  153.5330  132.6300 C   0  0  0  0  0  0  0  0  0  0  0  0
  146.0620  154.3120  132.9370 C   0  0  0  0  0  0  0  0  0  0  0  0
  145.0760  154.8360  132.1070 C   0  0  0  0  0  0  0  0  0  0  0  0
  144.0700  155.6220  132.6940 C   0  0  0  0  0  0  0  0  0  0  0  0
  144.0720  155.8810  134.0900 C   0  0  0  0  0  0  0  0  0  0  0  0
  142.9990  156.7040  134.7060 C   0  0  0  0  0  0  0  0  0  0  0  0
  142.6060  157.9190  134.1170 C   0  0  0  0  0  0  0  0  0  0  0  0
  141.6250  158.7100  134.7150 C   0  0  0  0  0  0  0  0  0  0  0  0
  141.0240  158.3040  135.9090 C   0  0  0  0  0  0  0  0  0  0  0  0
  141.3960  157.0910  136.5140 C   0  0  0  0  0  0  0  0  0  0  0  0
  140.7650  156.6620  137.7820 C   0  0  0  0  0  0  0  0  0  0  0  0
  139.5330  156.3850  137.8150 O   0  0  0  0  0  0  0  0  0  0  0  0
  141.5480  156.5610  138.9770 N   0  0  0  0  0  0  0  0  0  0  0  0
  141.9100  155.2880  139.5920 C   0  0  2  0  0  0  0  0  0  0  0  0
  142.4880  154.3040  138.5570 C   0  0  0  0  0  0  0  0  0  0  0  0
  141.7510  152.9460  138.7740 C   0  0  0  0  0  0  0  0  0  0  0  0
  142.6430  151.9340  139.5340 C   0  0  0  0  0  0  0  0  0  0  0  0
  142.1210  150.4880  139.3930 C   0  0  0  0  0  0  0  0  0  0  0  0
  140.7680  150.4640  138.9830 O   0  0  0  0  0  0  0  0  0  0  0  0
  140.6590  150.9290  137.6470 C   0  0  0  0  0  0  0  0  0  0  0  0
  141.2900  152.3270  137.4390 C   0  0  0  0  0  0  0  0  0  0  0  0
  140.5870  153.2660  139.5900 N   0  0  0  0  0  0  0  0  0  0  0  0
  140.7010  154.5870  140.0690 C   0  0  0  0  0  0  0  0  0  0  0  0
  139.8560  155.0970  140.8510 O   0  0  0  0  0  0  0  0  0  0  0  0
  142.3820  156.2940  135.9010 C   0  0  0  0  0  0  0  0  0  0  0  0
  145.0980  155.3330  134.8970 C   0  0  0  0  0  0  0  0  0  0  0  0
  146.0730  154.5350  134.2890 C   0  0  0  0  0  0  0  0  0  0  0  0
  149.6313  153.0748  139.2695 H   0  0  0  0  0  0  0  0  0  0  0  0
  149.8584  152.2049  137.7143 H   0  0  0  0  0  0  0  0  0  0  0  0
  149.3290  153.9214  137.7143 H   0  0  0  0  0  0  0  0  0  0  0  0
  147.6327  152.6138  140.4454 H   0  0  0  0  0  0  0  0  0  0  0  0
  147.1028  154.1008  139.5883 H   0  0  0  0  0  0  0  0  0  0  0  0
  146.0543  152.6422  139.5883 H   0  0  0  0  0  0  0  0  0  0  0  0
  147.7203  150.5864  139.2882 H   0  0  0  0  0  0  0  0  0  0  0  0
  146.8235  150.6405  137.7328 H   0  0  0  0  0  0  0  0  0  0  0  0
  148.6188  150.5809  137.7328 H   0  0  0  0  0  0  0  0  0  0  0  0
  148.5300  151.7760  135.9840 H   0  0  0  0  0  0  0  0  0  0  0  0
  147.4550  153.1678  131.6367 H   0  0  0  0  0  0  0  0  0  0  0  0
  145.0837  154.6410  131.0244 H   0  0  0  0  0  0  0  0  0  0  0  0
  143.2715  156.0416  132.0645 H   0  0  0  0  0  0  0  0  0  0  0  0
  143.0755  158.2479  133.1782 H   0  0  0  0  0  0  0  0  0  0  0  0
  141.3233  159.6574  134.2445 H   0  0  0  0  0  0  0  0  0  0  0  0
  140.2560  158.9366  136.3779 H   0  0  0  0  0  0  0  0  0  0  0  0
  142.6258  155.5375  140.3891 H   0  0  0  0  0  0  0  0  0  0  0  0
  142.3070  154.6755  137.5376 H   0  0  0  0  0  0  0  0  0  0  0  0
  143.5750  154.1901  138.6815 H   0  0  0  0  0  0  0  0  0  0  0  0
  143.6640  151.9848  139.1279 H   0  0  0  0  0  0  0  0  0  0  0  0
  142.6273  152.1998  140.6013 H   0  0  0  0  0  0  0  0  0  0  0  0
  142.7306  149.9591  138.6456 H   0  0  0  0  0  0  0  0  0  0  0  0
  142.1932  149.9973  140.3749 H   0  0  0  0  0  0  0  0  0  0  0  0
  141.1672  150.2131  136.9843 H   0  0  0  0  0  0  0  0  0  0  0  0
  139.5871  151.0144  137.4151 H   0  0  0  0  0  0  0  0  0  0  0  0
  142.1588  152.2307  136.7713 H   0  0  0  0  0  0  0  0  0  0  0  0
  140.5276  152.9866  136.9990 H   0  0  0  0  0  0  0  0  0  0  0  0
  142.6730  155.3390  136.3628 H   0  0  0  0  0  0  0  0  0  0  0  0
  145.1279  155.5304  135.9787 H   0  0  0  0  0  0  0  0  0  0  0  0
  1  2  1  0
  2  3  1  0
  2  4  1  0
  2  5  1  0
  5  6  1  0
  6  7  2  0
  6  8  1  0
  8  9  1  0
  9 10  1  0
 10 11  1  0
 10 12  2  0
  9 13  2  0
 13 14  1  0
 14 15  2  0
 15 16  1  0
 16 17  2  0
 17 18  1  0
 18 19  2  0
 19 20  1  0
 20 21  2  0
 21 22  1  0
 22 23  1  0
 23 24  2  0
 23 25  1  0
 25 26  1  0
 26 27  1  0
 27 28  1  0
 28 29  1  0
 29 30  1  0
 30 31  1  0
 31 32  1  0
 32 33  1  0
 28 34  1  0
 34 35  1  0
 35 36  2  0
 22 37  2  0
 17 38  1  0
 38 39  2  0
 39  8  1  0
 39 14  1  0
 37 18  1  0
 35 26  1  0
 33 28  1  0
  1 40  1  0
  1 41  1  0
  1 42  1  0
  3 43  1  0
  3 44  1  0
  3 45  1  0
  4 46  1  0
  4 47  1  0
  4 48  1  0
 11 49  1  0
 13 50  1  0
 15 51  1  0
 16 52  1  0
 19 53  1  0
 20 54  1  0
 21 55  1  0
 26 56  1  1
 27 57  1  0
 27 58  1  0
 29 59  1  0
 29 60  1  0
 30 61  1  0
 30 62  1  0
 32 63  1  0
 32 64  1  0
 33 65  1  0
 33 66  1  0
 37 67  1  0
 38 68  1  0
M  CHG  3  11  -1  25  -1  34  -1
M  END
>  <UniqueID>  (26) 
26

>  <SMILES>  (26) 
CC(C)(C)OC(=O)n1c(C([NH-])=O)cc2ccc(-c3cccc(C(=O)[N-][C@@H]4CC5(CCOCC5)[N-]C4=O)c3)cc21

>  <Energy>  (26) 
126.95780438235776

>  <Genealogy>  (26) 
CC(C)(C)OC(=O)n1c(C([NH-])=O)cc2ccc(-c3cccc(C(=O)[N-]C4CC5(CCOCC5)[N-]C4=O)c3)cc21 (protonated)
CC(C)(C)OC(=O)n1c(C([NH-])=O)cc2ccc(-c3cccc(C(=O)[N-][C@@H]4CC5(CCOCC5)[N-]C4=O)c3)cc21 (chirality)
CC(C)(C)OC(=O)n1c(C([NH-])=O)cc2ccc(-c3cccc(C(=O)[N-][C@@H]4CC5(CCOCC5)[N-]C4=O)c3)cc21 (3D coordinates assigned)
CC(C)(C)OC(=O)n1c(C([NH-])=O)cc2ccc(-c3cccc(C(=O)[N-][C@@H]4CC5(CCOCC5)[N-]C4=O)c3)cc21 (nonaromatic ring conformer: 126.95780438235776 kcal/mol)

>  <smiles>  (26) 
CC(C)(C)OC(=O)n1c(C(N)=O)cc2ccc(-c3cccc(C(=O)NC4CC5(CCOCC5)NC4=O)c3)cc21

>  <score_type>  (26) 
oracle

>  <origin>  (26) 
adg

>  <m_score__min__energy>  (26) 
-11.800000000000001

>  <m_primary>  (26) 
energy

$$$$
27:0
     RDKit          3D

 44 45  0  0  0  0  0  0  0  0999 V2000
  149.7900  160.5170  129.8770 C   0  0  0  0  0  0  0  0  0  0  0  0
  148.8510  161.1580  130.8920 C   0  0  0  0  0  0  0  0  0  0  0  0
  147.7820  160.2700  131.2160 O   0  0  0  0  0  0  0  0  0  0  0  0
  147.2990  160.0870  132.5180 C   0  0  0  0  0  0  0  0  0  0  0  0
  147.3470  161.0310  133.3540 O   0  0  0  0  0  0  0  0  0  0  0  0
  146.7480  158.8160  132.8990 N   0  0  0  0  0  0  0  0  0  0  0  0
  147.4200  157.6410  133.0600 C   0  0  0  0  0  0  0  0  0  0  0  0
  148.8300  157.3950  132.6990 C   0  0  0  0  0  0  0  0  0  0  0  0
  149.7350  158.4750  132.4700 N   0  0  0  0  0  0  0  0  0  0  0  0
  149.2280  156.2100  132.5370 O   0  0  0  0  0  0  0  0  0  0  0  0
  146.5790  156.6620  133.5820 C   0  0  0  0  0  0  0  0  0  0  0  0
  145.3550  157.2730  133.7280 C   0  0  0  0  0  0  0  0  0  0  0  0
  144.1600  156.7700  134.2350 C   0  0  0  0  0  0  0  0  0  0  0  0
  143.0630  157.6430  134.3230 C   0  0  0  0  0  0  0  0  0  0  0  0
  143.1810  158.9940  133.9110 C   0  0  0  0  0  0  0  0  0  0  0  0
  142.0100  159.9310  134.0600 C   0  0  0  0  0  0  0  0  0  0  0  0
  140.7250  159.1890  134.4460 C   0  0  0  0  0  0  0  0  0  0  0  0
  139.7530  158.7050  133.0190 S   0  0  0  0  0  0  0  0  0  0  0  0
  138.4250  158.1680  133.4770 O   0  0  0  0  0  0  0  0  0  0  0  0
  140.4760  157.6330  132.2540 O   0  0  0  0  0  0  0  0  0  0  0  0
  139.4520  160.1100  131.9500 C   0  0  0  0  0  0  0  0  0  0  0  0
  138.5650  159.7650  130.7520 C   0  0  0  0  0  0  0  0  0  0  0  0
  137.2470  159.7020  131.1680 F   0  0  0  0  0  0  0  0  0  0  0  0
  138.6710  160.7370  129.7750 F   0  0  0  0  0  0  0  0  0  0  0  0
  138.9200  158.5380  130.2210 F   0  0  0  0  0  0  0  0  0  0  0  0
  144.4110  159.4680  133.4020 C   0  0  0  0  0  0  0  0  0  0  0  0
  145.4830  158.5730  133.3100 C   0  0  0  0  0  0  0  0  0  0  0  0
  150.5863  159.9734  130.4065 H   0  0  0  0  0  0  0  0  0  0  0  0
  149.2243  159.8157  129.2460 H   0  0  0  0  0  0  0  0  0  0  0  0
  150.2371  161.2993  129.2460 H   0  0  0  0  0  0  0  0  0  0  0  0
  149.4143  161.3950  131.8066 H   0  0  0  0  0  0  0  0  0  0  0  0
  148.4303  162.0763  130.4563 H   0  0  0  0  0  0  0  0  0  0  0  0
  149.3990  159.4630  132.4320 H   0  0  0  0  0  0  0  0  0  0  0  0
  150.7390  158.2800  132.2570 H   0  0  0  0  0  0  0  0  0  0  0  0
  146.8381  155.6211  133.8259 H   0  0  0  0  0  0  0  0  0  0  0  0
  144.0774  155.7214  134.5568 H   0  0  0  0  0  0  0  0  0  0  0  0
  142.1036  157.2747  134.7153 H   0  0  0  0  0  0  0  0  0  0  0  0
  142.2427  160.6684  134.8423 H   0  0  0  0  0  0  0  0  0  0  0  0
  141.8410  160.4200  133.0893 H   0  0  0  0  0  0  0  0  0  0  0  0
  140.9964  158.2847  135.0105 H   0  0  0  0  0  0  0  0  0  0  0  0
  140.1124  159.8753  135.0491 H   0  0  0  0  0  0  0  0  0  0  0  0
  138.9586  160.8987  132.5369 H   0  0  0  0  0  0  0  0  0  0  0  0
  140.4246  160.4413  131.5571 H   0  0  0  0  0  0  0  0  0  0  0  0
  144.5233  160.5155  133.0856 H   0  0  0  0  0  0  0  0  0  0  0  0
  1  2  1  0
  2  3  1  0
  3  4  1  0
  4  5  2  0
  4  6  1  0
  6  7  1  0
  7  8  1  0
  8  9  1  0
  8 10  2  0
  7 11  2  0
 11 12  1  0
 12 13  2  0
 13 14  1  0
 14 15  2  0
 15 16  1  0
 16 17  1  0
 17 18  1  0
 18 19  2  0
 18 20  2  0
 18 21  1  0
 21 22  1  0
 22 23  1  0
 22 24  1  0
 22 25  1  0
 15 26  1  0
 26 27  2  0
 27  6  1  0
 27 12  1  0
  1 28  1  0
  1 29  1  0
  1 30  1  0
  2 31  1  0
  2 32  1  0
  9 33  1  0
  9 34  1  0
 11 35  1  0
 13 36  1  0
 14 37  1  0
 16 38  1  0
 16 39  1  0
 17 40  1  0
 17 41  1  0
 21 42  1  0
 21 43  1  0
 26 44  1  0
M  END
>  <UniqueID>  (27) 
27

>  <SMILES>  (27) 
CCOC(=O)n1c(C(N)=O)cc2ccc(CCS(=O)(=O)CC(F)(F)F)cc21

>  <Energy>  (27) 
67.8592475342398

>  <Genealogy>  (27) 
CCOC(=O)n1c(C(N)=O)cc2ccc(CCS(=O)(=O)CC(F)(F)F)cc21 (3D coordinates assigned)
CCOC(=O)n1c(C(N)=O)cc2ccc(CCS(=O)(=O)CC(F)(F)F)cc21 (optimized conformer: 67.8592475342398 kcal/mol)

>  <smiles>  (27) 
CCOC(=O)n1c(C(N)=O)cc2ccc(CCS(=O)(=O)CC(F)(F)F)cc21

>  <score_type>  (27) 
oracle

>  <origin>  (27) 
adg

>  <m_score__min__energy>  (27) 
-7.4199999999999999

>  <m_primary>  (27) 
energy

$$$$
28:0
     RDKit          3D

 30 31  0  0  0  0  0  0  0  0999 V2000
  149.2660  160.6440  131.3810 C   0  0  0  0  0  0  0  0  0  0  0  0
  149.2350  159.4890  132.3890 C   0  0  0  0  0  0  0  0  0  0  0  0
  150.0070  158.2740  131.8620 C   0  0  0  0  0  0  0  0  0  0  0  0
  147.8090  159.1170  132.7490 C   0  0  0  0  0  0  0  0  0  0  0  0
  147.3720  157.7660  132.6890 C   0  0  0  0  0  0  0  0  0  0  0  0
  146.0480  157.4240  133.0110 C   0  0  0  0  0  0  0  0  0  0  0  0
  145.1850  158.4440  133.3960 C   0  0  0  0  0  0  0  0  0  0  0  0
  143.8540  158.3940  133.7360 C   0  0  0  0  0  0  0  0  0  0  0  0
  143.4950  159.7090  134.0210 C   0  0  0  0  0  0  0  0  0  0  0  0
  142.1580  160.0980  134.5170 C   0  0  0  0  0  0  0  0  0  0  0  0
  141.3120  160.9120  133.7090 N   0  0  0  0  0  0  0  0  0  0  0  0
  141.7400  159.6890  135.6320 O   0  0  0  0  0  0  0  0  0  0  0  0
  144.5620  160.5420  133.8570 N   0  0  0  0  0  0  0  0  0  0  0  0
  144.5870  161.9730  133.9830 C   0  0  0  0  0  0  0  0  0  0  0  0
  145.5050  162.5400  134.6330 O   0  0  0  0  0  0  0  0  0  0  0  0
  143.6140  162.7500  133.3650 O   0  0  0  0  0  0  0  0  0  0  0  0
  145.5900  159.7510  133.4760 C   0  0  0  0  0  0  0  0  0  0  0  0
  146.8980  160.1240  133.1450 C   0  0  0  0  0  0  0  0  0  0  0  0
  149.2917  161.6017  131.9214 H   0  0  0  0  0  0  0  0  0  0  0  0
  150.1621  160.5553  130.7492 H   0  0  0  0  0  0  0  0  0  0  0  0
  148.3665  160.6035  130.7492 H   0  0  0  0  0  0  0  0  0  0  0  0
  149.7352  159.8310  133.3071 H   0  0  0  0  0  0  0  0  0  0  0  0
  150.3829  157.6825  132.7098 H   0  0  0  0  0  0  0  0  0  0  0  0
  149.3380  157.6522  131.2490 H   0  0  0  0  0  0  0  0  0  0  0  0
  150.8541  158.6155  131.2490 H   0  0  0  0  0  0  0  0  0  0  0  0
  148.0786  156.9790  132.3869 H   0  0  0  0  0  0  0  0  0  0  0  0
  145.7043  156.3803  132.9601 H   0  0  0  0  0  0  0  0  0  0  0  0
  143.2091  157.5038  133.7747 H   0  0  0  0  0  0  0  0  0  0  0  0
  141.6380  161.8390  133.3540 H   0  0  0  0  0  0  0  0  0  0  0  0
  147.2107  161.1776  133.1919 H   0  0  0  0  0  0  0  0  0  0  0  0
  1  2  1  0
  2  3  1  0
  2  4  1  0
  4  5  2  0
  5  6  1  0
  6  7  2  0
  7  8  1  0
  8  9  2  0
  9 10  1  0
 10 11  1  0
 10 12  2  0
  9 13  1  0
 13 14  1  0
 14 15  2  0
 14 16  1  0
 13 17  1  0
 17 18  2  0
 18  4  1  0
 17  7  1  0
  1 19  1  0
  1 20  1  0
  1 21  1  0
  2 22  1  0
  3 23  1  0
  3 24  1  0
  3 25  1  0
  5 26  1  0
  6 27  1  0
  8 28  1  0
 11 29  1  0
 18 30  1  0
M  CHG  2  11  -1  16  -1
M  END
>  <UniqueID>  (28) 
28

>  <SMILES>  (28) 
CC(C)c1ccc2cc(C([NH-])=O)n(C(=O)[O-])c2c1

>  <Energy>  (28) 
66.13045963829728

>  <Genealogy>  (28) 
CC(C)c1ccc2cc(C([NH-])=O)n(C(=O)[O-])c2c1 (protonated)
CC(C)c1ccc2cc(C([NH-])=O)n(C(=O)[O-])c2c1 (3D coordinates assigned)
CC(C)c1ccc2cc(C([NH-])=O)n(C(=O)[O-])c2c1 (optimized conformer: 66.13045963829728 kcal/mol)

>  <smiles>  (28) 
CC(C)c1ccc2cc(C(N)=O)n(C(=O)O)c2c1

>  <score_type>  (28) 
oracle

>  <origin>  (28) 
adg

>  <m_score__min__energy>  (28) 
-6.4199999999999999

>  <m_primary>  (28) 
energy

$$$$
29:0
     RDKit          3D

 39 41  0  0  0  0  0  0  0  0999 V2000
  150.4500  150.3680  130.1380 C   0  0  0  0  0  0  0  0  0  0  0  0
  150.4100  150.4070  131.5590 O   0  0  0  0  0  0  0  0  0  0  0  0
  149.2410  150.6890  132.2740 C   0  0  0  0  0  0  0  0  0  0  0  0
  148.5560  149.7470  132.7620 O   0  0  0  0  0  0  0  0  0  0  0  0
  148.8090  152.0930  132.4560 C   0  0  0  0  0  0  0  0  0  0  0  0
  147.4570  152.4050  132.6770 C   0  0  0  0  0  0  0  0  0  0  0  0
  147.0530  153.7330  132.8480 C   0  0  0  0  0  0  0  0  0  0  0  0
  147.9930  154.7770  132.8030 C   0  0  0  0  0  0  0  0  0  0  0  0
  147.5650  156.1860  132.9850 C   0  0  0  0  0  0  0  0  0  0  0  0
  148.5250  157.2340  132.9910 C   0  0  0  0  0  0  0  0  0  0  0  0
  148.1280  158.5730  133.1510 C   0  0  0  0  0  0  0  0  0  0  0  0
  146.7730  158.8370  133.3130 C   0  0  0  0  0  0  0  0  0  0  0  0
  146.1150  160.0370  133.4560 C   0  0  0  0  0  0  0  0  0  0  0  0
  144.7640  159.7100  133.5580 C   0  0  0  0  0  0  0  0  0  0  0  0
  143.6970  160.7070  133.7880 C   0  0  0  0  0  0  0  0  0  0  0  0
  142.3700  160.3030  134.1100 N   0  0  0  0  0  0  0  0  0  0  0  0
  143.9710  161.9360  133.7340 O   0  0  0  0  0  0  0  0  0  0  0  0
  144.5950  158.3590  133.4810 N   0  0  0  0  0  0  0  0  0  0  0  0
  143.3610  157.6250  133.4730 C   0  0  0  0  0  0  0  0  0  0  0  0
  142.7470  157.2580  132.2380 N   0  0  0  0  0  0  0  0  0  0  0  0
  142.8090  157.3090  134.5620 O   0  0  0  0  0  0  0  0  0  0  0  0
  145.8330  157.8400  133.3300 C   0  0  0  0  0  0  0  0  0  0  0  0
  146.1950  156.5000  133.1520 C   0  0  0  0  0  0  0  0  0  0  0  0
  149.3450  154.4630  132.5830 C   0  0  0  0  0  0  0  0  0  0  0  0
  149.7490  153.1360  132.4100 C   0  0  0  0  0  0  0  0  0  0  0  0
  151.2022  149.6344  129.8124 H   0  0  0  0  0  0  0  0  0  0  0  0
  149.4623  150.0767  129.7512 H   0  0  0  0  0  0  0  0  0  0  0  0
  150.7164  151.3627  129.7512 H   0  0  0  0  0  0  0  0  0  0  0  0
  146.7102  151.5983  132.7158 H   0  0  0  0  0  0  0  0  0  0  0  0
  145.9909  153.9623  133.0191 H   0  0  0  0  0  0  0  0  0  0  0  0
  149.5916  156.9944  132.8690 H   0  0  0  0  0  0  0  0  0  0  0  0
  148.8675  159.3874  133.1481 H   0  0  0  0  0  0  0  0  0  0  0  0
  146.5611  161.0421  133.4839 H   0  0  0  0  0  0  0  0  0  0  0  0
  142.1840  159.3810  134.5640 H   0  0  0  0  0  0  0  0  0  0  0  0
  143.2200  157.4580  131.3300 H   0  0  0  0  0  0  0  0  0  0  0  0
  141.8340  156.7510  132.2340 H   0  0  0  0  0  0  0  0  0  0  0  0
  145.4316  155.7081  133.1421 H   0  0  0  0  0  0  0  0  0  0  0  0
  150.0925  155.2692  132.5466 H   0  0  0  0  0  0  0  0  0  0  0  0
  150.8108  152.9068  132.2366 H   0  0  0  0  0  0  0  0  0  0  0  0
  1  2  1  0
  2  3  1  0
  3  4  2  0
  3  5  1  0
  5  6  2  0
  6  7  1  0
  7  8  2  0
  8  9  1  0
  9 10  2  0
 10 11  1  0
 11 12  2  0
 12 13  1  0
 13 14  2  0
 14 15  1  0
 15 16  1  0
 15 17  2  0
 14 18  1  0
 18 19  1  0
 19 20  1  0
 19 21  2  0
 18 22  1  0
 22 23  2  0
  8 24  1  0
 24 25  2  0
 25  5  1  0
 23  9  1  0
 22 12  1  0
  1 26  1  0
  1 27  1  0
  1 28  1  0
  6 29  1  0
  7 30  1  0
 10 31  1  0
 11 32  1  0
 13 33  1  0
 16 34  1  0
 20 35  1  0
 20 36  1  0
 23 37  1  0
 24 38  1  0
 25 39  1  0
M  CHG  1  16  -1
M  END
>  <UniqueID>  (29) 
29

>  <SMILES>  (29) 
COC(=O)c1ccc(-c2ccc3cc(C([NH-])=O)n(C(N)=O)c3c2)cc1

>  <Energy>  (29) 
83.75587436299358

>  <Genealogy>  (29) 
COC(=O)c1ccc(-c2ccc3cc(C([NH-])=O)n(C(N)=O)c3c2)cc1 (protonated)
COC(=O)c1ccc(-c2ccc3cc(C([NH-])=O)n(C(N)=O)c3c2)cc1 (3D coordinates assigned)
COC(=O)c1ccc(-c2ccc3cc(C([NH-])=O)n(C(N)=O)c3c2)cc1 (optimized conformer: 83.75587436299358 kcal/mol)

>  <smiles>  (29) 
COC(=O)c1ccc(-c2ccc3cc(C(N)=O)n(C(N)=O)c3c2)cc1

>  <score_type>  (29) 
oracle

>  <origin>  (29) 
adg

>  <m_score__min__energy>  (29) 
-8.0099999999999998

>  <m_primary>  (29) 
energy

$$$$
30:0
     RDKit          3D

 50 53  0  0  0  0  0  0  0  0999 V2000
  140.1360  149.3230  129.9120 C   0  0  0  0  0  0  0  0  0  0  0  0
  139.5650  148.9380  131.2150 N   0  0  0  0  0  0  0  0  0  0  0  0
  140.6010  148.3980  132.1340 C   0  0  0  0  0  0  0  0  0  0  0  0
  141.0210  149.3770  133.2470 C   0  0  0  0  0  0  0  0  0  0  0  0
  140.9260  150.7600  132.7720 N   0  0  0  0  0  0  0  0  0  0  0  0
  142.0580  151.6510  132.8260 C   0  0  0  0  0  0  0  0  0  0  0  0
  141.8730  153.0410  132.7620 C   0  0  0  0  0  0  0  0  0  0  0  0
  142.9710  153.9040  132.8010 C   0  0  0  0  0  0  0  0  0  0  0  0
  144.2780  153.3950  132.8960 C   0  0  0  0  0  0  0  0  0  0  0  0
  145.4450  154.3120  132.9380 C   0  0  0  0  0  0  0  0  0  0  0  0
  146.7660  153.7930  132.9300 C   0  0  0  0  0  0  0  0  0  0  0  0
  147.8780  154.6510  132.9550 C   0  0  0  0  0  0  0  0  0  0  0  0
  147.6430  156.0210  132.9980 C   0  0  0  0  0  0  0  0  0  0  0  0
  148.5320  157.0720  132.9980 C   0  0  0  0  0  0  0  0  0  0  0  0
  147.7440  158.2210  133.0320 C   0  0  0  0  0  0  0  0  0  0  0  0
  148.3000  159.5900  133.1060 C   0  0  0  0  0  0  0  0  0  0  0  0
  148.1950  160.4870  132.0040 N   0  0  0  0  0  0  0  0  0  0  0  0
  148.8460  159.9840  134.1720 O   0  0  0  0  0  0  0  0  0  0  0  0
  146.4210  157.8920  133.0490 N   0  0  0  0  0  0  0  0  0  0  0  0
  145.2930  158.7800  133.0100 C   0  0  0  0  0  0  0  0  0  0  0  0
  145.4610  160.1440  132.6280 N   0  0  0  0  0  0  0  0  0  0  0  0
  144.1480  158.3560  133.3200 O   0  0  0  0  0  0  0  0  0  0  0  0
  146.3770  156.5420  133.0250 C   0  0  0  0  0  0  0  0  0  0  0  0
  145.2500  155.7130  132.9790 C   0  0  0  0  0  0  0  0  0  0  0  0
  144.4610  152.0020  132.9500 C   0  0  0  0  0  0  0  0  0  0  0  0
  143.3630  151.1400  132.9130 C   0  0  0  0  0  0  0  0  0  0  0  0
  139.6470  151.2240  132.2230 C   0  0  0  0  0  0  0  0  0  0  0  0
  138.7670  150.0320  131.8100 C   0  0  0  0  0  0  0  0  0  0  0  0
  141.0383  149.9314  130.0724 H   0  0  0  0  0  0  0  0  0  0  0  0
  140.4000  148.4178  129.3455 H   0  0  0  0  0  0  0  0  0  0  0  0
  139.3958  149.9072  129.3455 H   0  0  0  0  0  0  0  0  0  0  0  0
  140.2042  147.4870  132.6059 H   0  0  0  0  0  0  0  0  0  0  0  0
  141.4966  148.2034  131.5258 H   0  0  0  0  0  0  0  0  0  0  0  0
  140.3582  149.2453  134.1149 H   0  0  0  0  0  0  0  0  0  0  0  0
  142.0626  149.1680  133.5323 H   0  0  0  0  0  0  0  0  0  0  0  0
  140.8566  153.4536  132.6806 H   0  0  0  0  0  0  0  0  0  0  0  0
  142.8114  154.9915  132.7570 H   0  0  0  0  0  0  0  0  0  0  0  0
  146.9211  152.7043  132.9039 H   0  0  0  0  0  0  0  0  0  0  0  0
  148.9028  154.2516  132.9410 H   0  0  0  0  0  0  0  0  0  0  0  0
  149.6304  157.0167  132.9759 H   0  0  0  0  0  0  0  0  0  0  0  0
  147.6950  161.3990  132.0990 H   0  0  0  0  0  0  0  0  0  0  0  0
  144.6460  160.7970  132.6280 H   0  0  0  0  0  0  0  0  0  0  0  0
  146.3900  160.4950  132.3060 H   0  0  0  0  0  0  0  0  0  0  0  0
  144.2365  156.1406  132.9748 H   0  0  0  0  0  0  0  0  0  0  0  0
  145.4775  151.5878  133.0220 H   0  0  0  0  0  0  0  0  0  0  0  0
  143.5216  150.0522  132.9523 H   0  0  0  0  0  0  0  0  0  0  0  0
  139.1195  151.8146  132.9865 H   0  0  0  0  0  0  0  0  0  0  0  0
  139.8470  151.8402  131.3340 H   0  0  0  0  0  0  0  0  0  0  0  0
  138.2463  149.6490  132.7000 H   0  0  0  0  0  0  0  0  0  0  0  0
  138.0509  150.3830  131.0523 H   0  0  0  0  0  0  0  0  0  0  0  0
  1  2  1  0
  2  3  1  0
  3  4  1  0
  4  5  1  0
  5  6  1  0
  6  7  2  0
  7  8  1  0
  8  9  2  0
  9 10  1  0
 10 11  2  0
 11 12  1  0
 12 13  2  0
 13 14  1  0
 14 15  2  0
 15 16  1  0
 16 17  1  0
 16 18  2  0
 15 19  1  0
 19 20  1  0
 20 21  1  0
 20 22  2  0
 19 23  1  0
 23 24  2  0
  9 25  1  0
 25 26  2  0
  5 27  1  0
 27 28  1  0
 28  2  1  0
 26  6  1  0
 24 10  1  0
 23 13  1  0
  1 29  1  0
  1 30  1  0
  1 31  1  0
  3 32  1  0
  3 33  1  0
  4 34  1  0
  4 35  1  0
  7 36  1  0
  8 37  1  0
 11 38  1  0
 12 39  1  0
 14 40  1  0
 17 41  1  0
 21 42  1  0
 21 43  1  0
 24 44  1  0
 25 45  1  0
 26 46  1  0
 27 47  1  0
 27 48  1  0
 28 49  1  0
 28 50  1  0
M  CHG  1  17  -1
M  END
>  <UniqueID>  (30) 
30

>  <SMILES>  (30) 
CN1CCN(c2ccc(-c3ccc4cc(C([NH-])=O)n(C(N)=O)c4c3)cc2)CC1

>  <Energy>  (30) 
108.54530033523815

>  <Genealogy>  (30) 
CN1CCN(c2ccc(-c3ccc4cc(C([NH-])=O)n(C(N)=O)c4c3)cc2)CC1 (protonated)
CN1CCN(c2ccc(-c3ccc4cc(C([NH-])=O)n(C(N)=O)c4c3)cc2)CC1 (3D coordinates assigned)
CN1CCN(c2ccc(-c3ccc4cc(C([NH-])=O)n(C(N)=O)c4c3)cc2)CC1 (nonaromatic ring conformer: 108.54530033523815 kcal/mol)

>  <smiles>  (30) 
CN1CCN(c2ccc(-c3ccc4cc(C(N)=O)n(C(N)=O)c4c3)cc2)CC1

>  <score_type>  (30) 
oracle

>  <origin>  (30) 
adg

>  <m_score__min__energy>  (30) 
-9.0899999999999999

>  <m_primary>  (30) 
energy

$$$$
31:0
     RDKit          3D

 54 57  0  0  0  0  0  0  0  0999 V2000
  149.2590  159.5950  131.1720 C   0  0  0  0  0  0  0  0  0  0  0  0
  148.8000  158.4960  132.1160 C   0  0  0  0  0  0  0  0  0  0  0  0
  147.3840  158.5360  132.2400 O   0  0  0  0  0  0  0  0  0  0  0  0
  146.6950  157.8880  133.2700 C   0  0  0  0  0  0  0  0  0  0  0  0
  147.3210  157.1670  134.0940 O   0  0  0  0  0  0  0  0  0  0  0  0
  145.2720  158.0440  133.3840 N   0  0  0  0  0  0  0  0  0  0  0  0
  144.5910  159.1860  133.6860 C   0  0  0  0  0  0  0  0  0  0  0  0
  145.1740  160.5390  133.7910 C   0  0  0  0  0  0  0  0  0  0  0  0
  146.5180  160.8000  133.3820 N   0  0  0  0  0  0  0  0  0  0  0  0
  144.4570  161.4920  134.1980 O   0  0  0  0  0  0  0  0  0  0  0  0
  143.2330  158.9250  133.8430 C   0  0  0  0  0  0  0  0  0  0  0  0
  143.0960  157.5750  133.6120 C   0  0  0  0  0  0  0  0  0  0  0  0
  141.9590  156.7750  133.6560 C   0  0  0  0  0  0  0  0  0  0  0  0
  142.1110  155.4000  133.4170 C   0  0  0  0  0  0  0  0  0  0  0  0
  143.3890  154.8450  133.1420 C   0  0  0  0  0  0  0  0  0  0  0  0
  143.5620  153.3890  132.9090 C   0  0  0  0  0  0  0  0  0  0  0  0
  142.4650  152.5120  132.8750 C   0  0  0  0  0  0  0  0  0  0  0  0
  142.6900  151.1440  132.6480 C   0  0  0  0  0  0  0  0  0  0  0  0
  141.6000  150.1980  132.6010 N   0  0  0  0  0  0  0  0  0  0  0  0
  141.8080  148.8590  132.0300 C   0  0  0  0  0  0  0  0  0  0  0  0
  141.1790  148.7750  130.6400 C   0  0  0  0  0  0  0  0  0  0  0  0
  139.4640  149.2610  130.7150 S   0  0  0  0  0  0  0  0  0  0  0  0
  138.9470  149.5350  129.3320 O   0  0  0  0  0  0  0  0  0  0  0  0
  138.6520  148.1670  131.3500 O   0  0  0  0  0  0  0  0  0  0  0  0
  139.3660  150.7400  131.7080 C   0  0  0  0  0  0  0  0  0  0  0  0
  140.2260  150.5810  132.9630 C   0  0  0  0  0  0  0  0  0  0  0  0
  143.9640  150.7120  132.4490 N   0  0  0  0  0  0  0  0  0  0  0  0
  145.0170  151.5680  132.4720 C   0  0  0  0  0  0  0  0  0  0  0  0
  146.3390  151.0800  132.2560 N   0  0  0  0  0  0  0  0  0  0  0  0
  144.8110  152.8900  132.6990 N   0  0  0  0  0  0  0  0  0  0  0  0
  144.5230  155.6950  133.1200 C   0  0  0  0  0  0  0  0  0  0  0  0
  144.3380  157.0650  133.3410 C   0  0  0  0  0  0  0  0  0  0  0  0
  149.6180  160.4546  131.7570 H   0  0  0  0  0  0  0  0  0  0  0  0
  150.0744  159.2168  130.5379 H   0  0  0  0  0  0  0  0  0  0  0  0
  148.4168  159.9091  130.5379 H   0  0  0  0  0  0  0  0  0  0  0  0
  149.1052  157.5180  131.7155 H   0  0  0  0  0  0  0  0  0  0  0  0
  149.2583  158.6477  133.1044 H   0  0  0  0  0  0  0  0  0  0  0  0
  146.9280  161.7520  133.5060 H   0  0  0  0  0  0  0  0  0  0  0  0
  147.0820  160.0740  132.8890 H   0  0  0  0  0  0  0  0  0  0  0  0
  142.4396  159.6433  134.0971 H   0  0  0  0  0  0  0  0  0  0  0  0
  140.9705  157.2067  133.8716 H   0  0  0  0  0  0  0  0  0  0  0  0
  141.2285  154.7438  133.4431 H   0  0  0  0  0  0  0  0  0  0  0  0
  141.4434  152.8915  133.0242 H   0  0  0  0  0  0  0  0  0  0  0  0
  142.8872  148.6603  131.9532 H   0  0  0  0  0  0  0  0  0  0  0  0
  141.3345  148.1121  132.6842 H   0  0  0  0  0  0  0  0  0  0  0  0
  141.7181  149.4462  129.9552 H   0  0  0  0  0  0  0  0  0  0  0  0
  141.2448  147.7390  130.2762 H   0  0  0  0  0  0  0  0  0  0  0  0
  139.7297  151.5974  131.1226 H   0  0  0  0  0  0  0  0  0  0  0  0
  138.3202  150.9094  132.0041 H   0  0  0  0  0  0  0  0  0  0  0  0
  140.2483  151.5352  133.5098 H   0  0  0  0  0  0  0  0  0  0  0  0
  139.7914  149.7921  133.5945 H   0  0  0  0  0  0  0  0  0  0  0  0
  147.0420  151.0950  133.0290 H   0  0  0  0  0  0  0  0  0  0  0  0
  146.6170  150.7030  131.3220 H   0  0  0  0  0  0  0  0  0  0  0  0
  145.5272  155.2869  132.9332 H   0  0  0  0  0  0  0  0  0  0  0  0
  1  2  1  0
  2  3  1  0
  3  4  1  0
  4  5  2  0
  4  6  1  0
  6  7  1  0
  7  8  1  0
  8  9  1  0
  8 10  2  0
  7 11  2  0
 11 12  1  0
 12 13  2  0
 13 14  1  0
 14 15  2  0
 15 16  1  0
 16 17  2  0
 17 18  1  0
 18 19  1  0
 19 20  1  0
 20 21  1  0
 21 22  1  0
 22 23  2  0
 22 24  2  0
 22 25  1  0
 25 26  1  0
 18 27  2  0
 27 28  1  0
 28 29  1  0
 28 30  2  0
 15 31  1  0
 31 32  2  0
 32  6  1  0
 32 12  1  0
 30 16  1  0
 26 19  1  0
  1 33  1  0
  1 34  1  0
  1 35  1  0
  2 36  1  0
  2 37  1  0
  9 38  1  0
  9 39  1  0
 11 40  1  0
 13 41  1  0
 14 42  1  0
 17 43  1  0
 20 44  1  0
 20 45  1  0
 21 46  1  0
 21 47  1  0
 25 48  1  0
 25 49  1  0
 26 50  1  0
 26 51  1  0
 29 52  1  0
 29 53  1  0
 31 54  1  0
M  END
>  <UniqueID>  (31) 
31

>  <SMILES>  (31) 
CCOC(=O)n1c(C(N)=O)cc2ccc(-c3cc(N4CCS(=O)(=O)CC4)nc(N)n3)cc21

>  <Energy>  (31) 
89.94999644382571

>  <Genealogy>  (31) 
CCOC(=O)n1c(C(N)=O)cc2ccc(-c3cc(N4CCS(=O)(=O)CC4)nc(N)n3)cc21 (3D coordinates assigned)
CCOC(=O)n1c(C(N)=O)cc2ccc(-c3cc(N4CCS(=O)(=O)CC4)nc(N)n3)cc21 (nonaromatic ring conformer: 89.94999644382571 kcal/mol)

>  <smiles>  (31) 
CCOC(=O)n1c(C(N)=O)cc2ccc(-c3cc(N4CCS(=O)(=O)CC4)nc(N)n3)cc21

>  <score_type>  (31) 
oracle

>  <origin>  (31) 
adg

>  <m_score__min__energy>  (31) 
-9.9100000000000001

>  <m_primary>  (31) 
energy

$$$$
32:0
     RDKit          3D

 24 25  0  0  0  0  0  0  0  0999 V2000
  141.1580  160.3850  133.9790 N   0  0  0  0  0  0  0  0  0  0  0  0
  142.1670  159.7500  134.7610 C   0  0  0  0  0  0  0  0  0  0  0  0
  141.9180  159.4390  135.9540 O   0  0  0  0  0  0  0  0  0  0  0  0
  143.4730  159.4250  134.1510 C   0  0  0  0  0  0  0  0  0  0  0  0
  143.9120  158.1210  133.9270 C   0  0  0  0  0  0  0  0  0  0  0  0
  145.1910  158.2450  133.4390 C   0  0  0  0  0  0  0  0  0  0  0  0
  146.0900  157.2650  133.0280 C   0  0  0  0  0  0  0  0  0  0  0  0
  147.3360  157.6820  132.5310 C   0  0  0  0  0  0  0  0  0  0  0  0
  147.6680  159.0590  132.4630 C   0  0  0  0  0  0  0  0  0  0  0  0
  148.9840  159.4950  131.8700 C   0  0  0  0  0  0  0  0  0  0  0  0
  149.1130  159.0290  130.5740 F   0  0  0  0  0  0  0  0  0  0  0  0
  150.0420  159.0030  132.6150 F   0  0  0  0  0  0  0  0  0  0  0  0
  149.0430  160.8760  131.8600 F   0  0  0  0  0  0  0  0  0  0  0  0
  146.7170  160.0250  132.8680 C   0  0  0  0  0  0  0  0  0  0  0  0
  145.4890  159.5810  133.3760 C   0  0  0  0  0  0  0  0  0  0  0  0
  144.4420  160.3210  133.8070 N   0  0  0  0  0  0  0  0  0  0  0  0
  144.3560  161.7550  133.8180 C   0  0  0  0  0  0  0  0  0  0  0  0
  145.3290  162.4470  134.2150 O   0  0  0  0  0  0  0  0  0  0  0  0
  143.2080  162.3940  133.3660 O   0  0  0  0  0  0  0  0  0  0  0  0
  141.3690  161.2440  133.4250 H   0  0  0  0  0  0  0  0  0  0  0  0
  143.3532  157.1900  134.1034 H   0  0  0  0  0  0  0  0  0  0  0  0
  145.8328  156.1973  133.0904 H   0  0  0  0  0  0  0  0  0  0  0  0
  148.0636  156.9307  132.1902 H   0  0  0  0  0  0  0  0  0  0  0  0
  146.9366  161.0997  132.7860 H   0  0  0  0  0  0  0  0  0  0  0  0
  1  2  1  0
  2  3  2  0
  2  4  1  0
  4  5  2  0
  5  6  1  0
  6  7  2  0
  7  8  1  0
  8  9  2  0
  9 10  1  0
 10 11  1  0
 10 12  1  0
 10 13  1  0
  9 14  1  0
 14 15  2  0
 15 16  1  0
 16 17  1  0
 17 18  2  0
 17 19  1  0
 16  4  1  0
 15  6  1  0
  1 20  1  0
  5 21  1  0
  7 22  1  0
  8 23  1  0
 14 24  1  0
M  CHG  2   1  -1  19  -1
M  END
>  <UniqueID>  (32) 
32

>  <SMILES>  (32) 
[NH-]C(=O)c1cc2ccc(C(F)(F)F)cc2n1C(=O)[O-]

>  <Energy>  (32) 
64.66960723793866

>  <Genealogy>  (32) 
[NH-]C(=O)c1cc2ccc(C(F)(F)F)cc2n1C(=O)[O-] (protonated)
[NH-]C(=O)c1cc2ccc(C(F)(F)F)cc2n1C(=O)[O-] (3D coordinates assigned)
[NH-]C(=O)c1cc2ccc(C(F)(F)F)cc2n1C(=O)[O-] (optimized conformer: 64.66960723793866 kcal/mol)

>  <smiles>  (32) 
NC(=O)c1cc2ccc(C(F)(F)F)cc2n1C(=O)O

>  <score_type>  (32) 
oracle

>  <origin>  (32) 
adg

>  <m_score__min__energy>  (32) 
-5.0800000000000001

>  <m_primary>  (32) 
energy

$$$$
33:0
     RDKit          3D

 54 56  0  0  0  0  0  0  0  0999 V2000
  139.0150  158.5960  132.0010 C   0  0  0  0  0  0  0  0  0  0  0  0
  139.0980  157.3410  132.8770 C   0  0  0  0  0  0  0  0  0  0  0  0
  139.7190  157.5790  134.1970 N   0  0  0  0  0  0  0  0  0  0  0  0
  140.1240  158.9890  134.4240 C   0  0  0  0  0  0  0  0  0  0  0  0
  141.3910  159.1090  135.2670 C   0  0  0  0  0  0  0  0  0  0  0  0
  142.4330  158.2720  134.6720 N   0  0  0  0  0  0  0  0  0  0  0  0
  143.6450  158.8540  134.1630 C   0  0  0  0  0  0  0  0  0  0  0  0
  143.7820  160.2610  134.0860 C   0  0  0  0  0  0  0  0  0  0  0  0
  144.9720  160.8400  133.6090 C   0  0  0  0  0  0  0  0  0  0  0  0
  146.0090  159.9880  133.2380 C   0  0  0  0  0  0  0  0  0  0  0  0
  147.2620  160.2740  132.7450 C   0  0  0  0  0  0  0  0  0  0  0  0
  147.8820  159.0380  132.5680 C   0  0  0  0  0  0  0  0  0  0  0  0
  149.2890  158.8860  132.1380 C   0  0  0  0  0  0  0  0  0  0  0  0
  149.8590  157.5840  132.0270 N   0  0  0  0  0  0  0  0  0  0  0  0
  149.9840  159.8900  131.8360 O   0  0  0  0  0  0  0  0  0  0  0  0
  147.0420  158.0270  132.9310 N   0  0  0  0  0  0  0  0  0  0  0  0
  147.2780  156.6120  132.8850 C   0  0  0  0  0  0  0  0  0  0  0  0
  147.2220  156.0020  131.7840 O   0  0  0  0  0  0  0  0  0  0  0  0
  147.5300  155.9230  134.0810 O   0  0  0  0  0  0  0  0  0  0  0  0
  147.2220  154.5510  134.3580 C   0  0  0  0  0  0  0  0  0  0  0  0
  147.4150  154.2420  135.8560 C   0  0  0  0  0  0  0  0  0  0  0  0
  145.7450  154.3370  133.9910 C   0  0  0  0  0  0  0  0  0  0  0  0
  148.0880  153.6170  133.4930 C   0  0  0  0  0  0  0  0  0  0  0  0
  145.9010  158.6260  133.3370 C   0  0  0  0  0  0  0  0  0  0  0  0
  144.7200  158.0230  133.7800 C   0  0  0  0  0  0  0  0  0  0  0  0
  142.1380  156.8670  134.3760 C   0  0  0  0  0  0  0  0  0  0  0  0
  140.6600  156.5250  134.6510 C   0  0  0  0  0  0  0  0  0  0  0  0
  138.9560  159.4876  132.6425 H   0  0  0  0  0  0  0  0  0  0  0  0
  139.9109  158.6598  131.3659 H   0  0  0  0  0  0  0  0  0  0  0  0
  138.1185  158.5412  131.3659 H   0  0  0  0  0  0  0  0  0  0  0  0
  138.0783  156.9604  133.0363 H   0  0  0  0  0  0  0  0  0  0  0  0
  139.7366  156.6196  132.3462 H   0  0  0  0  0  0  0  0  0  0  0  0
  140.3037  159.4650  133.4487 H   0  0  0  0  0  0  0  0  0  0  0  0
  139.3104  159.4842  134.9743 H   0  0  0  0  0  0  0  0  0  0  0  0
  141.7246  160.1570  135.2863 H   0  0  0  0  0  0  0  0  0  0  0  0
  141.1882  158.7787  136.2964 H   0  0  0  0  0  0  0  0  0  0  0  0
  142.9501  160.9075  134.4021 H   0  0  0  0  0  0  0  0  0  0  0  0
  145.0800  161.9319  133.5315 H   0  0  0  0  0  0  0  0  0  0  0  0
  147.6846  161.2676  132.5351 H   0  0  0  0  0  0  0  0  0  0  0  0
  149.2640  156.7550  131.8030 H   0  0  0  0  0  0  0  0  0  0  0  0
  146.9271  155.0232  136.4574 H   0  0  0  0  0  0  0  0  0  0  0  0
  146.9660  153.2654  136.0897 H   0  0  0  0  0  0  0  0  0  0  0  0
  148.4896  154.2170  136.0897 H   0  0  0  0  0  0  0  0  0  0  0  0
  145.1475  154.2504  134.9105 H   0  0  0  0  0  0  0  0  0  0  0  0
  145.3864  155.1926  133.3999 H   0  0  0  0  0  0  0  0  0  0  0  0
  145.6439  153.4148  133.3999 H   0  0  0  0  0  0  0  0  0  0  0  0
  148.6904  152.9673  134.1449 H   0  0  0  0  0  0  0  0  0  0  0  0
  147.4376  152.9975  132.8580 H   0  0  0  0  0  0  0  0  0  0  0  0
  148.7548  154.2189  132.8580 H   0  0  0  0  0  0  0  0  0  0  0  0
  144.6306  156.9277  133.8289 H   0  0  0  0  0  0  0  0  0  0  0  0
  142.3578  156.6722  133.3160 H   0  0  0  0  0  0  0  0  0  0  0  0
  142.7626  156.2402  135.0295 H   0  0  0  0  0  0  0  0  0  0  0  0
  140.4150  155.5892  134.1274 H   0  0  0  0  0  0  0  0  0  0  0  0
  140.5444  156.4327  135.7410 H   0  0  0  0  0  0  0  0  0  0  0  0
  1  2  1  0
  2  3  1  0
  3  4  1  0
  4  5  1  0
  5  6  1  0
  6  7  1  0
  7  8  2  0
  8  9  1  0
  9 10  2  0
 10 11  1  0
 11 12  2  0
 12 13  1  0
 13 14  1  0
 13 15  2  0
 12 16  1  0
 16 17  1  0
 17 18  2  0
 17 19  1  0
 19 20  1  0
 20 21  1  0
 20 22  1  0
 20 23  1  0
 16 24  1  0
 24 25  2  0
  6 26  1  0
 26 27  1  0
 27  3  1  0
 25  7  1  0
 24 10  1  0
  1 28  1  0
  1 29  1  0
  1 30  1  0
  2 31  1  0
  2 32  1  0
  4 33  1  0
  4 34  1  0
  5 35  1  0
  5 36  1  0
  8 37  1  0
  9 38  1  0
 11 39  1  0
 14 40  1  0
 21 41  1  0
 21 42  1  0
 21 43  1  0
 22 44  1  0
 22 45  1  0
 22 46  1  0
 23 47  1  0
 23 48  1  0
 23 49  1  0
 25 50  1  0
 26 51  1  0
 26 52  1  0
 27 53  1  0
 27 54  1  0
M  CHG  1  14  -1
M  END
>  <UniqueID>  (33) 
33

>  <SMILES>  (33) 
CCN1CCN(c2ccc3cc(C([NH-])=O)n(C(=O)OC(C)(C)C)c3c2)CC1

>  <Energy>  (33) 
100.2574460479696

>  <Genealogy>  (33) 
CCN1CCN(c2ccc3cc(C([NH-])=O)n(C(=O)OC(C)(C)C)c3c2)CC1 (protonated)
CCN1CCN(c2ccc3cc(C([NH-])=O)n(C(=O)OC(C)(C)C)c3c2)CC1 (3D coordinates assigned)
CCN1CCN(c2ccc3cc(C([NH-])=O)n(C(=O)OC(C)(C)C)c3c2)CC1 (nonaromatic ring conformer: 100.2574460479696 kcal/mol)

>  <smiles>  (33) 
CCN1CCN(c2ccc3cc(C(N)=O)n(C(=O)OC(C)(C)C)c3c2)CC1

>  <score_type>  (33) 
oracle

>  <origin>  (33) 
adg

>  <m_score__min__energy>  (33) 
-7.8200000000000003

>  <m_primary>  (33) 
energy

$$$$
34:0
     RDKit          3D

 57 59  0  0  0  0  0  0  0  0999 V2000
  144.3610  154.5600  131.6710 C   0  0  0  0  0  0  0  0  0  0  0  0
  144.1200  155.3610  132.9410 C   0  0  0  0  0  0  0  0  0  0  0  0
  142.8630  156.0230  132.8540 O   0  0  0  0  0  0  0  0  0  0  0  0
  142.6770  157.3480  133.2630 C   0  0  0  0  0  0  0  0  0  0  0  0
  143.3110  158.2810  132.7000 O   0  0  0  0  0  0  0  0  0  0  0  0
  141.7690  157.6420  134.3350 N   0  0  0  0  0  0  0  0  0  0  0  0
  140.7770  158.5780  134.3540 C   0  0  0  0  0  0  0  0  0  0  0  0
  140.5380  159.6110  133.3250 C   0  0  0  0  0  0  0  0  0  0  0  0
  141.5830  160.4830  132.9040 N   0  0  0  0  0  0  0  0  0  0  0  0
  139.3820  159.7560  132.8420 O   0  0  0  0  0  0  0  0  0  0  0  0
  140.0420  158.4890  135.5340 C   0  0  0  0  0  0  0  0  0  0  0  0
  140.6240  157.4660  136.2500 C   0  0  0  0  0  0  0  0  0  0  0  0
  140.2830  156.9370  137.4910 C   0  0  0  0  0  0  0  0  0  0  0  0
  141.0370  155.8550  137.9740 C   0  0  0  0  0  0  0  0  0  0  0  0
  142.1080  155.3230  137.2120 C   0  0  0  0  0  0  0  0  0  0  0  0
  142.8810  154.1330  137.7180 C   0  0  0  0  0  0  0  0  0  0  0  0
  143.2380  153.1590  136.5750 C   0  0  2  0  0  0  0  0  0  0  0  0
  144.2060  153.7550  135.6530 N   0  0  0  0  0  0  0  0  0  0  0  0
  145.5530  154.1000  135.9930 C   0  0  0  0  0  0  0  0  0  0  0  0
  146.2210  153.3200  136.7220 O   0  0  0  0  0  0  0  0  0  0  0  0
  146.1150  155.2910  135.5200 O   0  0  0  0  0  0  0  0  0  0  0  0
  147.2200  155.3340  134.6220 C   0  0  0  0  0  0  0  0  0  0  0  0
  147.3000  156.6880  133.9720 C   0  0  0  0  0  0  0  0  0  0  0  0
  148.4270  157.0540  133.2150 C   0  0  0  0  0  0  0  0  0  0  0  0
  148.4740  158.3000  132.5820 C   0  0  0  0  0  0  0  0  0  0  0  0
  147.3970  159.1860  132.6960 C   0  0  0  0  0  0  0  0  0  0  0  0
  146.2700  158.8260  133.4420 C   0  0  0  0  0  0  0  0  0  0  0  0
  146.2190  157.5800  134.0770 C   0  0  0  0  0  0  0  0  0  0  0  0
  142.0200  152.6870  135.8230 C   0  0  0  0  0  0  0  0  0  0  0  0
  141.3060  151.7690  136.3160 O   0  0  0  0  0  0  0  0  0  0  0  0
  141.6590  153.2870  134.6100 O   0  0  0  0  0  0  0  0  0  0  0  0
  141.9170  152.6820  133.3480 C   0  0  0  0  0  0  0  0  0  0  0  0
  142.4190  155.8820  135.9530 C   0  0  0  0  0  0  0  0  0  0  0  0
  141.6630  156.9720  135.5050 C   0  0  0  0  0  0  0  0  0  0  0  0
  144.6686  153.5375  131.9352 H   0  0  0  0  0  0  0  0  0  0  0  0
  143.4343  154.5228  131.0796 H   0  0  0  0  0  0  0  0  0  0  0  0
  145.1544  155.0403  131.0796 H   0  0  0  0  0  0  0  0  0  0  0  0
  144.1179  154.6829  133.8071 H   0  0  0  0  0  0  0  0  0  0  0  0
  144.9194  156.1071  133.0608 H   0  0  0  0  0  0  0  0  0  0  0  0
  142.3150  160.1590  132.2330 H   0  0  0  0  0  0  0  0  0  0  0  0
  139.1802  159.1047  135.8309 H   0  0  0  0  0  0  0  0  0  0  0  0
  139.4491  157.3531  138.0754 H   0  0  0  0  0  0  0  0  0  0  0  0
  140.7944  155.4160  138.9530 H   0  0  0  0  0  0  0  0  0  0  0  0
  143.8101  154.4853  138.1899 H   0  0  0  0  0  0  0  0  0  0  0  0
  142.2509  153.5965  138.4427 H   0  0  0  0  0  0  0  0  0  0  0  0
  143.6974  152.2779  137.0469 H   0  0  0  0  0  0  0  0  0  0  0  0
  148.1493  155.1410  135.1779 H   0  0  0  0  0  0  0  0  0  0  0  0
  147.0849  154.5671  133.8451 H   0  0  0  0  0  0  0  0  0  0  0  0
  149.2739  156.3584  133.1205 H   0  0  0  0  0  0  0  0  0  0  0  0
  149.3589  158.5841  131.9936 H   0  0  0  0  0  0  0  0  0  0  0  0
  147.4367  160.1663  132.1986 H   0  0  0  0  0  0  0  0  0  0  0  0
  145.4233  159.5227  133.5296 H   0  0  0  0  0  0  0  0  0  0  0  0
  145.3300  157.2978  134.6602 H   0  0  0  0  0  0  0  0  0  0  0  0
  142.3443  151.6802  133.5022 H   0  0  0  0  0  0  0  0  0  0  0  0
  140.9769  152.5968  132.7832 H   0  0  0  0  0  0  0  0  0  0  0  0
  142.6293  153.3014  132.7832 H   0  0  0  0  0  0  0  0  0  0  0  0
  143.2347  155.4714  135.3397 H   0  0  0  0  0  0  0  0  0  0  0  0
  1  2  1  0
  2  3  1  0
  3  4  1  0
  4  5  2  0
  4  6  1  0
  6  7  1  0
  7  8  1  0
  8  9  1  0
  8 10  2  0
  7 11  2  0
 11 12  1  0
 12 13  2  0
 13 14  1  0
 14 15  2  0
 15 16  1  0
 16 17  1  0
 17 18  1  0
 18 19  1  0
 19 20  2  0
 19 21  1  0
 21 22  1  0
 22 23  1  0
 23 24  2  0
 24 25  1  0
 25 26  2  0
 26 27  1  0
 27 28  2  0
 17 29  1  0
 29 30  2  0
 29 31  1  0
 31 32  1  0
 15 33  1  0
 33 34  2  0
 34  6  1  0
 34 12  1  0
 28 23  1  0
  1 35  1  0
  1 36  1  0
  1 37  1  0
  2 38  1  0
  2 39  1  0
  9 40  1  0
 11 41  1  0
 13 42  1  0
 14 43  1  0
 16 44  1  0
 16 45  1  0
 17 46  1  1
 22 47  1  0
 22 48  1  0
 24 49  1  0
 25 50  1  0
 26 51  1  0
 27 52  1  0
 28 53  1  0
 32 54  1  0
 32 55  1  0
 32 56  1  0
 33 57  1  0
M  CHG  2   9  -1  18  -1
M  END
>  <UniqueID>  (34) 
34

>  <SMILES>  (34) 
CCOC(=O)n1c(C([NH-])=O)cc2ccc(C[C@H]([N-]C(=O)OCc3ccccc3)C(=O)OC)cc21

>  <Energy>  (34) 
84.507817404212

>  <Genealogy>  (34) 
CCOC(=O)n1c(C([NH-])=O)cc2ccc(C[C@H]([N-]C(=O)OCc3ccccc3)C(=O)OC)cc21 (protonated)
CCOC(=O)n1c(C([NH-])=O)cc2ccc(C[C@H]([N-]C(=O)OCc3ccccc3)C(=O)OC)cc21 (3D coordinates assigned)
CCOC(=O)n1c(C([NH-])=O)cc2ccc(C[C@H]([N-]C(=O)OCc3ccccc3)C(=O)OC)cc21 (optimized conformer: 84.507817404212 kcal/mol)

>  <smiles>  (34) 
CCOC(=O)n1c(C(N)=O)cc2ccc(C[C@H](NC(=O)OCc3ccccc3)C(=O)OC)cc21

>  <score_type>  (34) 
oracle

>  <origin>  (34) 
adg

>  <m_score__min__energy>  (34) 
-8.5199999999999996

>  <m_primary>  (34) 
energy

$$$$
35:0
     RDKit          3D

 51 53  0  0  0  0  0  0  0  0999 V2000
  149.5540  161.0230  130.5400 C   0  0  0  0  0  0  0  0  0  0  0  0
  148.7430  159.7950  130.9820 C   0  0  1  0  0  0  0  0  0  0  0  0
  149.2320  158.6180  130.3860 O   0  0  0  0  0  0  0  0  0  0  0  0
  148.6510  159.6520  132.5150 C   0  0  0  0  0  0  0  0  0  0  0  0
  147.4100  158.9300  132.9780 C   0  0  0  0  0  0  0  0  0  0  0  0
  146.1360  159.5370  132.8390 C   0  0  0  0  0  0  0  0  0  0  0  0
  144.9740  158.8670  133.2570 C   0  0  0  0  0  0  0  0  0  0  0  0
  145.1160  157.6020  133.8180 C   0  0  0  0  0  0  0  0  0  0  0  0
  144.1640  156.7300  134.2930 C   0  0  0  0  0  0  0  0  0  0  0  0
  144.8710  155.6150  134.7390 C   0  0  0  0  0  0  0  0  0  0  0  0
  144.2350  154.4490  135.3910 C   0  0  0  0  0  0  0  0  0  0  0  0
  144.6770  153.9860  136.6640 N   0  0  0  0  0  0  0  0  0  0  0  0
  143.2670  153.8720  134.8280 O   0  0  0  0  0  0  0  0  0  0  0  0
  146.2080  155.7890  134.5410 N   0  0  0  0  0  0  0  0  0  0  0  0
  147.2660  154.8640  134.8400 C   0  0  0  0  0  0  0  0  0  0  0  0
  147.8030  154.2100  133.9060 O   0  0  0  0  0  0  0  0  0  0  0  0
  147.7660  154.6840  136.2420 C   0  0  0  0  0  0  0  0  0  0  0  0
  147.4350  153.3910  136.7050 O   0  0  0  0  0  0  0  0  0  0  0  0
  148.5240  152.8070  137.4020 C   0  0  0  0  0  0  0  0  0  0  0  0
  149.3260  153.9190  138.1290 C   0  0  0  0  0  0  0  0  0  0  0  0
  149.9820  153.4050  139.4140 C   0  0  0  0  0  0  0  0  0  0  0  0
  148.9280  152.9090  140.4260 C   0  0  0  0  0  0  0  0  0  0  0  0
  147.6590  152.3420  139.7570 C   0  0  0  0  0  0  0  0  0  0  0  0
  147.9680  151.7450  138.3800 C   0  0  0  0  0  0  0  0  0  0  0  0
  146.3410  157.0080  133.9730 C   0  0  0  0  0  0  0  0  0  0  0  0
  147.5110  157.6400  133.5420 C   0  0  0  0  0  0  0  0  0  0  0  0
  149.9119  161.5650  131.4278 H   0  0  0  0  0  0  0  0  0  0  0  0
  150.4148  160.6966  129.9379 H   0  0  0  0  0  0  0  0  0  0  0  0
  148.9159  161.6865  129.9379 H   0  0  0  0  0  0  0  0  0  0  0  0
  147.7152  159.9589  130.6258 H   0  0  0  0  0  0  0  0  0  0  0  0
  148.6500  157.8670  130.6710 H   0  0  0  0  0  0  0  0  0  0  0  0
  149.5307  159.0927  132.8660 H   0  0  0  0  0  0  0  0  0  0  0  0
  148.6092  160.6686  132.9331 H   0  0  0  0  0  0  0  0  0  0  0  0
  146.0568  160.5423  132.3996 H   0  0  0  0  0  0  0  0  0  0  0  0
  143.9820  159.3287  133.1441 H   0  0  0  0  0  0  0  0  0  0  0  0
  143.0747  156.8810  134.3159 H   0  0  0  0  0  0  0  0  0  0  0  0
  145.5200  154.3970  137.1210 H   0  0  0  0  0  0  0  0  0  0  0  0
  148.8587  154.8096  136.2591 H   0  0  0  0  0  0  0  0  0  0  0  0
  147.2968  155.4350  136.8945 H   0  0  0  0  0  0  0  0  0  0  0  0
  149.2167  152.3055  136.7102 H   0  0  0  0  0  0  0  0  0  0  0  0
  150.1107  154.2906  137.4535 H   0  0  0  0  0  0  0  0  0  0  0  0
  148.6245  154.7210  138.4024 H   0  0  0  0  0  0  0  0  0  0  0  0
  150.6564  152.5730  139.1632 H   0  0  0  0  0  0  0  0  0  0  0  0
  150.5390  154.2347  139.8736 H   0  0  0  0  0  0  0  0  0  0  0  0
  149.3807  152.1183  141.0423 H   0  0  0  0  0  0  0  0  0  0  0  0
  148.6193  153.7772  141.0267 H   0  0  0  0  0  0  0  0  0  0  0  0
  147.2366  151.5562  140.4005 H   0  0  0  0  0  0  0  0  0  0  0  0
  146.9426  153.1659  139.6227 H   0  0  0  0  0  0  0  0  0  0  0  0
  148.7141  150.9454  138.4984 H   0  0  0  0  0  0  0  0  0  0  0  0
  147.0298  151.3531  137.9602 H   0  0  0  0  0  0  0  0  0  0  0  0
  148.4877  157.1436  133.6401 H   0  0  0  0  0  0  0  0  0  0  0  0
  1  2  1  0
  2  3  1  0
  2  4  1  0
  4  5  1  0
  5  6  2  0
  6  7  1  0
  7  8  2  0
  8  9  1  0
  9 10  2  0
 10 11  1  0
 11 12  1  0
 11 13  2  0
 10 14  1  0
 14 15  1  0
 15 16  2  0
 15 17  1  0
 17 18  1  0
 18 19  1  0
 19 20  1  0
 20 21  1  0
 21 22  1  0
 22 23  1  0
 23 24  1  0
 14 25  1  0
 25 26  2  0
 26  5  1  0
 25  8  1  0
 24 19  1  0
  1 27  1  0
  1 28  1  0
  1 29  1  0
  2 30  1  6
  3 31  1  0
  4 32  1  0
  4 33  1  0
  6 34  1  0
  7 35  1  0
  9 36  1  0
 12 37  1  0
 17 38  1  0
 17 39  1  0
 19 40  1  0
 20 41  1  0
 20 42  1  0
 21 43  1  0
 21 44  1  0
 22 45  1  0
 22 46  1  0
 23 47  1  0
 23 48  1  0
 24 49  1  0
 24 50  1  0
 26 51  1  0
M  CHG  1  12  -1
M  END
>  <UniqueID>  (35) 
35

>  <SMILES>  (35) 
C[C@@H](O)Cc1ccc2cc(C([NH-])=O)n(C(=O)COC3CCCCC3)c2c1

>  <Energy>  (35) 
90.03067628356345

>  <Genealogy>  (35) 
CC(O)Cc1ccc2cc(C([NH-])=O)n(C(=O)COC3CCCCC3)c2c1 (protonated)
C[C@@H](O)Cc1ccc2cc(C([NH-])=O)n(C(=O)COC3CCCCC3)c2c1 (chirality)
C[C@@H](O)Cc1ccc2cc(C([NH-])=O)n(C(=O)COC3CCCCC3)c2c1 (3D coordinates assigned)
C[C@@H](O)Cc1ccc2cc(C([NH-])=O)n(C(=O)COC3CCCCC3)c2c1 (nonaromatic ring conformer: 90.03067628356345 kcal/mol)

>  <smiles>  (35) 
CC(O)Cc1ccc2cc(C(N)=O)n(C(=O)COC3CCCCC3)c2c1

>  <score_type>  (35) 
oracle

>  <origin>  (35) 
adg

>  <m_score__min__energy>  (35) 
-8.8000000000000007

>  <m_primary>  (35) 
energy

$$$$
36:0
     RDKit          3D

 47 49  0  0  0  0  0  0  0  0999 V2000
  147.6220  154.6050  134.4350 C   0  0  0  0  0  0  0  0  0  0  0  0
  146.4430  154.3040  133.5460 C   0  0  0  0  0  0  0  0  0  0  0  0
  146.0670  153.0030  133.3630 N   0  0  0  0  0  0  0  0  0  0  0  0
  145.0280  152.6610  132.5550 C   0  0  0  0  0  0  0  0  0  0  0  0
  144.3060  153.6460  131.8850 C   0  0  0  0  0  0  0  0  0  0  0  0
  144.6500  154.9840  132.0610 C   0  0  0  0  0  0  0  0  0  0  0  0
  145.7120  155.3360  132.9060 C   0  0  0  0  0  0  0  0  0  0  0  0
  146.0320  156.7690  133.0940 C   0  0  0  0  0  0  0  0  0  0  0  0
  147.3620  157.2260  132.9190 C   0  0  0  0  0  0  0  0  0  0  0  0
  147.6820  158.5820  133.0990 C   0  0  0  0  0  0  0  0  0  0  0  0
  146.6540  159.4570  133.4370 C   0  0  0  0  0  0  0  0  0  0  0  0
  146.6900  160.8070  133.7000 C   0  0  0  0  0  0  0  0  0  0  0  0
  145.3760  161.1610  133.9980 C   0  0  0  0  0  0  0  0  0  0  0  0
  144.9490  162.5490  134.2690 C   0  0  0  0  0  0  0  0  0  0  0  0
  143.9760  163.1890  133.4500 N   0  0  0  0  0  0  0  0  0  0  0  0
  145.4860  163.1940  135.2090 O   0  0  0  0  0  0  0  0  0  0  0  0
  144.5600  160.0720  133.9260 N   0  0  0  0  0  0  0  0  0  0  0  0
  143.1670  159.9970  134.2670 C   0  0  0  0  0  0  0  0  0  0  0  0
  142.3500  160.7890  133.7240 O   0  0  0  0  0  0  0  0  0  0  0  0
  142.7320  159.0250  135.1800 O   0  0  0  0  0  0  0  0  0  0  0  0
  141.6320  158.1210  135.0010 C   0  0  0  0  0  0  0  0  0  0  0  0
  142.0940  156.7420  135.4960 C   0  0  0  0  0  0  0  0  0  0  0  0
  141.2550  158.0160  133.5110 C   0  0  0  0  0  0  0  0  0  0  0  0
  140.4180  158.5680  135.8390 C   0  0  0  0  0  0  0  0  0  0  0  0
  145.3570  159.0360  133.5810 C   0  0  0  0  0  0  0  0  0  0  0  0
  145.0120  157.6890  133.4230 C   0  0  0  0  0  0  0  0  0  0  0  0
  147.3161  154.5269  135.4887 H   0  0  0  0  0  0  0  0  0  0  0  0
  148.4274  153.8837  134.2326 H   0  0  0  0  0  0  0  0  0  0  0  0
  147.9831  155.6241  134.2326 H   0  0  0  0  0  0  0  0  0  0  0  0
  146.5870  152.2370  133.8470 H   0  0  0  0  0  0  0  0  0  0  0  0
  144.7567  151.6023  132.4300 H   0  0  0  0  0  0  0  0  0  0  0  0
  143.4720  153.3696  131.2231 H   0  0  0  0  0  0  0  0  0  0  0  0
  144.0860  155.7681  131.5347 H   0  0  0  0  0  0  0  0  0  0  0  0
  148.1511  156.5123  132.6397 H   0  0  0  0  0  0  0  0  0  0  0  0
  148.7144  158.9414  132.9764 H   0  0  0  0  0  0  0  0  0  0  0  0
  147.5698  161.4669  133.6793 H   0  0  0  0  0  0  0  0  0  0  0  0
  143.1890  162.6490  133.0270 H   0  0  0  0  0  0  0  0  0  0  0  0
  142.0981  156.7297  136.5959 H   0  0  0  0  0  0  0  0  0  0  0  0
  141.4057  155.9691  135.1233 H   0  0  0  0  0  0  0  0  0  0  0  0
  143.1090  156.5398  135.1233 H   0  0  0  0  0  0  0  0  0  0  0  0
  140.1990  157.7219  133.4198 H   0  0  0  0  0  0  0  0  0  0  0  0
  141.4075  158.9908  133.0246 H   0  0  0  0  0  0  0  0  0  0  0  0
  141.8894  157.2604  133.0246 H   0  0  0  0  0  0  0  0  0  0  0  0
  140.6583  158.4795  136.9088 H   0  0  0  0  0  0  0  0  0  0  0  0
  140.1750  159.6146  135.6031 H   0  0  0  0  0  0  0  0  0  0  0  0
  139.5543  157.9289  135.6031 H   0  0  0  0  0  0  0  0  0  0  0  0
  143.9719  157.3549  133.5519 H   0  0  0  0  0  0  0  0  0  0  0  0
  1  2  1  0
  2  3  2  0
  3  4  1  0
  4  5  2  0
  5  6  1  0
  6  7  2  0
  7  8  1  0
  8  9  2  0
  9 10  1  0
 10 11  2  0
 11 12  1  0
 12 13  2  0
 13 14  1  0
 14 15  1  0
 14 16  2  0
 13 17  1  0
 17 18  1  0
 18 19  2  0
 18 20  1  0
 20 21  1  0
 21 22  1  0
 21 23  1  0
 21 24  1  0
 17 25  1  0
 25 26  2  0
  7  2  1  0
 26  8  1  0
 25 11  1  0
  1 27  1  0
  1 28  1  0
  1 29  1  0
  3 30  1  0
  4 31  1  0
  5 32  1  0
  6 33  1  0
  9 34  1  0
 10 35  1  0
 12 36  1  0
 15 37  1  0
 22 38  1  0
 22 39  1  0
 22 40  1  0
 23 41  1  0
 23 42  1  0
 23 43  1  0
 24 44  1  0
 24 45  1  0
 24 46  1  0
 26 47  1  0
M  CHG  2   3   1  15  -1
M  END
>  <UniqueID>  (36) 
36

>  <SMILES>  (36) 
Cc1[nH+]cccc1-c1ccc2cc(C([NH-])=O)n(C(=O)OC(C)(C)C)c2c1

>  <Energy>  (36) 
90.17078878508434

>  <Genealogy>  (36) 
Cc1[nH+]cccc1-c1ccc2cc(C([NH-])=O)n(C(=O)OC(C)(C)C)c2c1 (protonated)
Cc1[nH+]cccc1-c1ccc2cc(C([NH-])=O)n(C(=O)OC(C)(C)C)c2c1 (3D coordinates assigned)
Cc1[nH+]cccc1-c1ccc2cc(C([NH-])=O)n(C(=O)OC(C)(C)C)c2c1 (optimized conformer: 90.17078878508434 kcal/mol)

>  <smiles>  (36) 
Cc1ncccc1-c1ccc2cc(C(N)=O)n(C(=O)OC(C)(C)C)c2c1

>  <score_type>  (36) 
oracle

>  <origin>  (36) 
adg

>  <m_score__min__energy>  (36) 
-7.8399999999999999

>  <m_primary>  (36) 
energy

$$$$
37:0
     RDKit          3D

 29 30  0  0  0  0  0  0  0  0999 V2000
  144.3640  161.5830  133.8720 C   0  0  0  0  0  0  0  0  0  0  0  0
  145.2600  160.5160  134.1550 O   0  0  0  0  0  0  0  0  0  0  0  0
  145.4070  159.4100  133.3120 C   0  0  0  0  0  0  0  0  0  0  0  0
  144.4150  158.9660  132.6710 O   0  0  0  0  0  0  0  0  0  0  0  0
  146.6950  158.7870  133.1730 N   0  0  0  0  0  0  0  0  0  0  0  0
  147.0570  157.5430  133.5960 C   0  0  0  0  0  0  0  0  0  0  0  0
  146.2500  156.6500  134.4520 C   0  0  0  0  0  0  0  0  0  0  0  0
  144.8240  156.6470  134.3780 N   0  0  0  0  0  0  0  0  0  0  0  0
  146.8250  155.9220  135.3040 O   0  0  0  0  0  0  0  0  0  0  0  0
  148.3390  157.2250  133.1550 C   0  0  0  0  0  0  0  0  0  0  0  0
  148.7640  158.3280  132.4500 C   0  0  0  0  0  0  0  0  0  0  0  0
  149.9620  158.5520  131.7820 C   0  0  0  0  0  0  0  0  0  0  0  0
  150.1180  159.7700  131.0990 C   0  0  0  0  0  0  0  0  0  0  0  0
  149.0710  160.7230  131.0790 C   0  0  0  0  0  0  0  0  0  0  0  0
  149.2560  162.0240  130.3570 C   0  0  0  0  0  0  0  0  0  0  0  0
  147.8750  160.4700  131.7830 C   0  0  0  0  0  0  0  0  0  0  0  0
  147.7530  159.2570  132.4730 C   0  0  0  0  0  0  0  0  0  0  0  0
  144.0002  162.0163  134.8153 H   0  0  0  0  0  0  0  0  0  0  0  0
  144.8871  162.3567  133.2908 H   0  0  0  0  0  0  0  0  0  0  0  0
  143.5115  161.2015  133.2908 H   0  0  0  0  0  0  0  0  0  0  0  0
  144.2690  155.9900  134.9700 H   0  0  0  0  0  0  0  0  0  0  0  0
  144.3110  157.3540  133.8060 H   0  0  0  0  0  0  0  0  0  0  0  0
  148.8935  156.2917  133.3322 H   0  0  0  0  0  0  0  0  0  0  0  0
  150.7636  157.7987  131.7878 H   0  0  0  0  0  0  0  0  0  0  0  0
  151.0613  159.9849  130.5755 H   0  0  0  0  0  0  0  0  0  0  0  0
  149.3715  162.8366  131.0894 H   0  0  0  0  0  0  0  0  0  0  0  0
  150.1553  161.9685  129.7260 H   0  0  0  0  0  0  0  0  0  0  0  0
  148.3769  162.2214  129.7260 H   0  0  0  0  0  0  0  0  0  0  0  0
  147.0584  161.2070  131.7900 H   0  0  0  0  0  0  0  0  0  0  0  0
  1  2  1  0
  2  3  1  0
  3  4  2  0
  3  5  1  0
  5  6  1  0
  6  7  1  0
  7  8  1  0
  7  9  2  0
  6 10  2  0
 10 11  1  0
 11 12  2  0
 12 13  1  0
 13 14  2  0
 14 15  1  0
 14 16  1  0
 16 17  2  0
 17  5  1  0
 17 11  1  0
  1 18  1  0
  1 19  1  0
  1 20  1  0
  8 21  1  0
  8 22  1  0
 10 23  1  0
 12 24  1  0
 13 25  1  0
 15 26  1  0
 15 27  1  0
 15 28  1  0
 16 29  1  0
M  END
>  <UniqueID>  (37) 
37

>  <SMILES>  (37) 
COC(=O)n1c(C(N)=O)cc2ccc(C)cc21

>  <Energy>  (37) 
65.9077258404649

>  <Genealogy>  (37) 
COC(=O)n1c(C(N)=O)cc2ccc(C)cc21 (3D coordinates assigned)
COC(=O)n1c(C(N)=O)cc2ccc(C)cc21 (optimized conformer: 65.9077258404649 kcal/mol)

>  <smiles>  (37) 
COC(=O)n1c(C(N)=O)cc2ccc(C)cc21

>  <score_type>  (37) 
oracle

>  <origin>  (37) 
adg

>  <m_score__min__energy>  (37) 
-5.6600000000000001

>  <m_primary>  (37) 
energy

$$$$
38:0
     RDKit          3D

 46 48  0  0  0  0  0  0  0  0999 V2000
  141.4630  160.3540  132.7280 N   0  0  0  0  0  0  0  0  0  0  0  0
  142.2810  160.1790  133.8830 C   0  0  0  0  0  0  0  0  0  0  0  0
  141.8330  160.5090  135.0120 O   0  0  0  0  0  0  0  0  0  0  0  0
  143.6280  159.5870  133.7450 C   0  0  0  0  0  0  0  0  0  0  0  0
  144.8100  160.3010  133.9340 C   0  0  0  0  0  0  0  0  0  0  0  0
  145.8230  159.4130  133.6530 C   0  0  0  0  0  0  0  0  0  0  0  0
  147.2050  159.5870  133.6990 C   0  0  0  0  0  0  0  0  0  0  0  0
  148.0170  158.4810  133.3900 C   0  0  0  0  0  0  0  0  0  0  0  0
  147.4340  157.2370  133.0540 C   0  0  0  0  0  0  0  0  0  0  0  0
  148.2770  156.1110  132.7550 C   0  0  0  0  0  0  0  0  0  0  0  0
  148.9870  155.1680  132.5060 C   0  0  0  0  0  0  0  0  0  0  0  0
  149.8430  154.0150  132.2030 C   0  0  0  0  0  0  0  0  0  0  0  0
  149.1030  152.7560  132.4340 N   0  0  0  0  0  0  0  0  0  0  0  0
  147.7800  153.0520  133.0230 C   0  0  0  0  0  0  0  0  0  0  0  0
  146.6770  152.1220  132.4880 C   0  0  0  0  0  0  0  0  0  0  0  0
  147.2430  150.8250  131.8930 C   0  0  0  0  0  0  0  0  0  0  0  0
  148.1150  150.0120  132.8640 C   0  0  0  0  0  0  0  0  0  0  0  0
  149.6090  150.3790  132.8970 C   0  0  0  0  0  0  0  0  0  0  0  0
  149.8900  151.8350  133.2880 C   0  0  0  0  0  0  0  0  0  0  0  0
  146.0330  157.0950  133.0180 C   0  0  0  0  0  0  0  0  0  0  0  0
  145.2490  158.2170  133.3100 C   0  0  0  0  0  0  0  0  0  0  0  0
  143.9020  158.3070  133.3600 N   0  0  0  0  0  0  0  0  0  0  0  0
  142.9680  157.2440  133.1180 C   0  0  0  0  0  0  0  0  0  0  0  0
  141.8530  157.4460  132.2480 N   0  0  0  0  0  0  0  0  0  0  0  0
  143.1330  156.1220  133.6670 O   0  0  0  0  0  0  0  0  0  0  0  0
  141.6810  159.8580  131.8350 H   0  0  0  0  0  0  0  0  0  0  0  0
  144.9116  161.3519  134.2425 H   0  0  0  0  0  0  0  0  0  0  0  0
  147.6464  160.5579  133.9683 H   0  0  0  0  0  0  0  0  0  0  0  0
  149.1120  158.5841  133.4098 H   0  0  0  0  0  0  0  0  0  0  0  0
  150.1586  154.0632  131.1504 H   0  0  0  0  0  0  0  0  0  0  0  0
  150.7246  154.0394  132.8605 H   0  0  0  0  0  0  0  0  0  0  0  0
  147.8446  152.9316  134.1145 H   0  0  0  0  0  0  0  0  0  0  0  0
  147.5129  154.0824  132.7456 H   0  0  0  0  0  0  0  0  0  0  0  0
  145.9996  151.8648  133.3156 H   0  0  0  0  0  0  0  0  0  0  0  0
  146.1478  152.6564  131.6853 H   0  0  0  0  0  0  0  0  0  0  0  0
  146.3993  150.1940  131.5767 H   0  0  0  0  0  0  0  0  0  0  0  0
  147.8934  151.1195  131.0562 H   0  0  0  0  0  0  0  0  0  0  0  0
  147.7113  150.1528  133.8775 H   0  0  0  0  0  0  0  0  0  0  0  0
  148.0724  148.9738  132.5030 H   0  0  0  0  0  0  0  0  0  0  0  0
  150.1093  149.7236  133.6251 H   0  0  0  0  0  0  0  0  0  0  0  0
  149.9896  150.2474  131.8733 H   0  0  0  0  0  0  0  0  0  0  0  0
  149.6113  151.9886  134.3410 H   0  0  0  0  0  0  0  0  0  0  0  0
  150.9610  152.0436  133.1484 H   0  0  0  0  0  0  0  0  0  0  0  0
  145.5684  156.1299  132.7676 H   0  0  0  0  0  0  0  0  0  0  0  0
  141.1940  156.6630  132.0460 H   0  0  0  0  0  0  0  0  0  0  0  0
  141.6630  158.3870  131.8400 H   0  0  0  0  0  0  0  0  0  0  0  0
  1  2  1  0
  2  3  2  0
  2  4  1  0
  4  5  2  0
  5  6  1  0
  6  7  2  0
  7  8  1  0
  8  9  2  0
  9 10  1  0
 10 11  3  0
 11 12  1  0
 12 13  1  0
 13 14  1  0
 14 15  1  0
 15 16  1  0
 16 17  1  0
 17 18  1  0
 18 19  1  0
  9 20  1  0
 20 21  2  0
 21 22  1  0
 22 23  1  0
 23 24  1  0
 23 25  2  0
 22  4  1  0
 21  6  1  0
 19 13  1  0
  1 26  1  0
  5 27  1  0
  7 28  1  0
  8 29  1  0
 12 30  1  0
 12 31  1  0
 14 32  1  0
 14 33  1  0
 15 34  1  0
 15 35  1  0
 16 36  1  0
 16 37  1  0
 17 38  1  0
 17 39  1  0
 18 40  1  0
 18 41  1  0
 19 42  1  0
 19 43  1  0
 20 44  1  0
 24 45  1  0
 24 46  1  0
M  CHG  1   1  -1
M  END
>  <UniqueID>  (38) 
38

>  <SMILES>  (38) 
[NH-]C(=O)c1cc2ccc(C#CCN3CCCCCC3)cc2n1C(N)=O

>  <Energy>  (38) 
86.22699638797985

>  <Genealogy>  (38) 
[NH-]C(=O)c1cc2ccc(C#CCN3CCCCCC3)cc2n1C(N)=O (protonated)
[NH-]C(=O)c1cc2ccc(C#CCN3CCCCCC3)cc2n1C(N)=O (3D coordinates assigned)
[NH-]C(=O)c1cc2ccc(C#CCN3CCCCCC3)cc2n1C(N)=O (nonaromatic ring conformer: 86.22699638797985 kcal/mol)

>  <smiles>  (38) 
NC(=O)c1cc2ccc(C#CCN3CCCCCC3)cc2n1C(N)=O

>  <score_type>  (38) 
oracle

>  <origin>  (38) 
adg

>  <m_score__min__energy>  (38) 
-6.6600000000000001

>  <m_primary>  (38) 
energy

$$$$
39:0
     RDKit          3D

 43 45  0  0  0  0  0  0  0  0999 V2000
  143.0150  157.2680  134.8720 C   0  0  0  0  0  0  0  0  0  0  0  0
  143.5120  157.8990  133.6100 C   0  0  0  0  0  0  0  0  0  0  0  0
  142.7460  157.9690  132.6120 O   0  0  0  0  0  0  0  0  0  0  0  0
  144.8160  158.4980  133.5530 N   0  0  0  0  0  0  0  0  0  0  0  0
  145.1320  159.8230  133.5130 C   0  0  0  0  0  0  0  0  0  0  0  0
  144.1880  160.9450  133.6870 C   0  0  0  0  0  0  0  0  0  0  0  0
  142.8050  160.7940  133.3750 N   0  0  0  0  0  0  0  0  0  0  0  0
  144.5990  162.0420  134.1520 O   0  0  0  0  0  0  0  0  0  0  0  0
  146.5090  159.9900  133.3570 C   0  0  0  0  0  0  0  0  0  0  0  0
  147.0260  158.7150  133.3100 C   0  0  0  0  0  0  0  0  0  0  0  0
  148.3410  158.2860  133.1430 C   0  0  0  0  0  0  0  0  0  0  0  0
  148.5800  156.9020  133.0930 C   0  0  0  0  0  0  0  0  0  0  0  0
  147.5100  155.9800  133.2120 C   0  0  0  0  0  0  0  0  0  0  0  0
  147.7740  154.5040  133.0920 C   0  0  0  0  0  0  0  0  0  0  0  0
  146.5500  153.6480  133.4780 C   0  0  0  0  0  0  0  0  0  0  0  0
  145.8070  153.1360  132.2910 N   0  0  0  0  0  0  0  0  0  0  0  0
  145.0900  151.8790  132.5840 C   0  0  0  0  0  0  0  0  0  0  0  0
  143.6430  152.2260  132.9260 C   0  0  0  0  0  0  0  0  0  0  0  0
  143.4930  153.7040  132.6230 C   0  0  0  0  0  0  0  0  0  0  0  0
  144.7530  154.0690  131.8620 C   0  0  0  0  0  0  0  0  0  0  0  0
  146.1900  156.4540  133.3810 C   0  0  0  0  0  0  0  0  0  0  0  0
  145.9850  157.8350  133.4330 C   0  0  0  0  0  0  0  0  0  0  0  0
  143.4345  157.8007  135.7382 H   0  0  0  0  0  0  0  0  0  0  0  0
  141.9169  157.3254  134.9029 H   0  0  0  0  0  0  0  0  0  0  0  0
  143.3281  156.2140  134.9029 H   0  0  0  0  0  0  0  0  0  0  0  0
  142.4920  160.1220  132.6390 H   0  0  0  0  0  0  0  0  0  0  0  0
  147.0627  160.9379  133.2866 H   0  0  0  0  0  0  0  0  0  0  0  0
  149.1662  159.0078  133.0531 H   0  0  0  0  0  0  0  0  0  0  0  0
  149.6069  156.5308  132.9603 H   0  0  0  0  0  0  0  0  0  0  0  0
  148.0469  154.2787  132.0505 H   0  0  0  0  0  0  0  0  0  0  0  0
  148.5879  154.2539  133.7885 H   0  0  0  0  0  0  0  0  0  0  0  0
  146.8947  152.7901  134.0740 H   0  0  0  0  0  0  0  0  0  0  0  0
  145.8625  154.2902  134.0480 H   0  0  0  0  0  0  0  0  0  0  0  0
  146.4660  152.9910  131.4900 H   0  0  0  0  0  0  0  0  0  0  0  0
  145.1172  151.2204  131.7033 H   0  0  0  0  0  0  0  0  0  0  0  0
  145.5658  151.3569  133.4272 H   0  0  0  0  0  0  0  0  0  0  0  0
  142.9506  151.6356  132.3079 H   0  0  0  0  0  0  0  0  0  0  0  0
  143.4091  152.0012  133.9771 H   0  0  0  0  0  0  0  0  0  0  0  0
  142.6006  153.8852  132.0059 H   0  0  0  0  0  0  0  0  0  0  0  0
  143.3678  154.3059  133.5351 H   0  0  0  0  0  0  0  0  0  0  0  0
  144.5811  153.9715  130.7799 H   0  0  0  0  0  0  0  0  0  0  0  0
  145.0454  155.1093  132.0676 H   0  0  0  0  0  0  0  0  0  0  0  0
  145.3459  155.7542  133.4693 H   0  0  0  0  0  0  0  0  0  0  0  0
  1  2  1  0
  2  3  2  0
  2  4  1  0
  4  5  1  0
  5  6  1  0
  6  7  1  0
  6  8  2  0
  5  9  2  0
  9 10  1  0
 10 11  2  0
 11 12  1  0
 12 13  2  0
 13 14  1  0
 14 15  1  0
 15 16  1  0
 16 17  1  0
 17 18  1  0
 18 19  1  0
 19 20  1  0
 13 21  1  0
 21 22  2  0
 22  4  1  0
 22 10  1  0
 20 16  1  0
  1 23  1  0
  1 24  1  0
  1 25  1  0
  7 26  1  0
  9 27  1  0
 11 28  1  0
 12 29  1  0
 14 30  1  0
 14 31  1  0
 15 32  1  0
 15 33  1  0
 16 34  1  0
 17 35  1  0
 17 36  1  0
 18 37  1  0
 18 38  1  0
 19 39  1  0
 19 40  1  0
 20 41  1  0
 20 42  1  0
 21 43  1  0
M  CHG  2   7  -1  16   1
M  END
>  <UniqueID>  (39) 
39

>  <SMILES>  (39) 
CC(=O)n1c(C([NH-])=O)cc2ccc(CC[NH+]3CCCC3)cc21

>  <Energy>  (39) 
86.3108638845492

>  <Genealogy>  (39) 
CC(=O)n1c(C([NH-])=O)cc2ccc(CC[NH+]3CCCC3)cc21 (protonated)
CC(=O)n1c(C([NH-])=O)cc2ccc(CC[NH+]3CCCC3)cc21 (3D coordinates assigned)
CC(=O)n1c(C([NH-])=O)cc2ccc(CC[NH+]3CCCC3)cc21 (nonaromatic ring conformer: 86.3108638845492 kcal/mol)

>  <smiles>  (39) 
CC(=O)n1c(C(N)=O)cc2ccc(CCN3CCCC3)cc21

>  <score_type>  (39) 
oracle

>  <origin>  (39) 
adg

>  <m_score__min__energy>  (39) 
-6.96

>  <m_primary>  (39) 
energy

$$$$
40:0
     RDKit          3D

 33 34  0  0  0  0  0  0  0  0999 V2000
  149.6650  151.4480  131.9290 C   0  0  0  0  0  0  0  0  0  0  0  0
  149.2660  152.0180  133.2850 C   0  0  0  0  0  0  0  0  0  0  0  0
  148.3980  153.1380  133.1240 O   0  0  0  0  0  0  0  0  0  0  0  0
  148.8560  154.4520  132.9690 C   0  0  0  0  0  0  0  0  0  0  0  0
  149.9630  154.6810  132.4090 O   0  0  0  0  0  0  0  0  0  0  0  0
  148.0670  155.5440  133.4660 N   0  0  0  0  0  0  0  0  0  0  0  0
  147.0890  155.5030  134.4150 C   0  0  0  0  0  0  0  0  0  0  0  0
  146.5240  154.2810  135.0250 C   0  0  0  0  0  0  0  0  0  0  0  0
  147.3740  153.3860  135.7380 N   0  0  0  0  0  0  0  0  0  0  0  0
  145.2910  154.0360  134.9540 O   0  0  0  0  0  0  0  0  0  0  0  0
  146.6150  156.7850  134.6860 C   0  0  0  0  0  0  0  0  0  0  0  0
  147.3360  157.6210  133.8640 C   0  0  0  0  0  0  0  0  0  0  0  0
  147.2780  159.0050  133.7220 C   0  0  0  0  0  0  0  0  0  0  0  0
  148.1590  159.6100  132.8110 C   0  0  0  0  0  0  0  0  0  0  0  0
  149.0870  158.8300  132.0760 C   0  0  0  0  0  0  0  0  0  0  0  0
  150.0100  159.4880  131.0880 C   0  0  0  0  0  0  0  0  0  0  0  0
  149.2580  160.4840  130.2670 C   0  0  0  0  0  0  0  0  0  0  0  0
  148.2840  160.1150  129.5580 O   0  0  0  0  0  0  0  0  0  0  0  0
  149.5980  161.8290  130.3210 O   0  0  0  0  0  0  0  0  0  0  0  0
  149.1070  157.4270  132.2380 C   0  0  0  0  0  0  0  0  0  0  0  0
  148.2060  156.8490  133.1380 C   0  0  0  0  0  0  0  0  0  0  0  0
  150.2901  150.5549  132.0762 H   0  0  0  0  0  0  0  0  0  0  0  0
  148.7606  151.1738  131.3660 H   0  0  0  0  0  0  0  0  0  0  0  0
  150.2322  152.2039  131.3660 H   0  0  0  0  0  0  0  0  0  0  0  0
  148.7484  151.2403  133.8658 H   0  0  0  0  0  0  0  0  0  0  0  0
  150.1739  152.3464  133.8122 H   0  0  0  0  0  0  0  0  0  0  0  0
  148.0250  152.7460  135.2320 H   0  0  0  0  0  0  0  0  0  0  0  0
  145.8314  157.0686  135.4040 H   0  0  0  0  0  0  0  0  0  0  0  0
  146.5644  159.6056  134.3052 H   0  0  0  0  0  0  0  0  0  0  0  0
  148.1287  160.7000  132.6663 H   0  0  0  0  0  0  0  0  0  0  0  0
  150.8184  160.0000  131.6306 H   0  0  0  0  0  0  0  0  0  0  0  0
  150.4328  158.7199  130.4237 H   0  0  0  0  0  0  0  0  0  0  0  0
  149.8139  156.8042  131.6702 H   0  0  0  0  0  0  0  0  0  0  0  0
  1  2  1  0
  2  3  1  0
  3  4  1  0
  4  5  2  0
  4  6  1  0
  6  7  1  0
  7  8  1  0
  8  9  1  0
  8 10  2  0
  7 11  2  0
 11 12  1  0
 12 13  2  0
 13 14  1  0
 14 15  2  0
 15 16  1  0
 16 17  1  0
 17 18  2  0
 17 19  1  0
 15 20  1  0
 20 21  2  0
 21  6  1  0
 21 12  1  0
  1 22  1  0
  1 23  1  0
  1 24  1  0
  2 25  1  0
  2 26  1  0
  9 27  1  0
 11 28  1  0
 13 29  1  0
 14 30  1  0
 16 31  1  0
 16 32  1  0
 20 33  1  0
M  CHG  2   9  -1  19  -1
M  END
>  <UniqueID>  (40) 
40

>  <SMILES>  (40) 
CCOC(=O)n1c(C([NH-])=O)cc2ccc(CC(=O)[O-])cc21

>  <Energy>  (40) 
66.3706174812032

>  <Genealogy>  (40) 
CCOC(=O)n1c(C([NH-])=O)cc2ccc(CC(=O)[O-])cc21 (protonated)
CCOC(=O)n1c(C([NH-])=O)cc2ccc(CC(=O)[O-])cc21 (3D coordinates assigned)
CCOC(=O)n1c(C([NH-])=O)cc2ccc(CC(=O)[O-])cc21 (optimized conformer: 66.3706174812032 kcal/mol)

>  <smiles>  (40) 
CCOC(=O)n1c(C(N)=O)cc2ccc(CC(=O)O)cc21

>  <score_type>  (40) 
oracle

>  <origin>  (40) 
adg

>  <m_score__min__energy>  (40) 
-6.4800000000000004

>  <m_primary>  (40) 
energy

$$$$
41:0
     RDKit          3D

 46 48  0  0  0  0  0  0  0  0999 V2000
  146.9360  154.1480  133.0350 C   0  0  0  0  0  0  0  0  0  0  0  0
  148.1890  155.0150  133.0010 C   0  0  0  0  0  0  0  0  0  0  0  0
  147.8270  156.4750  133.0360 C   0  0  0  0  0  0  0  0  0  0  0  0
  148.8210  157.4600  132.8120 C   0  0  0  0  0  0  0  0  0  0  0  0
  148.4990  158.8270  132.8690 C   0  0  0  0  0  0  0  0  0  0  0  0
  147.1840  159.1760  133.1630 C   0  0  0  0  0  0  0  0  0  0  0  0
  146.5970  160.4180  133.2690 C   0  0  0  0  0  0  0  0  0  0  0  0
  145.2610  160.1680  133.5820 C   0  0  0  0  0  0  0  0  0  0  0  0
  144.2730  161.2270  133.8660 C   0  0  0  0  0  0  0  0  0  0  0  0
  142.8800  160.9490  133.7480 N   0  0  0  0  0  0  0  0  0  0  0  0
  144.6470  162.3870  134.1790 O   0  0  0  0  0  0  0  0  0  0  0  0
  145.0330  158.8260  133.6590 N   0  0  0  0  0  0  0  0  0  0  0  0
  143.7900  158.1490  133.9010 C   0  0  0  0  0  0  0  0  0  0  0  0
  143.2380  158.2540  135.0290 O   0  0  0  0  0  0  0  0  0  0  0  0
  143.2240  157.2110  132.8700 C   0  0  0  0  0  0  0  0  0  0  0  0
  141.6970  157.1070  132.9620 C   0  0  0  0  0  0  0  0  0  0  0  0
  141.1260  158.4260  133.3250 N   0  0  0  0  0  0  0  0  0  0  0  0
  140.1140  158.3310  134.4000 C   0  0  0  0  0  0  0  0  0  0  0  0
  138.7470  157.8570  133.8690 C   0  0  0  0  0  0  0  0  0  0  0  0
  138.3020  158.6700  132.8020 O   0  0  0  0  0  0  0  0  0  0  0  0
  139.2240  158.5950  131.7330 C   0  0  0  0  0  0  0  0  0  0  0  0
  140.5850  159.1570  132.1620 C   0  0  0  0  0  0  0  0  0  0  0  0
  146.2190  158.2340  133.4040 C   0  0  0  0  0  0  0  0  0  0  0  0
  146.5060  156.8670  133.3450 C   0  0  0  0  0  0  0  0  0  0  0  0
  146.6536  153.9526  134.0800 H   0  0  0  0  0  0  0  0  0  0  0  0
  146.1140  154.6714  132.5248 H   0  0  0  0  0  0  0  0  0  0  0  0
  147.1361  153.1943  132.5248 H   0  0  0  0  0  0  0  0  0  0  0  0
  148.8161  154.7775  133.8730 H   0  0  0  0  0  0  0  0  0  0  0  0
  148.7364  154.8087  132.0695 H   0  0  0  0  0  0  0  0  0  0  0  0
  149.8537  157.1520  132.5916 H   0  0  0  0  0  0  0  0  0  0  0  0
  149.2628  159.5974  132.6869 H   0  0  0  0  0  0  0  0  0  0  0  0
  147.0791  161.3976  133.1353 H   0  0  0  0  0  0  0  0  0  0  0  0
  142.5040  159.9950  133.9460 H   0  0  0  0  0  0  0  0  0  0  0  0
  143.4949  157.5785  131.8692 H   0  0  0  0  0  0  0  0  0  0  0  0
  143.6436  156.2111  133.0548 H   0  0  0  0  0  0  0  0  0  0  0  0
  141.2931  156.7891  131.9894 H   0  0  0  0  0  0  0  0  0  0  0  0
  141.4285  156.3698  133.7330 H   0  0  0  0  0  0  0  0  0  0  0  0
  140.4674  157.6162  135.1577 H   0  0  0  0  0  0  0  0  0  0  0  0
  139.9810  159.3348  134.8297 H   0  0  0  0  0  0  0  0  0  0  0  0
  138.8400  156.8197  133.5148 H   0  0  0  0  0  0  0  0  0  0  0  0
  138.0141  157.9242  134.6865 H   0  0  0  0  0  0  0  0  0  0  0  0
  139.3444  157.5441  131.4310 H   0  0  0  0  0  0  0  0  0  0  0  0
  138.8421  159.1887  130.8894 H   0  0  0  0  0  0  0  0  0  0  0  0
  141.2903  159.0669  131.3227 H   0  0  0  0  0  0  0  0  0  0  0  0
  140.4507  160.2110  132.4468 H   0  0  0  0  0  0  0  0  0  0  0  0
  145.7239  156.1170  133.5342 H   0  0  0  0  0  0  0  0  0  0  0  0
  1  2  1  0
  2  3  1  0
  3  4  2  0
  4  5  1  0
  5  6  2  0
  6  7  1  0
  7  8  2  0
  8  9  1  0
  9 10  1  0
  9 11  2  0
  8 12  1  0
 12 13  1  0
 13 14  2  0
 13 15  1  0
 15 16  1  0
 16 17  1  0
 17 18  1  0
 18 19  1  0
 19 20  1  0
 20 21  1  0
 21 22  1  0
 12 23  1  0
 23 24  2  0
 24  3  1  0
 23  6  1  0
 22 17  1  0
  1 25  1  0
  1 26  1  0
  1 27  1  0
  2 28  1  0
  2 29  1  0
  4 30  1  0
  5 31  1  0
  7 32  1  0
 10 33  1  0
 15 34  1  0
 15 35  1  0
 16 36  1  0
 16 37  1  0
 18 38  1  0
 18 39  1  0
 19 40  1  0
 19 41  1  0
 21 42  1  0
 21 43  1  0
 22 44  1  0
 22 45  1  0
 24 46  1  0
M  CHG  1  10  -1
M  END
>  <UniqueID>  (41) 
41

>  <SMILES>  (41) 
CCc1ccc2cc(C([NH-])=O)n(C(=O)CCN3CCOCC3)c2c1

>  <Energy>  (41) 
87.35681542507236

>  <Genealogy>  (41) 
CCc1ccc2cc(C([NH-])=O)n(C(=O)CCN3CCOCC3)c2c1 (protonated)
CCc1ccc2cc(C([NH-])=O)n(C(=O)CCN3CCOCC3)c2c1 (3D coordinates assigned)
CCc1ccc2cc(C([NH-])=O)n(C(=O)CCN3CCOCC3)c2c1 (nonaromatic ring conformer: 87.35681542507236 kcal/mol)

>  <smiles>  (41) 
CCc1ccc2cc(C(N)=O)n(C(=O)CCN3CCOCC3)c2c1

>  <score_type>  (41) 
oracle

>  <origin>  (41) 
adg

>  <m_score__min__energy>  (41) 
-7.25

>  <m_primary>  (41) 
energy

$$$$
42:0
     RDKit          3D

 53 55  0  0  0  0  0  0  0  0999 V2000
  149.2680  161.7320  130.4750 C   0  0  0  0  0  0  0  0  0  0  0  0
  148.4180  160.6230  131.1010 C   0  0  0  0  0  0  0  0  0  0  0  0
  149.2360  159.3410  131.2450 C   0  0  0  0  0  0  0  0  0  0  0  0
  147.9620  161.0250  132.3910 O   0  0  0  0  0  0  0  0  0  0  0  0
  147.5940  160.1260  133.4000 C   0  0  0  0  0  0  0  0  0  0  0  0
  148.4590  159.6680  134.1940 O   0  0  0  0  0  0  0  0  0  0  0  0
  146.2260  159.7030  133.5060 N   0  0  0  0  0  0  0  0  0  0  0  0
  145.1390  160.4460  133.8580 C   0  0  0  0  0  0  0  0  0  0  0  0
  145.1140  161.9110  134.0570 C   0  0  0  0  0  0  0  0  0  0  0  0
  146.2900  162.6210  134.4350 N   0  0  0  0  0  0  0  0  0  0  0  0
  144.0500  162.5520  133.8430 O   0  0  0  0  0  0  0  0  0  0  0  0
  144.0010  159.6440  133.9290 C   0  0  0  0  0  0  0  0  0  0  0  0
  144.4280  158.3780  133.5990 C   0  0  0  0  0  0  0  0  0  0  0  0
  143.7160  157.1850  133.5200 C   0  0  0  0  0  0  0  0  0  0  0  0
  144.4210  156.0180  133.1800 C   0  0  0  0  0  0  0  0  0  0  0  0
  145.8190  156.0560  132.9380 C   0  0  0  0  0  0  0  0  0  0  0  0
  146.5620  154.7810  132.5860 C   0  0  1  0  0  0  0  0  0  0  0  0
  147.9990  154.7840  133.1580 C   0  0  0  0  0  0  0  0  0  0  0  0
  148.5660  153.3610  133.3400 C   0  0  0  0  0  0  0  0  0  0  0  0
  147.9630  152.4170  132.3780 N   0  0  1  0  0  0  0  0  0  0  0  0
  148.7780  150.8730  132.4560 S   0  0  0  0  0  0  0  0  0  0  0  0
  149.6450  150.7060  134.0050 C   0  0  0  0  0  0  0  0  0  0  0  0
  149.7790  150.7750  131.3400 O   0  0  0  0  0  0  0  0  0  0  0  0
  147.7820  149.7540  132.3250 O   0  0  0  0  0  0  0  0  0  0  0  0
  146.5130  152.2310  132.6260 C   0  0  0  0  0  0  0  0  0  0  0  0
  145.7910  153.5320  133.0470 C   0  0  0  0  0  0  0  0  0  0  0  0
  146.5050  157.2910  133.0320 C   0  0  0  0  0  0  0  0  0  0  0  0
  145.7730  158.4400  133.3490 C   0  0  0  0  0  0  0  0  0  0  0  0
  149.7295  162.3341  131.2715 H   0  0  0  0  0  0  0  0  0  0  0  0
  150.0554  161.2829  129.8519 H   0  0  0  0  0  0  0  0  0  0  0  0
  148.6298  162.3757  129.8519 H   0  0  0  0  0  0  0  0  0  0  0  0
  147.5571  160.4366  130.4421 H   0  0  0  0  0  0  0  0  0  0  0  0
  149.3798  159.1157  132.3120 H   0  0  0  0  0  0  0  0  0  0  0  0
  148.7015  158.5090  130.7633 H   0  0  0  0  0  0  0  0  0  0  0  0
  150.2158  159.4752  130.7633 H   0  0  0  0  0  0  0  0  0  0  0  0
  147.2200  162.3740  134.0300 H   0  0  0  0  0  0  0  0  0  0  0  0
  142.9797  159.9564  134.1925 H   0  0  0  0  0  0  0  0  0  0  0  0
  142.6343  157.1564  133.7177 H   0  0  0  0  0  0  0  0  0  0  0  0
  143.8822  155.0623  133.1003 H   0  0  0  0  0  0  0  0  0  0  0  0
  146.6372  154.7439  131.4892 H   0  0  0  0  0  0  0  0  0  0  0  0
  147.9881  155.2870  134.1362 H   0  0  0  0  0  0  0  0  0  0  0  0
  148.6435  155.3109  132.4390 H   0  0  0  0  0  0  0  0  0  0  0  0
  148.3506  153.0173  134.3625 H   0  0  0  0  0  0  0  0  0  0  0  0
  149.6509  153.3937  133.1613 H   0  0  0  0  0  0  0  0  0  0  0  0
  148.1030  152.7830  131.4070 H   0  0  0  0  0  0  0  0  0  0  0  0
  148.9386  150.8421  134.8371 H   0  0  0  0  0  0  0  0  0  0  0  0
  150.0958  149.7045  134.0668 H   0  0  0  0  0  0  0  0  0  0  0  0
  150.4356  151.4684  134.0668 H   0  0  0  0  0  0  0  0  0  0  0  0
  146.3887  151.4880  133.4276 H   0  0  0  0  0  0  0  0  0  0  0  0
  146.0611  151.9002  131.6793 H   0  0  0  0  0  0  0  0  0  0  0  0
  145.7013  153.5520  134.1432 H   0  0  0  0  0  0  0  0  0  0  0  0
  144.7990  153.5447  132.5719 H   0  0  0  0  0  0  0  0  0  0  0  0
  147.5900  157.3457  132.8595 H   0  0  0  0  0  0  0  0  0  0  0  0
  1  2  1  0
  2  3  1  0
  2  4  1  0
  4  5  1  0
  5  6  2  0
  5  7  1  0
  7  8  1  0
  8  9  1  0
  9 10  1  0
  9 11  2  0
  8 12  2  0
 12 13  1  0
 13 14  2  0
 14 15  1  0
 15 16  2  0
 16 17  1  0
 17 18  1  0
 18 19  1  0
 19 20  1  0
 20 21  1  0
 21 22  1  0
 21 23  2  0
 21 24  2  0
 20 25  1  0
 25 26  1  0
 16 27  1  0
 27 28  2  0
 28  7  1  0
 28 13  1  0
 26 17  1  0
  1 29  1  0
  1 30  1  0
  1 31  1  0
  2 32  1  0
  3 33  1  0
  3 34  1  0
  3 35  1  0
 10 36  1  0
 12 37  1  0
 14 38  1  0
 15 39  1  0
 17 40  1  6
 18 41  1  0
 18 42  1  0
 19 43  1  0
 19 44  1  0
 20 45  1  6
 22 46  1  0
 22 47  1  0
 22 48  1  0
 25 49  1  0
 25 50  1  0
 26 51  1  0
 26 52  1  0
 27 53  1  0
M  CHG  2  10  -1  20   1
M  END
>  <UniqueID>  (42) 
42

>  <SMILES>  (42) 
CC(C)OC(=O)n1c(C([NH-])=O)cc2ccc(C3CC[NH+](S(C)(=O)=O)CC3)cc21

>  <Energy>  (42) 
86.79837938441429

>  <Genealogy>  (42) 
CC(C)OC(=O)n1c(C([NH-])=O)cc2ccc(C3CC[NH+](S(C)(=O)=O)CC3)cc21 (protonated)
CC(C)OC(=O)n1c(C([NH-])=O)cc2ccc(C3CC[NH+](S(C)(=O)=O)CC3)cc21 (3D coordinates assigned)
CC(C)OC(=O)n1c(C([NH-])=O)cc2ccc(C3CC[NH+](S(C)(=O)=O)CC3)cc21 (nonaromatic ring conformer: 86.79837938441429 kcal/mol)

>  <smiles>  (42) 
CC(C)OC(=O)n1c(C(N)=O)cc2ccc(C3CCN(S(C)(=O)=O)CC3)cc21

>  <score_type>  (42) 
oracle

>  <origin>  (42) 
adg

>  <m_score__min__energy>  (42) 
-9.2400000000000002

>  <m_primary>  (42) 
energy

$$$$
43:0
     RDKit          3D

 44 46  0  0  0  0  0  0  0  0999 V2000
  144.4730  153.8050  134.3600 C   0  0  0  0  0  0  0  0  0  0  0  0
  143.3690  154.3130  133.4210 C   0  0  0  0  0  0  0  0  0  0  0  0
  144.0230  154.8930  132.1540 C   0  0  0  0  0  0  0  0  0  0  0  0
  142.4370  153.1400  133.0660 C   0  0  0  0  0  0  0  0  0  0  0  0
  142.6500  155.3330  134.1300 O   0  0  0  0  0  0  0  0  0  0  0  0
  141.6080  156.1230  133.6210 C   0  0  0  0  0  0  0  0  0  0  0  0
  140.6520  155.6030  132.9860 O   0  0  0  0  0  0  0  0  0  0  0  0
  141.6350  157.5450  133.8260 N   0  0  0  0  0  0  0  0  0  0  0  0
  140.5780  158.3690  134.0690 C   0  0  0  0  0  0  0  0  0  0  0  0
  139.1900  157.9410  134.3360 C   0  0  0  0  0  0  0  0  0  0  0  0
  138.4530  157.1800  133.3780 N   0  0  0  0  0  0  0  0  0  0  0  0
  138.6650  158.2060  135.4490 O   0  0  0  0  0  0  0  0  0  0  0  0
  140.9870  159.6990  134.0840 C   0  0  0  0  0  0  0  0  0  0  0  0
  142.3440  159.6660  133.8540 C   0  0  0  0  0  0  0  0  0  0  0  0
  143.2590  160.7070  133.7520 C   0  0  0  0  0  0  0  0  0  0  0  0
  144.5970  160.3850  133.4710 C   0  0  0  0  0  0  0  0  0  0  0  0
  144.9960  159.0350  133.2870 C   0  0  0  0  0  0  0  0  0  0  0  0
  146.4100  158.7060  132.9760 C   0  0  0  0  0  0  0  0  0  0  0  0
  147.3210  159.7110  132.6060 C   0  0  0  0  0  0  0  0  0  0  0  0
  148.6470  159.3860  132.3140 C   0  0  0  0  0  0  0  0  0  0  0  0
  149.0570  158.0550  132.3940 C   0  0  0  0  0  0  0  0  0  0  0  0
  148.1700  157.0890  132.7510 N   0  0  0  0  0  0  0  0  0  0  0  0
  146.8740  157.3800  133.0410 C   0  0  0  0  0  0  0  0  0  0  0  0
  144.0320  158.0050  133.3950 C   0  0  0  0  0  0  0  0  0  0  0  0
  142.7110  158.3540  133.6990 C   0  0  0  0  0  0  0  0  0  0  0  0
  144.1606  153.9488  135.4048 H   0  0  0  0  0  0  0  0  0  0  0  0
  144.6492  152.7353  134.1739 H   0  0  0  0  0  0  0  0  0  0  0  0
  145.4000  154.3671  134.1739 H   0  0  0  0  0  0  0  0  0  0  0  0
  144.8174  155.5976  132.4411 H   0  0  0  0  0  0  0  0  0  0  0  0
  144.4554  154.0760  131.5577 H   0  0  0  0  0  0  0  0  0  0  0  0
  143.2635  155.4199  131.5577 H   0  0  0  0  0  0  0  0  0  0  0  0
  142.0663  152.6734  133.9906 H   0  0  0  0  0  0  0  0  0  0  0  0
  141.5862  153.5130  132.4769 H   0  0  0  0  0  0  0  0  0  0  0  0
  142.9926  152.3955  132.4769 H   0  0  0  0  0  0  0  0  0  0  0  0
  137.4580  156.9240  133.5660 H   0  0  0  0  0  0  0  0  0  0  0  0
  138.9120  156.7960  132.5220 H   0  0  0  0  0  0  0  0  0  0  0  0
  140.3594  160.5879  134.2453 H   0  0  0  0  0  0  0  0  0  0  0  0
  142.9447  161.7524  133.8873 H   0  0  0  0  0  0  0  0  0  0  0  0
  145.3444  161.1882  133.3926 H   0  0  0  0  0  0  0  0  0  0  0  0
  146.9876  160.7576  132.5464 H   0  0  0  0  0  0  0  0  0  0  0  0
  149.3608  160.1711  132.0239 H   0  0  0  0  0  0  0  0  0  0  0  0
  150.0996  157.7869  132.1678 H   0  0  0  0  0  0  0  0  0  0  0  0
  146.1839  156.5731  133.3283 H   0  0  0  0  0  0  0  0  0  0  0  0
  144.3145  156.9528  133.2434 H   0  0  0  0  0  0  0  0  0  0  0  0
  1  2  1  0
  2  3  1  0
  2  4  1  0
  2  5  1  0
  5  6  1  0
  6  7  2  0
  6  8  1  0
  8  9  1  0
  9 10  1  0
 10 11  1  0
 10 12  2  0
  9 13  2  0
 13 14  1  0
 14 15  2  0
 15 16  1  0
 16 17  2  0
 17 18  1  0
 18 19  2  0
 19 20  1  0
 20 21  2  0
 21 22  1  0
 22 23  2  0
 17 24  1  0
 24 25  2  0
 25  8  1  0
 25 14  1  0
 23 18  1  0
  1 26  1  0
  1 27  1  0
  1 28  1  0
  3 29  1  0
  3 30  1  0
  3 31  1  0
  4 32  1  0
  4 33  1  0
  4 34  1  0
 11 35  1  0
 11 36  1  0
 13 37  1  0
 15 38  1  0
 16 39  1  0
 19 40  1  0
 20 41  1  0
 21 42  1  0
 23 43  1  0
 24 44  1  0
M  END
>  <UniqueID>  (43) 
43

>  <SMILES>  (43) 
CC(C)(C)OC(=O)n1c(C(N)=O)cc2ccc(-c3cccnc3)cc21

>  <Energy>  (43) 
86.47528108622103

>  <Genealogy>  (43) 
CC(C)(C)OC(=O)n1c(C(N)=O)cc2ccc(-c3cccnc3)cc21 (3D coordinates assigned)
CC(C)(C)OC(=O)n1c(C(N)=O)cc2ccc(-c3cccnc3)cc21 (optimized conformer: 86.47528108622103 kcal/mol)

>  <smiles>  (43) 
CC(C)(C)OC(=O)n1c(C(N)=O)cc2ccc(-c3cccnc3)cc21

>  <score_type>  (43) 
oracle

>  <origin>  (43) 
adg

>  <m_score__min__energy>  (43) 
-8

>  <m_primary>  (43) 
energy

$$$$
44:0
     RDKit          3D

 59 62  0  0  0  0  0  0  0  0999 V2000
  141.3250  159.8000  135.4710 C   0  0  0  0  0  0  0  0  0  0  0  0
  142.0470  160.3660  134.2890 C   0  0  0  0  0  0  0  0  0  0  0  0
  141.4580  161.1960  133.5470 O   0  0  0  0  0  0  0  0  0  0  0  0
  143.4210  160.0320  134.0340 N   0  0  0  0  0  0  0  0  0  0  0  0
  144.4510  160.8740  133.7340 C   0  0  0  0  0  0  0  0  0  0  0  0
  144.3900  162.3490  133.7370 C   0  0  0  0  0  0  0  0  0  0  0  0
  145.5080  163.1050  134.1970 N   0  0  0  0  0  0  0  0  0  0  0  0
  143.3490  162.9500  133.3620 O   0  0  0  0  0  0  0  0  0  0  0  0
  145.6200  160.1480  133.4970 C   0  0  0  0  0  0  0  0  0  0  0  0
  145.2700  158.8280  133.6710 C   0  0  0  0  0  0  0  0  0  0  0  0
  146.0380  157.6730  133.5490 C   0  0  0  0  0  0  0  0  0  0  0  0
  145.4060  156.4370  133.7680 C   0  0  0  0  0  0  0  0  0  0  0  0
  144.0240  156.3730  134.0930 C   0  0  0  0  0  0  0  0  0  0  0  0
  143.3650  155.0600  134.3120 C   0  0  0  0  0  0  0  0  0  0  0  0
  142.9560  154.2760  133.2200 C   0  0  0  0  0  0  0  0  0  0  0  0
  142.3340  153.0430  133.4260 C   0  0  0  0  0  0  0  0  0  0  0  0
  142.1110  152.5640  134.7200 C   0  0  0  0  0  0  0  0  0  0  0  0
  141.4870  151.3150  134.8620 O   0  0  0  0  0  0  0  0  0  0  0  0
  141.1390  150.4290  133.7980 C   0  0  0  0  0  0  0  0  0  0  0  0
  140.3130  151.1240  132.6950 C   0  0  0  0  0  0  0  0  0  0  0  0
  140.0720  150.3210  131.4640 N   0  0  0  0  0  0  0  0  0  0  0  0
  141.0790  149.2550  131.2560 C   0  0  0  0  0  0  0  0  0  0  0  0
  140.7690  148.4810  129.9690 C   0  0  0  0  0  0  0  0  0  0  0  0
  139.4110  147.8760  129.9760 N   0  0  0  0  0  0  0  0  0  0  0  0
  138.7450  148.0420  128.6740 C   0  0  0  0  0  0  0  0  0  0  0  0
  138.5470  148.3300  131.0880 C   0  0  0  0  0  0  0  0  0  0  0  0
  138.6630  149.8460  131.3410 C   0  0  0  0  0  0  0  0  0  0  0  0
  142.5230  153.3410  135.8180 C   0  0  0  0  0  0  0  0  0  0  0  0
  143.1420  154.5770  135.6130 C   0  0  0  0  0  0  0  0  0  0  0  0
  143.2790  157.5720  134.2060 C   0  0  0  0  0  0  0  0  0  0  0  0
  143.9390  158.7870  133.9980 C   0  0  0  0  0  0  0  0  0  0  0  0
  141.7928  160.1668  136.3965 H   0  0  0  0  0  0  0  0  0  0  0  0
  140.2716  160.1154  135.4427 H   0  0  0  0  0  0  0  0  0  0  0  0
  141.3798  158.7017  135.4427 H   0  0  0  0  0  0  0  0  0  0  0  0
  146.2660  163.3960  133.5410 H   0  0  0  0  0  0  0  0  0  0  0  0
  146.6097  160.5460  133.2285 H   0  0  0  0  0  0  0  0  0  0  0  0
  147.1056  157.7263  133.2894 H   0  0  0  0  0  0  0  0  0  0  0  0
  145.9884  155.5074  133.6868 H   0  0  0  0  0  0  0  0  0  0  0  0
  143.1271  154.6364  132.1949 H   0  0  0  0  0  0  0  0  0  0  0  0
  142.0162  152.4424  132.5610 H   0  0  0  0  0  0  0  0  0  0  0  0
  142.0635  150.0349  133.3507 H   0  0  0  0  0  0  0  0  0  0  0  0
  140.5197  149.6250  134.2222 H   0  0  0  0  0  0  0  0  0  0  0  0
  139.3346  151.3891  133.1222 H   0  0  0  0  0  0  0  0  0  0  0  0
  140.9104  151.9904  132.3749 H   0  0  0  0  0  0  0  0  0  0  0  0
  140.2150  150.9970  130.6730 H   0  0  0  0  0  0  0  0  0  0  0  0
  142.0779  149.7087  131.1760 H   0  0  0  0  0  0  0  0  0  0  0  0
  141.0502  148.5612  132.1091 H   0  0  0  0  0  0  0  0  0  0  0  0
  140.8418  149.1723  129.1165 H   0  0  0  0  0  0  0  0  0  0  0  0
  141.4977  147.6607  129.8911 H   0  0  0  0  0  0  0  0  0  0  0  0
  137.6889  148.3052  128.8333 H   0  0  0  0  0  0  0  0  0  0  0  0
  139.2414  148.8439  128.1078 H   0  0  0  0  0  0  0  0  0  0  0  0
  138.8070  147.1009  128.1078 H   0  0  0  0  0  0  0  0  0  0  0  0
  137.5014  148.0917  130.8429 H   0  0  0  0  0  0  0  0  0  0  0  0
  138.8752  147.8115  132.0009 H   0  0  0  0  0  0  0  0  0  0  0  0
  138.1883  150.3766  130.5025 H   0  0  0  0  0  0  0  0  0  0  0  0
  138.1658  150.0537  132.3000 H   0  0  0  0  0  0  0  0  0  0  0  0
  142.3573  152.9743  136.8417 H   0  0  0  0  0  0  0  0  0  0  0  0
  143.4579  155.1779  136.4785 H   0  0  0  0  0  0  0  0  0  0  0  0
  142.2070  157.5481  134.4515 H   0  0  0  0  0  0  0  0  0  0  0  0
  1  2  1  0
  2  3  2  0
  2  4  1  0
  4  5  1  0
  5  6  1  0
  6  7  1  0
  6  8  2  0
  5  9  2  0
  9 10  1  0
 10 11  2  0
 11 12  1  0
 12 13  2  0
 13 14  1  0
 14 15  2  0
 15 16  1  0
 16 17  2  0
 17 18  1  0
 18 19  1  0
 19 20  1  0
 20 21  1  0
 21 22  1  0
 22 23  1  0
 23 24  1  0
 24 25  1  0
 24 26  1  0
 26 27  1  0
 17 28  1  0
 28 29  2  0
 13 30  1  0
 30 31  2  0
 31  4  1  0
 31 10  1  0
 29 14  1  0
 27 21  1  0
  1 32  1  0
  1 33  1  0
  1 34  1  0
  7 35  1  0
  9 36  1  0
 11 37  1  0
 12 38  1  0
 15 39  1  0
 16 40  1  0
 19 41  1  0
 19 42  1  0
 20 43  1  0
 20 44  1  0
 21 45  1  0
 22 46  1  0
 22 47  1  0
 23 48  1  0
 23 49  1  0
 25 50  1  0
 25 51  1  0
 25 52  1  0
 26 53  1  0
 26 54  1  0
 27 55  1  0
 27 56  1  0
 28 57  1  0
 29 58  1  0
 30 59  1  0
M  CHG  2   7  -1  21   1
M  END
>  <UniqueID>  (44) 
44

>  <SMILES>  (44) 
CC(=O)n1c(C([NH-])=O)cc2ccc(-c3ccc(OCC[NH+]4CCN(C)CC4)cc3)cc21

>  <Energy>  (44) 
123.14388278196674

>  <Genealogy>  (44) 
CC(=O)n1c(C([NH-])=O)cc2ccc(-c3ccc(OCC[NH+]4CCN(C)CC4)cc3)cc21 (protonated)
CC(=O)n1c(C([NH-])=O)cc2ccc(-c3ccc(OCC[NH+]4CCN(C)CC4)cc3)cc21 (3D coordinates assigned)
CC(=O)n1c(C([NH-])=O)cc2ccc(-c3ccc(OCC[NH+]4CCN(C)CC4)cc3)cc21 (nonaromatic ring conformer: 123.14388278196674 kcal/mol)

>  <smiles>  (44) 
CC(=O)n1c(C(N)=O)cc2ccc(-c3ccc(OCCN4CCN(C)CC4)cc3)cc21

>  <score_type>  (44) 
oracle

>  <origin>  (44) 
adg

>  <m_score__min__energy>  (44) 
-8.7899999999999991

>  <m_primary>  (44) 
energy

$$$$
46:0
     RDKit          3D

 47 49  0  0  0  0  0  0  0  0999 V2000
  138.0660  158.9310  131.5110 C   0  0  0  0  0  0  0  0  0  0  0  0
  139.5120  158.4820  131.7400 C   0  0  0  0  0  0  0  0  0  0  0  0
  140.2770  159.5330  132.5400 C   0  0  0  0  0  0  0  0  0  0  0  0
  139.5400  157.2460  132.4560 O   0  0  0  0  0  0  0  0  0  0  0  0
  139.5090  157.1590  133.8520 C   0  0  0  0  0  0  0  0  0  0  0  0
  138.5090  157.5770  134.4970 O   0  0  0  0  0  0  0  0  0  0  0  0
  140.6110  156.5560  134.5500 N   0  0  0  0  0  0  0  0  0  0  0  0
  141.3730  157.1060  135.5370 C   0  0  0  0  0  0  0  0  0  0  0  0
  141.1090  158.3870  136.2260 C   0  0  0  0  0  0  0  0  0  0  0  0
  139.8730  158.6180  136.8940 N   0  0  0  0  0  0  0  0  0  0  0  0
  142.0070  159.2700  136.2660 O   0  0  0  0  0  0  0  0  0  0  0  0
  142.4170  156.2510  135.8830 C   0  0  0  0  0  0  0  0  0  0  0  0
  142.2680  155.1470  135.0760 C   0  0  0  0  0  0  0  0  0  0  0  0
  143.0380  153.9910  134.9900 C   0  0  0  0  0  0  0  0  0  0  0  0
  142.6690  153.0240  134.0410 C   0  0  0  0  0  0  0  0  0  0  0  0
  141.5560  153.2340  133.1850 C   0  0  0  0  0  0  0  0  0  0  0  0
  141.1810  152.2280  132.2240 N   0  0  0  0  0  0  0  0  0  0  0  0
  141.1860  150.9010  132.8550 C   0  0  0  0  0  0  0  0  0  0  0  0
  140.3800  149.9260  132.0380 C   0  0  0  0  0  0  0  0  0  0  0  0
  141.0120  148.8500  131.3920 C   0  0  0  0  0  0  0  0  0  0  0  0
  140.2680  147.9680  130.6030 C   0  0  0  0  0  0  0  0  0  0  0  0
  138.8940  148.1630  130.4380 C   0  0  0  0  0  0  0  0  0  0  0  0
  138.2610  149.2420  131.0640 C   0  0  0  0  0  0  0  0  0  0  0  0
  139.0020  150.1250  131.8560 C   0  0  0  0  0  0  0  0  0  0  0  0
  140.7920  154.4180  133.3120 C   0  0  0  0  0  0  0  0  0  0  0  0
  141.1710  155.3560  134.2800 C   0  0  0  0  0  0  0  0  0  0  0  0
  137.5716  159.0845  132.4816 H   0  0  0  0  0  0  0  0  0  0  0  0
  138.0602  159.8733  130.9435 H   0  0  0  0  0  0  0  0  0  0  0  0
  137.5275  158.1578  130.9435 H   0  0  0  0  0  0  0  0  0  0  0  0
  139.9875  158.3510  130.7568 H   0  0  0  0  0  0  0  0  0  0  0  0
  140.1409  159.3460  133.6154 H   0  0  0  0  0  0  0  0  0  0  0  0
  141.3469  159.4767  132.2905 H   0  0  0  0  0  0  0  0  0  0  0  0
  139.8945  160.5338  132.2905 H   0  0  0  0  0  0  0  0  0  0  0  0
  138.9720  158.6370  136.3670 H   0  0  0  0  0  0  0  0  0  0  0  0
  143.1956  156.4224  136.6409 H   0  0  0  0  0  0  0  0  0  0  0  0
  143.9086  153.8395  135.6451 H   0  0  0  0  0  0  0  0  0  0  0  0
  143.2491  152.0929  133.9599 H   0  0  0  0  0  0  0  0  0  0  0  0
  141.8520  152.2390  131.4200 H   0  0  0  0  0  0  0  0  0  0  0  0
  140.2250  152.4390  131.8490 H   0  0  0  0  0  0  0  0  0  0  0  0
  142.2223  150.5400  132.9308 H   0  0  0  0  0  0  0  0  0  0  0  0
  140.7385  150.9814  133.8566 H   0  0  0  0  0  0  0  0  0  0  0  0
  142.0957  148.7013  131.5076 H   0  0  0  0  0  0  0  0  0  0  0  0
  140.7649  147.1189  130.1111 H   0  0  0  0  0  0  0  0  0  0  0  0
  138.3105  147.4682  129.8161 H   0  0  0  0  0  0  0  0  0  0  0  0
  137.1797  149.3961  130.9332 H   0  0  0  0  0  0  0  0  0  0  0  0
  138.5033  150.9787  132.3382 H   0  0  0  0  0  0  0  0  0  0  0  0
  139.9205  154.5975  132.6653 H   0  0  0  0  0  0  0  0  0  0  0  0
  1  2  1  0
  2  3  1  0
  2  4  1  0
  4  5  1  0
  5  6  2  0
  5  7  1  0
  7  8  1  0
  8  9  1  0
  9 10  1  0
  9 11  2  0
  8 12  2  0
 12 13  1  0
 13 14  2  0
 14 15  1  0
 15 16  2  0
 16 17  1  0
 17 18  1  0
 18 19  1  0
 19 20  2  0
 20 21  1  0
 21 22  2  0
 22 23  1  0
 23 24  2  0
 16 25  1  0
 25 26  2  0
 26  7  1  0
 26 13  1  0
 24 19  1  0
  1 27  1  0
  1 28  1  0
  1 29  1  0
  2 30  1  0
  3 31  1  0
  3 32  1  0
  3 33  1  0
 10 34  1  0
 12 35  1  0
 14 36  1  0
 15 37  1  0
 17 38  1  0
 17 39  1  0
 18 40  1  0
 18 41  1  0
 20 42  1  0
 21 43  1  0
 22 44  1  0
 23 45  1  0
 24 46  1  0
 25 47  1  0
M  CHG  2  10  -1  17   1
M  END
>  <UniqueID>  (45) 
45

>  <SMILES>  (45) 
CC(C)OC(=O)n1c(C([NH-])=O)cc2ccc([NH2+]Cc3ccccc3)cc21

>  <Energy>  (45) 
82.05377613790617

>  <Genealogy>  (45) 
CC(C)OC(=O)n1c(C([NH-])=O)cc2ccc([NH2+]Cc3ccccc3)cc21 (protonated)
CC(C)OC(=O)n1c(C([NH-])=O)cc2ccc([NH2+]Cc3ccccc3)cc21 (3D coordinates assigned)
CC(C)OC(=O)n1c(C([NH-])=O)cc2ccc([NH2+]Cc3ccccc3)cc21 (optimized conformer: 82.05377613790617 kcal/mol)

>  <smiles>  (45) 
CC(C)OC(=O)n1c(C(N)=O)cc2ccc(NCc3ccccc3)cc21

>  <score_type>  (45) 
oracle

>  <origin>  (45) 
adg

>  <m_score__min__energy>  (45) 
-8.9499999999999993

>  <m_primary>  (45) 
energy

$$$$
47:0
     RDKit          3D

 39 41  0  0  0  0  0  0  0  0999 V2000
  149.4820  159.4540  131.2460 C   0  0  0  0  0  0  0  0  0  0  0  0
  148.4090  160.5130  131.0260 C   0  0  0  0  0  0  0  0  0  0  0  0
  147.1750  160.1090  131.6170 O   0  0  0  0  0  0  0  0  0  0  0  0
  146.9120  160.1990  132.9880 C   0  0  0  0  0  0  0  0  0  0  0  0
  147.8470  160.4130  133.8060 O   0  0  0  0  0  0  0  0  0  0  0  0
  145.5690  160.0240  133.4670 N   0  0  0  0  0  0  0  0  0  0  0  0
  144.7020  160.9870  133.8880 C   0  0  0  0  0  0  0  0  0  0  0  0
  145.0290  162.4110  134.1120 C   0  0  0  0  0  0  0  0  0  0  0  0
  146.2170  162.7910  134.8010 N   0  0  0  0  0  0  0  0  0  0  0  0
  144.2250  163.3040  133.7320 O   0  0  0  0  0  0  0  0  0  0  0  0
  143.4530  160.4350  134.1650 C   0  0  0  0  0  0  0  0  0  0  0  0
  143.5840  159.0900  133.9040 C   0  0  0  0  0  0  0  0  0  0  0  0
  142.6430  158.0660  133.9850 C   0  0  0  0  0  0  0  0  0  0  0  0
  143.0440  156.7730  133.6130 C   0  0  0  0  0  0  0  0  0  0  0  0
  144.3680  156.5260  133.1740 C   0  0  0  0  0  0  0  0  0  0  0  0
  144.7690  155.1510  132.7190 C   0  0  0  0  0  0  0  0  0  0  0  0
  146.0580  154.7940  133.3040 N   0  0  0  0  0  0  0  0  0  0  0  0
  146.3840  154.8560  134.6080 C   0  0  0  0  0  0  0  0  0  0  0  0
  147.7170  154.5170  134.7410 C   0  0  0  0  0  0  0  0  0  0  0  0
  148.1530  154.2670  133.4530 C   0  0  0  0  0  0  0  0  0  0  0  0
  147.1270  154.4490  132.6040 N   0  0  0  0  0  0  0  0  0  0  0  0
  145.2920  157.5920  133.0920 C   0  0  0  0  0  0  0  0  0  0  0  0
  144.8700  158.8670  133.4850 C   0  0  0  0  0  0  0  0  0  0  0  0
  149.6336  159.3043  132.3252 H   0  0  0  0  0  0  0  0  0  0  0  0
  149.1626  158.5073  130.7858 H   0  0  0  0  0  0  0  0  0  0  0  0
  150.4244  159.7858  130.7858 H   0  0  0  0  0  0  0  0  0  0  0  0
  148.7358  161.4589  131.4827 H   0  0  0  0  0  0  0  0  0  0  0  0
  148.2575  160.6445  129.9444 H   0  0  0  0  0  0  0  0  0  0  0  0
  147.1090  162.2640  134.6680 H   0  0  0  0  0  0  0  0  0  0  0  0
  142.5539  160.9619  134.5172 H   0  0  0  0  0  0  0  0  0  0  0  0
  141.6174  158.2644  134.3298 H   0  0  0  0  0  0  0  0  0  0  0  0
  142.3231  155.9437  133.6629 H   0  0  0  0  0  0  0  0  0  0  0  0
  144.0084  154.4238  133.0394 H   0  0  0  0  0  0  0  0  0  0  0  0
  144.8521  155.1407  131.6222 H   0  0  0  0  0  0  0  0  0  0  0  0
  145.7048  155.1300  135.4287 H   0  0  0  0  0  0  0  0  0  0  0  0
  148.3037  154.4587  135.6697 H   0  0  0  0  0  0  0  0  0  0  0  0
  149.1729  153.9680  133.1694 H   0  0  0  0  0  0  0  0  0  0  0  0
  147.1590  154.3530  131.5650 H   0  0  0  0  0  0  0  0  0  0  0  0
  146.3166  157.4239  132.7286 H   0  0  0  0  0  0  0  0  0  0  0  0
  1  2  1  0
  2  3  1  0
  3  4  1  0
  4  5  2  0
  4  6  1  0
  6  7  1  0
  7  8  1  0
  8  9  1  0
  8 10  2  0
  7 11  2  0
 11 12  1  0
 12 13  2  0
 13 14  1  0
 14 15  2  0
 15 16  1  0
 16 17  1  0
 17 18  1  0
 18 19  2  0
 19 20  1  0
 20 21  2  0
 15 22  1  0
 22 23  2  0
 23  6  1  0
 23 12  1  0
 21 17  1  0
  1 24  1  0
  1 25  1  0
  1 26  1  0
  2 27  1  0
  2 28  1  0
  9 29  1  0
 11 30  1  0
 13 31  1  0
 14 32  1  0
 16 33  1  0
 16 34  1  0
 18 35  1  0
 19 36  1  0
 20 37  1  0
 21 38  1  0
 22 39  1  0
M  CHG  2   9  -1  21   1
M  END
>  <UniqueID>  (46) 
46

>  <SMILES>  (46) 
CCOC(=O)n1c(C([NH-])=O)cc2ccc(Cn3ccc[nH+]3)cc21

>  <Energy>  (46) 
104.24041713396984

>  <Genealogy>  (46) 
CCOC(=O)n1c(C([NH-])=O)cc2ccc(Cn3ccc[nH+]3)cc21 (protonated)
CCOC(=O)n1c(C([NH-])=O)cc2ccc(Cn3ccc[nH+]3)cc21 (3D coordinates assigned)
CCOC(=O)n1c(C([NH-])=O)cc2ccc(Cn3ccc[nH+]3)cc21 (optimized conformer: 104.24041713396984 kcal/mol)

>  <smiles>  (46) 
CCOC(=O)n1c(C(N)=O)cc2ccc(Cn3cccn3)cc21

>  <score_type>  (46) 
oracle

>  <origin>  (46) 
adg

>  <m_score__min__energy>  (46) 
-7

>  <m_primary>  (46) 
energy

$$$$
48:0
     RDKit          3D

 35 37  0  0  0  0  0  0  0  0999 V2000
  138.3560  157.2800  133.3960 N   0  0  0  0  0  0  0  0  0  0  0  0
  139.1370  157.9660  134.3750 C   0  0  0  0  0  0  0  0  0  0  0  0
  138.6250  158.2360  135.4940 O   0  0  0  0  0  0  0  0  0  0  0  0
  140.5530  158.3040  134.1240 C   0  0  0  0  0  0  0  0  0  0  0  0
  141.0410  159.6060  134.1440 C   0  0  0  0  0  0  0  0  0  0  0  0
  142.3960  159.4880  133.9340 C   0  0  0  0  0  0  0  0  0  0  0  0
  143.3740  160.4730  133.8430 C   0  0  0  0  0  0  0  0  0  0  0  0
  144.6930  160.0710  133.5810 C   0  0  0  0  0  0  0  0  0  0  0  0
  145.0110  158.6990  133.4090 C   0  0  0  0  0  0  0  0  0  0  0  0
  146.4040  158.2850  133.1120 C   0  0  0  0  0  0  0  0  0  0  0  0
  146.8170  156.9690  133.3850 C   0  0  0  0  0  0  0  0  0  0  0  0
  148.1250  156.5660  133.1130 C   0  0  0  0  0  0  0  0  0  0  0  0
  149.0360  157.4680  132.5630 C   0  0  0  0  0  0  0  0  0  0  0  0
  148.6440  158.7840  132.2730 C   0  0  0  0  0  0  0  0  0  0  0  0
  149.6470  159.7600  131.7220 C   0  0  0  0  0  0  0  0  0  0  0  0
  149.3020  160.0720  130.0040 Cl  0  0  0  0  0  0  0  0  0  0  0  0
  147.3300  159.1950  132.5620 C   0  0  0  0  0  0  0  0  0  0  0  0
  146.9670  160.4870  132.3460 F   0  0  0  0  0  0  0  0  0  0  0  0
  143.9880  157.7280  133.5010 C   0  0  0  0  0  0  0  0  0  0  0  0
  142.6840  158.1560  133.7840 C   0  0  0  0  0  0  0  0  0  0  0  0
  141.5590  157.4130  133.8960 N   0  0  0  0  0  0  0  0  0  0  0  0
  141.4340  155.9960  133.6840 C   0  0  0  0  0  0  0  0  0  0  0  0
  142.3040  155.2040  134.1320 O   0  0  0  0  0  0  0  0  0  0  0  0
  140.3540  155.4860  132.9740 O   0  0  0  0  0  0  0  0  0  0  0  0
  138.7940  156.8970  132.5290 H   0  0  0  0  0  0  0  0  0  0  0  0
  137.3470  157.0800  133.5760 H   0  0  0  0  0  0  0  0  0  0  0  0
  140.4669  160.5320  134.2953 H   0  0  0  0  0  0  0  0  0  0  0  0
  143.1211  161.5357  133.9726 H   0  0  0  0  0  0  0  0  0  0  0  0
  145.4883  160.8274  133.5083 H   0  0  0  0  0  0  0  0  0  0  0  0
  146.1035  156.2515  133.8163 H   0  0  0  0  0  0  0  0  0  0  0  0
  148.4384  155.5348  133.3328 H   0  0  0  0  0  0  0  0  0  0  0  0
  150.0672  157.1461  132.3555 H   0  0  0  0  0  0  0  0  0  0  0  0
  149.5856  160.7035  132.2842 H   0  0  0  0  0  0  0  0  0  0  0  0
  150.6576  159.3365  131.8188 H   0  0  0  0  0  0  0  0  0  0  0  0
  144.2104  156.6608  133.3538 H   0  0  0  0  0  0  0  0  0  0  0  0
  1  2  1  0
  2  3  2  0
  2  4  1  0
  4  5  2  0
  5  6  1  0
  6  7  2  0
  7  8  1  0
  8  9  2  0
  9 10  1  0
 10 11  2  0
 11 12  1  0
 12 13  2  0
 13 14  1  0
 14 15  1  0
 15 16  1  0
 14 17  2  0
 17 18  1  0
  9 19  1  0
 19 20  2  0
 20 21  1  0
 21 22  1  0
 22 23  2  0
 22 24  1  0
 21  4  1  0
 20  6  1  0
 17 10  1  0
  1 25  1  0
  1 26  1  0
  5 27  1  0
  7 28  1  0
  8 29  1  0
 11 30  1  0
 12 31  1  0
 13 32  1  0
 15 33  1  0
 15 34  1  0
 19 35  1  0
M  CHG  1  24  -1
M  END
>  <UniqueID>  (47) 
47

>  <SMILES>  (47) 
NC(=O)c1cc2ccc(-c3cccc(CCl)c3F)cc2n1C(=O)[O-]

>  <Energy>  (47) 
83.40158890184502

>  <Genealogy>  (47) 
NC(=O)c1cc2ccc(-c3cccc(CCl)c3F)cc2n1C(=O)[O-] (protonated)
NC(=O)c1cc2ccc(-c3cccc(CCl)c3F)cc2n1C(=O)[O-] (3D coordinates assigned)
NC(=O)c1cc2ccc(-c3cccc(CCl)c3F)cc2n1C(=O)[O-] (optimized conformer: 83.40158890184502 kcal/mol)

>  <smiles>  (47) 
NC(=O)c1cc2ccc(-c3cccc(CCl)c3F)cc2n1C(=O)O

>  <score_type>  (47) 
oracle

>  <origin>  (47) 
adg

>  <m_score__min__energy>  (47) 
-8.3399999999999999

>  <m_primary>  (47) 
energy

$$$$
49:0
     RDKit          3D

 34 35  0  0  0  0  0  0  0  0999 V2000
  138.8300  149.6000  131.2130 C   0  0  0  0  0  0  0  0  0  0  0  0
  139.4570  150.7200  131.7990 O   0  0  0  0  0  0  0  0  0  0  0  0
  140.6510  150.3100  132.4310 C   0  0  0  0  0  0  0  0  0  0  0  0
  141.1680  151.4520  133.3050 C   0  0  0  0  0  0  0  0  0  0  0  0
  140.7000  152.7440  132.8010 N   0  0  0  0  0  0  0  0  0  0  0  0
  141.2800  154.0180  133.1410 C   0  0  0  0  0  0  0  0  0  0  0  0
  142.6820  154.1840  133.0230 C   0  0  0  0  0  0  0  0  0  0  0  0
  143.2960  155.4050  133.3510 C   0  0  0  0  0  0  0  0  0  0  0  0
  142.4830  156.4470  133.7840 C   0  0  0  0  0  0  0  0  0  0  0  0
  142.8160  157.7190  134.1870 C   0  0  0  0  0  0  0  0  0  0  0  0
  141.6080  158.3290  134.5210 C   0  0  0  0  0  0  0  0  0  0  0  0
  141.4970  159.7460  134.9240 C   0  0  0  0  0  0  0  0  0  0  0  0
  140.8780  160.1110  136.1550 N   0  0  0  0  0  0  0  0  0  0  0  0
  141.9090  160.6490  134.1490 O   0  0  0  0  0  0  0  0  0  0  0  0
  140.5710  157.4630  134.3400 N   0  0  0  0  0  0  0  0  0  0  0  0
  139.1850  157.6710  134.6600 C   0  0  0  0  0  0  0  0  0  0  0  0
  138.8000  158.0420  135.9810 N   0  0  0  0  0  0  0  0  0  0  0  0
  138.3000  157.4960  133.7800 O   0  0  0  0  0  0  0  0  0  0  0  0
  141.1240  156.3170  133.8850 C   0  0  0  0  0  0  0  0  0  0  0  0
  140.4860  155.1080  133.5810 C   0  0  0  0  0  0  0  0  0  0  0  0
  138.4567  148.9331  132.0041 H   0  0  0  0  0  0  0  0  0  0  0  0
  137.9886  149.9356  130.5890 H   0  0  0  0  0  0  0  0  0  0  0  0
  139.5560  149.0581  130.5890 H   0  0  0  0  0  0  0  0  0  0  0  0
  140.4529  149.4272  133.0566 H   0  0  0  0  0  0  0  0  0  0  0  0
  141.4042  150.0524  131.6718 H   0  0  0  0  0  0  0  0  0  0  0  0
  140.8037  151.3125  134.3335 H   0  0  0  0  0  0  0  0  0  0  0  0
  142.2678  151.4424  133.2841 H   0  0  0  0  0  0  0  0  0  0  0  0
  139.8760  152.7300  132.1570 H   0  0  0  0  0  0  0  0  0  0  0  0
  143.2992  153.3449  132.6694 H   0  0  0  0  0  0  0  0  0  0  0  0
  144.3854  155.5325  133.2678 H   0  0  0  0  0  0  0  0  0  0  0  0
  143.8220  158.1612  134.2355 H   0  0  0  0  0  0  0  0  0  0  0  0
  139.8610  159.9440  136.3150 H   0  0  0  0  0  0  0  0  0  0  0  0
  139.0540  158.9750  136.3720 H   0  0  0  0  0  0  0  0  0  0  0  0
  139.3953  155.0061  133.6810 H   0  0  0  0  0  0  0  0  0  0  0  0
  1  2  1  0
  2  3  1  0
  3  4  1  0
  4  5  1  0
  5  6  1  0
  6  7  2  0
  7  8  1  0
  8  9  2  0
  9 10  1  0
 10 11  2  0
 11 12  1  0
 12 13  1  0
 12 14  2  0
 11 15  1  0
 15 16  1  0
 16 17  1  0
 16 18  2  0
 15 19  1  0
 19 20  2  0
 20  6  1  0
 19  9  1  0
  1 21  1  0
  1 22  1  0
  1 23  1  0
  3 24  1  0
  3 25  1  0
  4 26  1  0
  4 27  1  0
  5 28  1  0
  7 29  1  0
  8 30  1  0
 10 31  1  0
 13 32  1  0
 17 33  1  0
 20 34  1  0
M  CHG  2  13  -1  17  -1
M  END
>  <UniqueID>  (48) 
48

>  <SMILES>  (48) 
COCCNc1ccc2cc(C([NH-])=O)n(C([NH-])=O)c2c1

>  <Energy>  (48) 
71.69571195489918

>  <Genealogy>  (48) 
COCCNc1ccc2cc(C([NH-])=O)n(C([NH-])=O)c2c1 (protonated)
COCCNc1ccc2cc(C([NH-])=O)n(C([NH-])=O)c2c1 (3D coordinates assigned)
COCCNc1ccc2cc(C([NH-])=O)n(C([NH-])=O)c2c1 (optimized conformer: 71.69571195489918 kcal/mol)

>  <smiles>  (48) 
COCCNc1ccc2cc(C(N)=O)n(C(N)=O)c2c1

>  <score_type>  (48) 
oracle

>  <origin>  (48) 
adg

>  <m_score__min__energy>  (48) 
-5.9900000000000002

>  <m_primary>  (48) 
energy

$$$$
50:0
     RDKit          3D

 38 39  0  0  0  0  0  0  0  0999 V2000
  140.1460  158.9960  130.7280 C   0  0  0  0  0  0  0  0  0  0  0  0
  139.1900  159.6750  131.7200 C   0  0  0  0  0  0  0  0  0  0  0  0
  137.8070  159.0030  131.6160 C   0  0  0  0  0  0  0  0  0  0  0  0
  139.0930  161.1730  131.3740 C   0  0  0  0  0  0  0  0  0  0  0  0
  139.7440  159.4940  133.0310 O   0  0  0  0  0  0  0  0  0  0  0  0
  139.8470  158.2830  133.7330 C   0  0  0  0  0  0  0  0  0  0  0  0
  138.8910  157.8620  134.4380 O   0  0  0  0  0  0  0  0  0  0  0  0
  141.0610  157.5200  133.6450 N   0  0  0  0  0  0  0  0  0  0  0  0
  141.1770  156.1850  133.4000 C   0  0  0  0  0  0  0  0  0  0  0  0
  140.0640  155.2160  133.3470 C   0  0  0  0  0  0  0  0  0  0  0  0
  138.7420  155.6290  132.9960 N   0  0  0  0  0  0  0  0  0  0  0  0
  140.2700  154.0160  133.6690 O   0  0  0  0  0  0  0  0  0  0  0  0
  142.5130  155.8240  133.2490 C   0  0  0  0  0  0  0  0  0  0  0  0
  143.2230  156.9890  133.4220 C   0  0  0  0  0  0  0  0  0  0  0  0
  144.5960  157.2130  133.3720 C   0  0  0  0  0  0  0  0  0  0  0  0
  145.0560  158.5270  133.5560 C   0  0  0  0  0  0  0  0  0  0  0  0
  144.1440  159.5940  133.7560 C   0  0  0  0  0  0  0  0  0  0  0  0
  144.6520  160.9950  133.9860 C   0  0  0  0  0  0  0  0  0  0  0  0
  144.7420  161.2670  135.3400 F   0  0  0  0  0  0  0  0  0  0  0  0
  143.7800  161.8960  133.4030 F   0  0  0  0  0  0  0  0  0  0  0  0
  145.9080  161.1570  133.4280 F   0  0  0  0  0  0  0  0  0  0  0  0
  142.7570  159.3230  133.8210 C   0  0  0  0  0  0  0  0  0  0  0  0
  142.3260  158.0000  133.6560 C   0  0  0  0  0  0  0  0  0  0  0  0
  140.9203  158.4460  131.2829 H   0  0  0  0  0  0  0  0  0  0  0  0
  139.5811  158.2956  130.0953 H   0  0  0  0  0  0  0  0  0  0  0  0
  140.6213  159.7601  130.0953 H   0  0  0  0  0  0  0  0  0  0  0  0
  137.4150  158.8125  132.6260 H   0  0  0  0  0  0  0  0  0  0  0  0
  137.1169  159.6662  131.0739 H   0  0  0  0  0  0  0  0  0  0  0  0
  137.9020  158.0506  131.0739 H   0  0  0  0  0  0  0  0  0  0  0  0
  139.0549  161.7620  132.3022 H   0  0  0  0  0  0  0  0  0  0  0  0
  139.9737  161.4714  130.7863 H   0  0  0  0  0  0  0  0  0  0  0  0
  138.1812  161.3553  130.7863 H   0  0  0  0  0  0  0  0  0  0  0  0
  137.9760  154.9240  132.9150 H   0  0  0  0  0  0  0  0  0  0  0  0
  138.5040  156.6400  132.8930 H   0  0  0  0  0  0  0  0  0  0  0  0
  142.9145  154.8221  133.0369 H   0  0  0  0  0  0  0  0  0  0  0  0
  145.2991  156.3860  133.1938 H   0  0  0  0  0  0  0  0  0  0  0  0
  146.1369  158.7309  133.5448 H   0  0  0  0  0  0  0  0  0  0  0  0
  142.0334  160.1325  133.9971 H   0  0  0  0  0  0  0  0  0  0  0  0
  1  2  1  0
  2  3  1  0
  2  4  1  0
  2  5  1  0
  5  6  1  0
  6  7  2  0
  6  8  1  0
  8  9  1  0
  9 10  1  0
 10 11  1  0
 10 12  2  0
  9 13  2  0
 13 14  1  0
 14 15  2  0
 15 16  1  0
 16 17  2  0
 17 18  1  0
 18 19  1  0
 18 20  1  0
 18 21  1  0
 17 22  1  0
 22 23  2  0
 23  8  1  0
 23 14  1  0
  1 24  1  0
  1 25  1  0
  1 26  1  0
  3 27  1  0
  3 28  1  0
  3 29  1  0
  4 30  1  0
  4 31  1  0
  4 32  1  0
 11 33  1  0
 11 34  1  0
 13 35  1  0
 15 36  1  0
 16 37  1  0
 22 38  1  0
M  END
>  <UniqueID>  (49) 
49

>  <SMILES>  (49) 
CC(C)(C)OC(=O)n1c(C(N)=O)cc2ccc(C(F)(F)F)cc21

>  <Energy>  (49) 
72.69806894451227

>  <Genealogy>  (49) 
CC(C)(C)OC(=O)n1c(C(N)=O)cc2ccc(C(F)(F)F)cc21 (3D coordinates assigned)
CC(C)(C)OC(=O)n1c(C(N)=O)cc2ccc(C(F)(F)F)cc21 (optimized conformer: 72.69806894451227 kcal/mol)

>  <smiles>  (49) 
CC(C)(C)OC(=O)n1c(C(N)=O)cc2ccc(C(F)(F)F)cc21

>  <score_type>  (49) 
oracle

>  <origin>  (49) 
adg

>  <m_score__min__energy>  (49) 
-6.6200000000000001

>  <m_primary>  (49) 
energy

$$$$
51:0
     RDKit          3D

 51 53  0  0  0  0  0  0  0  0999 V2000
  140.6680  157.7230  135.5460 C   0  0  0  0  0  0  0  0  0  0  0  0
  140.5240  157.0020  134.1970 C   0  0  0  0  0  0  0  0  0  0  0  0
  141.4600  157.6680  133.1710 C   0  0  0  0  0  0  0  0  0  0  0  0
  139.0570  157.0960  133.7390 C   0  0  0  0  0  0  0  0  0  0  0  0
  140.9000  155.6350  134.4090 O   0  0  0  0  0  0  0  0  0  0  0  0
  140.9530  154.6230  133.4370 C   0  0  0  0  0  0  0  0  0  0  0  0
  139.9790  154.4230  132.6610 O   0  0  0  0  0  0  0  0  0  0  0  0
  142.1210  153.7900  133.3460 N   0  0  0  0  0  0  0  0  0  0  0  0
  142.1830  152.4290  133.4140 C   0  0  0  0  0  0  0  0  0  0  0  0
  141.0200  151.5140  133.4330 C   0  0  0  0  0  0  0  0  0  0  0  0
  139.8840  151.7590  132.6030 N   0  0  0  0  0  0  0  0  0  0  0  0
  141.0070  150.5230  134.2100 O   0  0  0  0  0  0  0  0  0  0  0  0
  143.5080  152.0000  133.3670 C   0  0  0  0  0  0  0  0  0  0  0  0
  144.2610  153.1470  133.2620 C   0  0  0  0  0  0  0  0  0  0  0  0
  145.6400  153.3060  133.1870 C   0  0  0  0  0  0  0  0  0  0  0  0
  146.1500  154.6120  133.1070 C   0  0  0  0  0  0  0  0  0  0  0  0
  145.2790  155.7340  133.1110 C   0  0  0  0  0  0  0  0  0  0  0  0
  145.8270  157.1120  133.0260 C   0  0  0  0  0  0  0  0  0  0  0  0
  145.0440  158.2160  133.4080 C   0  0  0  0  0  0  0  0  0  0  0  0
  145.5540  159.5190  133.3250 C   0  0  0  0  0  0  0  0  0  0  0  0
  144.6970  160.6850  133.7310 C   0  0  0  0  0  0  0  0  0  0  0  0
  143.6430  160.2430  134.5110 F   0  0  0  0  0  0  0  0  0  0  0  0
  145.4540  161.5870  134.4580 F   0  0  0  0  0  0  0  0  0  0  0  0
  146.8660  159.7200  132.8720 C   0  0  0  0  0  0  0  0  0  0  0  0
  147.6750  158.6290  132.5150 C   0  0  0  0  0  0  0  0  0  0  0  0
  149.0700  158.8550  131.9840 C   0  0  0  0  0  0  0  0  0  0  0  0
  149.6130  159.9710  132.5940 F   0  0  0  0  0  0  0  0  0  0  0  0
  149.0450  159.0570  130.6140 F   0  0  0  0  0  0  0  0  0  0  0  0
  149.8760  157.7600  132.2440 F   0  0  0  0  0  0  0  0  0  0  0  0
  147.1390  157.3310  132.5700 C   0  0  0  0  0  0  0  0  0  0  0  0
  143.8820  155.5270  133.1930 C   0  0  0  0  0  0  0  0  0  0  0  0
  143.4010  154.2130  133.2530 C   0  0  0  0  0  0  0  0  0  0  0  0
  140.5240  157.0021  136.3643 H   0  0  0  0  0  0  0  0  0  0  0  0
  141.6723  158.1657  135.6198 H   0  0  0  0  0  0  0  0  0  0  0  0
  139.9108  158.5175  135.6198 H   0  0  0  0  0  0  0  0  0  0  0  0
  142.2457  158.2271  133.7003 H   0  0  0  0  0  0  0  0  0  0  0  0
  141.9221  156.8945  132.5400 H   0  0  0  0  0  0  0  0  0  0  0  0
  140.8807  158.3581  132.5400 H   0  0  0  0  0  0  0  0  0  0  0  0
  138.3998  157.1381  134.6201 H   0  0  0  0  0  0  0  0  0  0  0  0
  138.9190  158.0048  133.1349 H   0  0  0  0  0  0  0  0  0  0  0  0
  138.8042  156.2122  133.1349 H   0  0  0  0  0  0  0  0  0  0  0  0
  139.0520  151.1290  132.6540 H   0  0  0  0  0  0  0  0  0  0  0  0
  139.8730  152.5410  131.9110 H   0  0  0  0  0  0  0  0  0  0  0  0
  143.8745  150.9636  133.4057 H   0  0  0  0  0  0  0  0  0  0  0  0
  146.3116  152.4349  133.1902 H   0  0  0  0  0  0  0  0  0  0  0  0
  147.2369  154.7679  133.0404 H   0  0  0  0  0  0  0  0  0  0  0  0
  144.0199  158.0552  133.7760 H   0  0  0  0  0  0  0  0  0  0  0  0
  144.3047  161.1744  132.8273 H   0  0  0  0  0  0  0  0  0  0  0  0
  147.2652  160.7421  132.7956 H   0  0  0  0  0  0  0  0  0  0  0  0
  147.7535  156.4757  132.2524 H   0  0  0  0  0  0  0  0  0  0  0  0
  143.1880  156.3803  133.2093 H   0  0  0  0  0  0  0  0  0  0  0  0
  1  2  1  0
  2  3  1  0
  2  4  1  0
  2  5  1  0
  5  6  1  0
  6  7  2  0
  6  8  1  0
  8  9  1  0
  9 10  1  0
 10 11  1  0
 10 12  2  0
  9 13  2  0
 13 14  1  0
 14 15  2  0
 15 16  1  0
 16 17  2  0
 17 18  1  0
 18 19  2  0
 19 20  1  0
 20 21  1  0
 21 22  1  0
 21 23  1  0
 20 24  2  0
 24 25  1  0
 25 26  1  0
 26 27  1  0
 26 28  1  0
 26 29  1  0
 25 30  2  0
 17 31  1  0
 31 32  2  0
 32  8  1  0
 32 14  1  0
 30 18  1  0
  1 33  1  0
  1 34  1  0
  1 35  1  0
  3 36  1  0
  3 37  1  0
  3 38  1  0
  4 39  1  0
  4 40  1  0
  4 41  1  0
 11 42  1  0
 11 43  1  0
 13 44  1  0
 15 45  1  0
 16 46  1  0
 19 47  1  0
 21 48  1  0
 24 49  1  0
 30 50  1  0
 31 51  1  0
M  END
>  <UniqueID>  (50) 
50

>  <SMILES>  (50) 
CC(C)(C)OC(=O)n1c(C(N)=O)cc2ccc(-c3cc(C(F)F)cc(C(F)(F)F)c3)cc21

>  <Energy>  (50) 
91.57952100974394

>  <Genealogy>  (50) 
CC(C)(C)OC(=O)n1c(C(N)=O)cc2ccc(-c3cc(C(F)F)cc(C(F)(F)F)c3)cc21 (3D coordinates assigned)
CC(C)(C)OC(=O)n1c(C(N)=O)cc2ccc(-c3cc(C(F)F)cc(C(F)(F)F)c3)cc21 (optimized conformer: 91.57952100974394 kcal/mol)

>  <smiles>  (50) 
CC(C)(C)OC(=O)n1c(C(N)=O)cc2ccc(-c3cc(C(F)F)cc(C(F)(F)F)c3)cc21

>  <score_type>  (50) 
oracle

>  <origin>  (50) 
adg

>  <m_score__min__energy>  (50) 
-8.4700000000000006

>  <m_primary>  (50) 
energy

$$$$
52:0
     RDKit          3D

 30 31  0  0  0  0  0  0  0  0999 V2000
  149.4840  162.6960  129.9860 C   0  0  0  0  0  0  0  0  0  0  0  0
  149.2600  161.6560  130.5530 C   0  0  0  0  0  0  0  0  0  0  0  0
  148.9910  160.4150  131.2290 C   0  0  0  0  0  0  0  0  0  0  0  0
  149.9600  159.3850  131.2220 C   0  0  0  0  0  0  0  0  0  0  0  0
  149.7060  158.1630  131.8690 C   0  0  0  0  0  0  0  0  0  0  0  0
  148.4810  158.0090  132.5130 C   0  0  0  0  0  0  0  0  0  0  0  0
  147.9670  156.9280  133.1920 C   0  0  0  0  0  0  0  0  0  0  0  0
  146.7030  157.3270  133.6200 C   0  0  0  0  0  0  0  0  0  0  0  0
  145.8310  156.4890  134.4700 C   0  0  0  0  0  0  0  0  0  0  0  0
  144.4180  156.6750  134.4800 N   0  0  0  0  0  0  0  0  0  0  0  0
  146.3460  155.6300  135.2340 O   0  0  0  0  0  0  0  0  0  0  0  0
  146.4400  158.6020  133.2130 N   0  0  0  0  0  0  0  0  0  0  0  0
  145.2250  159.3490  133.3800 C   0  0  0  0  0  0  0  0  0  0  0  0
  144.2250  159.0910  132.6560 O   0  0  0  0  0  0  0  0  0  0  0  0
  145.1690  160.3780  134.3270 O   0  0  0  0  0  0  0  0  0  0  0  0
  144.7080  161.6940  134.0280 C   0  0  0  0  0  0  0  0  0  0  0  0
  145.7220  162.7350  134.4900 C   0  0  0  0  0  0  0  0  0  0  0  0
  147.5400  159.0080  132.5410 C   0  0  0  0  0  0  0  0  0  0  0  0
  147.7600  160.2270  131.8900 C   0  0  0  0  0  0  0  0  0  0  0  0
  149.6884  163.6450  129.4686 H   0  0  0  0  0  0  0  0  0  0  0  0
  150.9192  159.5411  130.7067 H   0  0  0  0  0  0  0  0  0  0  0  0
  150.4514  157.3540  131.8666 H   0  0  0  0  0  0  0  0  0  0  0  0
  148.4516  155.9551  133.3609 H   0  0  0  0  0  0  0  0  0  0  0  0
  143.9940  157.5860  134.1930 H   0  0  0  0  0  0  0  0  0  0  0  0
  144.5624  161.7881  132.9417 H   0  0  0  0  0  0  0  0  0  0  0  0
  143.7579  161.8656  134.5551 H   0  0  0  0  0  0  0  0  0  0  0  0
  145.7466  162.7602  135.5894 H   0  0  0  0  0  0  0  0  0  0  0  0
  146.7188  162.4712  134.1069 H   0  0  0  0  0  0  0  0  0  0  0  0
  145.4321  163.7245  134.1069 H   0  0  0  0  0  0  0  0  0  0  0  0
  146.9940  161.0164  131.8939 H   0  0  0  0  0  0  0  0  0  0  0  0
  1  2  3  0
  2  3  1  0
  3  4  2  0
  4  5  1  0
  5  6  2  0
  6  7  1  0
  7  8  2  0
  8  9  1  0
  9 10  1  0
  9 11  2  0
  8 12  1  0
 12 13  1  0
 13 14  2  0
 13 15  1  0
 15 16  1  0
 16 17  1  0
 12 18  1  0
 18 19  2  0
 19  3  1  0
 18  6  1  0
  1 20  1  0
  4 21  1  0
  5 22  1  0
  7 23  1  0
 10 24  1  0
 16 25  1  0
 16 26  1  0
 17 27  1  0
 17 28  1  0
 17 29  1  0
 19 30  1  0
M  CHG  1  10  -1
M  END
>  <UniqueID>  (51) 
51

>  <SMILES>  (51) 
C#Cc1ccc2cc(C([NH-])=O)n(C(=O)OCC)c2c1

>  <Energy>  (51) 
63.842165435838545

>  <Genealogy>  (51) 
C#Cc1ccc2cc(C([NH-])=O)n(C(=O)OCC)c2c1 (protonated)
C#Cc1ccc2cc(C([NH-])=O)n(C(=O)OCC)c2c1 (3D coordinates assigned)
C#Cc1ccc2cc(C([NH-])=O)n(C(=O)OCC)c2c1 (optimized conformer: 63.842165435838545 kcal/mol)

>  <smiles>  (51) 
C#Cc1ccc2cc(C(N)=O)n(C(=O)OCC)c2c1

>  <score_type>  (51) 
oracle

>  <origin>  (51) 
adg

>  <m_score__min__energy>  (51) 
-6.3700000000000001

>  <m_primary>  (51) 
energy

$$$$
53:0
     RDKit          3D

 47 49  0  0  0  0  0  0  0  0999 V2000
  140.6160  157.9630  134.4040 C   0  0  0  0  0  0  0  0  0  0  0  0
  141.5240  158.2470  135.6160 C   0  0  0  0  0  0  0  0  0  0  0  0
  140.9440  159.3870  136.4730 C   0  0  0  0  0  0  0  0  0  0  0  0
  141.6150  156.9770  136.4750 C   0  0  0  0  0  0  0  0  0  0  0  0
  142.8560  158.5610  135.1850 O   0  0  0  0  0  0  0  0  0  0  0  0
  143.2200  159.5540  134.2620 C   0  0  0  0  0  0  0  0  0  0  0  0
  142.3560  160.3270  133.7680 O   0  0  0  0  0  0  0  0  0  0  0  0
  144.5920  159.6720  133.8590 N   0  0  0  0  0  0  0  0  0  0  0  0
  145.3690  160.7930  133.8640 C   0  0  0  0  0  0  0  0  0  0  0  0
  144.9000  162.1710  134.1180 C   0  0  0  0  0  0  0  0  0  0  0  0
  143.8380  162.7360  133.3550 N   0  0  0  0  0  0  0  0  0  0  0  0
  145.4780  162.8770  134.9870 O   0  0  0  0  0  0  0  0  0  0  0  0
  146.6780  160.4830  133.5040 C   0  0  0  0  0  0  0  0  0  0  0  0
  146.6810  159.1280  133.2690 C   0  0  0  0  0  0  0  0  0  0  0  0
  147.7220  158.2870  132.8840 C   0  0  0  0  0  0  0  0  0  0  0  0
  147.4430  156.9190  132.7330 C   0  0  0  0  0  0  0  0  0  0  0  0
  146.1420  156.4160  132.9850 C   0  0  0  0  0  0  0  0  0  0  0  0
  145.8500  154.9520  132.7880 C   0  0  0  0  0  0  0  0  0  0  0  0
  144.4490  154.6760  132.1940 C   0  0  0  0  0  0  0  0  0  0  0  0
  144.3290  154.7210  130.7320 N   0  0  0  0  0  0  0  0  0  0  0  0
  143.1590  154.9170  132.9860 C   0  0  0  0  0  0  0  0  0  0  0  0
  143.7060  153.5020  132.8330 C   0  0  0  0  0  0  0  0  0  0  0  0
  145.1100  157.3000  133.3700 C   0  0  0  0  0  0  0  0  0  0  0  0
  145.4110  158.6610  133.4920 C   0  0  0  0  0  0  0  0  0  0  0  0
  139.6213  157.6519  134.7560 H   0  0  0  0  0  0  0  0  0  0  0  0
  140.5211  158.8744  133.7954 H   0  0  0  0  0  0  0  0  0  0  0  0
  141.0573  157.1600  133.7954 H   0  0  0  0  0  0  0  0  0  0  0  0
  141.0676  159.1440  137.5387 H   0  0  0  0  0  0  0  0  0  0  0  0
  141.4755  160.3230  136.2463 H   0  0  0  0  0  0  0  0  0  0  0  0
  139.8745  159.5085  136.2463 H   0  0  0  0  0  0  0  0  0  0  0  0
  141.5953  157.2524  137.5398 H   0  0  0  0  0  0  0  0  0  0  0  0
  140.7616  156.3204  136.2502 H   0  0  0  0  0  0  0  0  0  0  0  0
  142.5533  156.4487  136.2502 H   0  0  0  0  0  0  0  0  0  0  0  0
  143.0540  162.1420  133.0000 H   0  0  0  0  0  0  0  0  0  0  0  0
  147.5292  161.1752  133.4245 H   0  0  0  0  0  0  0  0  0  0  0  0
  148.7325  158.6824  132.7036 H   0  0  0  0  0  0  0  0  0  0  0  0
  148.2413  156.2316  132.4163 H   0  0  0  0  0  0  0  0  0  0  0  0
  146.6055  154.5352  132.1058 H   0  0  0  0  0  0  0  0  0  0  0  0
  145.8786  154.4802  133.7813 H   0  0  0  0  0  0  0  0  0  0  0  0
  143.4260  155.1850  130.4810 H   0  0  0  0  0  0  0  0  0  0  0  0
  144.3420  153.7690  130.2990 H   0  0  0  0  0  0  0  0  0  0  0  0
  145.1210  155.2810  130.3410 H   0  0  0  0  0  0  0  0  0  0  0  0
  143.1997  155.4196  133.9636 H   0  0  0  0  0  0  0  0  0  0  0  0
  142.1965  155.4058  132.7746 H   0  0  0  0  0  0  0  0  0  0  0  0
  144.1402  152.9841  133.7009 H   0  0  0  0  0  0  0  0  0  0  0  0
  143.2996  152.5481  132.4658 H   0  0  0  0  0  0  0  0  0  0  0  0
  144.0943  156.9276  133.5691 H   0  0  0  0  0  0  0  0  0  0  0  0
  1  2  1  0
  2  3  1  0
  2  4  1  0
  2  5  1  0
  5  6  1  0
  6  7  2  0
  6  8  1  0
  8  9  1  0
  9 10  1  0
 10 11  1  0
 10 12  2  0
  9 13  2  0
 13 14  1  0
 14 15  2  0
 15 16  1  0
 16 17  2  0
 17 18  1  0
 18 19  1  0
 19 20  1  0
 19 21  1  0
 21 22  1  0
 17 23  1  0
 23 24  2  0
 24  8  1  0
 24 14  1  0
 22 19  1  0
  1 25  1  0
  1 26  1  0
  1 27  1  0
  3 28  1  0
  3 29  1  0
  3 30  1  0
  4 31  1  0
  4 32  1  0
  4 33  1  0
 11 34  1  0
 13 35  1  0
 15 36  1  0
 16 37  1  0
 18 38  1  0
 18 39  1  0
 20 40  1  0
 20 41  1  0
 20 42  1  0
 21 43  1  0
 21 44  1  0
 22 45  1  0
 22 46  1  0
 23 47  1  0
M  CHG  2  11  -1  20   1
M  END
>  <UniqueID>  (52) 
52

>  <SMILES>  (52) 
CC(C)(C)OC(=O)n1c(C([NH-])=O)cc2ccc(CC3([NH3+])CC3)cc21

>  <Energy>  (52) 
351.6458931814561

>  <Genealogy>  (52) 
CC(C)(C)OC(=O)n1c(C([NH-])=O)cc2ccc(CC3([NH3+])CC3)cc21 (protonated)
CC(C)(C)OC(=O)n1c(C([NH-])=O)cc2ccc(CC3([NH3+])CC3)cc21 (3D coordinates assigned)
CC(C)(C)OC(=O)n1c(C([NH-])=O)cc2ccc(CC3([NH3+])CC3)cc21 (nonaromatic ring conformer: 351.6458931814561 kcal/mol)

>  <smiles>  (52) 
CC(C)(C)OC(=O)n1c(C(N)=O)cc2ccc(CC3(N)CC3)cc21

>  <score_type>  (52) 
oracle

>  <origin>  (52) 
adg

>  <m_score__min__energy>  (52) 
-8.3000000000000007

>  <m_primary>  (52) 
energy

$$$$
54:0
     RDKit          3D

 65 67  0  0  0  0  0  0  0  0999 V2000
  138.0430  160.1010  130.7310 C   0  0  0  0  0  0  0  0  0  0  0  0
  138.6810  158.8040  131.2290 C   0  0  0  0  0  0  0  0  0  0  0  0
  139.1850  158.9520  132.6140 N   0  0  0  0  0  0  0  0  0  0  0  0
  138.8360  157.7770  133.4550 C   0  0  0  0  0  0  0  0  0  0  0  0
  139.5970  156.5500  132.9660 C   0  0  0  0  0  0  0  0  0  0  0  0
  140.6440  159.2050  132.6090 C   0  0  0  0  0  0  0  0  0  0  0  0
  140.9700  160.5340  133.2890 C   0  0  0  0  0  0  0  0  0  0  0  0
  142.0560  160.3460  134.1930 O   0  0  0  0  0  0  0  0  0  0  0  0
  143.1140  159.4490  133.9900 C   0  0  0  0  0  0  0  0  0  0  0  0
  144.3030  159.9390  133.4400 C   0  0  0  0  0  0  0  0  0  0  0  0
  145.3860  159.0850  133.2110 C   0  0  0  0  0  0  0  0  0  0  0  0
  145.3000  157.7220  133.5410 C   0  0  0  0  0  0  0  0  0  0  0  0
  146.4490  156.8160  133.3030 C   0  0  0  0  0  0  0  0  0  0  0  0
  147.7660  157.3370  133.2200 C   0  0  0  0  0  0  0  0  0  0  0  0
  148.8610  156.4900  132.9770 C   0  0  0  0  0  0  0  0  0  0  0  0
  148.6130  155.1290  132.8350 C   0  0  0  0  0  0  0  0  0  0  0  0
  149.4810  154.0930  132.5710 C   0  0  0  0  0  0  0  0  0  0  0  0
  148.6880  152.9480  132.5260 C   0  0  0  0  0  0  0  0  0  0  0  0
  149.2330  151.5860  132.3430 C   0  0  0  0  0  0  0  0  0  0  0  0
  148.6360  150.4640  132.9850 N   0  0  0  0  0  0  0  0  0  0  0  0
  150.2710  151.4200  131.6470 O   0  0  0  0  0  0  0  0  0  0  0  0
  147.3810  153.2650  132.7500 N   0  0  0  0  0  0  0  0  0  0  0  0
  146.2440  152.3910  132.6990 C   0  0  0  0  0  0  0  0  0  0  0  0
  146.2460  151.4140  131.9020 O   0  0  0  0  0  0  0  0  0  0  0  0
  145.1590  152.6190  133.5580 O   0  0  0  0  0  0  0  0  0  0  0  0
  143.8180  152.9460  133.1650 C   0  0  0  0  0  0  0  0  0  0  0  0
  143.8170  153.7760  131.8670 C   0  0  0  0  0  0  0  0  0  0  0  0
  142.9790  151.6660  132.9900 C   0  0  0  0  0  0  0  0  0  0  0  0
  143.2070  153.7900  134.2930 C   0  0  0  0  0  0  0  0  0  0  0  0
  147.3520  154.6030  132.9360 C   0  0  0  0  0  0  0  0  0  0  0  0
  146.2400  155.4250  133.1530 C   0  0  0  0  0  0  0  0  0  0  0  0
  144.1080  157.2310  134.1010 C   0  0  0  0  0  0  0  0  0  0  0  0
  143.0210  158.0830  134.3180 C   0  0  0  0  0  0  0  0  0  0  0  0
  137.7409  160.7152  131.5921 H   0  0  0  0  0  0  0  0  0  0  0  0
  138.7705  160.6569  130.1213 H   0  0  0  0  0  0  0  0  0  0  0  0
  137.1586  159.8641  130.1213 H   0  0  0  0  0  0  0  0  0  0  0  0
  137.9288  158.0018  131.2048 H   0  0  0  0  0  0  0  0  0  0  0  0
  139.5301  158.5596  130.5737 H   0  0  0  0  0  0  0  0  0  0  0  0
  139.1075  157.9826  134.5010 H   0  0  0  0  0  0  0  0  0  0  0  0
  137.7549  157.5869  133.3841 H   0  0  0  0  0  0  0  0  0  0  0  0
  139.9554  155.9722  133.8307 H   0  0  0  0  0  0  0  0  0  0  0  0
  138.9291  155.9228  132.3572 H   0  0  0  0  0  0  0  0  0  0  0  0
  140.4556  156.8696  132.3572 H   0  0  0  0  0  0  0  0  0  0  0  0
  141.1524  158.3912  133.1468 H   0  0  0  0  0  0  0  0  0  0  0  0
  140.9889  159.2506  131.5655 H   0  0  0  0  0  0  0  0  0  0  0  0
  141.2497  161.2774  132.5280 H   0  0  0  0  0  0  0  0  0  0  0  0
  140.0884  160.8918  133.8410 H   0  0  0  0  0  0  0  0  0  0  0  0
  144.3867  161.0058  133.1853 H   0  0  0  0  0  0  0  0  0  0  0  0
  146.3116  159.4829  132.7695 H   0  0  0  0  0  0  0  0  0  0  0  0
  147.9322  158.4169  133.3474 H   0  0  0  0  0  0  0  0  0  0  0  0
  149.8824  156.8912  132.9015 H   0  0  0  0  0  0  0  0  0  0  0  0
  150.5696  154.1560  132.4263 H   0  0  0  0  0  0  0  0  0  0  0  0
  147.6400  150.4900  133.2970 H   0  0  0  0  0  0  0  0  0  0  0  0
  143.8157  154.8473  132.1168 H   0  0  0  0  0  0  0  0  0  0  0  0
  144.7154  153.5377  131.2787 H   0  0  0  0  0  0  0  0  0  0  0  0
  142.9191  153.5356  131.2787 H   0  0  0  0  0  0  0  0  0  0  0  0
  142.7147  151.2628  133.9787 H   0  0  0  0  0  0  0  0  0  0  0  0
  142.0604  151.9029  132.4332 H   0  0  0  0  0  0  0  0  0  0  0  0
  143.5628  150.9182  132.4332 H   0  0  0  0  0  0  0  0  0  0  0  0
  143.5078  153.3744  135.2660 H   0  0  0  0  0  0  0  0  0  0  0  0
  143.5653  154.8267  134.2105 H   0  0  0  0  0  0  0  0  0  0  0  0
  142.1102  153.7734  134.2105 H   0  0  0  0  0  0  0  0  0  0  0  0
  145.2271  154.9992  133.2057 H   0  0  0  0  0  0  0  0  0  0  0  0
  144.0297  156.1675  134.3708 H   0  0  0  0  0  0  0  0  0  0  0  0
  142.0896  157.6846  134.7466 H   0  0  0  0  0  0  0  0  0  0  0  0
  1  2  1  0
  2  3  1  0
  3  4  1  0
  4  5  1  0
  3  6  1  0
  6  7  1  0
  7  8  1  0
  8  9  1  0
  9 10  2  0
 10 11  1  0
 11 12  2  0
 12 13  1  0
 13 14  2  0
 14 15  1  0
 15 16  2  0
 16 17  1  0
 17 18  2  0
 18 19  1  0
 19 20  1  0
 19 21  2  0
 18 22  1  0
 22 23  1  0
 23 24  2  0
 23 25  1  0
 25 26  1  0
 26 27  1  0
 26 28  1  0
 26 29  1  0
 22 30  1  0
 30 31  2  0
 12 32  1  0
 32 33  2  0
 33  9  1  0
 31 13  1  0
 30 16  1  0
  1 34  1  0
  1 35  1  0
  1 36  1  0
  2 37  1  0
  2 38  1  0
  4 39  1  0
  4 40  1  0
  5 41  1  0
  5 42  1  0
  5 43  1  0
  6 44  1  0
  6 45  1  0
  7 46  1  0
  7 47  1  0
 10 48  1  0
 11 49  1  0
 14 50  1  0
 15 51  1  0
 17 52  1  0
 20 53  1  0
 27 54  1  0
 27 55  1  0
 27 56  1  0
 28 57  1  0
 28 58  1  0
 28 59  1  0
 29 60  1  0
 29 61  1  0
 29 62  1  0
 31 63  1  0
 32 64  1  0
 33 65  1  0
M  CHG  1  20  -1
M  END
>  <UniqueID>  (53) 
53

>  <SMILES>  (53) 
CCN(CC)CCOc1ccc(-c2ccc3cc(C([NH-])=O)n(C(=O)OC(C)(C)C)c3c2)cc1

>  <Energy>  (53) 
103.56175780901269

>  <Genealogy>  (53) 
CCN(CC)CCOc1ccc(-c2ccc3cc(C([NH-])=O)n(C(=O)OC(C)(C)C)c3c2)cc1 (protonated)
CCN(CC)CCOc1ccc(-c2ccc3cc(C([NH-])=O)n(C(=O)OC(C)(C)C)c3c2)cc1 (3D coordinates assigned)
CCN(CC)CCOc1ccc(-c2ccc3cc(C([NH-])=O)n(C(=O)OC(C)(C)C)c3c2)cc1 (optimized conformer: 103.56175780901269 kcal/mol)

>  <smiles>  (53) 
CCN(CC)CCOc1ccc(-c2ccc3cc(C(N)=O)n(C(=O)OC(C)(C)C)c3c2)cc1

>  <score_type>  (53) 
oracle

>  <origin>  (53) 
adg

>  <m_score__min__energy>  (53) 
-9.8200000000000003

>  <m_primary>  (53) 
energy

$$$$
55:0
     RDKit          3D

 25 26  0  0  0  0  0  0  0  0999 V2000
  149.2680  162.0010  130.3560 C   0  0  0  0  0  0  0  0  0  0  0  0
  149.1010  160.7270  131.1290 C   0  0  0  0  0  0  0  0  0  0  0  0
  150.1230  159.7470  131.1060 C   0  0  0  0  0  0  0  0  0  0  0  0
  149.9580  158.5270  131.7830 C   0  0  0  0  0  0  0  0  0  0  0  0
  148.7660  158.3170  132.4690 C   0  0  0  0  0  0  0  0  0  0  0  0
  148.3330  157.2140  133.1700 C   0  0  0  0  0  0  0  0  0  0  0  0
  147.0590  157.5450  133.6230 C   0  0  0  0  0  0  0  0  0  0  0  0
  146.2470  156.6570  134.4780 C   0  0  0  0  0  0  0  0  0  0  0  0
  144.8200  156.7160  134.4630 N   0  0  0  0  0  0  0  0  0  0  0  0
  146.8240  155.8720  135.2780 O   0  0  0  0  0  0  0  0  0  0  0  0
  146.7070  158.7950  133.2090 N   0  0  0  0  0  0  0  0  0  0  0  0
  145.4360  159.4460  133.3740 C   0  0  0  0  0  0  0  0  0  0  0  0
  145.3350  160.4650  134.1060 O   0  0  0  0  0  0  0  0  0  0  0  0
  144.3060  158.9580  132.7320 O   0  0  0  0  0  0  0  0  0  0  0  0
  147.7670  159.2570  132.5050 C   0  0  0  0  0  0  0  0  0  0  0  0
  147.8960  160.4710  131.8200 C   0  0  0  0  0  0  0  0  0  0  0  0
  149.3783  162.8426  131.0557 H   0  0  0  0  0  0  0  0  0  0  0  0
  150.1646  161.9308  129.7226 H   0  0  0  0  0  0  0  0  0  0  0  0
  148.3836  162.1642  129.7226 H   0  0  0  0  0  0  0  0  0  0  0  0
  151.0538  159.9426  130.5535 H   0  0  0  0  0  0  0  0  0  0  0  0
  150.7474  157.7610  131.7710 H   0  0  0  0  0  0  0  0  0  0  0  0
  148.8772  156.2727  133.3365 H   0  0  0  0  0  0  0  0  0  0  0  0
  144.3180  157.4670  133.9410 H   0  0  0  0  0  0  0  0  0  0  0  0
  144.2620  156.0540  135.0460 H   0  0  0  0  0  0  0  0  0  0  0  0
  147.0790  161.2075  131.8199 H   0  0  0  0  0  0  0  0  0  0  0  0
  1  2  1  0
  2  3  2  0
  3  4  1  0
  4  5  2  0
  5  6  1  0
  6  7  2  0
  7  8  1  0
  8  9  1  0
  8 10  2  0
  7 11  1  0
 11 12  1  0
 12 13  2  0
 12 14  1  0
 11 15  1  0
 15 16  2  0
 16  2  1  0
 15  5  1  0
  1 17  1  0
  1 18  1  0
  1 19  1  0
  3 20  1  0
  4 21  1  0
  6 22  1  0
  9 23  1  0
  9 24  1  0
 16 25  1  0
M  CHG  1  14  -1
M  END
>  <UniqueID>  (54) 
54

>  <SMILES>  (54) 
Cc1ccc2cc(C(N)=O)n(C(=O)[O-])c2c1

>  <Energy>  (54) 
64.9143651562845

>  <Genealogy>  (54) 
Cc1ccc2cc(C(N)=O)n(C(=O)[O-])c2c1 (protonated)
Cc1ccc2cc(C(N)=O)n(C(=O)[O-])c2c1 (3D coordinates assigned)
Cc1ccc2cc(C(N)=O)n(C(=O)[O-])c2c1 (optimized conformer: 64.9143651562845 kcal/mol)

>  <smiles>  (54) 
Cc1ccc2cc(C(N)=O)n(C(=O)O)c2c1

>  <score_type>  (54) 
oracle

>  <origin>  (54) 
adg

>  <m_score__min__energy>  (54) 
-6

>  <m_primary>  (54) 
energy

$$$$
56:0
     RDKit          3D

 32 34  0  0  0  0  0  0  0  0999 V2000
  141.0480  160.8680  133.3320 N   0  0  0  0  0  0  0  0  0  0  0  0
  141.8060  160.1440  134.2980 C   0  0  0  0  0  0  0  0  0  0  0  0
  141.2860  159.8720  135.4120 O   0  0  0  0  0  0  0  0  0  0  0  0
  143.1720  159.6850  133.9680 C   0  0  0  0  0  0  0  0  0  0  0  0
  143.5090  158.3440  133.8020 C   0  0  0  0  0  0  0  0  0  0  0  0
  144.8700  158.3320  133.5940 C   0  0  0  0  0  0  0  0  0  0  0  0
  145.7280  157.2630  133.3530 C   0  0  0  0  0  0  0  0  0  0  0  0
  147.0870  157.5460  133.1380 C   0  0  0  0  0  0  0  0  0  0  0  0
  147.5590  158.8820  133.1720 C   0  0  0  0  0  0  0  0  0  0  0  0
  149.0030  159.1770  132.8800 C   0  0  0  0  0  0  0  0  0  0  0  0
  149.1070  160.0140  131.6890 N   0  0  0  0  0  0  0  0  0  0  0  0
  149.9080  159.7920  130.6290 C   0  0  0  0  0  0  0  0  0  0  0  0
  149.7760  160.8530  129.7530 C   0  0  0  0  0  0  0  0  0  0  0  0
  148.8690  161.7060  130.3580 C   0  0  0  0  0  0  0  0  0  0  0  0
  148.4870  161.1720  131.5320 N   0  0  0  0  0  0  0  0  0  0  0  0
  146.6560  159.9410  133.4050 C   0  0  0  0  0  0  0  0  0  0  0  0
  145.3100  159.6290  133.6340 C   0  0  0  0  0  0  0  0  0  0  0  0
  144.2790  160.4740  133.8580 N   0  0  0  0  0  0  0  0  0  0  0  0
  144.3490  161.9090  133.9010 C   0  0  0  0  0  0  0  0  0  0  0  0
  145.3280  162.4830  134.4480 O   0  0  0  0  0  0  0  0  0  0  0  0
  143.3250  162.6780  133.3640 O   0  0  0  0  0  0  0  0  0  0  0  0
  141.3710  161.7980  132.9840 H   0  0  0  0  0  0  0  0  0  0  0  0
  142.8315  157.4779  133.8309 H   0  0  0  0  0  0  0  0  0  0  0  0
  145.3536  156.2289  133.3316 H   0  0  0  0  0  0  0  0  0  0  0  0
  147.7908  156.7238  132.9416 H   0  0  0  0  0  0  0  0  0  0  0  0
  149.4482  159.7043  133.7366 H   0  0  0  0  0  0  0  0  0  0  0  0
  149.5383  158.2318  132.7068 H   0  0  0  0  0  0  0  0  0  0  0  0
  150.5568  158.9155  130.4850 H   0  0  0  0  0  0  0  0  0  0  0  0
  150.2816  160.9898  128.7857 H   0  0  0  0  0  0  0  0  0  0  0  0
  148.5181  162.6637  129.9461 H   0  0  0  0  0  0  0  0  0  0  0  0
  147.8250  161.5980  132.2180 H   0  0  0  0  0  0  0  0  0  0  0  0
  147.0007  160.9856  133.4067 H   0  0  0  0  0  0  0  0  0  0  0  0
  1  2  1  0
  2  3  2  0
  2  4  1  0
  4  5  2  0
  5  6  1  0
  6  7  2  0
  7  8  1  0
  8  9  2  0
  9 10  1  0
 10 11  1  0
 11 12  1  0
 12 13  2  0
 13 14  1  0
 14 15  2  0
  9 16  1  0
 16 17  2  0
 17 18  1  0
 18 19  1  0
 19 20  2  0
 19 21  1  0
 18  4  1  0
 17  6  1  0
 15 11  1  0
  1 22  1  0
  5 23  1  0
  7 24  1  0
  8 25  1  0
 10 26  1  0
 10 27  1  0
 12 28  1  0
 13 29  1  0
 14 30  1  0
 15 31  1  0
 16 32  1  0
M  CHG  3   1  -1  15   1  21  -1
M  END
>  <UniqueID>  (55) 
55

>  <SMILES>  (55) 
[NH-]C(=O)c1cc2ccc(Cn3ccc[nH+]3)cc2n1C(=O)[O-]

>  <Energy>  (55) 
101.83588171370364

>  <Genealogy>  (55) 
[NH-]C(=O)c1cc2ccc(Cn3ccc[nH+]3)cc2n1C(=O)[O-] (protonated)
[NH-]C(=O)c1cc2ccc(Cn3ccc[nH+]3)cc2n1C(=O)[O-] (3D coordinates assigned)
[NH-]C(=O)c1cc2ccc(Cn3ccc[nH+]3)cc2n1C(=O)[O-] (optimized conformer: 101.83588171370364 kcal/mol)

>  <smiles>  (55) 
NC(=O)c1cc2ccc(Cn3cccn3)cc2n1C(=O)O

>  <score_type>  (55) 
oracle

>  <origin>  (55) 
adg

>  <m_score__min__energy>  (55) 
-6.9299999999999997

>  <m_primary>  (55) 
energy

$$$$
57:0
     RDKit          3D

 71 73  0  0  0  0  0  0  0  0999 V2000
  142.2070  153.3940  136.4280 C   0  0  0  0  0  0  0  0  0  0  0  0
  142.6580  154.8520  136.3620 C   0  0  0  0  0  0  0  0  0  0  0  0
  142.0720  155.7020  137.5030 C   0  0  0  0  0  0  0  0  0  0  0  0
  140.6150  156.1070  137.2480 C   0  0  0  0  0  0  0  0  0  0  0  0
  140.5320  157.6910  136.4190 S   0  0  0  0  0  0  0  0  0  0  0  0
  140.2670  158.7490  137.4580 O   0  0  0  0  0  0  0  0  0  0  0  0
  139.3910  157.6580  135.4420 O   0  0  0  0  0  0  0  0  0  0  0  0
  142.0660  158.0390  135.6350 N   0  0  0  0  0  0  0  0  0  0  0  0
  142.0360  158.8270  134.3680 C   0  0  1  0  0  0  0  0  0  0  0  0
  141.1220  158.1340  133.2820 C   0  0  0  0  0  0  0  0  0  0  0  0
  141.1220  156.6200  133.2220 C   0  0  0  0  0  0  0  0  0  0  0  0
  139.8910  155.9160  133.1340 C   0  0  0  0  0  0  0  0  0  0  0  0
  139.8650  154.5120  133.0720 C   0  0  0  0  0  0  0  0  0  0  0  0
  141.0820  153.8380  133.0590 C   0  0  0  0  0  0  0  0  0  0  0  0
  141.3510  152.4880  133.0070 C   0  0  0  0  0  0  0  0  0  0  0  0
  142.7420  152.3900  132.9790 C   0  0  0  0  0  0  0  0  0  0  0  0
  143.4630  151.1100  132.8090 C   0  0  0  0  0  0  0  0  0  0  0  0
  144.8700  151.0880  132.5920 N   0  0  0  0  0  0  0  0  0  0  0  0
  142.8190  150.0260  132.7980 O   0  0  0  0  0  0  0  0  0  0  0  0
  143.3080  153.6280  133.0230 N   0  0  0  0  0  0  0  0  0  0  0  0
  144.7060  153.9540  133.0560 C   0  0  0  0  0  0  0  0  0  0  0  0
  145.2000  154.6660  132.1420 O   0  0  0  0  0  0  0  0  0  0  0  0
  145.5030  153.4770  134.1080 O   0  0  0  0  0  0  0  0  0  0  0  0
  146.2080  154.2770  135.0690 C   0  0  0  0  0  0  0  0  0  0  0  0
  145.9340  153.7640  136.4980 C   0  0  0  0  0  0  0  0  0  0  0  0
  145.8130  155.7640  134.9400 C   0  0  0  0  0  0  0  0  0  0  0  0
  147.7080  154.1380  134.7660 C   0  0  0  0  0  0  0  0  0  0  0  0
  142.2810  154.5020  133.0750 C   0  0  0  0  0  0  0  0  0  0  0  0
  142.3340  155.8970  133.1580 C   0  0  0  0  0  0  0  0  0  0  0  0
  141.3520  160.1520  134.6670 C   0  0  0  0  0  0  0  0  0  0  0  0
  141.0050  160.4560  135.8410 O   0  0  0  0  0  0  0  0  0  0  0  0
  141.0770  161.0380  133.6290 O   0  0  0  0  0  0  0  0  0  0  0  0
  143.4620  159.2140  133.9270 C   0  0  0  0  0  0  0  0  0  0  0  0
  144.3130  158.2030  133.4280 C   0  0  0  0  0  0  0  0  0  0  0  0
  145.6200  158.4890  133.0280 C   0  0  0  0  0  0  0  0  0  0  0  0
  146.1330  159.7890  133.1490 C   0  0  0  0  0  0  0  0  0  0  0  0
  147.5090  160.0990  132.7050 C   0  0  0  0  0  0  0  0  0  0  0  0
  148.4740  160.0200  133.5140 O   0  0  0  0  0  0  0  0  0  0  0  0
  147.7570  160.4580  131.3820 O   0  0  0  0  0  0  0  0  0  0  0  0
  145.3260  160.7870  133.7190 C   0  0  0  0  0  0  0  0  0  0  0  0
  144.0240  160.4930  134.1400 C   0  0  0  0  0  0  0  0  0  0  0  0
  142.1120  153.0868  137.4800 H   0  0  0  0  0  0  0  0  0  0  0  0
  141.2341  153.2880  135.9258 H   0  0  0  0  0  0  0  0  0  0  0  0
  142.9502  152.7572  135.9258 H   0  0  0  0  0  0  0  0  0  0  0  0
  143.7557  154.8850  136.4254 H   0  0  0  0  0  0  0  0  0  0  0  0
  142.2951  155.2716  135.4121 H   0  0  0  0  0  0  0  0  0  0  0  0
  142.1179  155.1200  138.4353 H   0  0  0  0  0  0  0  0  0  0  0  0
  142.6673  156.6245  137.5710 H   0  0  0  0  0  0  0  0  0  0  0  0
  140.1336  155.3445  136.6180 H   0  0  0  0  0  0  0  0  0  0  0  0
  140.0968  156.1873  138.2149 H   0  0  0  0  0  0  0  0  0  0  0  0
  142.6890  158.5040  136.3360 H   0  0  0  0  0  0  0  0  0  0  0  0
  140.0870  158.4551  133.4707 H   0  0  0  0  0  0  0  0  0  0  0  0
  141.5480  158.4499  132.3183 H   0  0  0  0  0  0  0  0  0  0  0  0
  138.9453  156.4774  133.1141 H   0  0  0  0  0  0  0  0  0  0  0  0
  138.9123  153.9634  133.0349 H   0  0  0  0  0  0  0  0  0  0  0  0
  140.6236  151.6630  132.9910 H   0  0  0  0  0  0  0  0  0  0  0  0
  145.5350  151.4670  133.3070 H   0  0  0  0  0  0  0  0  0  0  0  0
  146.3214  154.4894  137.2286 H   0  0  0  0  0  0  0  0  0  0  0  0
  144.8504  153.6416  136.6422 H   0  0  0  0  0  0  0  0  0  0  0  0
  146.4348  152.7953  136.6422 H   0  0  0  0  0  0  0  0  0  0  0  0
  145.6970  156.2009  135.9428 H   0  0  0  0  0  0  0  0  0  0  0  0
  146.5984  156.3059  134.3926 H   0  0  0  0  0  0  0  0  0  0  0  0
  144.8623  155.8447  134.3926 H   0  0  0  0  0  0  0  0  0  0  0  0
  148.2695  154.0860  135.7104 H   0  0  0  0  0  0  0  0  0  0  0  0
  147.8812  153.2200  134.1853 H   0  0  0  0  0  0  0  0  0  0  0  0
  148.0470  155.0086  134.1853 H   0  0  0  0  0  0  0  0  0  0  0  0
  143.3009  156.4213  133.1732 H   0  0  0  0  0  0  0  0  0  0  0  0
  143.9392  157.1712  133.3531 H   0  0  0  0  0  0  0  0  0  0  0  0
  146.2519  157.6890  132.6150 H   0  0  0  0  0  0  0  0  0  0  0  0
  145.7201  161.8074  133.8354 H   0  0  0  0  0  0  0  0  0  0  0  0
  143.4293  161.2690  134.6442 H   0  0  0  0  0  0  0  0  0  0  0  0
  1  2  1  0
  2  3  1  0
  3  4  1  0
  4  5  1  0
  5  6  2  0
  5  7  2  0
  5  8  1  0
  9  8  1  1
  9 10  1  0
 10 11  1  0
 11 12  2  0
 12 13  1  0
 13 14  2  0
 14 15  1  0
 15 16  2  0
 16 17  1  0
 17 18  1  0
 17 19  2  0
 16 20  1  0
 20 21  1  0
 21 22  2  0
 21 23  1  0
 23 24  1  0
 24 25  1  0
 24 26  1  0
 24 27  1  0
 20 28  1  0
 28 29  2  0
  9 30  1  0
 30 31  2  0
 30 32  1  0
  9 33  1  0
 33 34  2  0
 34 35  1  0
 35 36  2  0
 36 37  1  0
 37 38  2  0
 37 39  1  0
 36 40  1  0
 40 41  2  0
 29 11  1  0
 41 33  1  0
 28 14  1  0
  1 42  1  0
  1 43  1  0
  1 44  1  0
  2 45  1  0
  2 46  1  0
  3 47  1  0
  3 48  1  0
  4 49  1  0
  4 50  1  0
  8 51  1  0
 10 52  1  0
 10 53  1  0
 12 54  1  0
 13 55  1  0
 15 56  1  0
 18 57  1  0
 25 58  1  0
 25 59  1  0
 25 60  1  0
 26 61  1  0
 26 62  1  0
 26 63  1  0
 27 64  1  0
 27 65  1  0
 27 66  1  0
 29 67  1  0
 34 68  1  0
 35 69  1  0
 40 70  1  0
 41 71  1  0
M  CHG  3  18  -1  32  -1  39  -1
M  END
>  <UniqueID>  (56) 
56

>  <SMILES>  (56) 
CCCCS(=O)(=O)N[C@@](Cc1ccc2cc(C([NH-])=O)n(C(=O)OC(C)(C)C)c2c1)(C(=O)[O-])c1ccc(C(=O)[O-])cc1

>  <Energy>  (56) 
114.25216440519436

>  <Genealogy>  (56) 
CCCCS(=O)(=O)NC(Cc1ccc2cc(C([NH-])=O)n(C(=O)OC(C)(C)C)c2c1)(C(=O)[O-])c1ccc(C(=O)[O-])cc1 (protonated)
CCCCS(=O)(=O)N[C@@](Cc1ccc2cc(C([NH-])=O)n(C(=O)OC(C)(C)C)c2c1)(C(=O)[O-])c1ccc(C(=O)[O-])cc1 (chirality)
CCCCS(=O)(=O)N[C@@](Cc1ccc2cc(C([NH-])=O)n(C(=O)OC(C)(C)C)c2c1)(C(=O)[O-])c1ccc(C(=O)[O-])cc1 (3D coordinates assigned)
CCCCS(=O)(=O)N[C@@](Cc1ccc2cc(C([NH-])=O)n(C(=O)OC(C)(C)C)c2c1)(C(=O)[O-])c1ccc(C(=O)[O-])cc1 (optimized conformer: 114.25216440519436 kcal/mol)

>  <smiles>  (56) 
CCCCS(=O)(=O)NC(Cc1ccc2cc(C(N)=O)n(C(=O)OC(C)(C)C)c2c1)(C(=O)O)c1ccc(C(=O)O)cc1

>  <score_type>  (56) 
oracle

>  <origin>  (56) 
adg

>  <m_score__min__energy>  (56) 
-10.880000000000001

>  <m_primary>  (56) 
energy

$$$$
58:0
     RDKit          3D

 34 36  0  0  0  0  0  0  0  0999 V2000
  142.9950  160.7920  133.3640 N   0  0  0  0  0  0  0  0  0  0  0  0
  144.3590  160.9690  133.7350 C   0  0  0  0  0  0  0  0  0  0  0  0
  144.7370  162.0860  134.1810 O   0  0  0  0  0  0  0  0  0  0  0  0
  145.3430  159.8840  133.5490 C   0  0  0  0  0  0  0  0  0  0  0  0
  146.6940  160.1110  133.2950 C   0  0  0  0  0  0  0  0  0  0  0  0
  147.2410  158.8640  133.0910 C   0  0  0  0  0  0  0  0  0  0  0  0
  148.5530  158.4980  132.8090 C   0  0  0  0  0  0  0  0  0  0  0  0
  148.8420  157.1310  132.6770 C   0  0  0  0  0  0  0  0  0  0  0  0
  147.8240  156.1530  132.8340 C   0  0  0  0  0  0  0  0  0  0  0  0
  148.1430  154.7090  132.7030 C   0  0  0  0  0  0  0  0  0  0  0  0
  149.4800  154.2750  132.6480 C   0  0  0  0  0  0  0  0  0  0  0  0
  149.7790  152.9160  132.5240 C   0  0  0  0  0  0  0  0  0  0  0  0
  148.7500  151.9740  132.4520 C   0  0  0  0  0  0  0  0  0  0  0  0
  147.4130  152.3880  132.5030 C   0  0  0  0  0  0  0  0  0  0  0  0
  146.3590  151.4240  132.4250 N   0  0  0  0  0  0  0  0  0  0  0  0
  147.1130  153.7530  132.6290 C   0  0  0  0  0  0  0  0  0  0  0  0
  146.5010  156.5690  133.1200 C   0  0  0  0  0  0  0  0  0  0  0  0
  146.2400  157.9400  133.2290 C   0  0  0  0  0  0  0  0  0  0  0  0
  145.0680  158.5490  133.5150 N   0  0  0  0  0  0  0  0  0  0  0  0
  143.8230  157.8980  133.8160 C   0  0  0  0  0  0  0  0  0  0  0  0
  142.7080  158.0400  132.9410 N   0  0  0  0  0  0  0  0  0  0  0  0
  143.7020  157.2220  134.8730 O   0  0  0  0  0  0  0  0  0  0  0  0
  142.7330  160.1870  132.5540 H   0  0  0  0  0  0  0  0  0  0  0  0
  147.2132  161.0803  133.2640 H   0  0  0  0  0  0  0  0  0  0  0  0
  149.3404  159.2573  132.6929 H   0  0  0  0  0  0  0  0  0  0  0  0
  149.8700  156.8129  132.4490 H   0  0  0  0  0  0  0  0  0  0  0  0
  150.2958  155.0109  132.7030 H   0  0  0  0  0  0  0  0  0  0  0  0
  150.8278  152.5868  132.4830 H   0  0  0  0  0  0  0  0  0  0  0  0
  148.9903  150.9049  132.3550 H   0  0  0  0  0  0  0  0  0  0  0  0
  146.0330  151.0630  131.5010 H   0  0  0  0  0  0  0  0  0  0  0  0
  145.8990  151.0640  133.2900 H   0  0  0  0  0  0  0  0  0  0  0  0
  146.0631  154.0787  132.6703 H   0  0  0  0  0  0  0  0  0  0  0  0
  145.6962  155.8312  133.2535 H   0  0  0  0  0  0  0  0  0  0  0  0
  142.5780  158.9070  132.3740 H   0  0  0  0  0  0  0  0  0  0  0  0
  1  2  1  0
  2  3  2  0
  2  4  1  0
  4  5  2  0
  5  6  1  0
  6  7  2  0
  7  8  1  0
  8  9  2  0
  9 10  1  0
 10 11  2  0
 11 12  1  0
 12 13  2  0
 13 14  1  0
 14 15  1  0
 14 16  2  0
  9 17  1  0
 17 18  2  0
 18 19  1  0
 19 20  1  0
 20 21  1  0
 20 22  2  0
 19  4  1  0
 18  6  1  0
 16 10  1  0
  1 23  1  0
  5 24  1  0
  7 25  1  0
  8 26  1  0
 11 27  1  0
 12 28  1  0
 13 29  1  0
 15 30  1  0
 15 31  1  0
 16 32  1  0
 17 33  1  0
 21 34  1  0
M  CHG  2   1  -1  21  -1
M  END
>  <UniqueID>  (57) 
57

>  <SMILES>  (57) 
[NH-]C(=O)c1cc2ccc(-c3cccc(N)c3)cc2n1C([NH-])=O

>  <Energy>  (57) 
80.55955913710939

>  <Genealogy>  (57) 
[NH-]C(=O)c1cc2ccc(-c3cccc(N)c3)cc2n1C([NH-])=O (protonated)
[NH-]C(=O)c1cc2ccc(-c3cccc(N)c3)cc2n1C([NH-])=O (3D coordinates assigned)
[NH-]C(=O)c1cc2ccc(-c3cccc(N)c3)cc2n1C([NH-])=O (optimized conformer: 80.55955913710939 kcal/mol)

>  <smiles>  (57) 
NC(=O)c1cc2ccc(-c3cccc(N)c3)cc2n1C(N)=O

>  <score_type>  (57) 
oracle

>  <origin>  (57) 
adg

>  <m_score__min__energy>  (57) 
-7.9199999999999999

>  <m_primary>  (57) 
energy

$$$$
59:0
     RDKit          3D

 25 26  0  0  0  0  0  0  0  0999 V2000
  142.7200  160.6070  133.3770 N   0  0  0  0  0  0  0  0  0  0  0  0
  144.0700  160.9120  133.7160 C   0  0  0  0  0  0  0  0  0  0  0  0
  144.3640  162.0810  134.0840 O   0  0  0  0  0  0  0  0  0  0  0  0
  145.1330  159.8960  133.5870 C   0  0  0  0  0  0  0  0  0  0  0  0
  146.4800  160.2130  133.4220 C   0  0  0  0  0  0  0  0  0  0  0  0
  147.1200  159.0080  133.2460 C   0  0  0  0  0  0  0  0  0  0  0  0
  148.4700  158.7300  133.0590 C   0  0  0  0  0  0  0  0  0  0  0  0
  148.8560  157.3850  132.9410 C   0  0  0  0  0  0  0  0  0  0  0  0
  147.8930  156.3450  133.0010 C   0  0  0  0  0  0  0  0  0  0  0  0
  148.3290  154.9030  132.9340 C   0  0  0  0  0  0  0  0  0  0  0  0
  148.4800  154.3790  134.2060 F   0  0  0  0  0  0  0  0  0  0  0  0
  149.5400  154.7900  132.2730 F   0  0  0  0  0  0  0  0  0  0  0  0
  147.3750  154.1710  132.2540 F   0  0  0  0  0  0  0  0  0  0  0  0
  146.5330  156.6670  133.2160 C   0  0  0  0  0  0  0  0  0  0  0  0
  146.1750  158.0170  133.3120 C   0  0  0  0  0  0  0  0  0  0  0  0
  144.9490  158.5460  133.5260 N   0  0  0  0  0  0  0  0  0  0  0  0
  143.7330  157.8120  133.7430 C   0  0  0  0  0  0  0  0  0  0  0  0
  142.6800  157.8660  132.7840 N   0  0  0  0  0  0  0  0  0  0  0  0
  143.5800  157.1420  134.7990 O   0  0  0  0  0  0  0  0  0  0  0  0
  142.4940  160.0340  132.5330 H   0  0  0  0  0  0  0  0  0  0  0  0
  146.9350  161.2144  133.4306 H   0  0  0  0  0  0  0  0  0  0  0  0
  149.2129  159.5394  133.0052 H   0  0  0  0  0  0  0  0  0  0  0  0
  149.9179  157.1348  132.8003 H   0  0  0  0  0  0  0  0  0  0  0  0
  145.7744  155.8755  133.3057 H   0  0  0  0  0  0  0  0  0  0  0  0
  142.4900  158.7410  132.2460 H   0  0  0  0  0  0  0  0  0  0  0  0
  1  2  1  0
  2  3  2  0
  2  4  1  0
  4  5  2  0
  5  6  1  0
  6  7  2  0
  7  8  1  0
  8  9  2  0
  9 10  1  0
 10 11  1  0
 10 12  1  0
 10 13  1  0
  9 14  1  0
 14 15  2  0
 15 16  1  0
 16 17  1  0
 17 18  1  0
 17 19  2  0
 16  4  1  0
 15  6  1  0
  1 20  1  0
  5 21  1  0
  7 22  1  0
  8 23  1  0
 14 24  1  0
 18 25  1  0
M  CHG  2   1  -1  18  -1
M  END
>  <UniqueID>  (58) 
58

>  <SMILES>  (58) 
[NH-]C(=O)c1cc2ccc(C(F)(F)F)cc2n1C([NH-])=O

>  <Energy>  (58) 
65.69600213974871

>  <Genealogy>  (58) 
[NH-]C(=O)c1cc2ccc(C(F)(F)F)cc2n1C([NH-])=O (protonated)
[NH-]C(=O)c1cc2ccc(C(F)(F)F)cc2n1C([NH-])=O (3D coordinates assigned)
[NH-]C(=O)c1cc2ccc(C(F)(F)F)cc2n1C([NH-])=O (optimized conformer: 65.69600213974871 kcal/mol)

>  <smiles>  (58) 
NC(=O)c1cc2ccc(C(F)(F)F)cc2n1C(N)=O

>  <score_type>  (58) 
oracle

>  <origin>  (58) 
adg

>  <m_score__min__energy>  (58) 
-5.46

>  <m_primary>  (58) 
energy

$$$$
60:0
     RDKit          3D

 32 33  0  0  0  0  0  0  0  0999 V2000
  149.4260  158.8030  131.3130 C   0  0  0  0  0  0  0  0  0  0  0  0
  148.8330  158.3320  132.6460 C   0  0  0  0  0  0  0  0  0  0  0  0
  148.5430  156.8270  132.6210 C   0  0  0  0  0  0  0  0  0  0  0  0
  147.5880  159.1220  133.0000 C   0  0  0  0  0  0  0  0  0  0  0  0
  147.7010  160.4820  133.3880 C   0  0  0  0  0  0  0  0  0  0  0  0
  146.5630  161.2320  133.7310 C   0  0  0  0  0  0  0  0  0  0  0  0
  145.3260  160.6010  133.6720 C   0  0  0  0  0  0  0  0  0  0  0  0
  144.0700  161.0830  133.9680 C   0  0  0  0  0  0  0  0  0  0  0  0
  143.2020  160.0160  133.7370 C   0  0  0  0  0  0  0  0  0  0  0  0
  141.7320  160.1260  133.8450 C   0  0  0  0  0  0  0  0  0  0  0  0
  140.9030  160.0150  132.6910 N   0  0  0  0  0  0  0  0  0  0  0  0
  141.2030  160.3640  134.9630 O   0  0  0  0  0  0  0  0  0  0  0  0
  143.8950  158.9180  133.3270 N   0  0  0  0  0  0  0  0  0  0  0  0
  143.3880  157.6000  133.0660 C   0  0  0  0  0  0  0  0  0  0  0  0
  142.2450  157.4170  132.2310 N   0  0  0  0  0  0  0  0  0  0  0  0
  143.9320  156.5990  133.6040 O   0  0  0  0  0  0  0  0  0  0  0  0
  145.1920  159.2940  133.2860 C   0  0  0  0  0  0  0  0  0  0  0  0
  146.3070  158.5180  132.9550 C   0  0  0  0  0  0  0  0  0  0  0  0
  150.2739  159.4765  131.5065 H   0  0  0  0  0  0  0  0  0  0  0  0
  149.7734  157.9319  130.7380 H   0  0  0  0  0  0  0  0  0  0  0  0
  148.6562  159.3385  130.7380 H   0  0  0  0  0  0  0  0  0  0  0  0
  149.5822  158.5166  133.4300 H   0  0  0  0  0  0  0  0  0  0  0  0
  148.4704  156.4504  133.6520 H   0  0  0  0  0  0  0  0  0  0  0  0
  147.5933  156.6452  132.0965 H   0  0  0  0  0  0  0  0  0  0  0  0
  149.3572  156.3054  132.0965 H   0  0  0  0  0  0  0  0  0  0  0  0
  148.6931  160.9560  133.4208 H   0  0  0  0  0  0  0  0  0  0  0  0
  146.6486  162.2852  134.0365 H   0  0  0  0  0  0  0  0  0  0  0  0
  143.8075  162.0940  134.3130 H   0  0  0  0  0  0  0  0  0  0  0  0
  141.3010  159.7310  131.7690 H   0  0  0  0  0  0  0  0  0  0  0  0
  141.8850  156.4570  132.0310 H   0  0  0  0  0  0  0  0  0  0  0  0
  141.7370  158.2400  131.8380 H   0  0  0  0  0  0  0  0  0  0  0  0
  146.1924  157.4628  132.6663 H   0  0  0  0  0  0  0  0  0  0  0  0
  1  2  1  0
  2  3  1  0
  2  4  1  0
  4  5  2  0
  5  6  1  0
  6  7  2  0
  7  8  1  0
  8  9  2  0
  9 10  1  0
 10 11  1  0
 10 12  2  0
  9 13  1  0
 13 14  1  0
 14 15  1  0
 14 16  2  0
 13 17  1  0
 17 18  2  0
 18  4  1  0
 17  7  1  0
  1 19  1  0
  1 20  1  0
  1 21  1  0
  2 22  1  0
  3 23  1  0
  3 24  1  0
  3 25  1  0
  5 26  1  0
  6 27  1  0
  8 28  1  0
 11 29  1  0
 15 30  1  0
 15 31  1  0
 18 32  1  0
M  CHG  1  11  -1
M  END
>  <UniqueID>  (59) 
59

>  <SMILES>  (59) 
CC(C)c1ccc2cc(C([NH-])=O)n(C(N)=O)c2c1

>  <Energy>  (59) 
67.10520410693566

>  <Genealogy>  (59) 
CC(C)c1ccc2cc(C([NH-])=O)n(C(N)=O)c2c1 (protonated)
CC(C)c1ccc2cc(C([NH-])=O)n(C(N)=O)c2c1 (3D coordinates assigned)
CC(C)c1ccc2cc(C([NH-])=O)n(C(N)=O)c2c1 (optimized conformer: 67.10520410693566 kcal/mol)

>  <smiles>  (59) 
CC(C)c1ccc2cc(C(N)=O)n(C(N)=O)c2c1

>  <score_type>  (59) 
oracle

>  <origin>  (59) 
adg

>  <m_score__min__energy>  (59) 
-6.8499999999999996

>  <m_primary>  (59) 
energy

$$$$
61:0
     RDKit          3D

 28 29  0  0  0  0  0  0  0  0999 V2000
  144.8430  162.2240  134.1150 C   0  0  0  0  0  0  0  0  0  0  0  0
  145.9050  161.2830  134.0210 O   0  0  0  0  0  0  0  0  0  0  0  0
  145.7830  160.0740  133.3280 C   0  0  0  0  0  0  0  0  0  0  0  0
  144.6400  159.6220  133.0400 O   0  0  0  0  0  0  0  0  0  0  0  0
  146.9590  159.3460  132.9430 N   0  0  0  0  0  0  0  0  0  0  0  0
  147.2480  158.0380  133.2000 C   0  0  0  0  0  0  0  0  0  0  0  0
  146.4720  157.1380  134.0760 C   0  0  0  0  0  0  0  0  0  0  0  0
  145.0780  156.9150  133.8600 N   0  0  0  0  0  0  0  0  0  0  0  0
  147.0370  156.5980  135.0640 O   0  0  0  0  0  0  0  0  0  0  0  0
  148.4230  157.6580  132.5580 C   0  0  0  0  0  0  0  0  0  0  0  0
  148.8610  158.7850  131.9030 C   0  0  0  0  0  0  0  0  0  0  0  0
  149.9790  158.9710  131.0940 C   0  0  0  0  0  0  0  0  0  0  0  0
  150.1650  160.2360  130.5110 C   0  0  0  0  0  0  0  0  0  0  0  0
  149.2350  161.2780  130.7380 C   0  0  0  0  0  0  0  0  0  0  0  0
  149.4300  162.5550  130.1270 N   0  0  0  0  0  0  0  0  0  0  0  0
  148.1110  161.0530  131.5620 C   0  0  0  0  0  0  0  0  0  0  0  0
  147.9600  159.7910  132.1490 C   0  0  0  0  0  0  0  0  0  0  0  0
  144.6205  162.4212  135.1741 H   0  0  0  0  0  0  0  0  0  0  0  0
  145.1391  163.1616  133.6218 H   0  0  0  0  0  0  0  0  0  0  0  0
  143.9479  161.8171  133.6218 H   0  0  0  0  0  0  0  0  0  0  0  0
  144.5440  157.4760  133.1600 H   0  0  0  0  0  0  0  0  0  0  0  0
  144.5540  156.2450  134.4650 H   0  0  0  0  0  0  0  0  0  0  0  0
  148.8999  156.6669  132.5717 H   0  0  0  0  0  0  0  0  0  0  0  0
  150.6937  158.1538  130.9169 H   0  0  0  0  0  0  0  0  0  0  0  0
  151.0418  160.4179  129.8722 H   0  0  0  0  0  0  0  0  0  0  0  0
  148.7050  162.9620  129.4950 H   0  0  0  0  0  0  0  0  0  0  0  0
  150.3010  163.1040  130.3010 H   0  0  0  0  0  0  0  0  0  0  0  0
  147.3726  161.8490  131.7383 H   0  0  0  0  0  0  0  0  0  0  0  0
  1  2  1  0
  2  3  1  0
  3  4  2  0
  3  5  1  0
  5  6  1  0
  6  7  1  0
  7  8  1  0
  7  9  2  0
  6 10  2  0
 10 11  1  0
 11 12  2  0
 12 13  1  0
 13 14  2  0
 14 15  1  0
 14 16  1  0
 16 17  2  0
 17  5  1  0
 17 11  1  0
  1 18  1  0
  1 19  1  0
  1 20  1  0
  8 21  1  0
  8 22  1  0
 10 23  1  0
 12 24  1  0
 13 25  1  0
 15 26  1  0
 15 27  1  0
 16 28  1  0
M  END
>  <UniqueID>  (60) 
60

>  <SMILES>  (60) 
COC(=O)n1c(C(N)=O)cc2ccc(N)cc21

>  <Energy>  (60) 
65.01430877615945

>  <Genealogy>  (60) 
COC(=O)n1c(C(N)=O)cc2ccc(N)cc21 (3D coordinates assigned)
COC(=O)n1c(C(N)=O)cc2ccc(N)cc21 (optimized conformer: 65.01430877615945 kcal/mol)

>  <smiles>  (60) 
COC(=O)n1c(C(N)=O)cc2ccc(N)cc21

>  <score_type>  (60) 
oracle

>  <origin>  (60) 
adg

>  <m_score__min__energy>  (60) 
-5.6299999999999999

>  <m_primary>  (60) 
energy

$$$$
62:0
     RDKit          3D

 26 27  0  0  0  0  0  0  0  0999 V2000
  149.3400  162.0840  130.3490 C   0  0  0  0  0  0  0  0  0  0  0  0
  149.1100  160.7610  131.0170 C   0  0  0  0  0  0  0  0  0  0  0  0
  150.1640  159.8190  131.1030 C   0  0  0  0  0  0  0  0  0  0  0  0
  149.9780  158.5980  131.7730 C   0  0  0  0  0  0  0  0  0  0  0  0
  148.7340  158.3490  132.3440 C   0  0  0  0  0  0  0  0  0  0  0  0
  148.3020  157.2730  133.0830 C   0  0  0  0  0  0  0  0  0  0  0  0
  146.9840  157.5670  133.4220 C   0  0  0  0  0  0  0  0  0  0  0  0
  146.1160  156.6440  134.1830 C   0  0  0  0  0  0  0  0  0  0  0  0
  144.7580  156.4230  133.8040 N   0  0  0  0  0  0  0  0  0  0  0  0
  146.5990  155.9990  135.1520 O   0  0  0  0  0  0  0  0  0  0  0  0
  146.6160  158.7820  132.9260 N   0  0  0  0  0  0  0  0  0  0  0  0
  145.3820  159.4820  133.1600 C   0  0  0  0  0  0  0  0  0  0  0  0
  145.3860  160.7660  133.7770 N   0  0  0  0  0  0  0  0  0  0  0  0
  144.2870  158.9650  132.8110 O   0  0  0  0  0  0  0  0  0  0  0  0
  147.6990  159.2480  132.2650 C   0  0  0  0  0  0  0  0  0  0  0  0
  147.8660  160.4830  131.6250 C   0  0  0  0  0  0  0  0  0  0  0  0
  149.4753  162.8625  131.1142 H   0  0  0  0  0  0  0  0  0  0  0  0
  150.2415  162.0261  129.7214 H   0  0  0  0  0  0  0  0  0  0  0  0
  148.4718  162.3337  129.7214 H   0  0  0  0  0  0  0  0  0  0  0  0
  151.1365  160.0451  130.6414 H   0  0  0  0  0  0  0  0  0  0  0  0
  150.7916  157.8611  131.8439 H   0  0  0  0  0  0  0  0  0  0  0  0
  148.8750  156.3726  133.3494 H   0  0  0  0  0  0  0  0  0  0  0  0
  144.1490  155.8000  134.3790 H   0  0  0  0  0  0  0  0  0  0  0  0
  144.3780  156.8040  132.9090 H   0  0  0  0  0  0  0  0  0  0  0  0
  145.6800  161.6160  133.2460 H   0  0  0  0  0  0  0  0  0  0  0  0
  147.0482  161.2181  131.5967 H   0  0  0  0  0  0  0  0  0  0  0  0
  1  2  1  0
  2  3  2  0
  3  4  1  0
  4  5  2  0
  5  6  1  0
  6  7  2  0
  7  8  1  0
  8  9  1  0
  8 10  2  0
  7 11  1  0
 11 12  1  0
 12 13  1  0
 12 14  2  0
 11 15  1  0
 15 16  2  0
 16  2  1  0
 15  5  1  0
  1 17  1  0
  1 18  1  0
  1 19  1  0
  3 20  1  0
  4 21  1  0
  6 22  1  0
  9 23  1  0
  9 24  1  0
 13 25  1  0
 16 26  1  0
M  CHG  1  13  -1
M  END
>  <UniqueID>  (61) 
61

>  <SMILES>  (61) 
Cc1ccc2cc(C(N)=O)n(C([NH-])=O)c2c1

>  <Energy>  (61) 
65.39051834774561

>  <Genealogy>  (61) 
Cc1ccc2cc(C(N)=O)n(C([NH-])=O)c2c1 (protonated)
Cc1ccc2cc(C(N)=O)n(C([NH-])=O)c2c1 (3D coordinates assigned)
Cc1ccc2cc(C(N)=O)n(C([NH-])=O)c2c1 (optimized conformer: 65.39051834774561 kcal/mol)

>  <smiles>  (61) 
Cc1ccc2cc(C(N)=O)n(C(N)=O)c2c1

>  <score_type>  (61) 
oracle

>  <origin>  (61) 
adg

>  <m_score__min__energy>  (61) 
-6.1200000000000001

>  <m_primary>  (61) 
energy

$$$$
63:0
     RDKit          3D

 47 50  0  0  0  0  0  0  0  0999 V2000
  143.1960  161.3340  133.7160 N   0  0  0  0  0  0  0  0  0  0  0  0
  144.6090  161.4930  133.8420 C   0  0  0  0  0  0  0  0  0  0  0  0
  145.0820  162.6230  134.1310 O   0  0  0  0  0  0  0  0  0  0  0  0
  145.5030  160.3460  133.5810 C   0  0  0  0  0  0  0  0  0  0  0  0
  146.8760  160.4700  133.3860 C   0  0  0  0  0  0  0  0  0  0  0  0
  147.3450  159.1820  133.2640 C   0  0  0  0  0  0  0  0  0  0  0  0
  148.6380  158.7190  133.0500 C   0  0  0  0  0  0  0  0  0  0  0  0
  148.8320  157.3310  132.9390 C   0  0  0  0  0  0  0  0  0  0  0  0
  147.7370  156.4270  133.0320 C   0  0  0  0  0  0  0  0  0  0  0  0
  147.9450  155.0010  132.8980 N   0  0  0  0  0  0  0  0  0  0  0  0
  146.8890  154.0070  133.0440 C   0  0  0  0  0  0  0  0  0  0  0  0
  147.5080  152.6780  132.6330 C   0  0  0  0  0  0  0  0  0  0  0  0
  149.0160  152.8880  132.6910 C   0  0  0  0  0  0  0  0  0  0  0  0
  149.2290  154.3920  132.5830 C   0  0  0  0  0  0  0  0  0  0  0  0
  146.4360  156.9460  133.2510 C   0  0  0  0  0  0  0  0  0  0  0  0
  146.2760  158.3320  133.3800 C   0  0  0  0  0  0  0  0  0  0  0  0
  145.1350  159.0310  133.5740 N   0  0  0  0  0  0  0  0  0  0  0  0
  143.8060  158.4920  133.6580 C   0  0  0  0  0  0  0  0  0  0  0  0
  143.2210  158.0960  132.6140 O   0  0  0  0  0  0  0  0  0  0  0  0
  143.1600  158.4280  134.8980 O   0  0  0  0  0  0  0  0  0  0  0  0
  141.9540  159.1320  135.1890 C   0  0  0  0  0  0  0  0  0  0  0  0
  140.8950  158.7930  134.1760 C   0  0  0  0  0  0  0  0  0  0  0  0
  140.1740  157.5920  134.2910 C   0  0  0  0  0  0  0  0  0  0  0  0
  139.1620  157.2890  133.3740 C   0  0  0  0  0  0  0  0  0  0  0  0
  138.8590  158.1830  132.3410 C   0  0  0  0  0  0  0  0  0  0  0  0
  139.5710  159.3810  132.2230 C   0  0  0  0  0  0  0  0  0  0  0  0
  140.5830  159.6890  133.1380 C   0  0  0  0  0  0  0  0  0  0  0  0
  142.7690  160.3850  133.6220 H   0  0  0  0  0  0  0  0  0  0  0  0
  147.4615  161.4000  133.3394 H   0  0  0  0  0  0  0  0  0  0  0  0
  149.4840  159.4175  132.9699 H   0  0  0  0  0  0  0  0  0  0  0  0
  149.8465  156.9375  132.7777 H   0  0  0  0  0  0  0  0  0  0  0  0
  146.5466  153.9630  134.0884 H   0  0  0  0  0  0  0  0  0  0  0  0
  146.0136  154.2536  132.4253 H   0  0  0  0  0  0  0  0  0  0  0  0
  147.2048  151.8824  133.3294 H   0  0  0  0  0  0  0  0  0  0  0  0
  147.1798  152.3714  131.6289 H   0  0  0  0  0  0  0  0  0  0  0  0
  149.4191  152.5113  133.6426 H   0  0  0  0  0  0  0  0  0  0  0  0
  149.5318  152.3467  131.8842 H   0  0  0  0  0  0  0  0  0  0  0  0
  149.9952  154.7223  133.2999 H   0  0  0  0  0  0  0  0  0  0  0  0
  149.5767  154.6794  131.5797 H   0  0  0  0  0  0  0  0  0  0  0  0
  145.5684  156.2732  133.3184 H   0  0  0  0  0  0  0  0  0  0  0  0
  141.6012  158.8487  136.1916 H   0  0  0  0  0  0  0  0  0  0  0  0
  142.1525  160.2133  135.1513 H   0  0  0  0  0  0  0  0  0  0  0  0
  140.4061  156.8885  135.1042 H   0  0  0  0  0  0  0  0  0  0  0  0
  138.6032  156.3459  133.4651 H   0  0  0  0  0  0  0  0  0  0  0  0
  138.0614  157.9437  131.6223 H   0  0  0  0  0  0  0  0  0  0  0  0
  139.3347  160.0822  131.4091 H   0  0  0  0  0  0  0  0  0  0  0  0
  141.1366  160.6350  133.0454 H   0  0  0  0  0  0  0  0  0  0  0  0
  1  2  1  0
  2  3  2  0
  2  4  1  0
  4  5  2  0
  5  6  1  0
  6  7  2  0
  7  8  1  0
  8  9  2  0
  9 10  1  0
 10 11  1  0
 11 12  1  0
 12 13  1  0
 13 14  1  0
  9 15  1  0
 15 16  2  0
 16 17  1  0
 17 18  1  0
 18 19  2  0
 18 20  1  0
 20 21  1  0
 21 22  1  0
 22 23  2  0
 23 24  1  0
 24 25  2  0
 25 26  1  0
 26 27  2  0
 17  4  1  0
 27 22  1  0
 16  6  1  0
 14 10  1  0
  1 28  1  0
  5 29  1  0
  7 30  1  0
  8 31  1  0
 11 32  1  0
 11 33  1  0
 12 34  1  0
 12 35  1  0
 13 36  1  0
 13 37  1  0
 14 38  1  0
 14 39  1  0
 15 40  1  0
 21 41  1  0
 21 42  1  0
 23 43  1  0
 24 44  1  0
 25 45  1  0
 26 46  1  0
 27 47  1  0
M  CHG  1   1  -1
M  END
>  <UniqueID>  (62) 
62

>  <SMILES>  (62) 
[NH-]C(=O)c1cc2ccc(N3CCCC3)cc2n1C(=O)OCc1ccccc1

>  <Energy>  (62) 
88.25765044861159

>  <Genealogy>  (62) 
[NH-]C(=O)c1cc2ccc(N3CCCC3)cc2n1C(=O)OCc1ccccc1 (protonated)
[NH-]C(=O)c1cc2ccc(N3CCCC3)cc2n1C(=O)OCc1ccccc1 (3D coordinates assigned)
[NH-]C(=O)c1cc2ccc(N3CCCC3)cc2n1C(=O)OCc1ccccc1 (nonaromatic ring conformer: 88.25765044861159 kcal/mol)

>  <smiles>  (62) 
NC(=O)c1cc2ccc(N3CCCC3)cc2n1C(=O)OCc1ccccc1

>  <score_type>  (62) 
oracle

>  <origin>  (62) 
adg

>  <m_score__min__energy>  (62) 
-8.7799999999999994

>  <m_primary>  (62) 
energy

$$$$
64:0
     RDKit          3D

 31 32  0  0  0  0  0  0  0  0999 V2000
  146.1330  163.1100  134.5620 C   0  0  0  0  0  0  0  0  0  0  0  0
  144.7250  162.7390  134.1080 C   0  0  0  0  0  0  0  0  0  0  0  0
  144.5940  161.2480  133.9460 C   0  0  0  0  0  0  0  0  0  0  0  0
  143.3280  160.6280  134.0770 C   0  0  0  0  0  0  0  0  0  0  0  0
  143.1960  159.2360  133.9420 C   0  0  0  0  0  0  0  0  0  0  0  0
  144.3470  158.4920  133.7020 C   0  0  0  0  0  0  0  0  0  0  0  0
  144.4980  157.1400  133.4910 C   0  0  0  0  0  0  0  0  0  0  0  0
  145.8610  156.9510  133.2810 C   0  0  0  0  0  0  0  0  0  0  0  0
  146.4730  155.6290  133.0360 C   0  0  0  0  0  0  0  0  0  0  0  0
  147.3570  155.4110  131.9370 N   0  0  0  0  0  0  0  0  0  0  0  0
  146.2450  154.6860  133.8400 O   0  0  0  0  0  0  0  0  0  0  0  0
  146.5290  158.1370  133.3530 N   0  0  0  0  0  0  0  0  0  0  0  0
  147.9200  158.3660  133.0730 C   0  0  0  0  0  0  0  0  0  0  0  0
  148.8130  159.0240  134.0770 C   0  0  0  0  0  0  0  0  0  0  0  0
  148.4060  157.9920  131.9730 O   0  0  0  0  0  0  0  0  0  0  0  0
  145.5860  159.0730  133.6080 C   0  0  0  0  0  0  0  0  0  0  0  0
  145.7420  160.4600  133.7090 C   0  0  0  0  0  0  0  0  0  0  0  0
  146.1730  163.1205  135.6612 H   0  0  0  0  0  0  0  0  0  0  0  0
  146.8496  162.3700  134.1761 H   0  0  0  0  0  0  0  0  0  0  0  0
  146.3919  164.1070  134.1761 H   0  0  0  0  0  0  0  0  0  0  0  0
  144.0002  163.0857  134.8593 H   0  0  0  0  0  0  0  0  0  0  0  0
  144.5281  163.2189  133.1380 H   0  0  0  0  0  0  0  0  0  0  0  0
  142.4396  161.2419  134.2864 H   0  0  0  0  0  0  0  0  0  0  0  0
  142.2130  158.7492  134.0235 H   0  0  0  0  0  0  0  0  0  0  0  0
  143.7097  156.3728  133.4888 H   0  0  0  0  0  0  0  0  0  0  0  0
  147.7170  156.2070  131.3660 H   0  0  0  0  0  0  0  0  0  0  0  0
  147.7370  154.4560  131.7520 H   0  0  0  0  0  0  0  0  0  0  0  0
  148.4716  158.7724  135.0920 H   0  0  0  0  0  0  0  0  0  0  0  0
  149.8448  158.6686  133.9386 H   0  0  0  0  0  0  0  0  0  0  0  0
  148.7792  160.1147  133.9386 H   0  0  0  0  0  0  0  0  0  0  0  0
  146.7337  160.9249  133.6064 H   0  0  0  0  0  0  0  0  0  0  0  0
  1  2  1  0
  2  3  1  0
  3  4  2  0
  4  5  1  0
  5  6  2  0
  6  7  1  0
  7  8  2  0
  8  9  1  0
  9 10  1  0
  9 11  2  0
  8 12  1  0
 12 13  1  0
 13 14  1  0
 13 15  2  0
 12 16  1  0
 16 17  2  0
 17  3  1  0
 16  6  1  0
  1 18  1  0
  1 19  1  0
  1 20  1  0
  2 21  1  0
  2 22  1  0
  4 23  1  0
  5 24  1  0
  7 25  1  0
 10 26  1  0
 10 27  1  0
 14 28  1  0
 14 29  1  0
 14 30  1  0
 17 31  1  0
M  END
>  <UniqueID>  (63) 
63

>  <SMILES>  (63) 
CCc1ccc2cc(C(N)=O)n(C(C)=O)c2c1

>  <Energy>  (63) 
66.97284383299272

>  <Genealogy>  (63) 
CCc1ccc2cc(C(N)=O)n(C(C)=O)c2c1 (3D coordinates assigned)
CCc1ccc2cc(C(N)=O)n(C(C)=O)c2c1 (optimized conformer: 66.97284383299272 kcal/mol)

>  <smiles>  (63) 
CCc1ccc2cc(C(N)=O)n(C(C)=O)c2c1

>  <score_type>  (63) 
oracle

>  <origin>  (63) 
adg

>  <m_score__min__energy>  (63) 
-6.1299999999999999

>  <m_primary>  (63) 
energy

$$$$
65:0
     RDKit          3D

 29 31  0  0  0  0  0  0  0  0999 V2000
  143.2120  160.9410  133.7390 N   0  0  0  0  0  0  0  0  0  0  0  0
  144.6110  161.1370  133.9300 C   0  0  0  0  0  0  0  0  0  0  0  0
  145.0170  162.2140  134.4430 O   0  0  0  0  0  0  0  0  0  0  0  0
  145.5830  160.0780  133.5880 C   0  0  0  0  0  0  0  0  0  0  0  0
  146.9090  160.3360  133.2460 C   0  0  0  0  0  0  0  0  0  0  0  0
  147.4910  159.1000  133.0830 C   0  0  0  0  0  0  0  0  0  0  0  0
  148.7940  158.7660  132.7270 C   0  0  0  0  0  0  0  0  0  0  0  0
  149.1130  157.4050  132.6000 C   0  0  0  0  0  0  0  0  0  0  0  0
  148.1310  156.4030  132.8180 C   0  0  0  0  0  0  0  0  0  0  0  0
  148.4500  154.9630  132.6740 C   0  0  0  0  0  0  0  0  0  0  0  0
  147.6170  153.8910  132.9540 C   0  0  0  0  0  0  0  0  0  0  0  0
  148.3500  152.7610  132.6650 C   0  0  0  0  0  0  0  0  0  0  0  0
  149.5810  153.2040  132.2290 C   0  0  0  0  0  0  0  0  0  0  0  0
  149.6090  154.5160  132.2450 O   0  0  0  0  0  0  0  0  0  0  0  0
  146.8170  156.7880  133.1770 C   0  0  0  0  0  0  0  0  0  0  0  0
  146.5320  158.1500  133.3170 C   0  0  0  0  0  0  0  0  0  0  0  0
  145.3540  158.7340  133.6270 N   0  0  0  0  0  0  0  0  0  0  0  0
  144.1050  158.0620  133.8580 C   0  0  0  0  0  0  0  0  0  0  0  0
  143.0100  158.2540  132.9670 N   0  0  0  0  0  0  0  0  0  0  0  0
  143.9670  157.3100  134.8590 O   0  0  0  0  0  0  0  0  0  0  0  0
  142.7380  160.0790  134.0870 H   0  0  0  0  0  0  0  0  0  0  0  0
  147.3886  161.3192  133.1308 H   0  0  0  0  0  0  0  0  0  0  0  0
  149.5508  159.5446  132.5505 H   0  0  0  0  0  0  0  0  0  0  0  0
  150.1374  157.1108  132.3280 H   0  0  0  0  0  0  0  0  0  0  0  0
  146.5839  153.9338  133.3294 H   0  0  0  0  0  0  0  0  0  0  0  0
  148.0200  151.7162  132.7624 H   0  0  0  0  0  0  0  0  0  0  0  0
  150.4129  152.5562  131.9155 H   0  0  0  0  0  0  0  0  0  0  0  0
  146.0360  156.0313  133.3425 H   0  0  0  0  0  0  0  0  0  0  0  0
  142.8180  159.1890  132.5440 H   0  0  0  0  0  0  0  0  0  0  0  0
  1  2  1  0
  2  3  2  0
  2  4  1  0
  4  5  2  0
  5  6  1  0
  6  7  2  0
  7  8  1  0
  8  9  2  0
  9 10  1  0
 10 11  2  0
 11 12  1  0
 12 13  2  0
 13 14  1  0
  9 15  1  0
 15 16  2  0
 16 17  1  0
 17 18  1  0
 18 19  1  0
 18 20  2  0
 17  4  1  0
 16  6  1  0
 14 10  1  0
  1 21  1  0
  5 22  1  0
  7 23  1  0
  8 24  1  0
 11 25  1  0
 12 26  1  0
 13 27  1  0
 15 28  1  0
 19 29  1  0
M  CHG  2   1  -1  19  -1
M  END
>  <UniqueID>  (64) 
64

>  <SMILES>  (64) 
[NH-]C(=O)c1cc2ccc(-c3ccco3)cc2n1C([NH-])=O

>  <Energy>  (64) 
98.19054656435198

>  <Genealogy>  (64) 
[NH-]C(=O)c1cc2ccc(-c3ccco3)cc2n1C([NH-])=O (protonated)
[NH-]C(=O)c1cc2ccc(-c3ccco3)cc2n1C([NH-])=O (3D coordinates assigned)
[NH-]C(=O)c1cc2ccc(-c3ccco3)cc2n1C([NH-])=O (optimized conformer: 98.19054656435198 kcal/mol)

>  <smiles>  (64) 
NC(=O)c1cc2ccc(-c3ccco3)cc2n1C(N)=O

>  <score_type>  (64) 
oracle

>  <origin>  (64) 
adg

>  <m_score__min__energy>  (64) 
-6.71

>  <m_primary>  (64) 
energy

$$$$
66:0
     RDKit          3D

 34 35  0  0  0  0  0  0  0  0999 V2000
  149.2410  154.3040  132.6050 C   0  0  0  0  0  0  0  0  0  0  0  0
  148.0270  155.1380  132.8810 C   0  0  0  0  0  0  0  0  0  0  0  0
  146.7530  154.5270  132.9850 C   0  0  0  0  0  0  0  0  0  0  0  0
  145.6010  155.3030  133.1940 C   0  0  0  0  0  0  0  0  0  0  0  0
  145.7530  156.6820  133.2910 C   0  0  0  0  0  0  0  0  0  0  0  0
  144.8080  157.6680  133.4600 C   0  0  0  0  0  0  0  0  0  0  0  0
  145.5190  158.8670  133.4660 C   0  0  0  0  0  0  0  0  0  0  0  0
  144.8910  160.1820  133.7100 C   0  0  0  0  0  0  0  0  0  0  0  0
  145.6840  161.3320  133.9920 N   0  0  0  0  0  0  0  0  0  0  0  0
  143.6350  160.2820  133.7180 O   0  0  0  0  0  0  0  0  0  0  0  0
  146.8510  158.6320  133.2980 N   0  0  0  0  0  0  0  0  0  0  0  0
  147.9090  159.5940  133.1640 C   0  0  0  0  0  0  0  0  0  0  0  0
  148.8530  159.6100  133.9990 O   0  0  0  0  0  0  0  0  0  0  0  0
  147.8710  160.5210  132.1170 O   0  0  0  0  0  0  0  0  0  0  0  0
  148.5320  160.3290  130.8670 C   0  0  0  0  0  0  0  0  0  0  0  0
  149.5260  159.1680  130.9700 C   0  0  0  0  0  0  0  0  0  0  0  0
  149.2570  161.6200  130.4890 C   0  0  0  0  0  0  0  0  0  0  0  0
  146.9790  157.2900  133.1970 C   0  0  0  0  0  0  0  0  0  0  0  0
  148.1410  156.5430  132.9680 C   0  0  0  0  0  0  0  0  0  0  0  0
  149.6955  153.9918  133.5568 H   0  0  0  0  0  0  0  0  0  0  0  0
  148.9508  153.4137  132.0278 H   0  0  0  0  0  0  0  0  0  0  0  0
  149.9679  154.8943  132.0278 H   0  0  0  0  0  0  0  0  0  0  0  0
  146.6651  153.4337  132.9012 H   0  0  0  0  0  0  0  0  0  0  0  0
  144.6093  154.8345  133.2783 H   0  0  0  0  0  0  0  0  0  0  0  0
  143.7211  157.5375  133.5676 H   0  0  0  0  0  0  0  0  0  0  0  0
  146.4630  161.6160  133.3570 H   0  0  0  0  0  0  0  0  0  0  0  0
  147.7943  160.0815  130.0894 H   0  0  0  0  0  0  0  0  0  0  0  0
  149.7186  158.9431  132.0294 H   0  0  0  0  0  0  0  0  0  0  0  0
  149.1044  158.2795  130.4773 H   0  0  0  0  0  0  0  0  0  0  0  0
  150.4689  159.4477  130.4773 H   0  0  0  0  0  0  0  0  0  0  0  0
  149.5566  162.1534  131.4032 H   0  0  0  0  0  0  0  0  0  0  0  0
  150.1513  161.3781  129.8959 H   0  0  0  0  0  0  0  0  0  0  0  0
  148.5851  162.2577  129.8959 H   0  0  0  0  0  0  0  0  0  0  0  0
  149.1174  157.0377  132.8587 H   0  0  0  0  0  0  0  0  0  0  0  0
  1  2  1  0
  2  3  2  0
  3  4  1  0
  4  5  2  0
  5  6  1  0
  6  7  2  0
  7  8  1  0
  8  9  1  0
  8 10  2  0
  7 11  1  0
 11 12  1  0
 12 13  2  0
 12 14  1  0
 14 15  1  0
 15 16  1  0
 15 17  1  0
 11 18  1  0
 18 19  2  0
 19  2  1  0
 18  5  1  0
  1 20  1  0
  1 21  1  0
  1 22  1  0
  3 23  1  0
  4 24  1  0
  6 25  1  0
  9 26  1  0
 15 27  1  0
 16 28  1  0
 16 29  1  0
 16 30  1  0
 17 31  1  0
 17 32  1  0
 17 33  1  0
 19 34  1  0
M  CHG  1   9  -1
M  END
>  <UniqueID>  (65) 
65

>  <SMILES>  (65) 
Cc1ccc2cc(C([NH-])=O)n(C(=O)OC(C)C)c2c1

>  <Energy>  (65) 
66.28751381937371

>  <Genealogy>  (65) 
Cc1ccc2cc(C([NH-])=O)n(C(=O)OC(C)C)c2c1 (protonated)
Cc1ccc2cc(C([NH-])=O)n(C(=O)OC(C)C)c2c1 (3D coordinates assigned)
Cc1ccc2cc(C([NH-])=O)n(C(=O)OC(C)C)c2c1 (optimized conformer: 66.28751381937371 kcal/mol)

>  <smiles>  (65) 
Cc1ccc2cc(C(N)=O)n(C(=O)OC(C)C)c2c1

>  <score_type>  (65) 
oracle

>  <origin>  (65) 
adg

>  <m_score__min__energy>  (65) 
-6.29

>  <m_primary>  (65) 
energy

$$$$
67:0
     RDKit          3D

 33 35  0  0  0  0  0  0  0  0999 V2000
  140.8580  159.6720  132.3520 N   0  0  0  0  0  0  0  0  0  0  0  0
  141.5780  159.7580  133.5790 C   0  0  0  0  0  0  0  0  0  0  0  0
  141.7320  160.8860  134.1170 O   0  0  0  0  0  0  0  0  0  0  0  0
  142.0840  158.5670  134.2170 N   0  0  0  0  0  0  0  0  0  0  0  0
  141.3700  157.6440  134.9240 C   0  0  0  0  0  0  0  0  0  0  0  0
  139.9480  157.7470  135.2880 C   0  0  0  0  0  0  0  0  0  0  0  0
  138.9890  158.2400  134.3540 N   0  0  0  0  0  0  0  0  0  0  0  0
  139.5860  157.4630  136.4610 O   0  0  0  0  0  0  0  0  0  0  0  0
  142.1520  156.5360  135.2320 C   0  0  0  0  0  0  0  0  0  0  0  0
  143.3930  156.8160  134.7140 C   0  0  0  0  0  0  0  0  0  0  0  0
  144.5630  156.0650  134.7520 C   0  0  0  0  0  0  0  0  0  0  0  0
  145.7130  156.6030  134.1530 C   0  0  0  0  0  0  0  0  0  0  0  0
  145.6780  157.8790  133.5350 C   0  0  0  0  0  0  0  0  0  0  0  0
  146.9040  158.4510  132.9290 C   0  0  0  0  0  0  0  0  0  0  0  0
  146.9820  159.8320  132.6700 C   0  0  0  0  0  0  0  0  0  0  0  0
  148.1360  160.3830  132.1040 C   0  0  0  0  0  0  0  0  0  0  0  0
  149.2210  159.5630  131.7880 C   0  0  0  0  0  0  0  0  0  0  0  0
  150.3370  160.0990  131.2370 F   0  0  0  0  0  0  0  0  0  0  0  0
  149.1530  158.1900  132.0340 C   0  0  0  0  0  0  0  0  0  0  0  0
  148.0030  157.6310  132.6010 C   0  0  0  0  0  0  0  0  0  0  0  0
  147.9510  156.2890  132.7950 F   0  0  0  0  0  0  0  0  0  0  0  0
  144.4700  158.6150  133.5220 C   0  0  0  0  0  0  0  0  0  0  0  0
  143.3310  158.0460  134.1080 C   0  0  0  0  0  0  0  0  0  0  0  0
  141.3470  159.4510  131.4560 H   0  0  0  0  0  0  0  0  0  0  0  0
  139.2920  158.6050  133.4230 H   0  0  0  0  0  0  0  0  0  0  0  0
  137.9810  158.2970  134.6150 H   0  0  0  0  0  0  0  0  0  0  0  0
  141.8431  155.6300  135.7740 H   0  0  0  0  0  0  0  0  0  0  0  0
  144.5866  155.0781  135.2373 H   0  0  0  0  0  0  0  0  0  0  0  0
  146.6512  156.0288  134.1631 H   0  0  0  0  0  0  0  0  0  0  0  0
  146.1293  160.4826  132.9144 H   0  0  0  0  0  0  0  0  0  0  0  0
  148.1890  161.4640  131.9075 H   0  0  0  0  0  0  0  0  0  0  0  0
  150.0076  157.5453  131.7808 H   0  0  0  0  0  0  0  0  0  0  0  0
  144.4255  159.6130  133.0616 H   0  0  0  0  0  0  0  0  0  0  0  0
  1  2  1  0
  2  3  2  0
  2  4  1  0
  4  5  1  0
  5  6  1  0
  6  7  1  0
  6  8  2  0
  5  9  2  0
  9 10  1  0
 10 11  2  0
 11 12  1  0
 12 13  2  0
 13 14  1  0
 14 15  2  0
 15 16  1  0
 16 17  2  0
 17 18  1  0
 17 19  1  0
 19 20  2  0
 20 21  1  0
 13 22  1  0
 22 23  2  0
 23  4  1  0
 23 10  1  0
 20 14  1  0
  1 24  1  0
  7 25  1  0
  7 26  1  0
  9 27  1  0
 11 28  1  0
 12 29  1  0
 15 30  1  0
 16 31  1  0
 19 32  1  0
 22 33  1  0
M  CHG  1   1  -1
M  END
>  <UniqueID>  (66) 
66

>  <SMILES>  (66) 
[NH-]C(=O)n1c(C(N)=O)cc2ccc(-c3ccc(F)cc3F)cc21

>  <Energy>  (66) 
84.70326893173656

>  <Genealogy>  (66) 
[NH-]C(=O)n1c(C(N)=O)cc2ccc(-c3ccc(F)cc3F)cc21 (protonated)
[NH-]C(=O)n1c(C(N)=O)cc2ccc(-c3ccc(F)cc3F)cc21 (3D coordinates assigned)
[NH-]C(=O)n1c(C(N)=O)cc2ccc(-c3ccc(F)cc3F)cc21 (optimized conformer: 84.70326893173656 kcal/mol)

>  <smiles>  (66) 
NC(=O)c1cc2ccc(-c3ccc(F)cc3F)cc2n1C(N)=O

>  <score_type>  (66) 
oracle

>  <origin>  (66) 
adg

>  <m_score__min__energy>  (66) 
-7.5199999999999996

>  <m_primary>  (66) 
energy

$$$$
68:0
     RDKit          3D

 45 47  0  0  0  0  0  0  0  0999 V2000
  149.7250  160.5130  129.8740 C   0  0  0  0  0  0  0  0  0  0  0  0
  148.8040  161.1850  130.8790 C   0  0  0  0  0  0  0  0  0  0  0  0
  147.7540  160.2890  131.2260 O   0  0  0  0  0  0  0  0  0  0  0  0
  147.3000  160.1160  132.5370 C   0  0  0  0  0  0  0  0  0  0  0  0
  147.3410  161.0760  133.3540 O   0  0  0  0  0  0  0  0  0  0  0  0
  146.7700  158.8440  132.9460 N   0  0  0  0  0  0  0  0  0  0  0  0
  147.4400  157.6650  133.0860 C   0  0  0  0  0  0  0  0  0  0  0  0
  148.8420  157.4160  132.7010 C   0  0  0  0  0  0  0  0  0  0  0  0
  149.7380  158.4950  132.4340 N   0  0  0  0  0  0  0  0  0  0  0  0
  149.2410  156.2310  132.5490 O   0  0  0  0  0  0  0  0  0  0  0  0
  146.5980  156.6780  133.5950 C   0  0  0  0  0  0  0  0  0  0  0  0
  145.3750  157.2880  133.7490 C   0  0  0  0  0  0  0  0  0  0  0  0
  144.1700  156.7730  134.2210 C   0  0  0  0  0  0  0  0  0  0  0  0
  143.0650  157.6390  134.2910 C   0  0  0  0  0  0  0  0  0  0  0  0
  143.1830  158.9970  133.9010 C   0  0  0  0  0  0  0  0  0  0  0  0
  141.9960  159.9250  134.0030 C   0  0  0  0  0  0  0  0  0  0  0  0
  140.7420  159.2790  133.4400 C   0  0  0  0  0  0  0  0  0  0  0  0
  140.4950  159.4380  132.0640 C   0  0  0  0  0  0  0  0  0  0  0  0
  139.3410  158.9210  131.4800 C   0  0  0  0  0  0  0  0  0  0  0  0
  138.4140  158.2330  132.2570 C   0  0  0  0  0  0  0  0  0  0  0  0
  138.6410  158.0510  133.6220 C   0  0  0  0  0  0  0  0  0  0  0  0
  139.8030  158.5630  134.2390 C   0  0  0  0  0  0  0  0  0  0  0  0
  140.0280  158.3120  135.7200 C   0  0  0  0  0  0  0  0  0  0  0  0
  140.8500  157.2200  135.9390 F   0  0  0  0  0  0  0  0  0  0  0  0
  138.8220  158.0650  136.3500 F   0  0  0  0  0  0  0  0  0  0  0  0
  140.6290  159.4190  136.2920 F   0  0  0  0  0  0  0  0  0  0  0  0
  144.4300  159.4850  133.4490 C   0  0  0  0  0  0  0  0  0  0  0  0
  145.5050  158.5940  133.3560 C   0  0  0  0  0  0  0  0  0  0  0  0
  150.5012  159.9467  130.4095 H   0  0  0  0  0  0  0  0  0  0  0  0
  149.1408  159.8274  129.2425 H   0  0  0  0  0  0  0  0  0  0  0  0
  150.1996  161.2785  129.2425 H   0  0  0  0  0  0  0  0  0  0  0  0
  149.3749  161.4494  131.7813 H   0  0  0  0  0  0  0  0  0  0  0  0
  148.3787  162.0979  130.4366 H   0  0  0  0  0  0  0  0  0  0  0  0
  150.7370  158.3010  132.2010 H   0  0  0  0  0  0  0  0  0  0  0  0
  149.3970  159.4800  132.3840 H   0  0  0  0  0  0  0  0  0  0  0  0
  146.8565  155.6337  133.8246 H   0  0  0  0  0  0  0  0  0  0  0  0
  144.0856  155.7205  134.5296 H   0  0  0  0  0  0  0  0  0  0  0  0
  142.0981  157.2589  134.6524 H   0  0  0  0  0  0  0  0  0  0  0  0
  141.8265  160.1753  135.0606 H   0  0  0  0  0  0  0  0  0  0  0  0
  142.2123  160.8317  133.4189 H   0  0  0  0  0  0  0  0  0  0  0  0
  141.2232  159.9780  131.4409 H   0  0  0  0  0  0  0  0  0  0  0  0
  139.1622  159.0567  130.4031 H   0  0  0  0  0  0  0  0  0  0  0  0
  137.5003  157.8317  131.7944 H   0  0  0  0  0  0  0  0  0  0  0  0
  137.9041  157.5008  134.2256 H   0  0  0  0  0  0  0  0  0  0  0  0
  144.5530  160.5434  133.1759 H   0  0  0  0  0  0  0  0  0  0  0  0
  1  2  1  0
  2  3  1  0
  3  4  1  0
  4  5  2  0
  4  6  1  0
  6  7  1  0
  7  8  1  0
  8  9  1  0
  8 10  2  0
  7 11  2  0
 11 12  1  0
 12 13  2  0
 13 14  1  0
 14 15  2  0
 15 16  1  0
 16 17  1  0
 17 18  2  0
 18 19  1  0
 19 20  2  0
 20 21  1  0
 21 22  2  0
 22 23  1  0
 23 24  1  0
 23 25  1  0
 23 26  1  0
 15 27  1  0
 27 28  2  0
 28  6  1  0
 28 12  1  0
 22 17  1  0
  1 29  1  0
  1 30  1  0
  1 31  1  0
  2 32  1  0
  2 33  1  0
  9 34  1  0
  9 35  1  0
 11 36  1  0
 13 37  1  0
 14 38  1  0
 16 39  1  0
 16 40  1  0
 18 41  1  0
 19 42  1  0
 20 43  1  0
 21 44  1  0
 27 45  1  0
M  END
>  <UniqueID>  (67) 
67

>  <SMILES>  (67) 
CCOC(=O)n1c(C(N)=O)cc2ccc(Cc3ccccc3C(F)(F)F)cc21

>  <Energy>  (67) 
84.23014819984665

>  <Genealogy>  (67) 
CCOC(=O)n1c(C(N)=O)cc2ccc(Cc3ccccc3C(F)(F)F)cc21 (3D coordinates assigned)
CCOC(=O)n1c(C(N)=O)cc2ccc(Cc3ccccc3C(F)(F)F)cc21 (optimized conformer: 84.23014819984665 kcal/mol)

>  <smiles>  (67) 
CCOC(=O)n1c(C(N)=O)cc2ccc(Cc3ccccc3C(F)(F)F)cc21

>  <score_type>  (67) 
oracle

>  <origin>  (67) 
adg

>  <m_score__min__energy>  (67) 
-8.3200000000000003

>  <m_primary>  (67) 
energy

$$$$
69:0
     RDKit          3D

 56 59  0  0  0  0  0  0  0  0999 V2000
  143.2390  156.6330  132.7790 N   0  0  0  0  0  0  0  0  0  0  0  0
  143.2160  155.6070  133.7690 C   0  0  0  0  0  0  0  0  0  0  0  0
  143.6730  155.8470  134.9160 O   0  0  0  0  0  0  0  0  0  0  0  0
  142.6790  154.2700  133.4300 C   0  0  0  0  0  0  0  0  0  0  0  0
  143.4500  153.1080  133.4140 C   0  0  0  0  0  0  0  0  0  0  0  0
  142.5720  152.0920  133.1170 C   0  0  0  0  0  0  0  0  0  0  0  0
  142.7990  150.7280  132.9560 C   0  0  0  0  0  0  0  0  0  0  0  0
  141.7060  149.9130  132.6190 C   0  0  0  0  0  0  0  0  0  0  0  0
  140.4140  150.4710  132.4470 C   0  0  0  0  0  0  0  0  0  0  0  0
  139.2570  149.5980  132.0370 C   0  0  0  0  0  0  0  0  0  0  0  0
  139.5750  148.8180  130.7470 C   0  0  1  0  0  0  0  0  0  0  0  0
  139.0050  147.4140  130.7310 C   0  0  0  0  0  0  0  0  0  0  0  0
  138.7740  147.1220  129.2560 C   0  0  0  0  0  0  0  0  0  0  0  0
  138.7460  148.3960  128.5290 N   0  0  0  0  0  0  0  0  0  0  0  0
  138.9590  149.4570  129.5130 C   0  0  0  0  0  0  0  0  0  0  0  0
  140.2240  151.8610  132.6090 C   0  0  0  0  0  0  0  0  0  0  0  0
  141.3270  152.6450  132.9640 C   0  0  0  0  0  0  0  0  0  0  0  0
  141.3770  153.9800  133.1530 N   0  0  0  0  0  0  0  0  0  0  0  0
  140.2770  154.8950  133.0490 C   0  0  0  0  0  0  0  0  0  0  0  0
  139.1090  154.5020  133.3180 O   0  0  0  0  0  0  0  0  0  0  0  0
  140.5070  156.2500  132.6380 N   0  0  0  0  0  0  0  0  0  0  0  0
  139.4290  157.2200  132.4730 C   0  0  0  0  0  0  0  0  0  0  0  0
  138.6900  157.5090  133.8040 C   0  0  0  0  0  0  0  0  0  0  0  0
  139.3740  158.4320  134.7430 N   0  0  0  0  0  0  0  0  0  0  0  0
  140.6670  158.9440  134.2700 C   0  0  0  0  0  0  0  0  0  0  0  0
  141.7550  158.4520  135.2210 C   0  0  0  0  0  0  0  0  0  0  0  0
  141.0530  157.5700  136.2360 C   0  0  0  0  0  0  0  0  0  0  0  0
  139.5780  157.8980  136.0940 C   0  0  0  0  0  0  0  0  0  0  0  0
  142.8110  156.4810  131.8380 H   0  0  0  0  0  0  0  0  0  0  0  0
  144.5308  153.0223  133.5995 H   0  0  0  0  0  0  0  0  0  0  0  0
  143.8042  150.3014  133.0887 H   0  0  0  0  0  0  0  0  0  0  0  0
  141.8538  148.8310  132.4872 H   0  0  0  0  0  0  0  0  0  0  0  0
  139.0437  148.8828  132.8450 H   0  0  0  0  0  0  0  0  0  0  0  0
  138.3856  150.2421  131.8478 H   0  0  0  0  0  0  0  0  0  0  0  0
  140.6749  148.8178  130.7304 H   0  0  0  0  0  0  0  0  0  0  0  0
  139.7194  146.6979  131.1633 H   0  0  0  0  0  0  0  0  0  0  0  0
  138.0848  147.3260  131.3272 H   0  0  0  0  0  0  0  0  0  0  0  0
  139.5892  146.4922  128.8701 H   0  0  0  0  0  0  0  0  0  0  0  0
  137.8207  146.5898  129.1215 H   0  0  0  0  0  0  0  0  0  0  0  0
  139.5500  148.4100  127.8560 H   0  0  0  0  0  0  0  0  0  0  0  0
  139.6404  150.2175  129.1039 H   0  0  0  0  0  0  0  0  0  0  0  0
  138.0078  149.9487  129.7649 H   0  0  0  0  0  0  0  0  0  0  0  0
  139.2336  152.3158  132.4598 H   0  0  0  0  0  0  0  0  0  0  0  0
  141.4890  156.5690  132.4840 H   0  0  0  0  0  0  0  0  0  0  0  0
  139.8544  158.1606  132.0930 H   0  0  0  0  0  0  0  0  0  0  0  0
  138.6992  156.7957  131.7678 H   0  0  0  0  0  0  0  0  0  0  0  0
  137.7110  157.9455  133.5570 H   0  0  0  0  0  0  0  0  0  0  0  0
  138.6344  156.5429  134.3270 H   0  0  0  0  0  0  0  0  0  0  0  0
  140.8651  158.5719  133.2540 H   0  0  0  0  0  0  0  0  0  0  0  0
  140.6533  160.0437  134.2467 H   0  0  0  0  0  0  0  0  0  0  0  0
  142.5116  157.8739  134.6703 H   0  0  0  0  0  0  0  0  0  0  0  0
  142.2760  159.2903  135.7066 H   0  0  0  0  0  0  0  0  0  0  0  0
  141.2351  156.5078  136.0157 H   0  0  0  0  0  0  0  0  0  0  0  0
  141.4177  157.7485  137.2583 H   0  0  0  0  0  0  0  0  0  0  0  0
  138.9757  156.9882  136.2333 H   0  0  0  0  0  0  0  0  0  0  0  0
  139.2694  158.6328  136.8521 H   0  0  0  0  0  0  0  0  0  0  0  0
  1  2  1  0
  2  3  2  0
  2  4  1  0
  4  5  2  0
  5  6  1  0
  6  7  2  0
  7  8  1  0
  8  9  2  0
  9 10  1  0
 10 11  1  0
 11 12  1  0
 12 13  1  0
 13 14  1  0
 14 15  1  0
  9 16  1  0
 16 17  2  0
 17 18  1  0
 18 19  1  0
 19 20  2  0
 19 21  1  0
 21 22  1  0
 22 23  1  0
 23 24  1  0
 24 25  1  0
 25 26  1  0
 26 27  1  0
 27 28  1  0
 18  4  1  0
 28 24  1  0
 17  6  1  0
 15 11  1  0
  1 29  1  0
  5 30  1  0
  7 31  1  0
  8 32  1  0
 10 33  1  0
 10 34  1  0
 11 35  1  6
 12 36  1  0
 12 37  1  0
 13 38  1  0
 13 39  1  0
 14 40  1  0
 15 41  1  0
 15 42  1  0
 16 43  1  0
 21 44  1  0
 22 45  1  0
 22 46  1  0
 23 47  1  0
 23 48  1  0
 25 49  1  0
 25 50  1  0
 26 51  1  0
 26 52  1  0
 27 53  1  0
 27 54  1  0
 28 55  1  0
 28 56  1  0
M  CHG  1   1  -1
M  END
>  <UniqueID>  (68) 
68

>  <SMILES>  (68) 
[NH-]C(=O)c1cc2ccc(C[C@H]3CCNC3)cc2n1C(=O)NCCN1CCCC1

>  <Energy>  (68) 
97.49046769258543

>  <Genealogy>  (68) 
[NH-]C(=O)c1cc2ccc(CC3CCNC3)cc2n1C(=O)NCCN1CCCC1 (protonated)
[NH-]C(=O)c1cc2ccc(C[C@H]3CCNC3)cc2n1C(=O)NCCN1CCCC1 (chirality)
[NH-]C(=O)c1cc2ccc(C[C@H]3CCNC3)cc2n1C(=O)NCCN1CCCC1 (3D coordinates assigned)
[NH-]C(=O)c1cc2ccc(C[C@H]3CCNC3)cc2n1C(=O)NCCN1CCCC1 (nonaromatic ring conformer: 97.49046769258543 kcal/mol)

>  <smiles>  (68) 
NC(=O)c1cc2ccc(CC3CCNC3)cc2n1C(=O)NCCN1CCCC1

>  <score_type>  (68) 
oracle

>  <origin>  (68) 
adg

>  <m_score__min__energy>  (68) 
-9.6799999999999997

>  <m_primary>  (68) 
energy

$$$$
70:0
     RDKit          3D

 37 38  0  0  0  0  0  0  0  0999 V2000
  148.8500  159.3110  129.7170 C   0  0  0  0  0  0  0  0  0  0  0  0
  148.6890  160.1240  131.0160 C   0  0  0  0  0  0  0  0  0  0  0  0
  149.0470  161.5900  130.7330 C   0  0  0  0  0  0  0  0  0  0  0  0
  149.6260  159.5860  132.1140 C   0  0  0  0  0  0  0  0  0  0  0  0
  147.3250  160.1000  131.4610 O   0  0  0  0  0  0  0  0  0  0  0  0
  146.8850  160.0240  132.7910 C   0  0  0  0  0  0  0  0  0  0  0  0
  147.2450  160.8790  133.6440 O   0  0  0  0  0  0  0  0  0  0  0  0
  145.9900  158.9680  133.1750 N   0  0  0  0  0  0  0  0  0  0  0  0
  144.6760  159.0670  133.5250 C   0  0  0  0  0  0  0  0  0  0  0  0
  143.9200  160.3230  133.7160 C   0  0  0  0  0  0  0  0  0  0  0  0
  144.6200  161.5510  133.9040 N   0  0  0  0  0  0  0  0  0  0  0  0
  142.6610  160.3300  133.6780 O   0  0  0  0  0  0  0  0  0  0  0  0
  144.1390  157.8040  133.7680 C   0  0  0  0  0  0  0  0  0  0  0  0
  145.1760  156.9220  133.5620 C   0  0  0  0  0  0  0  0  0  0  0  0
  145.1990  155.5330  133.6490 C   0  0  0  0  0  0  0  0  0  0  0  0
  146.4040  154.8750  133.3510 C   0  0  0  0  0  0  0  0  0  0  0  0
  147.5560  155.6120  132.9790 C   0  0  0  0  0  0  0  0  0  0  0  0
  148.8210  154.8950  132.6140 C   0  0  0  0  0  0  0  0  0  0  0  0
  148.8680  153.6780  133.2670 F   0  0  0  0  0  0  0  0  0  0  0  0
  147.4890  157.0190  132.8850 C   0  0  0  0  0  0  0  0  0  0  0  0
  146.2820  157.6500  133.2060 C   0  0  0  0  0  0  0  0  0  0  0  0
  149.0582  158.2599  129.9657 H   0  0  0  0  0  0  0  0  0  0  0  0
  147.9224  159.3719  129.1290 H   0  0  0  0  0  0  0  0  0  0  0  0
  149.6844  159.7209  129.1290 H   0  0  0  0  0  0  0  0  0  0  0  0
  149.1778  162.1258  131.6847 H   0  0  0  0  0  0  0  0  0  0  0  0
  149.9823  161.6342  130.1558 H   0  0  0  0  0  0  0  0  0  0  0  0
  148.2373  162.0603  130.1558 H   0  0  0  0  0  0  0  0  0  0  0  0
  149.2080  159.8260  133.1028 H   0  0  0  0  0  0  0  0  0  0  0  0
  149.7224  158.4950  132.0116 H   0  0  0  0  0  0  0  0  0  0  0  0
  150.6168  160.0528  132.0116 H   0  0  0  0  0  0  0  0  0  0  0  0
  145.4400  161.7980  133.3070 H   0  0  0  0  0  0  0  0  0  0  0  0
  143.1067  157.5632  134.0618 H   0  0  0  0  0  0  0  0  0  0  0  0
  144.3017  154.9681  133.9419 H   0  0  0  0  0  0  0  0  0  0  0  0
  146.4538  153.7776  133.4069 H   0  0  0  0  0  0  0  0  0  0  0  0
  148.8471  154.7286  131.5270 H   0  0  0  0  0  0  0  0  0  0  0  0
  149.6863  155.5045  132.9137 H   0  0  0  0  0  0  0  0  0  0  0  0
  148.3641  157.6049  132.5672 H   0  0  0  0  0  0  0  0  0  0  0  0
  1  2  1  0
  2  3  1  0
  2  4  1  0
  2  5  1  0
  5  6  1  0
  6  7  2  0
  6  8  1  0
  8  9  1  0
  9 10  1  0
 10 11  1  0
 10 12  2  0
  9 13  2  0
 13 14  1  0
 14 15  2  0
 15 16  1  0
 16 17  2  0
 17 18  1  0
 18 19  1  0
 17 20  1  0
 20 21  2  0
 21  8  1  0
 21 14  1  0
  1 22  1  0
  1 23  1  0
  1 24  1  0
  3 25  1  0
  3 26  1  0
  3 27  1  0
  4 28  1  0
  4 29  1  0
  4 30  1  0
 11 31  1  0
 13 32  1  0
 15 33  1  0
 16 34  1  0
 18 35  1  0
 18 36  1  0
 20 37  1  0
M  CHG  1  11  -1
M  END
>  <UniqueID>  (69) 
69

>  <SMILES>  (69) 
CC(C)(C)OC(=O)n1c(C([NH-])=O)cc2ccc(CF)cc21

>  <Energy>  (69) 
70.00790390219282

>  <Genealogy>  (69) 
CC(C)(C)OC(=O)n1c(C([NH-])=O)cc2ccc(CF)cc21 (protonated)
CC(C)(C)OC(=O)n1c(C([NH-])=O)cc2ccc(CF)cc21 (3D coordinates assigned)
CC(C)(C)OC(=O)n1c(C([NH-])=O)cc2ccc(CF)cc21 (optimized conformer: 70.00790390219282 kcal/mol)

>  <smiles>  (69) 
CC(C)(C)OC(=O)n1c(C(N)=O)cc2ccc(CF)cc21

>  <score_type>  (69) 
oracle

>  <origin>  (69) 
adg

>  <m_score__min__energy>  (69) 
-6.3200000000000003

>  <m_primary>  (69) 
energy

$$$$
71:0
     RDKit          3D

 34 35  0  0  0  0  0  0  0  0999 V2000
  149.5700  161.8830  130.3590 C   0  0  0  0  0  0  0  0  0  0  0  0
  149.2030  160.4240  130.0950 C   0  0  0  0  0  0  0  0  0  0  0  0
  149.9490  159.4550  131.0230 C   0  0  0  0  0  0  0  0  0  0  0  0
  149.0250  158.8100  132.0250 C   0  0  0  0  0  0  0  0  0  0  0  0
  148.1160  159.6030  132.7700 C   0  0  0  0  0  0  0  0  0  0  0  0
  147.2610  159.0120  133.7150 C   0  0  0  0  0  0  0  0  0  0  0  0
  147.3450  157.6350  133.9010 C   0  0  0  0  0  0  0  0  0  0  0  0
  146.6230  156.8080  134.7310 C   0  0  0  0  0  0  0  0  0  0  0  0
  147.1240  155.5280  134.5030 C   0  0  0  0  0  0  0  0  0  0  0  0
  146.6820  154.3380  135.2600 C   0  0  0  0  0  0  0  0  0  0  0  0
  147.6200  153.3610  135.7040 N   0  0  0  0  0  0  0  0  0  0  0  0
  145.4660  154.2060  135.5610 O   0  0  0  0  0  0  0  0  0  0  0  0
  148.1100  155.5600  133.5620 N   0  0  0  0  0  0  0  0  0  0  0  0
  148.8210  154.4510  132.9900 C   0  0  0  0  0  0  0  0  0  0  0  0
  150.0020  154.6080  132.5750 O   0  0  0  0  0  0  0  0  0  0  0  0
  148.2080  153.1970  132.9180 O   0  0  0  0  0  0  0  0  0  0  0  0
  148.9490  151.9830  132.8720 C   0  0  0  0  0  0  0  0  0  0  0  0
  148.2350  156.8580  133.2060 C   0  0  0  0  0  0  0  0  0  0  0  0
  149.0860  157.4170  132.2450 C   0  0  0  0  0  0  0  0  0  0  0  0
  149.6144  162.0594  131.4438 H   0  0  0  0  0  0  0  0  0  0  0  0
  150.5510  162.1011  129.9116 H   0  0  0  0  0  0  0  0  0  0  0  0
  148.8090  162.5392  129.9116 H   0  0  0  0  0  0  0  0  0  0  0  0
  148.1212  160.2985  130.2495 H   0  0  0  0  0  0  0  0  0  0  0  0
  149.4930  160.1874  129.0606 H   0  0  0  0  0  0  0  0  0  0  0  0
  150.4168  158.6681  130.4131 H   0  0  0  0  0  0  0  0  0  0  0  0
  150.7051  160.0297  131.5781 H   0  0  0  0  0  0  0  0  0  0  0  0
  148.0800  160.6902  132.6067 H   0  0  0  0  0  0  0  0  0  0  0  0
  146.5467  159.6190  134.2906 H   0  0  0  0  0  0  0  0  0  0  0  0
  145.8210  157.0962  135.4265 H   0  0  0  0  0  0  0  0  0  0  0  0
  148.0660  152.7000  135.0290 H   0  0  0  0  0  0  0  0  0  0  0  0
  149.1574  151.6416  133.8967 H   0  0  0  0  0  0  0  0  0  0  0  0
  148.3646  151.2166  132.3419 H   0  0  0  0  0  0  0  0  0  0  0  0
  149.8978  152.1524  132.3419 H   0  0  0  0  0  0  0  0  0  0  0  0
  149.7847  156.7864  131.6756 H   0  0  0  0  0  0  0  0  0  0  0  0
  1  2  1  0
  2  3  1  0
  3  4  1  0
  4  5  2  0
  5  6  1  0
  6  7  2  0
  7  8  1  0
  8  9  2  0
  9 10  1  0
 10 11  1  0
 10 12  2  0
  9 13  1  0
 13 14  1  0
 14 15  2  0
 14 16  1  0
 16 17  1  0
 13 18  1  0
 18 19  2  0
 19  4  1  0
 18  7  1  0
  1 20  1  0
  1 21  1  0
  1 22  1  0
  2 23  1  0
  2 24  1  0
  3 25  1  0
  3 26  1  0
  5 27  1  0
  6 28  1  0
  8 29  1  0
 11 30  1  0
 17 31  1  0
 17 32  1  0
 17 33  1  0
 19 34  1  0
M  CHG  1  11  -1
M  END
>  <UniqueID>  (70) 
70

>  <SMILES>  (70) 
CCCc1ccc2cc(C([NH-])=O)n(C(=O)OC)c2c1

>  <Energy>  (70) 
66.28277535817747

>  <Genealogy>  (70) 
CCCc1ccc2cc(C([NH-])=O)n(C(=O)OC)c2c1 (protonated)
CCCc1ccc2cc(C([NH-])=O)n(C(=O)OC)c2c1 (3D coordinates assigned)
CCCc1ccc2cc(C([NH-])=O)n(C(=O)OC)c2c1 (optimized conformer: 66.28277535817747 kcal/mol)

>  <smiles>  (70) 
CCCc1ccc2cc(C(N)=O)n(C(=O)OC)c2c1

>  <score_type>  (70) 
oracle

>  <origin>  (70) 
adg

>  <m_score__min__energy>  (70) 
-6.3499999999999996

>  <m_primary>  (70) 
energy

$$$$
72:0
     RDKit          3D

 47 48  0  0  0  0  0  0  0  0999 V2000
  147.7330  154.6140  135.9510 C   0  0  0  0  0  0  0  0  0  0  0  0
  146.9740  154.8260  134.6280 C   0  0  0  0  0  0  0  0  0  0  0  0
  147.9590  154.6790  133.4590 C   0  0  0  0  0  0  0  0  0  0  0  0
  145.8530  153.7810  134.4690 C   0  0  0  0  0  0  0  0  0  0  0  0
  146.4370  156.1540  134.5620 O   0  0  0  0  0  0  0  0  0  0  0  0
  145.6670  156.6920  133.5200 C   0  0  0  0  0  0  0  0  0  0  0  0
  145.2250  155.9570  132.5960 O   0  0  0  0  0  0  0  0  0  0  0  0
  145.3870  158.1000  133.5060 N   0  0  0  0  0  0  0  0  0  0  0  0
  146.2820  159.1270  133.5320 C   0  0  0  0  0  0  0  0  0  0  0  0
  147.7490  158.9990  133.4230 C   0  0  0  0  0  0  0  0  0  0  0  0
  148.4660  158.0260  134.1840 N   0  0  0  0  0  0  0  0  0  0  0  0
  148.3740  159.7230  132.6030 O   0  0  0  0  0  0  0  0  0  0  0  0
  145.6230  160.3490  133.6250 C   0  0  0  0  0  0  0  0  0  0  0  0
  144.2820  160.0380  133.6430 C   0  0  0  0  0  0  0  0  0  0  0  0
  143.1740  160.8690  133.7380 C   0  0  0  0  0  0  0  0  0  0  0  0
  141.9020  160.2760  133.7710 C   0  0  0  0  0  0  0  0  0  0  0  0
  141.7450  158.8570  133.7210 C   0  0  0  0  0  0  0  0  0  0  0  0
  140.3630  158.1710  133.7700 C   0  0  0  0  0  0  0  0  0  0  0  0
  140.4130  156.6800  133.3570 C   0  0  0  0  0  0  0  0  0  0  0  0
  139.3960  158.8940  132.8090 C   0  0  0  0  0  0  0  0  0  0  0  0
  139.8040  158.2400  135.2090 C   0  0  0  0  0  0  0  0  0  0  0  0
  142.9140  158.0550  133.6300 C   0  0  0  0  0  0  0  0  0  0  0  0
  144.1660  158.6770  133.5730 C   0  0  0  0  0  0  0  0  0  0  0  0
  147.0556  154.8032  136.7967 H   0  0  0  0  0  0  0  0  0  0  0  0
  148.1012  153.5786  136.0007 H   0  0  0  0  0  0  0  0  0  0  0  0
  148.5844  155.3087  136.0007 H   0  0  0  0  0  0  0  0  0  0  0  0
  148.9750  154.5274  133.8524 H   0  0  0  0  0  0  0  0  0  0  0  0
  147.6712  153.8139  132.8436 H   0  0  0  0  0  0  0  0  0  0  0  0
  147.9364  155.5905  132.8436 H   0  0  0  0  0  0  0  0  0  0  0  0
  145.5079  153.4593  135.4627 H   0  0  0  0  0  0  0  0  0  0  0  0
  145.0129  154.2258  133.9154 H   0  0  0  0  0  0  0  0  0  0  0  0
  146.2378  152.9118  133.9154 H   0  0  0  0  0  0  0  0  0  0  0  0
  147.9640  157.2970  134.7390 H   0  0  0  0  0  0  0  0  0  0  0  0
  149.5080  157.9780  134.1260 H   0  0  0  0  0  0  0  0  0  0  0  0
  146.0767  161.3499  133.6737 H   0  0  0  0  0  0  0  0  0  0  0  0
  143.2896  161.9619  133.7861 H   0  0  0  0  0  0  0  0  0  0  0  0
  141.0096  160.9159  133.8366 H   0  0  0  0  0  0  0  0  0  0  0  0
  140.4341  156.0503  134.2587 H   0  0  0  0  0  0  0  0  0  0  0  0
  139.5226  156.4350  132.7594 H   0  0  0  0  0  0  0  0  0  0  0  0
  141.3178  156.4952  132.7594 H   0  0  0  0  0  0  0  0  0  0  0  0
  138.6490  159.4525  133.3921 H   0  0  0  0  0  0  0  0  0  0  0  0
  139.9627  159.5917  132.1749 H   0  0  0  0  0  0  0  0  0  0  0  0
  138.8870  158.1531  132.1749 H   0  0  0  0  0  0  0  0  0  0  0  0
  140.6298  158.1381  135.9284 H   0  0  0  0  0  0  0  0  0  0  0  0
  139.3022  159.2069  135.3614 H   0  0  0  0  0  0  0  0  0  0  0  0
  139.0821  157.4242  135.3614 H   0  0  0  0  0  0  0  0  0  0  0  0
  142.8358  156.9581  133.6047 H   0  0  0  0  0  0  0  0  0  0  0  0
  1  2  1  0
  2  3  1  0
  2  4  1  0
  2  5  1  0
  5  6  1  0
  6  7  2  0
  6  8  1  0
  8  9  1  0
  9 10  1  0
 10 11  1  0
 10 12  2  0
  9 13  2  0
 13 14  1  0
 14 15  2  0
 15 16  1  0
 16 17  2  0
 17 18  1  0
 18 19  1  0
 18 20  1  0
 18 21  1  0
 17 22  1  0
 22 23  2  0
 23  8  1  0
 23 14  1  0
  1 24  1  0
  1 25  1  0
  1 26  1  0
  3 27  1  0
  3 28  1  0
  3 29  1  0
  4 30  1  0
  4 31  1  0
  4 32  1  0
 11 33  1  0
 11 34  1  0
 13 35  1  0
 15 36  1  0
 16 37  1  0
 19 38  1  0
 19 39  1  0
 19 40  1  0
 20 41  1  0
 20 42  1  0
 20 43  1  0
 21 44  1  0
 21 45  1  0
 21 46  1  0
 22 47  1  0
M  END
>  <UniqueID>  (71) 
71

>  <SMILES>  (71) 
CC(C)(C)OC(=O)n1c(C(N)=O)cc2ccc(C(C)(C)C)cc21

>  <Energy>  (71) 
81.46145412263859

>  <Genealogy>  (71) 
CC(C)(C)OC(=O)n1c(C(N)=O)cc2ccc(C(C)(C)C)cc21 (3D coordinates assigned)
CC(C)(C)OC(=O)n1c(C(N)=O)cc2ccc(C(C)(C)C)cc21 (optimized conformer: 81.46145412263859 kcal/mol)

>  <smiles>  (71) 
CC(C)(C)OC(=O)n1c(C(N)=O)cc2ccc(C(C)(C)C)cc21

>  <score_type>  (71) 
oracle

>  <origin>  (71) 
adg

>  <m_score__min__energy>  (71) 
-7.5099999999999998

>  <m_primary>  (71) 
energy

$$$$
73:0
     RDKit          3D

 73 75  0  0  0  0  0  0  0  0999 V2000
  148.4140  158.3950  134.0530 C   0  0  0  0  0  0  0  0  0  0  0  0
  148.1140  156.9580  134.4680 C   0  0  0  0  0  0  0  0  0  0  0  0
  148.1810  156.0050  133.2620 C   0  0  0  0  0  0  0  0  0  0  0  0
  147.7370  154.5590  133.6300 C   0  0  2  0  0  0  0  0  0  0  0  0
  148.8290  153.5890  133.2500 C   0  0  0  0  0  0  0  0  0  0  0  0
  149.6980  153.9170  132.3950 O   0  0  0  0  0  0  0  0  0  0  0  0
  148.8760  152.3350  133.8650 O   0  0  0  0  0  0  0  0  0  0  0  0
  149.6820  151.2720  133.3720 C   0  0  0  0  0  0  0  0  0  0  0  0
  146.3850  154.1460  132.9670 C   0  0  2  0  0  0  0  0  0  0  0  0
  145.8250  155.2480  132.0360 C   0  0  0  0  0  0  0  0  0  0  0  0
  144.8130  156.1220  132.7380 C   0  0  0  0  0  0  0  0  0  0  0  0
  145.1820  157.4140  133.1860 C   0  0  0  0  0  0  0  0  0  0  0  0
  144.2350  158.2580  133.7910 C   0  0  0  0  0  0  0  0  0  0  0  0
  142.9330  157.7850  133.9300 C   0  0  0  0  0  0  0  0  0  0  0  0
  141.8160  158.4010  134.4440 C   0  0  0  0  0  0  0  0  0  0  0  0
  140.7840  157.4740  134.3070 C   0  0  0  0  0  0  0  0  0  0  0  0
  139.4130  157.6980  134.8100 C   0  0  0  0  0  0  0  0  0  0  0  0
  138.3250  157.7850  133.8920 N   0  0  0  0  0  0  0  0  0  0  0  0
  139.1930  157.8410  136.0420 O   0  0  0  0  0  0  0  0  0  0  0  0
  141.2460  156.3310  133.7260 N   0  0  0  0  0  0  0  0  0  0  0  0
  140.4980  155.1650  133.3490 C   0  0  0  0  0  0  0  0  0  0  0  0
  141.0690  153.8680  133.4960 N   0  0  0  0  0  0  0  0  0  0  0  0
  139.3180  155.2820  132.9210 O   0  0  0  0  0  0  0  0  0  0  0  0
  142.5630  156.5360  133.5070 C   0  0  0  0  0  0  0  0  0  0  0  0
  143.4820  155.6790  132.8940 C   0  0  0  0  0  0  0  0  0  0  0  0
  145.3600  153.7910  134.0200 C   0  0  0  0  0  0  0  0  0  0  0  0
  144.2260  153.1070  133.7650 N   0  0  0  0  0  0  0  0  0  0  0  0
  143.5990  153.0430  134.9270 N   0  0  0  0  0  0  0  0  0  0  0  0
  144.3170  153.6750  135.8370 N   0  0  0  0  0  0  0  0  0  0  0  0
  143.9690  153.7440  137.2540 C   0  0  0  0  0  0  0  0  0  0  0  0
  143.0220  154.7640  137.4970 O   0  0  0  0  0  0  0  0  0  0  0  0
  141.7120  154.2350  137.4740 C   0  0  0  0  0  0  0  0  0  0  0  0
  141.7640  152.7290  137.2290 C   0  0  0  0  0  0  0  0  0  0  0  0
  141.2870  151.7120  138.7410 Si  0  0  0  0  0  4  0  0  0  0  0  0
  142.7550  150.7480  139.3790 C   0  0  0  0  0  0  0  0  0  0  0  0
  140.6320  152.8020  140.1050 C   0  0  0  0  0  0  0  0  0  0  0  0
  139.9530  150.5050  138.2410 C   0  0  0  0  0  0  0  0  0  0  0  0
  145.4340  154.1560  135.3160 N   0  0  0  0  0  0  0  0  0  0  0  0
  148.5438  159.0166  134.9512 H   0  0  0  0  0  0  0  0  0  0  0  0
  149.3365  158.4188  133.4543 H   0  0  0  0  0  0  0  0  0  0  0  0
  147.5781  158.7859  133.4543 H   0  0  0  0  0  0  0  0  0  0  0  0
  148.8526  156.6396  135.2184 H   0  0  0  0  0  0  0  0  0  0  0  0
  147.0968  156.9210  134.8850 H   0  0  0  0  0  0  0  0  0  0  0  0
  147.5199  156.3880  132.4706 H   0  0  0  0  0  0  0  0  0  0  0  0
  149.2268  155.9614  132.9236 H   0  0  0  0  0  0  0  0  0  0  0  0
  147.5669  154.5333  134.7165 H   0  0  0  0  0  0  0  0  0  0  0  0
  150.1070  150.7115  134.2177 H   0  0  0  0  0  0  0  0  0  0  0  0
  149.0655  150.5985  132.7585 H   0  0  0  0  0  0  0  0  0  0  0  0
  150.4969  151.6838  132.7585 H   0  0  0  0  0  0  0  0  0  0  0  0
  146.5925  153.2612  132.3473 H   0  0  0  0  0  0  0  0  0  0  0  0
  146.6581  155.8773  131.6897 H   0  0  0  0  0  0  0  0  0  0  0  0
  145.3205  154.7552  131.1918 H   0  0  0  0  0  0  0  0  0  0  0  0
  146.2185  157.7597  133.0593 H   0  0  0  0  0  0  0  0  0  0  0  0
  144.5140  159.2618  134.1440 H   0  0  0  0  0  0  0  0  0  0  0  0
  141.7507  159.4119  134.8728 H   0  0  0  0  0  0  0  0  0  0  0  0
  138.0190  156.9530  133.3410 H   0  0  0  0  0  0  0  0  0  0  0  0
  142.1020  153.7440  133.5940 H   0  0  0  0  0  0  0  0  0  0  0  0
  143.1750  154.6832  132.5417 H   0  0  0  0  0  0  0  0  0  0  0  0
  143.5451  152.7785  137.5671 H   0  0  0  0  0  0  0  0  0  0  0  0
  144.8805  153.9705  137.8266 H   0  0  0  0  0  0  0  0  0  0  0  0
  141.2226  154.4308  138.4395 H   0  0  0  0  0  0  0  0  0  0  0  0
  141.1421  154.7142  136.6643 H   0  0  0  0  0  0  0  0  0  0  0  0
  141.0710  152.4842  136.4106 H   0  0  0  0  0  0  0  0  0  0  0  0
  142.8049  152.4749  136.9803 H   0  0  0  0  0  0  0  0  0  0  0  0
  142.7471  150.7532  140.4790 H   0  0  0  0  0  0  0  0  0  0  0  0
  142.6981  149.7109  139.0168 H   0  0  0  0  0  0  0  0  0  0  0  0
  143.6841  151.2124  139.0168 H   0  0  0  0  0  0  0  0  0  0  0  0
  140.8939  152.3661  141.0804 H   0  0  0  0  0  0  0  0  0  0  0  0
  141.0777  153.8040  140.0196 H   0  0  0  0  0  0  0  0  0  0  0  0
  139.5380  152.8788  140.0196 H   0  0  0  0  0  0  0  0  0  0  0  0
  139.4851  150.0817  139.1420 H   0  0  0  0  0  0  0  0  0  0  0  0
  139.1914  151.0271  137.6432 H   0  0  0  0  0  0  0  0  0  0  0  0
  140.3966  149.6951  137.6432 H   0  0  0  0  0  0  0  0  0  0  0  0
  1  2  1  0
  2  3  1  0
  3  4  1  0
  4  5  1  0
  5  6  2  0
  5  7  1  0
  7  8  1  0
  4  9  1  0
  9 10  1  0
 10 11  1  0
 11 12  2  0
 12 13  1  0
 13 14  2  0
 14 15  1  0
 15 16  2  0
 16 17  1  0
 17 18  1  0
 17 19  2  0
 16 20  1  0
 20 21  1  0
 21 22  1  0
 21 23  2  0
 20 24  1  0
 24 25  2  0
  9 26  1  0
 26 27  1  0
 27 28  2  0
 28 29  1  0
 29 30  1  0
 30 31  1  0
 31 32  1  0
 32 33  1  0
 33 34  1  0
 34 35  1  0
 34 36  1  0
 34 37  1  0
 29 38  1  0
 25 11  1  0
 38 26  2  0
 24 14  1  0
  1 39  1  0
  1 40  1  0
  1 41  1  0
  2 42  1  0
  2 43  1  0
  3 44  1  0
  3 45  1  0
  4 46  1  1
  8 47  1  0
  8 48  1  0
  8 49  1  0
  9 50  1  6
 10 51  1  0
 10 52  1  0
 12 53  1  0
 13 54  1  0
 15 55  1  0
 18 56  1  0
 22 57  1  0
 25 58  1  0
 30 59  1  0
 30 60  1  0
 32 61  1  0
 32 62  1  0
 33 63  1  0
 33 64  1  0
 35 65  1  0
 35 66  1  0
 35 67  1  0
 36 68  1  0
 36 69  1  0
 36 70  1  0
 37 71  1  0
 37 72  1  0
 37 73  1  0
M  CHG  2  18  -1  22  -1
M  END
>  <UniqueID>  (72) 
72

>  <SMILES>  (72) 
CCC[C@H](C(=O)OC)[C@H](Cc1ccc2cc(C([NH-])=O)n(C([NH-])=O)c2c1)c1nnn(COCC[Si](C)(C)C)n1

>  <Energy>  (72) 
121.79872443594797

>  <Genealogy>  (72) 
CCC[C@H](C(=O)OC)[C@H](Cc1ccc2cc(C([NH-])=O)n(C([NH-])=O)c2c1)c1nnn(COCC[Si](C)(C)C)n1 (protonated)
CCC[C@H](C(=O)OC)[C@H](Cc1ccc2cc(C([NH-])=O)n(C([NH-])=O)c2c1)c1nnn(COCC[Si](C)(C)C)n1 (3D coordinates assigned)
CCC[C@H](C(=O)OC)[C@H](Cc1ccc2cc(C([NH-])=O)n(C([NH-])=O)c2c1)c1nnn(COCC[Si](C)(C)C)n1 (optimized conformer: 121.79872443594797 kcal/mol)

>  <smiles>  (72) 
CCC[C@H](C(=O)OC)[C@H](Cc1ccc2cc(C(N)=O)n(C(N)=O)c2c1)c1nnn(COCC[Si](C)(C)C)n1

>  <score_type>  (72) 
oracle

>  <origin>  (72) 
adg

>  <m_score__min__energy>  (72) 
-9.2899999999999991

>  <m_primary>  (72) 
energy

$$$$
74:0
     RDKit          3D

 27 28  0  0  0  0  0  0  0  0999 V2000
  149.4470  160.1670  130.8060 C   0  0  0  0  0  0  0  0  0  0  0  0
  149.3680  159.7160  132.2600 C   0  0  0  0  0  0  0  0  0  0  0  0
  147.9620  159.3170  132.6190 C   0  0  0  0  0  0  0  0  0  0  0  0
  147.5870  157.9500  132.6070 C   0  0  0  0  0  0  0  0  0  0  0  0
  146.2910  157.5610  132.9830 C   0  0  0  0  0  0  0  0  0  0  0  0
  145.3960  158.5560  133.3650 C   0  0  0  0  0  0  0  0  0  0  0  0
  144.0950  158.4540  133.8020 C   0  0  0  0  0  0  0  0  0  0  0  0
  143.6900  159.7610  134.0640 C   0  0  0  0  0  0  0  0  0  0  0  0
  142.3180  160.1180  134.4760 C   0  0  0  0  0  0  0  0  0  0  0  0
  141.5100  160.9770  133.6740 N   0  0  0  0  0  0  0  0  0  0  0  0
  141.8300  159.6170  135.5240 O   0  0  0  0  0  0  0  0  0  0  0  0
  144.7040  160.6380  133.8070 N   0  0  0  0  0  0  0  0  0  0  0  0
  144.7190  162.0550  134.0410 C   0  0  0  0  0  0  0  0  0  0  0  0
  145.5400  162.5560  134.8540 O   0  0  0  0  0  0  0  0  0  0  0  0
  143.8100  162.8830  133.3950 O   0  0  0  0  0  0  0  0  0  0  0  0
  145.7400  159.8830  133.3770 C   0  0  0  0  0  0  0  0  0  0  0  0
  147.0300  160.2970  133.0250 C   0  0  0  0  0  0  0  0  0  0  0  0
  149.6367  161.2499  130.7678 H   0  0  0  0  0  0  0  0  0  0  0  0
  150.2653  159.6333  130.3005 H   0  0  0  0  0  0  0  0  0  0  0  0
  148.4960  159.9433  130.3005 H   0  0  0  0  0  0  0  0  0  0  0  0
  150.0363  158.8548  132.4075 H   0  0  0  0  0  0  0  0  0  0  0  0
  149.6736  160.5522  132.9061 H   0  0  0  0  0  0  0  0  0  0  0  0
  148.3177  157.1870  132.3004 H   0  0  0  0  0  0  0  0  0  0  0  0
  145.9924  156.5023  132.9758 H   0  0  0  0  0  0  0  0  0  0  0  0
  143.5011  157.5356  133.9195 H   0  0  0  0  0  0  0  0  0  0  0  0
  141.8910  161.8730  133.2970 H   0  0  0  0  0  0  0  0  0  0  0  0
  147.3108  161.3598  133.0637 H   0  0  0  0  0  0  0  0  0  0  0  0
  1  2  1  0
  2  3  1  0
  3  4  2  0
  4  5  1  0
  5  6  2  0
  6  7  1  0
  7  8  2  0
  8  9  1  0
  9 10  1  0
  9 11  2  0
  8 12  1  0
 12 13  1  0
 13 14  2  0
 13 15  1  0
 12 16  1  0
 16 17  2  0
 17  3  1  0
 16  6  1  0
  1 18  1  0
  1 19  1  0
  1 20  1  0
  2 21  1  0
  2 22  1  0
  4 23  1  0
  5 24  1  0
  7 25  1  0
 10 26  1  0
 17 27  1  0
M  CHG  2  10  -1  15  -1
M  END
>  <UniqueID>  (73) 
73

>  <SMILES>  (73) 
CCc1ccc2cc(C([NH-])=O)n(C(=O)[O-])c2c1

>  <Energy>  (73) 
63.97070996330524

>  <Genealogy>  (73) 
CCc1ccc2cc(C([NH-])=O)n(C(=O)[O-])c2c1 (protonated)
CCc1ccc2cc(C([NH-])=O)n(C(=O)[O-])c2c1 (3D coordinates assigned)
CCc1ccc2cc(C([NH-])=O)n(C(=O)[O-])c2c1 (optimized conformer: 63.97070996330524 kcal/mol)

>  <smiles>  (73) 
CCc1ccc2cc(C(N)=O)n(C(=O)O)c2c1

>  <score_type>  (73) 
oracle

>  <origin>  (73) 
adg

>  <m_score__min__energy>  (73) 
-6.25

>  <m_primary>  (73) 
energy

$$$$
75:0
     RDKit          3D

 36 38  0  0  0  0  0  0  0  0999 V2000
  142.7700  160.5640  133.3580 N   0  0  0  0  0  0  0  0  0  0  0  0
  144.1280  160.8140  133.7160 C   0  0  0  0  0  0  0  0  0  0  0  0
  144.4360  161.9150  134.2440 O   0  0  0  0  0  0  0  0  0  0  0  0
  145.1650  159.8040  133.4280 C   0  0  0  0  0  0  0  0  0  0  0  0
  146.5220  160.1000  133.3020 C   0  0  0  0  0  0  0  0  0  0  0  0
  147.1480  158.8810  133.1530 C   0  0  0  0  0  0  0  0  0  0  0  0
  148.4960  158.5780  132.9940 C   0  0  0  0  0  0  0  0  0  0  0  0
  148.8560  157.2260  132.8630 C   0  0  0  0  0  0  0  0  0  0  0  0
  147.8690  156.2020  132.8900 C   0  0  0  0  0  0  0  0  0  0  0  0
  148.2660  154.7750  132.7690 C   0  0  0  0  0  0  0  0  0  0  0  0
  147.3310  153.7490  132.9810 C   0  0  0  0  0  0  0  0  0  0  0  0
  147.7120  152.4140  132.8420 C   0  0  0  0  0  0  0  0  0  0  0  0
  149.0270  152.1100  132.4920 C   0  0  0  0  0  0  0  0  0  0  0  0
  149.4050  150.8160  132.3450 F   0  0  0  0  0  0  0  0  0  0  0  0
  149.9300  153.1090  132.2970 N   0  0  0  0  0  0  0  0  0  0  0  0
  149.5830  154.4190  132.4270 C   0  0  0  0  0  0  0  0  0  0  0  0
  146.5090  156.5560  133.0540 C   0  0  0  0  0  0  0  0  0  0  0  0
  146.1830  157.9090  133.1890 C   0  0  0  0  0  0  0  0  0  0  0  0
  144.9610  158.4590  133.3480 N   0  0  0  0  0  0  0  0  0  0  0  0
  143.7100  157.7540  133.3350 C   0  0  0  0  0  0  0  0  0  0  0  0
  143.0370  157.6990  132.2700 O   0  0  0  0  0  0  0  0  0  0  0  0
  143.1650  157.1400  134.5920 C   0  0  0  0  0  0  0  0  0  0  0  0
  142.0110  158.2940  135.4240 S   0  0  0  0  0  0  0  0  0  0  0  0
  141.1030  158.5840  133.9890 O   0  0  0  0  0  0  0  0  0  0  0  0
  142.5200  159.7710  132.7270 H   0  0  0  0  0  0  0  0  0  0  0  0
  146.9924  161.0942  133.3181 H   0  0  0  0  0  0  0  0  0  0  0  0
  149.2568  159.3721  132.9715 H   0  0  0  0  0  0  0  0  0  0  0  0
  149.9150  156.9560  132.7379 H   0  0  0  0  0  0  0  0  0  0  0  0
  146.2959  153.9983  133.2573 H   0  0  0  0  0  0  0  0  0  0  0  0
  146.9814  151.6084  133.0071 H   0  0  0  0  0  0  0  0  0  0  0  0
  150.9110  152.8660  132.0330 H   0  0  0  0  0  0  0  0  0  0  0  0
  150.3368  155.2033  132.2637 H   0  0  0  0  0  0  0  0  0  0  0  0
  145.7256  155.7841  133.0748 H   0  0  0  0  0  0  0  0  0  0  0  0
  142.6297  156.2129  134.3391 H   0  0  0  0  0  0  0  0  0  0  0  0
  144.0014  156.9223  135.2724 H   0  0  0  0  0  0  0  0  0  0  0  0
  141.7400  159.0230  133.3720 H   0  0  0  0  0  0  0  0  0  0  0  0
  1  2  1  0
  2  3  2  0
  2  4  1  0
  4  5  2  0
  5  6  1  0
  6  7  2  0
  7  8  1  0
  8  9  2  0
  9 10  1  0
 10 11  2  0
 11 12  1  0
 12 13  2  0
 13 14  1  0
 13 15  1  0
 15 16  2  0
  9 17  1  0
 17 18  2  0
 18 19  1  0
 19 20  1  0
 20 21  2  0
 20 22  1  0
 22 23  1  0
 23 24  1  0
 19  4  1  0
 18  6  1  0
 16 10  1  0
  1 25  1  0
  5 26  1  0
  7 27  1  0
  8 28  1  0
 11 29  1  0
 12 30  1  0
 15 31  1  0
 16 32  1  0
 17 33  1  0
 22 34  1  0
 22 35  1  0
 24 36  1  0
M  CHG  2   1  -1  15   1
M  END
>  <UniqueID>  (74) 
74

>  <SMILES>  (74) 
[NH-]C(=O)c1cc2ccc(-c3ccc(F)[nH+]c3)cc2n1C(=O)CSO

>  <Energy>  (74) 
80.84407253737929

>  <Genealogy>  (74) 
[NH-]C(=O)c1cc2ccc(-c3ccc(F)[nH+]c3)cc2n1C(=O)CSO (protonated)
[NH-]C(=O)c1cc2ccc(-c3ccc(F)[nH+]c3)cc2n1C(=O)CSO (3D coordinates assigned)
[NH-]C(=O)c1cc2ccc(-c3ccc(F)[nH+]c3)cc2n1C(=O)CSO (optimized conformer: 80.84407253737929 kcal/mol)

>  <smiles>  (74) 
NC(=O)c1cc2ccc(-c3ccc(F)nc3)cc2n1C(=O)CSO

>  <score_type>  (74) 
oracle

>  <origin>  (74) 
adg

>  <m_score__min__energy>  (74) 
-7.5

>  <m_primary>  (74) 
energy

$$$$
76:0
     RDKit          3D

 35 37  0  0  0  0  0  0  0  0999 V2000
  149.6880  150.2900  131.6250 C   0  0  0  0  0  0  0  0  0  0  0  0
  148.7230  150.8910  132.4830 O   0  0  0  0  0  0  0  0  0  0  0  0
  148.5260  152.2750  132.6050 C   0  0  0  0  0  0  0  0  0  0  0  0
  147.2350  152.7410  132.8760 C   0  0  0  0  0  0  0  0  0  0  0  0
  146.9860  154.1090  133.0070 C   0  0  0  0  0  0  0  0  0  0  0  0
  148.0290  155.0420  132.8680 C   0  0  0  0  0  0  0  0  0  0  0  0
  147.7660  156.4960  133.0070 C   0  0  0  0  0  0  0  0  0  0  0  0
  148.8320  157.4290  132.9130 C   0  0  0  0  0  0  0  0  0  0  0  0
  148.5930  158.8080  133.0290 C   0  0  0  0  0  0  0  0  0  0  0  0
  147.2850  159.2290  133.2490 C   0  0  0  0  0  0  0  0  0  0  0  0
  146.7750  160.5000  133.3740 C   0  0  0  0  0  0  0  0  0  0  0  0
  145.4060  160.3300  133.5690 C   0  0  0  0  0  0  0  0  0  0  0  0
  144.4800  161.4510  133.8360 C   0  0  0  0  0  0  0  0  0  0  0  0
  143.0690  161.2790  133.7310 N   0  0  0  0  0  0  0  0  0  0  0  0
  144.9390  162.5630  134.2110 O   0  0  0  0  0  0  0  0  0  0  0  0
  145.0810  159.0050  133.5580 N   0  0  0  0  0  0  0  0  0  0  0  0
  143.7730  158.4170  133.6390 C   0  0  0  0  0  0  0  0  0  0  0  0
  143.2610  157.8650  132.6300 O   0  0  0  0  0  0  0  0  0  0  0  0
  143.0720  158.4300  134.8370 O   0  0  0  0  0  0  0  0  0  0  0  0
  146.2450  158.3450  133.3620 C   0  0  0  0  0  0  0  0  0  0  0  0
  146.4500  156.9670  133.2300 C   0  0  0  0  0  0  0  0  0  0  0  0
  149.3260  154.5730  132.5950 C   0  0  0  0  0  0  0  0  0  0  0  0
  149.5740  153.2030  132.4650 C   0  0  0  0  0  0  0  0  0  0  0  0
  150.4667  149.8050  132.2319 H   0  0  0  0  0  0  0  0  0  0  0  0
  149.1965  149.5380  130.9902 H   0  0  0  0  0  0  0  0  0  0  0  0
  150.1461  151.0628  130.9902 H   0  0  0  0  0  0  0  0  0  0  0  0
  146.4086  152.0235  132.9869 H   0  0  0  0  0  0  0  0  0  0  0  0
  145.9655  154.4596  133.2207 H   0  0  0  0  0  0  0  0  0  0  0  0
  149.8576  157.0674  132.7473 H   0  0  0  0  0  0  0  0  0  0  0  0
  149.4155  159.5340  132.9484 H   0  0  0  0  0  0  0  0  0  0  0  0
  147.3298  161.4488  133.3295 H   0  0  0  0  0  0  0  0  0  0  0  0
  142.6330  160.3380  133.8530 H   0  0  0  0  0  0  0  0  0  0  0  0
  145.6062  156.2646  133.2981 H   0  0  0  0  0  0  0  0  0  0  0  0
  150.1527  155.2899  132.4827 H   0  0  0  0  0  0  0  0  0  0  0  0
  150.5936  152.8492  132.2522 H   0  0  0  0  0  0  0  0  0  0  0  0
  1  2  1  0
  2  3  1  0
  3  4  2  0
  4  5  1  0
  5  6  2  0
  6  7  1  0
  7  8  2  0
  8  9  1  0
  9 10  2  0
 10 11  1  0
 11 12  2  0
 12 13  1  0
 13 14  1  0
 13 15  2  0
 12 16  1  0
 16 17  1  0
 17 18  2  0
 17 19  1  0
 16 20  1  0
 20 21  2  0
  6 22  1  0
 22 23  2  0
 23  3  1  0
 21  7  1  0
 20 10  1  0
  1 24  1  0
  1 25  1  0
  1 26  1  0
  4 27  1  0
  5 28  1  0
  8 29  1  0
  9 30  1  0
 11 31  1  0
 14 32  1  0
 21 33  1  0
 22 34  1  0
 23 35  1  0
M  CHG  2  14  -1  19  -1
M  END
>  <UniqueID>  (75) 
75

>  <SMILES>  (75) 
COc1ccc(-c2ccc3cc(C([NH-])=O)n(C(=O)[O-])c3c2)cc1

>  <Energy>  (75) 
82.37918327095421

>  <Genealogy>  (75) 
COc1ccc(-c2ccc3cc(C([NH-])=O)n(C(=O)[O-])c3c2)cc1 (protonated)
COc1ccc(-c2ccc3cc(C([NH-])=O)n(C(=O)[O-])c3c2)cc1 (3D coordinates assigned)
COc1ccc(-c2ccc3cc(C([NH-])=O)n(C(=O)[O-])c3c2)cc1 (optimized conformer: 82.37918327095421 kcal/mol)

>  <smiles>  (75) 
COc1ccc(-c2ccc3cc(C(N)=O)n(C(=O)O)c3c2)cc1

>  <score_type>  (75) 
oracle

>  <origin>  (75) 
adg

>  <m_score__min__energy>  (75) 
-7.0700000000000003

>  <m_primary>  (75) 
energy

$$$$
77:0
     RDKit          3D

 37 38  0  0  0  0  0  0  0  0999 V2000
  150.0100  159.5790  131.0820 C   0  0  0  0  0  0  0  0  0  0  0  0
  149.1450  158.8770  132.0870 C   0  0  0  0  0  0  0  0  0  0  0  0
  148.3620  159.6290  132.9950 C   0  0  0  0  0  0  0  0  0  0  0  0
  147.5660  158.9830  133.9580 C   0  0  0  0  0  0  0  0  0  0  0  0
  147.5930  157.5920  133.9990 C   0  0  0  0  0  0  0  0  0  0  0  0
  146.9120  156.7170  134.8140 C   0  0  0  0  0  0  0  0  0  0  0  0
  147.3190  155.4460  134.4150 C   0  0  0  0  0  0  0  0  0  0  0  0
  146.8920  154.2040  135.0920 C   0  0  0  0  0  0  0  0  0  0  0  0
  146.0330  153.2880  134.4170 N   0  0  0  0  0  0  0  0  0  0  0  0
  147.2480  153.9570  136.2740 O   0  0  0  0  0  0  0  0  0  0  0  0
  148.2130  155.5320  133.3890 N   0  0  0  0  0  0  0  0  0  0  0  0
  148.8290  154.4590  132.6600 C   0  0  0  0  0  0  0  0  0  0  0  0
  150.0190  154.5770  132.2600 O   0  0  0  0  0  0  0  0  0  0  0  0
  148.1030  153.2820  132.4250 O   0  0  0  0  0  0  0  0  0  0  0  0
  148.6200  151.9440  132.4420 C   0  0  0  0  0  0  0  0  0  0  0  0
  149.6280  151.7370  131.2970 C   0  0  0  0  0  0  0  0  0  0  0  0
  147.4300  150.9950  132.2340 C   0  0  0  0  0  0  0  0  0  0  0  0
  149.2720  151.6330  133.8030 C   0  0  0  0  0  0  0  0  0  0  0  0
  148.3720  156.8510  133.1480 C   0  0  0  0  0  0  0  0  0  0  0  0
  149.1600  157.4680  132.1680 C   0  0  0  0  0  0  0  0  0  0  0  0
  150.7608  160.1883  131.6064 H   0  0  0  0  0  0  0  0  0  0  0  0
  150.5177  158.8343  130.4514 H   0  0  0  0  0  0  0  0  0  0  0  0
  149.3857  160.2291  130.4514 H   0  0  0  0  0  0  0  0  0  0  0  0
  148.3761  160.7279  132.9472 H   0  0  0  0  0  0  0  0  0  0  0  0
  146.9417  159.5591  134.6568 H   0  0  0  0  0  0  0  0  0  0  0  0
  146.1975  156.9681  135.6117 H   0  0  0  0  0  0  0  0  0  0  0  0
  146.4130  152.6080  133.7210 H   0  0  0  0  0  0  0  0  0  0  0  0
  150.6237  151.5325  131.7175 H   0  0  0  0  0  0  0  0  0  0  0  0
  149.3096  150.8855  130.6777 H   0  0  0  0  0  0  0  0  0  0  0  0
  149.6710  152.6451  130.6777 H   0  0  0  0  0  0  0  0  0  0  0  0
  147.0362  150.6809  133.2119 H   0  0  0  0  0  0  0  0  0  0  0  0
  146.6409  151.5145  131.6706 H   0  0  0  0  0  0  0  0  0  0  0  0
  147.7608  150.1101  131.6706 H   0  0  0  0  0  0  0  0  0  0  0  0
  148.6004  151.9534  134.6131 H   0  0  0  0  0  0  0  0  0  0  0  0
  149.4539  150.5511  133.8838 H   0  0  0  0  0  0  0  0  0  0  0  0
  150.2272  152.1724  133.8838 H   0  0  0  0  0  0  0  0  0  0  0  0
  149.7747  156.8698  131.4793 H   0  0  0  0  0  0  0  0  0  0  0  0
  1  2  1  0
  2  3  2  0
  3  4  1  0
  4  5  2  0
  5  6  1  0
  6  7  2  0
  7  8  1  0
  8  9  1  0
  8 10  2  0
  7 11  1  0
 11 12  1  0
 12 13  2  0
 12 14  1  0
 14 15  1  0
 15 16  1  0
 15 17  1  0
 15 18  1  0
 11 19  1  0
 19 20  2  0
 20  2  1  0
 19  5  1  0
  1 21  1  0
  1 22  1  0
  1 23  1  0
  3 24  1  0
  4 25  1  0
  6 26  1  0
  9 27  1  0
 16 28  1  0
 16 29  1  0
 16 30  1  0
 17 31  1  0
 17 32  1  0
 17 33  1  0
 18 34  1  0
 18 35  1  0
 18 36  1  0
 20 37  1  0
M  CHG  1   9  -1
M  END
>  <UniqueID>  (76) 
76

>  <SMILES>  (76) 
Cc1ccc2cc(C([NH-])=O)n(C(=O)OC(C)(C)C)c2c1

>  <Energy>  (76) 
70.02991673181498

>  <Genealogy>  (76) 
Cc1ccc2cc(C([NH-])=O)n(C(=O)OC(C)(C)C)c2c1 (protonated)
Cc1ccc2cc(C([NH-])=O)n(C(=O)OC(C)(C)C)c2c1 (3D coordinates assigned)
Cc1ccc2cc(C([NH-])=O)n(C(=O)OC(C)(C)C)c2c1 (optimized conformer: 70.02991673181498 kcal/mol)

>  <smiles>  (76) 
Cc1ccc2cc(C(N)=O)n(C(=O)OC(C)(C)C)c2c1

>  <score_type>  (76) 
oracle

>  <origin>  (76) 
adg

>  <m_score__min__energy>  (76) 
-6.5999999999999996

>  <m_primary>  (76) 
energy

$$$$
78:0
     RDKit          3D

 35 37  0  0  0  0  0  0  0  0999 V2000
  148.9380  158.3010  131.8510 N   0  0  0  0  0  0  0  0  0  0  0  0
  148.4360  158.7810  133.0960 C   0  0  0  0  0  0  0  0  0  0  0  0
  149.2420  159.0370  134.0290 O   0  0  0  0  0  0  0  0  0  0  0  0
  146.9930  159.0380  133.2850 C   0  0  0  0  0  0  0  0  0  0  0  0
  146.4640  160.3080  133.5030 C   0  0  0  0  0  0  0  0  0  0  0  0
  145.1000  160.1340  133.5330 C   0  0  0  0  0  0  0  0  0  0  0  0
  144.0850  161.0650  133.7280 C   0  0  0  0  0  0  0  0  0  0  0  0
  142.7590  160.6030  133.7380 C   0  0  0  0  0  0  0  0  0  0  0  0
  142.4690  159.2230  133.5630 C   0  0  0  0  0  0  0  0  0  0  0  0
  141.0640  158.7450  133.5870 C   0  0  0  0  0  0  0  0  0  0  0  0
  140.5490  158.1060  134.7290 C   0  0  0  0  0  0  0  0  0  0  0  0
  139.2270  157.6580  134.7520 C   0  0  0  0  0  0  0  0  0  0  0  0
  138.4050  157.8400  133.6400 C   0  0  0  0  0  0  0  0  0  0  0  0
  138.8930  158.4700  132.4910 C   0  0  0  0  0  0  0  0  0  0  0  0
  138.0210  158.6240  131.4000 O   0  0  0  0  0  0  0  0  0  0  0  0
  137.7780  159.8440  130.7030 C   0  0  0  0  0  0  0  0  0  0  0  0
  136.4170  160.0560  130.5710 F   0  0  0  0  0  0  0  0  0  0  0  0
  138.3570  160.9030  131.3800 F   0  0  0  0  0  0  0  0  0  0  0  0
  138.3400  159.7610  129.4430 F   0  0  0  0  0  0  0  0  0  0  0  0
  140.2280  158.9230  132.4690 C   0  0  0  0  0  0  0  0  0  0  0  0
  143.5320  158.3090  133.3680 C   0  0  0  0  0  0  0  0  0  0  0  0
  144.8420  158.8020  133.3430 C   0  0  0  0  0  0  0  0  0  0  0  0
  145.9960  158.1130  133.1910 N   0  0  0  0  0  0  0  0  0  0  0  0
  146.1290  156.6880  133.0660 C   0  0  0  0  0  0  0  0  0  0  0  0
  146.9760  156.1940  132.2760 O   0  0  0  0  0  0  0  0  0  0  0  0
  145.3060  155.8400  133.7980 O   0  0  0  0  0  0  0  0  0  0  0  0
  148.6200  157.3860  131.4620 H   0  0  0  0  0  0  0  0  0  0  0  0
  147.0191  161.2498  133.6252 H   0  0  0  0  0  0  0  0  0  0  0  0
  144.3143  162.1314  133.8701 H   0  0  0  0  0  0  0  0  0  0  0  0
  141.9354  161.3175  133.8830 H   0  0  0  0  0  0  0  0  0  0  0  0
  141.1917  157.9583  135.6094 H   0  0  0  0  0  0  0  0  0  0  0  0
  138.8324  157.1599  135.6499 H   0  0  0  0  0  0  0  0  0  0  0  0
  137.3642  157.4850  133.6671 H   0  0  0  0  0  0  0  0  0  0  0  0
  140.6198  159.4203  131.5694 H   0  0  0  0  0  0  0  0  0  0  0  0
  143.3331  157.2349  133.2389 H   0  0  0  0  0  0  0  0  0  0  0  0
  1  2  1  0
  2  3  2  0
  2  4  1  0
  4  5  2  0
  5  6  1  0
  6  7  2  0
  7  8  1  0
  8  9  2  0
  9 10  1  0
 10 11  2  0
 11 12  1  0
 12 13  2  0
 13 14  1  0
 14 15  1  0
 15 16  1  0
 16 17  1  0
 16 18  1  0
 16 19  1  0
 14 20  2  0
  9 21  1  0
 21 22  2  0
 22 23  1  0
 23 24  1  0
 24 25  2  0
 24 26  1  0
 23  4  1  0
 22  6  1  0
 20 10  1  0
  1 27  1  0
  5 28  1  0
  7 29  1  0
  8 30  1  0
 11 31  1  0
 12 32  1  0
 13 33  1  0
 20 34  1  0
 21 35  1  0
M  CHG  2   1  -1  26  -1
M  END
>  <UniqueID>  (77) 
77

>  <SMILES>  (77) 
[NH-]C(=O)c1cc2ccc(-c3cccc(OC(F)(F)F)c3)cc2n1C(=O)[O-]

>  <Energy>  (77) 
83.2366858001878

>  <Genealogy>  (77) 
[NH-]C(=O)c1cc2ccc(-c3cccc(OC(F)(F)F)c3)cc2n1C(=O)[O-] (protonated)
[NH-]C(=O)c1cc2ccc(-c3cccc(OC(F)(F)F)c3)cc2n1C(=O)[O-] (3D coordinates assigned)
[NH-]C(=O)c1cc2ccc(-c3cccc(OC(F)(F)F)c3)cc2n1C(=O)[O-] (optimized conformer: 83.2366858001878 kcal/mol)

>  <smiles>  (77) 
NC(=O)c1cc2ccc(-c3cccc(OC(F)(F)F)c3)cc2n1C(=O)O

>  <score_type>  (77) 
oracle

>  <origin>  (77) 
adg

>  <m_score__min__energy>  (77) 
-7.7400000000000002

>  <m_primary>  (77) 
energy

$$$$
79:0
     RDKit          3D

 35 37  0  0  0  0  0  0  0  0999 V2000
  139.6230  158.8660  135.6960 N   0  0  0  0  0  0  0  0  0  0  0  0
  140.8500  158.3330  135.2020 C   0  0  0  0  0  0  0  0  0  0  0  0
  141.8430  159.0950  135.0650 O   0  0  0  0  0  0  0  0  0  0  0  0
  140.9550  156.8910  134.8950 C   0  0  0  0  0  0  0  0  0  0  0  0
  141.8760  156.0400  135.5010 C   0  0  0  0  0  0  0  0  0  0  0  0
  141.7170  154.8240  134.8740 C   0  0  0  0  0  0  0  0  0  0  0  0
  142.3740  153.6140  135.0820 C   0  0  0  0  0  0  0  0  0  0  0  0
  141.9900  152.5130  134.2970 C   0  0  0  0  0  0  0  0  0  0  0  0
  140.9630  152.6440  133.3330 C   0  0  0  0  0  0  0  0  0  0  0  0
  140.5730  151.5080  132.5420 C   0  0  0  0  0  0  0  0  0  0  0  0
  140.2470  150.5560  131.8790 C   0  0  0  0  0  0  0  0  0  0  0  0
  139.8580  149.4190  131.0870 C   0  0  0  0  0  0  0  0  0  0  0  0
  140.2520  148.1290  131.4680 C   0  0  0  0  0  0  0  0  0  0  0  0
  139.8720  147.0240  130.6980 C   0  0  0  0  0  0  0  0  0  0  0  0
  139.0980  147.2060  129.5480 C   0  0  0  0  0  0  0  0  0  0  0  0
  138.7030  148.4920  129.1660 C   0  0  0  0  0  0  0  0  0  0  0  0
  139.0820  149.5990  129.9340 C   0  0  0  0  0  0  0  0  0  0  0  0
  140.3180  153.8830  133.1460 C   0  0  0  0  0  0  0  0  0  0  0  0
  140.7290  154.9660  133.9330 C   0  0  0  0  0  0  0  0  0  0  0  0
  140.2480  156.2270  133.9370 N   0  0  0  0  0  0  0  0  0  0  0  0
  139.1700  156.7250  133.1300 C   0  0  0  0  0  0  0  0  0  0  0  0
  138.1280  157.5060  133.7150 N   0  0  0  0  0  0  0  0  0  0  0  0
  139.1210  156.4440  131.9020 O   0  0  0  0  0  0  0  0  0  0  0  0
  139.4660  158.9900  136.7210 H   0  0  0  0  0  0  0  0  0  0  0  0
  142.5807  156.2866  136.3088 H   0  0  0  0  0  0  0  0  0  0  0  0
  143.1687  153.5226  135.8371 H   0  0  0  0  0  0  0  0  0  0  0  0
  142.4913  151.5434  134.4332 H   0  0  0  0  0  0  0  0  0  0  0  0
  140.8604  147.9850  132.3730 H   0  0  0  0  0  0  0  0  0  0  0  0
  140.1823  146.0121  130.9976 H   0  0  0  0  0  0  0  0  0  0  0  0
  138.7995  146.3370  128.9432 H   0  0  0  0  0  0  0  0  0  0  0  0
  138.0939  148.6336  128.2611 H   0  0  0  0  0  0  0  0  0  0  0  0
  138.7708  150.6101  129.6327 H   0  0  0  0  0  0  0  0  0  0  0  0
  139.5147  153.9962  132.4031 H   0  0  0  0  0  0  0  0  0  0  0  0
  138.1070  157.6760  134.7450 H   0  0  0  0  0  0  0  0  0  0  0  0
  137.3530  157.8810  133.1230 H   0  0  0  0  0  0  0  0  0  0  0  0
  1  2  1  0
  2  3  2  0
  2  4  1  0
  4  5  2  0
  5  6  1  0
  6  7  2  0
  7  8  1  0
  8  9  2  0
  9 10  1  0
 10 11  3  0
 11 12  1  0
 12 13  2  0
 13 14  1  0
 14 15  2  0
 15 16  1  0
 16 17  2  0
  9 18  1  0
 18 19  2  0
 19 20  1  0
 20 21  1  0
 21 22  1  0
 21 23  2  0
 20  4  1  0
 19  6  1  0
 17 12  1  0
  1 24  1  0
  5 25  1  0
  7 26  1  0
  8 27  1  0
 13 28  1  0
 14 29  1  0
 15 30  1  0
 16 31  1  0
 17 32  1  0
 18 33  1  0
 22 34  1  0
 22 35  1  0
M  CHG  1   1  -1
M  END
>  <UniqueID>  (78) 
78

>  <SMILES>  (78) 
[NH-]C(=O)c1cc2ccc(C#Cc3ccccc3)cc2n1C(N)=O

>  <Energy>  (78) 
72.19952621609048

>  <Genealogy>  (78) 
[NH-]C(=O)c1cc2ccc(C#Cc3ccccc3)cc2n1C(N)=O (protonated)
[NH-]C(=O)c1cc2ccc(C#Cc3ccccc3)cc2n1C(N)=O (3D coordinates assigned)
[NH-]C(=O)c1cc2ccc(C#Cc3ccccc3)cc2n1C(N)=O (optimized conformer: 72.19952621609048 kcal/mol)

>  <smiles>  (78) 
NC(=O)c1cc2ccc(C#Cc3ccccc3)cc2n1C(N)=O

>  <score_type>  (78) 
oracle

>  <origin>  (78) 
adg

>  <m_score__min__energy>  (78) 
-8.4900000000000002

>  <m_primary>  (78) 
energy

$$$$
80:0
     RDKit          3D

 41 43  0  0  0  0  0  0  0  0999 V2000
  142.1390  153.2660  135.1320 C   0  0  0  0  0  0  0  0  0  0  0  0
  142.7170  154.3800  135.9430 C   0  0  0  0  0  0  0  0  0  0  0  0
  143.9670  154.4640  136.0720 O   0  0  0  0  0  0  0  0  0  0  0  0
  141.8660  155.3430  136.5870 N   0  0  0  0  0  0  0  0  0  0  0  0
  141.5270  155.4010  137.9060 C   0  0  0  0  0  0  0  0  0  0  0  0
  142.0800  154.5520  138.9830 C   0  0  0  0  0  0  0  0  0  0  0  0
  143.2390  153.7510  138.7650 N   0  0  0  0  0  0  0  0  0  0  0  0
  141.5410  154.5590  140.1220 O   0  0  0  0  0  0  0  0  0  0  0  0
  140.6130  156.4300  138.1280 C   0  0  0  0  0  0  0  0  0  0  0  0
  140.4020  157.0030  136.8960 C   0  0  0  0  0  0  0  0  0  0  0  0
  139.5690  158.0560  136.5300 C   0  0  0  0  0  0  0  0  0  0  0  0
  139.5190  158.4170  135.1730 C   0  0  0  0  0  0  0  0  0  0  0  0
  140.2900  157.7190  134.2060 C   0  0  0  0  0  0  0  0  0  0  0  0
  140.1990  158.1100  132.7360 C   0  0  1  0  0  0  0  0  0  0  0  0
  138.7870  157.7710  132.1780 C   0  0  0  0  0  0  0  0  0  0  0  0
  138.4290  158.6220  131.0480 N   0  0  0  0  0  0  0  0  0  0  0  0
  138.6180  160.0330  131.1500 C   0  0  0  0  0  0  0  0  0  0  0  0
  138.0570  160.8130  130.3350 O   0  0  0  0  0  0  0  0  0  0  0  0
  139.5020  160.5640  132.2330 C   0  0  0  0  0  0  0  0  0  0  0  0
  140.6720  159.5820  132.4340 C   0  0  1  0  0  0  0  0  0  0  0  0
  141.6880  160.1410  133.4430 C   0  0  0  0  0  0  0  0  0  0  0  0
  141.1220  156.6510  134.6230 C   0  0  0  0  0  0  0  0  0  0  0  0
  141.1660  156.3280  135.9820 C   0  0  0  0  0  0  0  0  0  0  0  0
  141.7380  152.4930  135.8041 H   0  0  0  0  0  0  0  0  0  0  0  0
  141.3296  153.6561  134.4975 H   0  0  0  0  0  0  0  0  0  0  0  0
  142.9240  152.8288  134.4975 H   0  0  0  0  0  0  0  0  0  0  0  0
  144.0440  154.1120  138.2080 H   0  0  0  0  0  0  0  0  0  0  0  0
  140.1573  156.7217  139.0857 H   0  0  0  0  0  0  0  0  0  0  0  0
  138.9677  158.5898  137.2806 H   0  0  0  0  0  0  0  0  0  0  0  0
  138.8749  159.2504  134.8558 H   0  0  0  0  0  0  0  0  0  0  0  0
  140.9279  157.4979  132.1846 H   0  0  0  0  0  0  0  0  0  0  0  0
  138.7772  156.7212  131.8496 H   0  0  0  0  0  0  0  0  0  0  0  0
  138.0537  157.9430  132.9797 H   0  0  0  0  0  0  0  0  0  0  0  0
  137.9710  158.2110  130.2040 H   0  0  0  0  0  0  0  0  0  0  0  0
  139.8916  161.5511  131.9435 H   0  0  0  0  0  0  0  0  0  0  0  0
  138.9320  160.6677  133.1680 H   0  0  0  0  0  0  0  0  0  0  0  0
  141.2045  159.4930  131.4756 H   0  0  0  0  0  0  0  0  0  0  0  0
  141.3339  159.9462  134.4661 H   0  0  0  0  0  0  0  0  0  0  0  0
  142.6615  159.6515  133.2925 H   0  0  0  0  0  0  0  0  0  0  0  0
  141.7956  161.2253  133.2925 H   0  0  0  0  0  0  0  0  0  0  0  0
  141.7210  156.0876  133.8923 H   0  0  0  0  0  0  0  0  0  0  0  0
  1  2  1  0
  2  3  2  0
  2  4  1  0
  4  5  1  0
  5  6  1  0
  6  7  1  0
  6  8  2  0
  5  9  2  0
  9 10  1  0
 10 11  2  0
 11 12  1  0
 12 13  2  0
 13 14  1  0
 14 15  1  0
 15 16  1  0
 16 17  1  0
 17 18  2  0
 17 19  1  0
 19 20  1  0
 20 21  1  0
 13 22  1  0
 22 23  2  0
 23  4  1  0
 23 10  1  0
 20 14  1  0
  1 24  1  0
  1 25  1  0
  1 26  1  0
  7 27  1  0
  9 28  1  0
 11 29  1  0
 12 30  1  0
 14 31  1  6
 15 32  1  0
 15 33  1  0
 16 34  1  0
 19 35  1  0
 19 36  1  0
 20 37  1  6
 21 38  1  0
 21 39  1  0
 21 40  1  0
 22 41  1  0
M  CHG  1   7  -1
M  END
>  <UniqueID>  (79) 
79

>  <SMILES>  (79) 
CC(=O)n1c(C([NH-])=O)cc2ccc([C@H]3CNC(=O)C[C@H]3C)cc21

>  <Energy>  (79) 
85.37811208049122

>  <Genealogy>  (79) 
CC(=O)n1c(C([NH-])=O)cc2ccc(C3CNC(=O)CC3C)cc21 (protonated)
CC(=O)n1c(C([NH-])=O)cc2ccc([C@H]3CNC(=O)C[C@H]3C)cc21 (chirality)
CC(=O)n1c(C([NH-])=O)cc2ccc([C@H]3CNC(=O)C[C@H]3C)cc21 (3D coordinates assigned)
CC(=O)n1c(C([NH-])=O)cc2ccc([C@H]3CNC(=O)C[C@H]3C)cc21 (nonaromatic ring conformer: 85.37811208049122 kcal/mol)

>  <smiles>  (79) 
CC(=O)n1c(C(N)=O)cc2ccc(C3CNC(=O)CC3C)cc21

>  <score_type>  (79) 
oracle

>  <origin>  (79) 
adg

>  <m_score__min__energy>  (79) 
-7.6799999999999997

>  <m_primary>  (79) 
energy

$$$$
81:0
     RDKit          3D

 34 35  0  0  0  0  0  0  0  0999 V2000
  149.6500  160.5190  129.2240 C   0  0  0  0  0  0  0  0  0  0  0  0
  148.7620  160.0390  130.3730 C   0  0  0  0  0  0  0  0  0  0  0  0
  149.4050  160.2650  131.7560 C   0  0  0  0  0  0  0  0  0  0  0  0
  149.2340  159.0760  132.7160 C   0  0  0  0  0  0  0  0  0  0  0  0
  147.7910  158.7940  133.0360 C   0  0  0  0  0  0  0  0  0  0  0  0
  147.2910  157.4690  132.9760 C   0  0  0  0  0  0  0  0  0  0  0  0
  145.9370  157.2020  133.2340 C   0  0  0  0  0  0  0  0  0  0  0  0
  145.1110  158.2750  133.5550 C   0  0  0  0  0  0  0  0  0  0  0  0
  143.7610  158.3030  133.8220 C   0  0  0  0  0  0  0  0  0  0  0  0
  143.4600  159.6410  134.0630 C   0  0  0  0  0  0  0  0  0  0  0  0
  142.1230  160.1130  134.4810 C   0  0  0  0  0  0  0  0  0  0  0  0
  141.3550  160.9340  133.6040 N   0  0  0  0  0  0  0  0  0  0  0  0
  141.6350  159.7670  135.5890 O   0  0  0  0  0  0  0  0  0  0  0  0
  144.5780  160.4130  133.9410 N   0  0  0  0  0  0  0  0  0  0  0  0
  144.6780  161.8430  134.0360 C   0  0  0  0  0  0  0  0  0  0  0  0
  143.7070  162.6750  133.4060 N   0  0  0  0  0  0  0  0  0  0  0  0
  145.6430  162.3710  134.6510 O   0  0  0  0  0  0  0  0  0  0  0  0
  145.5810  159.5600  133.6340 C   0  0  0  0  0  0  0  0  0  0  0  0
  146.9220  159.8580  133.3680 C   0  0  0  0  0  0  0  0  0  0  0  0
  150.5483  161.0046  129.6330 H   0  0  0  0  0  0  0  0  0  0  0  0
  149.9473  159.6587  128.6063 H   0  0  0  0  0  0  0  0  0  0  0  0
  149.0931  161.2389  128.6063 H   0  0  0  0  0  0  0  0  0  0  0  0
  147.8091  160.5872  130.3341 H   0  0  0  0  0  0  0  0  0  0  0  0
  148.6136  158.9562  130.2484 H   0  0  0  0  0  0  0  0  0  0  0  0
  150.4808  160.4454  131.6141 H   0  0  0  0  0  0  0  0  0  0  0  0
  148.8933  161.1248  132.2130 H   0  0  0  0  0  0  0  0  0  0  0  0
  149.6731  158.1813  132.2505 H   0  0  0  0  0  0  0  0  0  0  0  0
  149.7403  159.3328  133.6582 H   0  0  0  0  0  0  0  0  0  0  0  0
  147.9708  156.6415  132.7247 H   0  0  0  0  0  0  0  0  0  0  0  0
  145.5415  156.1768  133.1840 H   0  0  0  0  0  0  0  0  0  0  0  0
  143.0672  157.4496  133.8410 H   0  0  0  0  0  0  0  0  0  0  0  0
  141.8110  161.6760  133.0270 H   0  0  0  0  0  0  0  0  0  0  0  0
  142.6990  162.6170  133.6700 H   0  0  0  0  0  0  0  0  0  0  0  0
  147.2903  160.8934  133.4160 H   0  0  0  0  0  0  0  0  0  0  0  0
  1  2  1  0
  2  3  1  0
  3  4  1  0
  4  5  1  0
  5  6  2  0
  6  7  1  0
  7  8  2  0
  8  9  1  0
  9 10  2  0
 10 11  1  0
 11 12  1  0
 11 13  2  0
 10 14  1  0
 14 15  1  0
 15 16  1  0
 15 17  2  0
 14 18  1  0
 18 19  2  0
 19  5  1  0
 18  8  1  0
  1 20  1  0
  1 21  1  0
  1 22  1  0
  2 23  1  0
  2 24  1  0
  3 25  1  0
  3 26  1  0
  4 27  1  0
  4 28  1  0
  6 29  1  0
  7 30  1  0
  9 31  1  0
 12 32  1  0
 16 33  1  0
 19 34  1  0
M  CHG  2  12  -1  16  -1
M  END
>  <UniqueID>  (80) 
80

>  <SMILES>  (80) 
CCCCc1ccc2cc(C([NH-])=O)n(C([NH-])=O)c2c1

>  <Energy>  (80) 
67.87213812991439

>  <Genealogy>  (80) 
CCCCc1ccc2cc(C([NH-])=O)n(C([NH-])=O)c2c1 (protonated)
CCCCc1ccc2cc(C([NH-])=O)n(C([NH-])=O)c2c1 (3D coordinates assigned)
CCCCc1ccc2cc(C([NH-])=O)n(C([NH-])=O)c2c1 (optimized conformer: 67.87213812991439 kcal/mol)

>  <smiles>  (80) 
CCCCc1ccc2cc(C(N)=O)n(C(N)=O)c2c1

>  <score_type>  (80) 
oracle

>  <origin>  (80) 
adg

>  <m_score__min__energy>  (80) 
-7.1600000000000001

>  <m_primary>  (80) 
energy

$$$$
82:0
     RDKit          3D

 61 63  0  0  0  0  0  0  0  0999 V2000
  136.8260  160.1050  130.5580 C   0  0  0  0  0  0  0  0  0  0  0  0
  138.1910  160.3030  131.0230 N   0  0  0  0  0  0  0  0  0  0  0  0
  139.0450  159.2170  131.3980 C   0  0  0  0  0  0  0  0  0  0  0  0
  140.1640  159.0600  130.8340 O   0  0  0  0  0  0  0  0  0  0  0  0
  138.5890  158.2370  132.4340 C   0  0  0  0  0  0  0  0  0  0  0  0
  139.7080  157.8700  133.3240 N   0  0  0  0  0  0  0  0  0  0  0  0
  140.0680  156.4470  133.1810 C   0  0  0  0  0  0  0  0  0  0  0  0
  141.4080  156.1580  133.8860 C   0  0  0  0  0  0  0  0  0  0  0  0
  141.6890  157.1180  135.0710 C   0  0  0  0  0  0  0  0  0  0  0  0
  142.5500  158.3280  134.6240 C   0  0  0  0  0  0  0  0  0  0  0  0
  143.9040  157.9090  134.1120 C   0  0  0  0  0  0  0  0  0  0  0  0
  144.7170  158.8320  133.4040 C   0  0  0  0  0  0  0  0  0  0  0  0
  146.0020  158.4660  132.9700 C   0  0  0  0  0  0  0  0  0  0  0  0
  146.4420  157.1760  133.2470 C   0  0  0  0  0  0  0  0  0  0  0  0
  147.6470  156.5710  132.9690 C   0  0  0  0  0  0  0  0  0  0  0  0
  147.5420  155.2820  133.4880 C   0  0  0  0  0  0  0  0  0  0  0  0
  148.5900  154.2510  133.3300 C   0  0  0  0  0  0  0  0  0  0  0  0
  148.4650  152.9730  133.9470 N   0  0  0  0  0  0  0  0  0  0  0  0
  149.5900  154.4870  132.5980 O   0  0  0  0  0  0  0  0  0  0  0  0
  146.3240  155.1010  134.0720 N   0  0  0  0  0  0  0  0  0  0  0  0
  145.8430  153.9510  134.7810 C   0  0  0  0  0  0  0  0  0  0  0  0
  146.4450  153.5610  135.8180 O   0  0  0  0  0  0  0  0  0  0  0  0
  144.6970  153.2880  134.3160 O   0  0  0  0  0  0  0  0  0  0  0  0
  144.4470  152.8670  132.9680 C   0  0  0  0  0  0  0  0  0  0  0  0
  144.0290  154.0640  132.0910 C   0  0  0  0  0  0  0  0  0  0  0  0
  143.2910  151.8580  133.0140 C   0  0  0  0  0  0  0  0  0  0  0  0
  145.6910  152.1760  132.3820 C   0  0  0  0  0  0  0  0  0  0  0  0
  145.6620  156.2670  133.9130 C   0  0  0  0  0  0  0  0  0  0  0  0
  144.3860  156.6080  134.3750 C   0  0  0  0  0  0  0  0  0  0  0  0
  140.3600  157.5390  135.7330 C   0  0  0  0  0  0  0  0  0  0  0  0
  139.3800  158.1910  134.7320 C   0  0  0  0  0  0  0  0  0  0  0  0
  136.1543  160.0076  131.4236 H   0  0  0  0  0  0  0  0  0  0  0  0
  136.5172  160.9677  129.9495 H   0  0  0  0  0  0  0  0  0  0  0  0
  136.7750  159.1901  129.9495 H   0  0  0  0  0  0  0  0  0  0  0  0
  137.7842  158.6898  133.0317 H   0  0  0  0  0  0  0  0  0  0  0  0
  138.2221  157.3306  131.9303 H   0  0  0  0  0  0  0  0  0  0  0  0
  139.2798  155.8266  133.6325 H   0  0  0  0  0  0  0  0  0  0  0  0
  140.1693  156.2104  132.1115 H   0  0  0  0  0  0  0  0  0  0  0  0
  141.3879  155.1266  134.2677 H   0  0  0  0  0  0  0  0  0  0  0  0
  142.2079  156.3065  133.1456 H   0  0  0  0  0  0  0  0  0  0  0  0
  142.2829  156.5890  135.8309 H   0  0  0  0  0  0  0  0  0  0  0  0
  142.0191  158.8631  133.8229 H   0  0  0  0  0  0  0  0  0  0  0  0
  142.7069  158.9718  135.5020 H   0  0  0  0  0  0  0  0  0  0  0  0
  144.3377  159.8428  133.1933 H   0  0  0  0  0  0  0  0  0  0  0  0
  146.6410  159.1783  132.4274 H   0  0  0  0  0  0  0  0  0  0  0  0
  148.5097  157.0116  132.4478 H   0  0  0  0  0  0  0  0  0  0  0  0
  147.5260  152.5850  134.1940 H   0  0  0  0  0  0  0  0  0  0  0  0
  143.7351  154.9057  132.7353 H   0  0  0  0  0  0  0  0  0  0  0  0
  144.8748  154.3663  131.4560 H   0  0  0  0  0  0  0  0  0  0  0  0
  143.1789  153.7741  131.4560 H   0  0  0  0  0  0  0  0  0  0  0  0
  143.0383  151.6374  134.0616 H   0  0  0  0  0  0  0  0  0  0  0  0
  142.4126  152.2834  132.5067 H   0  0  0  0  0  0  0  0  0  0  0  0
  143.5938  150.9301  132.5067 H   0  0  0  0  0  0  0  0  0  0  0  0
  146.3326  151.8196  133.2014 H   0  0  0  0  0  0  0  0  0  0  0  0
  145.3786  151.3221  131.7629 H   0  0  0  0  0  0  0  0  0  0  0  0
  146.2509  152.8924  131.7629 H   0  0  0  0  0  0  0  0  0  0  0  0
  143.7739  155.8811  134.9290 H   0  0  0  0  0  0  0  0  0  0  0  0
  139.8824  156.6466  136.1637 H   0  0  0  0  0  0  0  0  0  0  0  0
  140.5939  158.2859  136.5060 H   0  0  0  0  0  0  0  0  0  0  0  0
  138.3635  157.8303  134.9481 H   0  0  0  0  0  0  0  0  0  0  0  0
  139.4571  159.2817  134.8521 H   0  0  0  0  0  0  0  0  0  0  0  0
  1  2  1  0
  2  3  1  0
  3  4  2  0
  3  5  1  0
  5  6  1  0
  6  7  1  0
  7  8  1  0
  8  9  1  0
  9 10  1  0
 10 11  1  0
 11 12  2  0
 12 13  1  0
 13 14  2  0
 14 15  1  0
 15 16  2  0
 16 17  1  0
 17 18  1  0
 17 19  2  0
 16 20  1  0
 20 21  1  0
 21 22  2  0
 21 23  1  0
 23 24  1  0
 24 25  1  0
 24 26  1  0
 24 27  1  0
 20 28  1  0
 28 29  2  0
  9 30  1  0
 30 31  1  0
 31  6  1  0
 29 11  1  0
 28 14  1  0
  1 32  1  0
  1 33  1  0
  1 34  1  0
  5 35  1  0
  5 36  1  0
  7 37  1  0
  7 38  1  0
  8 39  1  0
  8 40  1  0
  9 41  1  0
 10 42  1  0
 10 43  1  0
 12 44  1  0
 13 45  1  0
 15 46  1  0
 18 47  1  0
 25 48  1  0
 25 49  1  0
 25 50  1  0
 26 51  1  0
 26 52  1  0
 26 53  1  0
 27 54  1  0
 27 55  1  0
 27 56  1  0
 29 57  1  0
 30 58  1  0
 30 59  1  0
 31 60  1  0
 31 61  1  0
M  CHG  2   2  -1  18  -1
M  END
>  <UniqueID>  (81) 
81

>  <SMILES>  (81) 
C[N-]C(=O)CN1CCC(Cc2ccc3cc(C([NH-])=O)n(C(=O)OC(C)(C)C)c3c2)CC1

>  <Energy>  (81) 
96.87003540316898

>  <Genealogy>  (81) 
C[N-]C(=O)CN1CCC(Cc2ccc3cc(C([NH-])=O)n(C(=O)OC(C)(C)C)c3c2)CC1 (protonated)
C[N-]C(=O)CN1CCC(Cc2ccc3cc(C([NH-])=O)n(C(=O)OC(C)(C)C)c3c2)CC1 (3D coordinates assigned)
C[N-]C(=O)CN1CCC(Cc2ccc3cc(C([NH-])=O)n(C(=O)OC(C)(C)C)c3c2)CC1 (nonaromatic ring conformer: 96.87003540316898 kcal/mol)

>  <smiles>  (81) 
CNC(=O)CN1CCC(Cc2ccc3cc(C(N)=O)n(C(=O)OC(C)(C)C)c3c2)CC1

>  <score_type>  (81) 
oracle

>  <origin>  (81) 
adg

>  <m_score__min__energy>  (81) 
-8.7799999999999994

>  <m_primary>  (81) 
energy

$$$$
83:0
     RDKit          3D

 40 42  0  0  0  0  0  0  0  0999 V2000
  149.2470  159.0830  131.0050 C   0  0  0  0  0  0  0  0  0  0  0  0
  148.8050  160.5390  131.1040 C   0  0  0  0  0  0  0  0  0  0  0  0
  148.0790  160.7620  132.3100 O   0  0  0  0  0  0  0  0  0  0  0  0
  147.8890  159.7800  133.2890 C   0  0  0  0  0  0  0  0  0  0  0  0
  148.8260  159.4750  134.0780 O   0  0  0  0  0  0  0  0  0  0  0  0
  146.6110  159.1370  133.4140 N   0  0  0  0  0  0  0  0  0  0  0  0
  145.3900  159.7240  133.5630 C   0  0  0  0  0  0  0  0  0  0  0  0
  145.1380  161.1640  133.7880 C   0  0  0  0  0  0  0  0  0  0  0  0
  146.2050  162.0540  134.1020 N   0  0  0  0  0  0  0  0  0  0  0  0
  143.9590  161.6030  133.7500 O   0  0  0  0  0  0  0  0  0  0  0  0
  144.3820  158.7620  133.5580 C   0  0  0  0  0  0  0  0  0  0  0  0
  145.0300  157.5570  133.4120 C   0  0  0  0  0  0  0  0  0  0  0  0
  144.5130  156.2670  133.3370 C   0  0  0  0  0  0  0  0  0  0  0  0
  145.4150  155.2060  133.1580 C   0  0  0  0  0  0  0  0  0  0  0  0
  146.8100  155.4460  133.0490 C   0  0  0  0  0  0  0  0  0  0  0  0
  147.7530  154.3160  132.8470 C   0  0  0  0  0  0  0  0  0  0  0  0
  147.3250  152.9850  132.9480 C   0  0  0  0  0  0  0  0  0  0  0  0
  148.2040  151.9690  132.7580 N   0  0  0  0  0  0  0  0  0  0  0  0
  149.5070  152.2120  132.4620 C   0  0  0  0  0  0  0  0  0  0  0  0
  150.4540  151.0690  132.2750 C   0  0  0  0  0  0  0  0  0  0  0  0
  149.9520  153.4950  132.3650 N   0  0  0  0  0  0  0  0  0  0  0  0
  149.1060  154.5430  132.5490 C   0  0  0  0  0  0  0  0  0  0  0  0
  147.2940  156.7740  133.1290 C   0  0  0  0  0  0  0  0  0  0  0  0
  146.3740  157.8100  133.3260 C   0  0  0  0  0  0  0  0  0  0  0  0
  149.3728  158.6685  132.0161 H   0  0  0  0  0  0  0  0  0  0  0  0
  148.4841  158.5042  130.4637 H   0  0  0  0  0  0  0  0  0  0  0  0
  150.2029  159.0260  130.4637 H   0  0  0  0  0  0  0  0  0  0  0  0
  149.6930  161.1880  131.0914 H   0  0  0  0  0  0  0  0  0  0  0  0
  148.1524  160.7704  130.2493 H   0  0  0  0  0  0  0  0  0  0  0  0
  146.9540  162.2630  133.4050 H   0  0  0  0  0  0  0  0  0  0  0  0
  143.2989  158.9301  133.6510 H   0  0  0  0  0  0  0  0  0  0  0  0
  143.4311  156.0843  133.4155 H   0  0  0  0  0  0  0  0  0  0  0  0
  145.0357  154.1750  133.1015 H   0  0  0  0  0  0  0  0  0  0  0  0
  146.2732  152.7635  133.1820 H   0  0  0  0  0  0  0  0  0  0  0  0
  150.7688  150.6890  133.2581 H   0  0  0  0  0  0  0  0  0  0  0  0
  149.9531  150.2658  131.7147 H   0  0  0  0  0  0  0  0  0  0  0  0
  151.3363  151.4118  131.7147 H   0  0  0  0  0  0  0  0  0  0  0  0
  150.9550  153.6860  132.1430 H   0  0  0  0  0  0  0  0  0  0  0  0
  149.4830  155.5729  132.4641 H   0  0  0  0  0  0  0  0  0  0  0  0
  148.3694  156.9868  133.0383 H   0  0  0  0  0  0  0  0  0  0  0  0
  1  2  1  0
  2  3  1  0
  3  4  1  0
  4  5  2  0
  4  6  1  0
  6  7  1  0
  7  8  1  0
  8  9  1  0
  8 10  2  0
  7 11  2  0
 11 12  1  0
 12 13  2  0
 13 14  1  0
 14 15  2  0
 15 16  1  0
 16 17  2  0
 17 18  1  0
 18 19  2  0
 19 20  1  0
 19 21  1  0
 21 22  2  0
 15 23  1  0
 23 24  2  0
 24  6  1  0
 24 12  1  0
 22 16  1  0
  1 25  1  0
  1 26  1  0
  1 27  1  0
  2 28  1  0
  2 29  1  0
  9 30  1  0
 11 31  1  0
 13 32  1  0
 14 33  1  0
 17 34  1  0
 20 35  1  0
 20 36  1  0
 20 37  1  0
 21 38  1  0
 22 39  1  0
 23 40  1  0
M  CHG  2   9  -1  21   1
M  END
>  <UniqueID>  (82) 
82

>  <SMILES>  (82) 
CCOC(=O)n1c(C([NH-])=O)cc2ccc(-c3cnc(C)[nH+]c3)cc21

>  <Energy>  (82) 
81.807828916387

>  <Genealogy>  (82) 
CCOC(=O)n1c(C([NH-])=O)cc2ccc(-c3cnc(C)[nH+]c3)cc21 (protonated)
CCOC(=O)n1c(C([NH-])=O)cc2ccc(-c3cnc(C)[nH+]c3)cc21 (3D coordinates assigned)
CCOC(=O)n1c(C([NH-])=O)cc2ccc(-c3cnc(C)[nH+]c3)cc21 (optimized conformer: 81.807828916387 kcal/mol)

>  <smiles>  (82) 
CCOC(=O)n1c(C(N)=O)cc2ccc(-c3cnc(C)nc3)cc21

>  <score_type>  (82) 
oracle

>  <origin>  (82) 
adg

>  <m_score__min__energy>  (82) 
-7.5

>  <m_primary>  (82) 
energy

$$$$
84:0
     RDKit          3D

 33 34  0  0  0  0  0  0  0  0999 V2000
  141.1350  159.7090  135.6400 C   0  0  0  0  0  0  0  0  0  0  0  0
  141.7390  158.5550  134.8490 C   0  0  0  0  0  0  0  0  0  0  0  0
  143.1570  158.6800  134.7800 O   0  0  0  0  0  0  0  0  0  0  0  0
  143.8900  158.5060  133.6010 C   0  0  0  0  0  0  0  0  0  0  0  0
  143.3980  157.8660  132.6310 O   0  0  0  0  0  0  0  0  0  0  0  0
  145.2210  159.0360  133.5050 N   0  0  0  0  0  0  0  0  0  0  0  0
  145.6140  160.3380  133.6030 C   0  0  0  0  0  0  0  0  0  0  0  0
  144.7560  161.4770  133.9920 C   0  0  0  0  0  0  0  0  0  0  0  0
  143.3560  161.4640  133.7320 N   0  0  0  0  0  0  0  0  0  0  0  0
  145.2600  162.4550  134.6070 O   0  0  0  0  0  0  0  0  0  0  0  0
  146.9810  160.4540  133.3670 C   0  0  0  0  0  0  0  0  0  0  0  0
  147.4210  159.1730  133.1290 C   0  0  0  0  0  0  0  0  0  0  0  0
  148.6950  158.7050  132.8270 C   0  0  0  0  0  0  0  0  0  0  0  0
  148.8560  157.3280  132.6010 C   0  0  0  0  0  0  0  0  0  0  0  0
  147.7500  156.4460  132.6690 C   0  0  0  0  0  0  0  0  0  0  0  0
  147.9560  155.0430  132.4190 N   0  0  0  0  0  0  0  0  0  0  0  0
  148.4270  154.1040  133.4320 C   0  0  0  0  0  0  0  0  0  0  0  0
  146.4660  156.9620  132.9780 C   0  0  0  0  0  0  0  0  0  0  0  0
  146.3400  158.3340  133.2160 C   0  0  0  0  0  0  0  0  0  0  0  0
  141.2393  159.5097  136.7168 H   0  0  0  0  0  0  0  0  0  0  0  0
  141.6606  160.6416  135.3871 H   0  0  0  0  0  0  0  0  0  0  0  0
  140.0691  159.8087  135.3871 H   0  0  0  0  0  0  0  0  0  0  0  0
  141.4837  157.6058  135.3429 H   0  0  0  0  0  0  0  0  0  0  0  0
  141.3318  158.5748  133.8273 H   0  0  0  0  0  0  0  0  0  0  0  0
  142.8100  160.5740  133.7640 H   0  0  0  0  0  0  0  0  0  0  0  0
  147.5820  161.3753  133.3702 H   0  0  0  0  0  0  0  0  0  0  0  0
  149.5514  159.3927  132.7668 H   0  0  0  0  0  0  0  0  0  0  0  0
  149.8544  156.9294  132.3681 H   0  0  0  0  0  0  0  0  0  0  0  0
  147.7650  154.6680  131.4630 H   0  0  0  0  0  0  0  0  0  0  0  0
  148.2226  154.5116  134.4331 H   0  0  0  0  0  0  0  0  0  0  0  0
  147.9039  153.1436  133.3133 H   0  0  0  0  0  0  0  0  0  0  0  0
  149.5095  153.9490  133.3133 H   0  0  0  0  0  0  0  0  0  0  0  0
  145.5899  156.2988  133.0292 H   0  0  0  0  0  0  0  0  0  0  0  0
  1  2  1  0
  2  3  1  0
  3  4  1  0
  4  5  2  0
  4  6  1  0
  6  7  1  0
  7  8  1  0
  8  9  1  0
  8 10  2  0
  7 11  2  0
 11 12  1  0
 12 13  2  0
 13 14  1  0
 14 15  2  0
 15 16  1  0
 16 17  1  0
 15 18  1  0
 18 19  2  0
 19  6  1  0
 19 12  1  0
  1 20  1  0
  1 21  1  0
  1 22  1  0
  2 23  1  0
  2 24  1  0
  9 25  1  0
 11 26  1  0
 13 27  1  0
 14 28  1  0
 16 29  1  0
 17 30  1  0
 17 31  1  0
 17 32  1  0
 18 33  1  0
M  CHG  1   9  -1
M  END
>  <UniqueID>  (83) 
83

>  <SMILES>  (83) 
CCOC(=O)n1c(C([NH-])=O)cc2ccc(NC)cc21

>  <Energy>  (83) 
66.90548253212471

>  <Genealogy>  (83) 
CCOC(=O)n1c(C([NH-])=O)cc2ccc(NC)cc21 (protonated)
CCOC(=O)n1c(C([NH-])=O)cc2ccc(NC)cc21 (3D coordinates assigned)
CCOC(=O)n1c(C([NH-])=O)cc2ccc(NC)cc21 (optimized conformer: 66.90548253212471 kcal/mol)

>  <smiles>  (83) 
CCOC(=O)n1c(C(N)=O)cc2ccc(NC)cc21

>  <score_type>  (83) 
oracle

>  <origin>  (83) 
adg

>  <m_score__min__energy>  (83) 
-5.9500000000000002

>  <m_primary>  (83) 
energy

$$$$
85:0
     RDKit          3D

 48 50  0  0  0  0  0  0  0  0999 V2000
  140.7480  156.8360  133.3180 C   0  0  0  0  0  0  0  0  0  0  0  0
  141.2660  158.2860  133.2860 C   0  0  0  0  0  0  0  0  0  0  0  0
  140.5280  159.0530  132.1810 C   0  0  0  0  0  0  0  0  0  0  0  0
  141.0130  158.9850  134.6350 C   0  0  0  0  0  0  0  0  0  0  0  0
  142.6620  158.3110  132.9560 O   0  0  0  0  0  0  0  0  0  0  0  0
  143.7320  158.1480  133.8480 C   0  0  0  0  0  0  0  0  0  0  0  0
  143.6170  157.4300  134.8780 O   0  0  0  0  0  0  0  0  0  0  0  0
  144.9850  158.7870  133.5640 N   0  0  0  0  0  0  0  0  0  0  0  0
  145.2750  160.1190  133.5880 C   0  0  0  0  0  0  0  0  0  0  0  0
  144.3020  161.2180  133.7570 C   0  0  0  0  0  0  0  0  0  0  0  0
  142.9330  161.0490  133.4000 N   0  0  0  0  0  0  0  0  0  0  0  0
  144.6930  162.3390  134.1800 O   0  0  0  0  0  0  0  0  0  0  0  0
  146.6310  160.3260  133.3420 C   0  0  0  0  0  0  0  0  0  0  0  0
  147.1650  159.0710  133.1560 C   0  0  0  0  0  0  0  0  0  0  0  0
  148.4750  158.6830  132.8910 C   0  0  0  0  0  0  0  0  0  0  0  0
  148.7460  157.3100  132.7750 C   0  0  0  0  0  0  0  0  0  0  0  0
  147.7110  156.3510  132.9300 C   0  0  0  0  0  0  0  0  0  0  0  0
  148.0080  154.9020  132.8260 C   0  0  0  0  0  0  0  0  0  0  0  0
  149.3260  154.4720  132.5950 C   0  0  0  0  0  0  0  0  0  0  0  0
  149.6200  153.1100  132.4970 C   0  0  0  0  0  0  0  0  0  0  0  0
  148.6020  152.1550  132.6230 C   0  0  0  0  0  0  0  0  0  0  0  0
  148.9300  150.6880  132.5530 C   0  0  0  0  0  0  0  0  0  0  0  0
  149.2990  150.2140  133.8180 O   0  0  0  0  0  0  0  0  0  0  0  0
  147.2880  152.5780  132.8730 C   0  0  0  0  0  0  0  0  0  0  0  0
  146.9890  153.9400  132.9690 C   0  0  0  0  0  0  0  0  0  0  0  0
  145.7140  154.3150  133.2420 F   0  0  0  0  0  0  0  0  0  0  0  0
  146.3950  156.7850  133.2050 C   0  0  0  0  0  0  0  0  0  0  0  0
  146.1510  158.1600  133.2960 C   0  0  0  0  0  0  0  0  0  0  0  0
  140.6319  156.5111  134.3625 H   0  0  0  0  0  0  0  0  0  0  0  0
  139.7753  156.7828  132.8072 H   0  0  0  0  0  0  0  0  0  0  0  0
  141.4668  156.1785  132.8072 H   0  0  0  0  0  0  0  0  0  0  0  0
  139.8337  159.7745  132.6364 H   0  0  0  0  0  0  0  0  0  0  0  0
  141.2578  159.5899  131.5572 H   0  0  0  0  0  0  0  0  0  0  0  0
  139.9634  158.3444  131.5572 H   0  0  0  0  0  0  0  0  0  0  0  0
  141.2619  158.2973  135.4567 H   0  0  0  0  0  0  0  0  0  0  0  0
  141.6427  159.8841  134.7059 H   0  0  0  0  0  0  0  0  0  0  0  0
  139.9537  159.2728  134.7059 H   0  0  0  0  0  0  0  0  0  0  0  0
  142.6580  160.4320  132.6040 H   0  0  0  0  0  0  0  0  0  0  0  0
  147.1622  161.2885  133.3044 H   0  0  0  0  0  0  0  0  0  0  0  0
  149.2745  159.4297  132.7758 H   0  0  0  0  0  0  0  0  0  0  0  0
  149.7715  156.9740  132.5617 H   0  0  0  0  0  0  0  0  0  0  0  0
  150.1319  155.2134  132.4906 H   0  0  0  0  0  0  0  0  0  0  0  0
  150.6560  152.7853  132.3200 H   0  0  0  0  0  0  0  0  0  0  0  0
  148.0469  150.1346  132.2010 H   0  0  0  0  0  0  0  0  0  0  0  0
  149.7681  150.5405  131.8559 H   0  0  0  0  0  0  0  0  0  0  0  0
  148.4680  150.1610  134.3560 H   0  0  0  0  0  0  0  0  0  0  0  0
  146.4878  151.8330  132.9943 H   0  0  0  0  0  0  0  0  0  0  0  0
  145.5807  156.0587  133.3444 H   0  0  0  0  0  0  0  0  0  0  0  0
  1  2  1  0
  2  3  1  0
  2  4  1  0
  2  5  1  0
  5  6  1  0
  6  7  2  0
  6  8  1  0
  8  9  1  0
  9 10  1  0
 10 11  1  0
 10 12  2  0
  9 13  2  0
 13 14  1  0
 14 15  2  0
 15 16  1  0
 16 17  2  0
 17 18  1  0
 18 19  2  0
 19 20  1  0
 20 21  2  0
 21 22  1  0
 22 23  1  0
 21 24  1  0
 24 25  2  0
 25 26  1  0
 17 27  1  0
 27 28  2  0
 28  8  1  0
 28 14  1  0
 25 18  1  0
  1 29  1  0
  1 30  1  0
  1 31  1  0
  3 32  1  0
  3 33  1  0
  3 34  1  0
  4 35  1  0
  4 36  1  0
  4 37  1  0
 11 38  1  0
 13 39  1  0
 15 40  1  0
 16 41  1  0
 19 42  1  0
 20 43  1  0
 22 44  1  0
 22 45  1  0
 23 46  1  0
 24 47  1  0
 27 48  1  0
M  CHG  1  11  -1
M  END
>  <UniqueID>  (84) 
84

>  <SMILES>  (84) 
CC(C)(C)OC(=O)n1c(C([NH-])=O)cc2ccc(-c3ccc(CO)cc3F)cc21

>  <Energy>  (84) 
89.75439567770572

>  <Genealogy>  (84) 
CC(C)(C)OC(=O)n1c(C([NH-])=O)cc2ccc(-c3ccc(CO)cc3F)cc21 (protonated)
CC(C)(C)OC(=O)n1c(C([NH-])=O)cc2ccc(-c3ccc(CO)cc3F)cc21 (3D coordinates assigned)
CC(C)(C)OC(=O)n1c(C([NH-])=O)cc2ccc(-c3ccc(CO)cc3F)cc21 (optimized conformer: 89.75439567770572 kcal/mol)

>  <smiles>  (84) 
CC(C)(C)OC(=O)n1c(C(N)=O)cc2ccc(-c3ccc(CO)cc3F)cc21

>  <score_type>  (84) 
oracle

>  <origin>  (84) 
adg

>  <m_score__min__energy>  (84) 
-8.6199999999999992

>  <m_primary>  (84) 
energy

$$$$
86:0
     RDKit          3D

 45 47  0  0  0  0  0  0  0  0999 V2000
  146.6010  155.7990  132.1940 N   0  0  0  0  0  0  0  0  0  0  0  0
  146.6740  156.6260  133.3540 C   0  0  0  0  0  0  0  0  0  0  0  0
  146.9450  156.1050  134.4700 O   0  0  0  0  0  0  0  0  0  0  0  0
  146.4550  158.0430  133.2490 N   0  0  0  0  0  0  0  0  0  0  0  0
  147.3640  159.0010  132.9120 C   0  0  0  0  0  0  0  0  0  0  0  0
  148.7310  158.7580  132.4100 C   0  0  0  0  0  0  0  0  0  0  0  0
  149.1080  157.4870  131.8790 N   0  0  0  0  0  0  0  0  0  0  0  0
  149.5620  159.7050  132.3950 O   0  0  0  0  0  0  0  0  0  0  0  0
  146.8140  160.2720  133.0460 C   0  0  0  0  0  0  0  0  0  0  0  0
  145.5200  160.0650  133.4660 C   0  0  0  0  0  0  0  0  0  0  0  0
  144.5170  160.9850  133.7600 C   0  0  0  0  0  0  0  0  0  0  0  0
  143.2790  160.4910  134.2030 C   0  0  0  0  0  0  0  0  0  0  0  0
  143.0730  159.0980  134.3600 C   0  0  0  0  0  0  0  0  0  0  0  0
  141.7340  158.5770  134.8080 C   0  0  0  0  0  0  0  0  0  0  0  0
  140.9120  158.1050  133.6010 C   0  0  0  0  0  0  0  0  0  0  0  0
  140.0130  159.2160  133.0170 C   0  0  0  0  0  0  0  0  0  0  0  0
  139.3480  158.8640  131.7430 N   0  0  0  0  0  0  0  0  0  0  0  0
  139.8710  159.5020  130.5220 C   0  0  0  0  0  0  0  0  0  0  0  0
  138.9550  160.6280  130.0360 C   0  0  0  0  0  0  0  0  0  0  0  0
  137.6410  160.1450  129.8640 O   0  0  0  0  0  0  0  0  0  0  0  0
  137.1000  159.8110  131.1230 C   0  0  0  0  0  0  0  0  0  0  0  0
  137.8840  158.6660  131.7900 C   0  0  0  0  0  0  0  0  0  0  0  0
  144.1110  158.1930  134.0430 C   0  0  0  0  0  0  0  0  0  0  0  0
  145.3280  158.7120  133.5830 C   0  0  0  0  0  0  0  0  0  0  0  0
  146.3450  156.2000  131.2650 H   0  0  0  0  0  0  0  0  0  0  0  0
  150.0900  157.3220  131.5620 H   0  0  0  0  0  0  0  0  0  0  0  0
  148.4010  156.7350  131.7250 H   0  0  0  0  0  0  0  0  0  0  0  0
  147.3080  161.2364  132.8566 H   0  0  0  0  0  0  0  0  0  0  0  0
  144.6889  162.0658  133.6487 H   0  0  0  0  0  0  0  0  0  0  0  0
  142.4621  161.1918  134.4301 H   0  0  0  0  0  0  0  0  0  0  0  0
  141.8856  157.7321  135.4959 H   0  0  0  0  0  0  0  0  0  0  0  0
  141.1887  159.3857  135.3166 H   0  0  0  0  0  0  0  0  0  0  0  0
  141.6037  157.7642  132.8165 H   0  0  0  0  0  0  0  0  0  0  0  0
  140.2538  157.2939  133.9458 H   0  0  0  0  0  0  0  0  0  0  0  0
  139.2340  159.4515  133.7571 H   0  0  0  0  0  0  0  0  0  0  0  0
  140.6729  160.0687  132.7991 H   0  0  0  0  0  0  0  0  0  0  0  0
  140.8662  159.9190  130.7357 H   0  0  0  0  0  0  0  0  0  0  0  0
  139.9254  158.7385  129.7320 H   0  0  0  0  0  0  0  0  0  0  0  0
  138.9500  161.4390  130.7791 H   0  0  0  0  0  0  0  0  0  0  0  0
  139.3286  161.0049  129.0725 H   0  0  0  0  0  0  0  0  0  0  0  0
  137.1379  160.6966  131.7743 H   0  0  0  0  0  0  0  0  0  0  0  0
  136.0624  159.4773  130.9745 H   0  0  0  0  0  0  0  0  0  0  0  0
  137.5735  158.5955  132.8429 H   0  0  0  0  0  0  0  0  0  0  0  0
  137.6587  157.7448  131.2327 H   0  0  0  0  0  0  0  0  0  0  0  0
  143.9669  157.1082  134.1547 H   0  0  0  0  0  0  0  0  0  0  0  0
  1  2  1  0
  2  3  2  0
  2  4  1  0
  4  5  1  0
  5  6  1  0
  6  7  1  0
  6  8  2  0
  5  9  2  0
  9 10  1  0
 10 11  2  0
 11 12  1  0
 12 13  2  0
 13 14  1  0
 14 15  1  0
 15 16  1  0
 16 17  1  0
 17 18  1  0
 18 19  1  0
 19 20  1  0
 20 21  1  0
 21 22  1  0
 13 23  1  0
 23 24  2  0
 24  4  1  0
 24 10  1  0
 22 17  1  0
  1 25  1  0
  7 26  1  0
  7 27  1  0
  9 28  1  0
 11 29  1  0
 12 30  1  0
 14 31  1  0
 14 32  1  0
 15 33  1  0
 15 34  1  0
 16 35  1  0
 16 36  1  0
 18 37  1  0
 18 38  1  0
 19 39  1  0
 19 40  1  0
 21 41  1  0
 21 42  1  0
 22 43  1  0
 22 44  1  0
 23 45  1  0
M  CHG  1   1  -1
M  END
>  <UniqueID>  (85) 
85

>  <SMILES>  (85) 
[NH-]C(=O)n1c(C(N)=O)cc2ccc(CCCN3CCOCC3)cc21

>  <Energy>  (85) 
95.3547751536324

>  <Genealogy>  (85) 
[NH-]C(=O)n1c(C(N)=O)cc2ccc(CCCN3CCOCC3)cc21 (protonated)
[NH-]C(=O)n1c(C(N)=O)cc2ccc(CCCN3CCOCC3)cc21 (3D coordinates assigned)
[NH-]C(=O)n1c(C(N)=O)cc2ccc(CCCN3CCOCC3)cc21 (nonaromatic ring conformer: 95.3547751536324 kcal/mol)

>  <smiles>  (85) 
NC(=O)c1cc2ccc(CCCN3CCOCC3)cc2n1C(N)=O

>  <score_type>  (85) 
oracle

>  <origin>  (85) 
adg

>  <m_score__min__energy>  (85) 
-8.1600000000000001

>  <m_primary>  (85) 
energy

$$$$
87:0
     RDKit          3D

 48 50  0  0  0  0  0  0  0  0999 V2000
  146.0730  154.5820  133.8090 C   0  0  0  0  0  0  0  0  0  0  0  0
  147.5400  154.8570  134.1940 C   0  0  0  0  0  0  0  0  0  0  0  0
  147.7200  154.7960  135.7230 C   0  0  0  0  0  0  0  0  0  0  0  0
  148.4320  153.7870  133.5460 C   0  0  0  0  0  0  0  0  0  0  0  0
  147.9660  156.1290  133.6840 O   0  0  0  0  0  0  0  0  0  0  0  0
  147.3400  156.8740  132.6740 C   0  0  0  0  0  0  0  0  0  0  0  0
  147.1050  156.3640  131.5450 O   0  0  0  0  0  0  0  0  0  0  0  0
  146.9720  158.2390  132.9300 N   0  0  0  0  0  0  0  0  0  0  0  0
  147.7150  159.3550  132.6880 C   0  0  0  0  0  0  0  0  0  0  0  0
  149.1300  159.3670  132.2540 C   0  0  0  0  0  0  0  0  0  0  0  0
  149.9670  158.2280  132.4630 N   0  0  0  0  0  0  0  0  0  0  0  0
  149.6020  160.3740  131.6650 O   0  0  0  0  0  0  0  0  0  0  0  0
  146.9880  160.5030  132.9970 C   0  0  0  0  0  0  0  0  0  0  0  0
  145.7660  160.0520  133.4410 C   0  0  0  0  0  0  0  0  0  0  0  0
  144.6540  160.7660  133.8780 C   0  0  0  0  0  0  0  0  0  0  0  0
  143.5150  160.0400  134.2610 C   0  0  0  0  0  0  0  0  0  0  0  0
  143.5010  158.6250  134.1840 C   0  0  0  0  0  0  0  0  0  0  0  0
  142.2850  157.8560  134.6240 C   0  0  0  0  0  0  0  0  0  0  0  0
  141.1080  158.2080  133.7540 C   0  0  0  0  0  0  0  0  0  0  0  0
  139.8040  157.8880  134.1650 C   0  0  0  0  0  0  0  0  0  0  0  0
  138.7080  158.2490  133.3750 C   0  0  0  0  0  0  0  0  0  0  0  0
  138.9060  158.9410  132.1760 C   0  0  0  0  0  0  0  0  0  0  0  0
  137.4070  159.4380  131.1000 Br  0  0  0  0  0  0  0  0  0  0  0  0
  140.2010  159.2750  131.7680 C   0  0  0  0  0  0  0  0  0  0  0  0
  141.2990  158.9140  132.5550 C   0  0  0  0  0  0  0  0  0  0  0  0
  144.6510  157.9340  133.7460 C   0  0  0  0  0  0  0  0  0  0  0  0
  145.7800  158.6820  133.3900 C   0  0  0  0  0  0  0  0  0  0  0  0
  145.4694  154.4689  134.7216 H   0  0  0  0  0  0  0  0  0  0  0  0
  145.6859  155.4232  133.2153 H   0  0  0  0  0  0  0  0  0  0  0  0
  146.0168  153.6577  133.2153 H   0  0  0  0  0  0  0  0  0  0  0  0
  146.7881  155.1117  136.2148 H   0  0  0  0  0  0  0  0  0  0  0  0
  147.9620  153.7657  136.0229 H   0  0  0  0  0  0  0  0  0  0  0  0
  148.5384  155.4670  136.0229 H   0  0  0  0  0  0  0  0  0  0  0  0
  148.9250  153.1957  134.3317 H   0  0  0  0  0  0  0  0  0  0  0  0
  147.8150  153.1245  132.9212 H   0  0  0  0  0  0  0  0  0  0  0  0
  149.1947  154.2747  132.9212 H   0  0  0  0  0  0  0  0  0  0  0  0
  150.9520  158.2320  132.1190 H   0  0  0  0  0  0  0  0  0  0  0  0
  149.6270  157.3950  132.9920 H   0  0  0  0  0  0  0  0  0  0  0  0
  147.3203  161.5476  132.9055 H   0  0  0  0  0  0  0  0  0  0  0  0
  144.6672  161.8650  133.9219 H   0  0  0  0  0  0  0  0  0  0  0  0
  142.6249  160.5746  134.6243 H   0  0  0  0  0  0  0  0  0  0  0  0
  142.4875  156.7778  134.5435 H   0  0  0  0  0  0  0  0  0  0  0  0
  142.0524  158.1161  135.6672 H   0  0  0  0  0  0  0  0  0  0  0  0
  139.6440  157.3514  135.1118 H   0  0  0  0  0  0  0  0  0  0  0  0
  137.6890  157.9883  133.6971 H   0  0  0  0  0  0  0  0  0  0  0  0
  140.3563  159.8225  130.8266 H   0  0  0  0  0  0  0  0  0  0  0  0
  142.3159  159.1839  132.2339 H   0  0  0  0  0  0  0  0  0  0  0  0
  144.6602  156.8357  133.6858 H   0  0  0  0  0  0  0  0  0  0  0  0
  1  2  1  0
  2  3  1  0
  2  4  1  0
  2  5  1  0
  5  6  1  0
  6  7  2  0
  6  8  1  0
  8  9  1  0
  9 10  1  0
 10 11  1  0
 10 12  2  0
  9 13  2  0
 13 14  1  0
 14 15  2  0
 15 16  1  0
 16 17  2  0
 17 18  1  0
 18 19  1  0
 19 20  2  0
 20 21  1  0
 21 22  2  0
 22 23  1  0
 22 24  1  0
 24 25  2  0
 17 26  1  0
 26 27  2  0
 27  8  1  0
 27 14  1  0
 25 19  1  0
  1 28  1  0
  1 29  1  0
  1 30  1  0
  3 31  1  0
  3 32  1  0
  3 33  1  0
  4 34  1  0
  4 35  1  0
  4 36  1  0
 11 37  1  0
 11 38  1  0
 13 39  1  0
 15 40  1  0
 16 41  1  0
 18 42  1  0
 18 43  1  0
 20 44  1  0
 21 45  1  0
 24 46  1  0
 25 47  1  0
 26 48  1  0
M  END
>  <UniqueID>  (86) 
86

>  <SMILES>  (86) 
CC(C)(C)OC(=O)n1c(C(N)=O)cc2ccc(Cc3ccc(Br)cc3)cc21

>  <Energy>  (86) 
81.85232228011203

>  <Genealogy>  (86) 
CC(C)(C)OC(=O)n1c(C(N)=O)cc2ccc(Cc3ccc(Br)cc3)cc21 (3D coordinates assigned)
CC(C)(C)OC(=O)n1c(C(N)=O)cc2ccc(Cc3ccc(Br)cc3)cc21 (optimized conformer: 81.85232228011203 kcal/mol)

>  <smiles>  (86) 
CC(C)(C)OC(=O)n1c(C(N)=O)cc2ccc(Cc3ccc(Br)cc3)cc21

>  <score_type>  (86) 
oracle

>  <origin>  (86) 
adg

>  <m_score__min__energy>  (86) 
-9.4700000000000006

>  <m_primary>  (86) 
energy

$$$$
88:0
     RDKit          3D

 34 36  0  0  0  0  0  0  0  0999 V2000
  143.0650  155.3410  134.1880 C   0  0  0  0  0  0  0  0  0  0  0  0
  141.9200  156.1190  133.6200 C   0  0  0  0  0  0  0  0  0  0  0  0
  141.0210  155.5090  132.9820 O   0  0  0  0  0  0  0  0  0  0  0  0
  141.8490  157.5490  133.7670 N   0  0  0  0  0  0  0  0  0  0  0  0
  140.7750  158.3010  134.1390 C   0  0  0  0  0  0  0  0  0  0  0  0
  139.3920  157.8140  134.3030 C   0  0  0  0  0  0  0  0  0  0  0  0
  138.8010  156.9320  133.3480 N   0  0  0  0  0  0  0  0  0  0  0  0
  138.7010  158.2250  135.2730 O   0  0  0  0  0  0  0  0  0  0  0  0
  141.1410  159.6360  134.2930 C   0  0  0  0  0  0  0  0  0  0  0  0
  142.4820  159.6820  133.9830 C   0  0  0  0  0  0  0  0  0  0  0  0
  143.3640  160.7580  133.9800 C   0  0  0  0  0  0  0  0  0  0  0  0
  144.7060  160.5090  133.6500 C   0  0  0  0  0  0  0  0  0  0  0  0
  145.1470  159.1960  133.3370 C   0  0  0  0  0  0  0  0  0  0  0  0
  146.5720  158.9430  133.0000 C   0  0  0  0  0  0  0  0  0  0  0  0
  147.3990  159.9820  132.5370 C   0  0  0  0  0  0  0  0  0  0  0  0
  148.7360  159.7290  132.2270 C   0  0  0  0  0  0  0  0  0  0  0  0
  149.2410  158.4370  132.3780 C   0  0  0  0  0  0  0  0  0  0  0  0
  148.4340  157.4390  132.8250 N   0  0  0  0  0  0  0  0  0  0  0  0
  147.1290  157.6590  133.1370 C   0  0  0  0  0  0  0  0  0  0  0  0
  144.2170  158.1290  133.3530 C   0  0  0  0  0  0  0  0  0  0  0  0
  142.8840  158.4100  133.6690 C   0  0  0  0  0  0  0  0  0  0  0  0
  143.0200  155.3716  135.2867 H   0  0  0  0  0  0  0  0  0  0  0  0
  143.0036  154.2968  133.8475 H   0  0  0  0  0  0  0  0  0  0  0  0
  144.0132  155.7826  133.8475 H   0  0  0  0  0  0  0  0  0  0  0  0
  137.8360  156.5630  133.5020 H   0  0  0  0  0  0  0  0  0  0  0  0
  139.2840  156.7080  132.4490 H   0  0  0  0  0  0  0  0  0  0  0  0
  140.4968  160.4742  134.5971 H   0  0  0  0  0  0  0  0  0  0  0  0
  143.0205  161.7730  134.2286 H   0  0  0  0  0  0  0  0  0  0  0  0
  145.4247  161.3416  133.6337 H   0  0  0  0  0  0  0  0  0  0  0  0
  146.9910  160.9967  132.4189 H   0  0  0  0  0  0  0  0  0  0  0  0
  149.3856  160.5404  131.8670 H   0  0  0  0  0  0  0  0  0  0  0  0
  150.2929  158.2261  132.1351 H   0  0  0  0  0  0  0  0  0  0  0  0
  146.5055  156.8280  133.4986 H   0  0  0  0  0  0  0  0  0  0  0  0
  144.5356  157.1018  133.1220 H   0  0  0  0  0  0  0  0  0  0  0  0
  1  2  1  0
  2  3  2  0
  2  4  1  0
  4  5  1  0
  5  6  1  0
  6  7  1  0
  6  8  2  0
  5  9  2  0
  9 10  1  0
 10 11  2  0
 11 12  1  0
 12 13  2  0
 13 14  1  0
 14 15  2  0
 15 16  1  0
 16 17  2  0
 17 18  1  0
 18 19  2  0
 13 20  1  0
 20 21  2  0
 21  4  1  0
 21 10  1  0
 19 14  1  0
  1 22  1  0
  1 23  1  0
  1 24  1  0
  7 25  1  0
  7 26  1  0
  9 27  1  0
 11 28  1  0
 12 29  1  0
 15 30  1  0
 16 31  1  0
 17 32  1  0
 19 33  1  0
 20 34  1  0
M  END
>  <UniqueID>  (87) 
87

>  <SMILES>  (87) 
CC(=O)n1c(C(N)=O)cc2ccc(-c3cccnc3)cc21

>  <Energy>  (87) 
82.03861667979707

>  <Genealogy>  (87) 
CC(=O)n1c(C(N)=O)cc2ccc(-c3cccnc3)cc21 (3D coordinates assigned)
CC(=O)n1c(C(N)=O)cc2ccc(-c3cccnc3)cc21 (optimized conformer: 82.03861667979707 kcal/mol)

>  <smiles>  (87) 
CC(=O)n1c(C(N)=O)cc2ccc(-c3cccnc3)cc21

>  <score_type>  (87) 
oracle

>  <origin>  (87) 
adg

>  <m_score__min__energy>  (87) 
-7.2300000000000004

>  <m_primary>  (87) 
energy

$$$$
89:0
     RDKit          3D

 68 71  0  0  0  0  0  0  0  0999 V2000
  138.7730  147.7850  130.2760 C   0  0  0  0  0  0  0  0  0  0  0  0
  140.1850  148.3830  130.1930 C   0  0  0  0  0  0  0  0  0  0  0  0
  140.5320  149.2990  131.3030 N   0  0  0  0  0  0  0  0  0  0  0  0
  140.0880  148.8330  132.6240 C   0  0  0  0  0  0  0  0  0  0  0  0
  140.8250  149.6210  133.7260 C   0  0  0  0  0  0  0  0  0  0  0  0
  141.2420  150.9830  133.3000 N   0  0  0  0  0  0  0  0  0  0  0  0
  142.6480  151.0330  132.8400 C   0  0  0  0  0  0  0  0  0  0  0  0
  143.1910  152.4360  132.9360 C   0  0  0  0  0  0  0  0  0  0  0  0
  144.4400  152.7420  132.3800 C   0  0  0  0  0  0  0  0  0  0  0  0
  144.9670  154.0320  132.4930 C   0  0  0  0  0  0  0  0  0  0  0  0
  144.2530  155.0380  133.1700 C   0  0  0  0  0  0  0  0  0  0  0  0
  144.8210  156.4020  133.3080 C   0  0  0  0  0  0  0  0  0  0  0  0
  146.2090  156.6220  133.1210 C   0  0  0  0  0  0  0  0  0  0  0  0
  146.7540  157.9110  133.2250 C   0  0  0  0  0  0  0  0  0  0  0  0
  145.8920  158.9610  133.5260 C   0  0  0  0  0  0  0  0  0  0  0  0
  146.1570  160.3030  133.6580 C   0  0  0  0  0  0  0  0  0  0  0  0
  144.9280  160.8900  133.9310 C   0  0  0  0  0  0  0  0  0  0  0  0
  144.7570  162.3380  134.1030 C   0  0  0  0  0  0  0  0  0  0  0  0
  143.6500  163.0070  133.5040 N   0  0  0  0  0  0  0  0  0  0  0  0
  145.6310  163.0010  134.7230 O   0  0  0  0  0  0  0  0  0  0  0  0
  143.9370  159.9570  133.9940 N   0  0  0  0  0  0  0  0  0  0  0  0
  142.5700  160.1630  134.4170 C   0  0  0  0  0  0  0  0  0  0  0  0
  141.7830  160.8380  133.6980 O   0  0  0  0  0  0  0  0  0  0  0  0
  142.0920  159.5750  135.5940 O   0  0  0  0  0  0  0  0  0  0  0  0
  140.6980  159.3750  135.8300 C   0  0  0  0  0  0  0  0  0  0  0  0
  140.3000  157.9050  135.6170 C   0  0  0  0  0  0  0  0  0  0  0  0
  139.8780  157.6460  134.1650 C   0  0  0  0  0  0  0  0  0  0  0  0
  141.4240  156.9530  136.0440 C   0  0  0  0  0  0  0  0  0  0  0  0
  144.5470  158.7740  133.7300 C   0  0  0  0  0  0  0  0  0  0  0  0
  143.9780  157.4980  133.6150 C   0  0  0  0  0  0  0  0  0  0  0  0
  142.9980  154.7250  133.7250 C   0  0  0  0  0  0  0  0  0  0  0  0
  142.4730  153.4350  133.6100 C   0  0  0  0  0  0  0  0  0  0  0  0
  140.2940  151.5680  132.3240 C   0  0  0  0  0  0  0  0  0  0  0  0
  140.1430  150.7020  131.0530 C   0  0  0  0  0  0  0  0  0  0  0  0
  138.4875  147.6641  131.3314 H   0  0  0  0  0  0  0  0  0  0  0  0
  138.0598  148.4583  129.7780 H   0  0  0  0  0  0  0  0  0  0  0  0
  138.7603  146.8043  129.7780 H   0  0  0  0  0  0  0  0  0  0  0  0
  140.9090  147.5548  130.1924 H   0  0  0  0  0  0  0  0  0  0  0  0
  140.2159  148.9834  129.2718 H   0  0  0  0  0  0  0  0  0  0  0  0
  139.0041  148.9922  132.7229 H   0  0  0  0  0  0  0  0  0  0  0  0
  140.3142  147.7615  132.7281 H   0  0  0  0  0  0  0  0  0  0  0  0
  140.1552  149.7168  134.5933 H   0  0  0  0  0  0  0  0  0  0  0  0
  141.7409  149.0618  133.9675 H   0  0  0  0  0  0  0  0  0  0  0  0
  143.2572  150.3664  133.4680 H   0  0  0  0  0  0  0  0  0  0  0  0
  142.6878  150.7097  131.7893 H   0  0  0  0  0  0  0  0  0  0  0  0
  145.0092  151.9630  131.8516 H   0  0  0  0  0  0  0  0  0  0  0  0
  145.9469  154.2623  132.0494 H   0  0  0  0  0  0  0  0  0  0  0  0
  146.8674  155.7712  132.8914 H   0  0  0  0  0  0  0  0  0  0  0  0
  147.8294  158.0859  133.0733 H   0  0  0  0  0  0  0  0  0  0  0  0
  147.1320  160.8042  133.5671 H   0  0  0  0  0  0  0  0  0  0  0  0
  142.9510  162.4750  132.9390 H   0  0  0  0  0  0  0  0  0  0  0  0
  143.5320  164.0390  133.6210 H   0  0  0  0  0  0  0  0  0  0  0  0
  140.4652  159.6627  136.8659 H   0  0  0  0  0  0  0  0  0  0  0  0
  140.1331  159.9941  135.1175 H   0  0  0  0  0  0  0  0  0  0  0  0
  139.4303  157.7031  136.2596 H   0  0  0  0  0  0  0  0  0  0  0  0
  138.9406  157.0706  134.1527 H   0  0  0  0  0  0  0  0  0  0  0  0
  139.7256  158.6063  133.6506 H   0  0  0  0  0  0  0  0  0  0  0  0
  140.6652  157.0754  133.6506 H   0  0  0  0  0  0  0  0  0  0  0  0
  141.4724  156.9120  137.1422 H   0  0  0  0  0  0  0  0  0  0  0  0
  141.2224  155.9467  135.6481 H   0  0  0  0  0  0  0  0  0  0  0  0
  142.3834  157.3174  135.6481 H   0  0  0  0  0  0  0  0  0  0  0  0
  142.8976  157.3508  133.7604 H   0  0  0  0  0  0  0  0  0  0  0  0
  142.4259  155.5019  134.2534 H   0  0  0  0  0  0  0  0  0  0  0  0
  141.4922  153.2019  134.0500 H   0  0  0  0  0  0  0  0  0  0  0  0
  139.3089  151.6650  132.8038 H   0  0  0  0  0  0  0  0  0  0  0  0
  140.6923  152.5461  132.0164 H   0  0  0  0  0  0  0  0  0  0  0  0
  139.0933  150.7287  130.7252 H   0  0  0  0  0  0  0  0  0  0  0  0
  140.8068  151.1105  130.2768 H   0  0  0  0  0  0  0  0  0  0  0  0
  1  2  1  0
  2  3  1  0
  3  4  1  0
  4  5  1  0
  5  6  1  0
  6  7  1  0
  7  8  1  0
  8  9  2  0
  9 10  1  0
 10 11  2  0
 11 12  1  0
 12 13  2  0
 13 14  1  0
 14 15  2  0
 15 16  1  0
 16 17  2  0
 17 18  1  0
 18 19  1  0
 18 20  2  0
 17 21  1  0
 21 22  1  0
 22 23  2  0
 22 24  1  0
 24 25  1  0
 25 26  1  0
 26 27  1  0
 26 28  1  0
 21 29  1  0
 29 30  2  0
 11 31  1  0
 31 32  2  0
  6 33  1  0
 33 34  1  0
 34  3  1  0
 32  8  1  0
 30 12  1  0
 29 15  1  0
  1 35  1  0
  1 36  1  0
  1 37  1  0
  2 38  1  0
  2 39  1  0
  4 40  1  0
  4 41  1  0
  5 42  1  0
  5 43  1  0
  7 44  1  0
  7 45  1  0
  9 46  1  0
 10 47  1  0
 13 48  1  0
 14 49  1  0
 16 50  1  0
 19 51  1  0
 19 52  1  0
 25 53  1  0
 25 54  1  0
 26 55  1  0
 27 56  1  0
 27 57  1  0
 27 58  1  0
 28 59  1  0
 28 60  1  0
 28 61  1  0
 30 62  1  0
 31 63  1  0
 32 64  1  0
 33 65  1  0
 33 66  1  0
 34 67  1  0
 34 68  1  0
M  END
>  <UniqueID>  (88) 
88

>  <SMILES>  (88) 
CCN1CCN(Cc2ccc(-c3ccc4cc(C(N)=O)n(C(=O)OCC(C)C)c4c3)cc2)CC1

>  <Energy>  (88) 
122.30623196230457

>  <Genealogy>  (88) 
CCN1CCN(Cc2ccc(-c3ccc4cc(C(N)=O)n(C(=O)OCC(C)C)c4c3)cc2)CC1 (3D coordinates assigned)
CCN1CCN(Cc2ccc(-c3ccc4cc(C(N)=O)n(C(=O)OCC(C)C)c4c3)cc2)CC1 (nonaromatic ring conformer: 122.30623196230457 kcal/mol)

>  <smiles>  (88) 
CCN1CCN(Cc2ccc(-c3ccc4cc(C(N)=O)n(C(=O)OCC(C)C)c4c3)cc2)CC1

>  <score_type>  (88) 
oracle

>  <origin>  (88) 
adg

>  <m_score__min__energy>  (88) 
-10.880000000000001

>  <m_primary>  (88) 
energy

$$$$
90:0
     RDKit          3D

 50 51  0  0  0  0  0  0  0  0999 V2000
  141.8860  156.4370  136.5420 C   0  0  0  0  0  0  0  0  0  0  0  0
  140.9590  157.6390  136.2970 C   0  0  0  0  0  0  0  0  0  0  0  0
  141.6710  158.9320  136.7300 C   0  0  0  0  0  0  0  0  0  0  0  0
  139.6690  157.4710  137.1190 C   0  0  0  0  0  0  0  0  0  0  0  0
  140.5150  157.7460  134.4480 Si  0  0  0  0  0  4  0  0  0  0  0  0
  138.6600  157.8390  134.2370 C   0  0  0  0  0  0  0  0  0  0  0  0
  141.0820  156.2010  133.5400 C   0  0  0  0  0  0  0  0  0  0  0  0
  141.1820  159.2130  133.7920 O   0  0  0  0  0  0  0  0  0  0  0  0
  142.2980  158.9360  132.9800 C   0  0  0  0  0  0  0  0  0  0  0  0
  143.4870  159.7540  133.4800 C   0  0  0  0  0  0  0  0  0  0  0  0
  144.6740  158.8640  133.7340 C   0  0  0  0  0  0  0  0  0  0  0  0
  145.9720  159.2840  133.3470 C   0  0  0  0  0  0  0  0  0  0  0  0
  147.0800  158.4410  133.5320 C   0  0  0  0  0  0  0  0  0  0  0  0
  146.8610  157.1900  134.0990 C   0  0  0  0  0  0  0  0  0  0  0  0
  147.7450  156.1670  134.3550 C   0  0  0  0  0  0  0  0  0  0  0  0
  146.9770  155.1420  134.9030 C   0  0  0  0  0  0  0  0  0  0  0  0
  147.5510  153.8730  135.3970 C   0  0  0  0  0  0  0  0  0  0  0  0
  147.2110  153.3650  136.6850 N   0  0  0  0  0  0  0  0  0  0  0  0
  148.3870  153.2490  134.6910 O   0  0  0  0  0  0  0  0  0  0  0  0
  145.6670  155.5140  134.9780 N   0  0  0  0  0  0  0  0  0  0  0  0
  144.5490  154.7160  135.4010 C   0  0  0  0  0  0  0  0  0  0  0  0
  144.4930  154.2070  136.7310 N   0  0  0  0  0  0  0  0  0  0  0  0
  143.6050  154.4750  134.6020 O   0  0  0  0  0  0  0  0  0  0  0  0
  145.6130  156.7700  134.4840 C   0  0  0  0  0  0  0  0  0  0  0  0
  144.4890  157.5820  134.2950 C   0  0  0  0  0  0  0  0  0  0  0  0
  142.0061  156.2812  137.6243 H   0  0  0  0  0  0  0  0  0  0  0  0
  141.4463  155.5364  136.0885 H   0  0  0  0  0  0  0  0  0  0  0  0
  142.8687  156.6334  136.0885 H   0  0  0  0  0  0  0  0  0  0  0  0
  141.6999  158.9845  137.8284 H   0  0  0  0  0  0  0  0  0  0  0  0
  142.6979  158.9348  136.3356 H   0  0  0  0  0  0  0  0  0  0  0  0
  141.1244  159.8013  136.3356 H   0  0  0  0  0  0  0  0  0  0  0  0
  139.9110  157.5025  138.1916 H   0  0  0  0  0  0  0  0  0  0  0  0
  138.9710  158.2858  136.8765 H   0  0  0  0  0  0  0  0  0  0  0  0
  139.2030  156.5046  136.8765 H   0  0  0  0  0  0  0  0  0  0  0  0
  138.1792  157.8631  135.2261 H   0  0  0  0  0  0  0  0  0  0  0  0
  138.3996  158.7513  133.6804 H   0  0  0  0  0  0  0  0  0  0  0  0
  138.3096  156.9573  133.6804 H   0  0  0  0  0  0  0  0  0  0  0  0
  141.3652  155.4293  134.2709 H   0  0  0  0  0  0  0  0  0  0  0  0
  140.2631  155.8253  132.9088 H   0  0  0  0  0  0  0  0  0  0  0  0
  141.9495  156.4442  132.9088 H   0  0  0  0  0  0  0  0  0  0  0  0
  142.5379  157.8639  133.0348 H   0  0  0  0  0  0  0  0  0  0  0  0
  142.0751  159.2012  131.9360 H   0  0  0  0  0  0  0  0  0  0  0  0
  143.7538  160.5046  132.7214 H   0  0  0  0  0  0  0  0  0  0  0  0
  143.2063  160.2477  134.4221 H   0  0  0  0  0  0  0  0  0  0  0  0
  146.1122  160.2784  132.8981 H   0  0  0  0  0  0  0  0  0  0  0  0
  148.0905  158.7605  133.2374 H   0  0  0  0  0  0  0  0  0  0  0  0
  148.8287  156.1601  134.1668 H   0  0  0  0  0  0  0  0  0  0  0  0
  146.2610  152.9780  136.8770 H   0  0  0  0  0  0  0  0  0  0  0  0
  145.3220  154.2660  137.3630 H   0  0  0  0  0  0  0  0  0  0  0  0
  143.4857  157.2298  134.5768 H   0  0  0  0  0  0  0  0  0  0  0  0
  1  2  1  0
  2  3  1  0
  2  4  1  0
  2  5  1  0
  5  6  1  0
  5  7  1  0
  5  8  1  0
  8  9  1  0
  9 10  1  0
 10 11  1  0
 11 12  2  0
 12 13  1  0
 13 14  2  0
 14 15  1  0
 15 16  2  0
 16 17  1  0
 17 18  1  0
 17 19  2  0
 16 20  1  0
 20 21  1  0
 21 22  1  0
 21 23  2  0
 20 24  1  0
 24 25  2  0
 25 11  1  0
 24 14  1  0
  1 26  1  0
  1 27  1  0
  1 28  1  0
  3 29  1  0
  3 30  1  0
  3 31  1  0
  4 32  1  0
  4 33  1  0
  4 34  1  0
  6 35  1  0
  6 36  1  0
  6 37  1  0
  7 38  1  0
  7 39  1  0
  7 40  1  0
  9 41  1  0
  9 42  1  0
 10 43  1  0
 10 44  1  0
 12 45  1  0
 13 46  1  0
 15 47  1  0
 18 48  1  0
 22 49  1  0
 25 50  1  0
M  CHG  2  18  -1  22  -1
M  END
>  <UniqueID>  (89) 
89

>  <SMILES>  (89) 
CC(C)(C)[Si](C)(C)OCCc1ccc2cc(C([NH-])=O)n(C([NH-])=O)c2c1

>  <Energy>  (89) 
69.03132927427252

>  <Genealogy>  (89) 
CC(C)(C)[Si](C)(C)OCCc1ccc2cc(C([NH-])=O)n(C([NH-])=O)c2c1 (protonated)
CC(C)(C)[Si](C)(C)OCCc1ccc2cc(C([NH-])=O)n(C([NH-])=O)c2c1 (3D coordinates assigned)
CC(C)(C)[Si](C)(C)OCCc1ccc2cc(C([NH-])=O)n(C([NH-])=O)c2c1 (optimized conformer: 69.03132927427252 kcal/mol)

>  <smiles>  (89) 
CC(C)(C)[Si](C)(C)OCCc1ccc2cc(C(N)=O)n(C(N)=O)c2c1

>  <score_type>  (89) 
oracle

>  <origin>  (89) 
adg

>  <m_score__min__energy>  (89) 
-7.9199999999999999

>  <m_primary>  (89) 
energy

$$$$
91:0
     RDKit          3D

 30 32  0  0  0  0  0  0  0  0999 V2000
  138.7420  156.8740  133.2590 N   0  0  0  0  0  0  0  0  0  0  0  0
  139.3000  157.8040  134.1890 C   0  0  0  0  0  0  0  0  0  0  0  0
  138.5870  158.2370  135.1320 O   0  0  0  0  0  0  0  0  0  0  0  0
  140.6750  158.3150  134.0260 C   0  0  0  0  0  0  0  0  0  0  0  0
  141.0020  159.6650  134.1060 C   0  0  0  0  0  0  0  0  0  0  0  0
  142.3510  159.7280  133.8410 C   0  0  0  0  0  0  0  0  0  0  0  0
  143.2040  160.8260  133.8110 C   0  0  0  0  0  0  0  0  0  0  0  0
  144.5640  160.5960  133.5530 C   0  0  0  0  0  0  0  0  0  0  0  0
  145.0540  159.2820  133.3330 C   0  0  0  0  0  0  0  0  0  0  0  0
  146.5030  159.0700  133.0850 C   0  0  0  0  0  0  0  0  0  0  0  0
  147.1140  157.8190  133.2680 C   0  0  0  0  0  0  0  0  0  0  0  0
  148.4770  157.6800  133.0140 C   0  0  0  0  0  0  0  0  0  0  0  0
  149.2050  158.7840  132.5790 C   0  0  0  0  0  0  0  0  0  0  0  0
  148.5730  159.9730  132.4040 N   0  0  0  0  0  0  0  0  0  0  0  0
  147.2670  160.1100  132.6470 N   0  0  0  0  0  0  0  0  0  0  0  0
  144.1520  158.1890  133.3850 C   0  0  0  0  0  0  0  0  0  0  0  0
  142.7970  158.4500  133.6200 C   0  0  0  0  0  0  0  0  0  0  0  0
  141.7770  157.5680  133.7360 N   0  0  0  0  0  0  0  0  0  0  0  0
  141.8710  156.1340  133.6800 C   0  0  0  0  0  0  0  0  0  0  0  0
  142.8340  155.5380  134.2310 O   0  0  0  0  0  0  0  0  0  0  0  0
  140.9040  155.3900  133.0160 O   0  0  0  0  0  0  0  0  0  0  0  0
  139.2420  156.6280  132.3780 H   0  0  0  0  0  0  0  0  0  0  0  0
  137.7820  156.4930  133.4120 H   0  0  0  0  0  0  0  0  0  0  0  0
  140.3265  160.5030  134.3327 H   0  0  0  0  0  0  0  0  0  0  0  0
  142.8242  161.8437  133.9842 H   0  0  0  0  0  0  0  0  0  0  0  0
  145.2608  161.4466  133.5207 H   0  0  0  0  0  0  0  0  0  0  0  0
  146.5221  156.9567  133.6087 H   0  0  0  0  0  0  0  0  0  0  0  0
  148.9725  156.7082  133.1557 H   0  0  0  0  0  0  0  0  0  0  0  0
  150.2829  158.6939  132.3788 H   0  0  0  0  0  0  0  0  0  0  0  0
  144.5094  157.1583  133.2437 H   0  0  0  0  0  0  0  0  0  0  0  0
  1  2  1  0
  2  3  2  0
  2  4  1  0
  4  5  2  0
  5  6  1  0
  6  7  2  0
  7  8  1  0
  8  9  2  0
  9 10  1  0
 10 11  2  0
 11 12  1  0
 12 13  2  0
 13 14  1  0
 14 15  2  0
  9 16  1  0
 16 17  2  0
 17 18  1  0
 18 19  1  0
 19 20  2  0
 19 21  1  0
 18  4  1  0
 17  6  1  0
 15 10  1  0
  1 22  1  0
  1 23  1  0
  5 24  1  0
  7 25  1  0
  8 26  1  0
 11 27  1  0
 12 28  1  0
 13 29  1  0
 16 30  1  0
M  CHG  1  21  -1
M  END
>  <UniqueID>  (90) 
90

>  <SMILES>  (90) 
NC(=O)c1cc2ccc(-c3cccnn3)cc2n1C(=O)[O-]

>  <Energy>  (90) 
78.32870316305542

>  <Genealogy>  (90) 
NC(=O)c1cc2ccc(-c3cccnn3)cc2n1C(=O)[O-] (protonated)
NC(=O)c1cc2ccc(-c3cccnn3)cc2n1C(=O)[O-] (3D coordinates assigned)
NC(=O)c1cc2ccc(-c3cccnn3)cc2n1C(=O)[O-] (optimized conformer: 78.32870316305542 kcal/mol)

>  <smiles>  (90) 
NC(=O)c1cc2ccc(-c3cccnn3)cc2n1C(=O)O

>  <score_type>  (90) 
oracle

>  <origin>  (90) 
adg

>  <m_score__min__energy>  (90) 
-6.8600000000000003

>  <m_primary>  (90) 
energy

$$$$
92:0
     RDKit          3D

 70 73  0  0  0  0  0  0  0  0999 V2000
  137.8620  159.1520  131.4220 C   0  0  0  0  0  0  0  0  0  0  0  0
  139.3350  158.7950  131.5420 C   0  0  0  0  0  0  0  0  0  0  0  0
  139.5450  158.0950  132.7530 O   0  0  0  0  0  0  0  0  0  0  0  0
  140.8270  157.4970  132.7590 C   0  0  0  0  0  0  0  0  0  0  0  0
  140.7650  156.2830  133.4960 O   0  0  0  0  0  0  0  0  0  0  0  0
  139.7860  155.3960  132.9870 C   0  0  0  0  0  0  0  0  0  0  0  0
  140.2740  153.9510  133.0120 C   0  0  0  0  0  0  0  0  0  0  0  0
  141.7540  158.4190  133.4370 N   0  0  0  0  0  0  0  0  0  0  0  0
  143.1840  158.3250  133.2430 C   0  0  0  0  0  0  0  0  0  0  0  0
  143.7030  157.2920  132.7420 O   0  0  0  0  0  0  0  0  0  0  0  0
  144.0140  159.4970  133.5740 C   0  0  0  0  0  0  0  0  0  0  0  0
  145.4200  159.5980  133.5530 C   0  0  0  0  0  0  0  0  0  0  0  0
  146.3490  158.4670  133.3700 C   0  0  0  0  0  0  0  0  0  0  0  0
  147.4250  158.5770  132.4580 C   0  0  0  0  0  0  0  0  0  0  0  0
  148.2840  157.4910  132.2350 C   0  0  0  0  0  0  0  0  0  0  0  0
  148.0490  156.3160  132.9450 C   0  0  0  0  0  0  0  0  0  0  0  0
  148.7200  155.1200  132.9010 C   0  0  0  0  0  0  0  0  0  0  0  0
  148.0550  154.2910  133.7960 C   0  0  0  0  0  0  0  0  0  0  0  0
  148.4520  152.8850  134.0070 C   0  0  0  0  0  0  0  0  0  0  0  0
  148.8630  152.4550  135.3030 N   0  0  0  0  0  0  0  0  0  0  0  0
  148.5040  152.0770  133.0430 O   0  0  0  0  0  0  0  0  0  0  0  0
  147.0220  154.9530  134.4040 N   0  0  0  0  0  0  0  0  0  0  0  0
  146.2380  154.5180  135.5390 C   0  0  0  0  0  0  0  0  0  0  0  0
  146.6560  153.5910  136.2830 O   0  0  0  0  0  0  0  0  0  0  0  0
  145.0330  155.1680  135.8450 O   0  0  0  0  0  0  0  0  0  0  0  0
  143.7220  154.8060  135.3880 C   0  0  0  0  0  0  0  0  0  0  0  0
  143.8320  154.5170  133.8830 C   0  0  0  0  0  0  0  0  0  0  0  0
  142.7360  155.9700  135.5990 C   0  0  0  0  0  0  0  0  0  0  0  0
  143.2260  153.5350  136.1030 C   0  0  0  0  0  0  0  0  0  0  0  0
  147.0220  156.1920  133.8480 C   0  0  0  0  0  0  0  0  0  0  0  0
  146.1300  157.2560  134.0610 C   0  0  0  0  0  0  0  0  0  0  0  0
  145.8710  160.9000  133.7790 C   0  0  0  0  0  0  0  0  0  0  0  0
  144.5390  161.9000  134.0340 S   0  0  0  0  0  0  0  0  0  0  0  0
  143.3850  160.6940  133.8650 C   0  0  0  0  0  0  0  0  0  0  0  0
  141.8960  160.8610  133.8730 C   0  0  0  0  0  0  0  0  0  0  0  0
  141.2150  159.5280  134.2530 C   0  0  2  0  0  0  0  0  0  0  0  0
  141.4760  159.2460  135.6200 O   0  0  0  0  0  0  0  0  0  0  0  0
  140.3830  158.5810  136.2150 C   0  0  0  0  0  0  0  0  0  0  0  0
  137.4272  159.2574  132.4269 H   0  0  0  0  0  0  0  0  0  0  0  0
  137.7581  160.1013  130.8761 H   0  0  0  0  0  0  0  0  0  0  0  0
  137.3350  158.3556  130.8761 H   0  0  0  0  0  0  0  0  0  0  0  0
  139.6303  158.1601  130.6937 H   0  0  0  0  0  0  0  0  0  0  0  0
  139.9404  159.7134  131.5354 H   0  0  0  0  0  0  0  0  0  0  0  0
  141.1646  157.2918  131.7324 H   0  0  0  0  0  0  0  0  0  0  0  0
  138.8767  155.4769  133.6007 H   0  0  0  0  0  0  0  0  0  0  0  0
  139.5793  155.6725  131.9426 H   0  0  0  0  0  0  0  0  0  0  0  0
  140.3859  153.6198  134.0550 H   0  0  0  0  0  0  0  0  0  0  0  0
  139.5431  153.3082  132.4995 H   0  0  0  0  0  0  0  0  0  0  0  0
  141.2450  153.8830  132.4995 H   0  0  0  0  0  0  0  0  0  0  0  0
  147.5892  159.5220  131.9194 H   0  0  0  0  0  0  0  0  0  0  0  0
  149.1177  157.5649  131.5213 H   0  0  0  0  0  0  0  0  0  0  0  0
  149.5981  154.8704  132.2873 H   0  0  0  0  0  0  0  0  0  0  0  0
  148.1710  152.0840  135.9900 H   0  0  0  0  0  0  0  0  0  0  0  0
  144.2196  153.4986  133.7326 H   0  0  0  0  0  0  0  0  0  0  0  0
  142.8382  154.6032  133.4195 H   0  0  0  0  0  0  0  0  0  0  0  0
  144.5170  155.2422  133.4195 H   0  0  0  0  0  0  0  0  0  0  0  0
  142.5931  156.1387  136.6765 H   0  0  0  0  0  0  0  0  0  0  0  0
  143.1406  156.8819  135.1356 H   0  0  0  0  0  0  0  0  0  0  0  0
  141.7700  155.7208  135.1356 H   0  0  0  0  0  0  0  0  0  0  0  0
  143.2829  153.6809  137.1918 H   0  0  0  0  0  0  0  0  0  0  0  0
  142.1837  153.3347  135.8139 H   0  0  0  0  0  0  0  0  0  0  0  0
  143.8571  152.6817  135.8139 H   0  0  0  0  0  0  0  0  0  0  0  0
  145.2800  157.1478  134.7508 H   0  0  0  0  0  0  0  0  0  0  0  0
  146.9233  161.2203  133.7890 H   0  0  0  0  0  0  0  0  0  0  0  0
  141.6203  161.6327  134.6068 H   0  0  0  0  0  0  0  0  0  0  0  0
  141.5620  161.1629  132.8694 H   0  0  0  0  0  0  0  0  0  0  0  0
  140.1339  159.6214  134.0730 H   0  0  0  0  0  0  0  0  0  0  0  0
  140.4726  158.6355  137.3100 H   0  0  0  0  0  0  0  0  0  0  0  0
  139.4453  159.0618  135.8994 H   0  0  0  0  0  0  0  0  0  0  0  0
  140.3790  157.5272  135.8994 H   0  0  0  0  0  0  0  0  0  0  0  0
  1  2  1  0
  2  3  1  0
  3  4  1  0
  4  5  1  0
  5  6  1  0
  6  7  1  0
  4  8  1  0
  8  9  1  0
  9 10  2  0
  9 11  1  0
 11 12  1  0
 12 13  1  0
 13 14  2  0
 14 15  1  0
 15 16  2  0
 16 17  1  0
 17 18  2  0
 18 19  1  0
 19 20  1  0
 19 21  2  0
 18 22  1  0
 22 23  1  0
 23 24  2  0
 23 25  1  0
 25 26  1  0
 26 27  1  0
 26 28  1  0
 26 29  1  0
 22 30  1  0
 30 31  2  0
 12 32  2  0
 32 33  1  0
 33 34  1  0
 34 35  1  0
 35 36  1  0
 36 37  1  0
 37 38  1  0
 36  8  1  0
 34 11  2  0
 31 13  1  0
 30 16  1  0
  1 39  1  0
  1 40  1  0
  1 41  1  0
  2 42  1  0
  2 43  1  0
  4 44  1  0
  6 45  1  0
  6 46  1  0
  7 47  1  0
  7 48  1  0
  7 49  1  0
 14 50  1  0
 15 51  1  0
 17 52  1  0
 20 53  1  0
 27 54  1  0
 27 55  1  0
 27 56  1  0
 28 57  1  0
 28 58  1  0
 28 59  1  0
 29 60  1  0
 29 61  1  0
 29 62  1  0
 31 63  1  0
 32 64  1  0
 35 65  1  0
 35 66  1  0
 36 67  1  1
 38 68  1  0
 38 69  1  0
 38 70  1  0
M  CHG  1  20  -1
M  END
>  <UniqueID>  (91) 
91

>  <SMILES>  (91) 
CCOC(OCC)N1C(=O)c2c(-c3ccc4cc(C([NH-])=O)n(C(=O)OC(C)(C)C)c4c3)csc2C[C@@H]1OC

>  <Energy>  (91) 
146.72799409318282

>  <Genealogy>  (91) 
CCOC(OCC)N1C(=O)c2c(-c3ccc4cc(C([NH-])=O)n(C(=O)OC(C)(C)C)c4c3)csc2CC1OC (protonated)
CCOC(OCC)N1C(=O)c2c(-c3ccc4cc(C([NH-])=O)n(C(=O)OC(C)(C)C)c4c3)csc2C[C@@H]1OC (chirality)
CCOC(OCC)N1C(=O)c2c(-c3ccc4cc(C([NH-])=O)n(C(=O)OC(C)(C)C)c4c3)csc2C[C@@H]1OC (3D coordinates assigned)
CCOC(OCC)N1C(=O)c2c(-c3ccc4cc(C([NH-])=O)n(C(=O)OC(C)(C)C)c4c3)csc2C[C@@H]1OC (nonaromatic ring conformer: 146.72799409318282 kcal/mol)

>  <smiles>  (91) 
CCOC(OCC)N1C(=O)c2c(-c3ccc4cc(C(N)=O)n(C(=O)OC(C)(C)C)c4c3)csc2CC1OC

>  <score_type>  (91) 
oracle

>  <origin>  (91) 
adg

>  <m_score__min__energy>  (91) 
-9.4399999999999995

>  <m_primary>  (91) 
energy

$$$$
93:0
     RDKit          3D

 40 42  0  0  0  0  0  0  0  0999 V2000
  149.2580  159.4740  130.4670 C   0  0  0  0  0  0  0  0  0  0  0  0
  149.2040  159.7990  131.9020 N   0  0  0  0  0  0  0  0  0  0  0  0
  148.1260  160.7740  132.2230 C   0  0  0  0  0  0  0  0  0  0  0  0
  146.9690  160.1840  133.0510 C   0  0  0  0  0  0  0  0  0  0  0  0
  146.6230  158.7680  132.5680 C   0  0  0  0  0  0  0  0  0  0  0  0
  145.4250  158.2090  133.3150 C   0  0  0  0  0  0  0  0  0  0  0  0
  145.5170  156.9420  133.9490 C   0  0  0  0  0  0  0  0  0  0  0  0
  144.4160  156.3980  134.6300 C   0  0  0  0  0  0  0  0  0  0  0  0
  143.2420  157.1420  134.6740 C   0  0  0  0  0  0  0  0  0  0  0  0
  142.0230  156.8350  135.2350 C   0  0  0  0  0  0  0  0  0  0  0  0
  141.2100  157.9330  134.9670 C   0  0  0  0  0  0  0  0  0  0  0  0
  139.8190  158.0480  135.4480 C   0  0  0  0  0  0  0  0  0  0  0  0
  138.7340  158.2300  134.5370 N   0  0  0  0  0  0  0  0  0  0  0  0
  139.5900  158.0420  136.6870 O   0  0  0  0  0  0  0  0  0  0  0  0
  141.8910  158.8770  134.2570 N   0  0  0  0  0  0  0  0  0  0  0  0
  141.3690  160.0930  133.6950 C   0  0  0  0  0  0  0  0  0  0  0  0
  142.0150  161.1690  133.7950 O   0  0  0  0  0  0  0  0  0  0  0  0
  140.1450  160.0960  133.0370 O   0  0  0  0  0  0  0  0  0  0  0  0
  143.1370  158.3770  134.0870 C   0  0  0  0  0  0  0  0  0  0  0  0
  144.2100  158.9330  133.3820 C   0  0  0  0  0  0  0  0  0  0  0  0
  147.8460  157.8220  132.6600 C   0  0  0  0  0  0  0  0  0  0  0  0
  149.1840  158.5840  132.7430 C   0  0  0  0  0  0  0  0  0  0  0  0
  149.4371  158.3959  130.3417 H   0  0  0  0  0  0  0  0  0  0  0  0
  148.3026  159.7444  129.9936 H   0  0  0  0  0  0  0  0  0  0  0  0
  150.0746  160.0388  129.9936 H   0  0  0  0  0  0  0  0  0  0  0  0
  148.5697  161.6041  132.7923 H   0  0  0  0  0  0  0  0  0  0  0  0
  147.6960  161.0979  131.2637 H   0  0  0  0  0  0  0  0  0  0  0  0
  147.2669  160.1419  134.1090 H   0  0  0  0  0  0  0  0  0  0  0  0
  146.0838  160.8255  132.9290 H   0  0  0  0  0  0  0  0  0  0  0  0
  146.3458  158.8377  131.5058 H   0  0  0  0  0  0  0  0  0  0  0  0
  146.4616  156.3800  133.9063 H   0  0  0  0  0  0  0  0  0  0  0  0
  144.4803  155.4125  135.1143 H   0  0  0  0  0  0  0  0  0  0  0  0
  141.7498  155.9186  135.7786 H   0  0  0  0  0  0  0  0  0  0  0  0
  137.7540  158.2720  134.8930 H   0  0  0  0  0  0  0  0  0  0  0  0
  138.9060  158.4100  133.5240 H   0  0  0  0  0  0  0  0  0  0  0  0
  144.1118  159.9120  132.8901 H   0  0  0  0  0  0  0  0  0  0  0  0
  147.7406  157.1973  133.5593 H   0  0  0  0  0  0  0  0  0  0  0  0
  147.8660  157.2153  131.7427 H   0  0  0  0  0  0  0  0  0  0  0  0
  149.3570  158.8776  133.7889 H   0  0  0  0  0  0  0  0  0  0  0  0
  149.9717  157.9116  132.3724 H   0  0  0  0  0  0  0  0  0  0  0  0
  1  2  1  0
  2  3  1  0
  3  4  1  0
  4  5  1  0
  5  6  1  0
  6  7  2  0
  7  8  1  0
  8  9  2  0
  9 10  1  0
 10 11  2  0
 11 12  1  0
 12 13  1  0
 12 14  2  0
 11 15  1  0
 15 16  1  0
 16 17  2  0
 16 18  1  0
 15 19  1  0
 19 20  2  0
  5 21  1  0
 21 22  1  0
 22  2  1  0
 20  6  1  0
 19  9  1  0
  1 23  1  0
  1 24  1  0
  1 25  1  0
  3 26  1  0
  3 27  1  0
  4 28  1  0
  4 29  1  0
  5 30  1  0
  7 31  1  0
  8 32  1  0
 10 33  1  0
 13 34  1  0
 13 35  1  0
 20 36  1  0
 21 37  1  0
 21 38  1  0
 22 39  1  0
 22 40  1  0
M  CHG  1  18  -1
M  END
>  <UniqueID>  (92) 
92

>  <SMILES>  (92) 
CN1CCC(c2ccc3cc(C(N)=O)n(C(=O)[O-])c3c2)CC1

>  <Energy>  (92) 
90.71425428438455

>  <Genealogy>  (92) 
CN1CCC(c2ccc3cc(C(N)=O)n(C(=O)[O-])c3c2)CC1 (protonated)
CN1CCC(c2ccc3cc(C(N)=O)n(C(=O)[O-])c3c2)CC1 (3D coordinates assigned)
CN1CCC(c2ccc3cc(C(N)=O)n(C(=O)[O-])c3c2)CC1 (nonaromatic ring conformer: 90.71425428438455 kcal/mol)

>  <smiles>  (92) 
CN1CCC(c2ccc3cc(C(N)=O)n(C(=O)O)c3c2)CC1

>  <score_type>  (92) 
oracle

>  <origin>  (92) 
adg

>  <m_score__min__energy>  (92) 
-7.5199999999999996

>  <m_primary>  (92) 
energy

$$$$
94:0
     RDKit          3D

 28 29  0  0  0  0  0  0  0  0999 V2000
  145.3210  160.8000  133.7700 C   0  0  0  0  0  0  0  0  0  0  0  0
  145.3740  159.4680  133.0920 C   0  0  0  0  0  0  0  0  0  0  0  0
  144.3120  158.9710  132.6290 O   0  0  0  0  0  0  0  0  0  0  0  0
  146.6200  158.7740  132.9180 N   0  0  0  0  0  0  0  0  0  0  0  0
  146.9750  157.5490  133.4050 C   0  0  0  0  0  0  0  0  0  0  0  0
  146.0680  156.6080  134.0970 C   0  0  0  0  0  0  0  0  0  0  0  0
  144.7430  156.3800  133.6140 N   0  0  0  0  0  0  0  0  0  0  0  0
  146.4500  156.0170  135.1410 O   0  0  0  0  0  0  0  0  0  0  0  0
  148.2970  157.2580  133.0700 C   0  0  0  0  0  0  0  0  0  0  0  0
  148.7410  158.3470  132.3530 C   0  0  0  0  0  0  0  0  0  0  0  0
  149.9850  158.5970  131.7820 C   0  0  0  0  0  0  0  0  0  0  0  0
  150.1690  159.8210  131.1150 C   0  0  0  0  0  0  0  0  0  0  0  0
  149.1110  160.7590  131.0240 C   0  0  0  0  0  0  0  0  0  0  0  0
  149.3350  162.0790  130.3510 C   0  0  0  0  0  0  0  0  0  0  0  0
  147.8660  160.4750  131.6270 C   0  0  0  0  0  0  0  0  0  0  0  0
  147.7090  159.2450  132.2750 C   0  0  0  0  0  0  0  0  0  0  0  0
  145.3267  160.6568  134.8606 H   0  0  0  0  0  0  0  0  0  0  0  0
  146.1961  161.3972  133.4740 H   0  0  0  0  0  0  0  0  0  0  0  0
  144.4012  161.3258  133.4740 H   0  0  0  0  0  0  0  0  0  0  0  0
  144.0990  155.7420  134.1330 H   0  0  0  0  0  0  0  0  0  0  0  0
  144.4090  156.8060  132.7220 H   0  0  0  0  0  0  0  0  0  0  0  0
  148.8649  156.3509  133.3245 H   0  0  0  0  0  0  0  0  0  0  0  0
  150.7989  157.8602  131.8503 H   0  0  0  0  0  0  0  0  0  0  0  0
  151.1432  160.0525  130.6597 H   0  0  0  0  0  0  0  0  0  0  0  0
  149.4678  162.8612  131.1129 H   0  0  0  0  0  0  0  0  0  0  0  0
  150.2363  162.0221  129.7230 H   0  0  0  0  0  0  0  0  0  0  0  0
  148.4654  162.3227  129.7230 H   0  0  0  0  0  0  0  0  0  0  0  0
  147.0412  161.2018  131.5882 H   0  0  0  0  0  0  0  0  0  0  0  0
  1  2  1  0
  2  3  2  0
  2  4  1  0
  4  5  1  0
  5  6  1  0
  6  7  1  0
  6  8  2  0
  5  9  2  0
  9 10  1  0
 10 11  2  0
 11 12  1  0
 12 13  2  0
 13 14  1  0
 13 15  1  0
 15 16  2  0
 16  4  1  0
 16 10  1  0
  1 17  1  0
  1 18  1  0
  1 19  1  0
  7 20  1  0
  7 21  1  0
  9 22  1  0
 11 23  1  0
 12 24  1  0
 14 25  1  0
 14 26  1  0
 14 27  1  0
 15 28  1  0
M  END
>  <UniqueID>  (93) 
93

>  <SMILES>  (93) 
CC(=O)n1c(C(N)=O)cc2ccc(C)cc21

>  <Energy>  (93) 
66.05083429371818

>  <Genealogy>  (93) 
CC(=O)n1c(C(N)=O)cc2ccc(C)cc21 (3D coordinates assigned)
CC(=O)n1c(C(N)=O)cc2ccc(C)cc21 (optimized conformer: 66.05083429371818 kcal/mol)

>  <smiles>  (93) 
CC(=O)n1c(C(N)=O)cc2ccc(C)cc21

>  <score_type>  (93) 
oracle

>  <origin>  (93) 
adg

>  <m_score__min__energy>  (93) 
-6.0199999999999996

>  <m_primary>  (93) 
energy

$$$$
95:0
     RDKit          3D

 31 33  0  0  0  0  0  0  0  0999 V2000
  140.6070  159.5000  136.4600 N   0  0  0  0  0  0  0  0  0  0  0  0
  140.7750  158.8760  135.1900 C   0  0  0  0  0  0  0  0  0  0  0  0
  139.7570  158.5000  134.5490 O   0  0  0  0  0  0  0  0  0  0  0  0
  142.1220  158.6110  134.6460 C   0  0  0  0  0  0  0  0  0  0  0  0
  142.7450  157.3670  134.7180 C   0  0  0  0  0  0  0  0  0  0  0  0
  144.0020  157.5580  134.1920 C   0  0  0  0  0  0  0  0  0  0  0  0
  145.0420  156.6520  134.0110 C   0  0  0  0  0  0  0  0  0  0  0  0
  146.2250  157.1180  133.4150 C   0  0  0  0  0  0  0  0  0  0  0  0
  146.3480  158.4710  133.0030 C   0  0  0  0  0  0  0  0  0  0  0  0
  147.6000  158.9480  132.3610 C   0  0  0  0  0  0  0  0  0  0  0  0
  148.7760  158.1780  132.4280 C   0  0  0  0  0  0  0  0  0  0  0  0
  149.9530  158.6290  131.8230 C   0  0  0  0  0  0  0  0  0  0  0  0
  149.9690  159.8490  131.1450 C   0  0  0  0  0  0  0  0  0  0  0  0
  148.8080  160.6230  131.0700 C   0  0  0  0  0  0  0  0  0  0  0  0
  147.6290  160.1760  131.6750 C   0  0  0  0  0  0  0  0  0  0  0  0
  145.2650  159.3590  133.2040 C   0  0  0  0  0  0  0  0  0  0  0  0
  144.1050  158.8710  133.8170 C   0  0  0  0  0  0  0  0  0  0  0  0
  142.9570  159.5330  134.0880 N   0  0  0  0  0  0  0  0  0  0  0  0
  142.6570  160.8980  133.7530 C   0  0  0  0  0  0  0  0  0  0  0  0
  143.5690  161.7660  133.7480 O   0  0  0  0  0  0  0  0  0  0  0  0
  141.3640  161.2660  133.4050 O   0  0  0  0  0  0  0  0  0  0  0  0
  139.7020  159.4320  136.9770 H   0  0  0  0  0  0  0  0  0  0  0  0
  142.3219  156.4310  135.1117 H   0  0  0  0  0  0  0  0  0  0  0  0
  144.9408  155.6027  134.3251 H   0  0  0  0  0  0  0  0  0  0  0  0
  147.0669  156.4260  133.2655 H   0  0  0  0  0  0  0  0  0  0  0  0
  148.7692  157.2151  132.9598 H   0  0  0  0  0  0  0  0  0  0  0  0
  150.8681  158.0213  131.8814 H   0  0  0  0  0  0  0  0  0  0  0  0
  150.8962  160.2014  130.6694 H   0  0  0  0  0  0  0  0  0  0  0  0
  148.8214  161.5840  130.5350 H   0  0  0  0  0  0  0  0  0  0  0  0
  146.7177  160.7890  131.6141 H   0  0  0  0  0  0  0  0  0  0  0  0
  145.3330  160.4097  132.8856 H   0  0  0  0  0  0  0  0  0  0  0  0
  1  2  1  0
  2  3  2  0
  2  4  1  0
  4  5  2  0
  5  6  1  0
  6  7  2  0
  7  8  1  0
  8  9  2  0
  9 10  1  0
 10 11  2  0
 11 12  1  0
 12 13  2  0
 13 14  1  0
 14 15  2  0
  9 16  1  0
 16 17  2  0
 17 18  1  0
 18 19  1  0
 19 20  2  0
 19 21  1  0
 18  4  1  0
 17  6  1  0
 15 10  1  0
  1 22  1  0
  5 23  1  0
  7 24  1  0
  8 25  1  0
 11 26  1  0
 12 27  1  0
 13 28  1  0
 14 29  1  0
 15 30  1  0
 16 31  1  0
M  CHG  2   1  -1  21  -1
M  END
>  <UniqueID>  (94) 
94

>  <SMILES>  (94) 
[NH-]C(=O)c1cc2ccc(-c3ccccc3)cc2n1C(=O)[O-]

>  <Energy>  (94) 
79.16839624784701

>  <Genealogy>  (94) 
[NH-]C(=O)c1cc2ccc(-c3ccccc3)cc2n1C(=O)[O-] (protonated)
[NH-]C(=O)c1cc2ccc(-c3ccccc3)cc2n1C(=O)[O-] (3D coordinates assigned)
[NH-]C(=O)c1cc2ccc(-c3ccccc3)cc2n1C(=O)[O-] (optimized conformer: 79.16839624784701 kcal/mol)

>  <smiles>  (94) 
NC(=O)c1cc2ccc(-c3ccccc3)cc2n1C(=O)O

>  <score_type>  (94) 
oracle

>  <origin>  (94) 
adg

>  <m_score__min__energy>  (94) 
-7.5700000000000003

>  <m_primary>  (94) 
energy

$$$$
