0:0
     RDKit          3D

 52 55  0  0  0  0  0  0  0  0999 V2000
  138.9750  149.4800  131.3250 C   0  0  0  0  0  0  0  0  0  0  0  0
  140.1840  150.1450  131.0360 O   0  0  0  0  0  0  0  0  0  0  0  0
  141.1770  149.7470  131.9620 C   0  0  0  0  0  0  0  0  0  0  0  0
  140.9230  150.4210  133.3170 C   0  0  0  0  0  0  0  0  0  0  0  0
  142.0560  151.3690  133.7450 C   0  0  0  0  0  0  0  0  0  0  0  0
  142.3870  152.4190  132.6750 C   0  0  0  0  0  0  0  0  0  0  0  0
  141.7140  153.7250  132.9990 C   0  0  0  0  0  0  0  0  0  0  0  0
  140.3010  153.8310  132.9900 C   0  0  0  0  0  0  0  0  0  0  0  0
  139.6750  155.0610  133.2590 C   0  0  0  0  0  0  0  0  0  0  0  0
  140.4860  156.1650  133.5090 C   0  0  0  0  0  0  0  0  0  0  0  0
  140.1480  157.4670  133.8060 C   0  0  0  0  0  0  0  0  0  0  0  0
  141.3610  158.1400  133.9510 C   0  0  0  0  0  0  0  0  0  0  0  0
  141.4630  159.5940  134.1950 C   0  0  0  0  0  0  0  0  0  0  0  0
  141.9510  160.4760  133.1880 N   0  0  0  0  0  0  0  0  0  0  0  0
  141.0730  160.0700  135.2950 O   0  0  0  0  0  0  0  0  0  0  0  0
  142.4060  157.2860  133.7570 N   0  0  0  0  0  0  0  0  0  0  0  0
  143.8100  157.5590  133.8860 C   0  0  0  0  0  0  0  0  0  0  0  0
  144.5440  156.7580  134.5230 O   0  0  0  0  0  0  0  0  0  0  0  0
  144.3650  158.7430  133.2960 N   0  0  0  0  0  0  0  0  0  0  0  0
  145.7480  158.9090  132.9550 C   0  0  0  0  0  0  0  0  0  0  0  0
  146.2000  160.0040  132.2890 N   0  0  0  0  0  0  0  0  0  0  0  0
  147.5280  159.8720  132.0580 C   0  0  0  0  0  0  0  0  0  0  0  0
  148.1090  158.7480  132.5000 C   0  0  0  0  0  0  0  0  0  0  0  0
  146.9830  157.7610  133.2470 S   0  0  0  0  0  0  0  0  0  0  0  0
  149.5460  158.6590  132.1980 C   0  0  0  0  0  0  0  0  0  0  0  0
  149.8050  159.9880  131.4370 C   0  0  0  0  0  0  0  0  0  0  0  0
  148.4670  160.7760  131.3710 C   0  0  0  0  0  0  0  0  0  0  0  0
  141.8530  156.0830  133.4900 C   0  0  0  0  0  0  0  0  0  0  0  0
  142.5010  154.8670  133.2560 C   0  0  0  0  0  0  0  0  0  0  0  0
  138.8468  149.4095  132.4152 H   0  0  0  0  0  0  0  0  0  0  0  0
  138.1346  150.0428  130.8926 H   0  0  0  0  0  0  0  0  0  0  0  0
  139.0003  148.4688  130.8926 H   0  0  0  0  0  0  0  0  0  0  0  0
  141.1444  148.6544  132.0856 H   0  0  0  0  0  0  0  0  0  0  0  0
  142.1661  150.0477  131.5861 H   0  0  0  0  0  0  0  0  0  0  0  0
  139.9898  150.9996  133.2500 H   0  0  0  0  0  0  0  0  0  0  0  0
  140.8619  149.6234  134.0721 H   0  0  0  0  0  0  0  0  0  0  0  0
  141.7511  151.8886  134.6653 H   0  0  0  0  0  0  0  0  0  0  0  0
  142.9579  150.7590  133.9016 H   0  0  0  0  0  0  0  0  0  0  0  0
  143.4759  152.5708  132.6402 H   0  0  0  0  0  0  0  0  0  0  0  0
  142.0248  152.0622  131.6996 H   0  0  0  0  0  0  0  0  0  0  0  0
  139.6888  152.9438  132.7708 H   0  0  0  0  0  0  0  0  0  0  0  0
  138.5786  155.1484  133.2716 H   0  0  0  0  0  0  0  0  0  0  0  0
  139.1363  157.8867  133.9073 H   0  0  0  0  0  0  0  0  0  0  0  0
  142.1510  160.1300  132.2230 H   0  0  0  0  0  0  0  0  0  0  0  0
  143.7100  159.5200  133.0520 H   0  0  0  0  0  0  0  0  0  0  0  0
  150.1444  158.6040  133.1194 H   0  0  0  0  0  0  0  0  0  0  0  0
  149.8217  157.7614  131.6250 H   0  0  0  0  0  0  0  0  0  0  0  0
  150.5614  160.5819  131.9709 H   0  0  0  0  0  0  0  0  0  0  0  0
  150.1748  159.7799  130.4222 H   0  0  0  0  0  0  0  0  0  0  0  0
  148.5470  161.7393  131.8961 H   0  0  0  0  0  0  0  0  0  0  0  0
  148.1590  161.0305  130.3461 H   0  0  0  0  0  0  0  0  0  0  0  0
  143.5990  154.8021  133.2719 H   0  0  0  0  0  0  0  0  0  0  0  0
  1  2  1  0
  2  3  1  0
  3  4  1  0
  4  5  1  0
  5  6  1  0
  6  7  1  0
  7  8  2  0
  8  9  1  0
  9 10  2  0
 10 11  1  0
 11 12  2  0
 12 13  1  0
 13 14  1  0
 13 15  2  0
 12 16  1  0
 16 17  1  0
 17 18  2  0
 17 19  1  0
 19 20  1  0
 20 21  2  0
 21 22  1  0
 22 23  2  0
 23 24  1  0
 23 25  1  0
 25 26  1  0
 26 27  1  0
 16 28  1  0
 28 29  2  0
 29  7  1  0
 28 10  1  0
 24 20  1  0
 27 22  1  0
  1 30  1  0
  1 31  1  0
  1 32  1  0
  3 33  1  0
  3 34  1  0
  4 35  1  0
  4 36  1  0
  5 37  1  0
  5 38  1  0
  6 39  1  0
  6 40  1  0
  8 41  1  0
  9 42  1  0
 11 43  1  0
 14 44  1  0
 19 45  1  0
 25 46  1  0
 25 47  1  0
 26 48  1  0
 26 49  1  0
 27 50  1  0
 27 51  1  0
 29 52  1  0
M  CHG  1  14  -1
M  END
>  <UniqueID>  (1) 
1

>  <SMILES>  (1) 
COCCCCc1ccc2cc(C([NH-])=O)n(C(=O)Nc3nc4c(s3)CCC4)c2c1

>  <Energy>  (1) 
136.33530032964853

>  <Genealogy>  (1) 
COCCCCc1ccc2cc(C([NH-])=O)n(C(=O)Nc3nc4c(s3)CCC4)c2c1 (protonated)
COCCCCc1ccc2cc(C([NH-])=O)n(C(=O)Nc3nc4c(s3)CCC4)c2c1 (3D coordinates assigned)
COCCCCc1ccc2cc(C([NH-])=O)n(C(=O)Nc3nc4c(s3)CCC4)c2c1 (nonaromatic ring conformer: 136.33530032964853 kcal/mol)

>  <smiles>  (1) 
COCCCCc1ccc2cc(C(N)=O)n(C(=O)Nc3nc4c(s3)CCC4)c2c1

>  <score_type>  (1) 
oracle

>  <origin>  (1) 
adg

>  <m_score__min__energy>  (1) 
-9.6400000000000006

>  <m_primary>  (1) 
energy

$$$$
1:0
     RDKit          3D

 37 39  0  0  0  0  0  0  0  0999 V2000
  149.1700  150.1730  136.0980 N   0  0  0  0  0  0  0  0  0  0  0  0
  149.6900  150.8800  134.9720 C   0  0  0  0  0  0  0  0  0  0  0  0
  150.6150  150.3600  134.2910 O   0  0  0  0  0  0  0  0  0  0  0  0
  149.1220  152.1770  134.5530 C   0  0  0  0  0  0  0  0  0  0  0  0
  149.1380  152.6290  133.2370 C   0  0  0  0  0  0  0  0  0  0  0  0
  148.4660  153.8290  133.2590 C   0  0  0  0  0  0  0  0  0  0  0  0
  148.1960  154.7190  132.2240 C   0  0  0  0  0  0  0  0  0  0  0  0
  147.5140  155.9050  132.5360 C   0  0  0  0  0  0  0  0  0  0  0  0
  147.1270  156.1910  133.8730 C   0  0  0  0  0  0  0  0  0  0  0  0
  146.3960  157.4780  134.2110 C   0  0  1  0  0  0  0  0  0  0  0  0
  147.1730  158.7340  133.7810 C   0  0  0  0  0  0  0  0  0  0  0  0
  146.2810  159.4860  132.8030 C   0  0  0  0  0  0  0  0  0  0  0  0
  144.8590  158.9930  133.0520 C   0  0  2  0  0  0  0  0  0  0  0  0
  144.1530  159.8500  134.0720 C   0  0  0  0  0  0  0  0  0  0  0  0
  143.0430  159.4860  134.5410 O   0  0  0  0  0  0  0  0  0  0  0  0
  144.7080  161.0540  134.4900 O   0  0  0  0  0  0  0  0  0  0  0  0
  145.0170  157.5550  133.5410 C   0  0  0  0  0  0  0  0  0  0  0  0
  147.4190  155.2590  134.8960 C   0  0  0  0  0  0  0  0  0  0  0  0
  148.0790  154.0730  134.5520 C   0  0  0  0  0  0  0  0  0  0  0  0
  148.4780  153.0650  135.3620 N   0  0  0  0  0  0  0  0  0  0  0  0
  148.3530  153.0120  136.7940 C   0  0  0  0  0  0  0  0  0  0  0  0
  147.4360  152.3340  137.3270 O   0  0  0  0  0  0  0  0  0  0  0  0
  149.2430  153.7060  137.6040 O   0  0  0  0  0  0  0  0  0  0  0  0
  148.2990  150.4910  136.5780 H   0  0  0  0  0  0  0  0  0  0  0  0
  149.6080  149.2760  136.4020 H   0  0  0  0  0  0  0  0  0  0  0  0
  149.5909  152.1330  132.3659 H   0  0  0  0  0  0  0  0  0  0  0  0
  148.5078  154.4994  131.1922 H   0  0  0  0  0  0  0  0  0  0  0  0
  147.2762  156.6217  131.7362 H   0  0  0  0  0  0  0  0  0  0  0  0
  146.2930  157.4559  135.3059 H   0  0  0  0  0  0  0  0  0  0  0  0
  147.3909  159.3633  134.6565 H   0  0  0  0  0  0  0  0  0  0  0  0
  148.1329  158.4657  133.3156 H   0  0  0  0  0  0  0  0  0  0  0  0
  146.3456  160.5690  132.9844 H   0  0  0  0  0  0  0  0  0  0  0  0
  146.5893  159.3065  131.7624 H   0  0  0  0  0  0  0  0  0  0  0  0
  144.2408  159.0476  132.1438 H   0  0  0  0  0  0  0  0  0  0  0  0
  144.2269  157.3101  134.2660 H   0  0  0  0  0  0  0  0  0  0  0  0
  144.9350  156.8385  132.7104 H   0  0  0  0  0  0  0  0  0  0  0  0
  147.1339  155.4614  135.9389 H   0  0  0  0  0  0  0  0  0  0  0  0
  1  2  1  0
  2  3  2  0
  2  4  1  0
  4  5  2  0
  5  6  1  0
  6  7  2  0
  7  8  1  0
  8  9  2  0
  9 10  1  0
 10 11  1  0
 11 12  1  0
 12 13  1  0
 13 14  1  0
 14 15  2  0
 14 16  1  0
 13 17  1  0
  9 18  1  0
 18 19  2  0
 19 20  1  0
 20 21  1  0
 21 22  2  0
 21 23  1  0
 20  4  1  0
 19  6  1  0
 17 10  1  0
  1 24  1  0
  1 25  1  0
  5 26  1  0
  7 27  1  0
  8 28  1  0
 10 29  1  1
 11 30  1  0
 11 31  1  0
 12 32  1  0
 12 33  1  0
 13 34  1  6
 17 35  1  0
 17 36  1  0
 18 37  1  0
M  CHG  2  16  -1  23  -1
M  END
>  <UniqueID>  (2) 
2

>  <SMILES>  (2) 
NC(=O)c1cc2ccc([C@H]3CC[C@H](C(=O)[O-])C3)cc2n1C(=O)[O-]

>  <Energy>  (2) 
81.50351444308563

>  <Genealogy>  (2) 
NC(=O)c1cc2ccc(C3CCC(C(=O)[O-])C3)cc2n1C(=O)[O-] (protonated)
NC(=O)c1cc2ccc([C@H]3CC[C@H](C(=O)[O-])C3)cc2n1C(=O)[O-] (chirality)
NC(=O)c1cc2ccc([C@H]3CC[C@H](C(=O)[O-])C3)cc2n1C(=O)[O-] (3D coordinates assigned)
NC(=O)c1cc2ccc([C@H]3CC[C@H](C(=O)[O-])C3)cc2n1C(=O)[O-] (nonaromatic ring conformer: 81.50351444308563 kcal/mol)

>  <smiles>  (2) 
NC(=O)c1cc2ccc(C3CCC(C(=O)O)C3)cc2n1C(=O)O

>  <score_type>  (2) 
oracle

>  <origin>  (2) 
adg

>  <m_score__min__energy>  (2) 
-8.0399999999999991

>  <m_primary>  (2) 
energy

$$$$
2:0
     RDKit          3D

 37 38  0  0  0  0  0  0  0  0999 V2000
  139.0000  157.8110  134.3730 N   0  0  0  0  0  0  0  0  0  0  0  0
  139.8730  157.0220  133.5680 C   0  0  0  0  0  0  0  0  0  0  0  0
  139.4130  156.0170  132.9650 O   0  0  0  0  0  0  0  0  0  0  0  0
  141.3150  157.3330  133.4790 C   0  0  0  0  0  0  0  0  0  0  0  0
  142.3120  156.3600  133.5200 C   0  0  0  0  0  0  0  0  0  0  0  0
  143.5000  157.0540  133.5030 C   0  0  0  0  0  0  0  0  0  0  0  0
  144.8120  156.5880  133.5280 C   0  0  0  0  0  0  0  0  0  0  0  0
  145.8500  157.5340  133.4770 C   0  0  0  0  0  0  0  0  0  0  0  0
  145.5590  158.9190  133.3850 C   0  0  0  0  0  0  0  0  0  0  0  0
  146.6750  159.9290  133.3500 C   0  0  0  0  0  0  0  0  0  0  0  0
  148.0340  159.2550  133.1470 C   0  0  0  0  0  0  0  0  0  0  0  0
  148.6510  158.9990  134.3810 O   0  0  0  0  0  0  0  0  0  0  0  0
  144.2150  159.3540  133.3690 C   0  0  0  0  0  0  0  0  0  0  0  0
  143.2040  158.3910  133.4440 C   0  0  0  0  0  0  0  0  0  0  0  0
  141.8660  158.5790  133.4270 N   0  0  0  0  0  0  0  0  0  0  0  0
  141.1930  159.8410  133.3120 C   0  0  0  0  0  0  0  0  0  0  0  0
  141.6900  160.8720  133.8440 O   0  0  0  0  0  0  0  0  0  0  0  0
  139.9740  159.9160  132.6320 O   0  0  0  0  0  0  0  0  0  0  0  0
  139.8400  159.5950  131.2520 C   0  0  0  0  0  0  0  0  0  0  0  0
  138.4620  158.9830  130.9860 C   0  0  0  0  0  0  0  0  0  0  0  0
  137.7820  158.6130  132.2260 N   0  0  0  0  0  0  0  0  0  0  0  0
  138.7960  158.8050  134.1270 H   0  0  0  0  0  0  0  0  0  0  0  0
  142.1777  155.2689  133.5579 H   0  0  0  0  0  0  0  0  0  0  0  0
  145.0295  155.5113  133.5859 H   0  0  0  0  0  0  0  0  0  0  0  0
  146.8968  157.1975  133.5087 H   0  0  0  0  0  0  0  0  0  0  0  0
  146.4965  160.6306  132.5218 H   0  0  0  0  0  0  0  0  0  0  0  0
  146.6924  160.4583  134.3141 H   0  0  0  0  0  0  0  0  0  0  0  0
  147.8893  158.3049  132.6119 H   0  0  0  0  0  0  0  0  0  0  0  0
  148.6785  159.9284  132.5628 H   0  0  0  0  0  0  0  0  0  0  0  0
  149.2600  158.2270  134.2420 H   0  0  0  0  0  0  0  0  0  0  0  0
  143.9699  160.4241  133.2993 H   0  0  0  0  0  0  0  0  0  0  0  0
  139.9534  160.5105  130.6528 H   0  0  0  0  0  0  0  0  0  0  0  0
  140.6169  158.8675  130.9743 H   0  0  0  0  0  0  0  0  0  0  0  0
  137.8448  159.7170  130.4471 H   0  0  0  0  0  0  0  0  0  0  0  0
  138.6036  158.0700  130.3890 H   0  0  0  0  0  0  0  0  0  0  0  0
  138.1480  159.2050  133.0060 H   0  0  0  0  0  0  0  0  0  0  0  0
  138.0000  157.6160  132.4490 H   0  0  0  0  0  0  0  0  0  0  0  0
  1  2  1  0
  2  3  2  0
  2  4  1  0
  4  5  2  0
  5  6  1  0
  6  7  2  0
  7  8  1  0
  8  9  2  0
  9 10  1  0
 10 11  1  0
 11 12  1  0
  9 13  1  0
 13 14  2  0
 14 15  1  0
 15 16  1  0
 16 17  2  0
 16 18  1  0
 18 19  1  0
 19 20  1  0
 20 21  1  0
 15  4  1  0
 14  6  1  0
  1 22  1  0
  5 23  1  0
  7 24  1  0
  8 25  1  0
 10 26  1  0
 10 27  1  0
 11 28  1  0
 11 29  1  0
 12 30  1  0
 13 31  1  0
 19 32  1  0
 19 33  1  0
 20 34  1  0
 20 35  1  0
 21 36  1  0
 21 37  1  0
M  CHG  1   1  -1
M  END
>  <UniqueID>  (3) 
3

>  <SMILES>  (3) 
[NH-]C(=O)c1cc2ccc(CCO)cc2n1C(=O)OCCN

>  <Energy>  (3) 
67.98440296311894

>  <Genealogy>  (3) 
[NH-]C(=O)c1cc2ccc(CCO)cc2n1C(=O)OCCN (protonated)
[NH-]C(=O)c1cc2ccc(CCO)cc2n1C(=O)OCCN (3D coordinates assigned)
[NH-]C(=O)c1cc2ccc(CCO)cc2n1C(=O)OCCN (optimized conformer: 67.98440296311894 kcal/mol)

>  <smiles>  (3) 
NCCOC(=O)n1c(C(N)=O)cc2ccc(CCO)cc21

>  <score_type>  (3) 
oracle

>  <origin>  (3) 
adg

>  <m_score__min__energy>  (3) 
-6.54

>  <m_primary>  (3) 
energy

$$$$
3:0
     RDKit          3D

 31 32  0  0  0  0  0  0  0  0999 V2000
  141.7530  158.9750  135.9910 C   0  0  0  0  0  0  0  0  0  0  0  0
  141.6160  157.8400  134.9830 C   0  0  0  0  0  0  0  0  0  0  0  0
  143.1790  156.9060  134.8270 S   0  0  0  0  0  0  0  0  0  0  0  0
  143.7370  157.7860  133.3640 C   0  0  0  0  0  0  0  0  0  0  0  0
  142.9910  157.8370  132.3500 O   0  0  0  0  0  0  0  0  0  0  0  0
  144.9920  158.4770  133.3650 N   0  0  0  0  0  0  0  0  0  0  0  0
  145.2130  159.8190  133.4390 C   0  0  0  0  0  0  0  0  0  0  0  0
  144.1930  160.8490  133.7230 C   0  0  0  0  0  0  0  0  0  0  0  0
  142.8270  160.6420  133.3740 N   0  0  0  0  0  0  0  0  0  0  0  0
  144.5230  161.9070  134.3210 O   0  0  0  0  0  0  0  0  0  0  0  0
  146.5710  160.0980  133.2840 C   0  0  0  0  0  0  0  0  0  0  0  0
  147.1770  158.8740  133.1180 C   0  0  0  0  0  0  0  0  0  0  0  0
  148.5170  158.5560  132.9130 C   0  0  0  0  0  0  0  0  0  0  0  0
  148.8550  157.2020  132.7460 C   0  0  0  0  0  0  0  0  0  0  0  0
  147.8520  156.2000  132.7700 C   0  0  0  0  0  0  0  0  0  0  0  0
  148.2260  154.7550  132.6130 C   0  0  0  0  0  0  0  0  0  0  0  0
  148.0330  153.9130  134.1700 Cl  0  0  0  0  0  0  0  0  0  0  0  0
  146.5050  156.5590  132.9940 C   0  0  0  0  0  0  0  0  0  0  0  0
  146.2030  157.9130  133.1720 C   0  0  0  0  0  0  0  0  0  0  0  0
  141.7038  158.5671  137.0114 H   0  0  0  0  0  0  0  0  0  0  0  0
  142.7187  159.4809  135.8445 H   0  0  0  0  0  0  0  0  0  0  0  0
  140.9354  159.6962  135.8445 H   0  0  0  0  0  0  0  0  0  0  0  0
  140.8212  157.1569  135.3171 H   0  0  0  0  0  0  0  0  0  0  0  0
  141.3678  158.2719  134.0023 H   0  0  0  0  0  0  0  0  0  0  0  0
  142.5600  159.9510  132.6390 H   0  0  0  0  0  0  0  0  0  0  0  0
  147.0543  161.0861  133.2926 H   0  0  0  0  0  0  0  0  0  0  0  0
  149.2875  159.3405  132.8827 H   0  0  0  0  0  0  0  0  0  0  0  0
  149.9067  156.9172  132.5954 H   0  0  0  0  0  0  0  0  0  0  0  0
  147.5729  154.2878  131.8612 H   0  0  0  0  0  0  0  0  0  0  0  0
  149.2742  154.6832  132.2873 H   0  0  0  0  0  0  0  0  0  0  0  0
  145.7147  155.7947  133.0276 H   0  0  0  0  0  0  0  0  0  0  0  0
  1  2  1  0
  2  3  1  0
  3  4  1  0
  4  5  2  0
  4  6  1  0
  6  7  1  0
  7  8  1  0
  8  9  1  0
  8 10  2  0
  7 11  2  0
 11 12  1  0
 12 13  2  0
 13 14  1  0
 14 15  2  0
 15 16  1  0
 16 17  1  0
 15 18  1  0
 18 19  2  0
 19  6  1  0
 19 12  1  0
  1 20  1  0
  1 21  1  0
  1 22  1  0
  2 23  1  0
  2 24  1  0
  9 25  1  0
 11 26  1  0
 13 27  1  0
 14 28  1  0
 16 29  1  0
 16 30  1  0
 18 31  1  0
M  CHG  1   9  -1
M  END
>  <UniqueID>  (4) 
4

>  <SMILES>  (4) 
CCSC(=O)n1c(C([NH-])=O)cc2ccc(CCl)cc21

>  <Energy>  (4) 
63.771524806702374

>  <Genealogy>  (4) 
CCSC(=O)n1c(C([NH-])=O)cc2ccc(CCl)cc21 (protonated)
CCSC(=O)n1c(C([NH-])=O)cc2ccc(CCl)cc21 (3D coordinates assigned)
CCSC(=O)n1c(C([NH-])=O)cc2ccc(CCl)cc21 (optimized conformer: 63.771524806702374 kcal/mol)

>  <smiles>  (4) 
CCSC(=O)n1c(C(N)=O)cc2ccc(CCl)cc21

>  <score_type>  (4) 
oracle

>  <origin>  (4) 
adg

>  <m_score__min__energy>  (4) 
-7.0199999999999996

>  <m_primary>  (4) 
energy

$$$$
4:0
     RDKit          3D

 61 64  0  0  0  0  0  0  0  0999 V2000
  145.0800  158.2220  132.9890 N   0  0  0  0  0  0  0  0  0  0  0  0
  143.9190  157.9730  133.7790 C   0  0  0  0  0  0  0  0  0  0  0  0
  143.5740  158.8150  134.6500 O   0  0  0  0  0  0  0  0  0  0  0  0
  143.1520  156.7240  133.5870 C   0  0  0  0  0  0  0  0  0  0  0  0
  141.7590  156.6660  133.6100 C   0  0  0  0  0  0  0  0  0  0  0  0
  141.4450  155.3550  133.3330 C   0  0  0  0  0  0  0  0  0  0  0  0
  140.2070  154.7290  133.2610 C   0  0  0  0  0  0  0  0  0  0  0  0
  140.1780  153.3510  132.9870 C   0  0  0  0  0  0  0  0  0  0  0  0
  141.3830  152.6170  132.8010 C   0  0  0  0  0  0  0  0  0  0  0  0
  141.3410  151.1980  132.5200 N   0  0  0  0  0  0  0  0  0  0  0  0
  142.4990  150.3180  132.6010 C   0  0  0  0  0  0  0  0  0  0  0  0
  141.9630  148.9060  132.4150 C   0  0  0  0  0  0  0  0  0  0  0  0
  140.5760  149.0640  131.8010 C   0  0  0  0  0  0  0  0  0  0  0  0
  140.1310  150.4800  132.1460 C   0  0  0  0  0  0  0  0  0  0  0  0
  142.6230  153.2980  132.8970 C   0  0  0  0  0  0  0  0  0  0  0  0
  142.6160  154.6720  133.1520 C   0  0  0  0  0  0  0  0  0  0  0  0
  143.6750  155.4950  133.3110 N   0  0  0  0  0  0  0  0  0  0  0  0
  145.0570  155.1030  133.2760 C   0  0  0  0  0  0  0  0  0  0  0  0
  145.8260  155.6150  132.4170 O   0  0  0  0  0  0  0  0  0  0  0  0
  145.5400  153.9710  134.1380 C   0  0  0  0  0  0  0  0  0  0  0  0
  147.0620  154.3730  134.9880 S   0  0  0  0  0  0  0  0  0  0  0  0
  148.2370  153.8960  134.1800 O   0  0  0  0  0  0  0  0  0  0  0  0
  147.0740  153.7000  136.3330 O   0  0  0  0  0  0  0  0  0  0  0  0
  147.1220  156.1510  135.2000 C   0  0  0  0  0  0  0  0  0  0  0  0
  148.1760  156.8440  134.3050 C   0  0  0  0  0  0  0  0  0  0  0  0
  147.6040  157.7760  133.2960 N   0  0  0  0  0  0  0  0  0  0  0  0
  148.2490  157.5610  131.9650 C   0  0  0  0  0  0  0  0  0  0  0  0
  149.4370  158.5040  131.7240 C   0  0  0  0  0  0  0  0  0  0  0  0
  149.0050  159.9830  131.7790 C   0  0  0  0  0  0  0  0  0  0  0  0
  147.7290  160.1940  132.6040 C   0  0  0  0  0  0  0  0  0  0  0  0
  147.6640  159.1920  133.7630 C   0  0  0  0  0  0  0  0  0  0  0  0
  145.4990  157.4710  132.3980 H   0  0  0  0  0  0  0  0  0  0  0  0
  141.0600  157.4921  133.8075 H   0  0  0  0  0  0  0  0  0  0  0  0
  139.2765  155.2954  133.4140 H   0  0  0  0  0  0  0  0  0  0  0  0
  139.2105  152.8325  132.9153 H   0  0  0  0  0  0  0  0  0  0  0  0
  143.2206  150.5611  131.8072 H   0  0  0  0  0  0  0  0  0  0  0  0
  143.0235  150.4278  133.5616 H   0  0  0  0  0  0  0  0  0  0  0  0
  142.6172  148.3340  131.7407 H   0  0  0  0  0  0  0  0  0  0  0  0
  141.9229  148.3599  133.3690 H   0  0  0  0  0  0  0  0  0  0  0  0
  140.6222  148.9316  130.7100 H   0  0  0  0  0  0  0  0  0  0  0  0
  139.8727  148.3119  132.1879 H   0  0  0  0  0  0  0  0  0  0  0  0
  139.6578  150.9555  131.2742 H   0  0  0  0  0  0  0  0  0  0  0  0
  139.3909  150.4840  132.9598 H   0  0  0  0  0  0  0  0  0  0  0  0
  143.5718  152.7554  132.7732 H   0  0  0  0  0  0  0  0  0  0  0  0
  144.7669  153.7398  134.8855 H   0  0  0  0  0  0  0  0  0  0  0  0
  145.7351  153.1077  133.4848 H   0  0  0  0  0  0  0  0  0  0  0  0
  146.1322  156.5643  134.9560 H   0  0  0  0  0  0  0  0  0  0  0  0
  147.4083  156.3427  136.2446 H   0  0  0  0  0  0  0  0  0  0  0  0
  148.8575  157.4141  134.9535 H   0  0  0  0  0  0  0  0  0  0  0  0
  148.6866  156.0471  133.7444 H   0  0  0  0  0  0  0  0  0  0  0  0
  146.5960  157.5270  133.1680 H   0  0  0  0  0  0  0  0  0  0  0  0
  148.6073  156.5224  131.9110 H   0  0  0  0  0  0  0  0  0  0  0  0
  147.4951  157.7714  131.1921 H   0  0  0  0  0  0  0  0  0  0  0  0
  150.1981  158.3250  132.4978 H   0  0  0  0  0  0  0  0  0  0  0  0
  149.8417  158.2998  130.7217 H   0  0  0  0  0  0  0  0  0  0  0  0
  149.8177  160.5710  132.2304 H   0  0  0  0  0  0  0  0  0  0  0  0
  148.7937  160.3071  130.7493 H   0  0  0  0  0  0  0  0  0  0  0  0
  147.7256  161.2165  133.0095 H   0  0  0  0  0  0  0  0  0  0  0  0
  146.8560  160.0401  131.9527 H   0  0  0  0  0  0  0  0  0  0  0  0
  148.5598  159.3188  134.3887 H   0  0  0  0  0  0  0  0  0  0  0  0
  146.7421  159.3955  134.3275 H   0  0  0  0  0  0  0  0  0  0  0  0
  1  2  1  0
  2  3  2  0
  2  4  1  0
  4  5  2  0
  5  6  1  0
  6  7  2  0
  7  8  1  0
  8  9  2  0
  9 10  1  0
 10 11  1  0
 11 12  1  0
 12 13  1  0
 13 14  1  0
  9 15  1  0
 15 16  2  0
 16 17  1  0
 17 18  1  0
 18 19  2  0
 18 20  1  0
 20 21  1  0
 21 22  2  0
 21 23  2  0
 21 24  1  0
 24 25  1  0
 25 26  1  0
 26 27  1  0
 27 28  1  0
 28 29  1  0
 29 30  1  0
 30 31  1  0
 17  4  1  0
 31 26  1  0
 16  6  1  0
 14 10  1  0
  1 32  1  0
  5 33  1  0
  7 34  1  0
  8 35  1  0
 11 36  1  0
 11 37  1  0
 12 38  1  0
 12 39  1  0
 13 40  1  0
 13 41  1  0
 14 42  1  0
 14 43  1  0
 15 44  1  0
 20 45  1  0
 20 46  1  0
 24 47  1  0
 24 48  1  0
 25 49  1  0
 25 50  1  0
 26 51  1  0
 27 52  1  0
 27 53  1  0
 28 54  1  0
 28 55  1  0
 29 56  1  0
 29 57  1  0
 30 58  1  0
 30 59  1  0
 31 60  1  0
 31 61  1  0
M  CHG  2   1  -1  26   1
M  END
>  <UniqueID>  (5) 
5

>  <SMILES>  (5) 
[NH-]C(=O)c1cc2ccc(N3CCCC3)cc2n1C(=O)CS(=O)(=O)CC[NH+]1CCCCC1

>  <Energy>  (5) 
105.8410148578331

>  <Genealogy>  (5) 
[NH-]C(=O)c1cc2ccc(N3CCCC3)cc2n1C(=O)CS(=O)(=O)CC[NH+]1CCCCC1 (protonated)
[NH-]C(=O)c1cc2ccc(N3CCCC3)cc2n1C(=O)CS(=O)(=O)CC[NH+]1CCCCC1 (3D coordinates assigned)
[NH-]C(=O)c1cc2ccc(N3CCCC3)cc2n1C(=O)CS(=O)(=O)CC[NH+]1CCCCC1 (nonaromatic ring conformer: 105.8410148578331 kcal/mol)

>  <smiles>  (5) 
NC(=O)c1cc2ccc(N3CCCC3)cc2n1C(=O)CS(=O)(=O)CCN1CCCCC1

>  <score_type>  (5) 
oracle

>  <origin>  (5) 
adg

>  <m_score__min__energy>  (5) 
-8.9399999999999995

>  <m_primary>  (5) 
energy

$$$$
5:0
     RDKit          3D

 54 55  0  0  0  0  0  0  0  0999 V2000
  149.5930  158.4310  131.8990 C   0  0  0  0  0  0  0  0  0  0  0  0
  149.3310  159.8260  131.5130 N   0  0  0  0  0  0  0  0  0  0  0  0
  149.7300  160.0410  130.1120 C   0  0  0  0  0  0  0  0  0  0  0  0
  147.9100  160.1900  131.7300 C   0  0  0  0  0  0  0  0  0  0  0  0
  147.6030  160.2420  133.2310 C   0  0  0  0  0  0  0  0  0  0  0  0
  146.1280  160.1030  133.5010 C   0  0  0  0  0  0  0  0  0  0  0  0
  145.3610  161.2320  133.8860 C   0  0  0  0  0  0  0  0  0  0  0  0
  143.9800  161.1130  134.1150 C   0  0  0  0  0  0  0  0  0  0  0  0
  143.3930  159.8640  133.9340 C   0  0  0  0  0  0  0  0  0  0  0  0
  142.0850  159.4670  134.0960 C   0  0  0  0  0  0  0  0  0  0  0  0
  142.0660  158.1130  133.7700 C   0  0  0  0  0  0  0  0  0  0  0  0
  140.8280  157.3080  133.7210 C   0  0  0  0  0  0  0  0  0  0  0  0
  140.8470  155.9590  133.2620 N   0  0  0  0  0  0  0  0  0  0  0  0
  139.7290  157.8340  134.0440 O   0  0  0  0  0  0  0  0  0  0  0  0
  143.3150  157.6860  133.4280 N   0  0  0  0  0  0  0  0  0  0  0  0
  143.7360  156.3560  133.0880 C   0  0  0  0  0  0  0  0  0  0  0  0
  143.6110  155.9380  131.9050 O   0  0  0  0  0  0  0  0  0  0  0  0
  144.2530  155.5200  134.0810 O   0  0  0  0  0  0  0  0  0  0  0  0
  145.4010  154.7030  133.8860 C   0  0  0  0  0  0  0  0  0  0  0  0
  144.9650  153.2410  133.7840 C   0  0  0  0  0  0  0  0  0  0  0  0
  143.7600  153.0250  132.8440 C   0  0  0  0  0  0  0  0  0  0  0  0
  142.4820  153.5890  133.3450 N   0  0  0  0  0  0  0  0  0  0  0  0
  142.3020  153.3520  134.7900 C   0  0  0  0  0  0  0  0  0  0  0  0
  141.3570  152.9920  132.6050 C   0  0  0  0  0  0  0  0  0  0  0  0
  144.1150  158.7700  133.5330 C   0  0  0  0  0  0  0  0  0  0  0  0
  145.4970  158.8520  133.3240 C   0  0  0  0  0  0  0  0  0  0  0  0
  149.6081  158.3507  132.9960 H   0  0  0  0  0  0  0  0  0  0  0  0
  148.8007  157.7837  131.4948 H   0  0  0  0  0  0  0  0  0  0  0  0
  150.5661  158.1153  131.4948 H   0  0  0  0  0  0  0  0  0  0  0  0
  150.6980  160.5626  130.0824 H   0  0  0  0  0  0  0  0  0  0  0  0
  149.8211  159.0698  129.6035 H   0  0  0  0  0  0  0  0  0  0  0  0
  148.9690  160.6512  129.6035 H   0  0  0  0  0  0  0  0  0  0  0  0
  147.7150  161.1766  131.2843 H   0  0  0  0  0  0  0  0  0  0  0  0
  147.2679  159.4323  131.2572 H   0  0  0  0  0  0  0  0  0  0  0  0
  148.1365  159.4214  133.7330 H   0  0  0  0  0  0  0  0  0  0  0  0
  147.9323  161.2185  133.6156 H   0  0  0  0  0  0  0  0  0  0  0  0
  145.8515  162.2092  134.0063 H   0  0  0  0  0  0  0  0  0  0  0  0
  143.3807  161.9807  134.4279 H   0  0  0  0  0  0  0  0  0  0  0  0
  141.2348  160.0876  134.4153 H   0  0  0  0  0  0  0  0  0  0  0  0
  141.5880  155.6250  132.6070 H   0  0  0  0  0  0  0  0  0  0  0  0
  145.9112  155.0005  132.9580 H   0  0  0  0  0  0  0  0  0  0  0  0
  146.0904  154.8251  134.7344 H   0  0  0  0  0  0  0  0  0  0  0  0
  145.8123  152.6500  133.4062 H   0  0  0  0  0  0  0  0  0  0  0  0
  144.6529  152.9242  134.7901 H   0  0  0  0  0  0  0  0  0  0  0  0
  143.9889  153.4974  131.8773 H   0  0  0  0  0  0  0  0  0  0  0  0
  143.6138  151.9375  132.7663 H   0  0  0  0  0  0  0  0  0  0  0  0
  142.4560  154.6200  133.1670 H   0  0  0  0  0  0  0  0  0  0  0  0
  142.8716  154.1020  135.3583 H   0  0  0  0  0  0  0  0  0  0  0  0
  141.2348  153.4318  135.0445 H   0  0  0  0  0  0  0  0  0  0  0  0
  142.6653  152.3454  135.0445 H   0  0  0  0  0  0  0  0  0  0  0  0
  140.6167  152.5992  133.3175 H   0  0  0  0  0  0  0  0  0  0  0  0
  140.8861  153.7589  131.9724 H   0  0  0  0  0  0  0  0  0  0  0  0
  141.7281  152.1722  131.9724 H   0  0  0  0  0  0  0  0  0  0  0  0
  146.0765  157.9646  133.0294 H   0  0  0  0  0  0  0  0  0  0  0  0
  1  2  1  0
  2  3  1  0
  2  4  1  0
  4  5  1  0
  5  6  1  0
  6  7  2  0
  7  8  1  0
  8  9  2  0
  9 10  1  0
 10 11  2  0
 11 12  1  0
 12 13  1  0
 12 14  2  0
 11 15  1  0
 15 16  1  0
 16 17  2  0
 16 18  1  0
 18 19  1  0
 19 20  1  0
 20 21  1  0
 21 22  1  0
 22 23  1  0
 22 24  1  0
 15 25  1  0
 25 26  2  0
 26  6  1  0
 25  9  1  0
  1 27  1  0
  1 28  1  0
  1 29  1  0
  3 30  1  0
  3 31  1  0
  3 32  1  0
  4 33  1  0
  4 34  1  0
  5 35  1  0
  5 36  1  0
  7 37  1  0
  8 38  1  0
 10 39  1  0
 13 40  1  0
 19 41  1  0
 19 42  1  0
 20 43  1  0
 20 44  1  0
 21 45  1  0
 21 46  1  0
 22 47  1  0
 23 48  1  0
 23 49  1  0
 23 50  1  0
 24 51  1  0
 24 52  1  0
 24 53  1  0
 26 54  1  0
M  CHG  2  13  -1  22   1
M  END
>  <UniqueID>  (6) 
6

>  <SMILES>  (6) 
CN(C)CCc1ccc2cc(C([NH-])=O)n(C(=O)OCCC[NH+](C)C)c2c1

>  <Energy>  (6) 
87.40568131880863

>  <Genealogy>  (6) 
CN(C)CCc1ccc2cc(C([NH-])=O)n(C(=O)OCCC[NH+](C)C)c2c1 (protonated)
CN(C)CCc1ccc2cc(C([NH-])=O)n(C(=O)OCCC[NH+](C)C)c2c1 (3D coordinates assigned)
CN(C)CCc1ccc2cc(C([NH-])=O)n(C(=O)OCCC[NH+](C)C)c2c1 (optimized conformer: 87.40568131880863 kcal/mol)

>  <smiles>  (6) 
CN(C)CCCOC(=O)n1c(C(N)=O)cc2ccc(CCN(C)C)cc21

>  <score_type>  (6) 
oracle

>  <origin>  (6) 
adg

>  <m_score__min__energy>  (6) 
-5.7400000000000002

>  <m_primary>  (6) 
energy

$$$$
6:0
     RDKit          3D

 39 41  0  0  0  0  0  0  0  0999 V2000
  139.3220  147.8640  130.3140 C   0  0  0  0  0  0  0  0  0  0  0  0
  140.6070  148.2750  130.7630 O   0  0  0  0  0  0  0  0  0  0  0  0
  140.8140  149.4550  131.4860 C   0  0  0  0  0  0  0  0  0  0  0  0
  139.7290  150.2870  131.7670 C   0  0  0  0  0  0  0  0  0  0  0  0
  139.9350  151.4650  132.4860 C   0  0  0  0  0  0  0  0  0  0  0  0
  141.2240  151.8180  132.9060 C   0  0  0  0  0  0  0  0  0  0  0  0
  141.4210  153.0210  133.6680 N   0  0  0  0  0  0  0  0  0  0  0  0
  140.6140  154.2010  133.5320 C   0  0  0  0  0  0  0  0  0  0  0  0
  139.5070  154.1540  132.9310 O   0  0  0  0  0  0  0  0  0  0  0  0
  141.0580  155.4390  134.1080 N   0  0  0  0  0  0  0  0  0  0  0  0
  141.8700  155.6160  135.1900 C   0  0  0  0  0  0  0  0  0  0  0  0
  142.5940  154.5510  135.9140 C   0  0  0  0  0  0  0  0  0  0  0  0
  143.9940  154.6540  136.1630 N   0  0  0  0  0  0  0  0  0  0  0  0
  141.9610  153.5560  136.3570 O   0  0  0  0  0  0  0  0  0  0  0  0
  141.9900  156.9700  135.4930 C   0  0  0  0  0  0  0  0  0  0  0  0
  141.2260  157.6250  134.5520 C   0  0  0  0  0  0  0  0  0  0  0  0
  140.9660  158.9820  134.3960 C   0  0  0  0  0  0  0  0  0  0  0  0
  140.1040  159.3720  133.3580 C   0  0  0  0  0  0  0  0  0  0  0  0
  139.5250  158.4080  132.4930 C   0  0  0  0  0  0  0  0  0  0  0  0
  138.5510  158.8350  131.4240 C   0  0  0  0  0  0  0  0  0  0  0  0
  138.7320  160.1710  131.1060 F   0  0  0  0  0  0  0  0  0  0  0  0
  138.7300  158.0890  130.2720 F   0  0  0  0  0  0  0  0  0  0  0  0
  137.2610  158.6520  131.8840 F   0  0  0  0  0  0  0  0  0  0  0  0
  139.7940  157.0350  132.7020 C   0  0  0  0  0  0  0  0  0  0  0  0
  140.6730  156.6780  133.7300 C   0  0  0  0  0  0  0  0  0  0  0  0
  142.2860  150.9420  132.6190 C   0  0  0  0  0  0  0  0  0  0  0  0
  142.0580  149.7980  131.9210 N   0  0  0  0  0  0  0  0  0  0  0  0
  138.6787  147.6582  131.1822 H   0  0  0  0  0  0  0  0  0  0  0  0
  138.8730  148.6634  129.7062 H   0  0  0  0  0  0  0  0  0  0  0  0
  139.4202  146.9524  129.7062 H   0  0  0  0  0  0  0  0  0  0  0  0
  138.7195  150.0161  131.4243 H   0  0  0  0  0  0  0  0  0  0  0  0
  139.0827  152.1185  132.7237 H   0  0  0  0  0  0  0  0  0  0  0  0
  142.1440  153.0170  134.4210 H   0  0  0  0  0  0  0  0  0  0  0  0
  144.3550  154.9010  137.1120 H   0  0  0  0  0  0  0  0  0  0  0  0
  142.5716  157.4210  136.3105 H   0  0  0  0  0  0  0  0  0  0  0  0
  141.4214  159.7271  135.0649 H   0  0  0  0  0  0  0  0  0  0  0  0
  139.8750  160.4382  133.2139 H   0  0  0  0  0  0  0  0  0  0  0  0
  139.3233  156.2665  132.0713 H   0  0  0  0  0  0  0  0  0  0  0  0
  143.3036  151.1831  132.9601 H   0  0  0  0  0  0  0  0  0  0  0  0
  1  2  1  0
  2  3  1  0
  3  4  2  0
  4  5  1  0
  5  6  2  0
  6  7  1  0
  7  8  1  0
  8  9  2  0
  8 10  1  0
 10 11  1  0
 11 12  1  0
 12 13  1  0
 12 14  2  0
 11 15  2  0
 15 16  1  0
 16 17  2  0
 17 18  1  0
 18 19  2  0
 19 20  1  0
 20 21  1  0
 20 22  1  0
 20 23  1  0
 19 24  1  0
 24 25  2  0
  6 26  1  0
 26 27  2  0
 27  3  1  0
 25 10  1  0
 25 16  1  0
  1 28  1  0
  1 29  1  0
  1 30  1  0
  4 31  1  0
  5 32  1  0
  7 33  1  0
 13 34  1  0
 15 35  1  0
 17 36  1  0
 18 37  1  0
 24 38  1  0
 26 39  1  0
M  CHG  1  13  -1
M  END
>  <UniqueID>  (7) 
7

>  <SMILES>  (7) 
COc1ccc(NC(=O)n2c(C([NH-])=O)cc3ccc(C(F)(F)F)cc32)cn1

>  <Energy>  (7) 
83.34738815314746

>  <Genealogy>  (7) 
COc1ccc(NC(=O)n2c(C([NH-])=O)cc3ccc(C(F)(F)F)cc32)cn1 (protonated)
COc1ccc(NC(=O)n2c(C([NH-])=O)cc3ccc(C(F)(F)F)cc32)cn1 (3D coordinates assigned)
COc1ccc(NC(=O)n2c(C([NH-])=O)cc3ccc(C(F)(F)F)cc32)cn1 (optimized conformer: 83.34738815314746 kcal/mol)

>  <smiles>  (7) 
COc1ccc(NC(=O)n2c(C(N)=O)cc3ccc(C(F)(F)F)cc32)cn1

>  <score_type>  (7) 
oracle

>  <origin>  (7) 
adg

>  <m_score__min__energy>  (7) 
-7.0999999999999996

>  <m_primary>  (7) 
energy

$$$$
7:0
     RDKit          3D

 39 40  0  0  0  0  0  0  0  0999 V2000
  138.4270  157.8910  133.7330 C   0  0  0  0  0  0  0  0  0  0  0  0
  139.7610  157.7910  133.1310 N   0  0  0  0  0  0  0  0  0  0  0  0
  140.1770  158.7700  132.1130 C   0  0  0  0  0  0  0  0  0  0  0  0
  138.9620  159.4790  131.5080 C   0  0  0  0  0  0  0  0  0  0  0  0
  139.1180  160.8710  131.5790 O   0  0  0  0  0  0  0  0  0  0  0  0
  140.6880  156.7700  133.5660 C   0  0  0  0  0  0  0  0  0  0  0  0
  140.7160  155.6590  132.9650 O   0  0  0  0  0  0  0  0  0  0  0  0
  141.6700  157.0290  134.6840 C   0  0  0  0  0  0  0  0  0  0  0  0
  142.7500  157.9960  134.2750 C   0  0  0  0  0  0  0  0  0  0  0  0
  142.4640  159.3820  134.1920 C   0  0  0  0  0  0  0  0  0  0  0  0
  143.4710  160.3020  133.8590 C   0  0  0  0  0  0  0  0  0  0  0  0
  144.7500  159.8090  133.6130 C   0  0  0  0  0  0  0  0  0  0  0  0
  145.9110  160.4810  133.3100 C   0  0  0  0  0  0  0  0  0  0  0  0
  146.8860  159.4950  133.1940 C   0  0  0  0  0  0  0  0  0  0  0  0
  148.2830  159.7780  132.8110 C   0  0  0  0  0  0  0  0  0  0  0  0
  149.3550  158.9430  133.2540 N   0  0  0  0  0  0  0  0  0  0  0  0
  148.5300  160.7380  132.0340 O   0  0  0  0  0  0  0  0  0  0  0  0
  146.3570  158.2620  133.4290 N   0  0  0  0  0  0  0  0  0  0  0  0
  147.0650  157.0140  133.5230 C   0  0  0  0  0  0  0  0  0  0  0  0
  146.8440  156.2220  134.4760 O   0  0  0  0  0  0  0  0  0  0  0  0
  148.0110  156.6700  132.5630 O   0  0  0  0  0  0  0  0  0  0  0  0
  145.0440  158.4700  133.6820 C   0  0  0  0  0  0  0  0  0  0  0  0
  144.0630  157.5340  134.0320 C   0  0  0  0  0  0  0  0  0  0  0  0
  138.5180  157.8842  134.8292 H   0  0  0  0  0  0  0  0  0  0  0  0
  137.9485  158.8275  133.4106 H   0  0  0  0  0  0  0  0  0  0  0  0
  137.8142  157.0363  133.4106 H   0  0  0  0  0  0  0  0  0  0  0  0
  140.8347  159.5178  132.5801 H   0  0  0  0  0  0  0  0  0  0  0  0
  140.7091  158.2381  131.3106 H   0  0  0  0  0  0  0  0  0  0  0  0
  138.8563  159.1802  130.4547 H   0  0  0  0  0  0  0  0  0  0  0  0
  138.0646  159.1928  132.0761 H   0  0  0  0  0  0  0  0  0  0  0  0
  138.2600  161.2380  131.9170 H   0  0  0  0  0  0  0  0  0  0  0  0
  141.1264  157.4470  135.5441 H   0  0  0  0  0  0  0  0  0  0  0  0
  142.1500  156.0735  134.9422 H   0  0  0  0  0  0  0  0  0  0  0  0
  141.4431  159.7402  134.3905 H   0  0  0  0  0  0  0  0  0  0  0  0
  143.2563  161.3789  133.7944 H   0  0  0  0  0  0  0  0  0  0  0  0
  146.0411  161.5662  133.1858 H   0  0  0  0  0  0  0  0  0  0  0  0
  149.1680  158.0500  133.7590 H   0  0  0  0  0  0  0  0  0  0  0  0
  150.3410  159.1790  133.0030 H   0  0  0  0  0  0  0  0  0  0  0  0
  144.3086  156.4650  134.1157 H   0  0  0  0  0  0  0  0  0  0  0  0
  1  2  1  0
  2  3  1  0
  3  4  1  0
  4  5  1  0
  2  6  1  0
  6  7  2  0
  6  8  1  0
  8  9  1  0
  9 10  2  0
 10 11  1  0
 11 12  2  0
 12 13  1  0
 13 14  2  0
 14 15  1  0
 15 16  1  0
 15 17  2  0
 14 18  1  0
 18 19  1  0
 19 20  2  0
 19 21  1  0
 18 22  1  0
 22 23  2  0
 23  9  1  0
 22 12  1  0
  1 24  1  0
  1 25  1  0
  1 26  1  0
  3 27  1  0
  3 28  1  0
  4 29  1  0
  4 30  1  0
  5 31  1  0
  8 32  1  0
  8 33  1  0
 10 34  1  0
 11 35  1  0
 13 36  1  0
 16 37  1  0
 16 38  1  0
 23 39  1  0
M  CHG  1  21  -1
M  END
>  <UniqueID>  (8) 
8

>  <SMILES>  (8) 
CN(CCO)C(=O)Cc1ccc2cc(C(N)=O)n(C(=O)[O-])c2c1

>  <Energy>  (8) 
74.90946594394478

>  <Genealogy>  (8) 
CN(CCO)C(=O)Cc1ccc2cc(C(N)=O)n(C(=O)[O-])c2c1 (protonated)
CN(CCO)C(=O)Cc1ccc2cc(C(N)=O)n(C(=O)[O-])c2c1 (3D coordinates assigned)
CN(CCO)C(=O)Cc1ccc2cc(C(N)=O)n(C(=O)[O-])c2c1 (optimized conformer: 74.90946594394478 kcal/mol)

>  <smiles>  (8) 
CN(CCO)C(=O)Cc1ccc2cc(C(N)=O)n(C(=O)O)c2c1

>  <score_type>  (8) 
oracle

>  <origin>  (8) 
adg

>  <m_score__min__energy>  (8) 
-6.6600000000000001

>  <m_primary>  (8) 
energy

$$$$
8:0
     RDKit          3D

 49 52  0  0  0  0  0  0  0  0999 V2000
  149.8240  159.8480  131.1950 C   0  0  0  0  0  0  0  0  0  0  0  0
  148.7500  159.5060  132.1180 N   0  0  0  0  0  0  0  0  0  0  0  0
  147.4720  159.9170  132.0250 C   0  0  0  0  0  0  0  0  0  0  0  0
  146.7540  159.3230  133.0470 C   0  0  0  0  0  0  0  0  0  0  0  0
  145.3070  159.4720  133.3460 C   0  0  0  0  0  0  0  0  0  0  0  0
  144.7550  160.7530  133.6180 C   0  0  0  0  0  0  0  0  0  0  0  0
  143.3880  160.9010  133.9020 C   0  0  0  0  0  0  0  0  0  0  0  0
  142.5920  159.7620  133.8990 C   0  0  0  0  0  0  0  0  0  0  0  0
  141.2480  159.6210  134.1560 C   0  0  0  0  0  0  0  0  0  0  0  0
  140.9840  158.2580  134.0180 C   0  0  0  0  0  0  0  0  0  0  0  0
  139.6380  157.6520  134.1450 C   0  0  0  0  0  0  0  0  0  0  0  0
  139.1140  156.8060  133.1190 N   0  0  0  0  0  0  0  0  0  0  0  0
  138.9430  157.8640  135.1730 O   0  0  0  0  0  0  0  0  0  0  0  0
  142.1230  157.5870  133.6820 N   0  0  0  0  0  0  0  0  0  0  0  0
  142.2620  156.1700  133.4710 C   0  0  0  0  0  0  0  0  0  0  0  0
  141.2900  155.5130  133.0110 O   0  0  0  0  0  0  0  0  0  0  0  0
  143.5360  155.4420  133.8070 C   0  0  0  0  0  0  0  0  0  0  0  0
  144.4110  155.3210  132.6190 N   0  0  0  0  0  0  0  0  0  0  0  0
  144.1330  154.1130  131.8120 C   0  0  0  0  0  0  0  0  0  0  0  0
  144.7220  152.8330  132.4370 C   0  0  0  0  0  0  0  0  0  0  0  0
  146.1510  152.9850  132.7330 N   0  0  0  0  0  0  0  0  0  0  0  0
  146.3780  154.1450  133.6010 C   0  0  0  0  0  0  0  0  0  0  0  0
  145.8450  155.4300  132.9520 C   0  0  0  0  0  0  0  0  0  0  0  0
  143.0990  158.5200  133.6220 C   0  0  0  0  0  0  0  0  0  0  0  0
  144.4610  158.3380  133.3630 C   0  0  0  0  0  0  0  0  0  0  0  0
  147.6820  158.5410  133.7210 C   0  0  0  0  0  0  0  0  0  0  0  0
  148.8860  158.6640  133.1280 N   0  0  0  0  0  0  0  0  0  0  0  0
  150.7204  160.1335  131.7651 H   0  0  0  0  0  0  0  0  0  0  0  0
  150.0538  158.9786  130.5615 H   0  0  0  0  0  0  0  0  0  0  0  0
  149.5088  160.6902  130.5615 H   0  0  0  0  0  0  0  0  0  0  0  0
  147.0686  160.6056  131.2679 H   0  0  0  0  0  0  0  0  0  0  0  0
  145.4066  161.6392  133.6059 H   0  0  0  0  0  0  0  0  0  0  0  0
  142.9594  161.8902  134.1206 H   0  0  0  0  0  0  0  0  0  0  0  0
  140.5325  160.4152  134.4155 H   0  0  0  0  0  0  0  0  0  0  0  0
  138.1800  156.3560  133.2400 H   0  0  0  0  0  0  0  0  0  0  0  0
  139.6230  156.6580  132.2200 H   0  0  0  0  0  0  0  0  0  0  0  0
  144.0707  155.9973  134.5917 H   0  0  0  0  0  0  0  0  0  0  0  0
  143.2787  154.4308  134.1553 H   0  0  0  0  0  0  0  0  0  0  0  0
  143.0433  153.9921  131.7229 H   0  0  0  0  0  0  0  0  0  0  0  0
  144.6078  154.2526  130.8296 H   0  0  0  0  0  0  0  0  0  0  0  0
  144.1853  152.6124  133.3715 H   0  0  0  0  0  0  0  0  0  0  0  0
  144.6057  152.0120  131.7141 H   0  0  0  0  0  0  0  0  0  0  0  0
  146.6680  153.1290  131.8330 H   0  0  0  0  0  0  0  0  0  0  0  0
  145.8611  153.9844  134.5586 H   0  0  0  0  0  0  0  0  0  0  0  0
  147.4605  154.2563  133.7615 H   0  0  0  0  0  0  0  0  0  0  0  0
  145.9856  156.2672  133.6516 H   0  0  0  0  0  0  0  0  0  0  0  0
  146.4014  155.5980  132.0181 H   0  0  0  0  0  0  0  0  0  0  0  0
  144.8668  157.3328  133.1761 H   0  0  0  0  0  0  0  0  0  0  0  0
  147.4680  157.9180  134.6019 H   0  0  0  0  0  0  0  0  0  0  0  0
  1  2  1  0
  2  3  1  0
  3  4  2  0
  4  5  1  0
  5  6  2  0
  6  7  1  0
  7  8  2  0
  8  9  1  0
  9 10  2  0
 10 11  1  0
 11 12  1  0
 11 13  2  0
 10 14  1  0
 14 15  1  0
 15 16  2  0
 15 17  1  0
 17 18  1  0
 18 19  1  0
 19 20  1  0
 20 21  1  0
 21 22  1  0
 22 23  1  0
 14 24  1  0
 24 25  2  0
  4 26  1  0
 26 27  2  0
 27  2  1  0
 25  5  1  0
 24  8  1  0
 23 18  1  0
  1 28  1  0
  1 29  1  0
  1 30  1  0
  3 31  1  0
  6 32  1  0
  7 33  1  0
  9 34  1  0
 12 35  1  0
 12 36  1  0
 17 37  1  0
 17 38  1  0
 19 39  1  0
 19 40  1  0
 20 41  1  0
 20 42  1  0
 21 43  1  0
 22 44  1  0
 22 45  1  0
 23 46  1  0
 23 47  1  0
 25 48  1  0
 26 49  1  0
M  END
>  <UniqueID>  (9) 
9

>  <SMILES>  (9) 
Cn1cc(-c2ccc3cc(C(N)=O)n(C(=O)CN4CCNCC4)c3c2)cn1

>  <Energy>  (9) 
123.78707753540273

>  <Genealogy>  (9) 
Cn1cc(-c2ccc3cc(C(N)=O)n(C(=O)CN4CCNCC4)c3c2)cn1 (3D coordinates assigned)
Cn1cc(-c2ccc3cc(C(N)=O)n(C(=O)CN4CCNCC4)c3c2)cn1 (nonaromatic ring conformer: 123.78707753540273 kcal/mol)

>  <smiles>  (9) 
Cn1cc(-c2ccc3cc(C(N)=O)n(C(=O)CN4CCNCC4)c3c2)cn1

>  <score_type>  (9) 
oracle

>  <origin>  (9) 
adg

>  <m_score__min__energy>  (9) 
-9.0399999999999991

>  <m_primary>  (9) 
energy

$$$$
9:0
     RDKit          3D

 42 43  0  0  0  0  0  0  0  0999 V2000
  146.8440  160.4360  132.6960 N   0  0  0  0  0  0  0  0  0  0  0  0
  147.7070  159.3720  133.1000 C   0  0  0  0  0  0  0  0  0  0  0  0
  148.9540  159.5300  133.0330 O   0  0  0  0  0  0  0  0  0  0  0  0
  147.1640  158.1140  133.6530 C   0  0  0  0  0  0  0  0  0  0  0  0
  147.9620  157.0380  134.0330 C   0  0  0  0  0  0  0  0  0  0  0  0
  147.0920  156.1100  134.5590 C   0  0  0  0  0  0  0  0  0  0  0  0
  147.3450  154.8570  135.1100 C   0  0  0  0  0  0  0  0  0  0  0  0
  146.2520  154.1100  135.5790 C   0  0  0  0  0  0  0  0  0  0  0  0
  144.9330  154.6130  135.4630 C   0  0  0  0  0  0  0  0  0  0  0  0
  143.7740  153.8270  136.0200 C   0  0  0  0  0  0  0  0  0  0  0  0
  142.4890  154.0520  135.2120 C   0  0  0  0  0  0  0  0  0  0  0  0
  142.5050  153.2790  133.9720 N   0  0  0  0  0  0  0  0  0  0  0  0
  141.3570  152.6270  133.4220 C   0  0  0  0  0  0  0  0  0  0  0  0
  140.5850  153.2490  132.6400 O   0  0  0  0  0  0  0  0  0  0  0  0
  141.1170  151.2880  133.7440 O   0  0  0  0  0  0  0  0  0  0  0  0
  141.2960  150.2150  132.8210 C   0  0  0  0  0  0  0  0  0  0  0  0
  140.1800  150.2010  131.7770 C   0  0  0  0  0  0  0  0  0  0  0  0
  139.0960  150.9600  132.2330 O   0  0  0  0  0  0  0  0  0  0  0  0
  144.7130  155.8820  134.8850 C   0  0  0  0  0  0  0  0  0  0  0  0
  145.8240  156.6240  134.4680 C   0  0  0  0  0  0  0  0  0  0  0  0
  145.8520  157.8580  133.9170 N   0  0  0  0  0  0  0  0  0  0  0  0
  144.7210  158.6900  133.6120 C   0  0  0  0  0  0  0  0  0  0  0  0
  144.0020  158.4270  132.6100 O   0  0  0  0  0  0  0  0  0  0  0  0
  144.4260  159.8230  134.4380 N   0  0  0  0  0  0  0  0  0  0  0  0
  143.9300  161.0790  133.9690 C   0  0  0  0  0  0  0  0  0  0  0  0
  144.7270  162.0380  133.8080 O   0  0  0  0  0  0  0  0  0  0  0  0
  142.5800  161.2570  133.6870 O   0  0  0  0  0  0  0  0  0  0  0  0
  147.2430  161.2990  132.2660 H   0  0  0  0  0  0  0  0  0  0  0  0
  145.8210  160.4110  132.9040 H   0  0  0  0  0  0  0  0  0  0  0  0
  149.0539  156.9487  133.9340 H   0  0  0  0  0  0  0  0  0  0  0  0
  148.3702  154.4637  135.1761 H   0  0  0  0  0  0  0  0  0  0  0  0
  146.4218  153.1259  136.0403 H   0  0  0  0  0  0  0  0  0  0  0  0
  144.0261  152.7565  135.9963 H   0  0  0  0  0  0  0  0  0  0  0  0
  143.5935  154.1692  137.0497 H   0  0  0  0  0  0  0  0  0  0  0  0
  141.6248  153.7416  135.8177 H   0  0  0  0  0  0  0  0  0  0  0  0
  142.4191  155.1198  134.9571 H   0  0  0  0  0  0  0  0  0  0  0  0
  142.2637  150.3356  132.3120 H   0  0  0  0  0  0  0  0  0  0  0  0
  141.2693  149.2659  133.3764 H   0  0  0  0  0  0  0  0  0  0  0  0
  140.5551  150.6286  130.8355 H   0  0  0  0  0  0  0  0  0  0  0  0
  139.8528  149.1644  131.6083 H   0  0  0  0  0  0  0  0  0  0  0  0
  139.4260  151.4620  133.0230 H   0  0  0  0  0  0  0  0  0  0  0  0
  143.6937  156.2778  134.7653 H   0  0  0  0  0  0  0  0  0  0  0  0
  1  2  1  0
  2  3  2  0
  2  4  1  0
  4  5  2  0
  5  6  1  0
  6  7  2  0
  7  8  1  0
  8  9  2  0
  9 10  1  0
 10 11  1  0
 11 12  1  0
 12 13  1  0
 13 14  2  0
 13 15  1  0
 15 16  1  0
 16 17  1  0
 17 18  1  0
  9 19  1  0
 19 20  2  0
 20 21  1  0
 21 22  1  0
 22 23  2  0
 22 24  1  0
 24 25  1  0
 25 26  2  0
 25 27  1  0
 21  4  1  0
 20  6  1  0
  1 28  1  0
  1 29  1  0
  5 30  1  0
  7 31  1  0
  8 32  1  0
 10 33  1  0
 10 34  1  0
 11 35  1  0
 11 36  1  0
 16 37  1  0
 16 38  1  0
 17 39  1  0
 17 40  1  0
 18 41  1  0
 19 42  1  0
M  CHG  3  12  -1  24  -1  27  -1
M  END
>  <UniqueID>  (10) 
10

>  <SMILES>  (10) 
NC(=O)c1cc2ccc(CC[N-]C(=O)OCCO)cc2n1C(=O)[N-]C(=O)[O-]

>  <Energy>  (10) 
71.9280880164413

>  <Genealogy>  (10) 
NC(=O)c1cc2ccc(CC[N-]C(=O)OCCO)cc2n1C(=O)[N-]C(=O)[O-] (protonated)
NC(=O)c1cc2ccc(CC[N-]C(=O)OCCO)cc2n1C(=O)[N-]C(=O)[O-] (3D coordinates assigned)
NC(=O)c1cc2ccc(CC[N-]C(=O)OCCO)cc2n1C(=O)[N-]C(=O)[O-] (optimized conformer: 71.9280880164413 kcal/mol)

>  <smiles>  (10) 
NC(=O)c1cc2ccc(CCNC(=O)OCCO)cc2n1C(=O)NC(=O)O

>  <score_type>  (10) 
oracle

>  <origin>  (10) 
adg

>  <m_score__min__energy>  (10) 
-6.25

>  <m_primary>  (10) 
energy

$$$$
10:0
     RDKit          3D

 47 49  0  0  0  0  0  0  0  0999 V2000
  146.9880  154.8800  135.0140 C   0  0  0  0  0  0  0  0  0  0  0  0
  147.7040  156.0880  134.6310 N   0  0  0  0  0  0  0  0  0  0  0  0
  147.5840  156.6800  133.3340 C   0  0  0  0  0  0  0  0  0  0  0  0
  148.0330  156.0780  132.3220 O   0  0  0  0  0  0  0  0  0  0  0  0
  146.9700  157.9710  133.1890 N   0  0  0  0  0  0  0  0  0  0  0  0
  147.5110  159.0880  132.6260 C   0  0  0  0  0  0  0  0  0  0  0  0
  148.9150  159.2340  132.1810 C   0  0  0  0  0  0  0  0  0  0  0  0
  149.8730  158.2070  132.4410 N   0  0  0  0  0  0  0  0  0  0  0  0
  149.2710  160.2580  131.5400 O   0  0  0  0  0  0  0  0  0  0  0  0
  146.5800  160.1260  132.6150 C   0  0  0  0  0  0  0  0  0  0  0  0
  145.4460  159.6040  133.1960 C   0  0  0  0  0  0  0  0  0  0  0  0
  144.2180  160.1980  133.4440 C   0  0  0  0  0  0  0  0  0  0  0  0
  143.2170  159.4200  134.0480 C   0  0  0  0  0  0  0  0  0  0  0  0
  143.4410  158.0520  134.3880 C   0  0  0  0  0  0  0  0  0  0  0  0
  142.3850  157.2570  135.0130 N   0  0  0  0  0  0  0  0  0  0  0  0
  142.6080  155.8260  135.2760 C   0  0  0  0  0  0  0  0  0  0  0  0
  141.1480  157.8660  135.5480 C   0  0  0  0  0  0  0  0  0  0  0  0
  139.9750  157.9460  134.5230 C   0  0  1  0  0  0  0  0  0  0  0  0
  138.7770  158.2070  135.2180 O   0  0  0  0  0  0  0  0  0  0  0  0
  140.1400  158.9580  133.3950 C   0  0  0  0  0  0  0  0  0  0  0  0
  139.2380  158.4190  132.2930 C   0  0  0  0  0  0  0  0  0  0  0  0
  139.0660  156.9790  132.5110 N   0  0  0  0  0  0  0  0  0  0  0  0
  139.7840  156.6480  133.7430 C   0  0  0  0  0  0  0  0  0  0  0  0
  144.7230  157.4960  134.1120 C   0  0  0  0  0  0  0  0  0  0  0  0
  145.7060  158.3040  133.5310 C   0  0  0  0  0  0  0  0  0  0  0  0
  146.9468  154.8105  136.1110 H   0  0  0  0  0  0  0  0  0  0  0  0
  145.9654  154.9163  134.6102 H   0  0  0  0  0  0  0  0  0  0  0  0
  147.5107  154.0004  134.6102 H   0  0  0  0  0  0  0  0  0  0  0  0
  149.6290  157.3700  133.0160 H   0  0  0  0  0  0  0  0  0  0  0  0
  150.8510  158.3030  132.0890 H   0  0  0  0  0  0  0  0  0  0  0  0
  146.7214  161.1449  132.2252 H   0  0  0  0  0  0  0  0  0  0  0  0
  144.0331  161.2485  133.1753 H   0  0  0  0  0  0  0  0  0  0  0  0
  142.2389  159.8748  134.2638 H   0  0  0  0  0  0  0  0  0  0  0  0
  142.6350  155.6526  136.3619 H   0  0  0  0  0  0  0  0  0  0  0  0
  141.7904  155.2397  134.8313 H   0  0  0  0  0  0  0  0  0  0  0  0
  143.5653  155.5163  134.8313 H   0  0  0  0  0  0  0  0  0  0  0  0
  140.8135  157.2671  136.4079 H   0  0  0  0  0  0  0  0  0  0  0  0
  141.3995  158.9019  135.8195 H   0  0  0  0  0  0  0  0  0  0  0  0
  138.0290  158.1560  134.5660 H   0  0  0  0  0  0  0  0  0  0  0  0
  139.8138  159.9587  133.7148 H   0  0  0  0  0  0  0  0  0  0  0  0
  141.1857  159.0714  133.0731 H   0  0  0  0  0  0  0  0  0  0  0  0
  138.2604  158.9217  132.3317 H   0  0  0  0  0  0  0  0  0  0  0  0
  139.6877  158.6048  131.3065 H   0  0  0  0  0  0  0  0  0  0  0  0
  138.0470  156.7870  132.6660 H   0  0  0  0  0  0  0  0  0  0  0  0
  139.1976  155.9337  134.3396 H   0  0  0  0  0  0  0  0  0  0  0  0
  140.7557  156.1860  133.5140 H   0  0  0  0  0  0  0  0  0  0  0  0
  144.9374  156.4443  134.3527 H   0  0  0  0  0  0  0  0  0  0  0  0
  1  2  1  0
  2  3  1  0
  3  4  2  0
  3  5  1  0
  5  6  1  0
  6  7  1  0
  7  8  1  0
  7  9  2  0
  6 10  2  0
 10 11  1  0
 11 12  2  0
 12 13  1  0
 13 14  2  0
 14 15  1  0
 15 16  1  0
 15 17  1  0
 17 18  1  0
 18 19  1  1
 18 20  1  0
 20 21  1  0
 21 22  1  0
 22 23  1  0
 14 24  1  0
 24 25  2  0
 25  5  1  0
 25 11  1  0
 23 18  1  0
  1 26  1  0
  1 27  1  0
  1 28  1  0
  8 29  1  0
  8 30  1  0
 10 31  1  0
 12 32  1  0
 13 33  1  0
 16 34  1  0
 16 35  1  0
 16 36  1  0
 17 37  1  0
 17 38  1  0
 19 39  1  0
 20 40  1  0
 20 41  1  0
 21 42  1  0
 21 43  1  0
 22 44  1  0
 23 45  1  0
 23 46  1  0
 24 47  1  0
M  CHG  1   2  -1
M  END
>  <UniqueID>  (11) 
11

>  <SMILES>  (11) 
C[N-]C(=O)n1c(C(N)=O)cc2ccc(N(C)C[C@@]3(O)CCNC3)cc21

>  <Energy>  (11) 
92.07911575968787

>  <Genealogy>  (11) 
C[N-]C(=O)n1c(C(N)=O)cc2ccc(N(C)CC3(O)CCNC3)cc21 (protonated)
C[N-]C(=O)n1c(C(N)=O)cc2ccc(N(C)C[C@@]3(O)CCNC3)cc21 (chirality)
C[N-]C(=O)n1c(C(N)=O)cc2ccc(N(C)C[C@@]3(O)CCNC3)cc21 (3D coordinates assigned)
C[N-]C(=O)n1c(C(N)=O)cc2ccc(N(C)C[C@@]3(O)CCNC3)cc21 (nonaromatic ring conformer: 92.07911575968787 kcal/mol)

>  <smiles>  (11) 
CNC(=O)n1c(C(N)=O)cc2ccc(N(C)CC3(O)CCNC3)cc21

>  <score_type>  (11) 
oracle

>  <origin>  (11) 
adg

>  <m_score__min__energy>  (11) 
-8.1400000000000006

>  <m_primary>  (11) 
energy

$$$$
11:0
     RDKit          3D

 45 46  0  0  0  0  0  0  0  0999 V2000
  142.0180  158.6080  135.5460 C   0  0  0  0  0  0  0  0  0  0  0  0
  142.1270  157.1300  135.1890 C   0  0  0  0  0  0  0  0  0  0  0  0
  143.3300  156.8740  134.4680 O   0  0  0  0  0  0  0  0  0  0  0  0
  143.7430  157.6300  133.3660 C   0  0  0  0  0  0  0  0  0  0  0  0
  142.9620  157.8230  132.3940 O   0  0  0  0  0  0  0  0  0  0  0  0
  145.0760  158.1640  133.3300 N   0  0  0  0  0  0  0  0  0  0  0  0
  145.4580  159.4700  133.4280 C   0  0  0  0  0  0  0  0  0  0  0  0
  144.5780  160.6100  133.7620 C   0  0  0  0  0  0  0  0  0  0  0  0
  143.2090  160.6200  133.3670 N   0  0  0  0  0  0  0  0  0  0  0  0
  145.0290  161.5650  134.4490 O   0  0  0  0  0  0  0  0  0  0  0  0
  146.8350  159.5900  133.2520 C   0  0  0  0  0  0  0  0  0  0  0  0
  147.2910  158.3080  133.0530 C   0  0  0  0  0  0  0  0  0  0  0  0
  148.5800  157.8450  132.8090 C   0  0  0  0  0  0  0  0  0  0  0  0
  148.7580  156.4660  132.6060 C   0  0  0  0  0  0  0  0  0  0  0  0
  147.6510  155.5790  132.6510 C   0  0  0  0  0  0  0  0  0  0  0  0
  147.8400  154.1720  132.3970 N   0  0  0  0  0  0  0  0  0  0  0  0
  148.4820  153.5350  133.5570 C   0  0  0  0  0  0  0  0  0  0  0  0
  149.1950  152.2320  133.1600 C   0  0  0  0  0  0  0  0  0  0  0  0
  148.8280  151.8080  131.7900 N   0  0  0  0  0  0  0  0  0  0  0  0
  147.6210  150.9620  131.8020 C   0  0  0  0  0  0  0  0  0  0  0  0
  149.9390  151.0640  131.1730 C   0  0  0  0  0  0  0  0  0  0  0  0
  146.3540  156.0900  132.8890 C   0  0  0  0  0  0  0  0  0  0  0  0
  146.2100  157.4660  133.1050 C   0  0  0  0  0  0  0  0  0  0  0  0
  142.0097  158.7213  136.6401 H   0  0  0  0  0  0  0  0  0  0  0  0
  142.8786  159.1507  135.1278 H   0  0  0  0  0  0  0  0  0  0  0  0
  141.0871  159.0186  135.1278 H   0  0  0  0  0  0  0  0  0  0  0  0
  142.1262  156.5340  136.1135 H   0  0  0  0  0  0  0  0  0  0  0  0
  141.2700  156.8543  134.5570 H   0  0  0  0  0  0  0  0  0  0  0  0
  142.8600  159.9820  132.6190 H   0  0  0  0  0  0  0  0  0  0  0  0
  147.4310  160.5144  133.2687 H   0  0  0  0  0  0  0  0  0  0  0  0
  149.4340  158.5375  132.7760 H   0  0  0  0  0  0  0  0  0  0  0  0
  149.7654  156.0700  132.4103 H   0  0  0  0  0  0  0  0  0  0  0  0
  146.9130  153.7250  132.2090 H   0  0  0  0  0  0  0  0  0  0  0  0
  148.4390  154.0460  131.5470 H   0  0  0  0  0  0  0  0  0  0  0  0
  149.2195  154.2304  133.9842 H   0  0  0  0  0  0  0  0  0  0  0  0
  147.7018  153.2915  134.2933 H   0  0  0  0  0  0  0  0  0  0  0  0
  150.2824  152.3915  133.2055 H   0  0  0  0  0  0  0  0  0  0  0  0
  148.8853  151.4422  133.8602 H   0  0  0  0  0  0  0  0  0  0  0  0
  147.3277  150.7564  132.8420 H   0  0  0  0  0  0  0  0  0  0  0  0
  146.8018  151.4846  131.2865 H   0  0  0  0  0  0  0  0  0  0  0  0
  147.8328  150.0137  131.2865 H   0  0  0  0  0  0  0  0  0  0  0  0
  150.5767  150.6370  131.9611 H   0  0  0  0  0  0  0  0  0  0  0  0
  149.5354  150.2534  130.5485 H   0  0  0  0  0  0  0  0  0  0  0  0
  150.5349  151.7459  130.5485 H   0  0  0  0  0  0  0  0  0  0  0  0
  145.4796  155.4228  132.9041 H   0  0  0  0  0  0  0  0  0  0  0  0
  1  2  1  0
  2  3  1  0
  3  4  1  0
  4  5  2  0
  4  6  1  0
  6  7  1  0
  7  8  1  0
  8  9  1  0
  8 10  2  0
  7 11  2  0
 11 12  1  0
 12 13  2  0
 13 14  1  0
 14 15  2  0
 15 16  1  0
 16 17  1  0
 17 18  1  0
 18 19  1  0
 19 20  1  0
 19 21  1  0
 15 22  1  0
 22 23  2  0
 23  6  1  0
 23 12  1  0
  1 24  1  0
  1 25  1  0
  1 26  1  0
  2 27  1  0
  2 28  1  0
  9 29  1  0
 11 30  1  0
 13 31  1  0
 14 32  1  0
 16 33  1  0
 16 34  1  0
 17 35  1  0
 17 36  1  0
 18 37  1  0
 18 38  1  0
 20 39  1  0
 20 40  1  0
 20 41  1  0
 21 42  1  0
 21 43  1  0
 21 44  1  0
 22 45  1  0
M  CHG  2   9  -1  16   1
M  END
>  <UniqueID>  (12) 
12

>  <SMILES>  (12) 
CCOC(=O)n1c(C([NH-])=O)cc2ccc([NH2+]CCN(C)C)cc21

>  <Energy>  (12) 
79.21470160559153

>  <Genealogy>  (12) 
CCOC(=O)n1c(C([NH-])=O)cc2ccc([NH2+]CCN(C)C)cc21 (protonated)
CCOC(=O)n1c(C([NH-])=O)cc2ccc([NH2+]CCN(C)C)cc21 (3D coordinates assigned)
CCOC(=O)n1c(C([NH-])=O)cc2ccc([NH2+]CCN(C)C)cc21 (optimized conformer: 79.21470160559153 kcal/mol)

>  <smiles>  (12) 
CCOC(=O)n1c(C(N)=O)cc2ccc(NCCN(C)C)cc21

>  <score_type>  (12) 
oracle

>  <origin>  (12) 
adg

>  <m_score__min__energy>  (12) 
-6.3300000000000001

>  <m_primary>  (12) 
energy

$$$$
12:0
     RDKit          3D

 34 35  0  0  0  0  0  0  0  0999 V2000
  141.3280  156.2760  137.4060 C   0  0  0  0  0  0  0  0  0  0  0  0
  140.2340  157.0870  136.9960 O   0  0  0  0  0  0  0  0  0  0  0  0
  140.3960  158.4060  136.5580 C   0  0  0  0  0  0  0  0  0  0  0  0
  140.6340  159.3290  137.3850 O   0  0  0  0  0  0  0  0  0  0  0  0
  140.3450  158.7270  135.0880 C   0  0  2  0  0  0  0  0  0  0  0  0
  139.7650  157.5610  134.2780 C   0  0  0  0  0  0  0  0  0  0  0  0
  141.7180  159.1160  134.5790 C   0  0  0  0  0  0  0  0  0  0  0  0
  141.9890  160.4680  134.2430 C   0  0  0  0  0  0  0  0  0  0  0  0
  143.2470  160.8480  133.7520 C   0  0  0  0  0  0  0  0  0  0  0  0
  144.2200  159.8630  133.6120 C   0  0  0  0  0  0  0  0  0  0  0  0
  145.5040  159.9520  133.1290 C   0  0  0  0  0  0  0  0  0  0  0  0
  146.0150  158.6600  133.2010 C   0  0  0  0  0  0  0  0  0  0  0  0
  147.4010  158.3130  132.8330 C   0  0  0  0  0  0  0  0  0  0  0  0
  147.6790  157.3150  131.8510 N   0  0  0  0  0  0  0  0  0  0  0  0
  148.3580  158.8680  133.4370 O   0  0  0  0  0  0  0  0  0  0  0  0
  145.0810  157.7980  133.6970 N   0  0  0  0  0  0  0  0  0  0  0  0
  145.1860  156.3700  133.8180 C   0  0  0  0  0  0  0  0  0  0  0  0
  145.6370  155.6830  132.8650 O   0  0  0  0  0  0  0  0  0  0  0  0
  144.7900  155.7320  134.9870 O   0  0  0  0  0  0  0  0  0  0  0  0
  143.9860  158.5530  133.9460 C   0  0  0  0  0  0  0  0  0  0  0  0
  142.7320  158.1420  134.4150 C   0  0  0  0  0  0  0  0  0  0  0  0
  141.3699  156.2450  138.5048 H   0  0  0  0  0  0  0  0  0  0  0  0
  141.1953  155.2564  137.0152 H   0  0  0  0  0  0  0  0  0  0  0  0
  142.2650  156.6994  137.0152 H   0  0  0  0  0  0  0  0  0  0  0  0
  139.6714  159.5862  134.9534 H   0  0  0  0  0  0  0  0  0  0  0  0
  139.3824  156.7918  134.9650 H   0  0  0  0  0  0  0  0  0  0  0  0
  138.9442  157.9275  133.6440 H   0  0  0  0  0  0  0  0  0  0  0  0
  140.5525  157.1274  133.6440 H   0  0  0  0  0  0  0  0  0  0  0  0
  141.2030  161.2272  134.3691 H   0  0  0  0  0  0  0  0  0  0  0  0
  143.4581  161.8941  133.4854 H   0  0  0  0  0  0  0  0  0  0  0  0
  146.0181  160.8531  132.7633 H   0  0  0  0  0  0  0  0  0  0  0  0
  148.6660  157.1100  131.5760 H   0  0  0  0  0  0  0  0  0  0  0  0
  146.9180  156.7190  131.4580 H   0  0  0  0  0  0  0  0  0  0  0  0
  142.5392  157.0850  134.6508 H   0  0  0  0  0  0  0  0  0  0  0  0
  1  2  1  0
  2  3  1  0
  3  4  2  0
  3  5  1  0
  5  6  1  0
  5  7  1  0
  7  8  2  0
  8  9  1  0
  9 10  2  0
 10 11  1  0
 11 12  2  0
 12 13  1  0
 13 14  1  0
 13 15  2  0
 12 16  1  0
 16 17  1  0
 17 18  2  0
 17 19  1  0
 16 20  1  0
 20 21  2  0
 21  7  1  0
 20 10  1  0
  1 22  1  0
  1 23  1  0
  1 24  1  0
  5 25  1  1
  6 26  1  0
  6 27  1  0
  6 28  1  0
  8 29  1  0
  9 30  1  0
 11 31  1  0
 14 32  1  0
 14 33  1  0
 21 34  1  0
M  CHG  1  19  -1
M  END
>  <UniqueID>  (13) 
13

>  <SMILES>  (13) 
COC(=O)[C@H](C)c1ccc2cc(C(N)=O)n(C(=O)[O-])c2c1

>  <Energy>  (13) 
69.98680675761902

>  <Genealogy>  (13) 
COC(=O)C(C)c1ccc2cc(C(N)=O)n(C(=O)[O-])c2c1 (protonated)
COC(=O)[C@H](C)c1ccc2cc(C(N)=O)n(C(=O)[O-])c2c1 (chirality)
COC(=O)[C@H](C)c1ccc2cc(C(N)=O)n(C(=O)[O-])c2c1 (3D coordinates assigned)
COC(=O)[C@H](C)c1ccc2cc(C(N)=O)n(C(=O)[O-])c2c1 (optimized conformer: 69.98680675761902 kcal/mol)

>  <smiles>  (13) 
COC(=O)C(C)c1ccc2cc(C(N)=O)n(C(=O)O)c2c1

>  <score_type>  (13) 
oracle

>  <origin>  (13) 
adg

>  <m_score__min__energy>  (13) 
-6.1799999999999997

>  <m_primary>  (13) 
energy

$$$$
13:0
     RDKit          3D

 45 47  0  0  0  0  0  0  0  0999 V2000
  149.0470  156.7730  131.8430 H   0  0  0  0  0  0  0  0  0  0  0  0
  149.6170  157.6290  132.0230 N   0  0  0  0  0  0  0  0  0  0  0  0
  148.9950  158.8710  132.3400 C   0  0  0  0  0  0  0  0  0  0  0  0
  149.6440  159.9410  132.1920 O   0  0  0  0  0  0  0  0  0  0  0  0
  147.5900  158.9260  132.7980 C   0  0  0  0  0  0  0  0  0  0  0  0
  146.8890  160.1150  132.9920 C   0  0  0  0  0  0  0  0  0  0  0  0
  147.2719  161.1403  132.8816 H   0  0  0  0  0  0  0  0  0  0  0  0
  145.6160  159.7340  133.3510 C   0  0  0  0  0  0  0  0  0  0  0  0
  144.5110  160.5100  133.6900 C   0  0  0  0  0  0  0  0  0  0  0  0
  144.5603  161.6086  133.6660 H   0  0  0  0  0  0  0  0  0  0  0  0
  143.3300  159.8450  134.0640 C   0  0  0  0  0  0  0  0  0  0  0  0
  142.4389  160.4301  134.3355 H   0  0  0  0  0  0  0  0  0  0  0  0
  143.2750  158.4290  134.0950 C   0  0  0  0  0  0  0  0  0  0  0  0
  142.0680  157.7580  134.5080 N   0  0  0  0  0  0  0  0  0  0  0  0
  141.3390  158.1780  135.7070 C   0  0  0  0  0  0  0  0  0  0  0  0
  141.8462  159.0453  136.1548 H   0  0  0  0  0  0  0  0  0  0  0  0
  141.3169  157.3433  136.4231 H   0  0  0  0  0  0  0  0  0  0  0  0
  139.8930  158.5660  135.3450 C   0  0  0  0  0  0  0  0  0  0  0  0
  139.8730  159.6381  135.0995 H   0  0  0  0  0  0  0  0  0  0  0  0
  139.2684  158.3212  136.2168 H   0  0  0  0  0  0  0  0  0  0  0  0
  139.3390  157.8110  134.1910 N   0  0  0  0  0  0  0  0  0  0  0  0
  139.3080  158.6270  132.9650 C   0  0  0  0  0  0  0  0  0  0  0  0
  139.2675  159.6926  133.2347 H   0  0  0  0  0  0  0  0  0  0  0  0
  140.2142  158.4330  132.3724 H   0  0  0  0  0  0  0  0  0  0  0  0
  138.4192  158.3647  132.3724 H   0  0  0  0  0  0  0  0  0  0  0  0
  140.0060  156.5090  133.9680 C   0  0  0  0  0  0  0  0  0  0  0  0
  139.5380  156.0123  133.1053 H   0  0  0  0  0  0  0  0  0  0  0  0
  139.8925  155.9058  134.8808 H   0  0  0  0  0  0  0  0  0  0  0  0
  141.5100  156.6780  133.6900 C   0  0  0  0  0  0  0  0  0  0  0  0
  141.6562  156.9177  132.6264 H   0  0  0  0  0  0  0  0  0  0  0  0
  142.0248  155.7395  133.9431 H   0  0  0  0  0  0  0  0  0  0  0  0
  144.4230  157.6780  133.7560 C   0  0  0  0  0  0  0  0  0  0  0  0
  144.4087  156.5788  133.7963 H   0  0  0  0  0  0  0  0  0  0  0  0
  145.5780  158.3650  133.3680 C   0  0  0  0  0  0  0  0  0  0  0  0
  146.7810  157.8530  133.0280 N   0  0  0  0  0  0  0  0  0  0  0  0
  147.1410  156.4630  133.0160 C   0  0  0  0  0  0  0  0  0  0  0  0
  148.1370  156.0720  133.6830 O   0  0  0  0  0  0  0  0  0  0  0  0
  146.3440  155.5010  132.2300 C   0  0  0  0  0  0  0  0  0  0  0  0
  146.5345  155.4139  131.1501 H   0  0  0  0  0  0  0  0  0  0  0  0
  145.4000  154.7320  132.7800 C   0  0  0  0  0  0  0  0  0  0  0  0
  145.2044  154.7973  133.8605 H   0  0  0  0  0  0  0  0  0  0  0  0
  144.6060  153.7820  131.9380 C   0  0  0  0  0  0  0  0  0  0  0  0
  144.4055  154.2451  130.9606 H   0  0  0  0  0  0  0  0  0  0  0  0
  145.1831  152.8548  131.8067 H   0  0  0  0  0  0  0  0  0  0  0  0
  143.0590  153.3910  132.7300 Cl  0  0  0  0  0  0  0  0  0  0  0  0
  1  2  1  0
  2  3  1  0
  3  4  2  0
  3  5  1  0
  5  6  2  0
  6  7  1  0
  6  8  1  0
  8  9  2  0
  9 10  1  0
  9 11  1  0
 11 12  1  0
 11 13  2  0
 13 14  1  0
 14 15  1  0
 15 16  1  0
 15 17  1  0
 15 18  1  0
 18 19  1  0
 18 20  1  0
 18 21  1  0
 21 22  1  0
 22 23  1  0
 22 24  1  0
 22 25  1  0
 21 26  1  0
 26 27  1  0
 26 28  1  0
 26 29  1  0
 29 30  1  0
 29 31  1  0
 13 32  1  0
 32 33  1  0
 32 34  2  0
 34 35  1  0
 35 36  1  0
 36 37  2  0
 36 38  1  0
 38 39  1  0
 38 40  2  0
 40 41  1  0
 40 42  1  0
 42 43  1  0
 42 44  1  0
 42 45  1  0
 35  5  1  0
 34  8  1  0
 29 14  1  0
M  CHG  1   2  -1
M  END
>  <UniqueID>  (14) 
14

>  <SMILES>  (14) 
CN1CCN(c2ccc3cc(C([NH-])=O)n(C(=O)/C=C/CCl)c3c2)CC1

>  <Energy>  (14) 
93.01498216551072

>  <Genealogy>  (14) 
CN1CCN(c2ccc3cc(C([NH-])=O)n(C(=O)C=CCCl)c3c2)CC1 (protonated)
CN1CCN(c2ccc3cc(C([NH-])=O)n(C(=O)/C=C/CCl)c3c2)CC1 (cis-trans isomerization)
CN1CCN(c2ccc3cc(C([NH-])=O)n(C(=O)/C=C/CCl)c3c2)CC1 (3D coordinates assigned)
CN1CCN(c2ccc3cc(C([NH-])=O)n(C(=O)/C=C/CCl)c3c2)CC1 (nonaromatic ring conformer: 93.01498216551072 kcal/mol)

>  <smiles>  (14) 
CN1CCN(c2ccc3cc(C(N)=O)n(C(=O)C=CCCl)c3c2)CC1

>  <score_type>  (14) 
oracle

>  <origin>  (14) 
adg

>  <m_score__min__energy>  (14) 
-8.1099999999999994

>  <m_primary>  (14) 
energy

$$$$
14:0
     RDKit          3D

 48 49  0  0  0  0  0  0  0  0999 V2000
  138.0340  159.6380  131.1160 C   0  0  0  0  0  0  0  0  0  0  0  0
  139.4770  160.0760  131.3180 C   0  0  0  0  0  0  0  0  0  0  0  0
  140.2030  159.0170  131.9110 O   0  0  0  0  0  0  0  0  0  0  0  0
  139.3210  158.0270  132.4070 C   0  0  0  0  0  0  0  0  0  0  0  0
  139.9180  157.3350  133.6370 C   0  0  0  0  0  0  0  0  0  0  0  0
  140.7160  158.2980  134.4830 C   0  0  0  0  0  0  0  0  0  0  0  0
  140.4460  159.5300  134.3890 O   0  0  0  0  0  0  0  0  0  0  0  0
  141.7960  157.8670  135.3520 N   0  0  0  0  0  0  0  0  0  0  0  0
  141.7270  158.0610  136.8060 C   0  0  0  0  0  0  0  0  0  0  0  0
  142.9150  157.0990  134.7860 C   0  0  0  0  0  0  0  0  0  0  0  0
  143.3400  157.7100  133.4850 C   0  0  0  0  0  0  0  0  0  0  0  0
  142.6660  157.5010  132.4410 O   0  0  0  0  0  0  0  0  0  0  0  0
  144.5750  158.4290  133.4010 N   0  0  0  0  0  0  0  0  0  0  0  0
  144.7730  159.7690  133.5440 C   0  0  0  0  0  0  0  0  0  0  0  0
  143.6900  160.7770  133.6570 C   0  0  0  0  0  0  0  0  0  0  0  0
  142.3460  160.4650  133.2840 N   0  0  0  0  0  0  0  0  0  0  0  0
  143.9480  161.9310  134.0970 O   0  0  0  0  0  0  0  0  0  0  0  0
  146.1410  160.0550  133.5570 C   0  0  0  0  0  0  0  0  0  0  0  0
  146.7690  158.8350  133.4310 C   0  0  0  0  0  0  0  0  0  0  0  0
  148.1250  158.5170  133.4620 C   0  0  0  0  0  0  0  0  0  0  0  0
  148.4850  157.1590  133.3920 C   0  0  0  0  0  0  0  0  0  0  0  0
  147.4910  156.1490  133.2780 C   0  0  0  0  0  0  0  0  0  0  0  0
  147.8960  154.6970  133.2780 C   0  0  0  0  0  0  0  0  0  0  0  0
  146.9300  153.9330  132.6480 F   0  0  0  0  0  0  0  0  0  0  0  0
  148.0520  154.2210  134.5710 F   0  0  0  0  0  0  0  0  0  0  0  0
  149.0940  154.5600  132.5990 F   0  0  0  0  0  0  0  0  0  0  0  0
  146.1260  156.5140  133.2710 C   0  0  0  0  0  0  0  0  0  0  0  0
  145.8020  157.8720  133.3390 C   0  0  0  0  0  0  0  0  0  0  0  0
  137.5545  159.4925  132.0952 H   0  0  0  0  0  0  0  0  0  0  0  0
  137.4913  160.4119  130.5534 H   0  0  0  0  0  0  0  0  0  0  0  0
  138.0130  158.6930  130.5534 H   0  0  0  0  0  0  0  0  0  0  0  0
  139.9244  160.3303  130.3458 H   0  0  0  0  0  0  0  0  0  0  0  0
  139.5081  160.9592  131.9729 H   0  0  0  0  0  0  0  0  0  0  0  0
  138.3679  158.5000  132.6861 H   0  0  0  0  0  0  0  0  0  0  0  0
  139.1585  157.2736  131.6221 H   0  0  0  0  0  0  0  0  0  0  0  0
  139.1008  156.9187  134.2443 H   0  0  0  0  0  0  0  0  0  0  0  0
  140.5939  156.5394  133.2904 H   0  0  0  0  0  0  0  0  0  0  0  0
  142.0539  157.1420  137.3145 H   0  0  0  0  0  0  0  0  0  0  0  0
  142.3839  158.8942  137.0963 H   0  0  0  0  0  0  0  0  0  0  0  0
  140.6915  158.2922  137.0963 H   0  0  0  0  0  0  0  0  0  0  0  0
  143.7604  157.1121  135.4896 H   0  0  0  0  0  0  0  0  0  0  0  0
  142.5941  156.0611  134.6135 H   0  0  0  0  0  0  0  0  0  0  0  0
  142.0880  159.5360  132.8840 H   0  0  0  0  0  0  0  0  0  0  0  0
  141.5980  161.1850  133.3830 H   0  0  0  0  0  0  0  0  0  0  0  0
  146.6152  161.0433  133.6484 H   0  0  0  0  0  0  0  0  0  0  0  0
  148.8903  159.3034  133.5388 H   0  0  0  0  0  0  0  0  0  0  0  0
  149.5473  156.8754  133.4258 H   0  0  0  0  0  0  0  0  0  0  0  0
  145.3381  155.7486  133.2135 H   0  0  0  0  0  0  0  0  0  0  0  0
  1  2  1  0
  2  3  1  0
  3  4  1  0
  4  5  1  0
  5  6  1  0
  6  7  2  0
  6  8  1  0
  8  9  1  0
  8 10  1  0
 10 11  1  0
 11 12  2  0
 11 13  1  0
 13 14  1  0
 14 15  1  0
 15 16  1  0
 15 17  2  0
 14 18  2  0
 18 19  1  0
 19 20  2  0
 20 21  1  0
 21 22  2  0
 22 23  1  0
 23 24  1  0
 23 25  1  0
 23 26  1  0
 22 27  1  0
 27 28  2  0
 28 13  1  0
 28 19  1  0
  1 29  1  0
  1 30  1  0
  1 31  1  0
  2 32  1  0
  2 33  1  0
  4 34  1  0
  4 35  1  0
  5 36  1  0
  5 37  1  0
  9 38  1  0
  9 39  1  0
  9 40  1  0
 10 41  1  0
 10 42  1  0
 16 43  1  0
 16 44  1  0
 18 45  1  0
 20 46  1  0
 21 47  1  0
 27 48  1  0
M  END
>  <UniqueID>  (15) 
15

>  <SMILES>  (15) 
CCOCCC(=O)N(C)CC(=O)n1c(C(N)=O)cc2ccc(C(F)(F)F)cc21

>  <Energy>  (15) 
81.25825397474085

>  <Genealogy>  (15) 
CCOCCC(=O)N(C)CC(=O)n1c(C(N)=O)cc2ccc(C(F)(F)F)cc21 (3D coordinates assigned)
CCOCCC(=O)N(C)CC(=O)n1c(C(N)=O)cc2ccc(C(F)(F)F)cc21 (optimized conformer: 81.25825397474085 kcal/mol)

>  <smiles>  (15) 
CCOCCC(=O)N(C)CC(=O)n1c(C(N)=O)cc2ccc(C(F)(F)F)cc21

>  <score_type>  (15) 
oracle

>  <origin>  (15) 
adg

>  <m_score__min__energy>  (15) 
-7.0300000000000002

>  <m_primary>  (15) 
energy

$$$$
15:0
     RDKit          3D

 45 47  0  0  0  0  0  0  0  0999 V2000
  149.1200  152.0890  133.3760 C   0  0  0  0  0  0  0  0  0  0  0  0
  148.2600  153.3610  133.3120 C   0  0  0  0  0  0  0  0  0  0  0  0
  148.8690  154.3260  132.2760 C   0  0  0  0  0  0  0  0  0  0  0  0
  146.8230  152.9790  132.9130 C   0  0  0  0  0  0  0  0  0  0  0  0
  148.2710  153.9740  134.6450 N   0  0  0  0  0  0  0  0  0  0  0  0
  147.1350  154.2750  135.4660 C   0  0  0  0  0  0  0  0  0  0  0  0
  146.9960  153.7330  136.5940 O   0  0  0  0  0  0  0  0  0  0  0  0
  146.1620  155.2290  135.0100 N   0  0  0  0  0  0  0  0  0  0  0  0
  144.8050  155.1130  135.0320 C   0  0  0  0  0  0  0  0  0  0  0  0
  144.0360  154.0430  135.7000 C   0  0  0  0  0  0  0  0  0  0  0  0
  144.2580  153.7290  137.0720 N   0  0  0  0  0  0  0  0  0  0  0  0
  143.1350  153.4310  135.0650 O   0  0  0  0  0  0  0  0  0  0  0  0
  144.2100  156.2050  134.4000 C   0  0  0  0  0  0  0  0  0  0  0  0
  145.2550  157.0030  133.9930 C   0  0  0  0  0  0  0  0  0  0  0  0
  145.2410  158.2150  133.3100 C   0  0  0  0  0  0  0  0  0  0  0  0
  146.4760  158.8090  132.9970 C   0  0  0  0  0  0  0  0  0  0  0  0
  147.6920  158.1760  133.3560 C   0  0  0  0  0  0  0  0  0  0  0  0
  149.0070  158.8350  133.0390 C   0  0  0  0  0  0  0  0  0  0  0  0
  149.0650  159.2360  131.5590 C   0  0  0  0  0  0  0  0  0  0  0  0
  148.8410  158.2470  130.5930 O   0  0  0  0  0  0  0  0  0  0  0  0
  148.4570  160.5800  131.1950 C   0  0  0  0  0  0  0  0  0  0  0  0
  149.9700  160.3820  131.1340 C   0  0  0  0  0  0  0  0  0  0  0  0
  147.6660  156.9500  134.0570 C   0  0  0  0  0  0  0  0  0  0  0  0
  146.4220  156.3920  134.3720 C   0  0  0  0  0  0  0  0  0  0  0  0
  149.3010  151.8213  134.4275 H   0  0  0  0  0  0  0  0  0  0  0  0
  148.5932  151.2646  132.8732 H   0  0  0  0  0  0  0  0  0  0  0  0
  150.0813  152.2707  132.8732 H   0  0  0  0  0  0  0  0  0  0  0  0
  149.3859  155.1451  132.7974 H   0  0  0  0  0  0  0  0  0  0  0  0
  149.5874  153.7815  131.6456 H   0  0  0  0  0  0  0  0  0  0  0  0
  148.0683  154.7402  131.6456 H   0  0  0  0  0  0  0  0  0  0  0  0
  146.2210  152.8190  133.8196 H   0  0  0  0  0  0  0  0  0  0  0  0
  146.3799  153.7906  132.3171 H   0  0  0  0  0  0  0  0  0  0  0  0
  146.8414  152.0545  132.3171 H   0  0  0  0  0  0  0  0  0  0  0  0
  145.0830  154.1110  137.5850 H   0  0  0  0  0  0  0  0  0  0  0  0
  143.1349  156.3891  134.2573 H   0  0  0  0  0  0  0  0  0  0  0  0
  144.2928  158.6936  133.0238 H   0  0  0  0  0  0  0  0  0  0  0  0
  146.4987  159.7736  132.4688 H   0  0  0  0  0  0  0  0  0  0  0  0
  149.1207  159.7342  133.6623 H   0  0  0  0  0  0  0  0  0  0  0  0
  149.8202  158.1239  133.2467 H   0  0  0  0  0  0  0  0  0  0  0  0
  148.6120  157.4250  131.0960 H   0  0  0  0  0  0  0  0  0  0  0  0
  147.8783  160.6887  130.2659 H   0  0  0  0  0  0  0  0  0  0  0  0
  147.7847  161.2917  131.6965 H   0  0  0  0  0  0  0  0  0  0  0  0
  150.4819  160.3475  130.1610 H   0  0  0  0  0  0  0  0  0  0  0  0
  150.8406  160.8911  131.5731 H   0  0  0  0  0  0  0  0  0  0  0  0
  148.5999  156.4467  134.3479 H   0  0  0  0  0  0  0  0  0  0  0  0
  1  2  1  0
  2  3  1  0
  2  4  1  0
  2  5  1  0
  5  6  1  0
  6  7  2  0
  6  8  1  0
  8  9  1  0
  9 10  1  0
 10 11  1  0
 10 12  2  0
  9 13  2  0
 13 14  1  0
 14 15  2  0
 15 16  1  0
 16 17  2  0
 17 18  1  0
 18 19  1  0
 19 20  1  0
 19 21  1  0
 21 22  1  0
 17 23  1  0
 23 24  2  0
 24  8  1  0
 24 14  1  0
 22 19  1  0
  1 25  1  0
  1 26  1  0
  1 27  1  0
  3 28  1  0
  3 29  1  0
  3 30  1  0
  4 31  1  0
  4 32  1  0
  4 33  1  0
 11 34  1  0
 13 35  1  0
 15 36  1  0
 16 37  1  0
 18 38  1  0
 18 39  1  0
 20 40  1  0
 21 41  1  0
 21 42  1  0
 22 43  1  0
 22 44  1  0
 23 45  1  0
M  CHG  2   5  -1  11  -1
M  END
>  <UniqueID>  (16) 
16

>  <SMILES>  (16) 
CC(C)(C)[N-]C(=O)n1c(C([NH-])=O)cc2ccc(CC3(O)CC3)cc21

>  <Energy>  (16) 
344.7155701039492

>  <Genealogy>  (16) 
CC(C)(C)[N-]C(=O)n1c(C([NH-])=O)cc2ccc(CC3(O)CC3)cc21 (protonated)
CC(C)(C)[N-]C(=O)n1c(C([NH-])=O)cc2ccc(CC3(O)CC3)cc21 (3D coordinates assigned)
CC(C)(C)[N-]C(=O)n1c(C([NH-])=O)cc2ccc(CC3(O)CC3)cc21 (nonaromatic ring conformer: 344.7155701039492 kcal/mol)

>  <smiles>  (16) 
CC(C)(C)NC(=O)n1c(C(N)=O)cc2ccc(CC3(O)CC3)cc21

>  <score_type>  (16) 
oracle

>  <origin>  (16) 
adg

>  <m_score__min__energy>  (16) 
-8.3200000000000003

>  <m_primary>  (16) 
energy

$$$$
16:0
     RDKit          3D

 33 35  0  0  0  0  0  0  0  0999 V2000
  147.3790  160.6610  133.3590 N   0  0  0  0  0  0  0  0  0  0  0  0
  146.8480  159.3880  133.7300 C   0  0  0  0  0  0  0  0  0  0  0  0
  147.6200  158.5210  134.2190 O   0  0  0  0  0  0  0  0  0  0  0  0
  145.4060  159.0970  133.5790 C   0  0  0  0  0  0  0  0  0  0  0  0
  144.8920  157.8230  133.3410 C   0  0  0  0  0  0  0  0  0  0  0  0
  143.5390  158.0020  133.1670 C   0  0  0  0  0  0  0  0  0  0  0  0
  142.5410  157.0670  132.9180 C   0  0  0  0  0  0  0  0  0  0  0  0
  141.2180  157.5280  132.8130 C   0  0  0  0  0  0  0  0  0  0  0  0
  140.9110  158.9050  132.9580 C   0  0  0  0  0  0  0  0  0  0  0  0
  139.4610  159.3550  132.8630 C   0  0  2  0  0  0  0  0  0  0  0  0
  138.4420  158.2240  132.7780 C   0  0  0  0  0  0  0  0  0  0  0  0
  137.3560  158.6390  131.9760 O   0  0  0  0  0  0  0  0  0  0  0  0
  137.6650  159.9100  131.4500 C   0  0  0  0  0  0  0  0  0  0  0  0
  139.1410  160.1890  131.6480 C   0  0  0  0  0  0  0  0  0  0  0  0
  139.8480  159.7850  130.5260 F   0  0  0  0  0  0  0  0  0  0  0  0
  139.3720  161.5340  131.8850 F   0  0  0  0  0  0  0  0  0  0  0  0
  141.9610  159.8240  133.2190 C   0  0  0  0  0  0  0  0  0  0  0  0
  143.2710  159.3380  133.3010 C   0  0  0  0  0  0  0  0  0  0  0  0
  144.4080  160.0250  133.5540 N   0  0  0  0  0  0  0  0  0  0  0  0
  144.5200  161.4340  133.8210 C   0  0  0  0  0  0  0  0  0  0  0  0
  143.6680  162.2400  133.3600 O   0  0  0  0  0  0  0  0  0  0  0  0
  145.5590  161.9200  134.6040 O   0  0  0  0  0  0  0  0  0  0  0  0
  146.7830  161.3850  132.9020 H   0  0  0  0  0  0  0  0  0  0  0  0
  148.3910  160.8700  133.5070 H   0  0  0  0  0  0  0  0  0  0  0  0
  145.4498  156.8758  133.3009 H   0  0  0  0  0  0  0  0  0  0  0  0
  142.7797  155.9990  132.8066 H   0  0  0  0  0  0  0  0  0  0  0  0
  140.4082  156.8102  132.6154 H   0  0  0  0  0  0  0  0  0  0  0  0
  139.3757  159.9237  133.8007 H   0  0  0  0  0  0  0  0  0  0  0  0
  138.9131  157.3369  132.3296 H   0  0  0  0  0  0  0  0  0  0  0  0
  138.0826  157.9727  133.7868 H   0  0  0  0  0  0  0  0  0  0  0  0
  137.4280  159.9306  130.3760 H   0  0  0  0  0  0  0  0  0  0  0  0
  137.0722  160.6775  131.9692 H   0  0  0  0  0  0  0  0  0  0  0  0
  141.7496  160.8950  133.3539 H   0  0  0  0  0  0  0  0  0  0  0  0
  1  2  1  0
  2  3  2  0
  2  4  1  0
  4  5  2  0
  5  6  1  0
  6  7  2  0
  7  8  1  0
  8  9  2  0
  9 10  1  0
 10 11  1  0
 11 12  1  0
 12 13  1  0
 13 14  1  0
 14 15  1  0
 14 16  1  0
  9 17  1  0
 17 18  2  0
 18 19  1  0
 19 20  1  0
 20 21  2  0
 20 22  1  0
 19  4  1  0
 18  6  1  0
 14 10  1  0
  1 23  1  0
  1 24  1  0
  5 25  1  0
  7 26  1  0
  8 27  1  0
 10 28  1  1
 11 29  1  0
 11 30  1  0
 13 31  1  0
 13 32  1  0
 17 33  1  0
M  CHG  1  22  -1
M  END
>  <UniqueID>  (17) 
17

>  <SMILES>  (17) 
NC(=O)c1cc2ccc([C@@H]3COCC3(F)F)cc2n1C(=O)[O-]

>  <Energy>  (17) 
78.30325476657305

>  <Genealogy>  (17) 
NC(=O)c1cc2ccc([C@@H]3COCC3(F)F)cc2n1C(=O)[O-] (protonated)
NC(=O)c1cc2ccc([C@@H]3COCC3(F)F)cc2n1C(=O)[O-] (3D coordinates assigned)
NC(=O)c1cc2ccc([C@@H]3COCC3(F)F)cc2n1C(=O)[O-] (nonaromatic ring conformer: 78.30325476657305 kcal/mol)

>  <smiles>  (17) 
NC(=O)c1cc2ccc([C@@H]3COCC3(F)F)cc2n1C(=O)O

>  <score_type>  (17) 
oracle

>  <origin>  (17) 
adg

>  <m_score__min__energy>  (17) 
-6.6799999999999997

>  <m_primary>  (17) 
energy

$$$$
17:0
     RDKit          3D

 52 53  0  0  0  0  0  0  0  0999 V2000
  143.7900  152.2650  132.9790 C   0  0  0  0  0  0  0  0  0  0  0  0
  143.5070  153.4560  133.7900 N   0  0  0  0  0  0  0  0  0  0  0  0
  142.1280  153.7230  134.2350 C   0  0  0  0  0  0  0  0  0  0  0  0
  141.5420  155.0380  133.6630 C   0  0  0  0  0  0  0  0  0  0  0  0
  141.7020  156.2500  134.5070 N   0  0  0  0  0  0  0  0  0  0  0  0
  141.7650  155.9520  135.9490 C   0  0  0  0  0  0  0  0  0  0  0  0
  140.6950  157.2870  134.2260 C   0  0  0  0  0  0  0  0  0  0  0  0
  144.6250  154.2840  134.1850 C   0  0  0  0  0  0  0  0  0  0  0  0
  144.4060  155.4440  134.6310 O   0  0  0  0  0  0  0  0  0  0  0  0
  146.0570  153.8210  134.0760 C   0  0  0  0  0  0  0  0  0  0  0  0
  146.6770  154.1670  132.7120 C   0  0  0  0  0  0  0  0  0  0  0  0
  147.9970  154.9510  132.8090 C   0  0  0  0  0  0  0  0  0  0  0  0
  147.7740  156.4370  132.9410 C   0  0  0  0  0  0  0  0  0  0  0  0
  148.8600  157.3370  132.7950 C   0  0  0  0  0  0  0  0  0  0  0  0
  148.6680  158.7200  132.9360 C   0  0  0  0  0  0  0  0  0  0  0  0
  147.3840  159.1740  133.2250 C   0  0  0  0  0  0  0  0  0  0  0  0
  146.9180  160.4570  133.3930 C   0  0  0  0  0  0  0  0  0  0  0  0
  145.5560  160.3230  133.6550 C   0  0  0  0  0  0  0  0  0  0  0  0
  144.6760  161.4660  133.9830 C   0  0  0  0  0  0  0  0  0  0  0  0
  143.2760  161.3780  133.7300 N   0  0  0  0  0  0  0  0  0  0  0  0
  145.1530  162.5340  134.4500 O   0  0  0  0  0  0  0  0  0  0  0  0
  145.1930  159.0080  133.6440 N   0  0  0  0  0  0  0  0  0  0  0  0
  143.8780  158.4530  133.8120 C   0  0  0  0  0  0  0  0  0  0  0  0
  143.2360  158.6500  134.8780 O   0  0  0  0  0  0  0  0  0  0  0  0
  143.2920  157.7160  132.7920 O   0  0  0  0  0  0  0  0  0  0  0  0
  146.3260  158.3180  133.3820 C   0  0  0  0  0  0  0  0  0  0  0  0
  146.4840  156.9360  133.2290 C   0  0  0  0  0  0  0  0  0  0  0  0
  143.9931  151.4104  133.6411 H   0  0  0  0  0  0  0  0  0  0  0  0
  142.9206  152.0386  132.3442 H   0  0  0  0  0  0  0  0  0  0  0  0
  144.6683  152.4539  132.3442 H   0  0  0  0  0  0  0  0  0  0  0  0
  141.4894  152.8873  133.9129 H   0  0  0  0  0  0  0  0  0  0  0  0
  142.1540  153.8276  135.3297 H   0  0  0  0  0  0  0  0  0  0  0  0
  142.0344  155.2332  132.6989 H   0  0  0  0  0  0  0  0  0  0  0  0
  140.4572  154.8701  133.5922 H   0  0  0  0  0  0  0  0  0  0  0  0
  142.6290  156.6650  134.2480 H   0  0  0  0  0  0  0  0  0  0  0  0
  141.5708  156.8706  136.5221 H   0  0  0  0  0  0  0  0  0  0  0  0
  141.0069  155.1957  136.2006 H   0  0  0  0  0  0  0  0  0  0  0  0
  142.7643  155.5673  136.2006 H   0  0  0  0  0  0  0  0  0  0  0  0
  140.3064  157.6872  135.1741 H   0  0  0  0  0  0  0  0  0  0  0  0
  141.1575  158.0999  133.6470 H   0  0  0  0  0  0  0  0  0  0  0  0
  139.8689  156.8485  133.6470 H   0  0  0  0  0  0  0  0  0  0  0  0
  146.6475  154.3065  134.8670 H   0  0  0  0  0  0  0  0  0  0  0  0
  146.0672  152.7263  134.1837 H   0  0  0  0  0  0  0  0  0  0  0  0
  146.8702  153.2288  132.1712 H   0  0  0  0  0  0  0  0  0  0  0  0
  145.9581  154.8150  132.1893 H   0  0  0  0  0  0  0  0  0  0  0  0
  148.5540  154.5977  133.6893 H   0  0  0  0  0  0  0  0  0  0  0  0
  148.5597  154.7772  131.8800 H   0  0  0  0  0  0  0  0  0  0  0  0
  149.8634  156.9471  132.5689 H   0  0  0  0  0  0  0  0  0  0  0  0
  149.5059  159.4234  132.8217 H   0  0  0  0  0  0  0  0  0  0  0  0
  147.4972  161.3903  133.3333 H   0  0  0  0  0  0  0  0  0  0  0  0
  142.7800  160.4610  133.7670 H   0  0  0  0  0  0  0  0  0  0  0  0
  145.6257  156.2555  133.3304 H   0  0  0  0  0  0  0  0  0  0  0  0
  1  2  1  0
  2  3  1  0
  3  4  1  0
  4  5  1  0
  5  6  1  0
  5  7  1  0
  2  8  1  0
  8  9  2  0
  8 10  1  0
 10 11  1  0
 11 12  1  0
 12 13  1  0
 13 14  2  0
 14 15  1  0
 15 16  2  0
 16 17  1  0
 17 18  2  0
 18 19  1  0
 19 20  1  0
 19 21  2  0
 18 22  1  0
 22 23  1  0
 23 24  2  0
 23 25  1  0
 22 26  1  0
 26 27  2  0
 27 13  1  0
 26 16  1  0
  1 28  1  0
  1 29  1  0
  1 30  1  0
  3 31  1  0
  3 32  1  0
  4 33  1  0
  4 34  1  0
  5 35  1  0
  6 36  1  0
  6 37  1  0
  6 38  1  0
  7 39  1  0
  7 40  1  0
  7 41  1  0
 10 42  1  0
 10 43  1  0
 11 44  1  0
 11 45  1  0
 12 46  1  0
 12 47  1  0
 14 48  1  0
 15 49  1  0
 17 50  1  0
 20 51  1  0
 27 52  1  0
M  CHG  3   5   1  20  -1  25  -1
M  END
>  <UniqueID>  (18) 
18

>  <SMILES>  (18) 
CN(CC[NH+](C)C)C(=O)CCCc1ccc2cc(C([NH-])=O)n(C(=O)[O-])c2c1

>  <Energy>  (18) 
88.11289426986819

>  <Genealogy>  (18) 
CN(CC[NH+](C)C)C(=O)CCCc1ccc2cc(C([NH-])=O)n(C(=O)[O-])c2c1 (protonated)
CN(CC[NH+](C)C)C(=O)CCCc1ccc2cc(C([NH-])=O)n(C(=O)[O-])c2c1 (3D coordinates assigned)
CN(CC[NH+](C)C)C(=O)CCCc1ccc2cc(C([NH-])=O)n(C(=O)[O-])c2c1 (optimized conformer: 88.11289426986819 kcal/mol)

>  <smiles>  (18) 
CN(C)CCN(C)C(=O)CCCc1ccc2cc(C(N)=O)n(C(=O)O)c2c1

>  <score_type>  (18) 
oracle

>  <origin>  (18) 
adg

>  <m_score__min__energy>  (18) 
-5.6600000000000001

>  <m_primary>  (18) 
energy

$$$$
18:0
     RDKit          3D

 59 62  0  0  0  0  0  0  0  0999 V2000
  143.0660  155.3320  135.2760 N   0  0  0  0  0  0  0  0  0  0  0  0
  142.9320  156.5300  134.5180 C   0  0  0  0  0  0  0  0  0  0  0  0
  141.7800  156.9520  134.2280 O   0  0  0  0  0  0  0  0  0  0  0  0
  144.1380  157.2750  134.0960 C   0  0  0  0  0  0  0  0  0  0  0  0
  144.1460  158.6430  133.8320 C   0  0  0  0  0  0  0  0  0  0  0  0
  145.4160  158.9220  133.3830 C   0  0  0  0  0  0  0  0  0  0  0  0
  145.9790  160.1220  132.9550 C   0  0  0  0  0  0  0  0  0  0  0  0
  147.3280  160.1150  132.5600 C   0  0  0  0  0  0  0  0  0  0  0  0
  148.0910  158.9230  132.6210 C   0  0  0  0  0  0  0  0  0  0  0  0
  149.5390  158.9190  132.2080 C   0  0  0  0  0  0  0  0  0  0  0  0
  149.7150  159.4490  130.7800 C   0  0  0  0  0  0  0  0  0  0  0  0
  148.9900  158.6720  129.8650 O   0  0  0  0  0  0  0  0  0  0  0  0
  147.4830  157.7220  133.0540 C   0  0  0  0  0  0  0  0  0  0  0  0
  146.1300  157.7550  133.4020 C   0  0  0  0  0  0  0  0  0  0  0  0
  145.3560  156.7350  133.8290 N   0  0  0  0  0  0  0  0  0  0  0  0
  145.7910  155.3760  133.9960 C   0  0  0  0  0  0  0  0  0  0  0  0
  146.0770  154.9650  135.1540 O   0  0  0  0  0  0  0  0  0  0  0  0
  145.7160  154.3940  132.8430 C   0  0  1  0  0  0  0  0  0  0  0  0
  145.6850  152.9230  133.3450 C   0  0  0  0  0  0  0  0  0  0  0  0
  144.6960  152.0490  132.5550 C   0  0  0  0  0  0  0  0  0  0  0  0
  143.3130  152.6030  132.5410 N   0  0  1  0  0  0  0  0  0  0  0  0
  142.5320  152.1310  133.6620 C   0  0  0  0  0  0  0  0  0  0  0  0
  142.6620  152.6600  134.8010 O   0  0  0  0  0  0  0  0  0  0  0  0
  141.5430  151.1540  133.4370 O   0  0  0  0  0  0  0  0  0  0  0  0
  141.1630  150.6760  132.1850 N   0  0  0  0  0  0  0  0  0  0  0  0
  139.7010  150.6900  132.0260 C   0  0  0  0  0  0  0  0  0  0  0  0
  139.2820  149.3400  131.4660 C   0  0  0  0  0  0  0  0  0  0  0  0
  140.4390  148.4080  131.7600 C   0  0  0  0  0  0  0  0  0  0  0  0
  141.6480  149.3100  131.9480 C   0  0  0  0  0  0  0  0  0  0  0  0
  143.2290  154.0880  132.4780 C   0  0  0  0  0  0  0  0  0  0  0  0
  144.5110  154.7310  131.9410 C   0  0  0  0  0  0  0  0  0  0  0  0
  143.7650  154.6050  135.0060 H   0  0  0  0  0  0  0  0  0  0  0  0
  143.3129  159.3504  133.9563 H   0  0  0  0  0  0  0  0  0  0  0  0
  145.3855  161.0477  132.9269 H   0  0  0  0  0  0  0  0  0  0  0  0
  147.7954  161.0435  132.2003 H   0  0  0  0  0  0  0  0  0  0  0  0
  150.1101  159.5563  132.8992 H   0  0  0  0  0  0  0  0  0  0  0  0
  149.9052  157.8823  132.2400 H   0  0  0  0  0  0  0  0  0  0  0  0
  149.3558  160.4877  130.7345 H   0  0  0  0  0  0  0  0  0  0  0  0
  150.7816  159.3994  130.5157 H   0  0  0  0  0  0  0  0  0  0  0  0
  148.8270  157.7990  130.3050 H   0  0  0  0  0  0  0  0  0  0  0  0
  148.0594  156.7871  133.1152 H   0  0  0  0  0  0  0  0  0  0  0  0
  146.6291  154.4913  132.2374 H   0  0  0  0  0  0  0  0  0  0  0  0
  145.3903  152.9186  134.4048 H   0  0  0  0  0  0  0  0  0  0  0  0
  146.6906  152.5009  133.2017 H   0  0  0  0  0  0  0  0  0  0  0  0
  144.6686  151.0491  133.0128 H   0  0  0  0  0  0  0  0  0  0  0  0
  145.0472  152.0138  131.5131 H   0  0  0  0  0  0  0  0  0  0  0  0
  142.8520  152.2190  131.6790 H   0  0  0  0  0  0  0  0  0  0  0  0
  139.2200  150.8563  133.0012 H   0  0  0  0  0  0  0  0  0  0  0  0
  139.3959  151.4995  131.3466 H   0  0  0  0  0  0  0  0  0  0  0  0
  138.3661  148.9851  131.9612 H   0  0  0  0  0  0  0  0  0  0  0  0
  139.0620  149.3933  130.3895 H   0  0  0  0  0  0  0  0  0  0  0  0
  140.2443  147.8300  132.6754 H   0  0  0  0  0  0  0  0  0  0  0  0
  140.5940  147.6808  130.9493 H   0  0  0  0  0  0  0  0  0  0  0  0
  142.2379  148.9683  132.8113 H   0  0  0  0  0  0  0  0  0  0  0  0
  142.2884  149.2817  131.0541 H   0  0  0  0  0  0  0  0  0  0  0  0
  143.0400  154.4729  133.4910 H   0  0  0  0  0  0  0  0  0  0  0  0
  142.4136  154.3453  131.7859 H   0  0  0  0  0  0  0  0  0  0  0  0
  144.3799  155.8227  131.9083 H   0  0  0  0  0  0  0  0  0  0  0  0
  144.7059  154.3368  130.9327 H   0  0  0  0  0  0  0  0  0  0  0  0
  1  2  1  0
  2  3  2  0
  2  4  1  0
  4  5  2  0
  5  6  1  0
  6  7  2  0
  7  8  1  0
  8  9  2  0
  9 10  1  0
 10 11  1  0
 11 12  1  0
  9 13  1  0
 13 14  2  0
 14 15  1  0
 15 16  1  0
 16 17  2  0
 16 18  1  0
 18 19  1  0
 19 20  1  0
 20 21  1  0
 21 22  1  0
 22 23  2  0
 22 24  1  0
 24 25  1  0
 25 26  1  0
 26 27  1  0
 27 28  1  0
 28 29  1  0
 21 30  1  0
 30 31  1  0
 15  4  1  0
 31 18  1  0
 14  6  1  0
 29 25  1  0
  1 32  1  0
  5 33  1  0
  7 34  1  0
  8 35  1  0
 10 36  1  0
 10 37  1  0
 11 38  1  0
 11 39  1  0
 12 40  1  0
 13 41  1  0
 18 42  1  6
 19 43  1  0
 19 44  1  0
 20 45  1  0
 20 46  1  0
 21 47  1  6
 26 48  1  0
 26 49  1  0
 27 50  1  0
 27 51  1  0
 28 52  1  0
 28 53  1  0
 29 54  1  0
 29 55  1  0
 30 56  1  0
 30 57  1  0
 31 58  1  0
 31 59  1  0
M  CHG  2   1  -1  21   1
M  END
>  <UniqueID>  (19) 
19

>  <SMILES>  (19) 
[NH-]C(=O)c1cc2ccc(CCO)cc2n1C(=O)C1CC[NH+](C(=O)ON2CCCC2)CC1

>  <Energy>  (19) 
113.99675823461709

>  <Genealogy>  (19) 
[NH-]C(=O)c1cc2ccc(CCO)cc2n1C(=O)C1CC[NH+](C(=O)ON2CCCC2)CC1 (protonated)
[NH-]C(=O)c1cc2ccc(CCO)cc2n1C(=O)C1CC[NH+](C(=O)ON2CCCC2)CC1 (3D coordinates assigned)
[NH-]C(=O)c1cc2ccc(CCO)cc2n1C(=O)C1CC[NH+](C(=O)ON2CCCC2)CC1 (nonaromatic ring conformer: 113.99675823461709 kcal/mol)

>  <smiles>  (19) 
NC(=O)c1cc2ccc(CCO)cc2n1C(=O)C1CCN(C(=O)ON2CCCC2)CC1

>  <score_type>  (19) 
oracle

>  <origin>  (19) 
adg

>  <m_score__min__energy>  (19) 
-8.8100000000000005

>  <m_primary>  (19) 
energy

$$$$
19:0
     RDKit          3D

 24 25  0  0  0  0  0  0  0  0999 V2000
  141.4480  161.0220  133.7250 N   0  0  0  0  0  0  0  0  0  0  0  0
  142.2550  160.1270  134.4850 C   0  0  0  0  0  0  0  0  0  0  0  0
  141.8360  159.7110  135.5970 O   0  0  0  0  0  0  0  0  0  0  0  0
  143.6000  159.7310  134.0150 C   0  0  0  0  0  0  0  0  0  0  0  0
  143.9400  158.4200  133.6900 C   0  0  0  0  0  0  0  0  0  0  0  0
  145.2830  158.4540  133.3950 C   0  0  0  0  0  0  0  0  0  0  0  0
  146.1380  157.4310  132.9960 C   0  0  0  0  0  0  0  0  0  0  0  0
  147.4770  157.7590  132.7270 C   0  0  0  0  0  0  0  0  0  0  0  0
  147.9330  159.0940  132.8550 C   0  0  0  0  0  0  0  0  0  0  0  0
  149.3660  159.4260  132.5470 C   0  0  0  0  0  0  0  0  0  0  0  0
  149.4180  160.5040  131.6820 F   0  0  0  0  0  0  0  0  0  0  0  0
  149.9810  158.3370  131.9570 F   0  0  0  0  0  0  0  0  0  0  0  0
  147.0360  160.1080  133.2600 C   0  0  0  0  0  0  0  0  0  0  0  0
  145.7110  159.7500  133.5380 C   0  0  0  0  0  0  0  0  0  0  0  0
  144.6870  160.5470  133.9170 N   0  0  0  0  0  0  0  0  0  0  0  0
  144.7300  161.9750  134.0760 C   0  0  0  0  0  0  0  0  0  0  0  0
  145.5980  162.5060  134.8160 O   0  0  0  0  0  0  0  0  0  0  0  0
  143.8320  162.7840  133.3910 O   0  0  0  0  0  0  0  0  0  0  0  0
  141.8370  161.9190  133.3600 H   0  0  0  0  0  0  0  0  0  0  0  0
  143.2755  157.5435  133.6729 H   0  0  0  0  0  0  0  0  0  0  0  0
  145.7762  156.3972  132.8944 H   0  0  0  0  0  0  0  0  0  0  0  0
  148.1783  156.9715  132.4139 H   0  0  0  0  0  0  0  0  0  0  0  0
  149.8864  159.6789  133.4825 H   0  0  0  0  0  0  0  0  0  0  0  0
  147.3700  161.1518  133.3545 H   0  0  0  0  0  0  0  0  0  0  0  0
  1  2  1  0
  2  3  2  0
  2  4  1  0
  4  5  2  0
  5  6  1  0
  6  7  2  0
  7  8  1  0
  8  9  2  0
  9 10  1  0
 10 11  1  0
 10 12  1  0
  9 13  1  0
 13 14  2  0
 14 15  1  0
 15 16  1  0
 16 17  2  0
 16 18  1  0
 15  4  1  0
 14  6  1  0
  1 19  1  0
  5 20  1  0
  7 21  1  0
  8 22  1  0
 10 23  1  0
 13 24  1  0
M  CHG  2   1  -1  18  -1
M  END
>  <UniqueID>  (20) 
20

>  <SMILES>  (20) 
[NH-]C(=O)c1cc2ccc(C(F)F)cc2n1C(=O)[O-]

>  <Energy>  (20) 
64.189518538825

>  <Genealogy>  (20) 
[NH-]C(=O)c1cc2ccc(C(F)F)cc2n1C(=O)[O-] (protonated)
[NH-]C(=O)c1cc2ccc(C(F)F)cc2n1C(=O)[O-] (3D coordinates assigned)
[NH-]C(=O)c1cc2ccc(C(F)F)cc2n1C(=O)[O-] (optimized conformer: 64.189518538825 kcal/mol)

>  <smiles>  (20) 
NC(=O)c1cc2ccc(C(F)F)cc2n1C(=O)O

>  <score_type>  (20) 
oracle

>  <origin>  (20) 
adg

>  <m_score__min__energy>  (20) 
-5.3300000000000001

>  <m_primary>  (20) 
energy

$$$$
20:0
     RDKit          3D

 39 41  0  0  0  0  0  0  0  0999 V2000
  140.6420  159.4210  136.8700 N   0  0  0  0  0  0  0  0  0  0  0  0
  140.5580  158.6600  135.6670 C   0  0  0  0  0  0  0  0  0  0  0  0
  139.4580  158.5860  135.0590 O   0  0  0  0  0  0  0  0  0  0  0  0
  141.7440  157.9330  135.1720 C   0  0  0  0  0  0  0  0  0  0  0  0
  142.0050  156.5970  135.4700 C   0  0  0  0  0  0  0  0  0  0  0  0
  143.1520  156.2870  134.7780 C   0  0  0  0  0  0  0  0  0  0  0  0
  143.8920  155.1090  134.7570 C   0  0  0  0  0  0  0  0  0  0  0  0
  145.0920  155.0980  134.0300 C   0  0  0  0  0  0  0  0  0  0  0  0
  145.5340  156.2590  133.3460 C   0  0  0  0  0  0  0  0  0  0  0  0
  146.8680  156.2580  132.6400 C   0  0  0  0  0  0  0  0  0  0  0  0
  148.0680  156.2220  133.6060 C   0  0  0  0  0  0  0  0  0  0  0  0
  148.3870  157.5800  134.2560 C   0  0  0  0  0  0  0  0  0  0  0  0
  148.3440  158.6640  133.2740 N   0  0  0  0  0  0  0  0  0  0  0  0
  149.1900  158.8310  132.2390 C   0  0  0  0  0  0  0  0  0  0  0  0
  148.8300  159.9900  131.5830 C   0  0  0  0  0  0  0  0  0  0  0  0
  149.5010  160.6100  130.4360 C   0  0  0  0  0  0  0  0  0  0  0  0
  149.6200  161.8630  130.3720 O   0  0  0  0  0  0  0  0  0  0  0  0
  150.0000  159.8210  129.4080 O   0  0  0  0  0  0  0  0  0  0  0  0
  147.7310  160.4730  132.2680 C   0  0  0  0  0  0  0  0  0  0  0  0
  147.4520  159.6450  133.2930 N   0  0  0  0  0  0  0  0  0  0  0  0
  144.7380  157.4260  133.3590 C   0  0  0  0  0  0  0  0  0  0  0  0
  143.5470  157.4090  134.0950 C   0  0  0  0  0  0  0  0  0  0  0  0
  142.6940  158.4310  134.3310 N   0  0  0  0  0  0  0  0  0  0  0  0
  142.8420  159.7860  133.8780 C   0  0  0  0  0  0  0  0  0  0  0  0
  141.8730  160.3910  133.3490 O   0  0  0  0  0  0  0  0  0  0  0  0
  144.0670  160.4330  133.9890 O   0  0  0  0  0  0  0  0  0  0  0  0
  139.8550  159.4290  137.5560 H   0  0  0  0  0  0  0  0  0  0  0  0
  141.4182  155.9318  136.1205 H   0  0  0  0  0  0  0  0  0  0  0  0
  143.5467  154.2133  135.2941 H   0  0  0  0  0  0  0  0  0  0  0  0
  145.6960  154.1796  133.9902 H   0  0  0  0  0  0  0  0  0  0  0  0
  146.9176  155.3732  131.9883 H   0  0  0  0  0  0  0  0  0  0  0  0
  146.9361  157.1964  132.0702 H   0  0  0  0  0  0  0  0  0  0  0  0
  147.8476  155.4989  134.4051 H   0  0  0  0  0  0  0  0  0  0  0  0
  148.9484  155.9386  133.0106 H   0  0  0  0  0  0  0  0  0  0  0  0
  147.6475  157.7819  135.0449 H   0  0  0  0  0  0  0  0  0  0  0  0
  149.4024  157.5331  134.6763 H   0  0  0  0  0  0  0  0  0  0  0  0
  150.0197  158.1625  131.9657 H   0  0  0  0  0  0  0  0  0  0  0  0
  147.1735  161.3873  132.0164 H   0  0  0  0  0  0  0  0  0  0  0  0
  145.0460  158.3251  132.8051 H   0  0  0  0  0  0  0  0  0  0  0  0
  1  2  1  0
  2  3  2  0
  2  4  1  0
  4  5  2  0
  5  6  1  0
  6  7  2  0
  7  8  1  0
  8  9  2  0
  9 10  1  0
 10 11  1  0
 11 12  1  0
 12 13  1  0
 13 14  1  0
 14 15  2  0
 15 16  1  0
 16 17  2  0
 16 18  1  0
 15 19  1  0
 19 20  2  0
  9 21  1  0
 21 22  2  0
 22 23  1  0
 23 24  1  0
 24 25  2  0
 24 26  1  0
 23  4  1  0
 22  6  1  0
 20 13  1  0
  1 27  1  0
  5 28  1  0
  7 29  1  0
  8 30  1  0
 10 31  1  0
 10 32  1  0
 11 33  1  0
 11 34  1  0
 12 35  1  0
 12 36  1  0
 14 37  1  0
 19 38  1  0
 21 39  1  0
M  CHG  3   1  -1  18  -1  26  -1
M  END
>  <UniqueID>  (21) 
21

>  <SMILES>  (21) 
[NH-]C(=O)c1cc2ccc(CCCn3cc(C(=O)[O-])cn3)cc2n1C(=O)[O-]

>  <Energy>  (21) 
101.77061567476265

>  <Genealogy>  (21) 
[NH-]C(=O)c1cc2ccc(CCCn3cc(C(=O)[O-])cn3)cc2n1C(=O)[O-] (protonated)
[NH-]C(=O)c1cc2ccc(CCCn3cc(C(=O)[O-])cn3)cc2n1C(=O)[O-] (3D coordinates assigned)
[NH-]C(=O)c1cc2ccc(CCCn3cc(C(=O)[O-])cn3)cc2n1C(=O)[O-] (optimized conformer: 101.77061567476265 kcal/mol)

>  <smiles>  (21) 
NC(=O)c1cc2ccc(CCCn3cc(C(=O)O)cn3)cc2n1C(=O)O

>  <score_type>  (21) 
oracle

>  <origin>  (21) 
adg

>  <m_score__min__energy>  (21) 
-7.6699999999999999

>  <m_primary>  (21) 
energy

$$$$
21:0
     RDKit          3D

 36 38  0  0  0  0  0  0  0  0999 V2000
  149.7540  161.5490  130.3030 C   0  0  0  0  0  0  0  0  0  0  0  0
  148.9590  160.3080  130.2760 N   0  0  0  0  0  0  0  0  0  0  0  0
  149.6560  159.2280  130.9870 C   0  0  0  0  0  0  0  0  0  0  0  0
  149.2030  159.2540  132.4410 C   0  0  0  0  0  0  0  0  0  0  0  0
  147.8970  160.0460  132.4420 C   0  0  2  0  0  0  0  0  0  0  0  0
  146.7210  159.2550  132.9840 C   0  0  0  0  0  0  0  0  0  0  0  0
  146.8450  157.8680  133.2690 C   0  0  0  0  0  0  0  0  0  0  0  0
  145.7500  157.1320  133.7510 C   0  0  0  0  0  0  0  0  0  0  0  0
  144.5470  157.8040  133.9430 C   0  0  0  0  0  0  0  0  0  0  0  0
  143.3290  157.3290  134.3710 C   0  0  0  0  0  0  0  0  0  0  0  0
  142.4780  158.4320  134.3620 C   0  0  0  0  0  0  0  0  0  0  0  0
  141.0790  158.3830  134.8360 C   0  0  0  0  0  0  0  0  0  0  0  0
  140.6010  159.3790  135.7380 N   0  0  0  0  0  0  0  0  0  0  0  0
  140.2890  157.4940  134.4250 O   0  0  0  0  0  0  0  0  0  0  0  0
  143.1430  159.5450  133.9360 N   0  0  0  0  0  0  0  0  0  0  0  0
  142.6130  160.8640  133.7270 C   0  0  0  0  0  0  0  0  0  0  0  0
  141.3790  161.0320  133.5360 O   0  0  0  0  0  0  0  0  0  0  0  0
  143.4590  161.9650  133.7090 O   0  0  0  0  0  0  0  0  0  0  0  0
  144.4090  159.1430  133.6860 C   0  0  0  0  0  0  0  0  0  0  0  0
  145.4780  159.8970  133.1880 C   0  0  0  0  0  0  0  0  0  0  0  0
  147.6870  160.4860  130.9880 C   0  0  0  0  0  0  0  0  0  0  0  0
  149.9415  161.8417  131.3466 H   0  0  0  0  0  0  0  0  0  0  0  0
  150.7131  161.3812  129.7912 H   0  0  0  0  0  0  0  0  0  0  0  0
  149.2006  162.3502  129.7912 H   0  0  0  0  0  0  0  0  0  0  0  0
  149.4024  158.2582  130.5341 H   0  0  0  0  0  0  0  0  0  0  0  0
  150.7451  159.3685  130.9231 H   0  0  0  0  0  0  0  0  0  0  0  0
  149.0340  158.2317  132.8103 H   0  0  0  0  0  0  0  0  0  0  0  0
  149.9590  159.7087  133.0981 H   0  0  0  0  0  0  0  0  0  0  0  0
  147.9623  160.9094  133.1204 H   0  0  0  0  0  0  0  0  0  0  0  0
  147.8102  157.3649  133.1102 H   0  0  0  0  0  0  0  0  0  0  0  0
  145.8408  156.0578  133.9699 H   0  0  0  0  0  0  0  0  0  0  0  0
  143.0798  156.2971  134.6592 H   0  0  0  0  0  0  0  0  0  0  0  0
  140.6220  160.3910  135.4830 H   0  0  0  0  0  0  0  0  0  0  0  0
  145.3537  160.9660  132.9603 H   0  0  0  0  0  0  0  0  0  0  0  0
  146.9065  159.8686  130.5194 H   0  0  0  0  0  0  0  0  0  0  0  0
  147.3684  161.5381  130.9475 H   0  0  0  0  0  0  0  0  0  0  0  0
  1  2  1  0
  2  3  1  0
  3  4  1  0
  4  5  1  0
  5  6  1  0
  6  7  2  0
  7  8  1  0
  8  9  2  0
  9 10  1  0
 10 11  2  0
 11 12  1  0
 12 13  1  0
 12 14  2  0
 11 15  1  0
 15 16  1  0
 16 17  2  0
 16 18  1  0
 15 19  1  0
 19 20  2  0
  5 21  1  0
 21  2  1  0
 20  6  1  0
 19  9  1  0
  1 22  1  0
  1 23  1  0
  1 24  1  0
  3 25  1  0
  3 26  1  0
  4 27  1  0
  4 28  1  0
  5 29  1  1
  7 30  1  0
  8 31  1  0
 10 32  1  0
 13 33  1  0
 20 34  1  0
 21 35  1  0
 21 36  1  0
M  CHG  2  13  -1  18  -1
M  END
>  <UniqueID>  (22) 
22

>  <SMILES>  (22) 
CN1CC[C@H](c2ccc3cc(C([NH-])=O)n(C(=O)[O-])c3c2)C1

>  <Energy>  (22) 
81.09847639694718

>  <Genealogy>  (22) 
CN1CCC(c2ccc3cc(C([NH-])=O)n(C(=O)[O-])c3c2)C1 (protonated)
CN1CC[C@H](c2ccc3cc(C([NH-])=O)n(C(=O)[O-])c3c2)C1 (chirality)
CN1CC[C@H](c2ccc3cc(C([NH-])=O)n(C(=O)[O-])c3c2)C1 (3D coordinates assigned)
CN1CC[C@H](c2ccc3cc(C([NH-])=O)n(C(=O)[O-])c3c2)C1 (nonaromatic ring conformer: 81.09847639694718 kcal/mol)

>  <smiles>  (22) 
CN1CCC(c2ccc3cc(C(N)=O)n(C(=O)O)c3c2)C1

>  <score_type>  (22) 
oracle

>  <origin>  (22) 
adg

>  <m_score__min__energy>  (22) 
-7.5

>  <m_primary>  (22) 
energy

$$$$
22:0
     RDKit          3D

 25 26  0  0  0  0  0  0  0  0999 V2000
  147.3540  155.6200  131.8660 N   0  0  0  0  0  0  0  0  0  0  0  0
  146.5040  155.9030  132.9770 C   0  0  0  0  0  0  0  0  0  0  0  0
  146.2410  154.9870  133.8020 O   0  0  0  0  0  0  0  0  0  0  0  0
  145.9820  157.2640  133.2140 C   0  0  0  0  0  0  0  0  0  0  0  0
  144.6270  157.5490  133.3600 C   0  0  0  0  0  0  0  0  0  0  0  0
  144.5670  158.8970  133.6230 C   0  0  0  0  0  0  0  0  0  0  0  0
  143.4620  159.7180  133.8270 C   0  0  0  0  0  0  0  0  0  0  0  0
  143.6880  161.0890  134.0310 C   0  0  0  0  0  0  0  0  0  0  0  0
  145.0060  161.6140  134.0360 C   0  0  0  0  0  0  0  0  0  0  0  0
  145.2300  163.0980  134.1900 C   0  0  0  0  0  0  0  0  0  0  0  0
  144.2790  163.7800  133.4540 F   0  0  0  0  0  0  0  0  0  0  0  0
  145.1260  163.4720  135.5180 F   0  0  0  0  0  0  0  0  0  0  0  0
  146.4890  163.4500  133.7380 F   0  0  0  0  0  0  0  0  0  0  0  0
  146.1010  160.7510  133.7970 C   0  0  0  0  0  0  0  0  0  0  0  0
  145.8490  159.3850  133.6200 C   0  0  0  0  0  0  0  0  0  0  0  0
  146.7320  158.3920  133.3670 N   0  0  0  0  0  0  0  0  0  0  0  0
  148.1510  158.5310  133.1770 C   0  0  0  0  0  0  0  0  0  0  0  0
  148.7030  158.0650  132.1450 O   0  0  0  0  0  0  0  0  0  0  0  0
  148.9280  159.1820  134.1270 O   0  0  0  0  0  0  0  0  0  0  0  0
  147.7280  156.3870  131.2640 H   0  0  0  0  0  0  0  0  0  0  0  0
  147.6830  154.6440  131.6920 H   0  0  0  0  0  0  0  0  0  0  0  0
  143.7847  156.8459  133.2817 H   0  0  0  0  0  0  0  0  0  0  0  0
  142.4423  159.3055  133.8284 H   0  0  0  0  0  0  0  0  0  0  0  0
  142.8334  161.7634  134.1887 H   0  0  0  0  0  0  0  0  0  0  0  0
  147.1273  161.1441  133.7512 H   0  0  0  0  0  0  0  0  0  0  0  0
  1  2  1  0
  2  3  2  0
  2  4  1  0
  4  5  2  0
  5  6  1  0
  6  7  2  0
  7  8  1  0
  8  9  2  0
  9 10  1  0
 10 11  1  0
 10 12  1  0
 10 13  1  0
  9 14  1  0
 14 15  2  0
 15 16  1  0
 16 17  1  0
 17 18  2  0
 17 19  1  0
 16  4  1  0
 15  6  1  0
  1 20  1  0
  1 21  1  0
  5 22  1  0
  7 23  1  0
  8 24  1  0
 14 25  1  0
M  CHG  1  19  -1
M  END
>  <UniqueID>  (23) 
23

>  <SMILES>  (23) 
NC(=O)c1cc2ccc(C(F)(F)F)cc2n1C(=O)[O-]

>  <Energy>  (23) 
66.34749042515128

>  <Genealogy>  (23) 
NC(=O)c1cc2ccc(C(F)(F)F)cc2n1C(=O)[O-] (protonated)
NC(=O)c1cc2ccc(C(F)(F)F)cc2n1C(=O)[O-] (3D coordinates assigned)
NC(=O)c1cc2ccc(C(F)(F)F)cc2n1C(=O)[O-] (optimized conformer: 66.34749042515128 kcal/mol)

>  <smiles>  (23) 
NC(=O)c1cc2ccc(C(F)(F)F)cc2n1C(=O)O

>  <score_type>  (23) 
oracle

>  <origin>  (23) 
adg

>  <m_score__min__energy>  (23) 
-5.4199999999999999

>  <m_primary>  (23) 
energy

$$$$
23:0
     RDKit          3D

 44 46  0  0  0  0  0  0  0  0999 V2000
  139.9180  157.4800  136.2680 C   0  0  0  0  0  0  0  0  0  0  0  0
  141.0210  156.4430  136.0910 C   0  0  0  0  0  0  0  0  0  0  0  0
  140.8590  155.7430  134.8590 O   0  0  0  0  0  0  0  0  0  0  0  0
  140.6130  156.3790  133.6370 C   0  0  0  0  0  0  0  0  0  0  0  0
  139.9740  155.7860  132.7250 O   0  0  0  0  0  0  0  0  0  0  0  0
  141.1050  157.7110  133.4180 N   0  0  0  0  0  0  0  0  0  0  0  0
  140.3780  158.8360  133.1690 C   0  0  0  0  0  0  0  0  0  0  0  0
  138.9270  158.8890  132.8960 C   0  0  0  0  0  0  0  0  0  0  0  0
  138.0540  157.8650  133.3650 N   0  0  0  0  0  0  0  0  0  0  0  0
  138.4580  159.8280  132.1970 O   0  0  0  0  0  0  0  0  0  0  0  0
  141.2090  159.9530  133.1210 C   0  0  0  0  0  0  0  0  0  0  0  0
  142.4790  159.4720  133.3430 C   0  0  0  0  0  0  0  0  0  0  0  0
  143.6920  160.1490  133.4100 C   0  0  0  0  0  0  0  0  0  0  0  0
  144.8500  159.4030  133.6820 C   0  0  0  0  0  0  0  0  0  0  0  0
  144.7790  157.9990  133.8980 C   0  0  0  0  0  0  0  0  0  0  0  0
  146.0300  157.1770  134.1710 C   0  0  0  0  0  0  0  0  0  0  0  0
  145.7410  155.6630  134.0670 C   0  0  0  0  0  0  0  0  0  0  0  0
  145.8370  155.1210  132.6270 C   0  0  0  0  0  0  0  0  0  0  0  0
  146.9760  155.6550  131.8410 N   0  0  0  0  0  0  0  0  0  0  0  0
  147.9370  156.4420  132.6280 C   0  0  0  0  0  0  0  0  0  0  0  0
  147.2420  157.6240  133.3130 C   0  0  0  0  0  0  0  0  0  0  0  0
  143.5230  157.3510  133.8120 C   0  0  0  0  0  0  0  0  0  0  0  0
  142.3900  158.1170  133.5200 C   0  0  0  0  0  0  0  0  0  0  0  0
  139.7404  157.6470  137.3407 H   0  0  0  0  0  0  0  0  0  0  0  0
  140.2240  158.4251  135.7955 H   0  0  0  0  0  0  0  0  0  0  0  0
  138.9936  157.1163  135.7955 H   0  0  0  0  0  0  0  0  0  0  0  0
  141.9973  156.9497  136.0932 H   0  0  0  0  0  0  0  0  0  0  0  0
  140.9651  155.7210  136.9190 H   0  0  0  0  0  0  0  0  0  0  0  0
  138.1330  156.8870  133.0090 H   0  0  0  0  0  0  0  0  0  0  0  0
  140.9129  160.9974  132.9434 H   0  0  0  0  0  0  0  0  0  0  0  0
  143.7427  161.2368  133.2545 H   0  0  0  0  0  0  0  0  0  0  0  0
  145.8246  159.9109  133.7287 H   0  0  0  0  0  0  0  0  0  0  0  0
  146.3262  157.3742  135.2118 H   0  0  0  0  0  0  0  0  0  0  0  0
  146.4691  155.1249  134.6918 H   0  0  0  0  0  0  0  0  0  0  0  0
  144.7066  155.5049  134.4062 H   0  0  0  0  0  0  0  0  0  0  0  0
  145.9385  154.0269  132.6782 H   0  0  0  0  0  0  0  0  0  0  0  0
  144.9220  155.4457  132.1100 H   0  0  0  0  0  0  0  0  0  0  0  0
  147.4900  154.8580  131.3990 H   0  0  0  0  0  0  0  0  0  0  0  0
  146.6110  156.2530  131.0630 H   0  0  0  0  0  0  0  0  0  0  0  0
  148.3895  155.7961  133.3949 H   0  0  0  0  0  0  0  0  0  0  0  0
  148.7107  156.8326  131.9507 H   0  0  0  0  0  0  0  0  0  0  0  0
  147.9682  158.1324  133.9643 H   0  0  0  0  0  0  0  0  0  0  0  0
  146.8682  158.2963  132.5268 H   0  0  0  0  0  0  0  0  0  0  0  0
  143.4400  156.2658  133.9718 H   0  0  0  0  0  0  0  0  0  0  0  0
  1  2  1  0
  2  3  1  0
  3  4  1  0
  4  5  2  0
  4  6  1  0
  6  7  1  0
  7  8  1  0
  8  9  1  0
  8 10  2  0
  7 11  2  0
 11 12  1  0
 12 13  2  0
 13 14  1  0
 14 15  2  0
 15 16  1  0
 16 17  1  0
 17 18  1  0
 18 19  1  0
 19 20  1  0
 20 21  1  0
 15 22  1  0
 22 23  2  0
 23  6  1  0
 23 12  1  0
 21 16  1  0
  1 24  1  0
  1 25  1  0
  1 26  1  0
  2 27  1  0
  2 28  1  0
  9 29  1  0
 11 30  1  0
 13 31  1  0
 14 32  1  0
 16 33  1  0
 17 34  1  0
 17 35  1  0
 18 36  1  0
 18 37  1  0
 19 38  1  0
 19 39  1  0
 20 40  1  0
 20 41  1  0
 21 42  1  0
 21 43  1  0
 22 44  1  0
M  CHG  2   9  -1  19   1
M  END
>  <UniqueID>  (24) 
24

>  <SMILES>  (24) 
CCOC(=O)n1c(C([NH-])=O)cc2ccc(C3CC[NH2+]CC3)cc21

>  <Energy>  (24) 
88.98908819851572

>  <Genealogy>  (24) 
CCOC(=O)n1c(C([NH-])=O)cc2ccc(C3CC[NH2+]CC3)cc21 (protonated)
CCOC(=O)n1c(C([NH-])=O)cc2ccc(C3CC[NH2+]CC3)cc21 (3D coordinates assigned)
CCOC(=O)n1c(C([NH-])=O)cc2ccc(C3CC[NH2+]CC3)cc21 (nonaromatic ring conformer: 88.98908819851572 kcal/mol)

>  <smiles>  (24) 
CCOC(=O)n1c(C(N)=O)cc2ccc(C3CCNCC3)cc21

>  <score_type>  (24) 
oracle

>  <origin>  (24) 
adg

>  <m_score__min__energy>  (24) 
-7.0199999999999996

>  <m_primary>  (24) 
energy

$$$$
24:0
     RDKit          3D

 37 39  0  0  0  0  0  0  0  0999 V2000
  149.9420  157.7740  131.8950 N   0  0  0  0  0  0  0  0  0  0  0  0
  149.4040  159.0730  132.1200 C   0  0  0  0  0  0  0  0  0  0  0  0
  150.0800  160.0860  131.7960 O   0  0  0  0  0  0  0  0  0  0  0  0
  148.0450  159.2490  132.6740 C   0  0  0  0  0  0  0  0  0  0  0  0
  147.4640  160.4970  132.8930 C   0  0  0  0  0  0  0  0  0  0  0  0
  146.1840  160.2320  133.3230 C   0  0  0  0  0  0  0  0  0  0  0  0
  145.1700  161.1080  133.7030 C   0  0  0  0  0  0  0  0  0  0  0  0
  143.9570  160.5560  134.1450 C   0  0  0  0  0  0  0  0  0  0  0  0
  143.7800  159.1510  134.2010 C   0  0  0  0  0  0  0  0  0  0  0  0
  142.4990  158.5710  134.7440 C   0  0  0  0  0  0  0  0  0  0  0  0
  141.3640  159.6060  134.7470 C   0  0  0  0  0  0  0  0  0  0  0  0
  140.2640  159.2320  133.7870 C   0  0  0  0  0  0  0  0  0  0  0  0
  139.4030  158.1610  134.0780 C   0  0  0  0  0  0  0  0  0  0  0  0
  138.3530  157.8480  133.2110 C   0  0  0  0  0  0  0  0  0  0  0  0
  138.1520  158.6010  132.0520 C   0  0  0  0  0  0  0  0  0  0  0  0
  139.0000  159.6730  131.7590 C   0  0  0  0  0  0  0  0  0  0  0  0
  138.7400  160.6270  130.3090 Cl  0  0  0  0  0  0  0  0  0  0  0  0
  140.0520  159.9910  132.6250 C   0  0  0  0  0  0  0  0  0  0  0  0
  144.8340  158.2950  133.8130 C   0  0  0  0  0  0  0  0  0  0  0  0
  146.0250  158.8710  133.3590 C   0  0  0  0  0  0  0  0  0  0  0  0
  147.1610  158.2520  132.9670 N   0  0  0  0  0  0  0  0  0  0  0  0
  147.3960  156.8340  132.9600 C   0  0  0  0  0  0  0  0  0  0  0  0
  147.3690  156.1900  131.8780 O   0  0  0  0  0  0  0  0  0  0  0  0
  147.6810  156.1640  134.1430 O   0  0  0  0  0  0  0  0  0  0  0  0
  149.3530  157.0090  131.4990 H   0  0  0  0  0  0  0  0  0  0  0  0
  147.9296  161.4836  132.7521 H   0  0  0  0  0  0  0  0  0  0  0  0
  145.3149  162.1975  133.6583 H   0  0  0  0  0  0  0  0  0  0  0  0
  143.1358  161.2208  134.4509 H   0  0  0  0  0  0  0  0  0  0  0  0
  142.2010  157.7167  134.1184 H   0  0  0  0  0  0  0  0  0  0  0  0
  142.6782  158.2552  135.7823 H   0  0  0  0  0  0  0  0  0  0  0  0
  140.9443  159.6714  135.7617 H   0  0  0  0  0  0  0  0  0  0  0  0
  141.7816  160.5728  134.4292 H   0  0  0  0  0  0  0  0  0  0  0  0
  139.5558  157.5670  134.9911 H   0  0  0  0  0  0  0  0  0  0  0  0
  137.6831  157.0066  133.4418 H   0  0  0  0  0  0  0  0  0  0  0  0
  137.3263  158.3505  131.3697 H   0  0  0  0  0  0  0  0  0  0  0  0
  140.7149  160.8381  132.3948 H   0  0  0  0  0  0  0  0  0  0  0  0
  144.7211  157.2021  133.8665 H   0  0  0  0  0  0  0  0  0  0  0  0
  1  2  1  0
  2  3  2  0
  2  4  1  0
  4  5  2  0
  5  6  1  0
  6  7  2  0
  7  8  1  0
  8  9  2  0
  9 10  1  0
 10 11  1  0
 11 12  1  0
 12 13  2  0
 13 14  1  0
 14 15  2  0
 15 16  1  0
 16 17  1  0
 16 18  2  0
  9 19  1  0
 19 20  2  0
 20 21  1  0
 21 22  1  0
 22 23  2  0
 22 24  1  0
 21  4  1  0
 20  6  1  0
 18 12  1  0
  1 25  1  0
  5 26  1  0
  7 27  1  0
  8 28  1  0
 10 29  1  0
 10 30  1  0
 11 31  1  0
 11 32  1  0
 13 33  1  0
 14 34  1  0
 15 35  1  0
 18 36  1  0
 19 37  1  0
M  CHG  2   1  -1  24  -1
M  END
>  <UniqueID>  (25) 
25

>  <SMILES>  (25) 
[NH-]C(=O)c1cc2ccc(CCc3cccc(Cl)c3)cc2n1C(=O)[O-]

>  <Energy>  (25) 
75.325359052723

>  <Genealogy>  (25) 
[NH-]C(=O)c1cc2ccc(CCc3cccc(Cl)c3)cc2n1C(=O)[O-] (protonated)
[NH-]C(=O)c1cc2ccc(CCc3cccc(Cl)c3)cc2n1C(=O)[O-] (3D coordinates assigned)
[NH-]C(=O)c1cc2ccc(CCc3cccc(Cl)c3)cc2n1C(=O)[O-] (optimized conformer: 75.325359052723 kcal/mol)

>  <smiles>  (25) 
NC(=O)c1cc2ccc(CCc3cccc(Cl)c3)cc2n1C(=O)O

>  <score_type>  (25) 
oracle

>  <origin>  (25) 
adg

>  <m_score__min__energy>  (25) 
-8.3900000000000006

>  <m_primary>  (25) 
energy

$$$$
25:0
     RDKit          3D

 49 50  0  0  0  0  0  0  0  0999 V2000
  150.2760  150.9270  131.7920 C   0  0  0  0  0  0  0  0  0  0  0  0
  150.1410  152.0670  132.6330 O   0  0  0  0  0  0  0  0  0  0  0  0
  149.1920  152.1380  133.6530 C   0  0  0  0  0  0  0  0  0  0  0  0
  149.4990  151.8160  134.8340 O   0  0  0  0  0  0  0  0  0  0  0  0
  147.8700  152.6010  133.3400 N   0  0  0  0  0  0  0  0  0  0  0  0
  147.3390  153.9640  133.4950 C   0  0  2  0  0  0  0  0  0  0  0  0
  145.8760  153.9360  133.0220 C   0  0  0  0  0  0  0  0  0  0  0  0
  148.1230  154.9640  132.5890 C   0  0  0  0  0  0  0  0  0  0  0  0
  147.8140  156.4210  132.8440 C   0  0  0  0  0  0  0  0  0  0  0  0
  148.8410  157.3960  132.7840 C   0  0  0  0  0  0  0  0  0  0  0  0
  148.5480  158.7580  132.9700 C   0  0  0  0  0  0  0  0  0  0  0  0
  147.2260  159.1120  133.2210 C   0  0  0  0  0  0  0  0  0  0  0  0
  146.6590  160.3560  133.3830 C   0  0  0  0  0  0  0  0  0  0  0  0
  145.2980  160.1210  133.5690 C   0  0  0  0  0  0  0  0  0  0  0  0
  144.3210  161.1910  133.8570 C   0  0  0  0  0  0  0  0  0  0  0  0
  142.9220  160.9220  133.8680 N   0  0  0  0  0  0  0  0  0  0  0  0
  144.7290  162.3470  134.1470 O   0  0  0  0  0  0  0  0  0  0  0  0
  145.0320  158.7840  133.5180 N   0  0  0  0  0  0  0  0  0  0  0  0
  143.7500  158.1380  133.5430 C   0  0  0  0  0  0  0  0  0  0  0  0
  143.2760  157.6450  132.4830 O   0  0  0  0  0  0  0  0  0  0  0  0
  143.0530  158.0360  134.7550 O   0  0  0  0  0  0  0  0  0  0  0  0
  141.7010  158.3530  134.9360 C   0  0  0  0  0  0  0  0  0  0  0  0
  140.9360  158.5390  133.9500 O   0  0  0  0  0  0  0  0  0  0  0  0
  141.1430  158.4070  136.3210 C   0  0  0  0  0  0  0  0  0  0  0  0
  141.9240  159.2450  137.0960 F   0  0  0  0  0  0  0  0  0  0  0  0
  141.1350  157.1430  136.8800 F   0  0  0  0  0  0  0  0  0  0  0  0
  139.8480  158.8930  136.2890 F   0  0  0  0  0  0  0  0  0  0  0  0
  146.2240  158.1810  133.3120 C   0  0  0  0  0  0  0  0  0  0  0  0
  146.4880  156.8190  133.1290 C   0  0  0  0  0  0  0  0  0  0  0  0
  147.3250  154.3810  134.9530 C   0  0  0  0  0  0  0  0  0  0  0  0
  148.0790  155.3110  135.3550 O   0  0  0  0  0  0  0  0  0  0  0  0
  146.3860  153.8170  135.8240 O   0  0  0  0  0  0  0  0  0  0  0  0
  145.1160  154.4060  136.0700 C   0  0  0  0  0  0  0  0  0  0  0  0
  150.3829  150.0246  132.4119 H   0  0  0  0  0  0  0  0  0  0  0  0
  149.3828  150.8320  131.1570 H   0  0  0  0  0  0  0  0  0  0  0  0
  151.1667  151.0432  131.1570 H   0  0  0  0  0  0  0  0  0  0  0  0
  145.2083  153.9232  133.8960 H   0  0  0  0  0  0  0  0  0  0  0  0
  145.6695  154.8304  132.4158 H   0  0  0  0  0  0  0  0  0  0  0  0
  145.7038  153.0344  132.4158 H   0  0  0  0  0  0  0  0  0  0  0  0
  149.1988  154.8073  132.7564 H   0  0  0  0  0  0  0  0  0  0  0  0
  147.8119  154.7563  131.5546 H   0  0  0  0  0  0  0  0  0  0  0  0
  149.8777  157.0836  132.5899 H   0  0  0  0  0  0  0  0  0  0  0  0
  149.3393  159.5204  132.9187 H   0  0  0  0  0  0  0  0  0  0  0  0
  147.1716  161.3292  133.3687 H   0  0  0  0  0  0  0  0  0  0  0  0
  142.5620  159.9460  133.7740 H   0  0  0  0  0  0  0  0  0  0  0  0
  145.6816  156.0747  133.2052 H   0  0  0  0  0  0  0  0  0  0  0  0
  144.9512  154.4824  137.1549 H   0  0  0  0  0  0  0  0  0  0  0  0
  145.0848  155.4105  135.6227 H   0  0  0  0  0  0  0  0  0  0  0  0
  144.3291  153.7809  135.6227 H   0  0  0  0  0  0  0  0  0  0  0  0
  1  2  1  0
  2  3  1  0
  3  4  2  0
  3  5  1  0
  6  5  1  1
  6  7  1  0
  6  8  1  0
  8  9  1  0
  9 10  2  0
 10 11  1  0
 11 12  2  0
 12 13  1  0
 13 14  2  0
 14 15  1  0
 15 16  1  0
 15 17  2  0
 14 18  1  0
 18 19  1  0
 19 20  2  0
 19 21  1  0
 21 22  1  0
 22 23  2  0
 22 24  1  0
 24 25  1  0
 24 26  1  0
 24 27  1  0
 18 28  1  0
 28 29  2  0
  6 30  1  0
 30 31  2  0
 30 32  1  0
 32 33  1  0
 29  9  1  0
 28 12  1  0
  1 34  1  0
  1 35  1  0
  1 36  1  0
  7 37  1  0
  7 38  1  0
  7 39  1  0
  8 40  1  0
  8 41  1  0
 10 42  1  0
 11 43  1  0
 13 44  1  0
 16 45  1  0
 29 46  1  0
 33 47  1  0
 33 48  1  0
 33 49  1  0
M  CHG  2   5  -1  16  -1
M  END
>  <UniqueID>  (26) 
26

>  <SMILES>  (26) 
COC(=O)[N-][C@](C)(Cc1ccc2cc(C([NH-])=O)n(C(=O)OC(=O)C(F)(F)F)c2c1)C(=O)OC

>  <Energy>  (26) 
81.77054193118344

>  <Genealogy>  (26) 
COC(=O)[N-]C(C)(Cc1ccc2cc(C([NH-])=O)n(C(=O)OC(=O)C(F)(F)F)c2c1)C(=O)OC (protonated)
COC(=O)[N-][C@](C)(Cc1ccc2cc(C([NH-])=O)n(C(=O)OC(=O)C(F)(F)F)c2c1)C(=O)OC (chirality)
COC(=O)[N-][C@](C)(Cc1ccc2cc(C([NH-])=O)n(C(=O)OC(=O)C(F)(F)F)c2c1)C(=O)OC (3D coordinates assigned)
COC(=O)[N-][C@](C)(Cc1ccc2cc(C([NH-])=O)n(C(=O)OC(=O)C(F)(F)F)c2c1)C(=O)OC (optimized conformer: 81.77054193118344 kcal/mol)

>  <smiles>  (26) 
COC(=O)NC(C)(Cc1ccc2cc(C(N)=O)n(C(=O)OC(=O)C(F)(F)F)c2c1)C(=O)OC

>  <score_type>  (26) 
oracle

>  <origin>  (26) 
adg

>  <m_score__min__energy>  (26) 
-6.9500000000000002

>  <m_primary>  (26) 
energy

$$$$
26:0
     RDKit          3D

 42 44  0  0  0  0  0  0  0  0999 V2000
  149.9460  150.9140  131.3830 C   0  0  0  0  0  0  0  0  0  0  0  0
  149.8390  151.5080  132.7830 C   0  0  0  0  0  0  0  0  0  0  0  0
  148.6250  152.2430  132.9260 O   0  0  0  0  0  0  0  0  0  0  0  0
  148.5060  153.6040  132.6200 C   0  0  0  0  0  0  0  0  0  0  0  0
  149.5100  154.2580  132.2280 O   0  0  0  0  0  0  0  0  0  0  0  0
  147.2310  154.2540  132.7520 N   0  0  0  0  0  0  0  0  0  0  0  0
  146.0020  153.6650  132.7630 C   0  0  0  0  0  0  0  0  0  0  0  0
  145.7200  152.2480  132.4630 C   0  0  0  0  0  0  0  0  0  0  0  0
  146.5980  151.4760  131.6430 N   0  0  0  0  0  0  0  0  0  0  0  0
  144.6570  151.7240  132.8930 O   0  0  0  0  0  0  0  0  0  0  0  0
  145.0120  154.5980  133.0570 C   0  0  0  0  0  0  0  0  0  0  0  0
  145.6740  155.7940  133.2170 C   0  0  0  0  0  0  0  0  0  0  0  0
  145.1800  157.0520  133.5480 C   0  0  0  0  0  0  0  0  0  0  0  0
  146.1010  158.1020  133.6980 C   0  0  0  0  0  0  0  0  0  0  0  0
  147.4870  157.8780  133.5120 C   0  0  0  0  0  0  0  0  0  0  0  0
  148.4680  158.9940  133.7390 C   0  0  0  0  0  0  0  0  0  0  0  0
  148.7460  159.6700  132.4760 N   0  0  0  0  0  0  0  0  0  0  0  0
  149.5690  159.2260  131.5070 C   0  0  0  0  0  0  0  0  0  0  0  0
  149.6140  160.1870  130.5220 C   0  0  0  0  0  0  0  0  0  0  0  0
  150.3330  160.1070  129.2170 C   0  0  0  0  0  0  0  0  0  0  0  0
  148.7750  161.1960  130.9540 C   0  0  0  0  0  0  0  0  0  0  0  0
  148.2680  160.8630  132.1570 N   0  0  0  0  0  0  0  0  0  0  0  0
  147.9540  156.5840  133.1900 C   0  0  0  0  0  0  0  0  0  0  0  0
  147.0130  155.5600  133.0280 C   0  0  0  0  0  0  0  0  0  0  0  0
  150.1406  149.8339  131.4569 H   0  0  0  0  0  0  0  0  0  0  0  0
  149.0034  151.0806  130.8410 H   0  0  0  0  0  0  0  0  0  0  0  0
  150.7712  151.3990  130.8410 H   0  0  0  0  0  0  0  0  0  0  0  0
  149.8582  150.6945  133.5231 H   0  0  0  0  0  0  0  0  0  0  0  0
  150.6870  152.1898  132.9443 H   0  0  0  0  0  0  0  0  0  0  0  0
  147.3950  151.9210  131.1370 H   0  0  0  0  0  0  0  0  0  0  0  0
  146.4030  150.4640  131.4750 H   0  0  0  0  0  0  0  0  0  0  0  0
  143.9303  154.4178  133.1432 H   0  0  0  0  0  0  0  0  0  0  0  0
  144.1018  157.2191  133.6879 H   0  0  0  0  0  0  0  0  0  0  0  0
  145.7423  159.1077  133.9624 H   0  0  0  0  0  0  0  0  0  0  0  0
  148.0431  159.7145  134.4534 H   0  0  0  0  0  0  0  0  0  0  0  0
  149.4032  158.5798  134.1436 H   0  0  0  0  0  0  0  0  0  0  0  0
  150.1086  158.2674  131.5031 H   0  0  0  0  0  0  0  0  0  0  0  0
  151.4112  159.9870  129.3991 H   0  0  0  0  0  0  0  0  0  0  0  0
  149.9596  159.2449  128.6449 H   0  0  0  0  0  0  0  0  0  0  0  0
  150.1583  161.0301  128.6449 H   0  0  0  0  0  0  0  0  0  0  0  0
  148.5559  162.1230  130.4038 H   0  0  0  0  0  0  0  0  0  0  0  0
  149.0293  156.3861  133.0697 H   0  0  0  0  0  0  0  0  0  0  0  0
  1  2  1  0
  2  3  1  0
  3  4  1  0
  4  5  2  0
  4  6  1  0
  6  7  1  0
  7  8  1  0
  8  9  1  0
  8 10  2  0
  7 11  2  0
 11 12  1  0
 12 13  2  0
 13 14  1  0
 14 15  2  0
 15 16  1  0
 16 17  1  0
 17 18  1  0
 18 19  2  0
 19 20  1  0
 19 21  1  0
 21 22  2  0
 15 23  1  0
 23 24  2  0
 24  6  1  0
 24 12  1  0
 22 17  1  0
  1 25  1  0
  1 26  1  0
  1 27  1  0
  2 28  1  0
  2 29  1  0
  9 30  1  0
  9 31  1  0
 11 32  1  0
 13 33  1  0
 14 34  1  0
 16 35  1  0
 16 36  1  0
 18 37  1  0
 20 38  1  0
 20 39  1  0
 20 40  1  0
 21 41  1  0
 23 42  1  0
M  END
>  <UniqueID>  (27) 
27

>  <SMILES>  (27) 
CCOC(=O)n1c(C(N)=O)cc2ccc(Cn3cc(C)cn3)cc21

>  <Energy>  (27) 
105.95345575192292

>  <Genealogy>  (27) 
CCOC(=O)n1c(C(N)=O)cc2ccc(Cn3cc(C)cn3)cc21 (3D coordinates assigned)
CCOC(=O)n1c(C(N)=O)cc2ccc(Cn3cc(C)cn3)cc21 (optimized conformer: 105.95345575192292 kcal/mol)

>  <smiles>  (27) 
CCOC(=O)n1c(C(N)=O)cc2ccc(Cn3cc(C)cn3)cc21

>  <score_type>  (27) 
oracle

>  <origin>  (27) 
adg

>  <m_score__min__energy>  (27) 
-7.9299999999999997

>  <m_primary>  (27) 
energy

$$$$
27:0
     RDKit          3D

 36 37  0  0  0  0  0  0  0  0999 V2000
  140.6210  154.2960  133.3250 C   0  0  0  0  0  0  0  0  0  0  0  0
  140.8180  155.7300  133.4950 N   0  0  0  0  0  0  0  0  0  0  0  0
  142.0650  156.2720  133.9480 C   0  0  0  0  0  0  0  0  0  0  0  0
  143.0110  155.5030  134.2690 O   0  0  0  0  0  0  0  0  0  0  0  0
  142.2440  157.6950  134.0290 N   0  0  0  0  0  0  0  0  0  0  0  0
  141.3370  158.6300  134.4290 C   0  0  0  0  0  0  0  0  0  0  0  0
  139.9120  158.3810  134.7380 C   0  0  0  0  0  0  0  0  0  0  0  0
  139.4660  158.2390  136.0840 N   0  0  0  0  0  0  0  0  0  0  0  0
  139.0830  158.2540  133.7980 O   0  0  0  0  0  0  0  0  0  0  0  0
  141.9190  159.8960  134.4510 C   0  0  0  0  0  0  0  0  0  0  0  0
  143.2220  159.7050  134.0480 C   0  0  0  0  0  0  0  0  0  0  0  0
  144.2600  160.6210  133.9070 C   0  0  0  0  0  0  0  0  0  0  0  0
  145.5170  160.1370  133.5090 C   0  0  0  0  0  0  0  0  0  0  0  0
  145.7150  158.7540  133.2690 C   0  0  0  0  0  0  0  0  0  0  0  0
  147.0750  158.2370  132.8720 C   0  0  0  0  0  0  0  0  0  0  0  0
  148.1870  159.2950  133.0470 C   0  0  1  0  0  0  0  0  0  0  0  0
  148.8620  159.0550  134.2550 O   0  0  0  0  0  0  0  0  0  0  0  0
  149.2110  159.2790  131.9000 C   0  0  0  0  0  0  0  0  0  0  0  0
  148.5520  159.0990  130.6970 F   0  0  0  0  0  0  0  0  0  0  0  0
  150.1080  158.2390  132.0630 F   0  0  0  0  0  0  0  0  0  0  0  0
  149.9050  160.4760  131.8510 F   0  0  0  0  0  0  0  0  0  0  0  0
  144.6370  157.8540  133.4230 C   0  0  0  0  0  0  0  0  0  0  0  0
  143.3920  158.3680  133.8010 C   0  0  0  0  0  0  0  0  0  0  0  0
  140.5550  153.8154  134.3122 H   0  0  0  0  0  0  0  0  0  0  0  0
  139.6899  154.1174  132.7672 H   0  0  0  0  0  0  0  0  0  0  0  0
  141.4695  153.8729  132.7672 H   0  0  0  0  0  0  0  0  0  0  0  0
  140.0220  156.3760  133.2980 H   0  0  0  0  0  0  0  0  0  0  0  0
  139.4560  159.0540  136.7350 H   0  0  0  0  0  0  0  0  0  0  0  0
  141.4397  160.8457  134.7307 H   0  0  0  0  0  0  0  0  0  0  0  0
  144.1009  161.6919  134.1014 H   0  0  0  0  0  0  0  0  0  0  0  0
  146.3555  160.8376  133.3824 H   0  0  0  0  0  0  0  0  0  0  0  0
  147.3168  157.3650  133.4974 H   0  0  0  0  0  0  0  0  0  0  0  0
  147.0323  157.9718  131.8053 H   0  0  0  0  0  0  0  0  0  0  0  0
  147.7008  160.2817  133.0460 H   0  0  0  0  0  0  0  0  0  0  0  0
  149.4100  158.2360  134.1230 H   0  0  0  0  0  0  0  0  0  0  0  0
  144.7731  156.7762  133.2501 H   0  0  0  0  0  0  0  0  0  0  0  0
  1  2  1  0
  2  3  1  0
  3  4  2  0
  3  5  1  0
  5  6  1  0
  6  7  1  0
  7  8  1  0
  7  9  2  0
  6 10  2  0
 10 11  1  0
 11 12  2  0
 12 13  1  0
 13 14  2  0
 14 15  1  0
 15 16  1  0
 16 17  1  0
 16 18  1  0
 18 19  1  0
 18 20  1  0
 18 21  1  0
 14 22  1  0
 22 23  2  0
 23  5  1  0
 23 11  1  0
  1 24  1  0
  1 25  1  0
  1 26  1  0
  2 27  1  0
  8 28  1  0
 10 29  1  0
 12 30  1  0
 13 31  1  0
 15 32  1  0
 15 33  1  0
 16 34  1  1
 17 35  1  0
 22 36  1  0
M  CHG  1   8  -1
M  END
>  <UniqueID>  (28) 
28

>  <SMILES>  (28) 
CNC(=O)n1c(C([NH-])=O)cc2ccc(C[C@@H](O)C(F)(F)F)cc21

>  <Energy>  (28) 
69.79087376862374

>  <Genealogy>  (28) 
CNC(=O)n1c(C([NH-])=O)cc2ccc(CC(O)C(F)(F)F)cc21 (protonated)
CNC(=O)n1c(C([NH-])=O)cc2ccc(C[C@@H](O)C(F)(F)F)cc21 (chirality)
CNC(=O)n1c(C([NH-])=O)cc2ccc(C[C@@H](O)C(F)(F)F)cc21 (3D coordinates assigned)
CNC(=O)n1c(C([NH-])=O)cc2ccc(C[C@@H](O)C(F)(F)F)cc21 (optimized conformer: 69.79087376862374 kcal/mol)

>  <smiles>  (28) 
CNC(=O)n1c(C(N)=O)cc2ccc(CC(O)C(F)(F)F)cc21

>  <score_type>  (28) 
oracle

>  <origin>  (28) 
adg

>  <m_score__min__energy>  (28) 
-6.6100000000000003

>  <m_primary>  (28) 
energy

$$$$
28:0
     RDKit          3D

 50 51  0  0  0  0  0  0  0  0999 V2000
  144.4930  154.8220  131.8250 C   0  0  0  0  0  0  0  0  0  0  0  0
  145.7470  154.8430  132.6990 C   0  0  0  0  0  0  0  0  0  0  0  0
  146.7370  155.9340  132.2720 C   0  0  0  0  0  0  0  0  0  0  0  0
  146.9650  156.9380  133.3680 C   0  0  0  0  0  0  0  0  0  0  0  0
  147.7690  156.6610  134.2980 O   0  0  0  0  0  0  0  0  0  0  0  0
  146.3460  158.2350  133.3240 N   0  0  0  0  0  0  0  0  0  0  0  0
  146.9370  159.4460  133.1260 C   0  0  0  0  0  0  0  0  0  0  0  0
  148.3390  159.6710  132.7180 C   0  0  0  0  0  0  0  0  0  0  0  0
  149.4170  158.9820  133.3530 N   0  0  0  0  0  0  0  0  0  0  0  0
  148.5870  160.4530  131.7620 O   0  0  0  0  0  0  0  0  0  0  0  0
  146.0150  160.4760  133.2980 C   0  0  0  0  0  0  0  0  0  0  0  0
  144.8240  159.8520  133.5930 C   0  0  0  0  0  0  0  0  0  0  0  0
  143.5720  160.3900  133.8690 C   0  0  0  0  0  0  0  0  0  0  0  0
  142.5250  159.5030  134.1700 C   0  0  0  0  0  0  0  0  0  0  0  0
  142.7420  158.1020  134.2000 C   0  0  0  0  0  0  0  0  0  0  0  0
  141.6400  157.2310  134.5220 N   0  0  0  0  0  0  0  0  0  0  0  0
  141.0590  156.2460  133.6060 C   0  0  0  0  0  0  0  0  0  0  0  0
  139.6590  156.6870  133.1530 C   0  0  0  0  0  0  0  0  0  0  0  0
  139.3520  158.1600  133.5330 C   0  0  0  0  0  0  0  0  0  0  0  0
  138.8700  159.0080  132.4190 N   0  0  0  0  0  0  0  0  0  0  0  0
  138.7180  158.2680  131.1560 C   0  0  0  0  0  0  0  0  0  0  0  0
  139.6620  160.2320  132.2340 C   0  0  0  0  0  0  0  0  0  0  0  0
  144.0300  157.5960  133.9040 C   0  0  0  0  0  0  0  0  0  0  0  0
  145.0500  158.5000  133.5970 C   0  0  0  0  0  0  0  0  0  0  0  0
  143.5993  154.8070  132.4662 H   0  0  0  0  0  0  0  0  0  0  0  0
  144.4736  155.7200  131.1899 H   0  0  0  0  0  0  0  0  0  0  0  0
  144.5037  153.9239  131.1899 H   0  0  0  0  0  0  0  0  0  0  0  0
  145.4481  155.0252  133.7418 H   0  0  0  0  0  0  0  0  0  0  0  0
  146.2499  153.8709  132.5888 H   0  0  0  0  0  0  0  0  0  0  0  0
  147.6972  155.4631  132.0145 H   0  0  0  0  0  0  0  0  0  0  0  0
  146.3123  156.4625  131.4058 H   0  0  0  0  0  0  0  0  0  0  0  0
  149.2410  158.2040  134.0260 H   0  0  0  0  0  0  0  0  0  0  0  0
  150.4040  159.1920  133.0830 H   0  0  0  0  0  0  0  0  0  0  0  0
  146.1994  161.5573  133.2157 H   0  0  0  0  0  0  0  0  0  0  0  0
  143.4063  161.4773  133.8522 H   0  0  0  0  0  0  0  0  0  0  0  0
  141.5224  159.9010  134.3855 H   0  0  0  0  0  0  0  0  0  0  0  0
  141.2160  157.3010  135.4740 H   0  0  0  0  0  0  0  0  0  0  0  0
  141.7090  156.1452  132.7243 H   0  0  0  0  0  0  0  0  0  0  0  0
  140.9746  155.2822  134.1295 H   0  0  0  0  0  0  0  0  0  0  0  0
  139.5920  156.5826  132.0600 H   0  0  0  0  0  0  0  0  0  0  0  0
  138.9239  156.0481  133.6642 H   0  0  0  0  0  0  0  0  0  0  0  0
  138.5804  158.1561  134.3170 H   0  0  0  0  0  0  0  0  0  0  0  0
  140.3066  158.5975  133.8606 H   0  0  0  0  0  0  0  0  0  0  0  0
  138.5011  157.2118  131.3737 H   0  0  0  0  0  0  0  0  0  0  0  0
  137.8899  158.7003  130.5752 H   0  0  0  0  0  0  0  0  0  0  0  0
  139.6494  158.3388  130.5752 H   0  0  0  0  0  0  0  0  0  0  0  0
  139.9305  160.6470  133.2167 H   0  0  0  0  0  0  0  0  0  0  0  0
  140.5782  159.9947  131.6734 H   0  0  0  0  0  0  0  0  0  0  0  0
  139.0701  160.9705  131.6734 H   0  0  0  0  0  0  0  0  0  0  0  0
  144.2241  156.5133  133.9154 H   0  0  0  0  0  0  0  0  0  0  0  0
  1  2  1  0
  2  3  1  0
  3  4  1  0
  4  5  2  0
  4  6  1  0
  6  7  1  0
  7  8  1  0
  8  9  1  0
  8 10  2  0
  7 11  2  0
 11 12  1  0
 12 13  2  0
 13 14  1  0
 14 15  2  0
 15 16  1  0
 16 17  1  0
 17 18  1  0
 18 19  1  0
 19 20  1  0
 20 21  1  0
 20 22  1  0
 15 23  1  0
 23 24  2  0
 24  6  1  0
 24 12  1  0
  1 25  1  0
  1 26  1  0
  1 27  1  0
  2 28  1  0
  2 29  1  0
  3 30  1  0
  3 31  1  0
  9 32  1  0
  9 33  1  0
 11 34  1  0
 13 35  1  0
 14 36  1  0
 16 37  1  0
 17 38  1  0
 17 39  1  0
 18 40  1  0
 18 41  1  0
 19 42  1  0
 19 43  1  0
 21 44  1  0
 21 45  1  0
 21 46  1  0
 22 47  1  0
 22 48  1  0
 22 49  1  0
 23 50  1  0
M  END
>  <UniqueID>  (29) 
29

>  <SMILES>  (29) 
CCCC(=O)n1c(C(N)=O)cc2ccc(NCCCN(C)C)cc21

>  <Energy>  (29) 
83.21666105324475

>  <Genealogy>  (29) 
CCCC(=O)n1c(C(N)=O)cc2ccc(NCCCN(C)C)cc21 (3D coordinates assigned)
CCCC(=O)n1c(C(N)=O)cc2ccc(NCCCN(C)C)cc21 (optimized conformer: 83.21666105324475 kcal/mol)

>  <smiles>  (29) 
CCCC(=O)n1c(C(N)=O)cc2ccc(NCCCN(C)C)cc21

>  <score_type>  (29) 
oracle

>  <origin>  (29) 
adg

>  <m_score__min__energy>  (29) 
-7.7699999999999996

>  <m_primary>  (29) 
energy

$$$$
29:0
     RDKit          3D

 50 52  0  0  0  0  0  0  0  0999 V2000
  144.2390  161.3430  133.8530 C   0  0  0  0  0  0  0  0  0  0  0  0
  143.9120  159.9250  133.3540 C   0  0  2  0  0  0  0  0  0  0  0  0
  142.6210  159.3620  133.9240 C   0  0  0  0  0  0  0  0  0  0  0  0
  142.4270  159.3740  135.3180 C   0  0  0  0  0  0  0  0  0  0  0  0
  141.2310  158.9130  135.8740 C   0  0  0  0  0  0  0  0  0  0  0  0
  140.2060  158.4460  135.0460 C   0  0  0  0  0  0  0  0  0  0  0  0
  139.0470  158.0070  135.5960 F   0  0  0  0  0  0  0  0  0  0  0  0
  140.3760  158.4420  133.6580 C   0  0  0  0  0  0  0  0  0  0  0  0
  139.0870  157.8770  132.6080 Cl  0  0  0  0  0  0  0  0  0  0  0  0
  141.5740  158.9010  133.0980 C   0  0  0  0  0  0  0  0  0  0  0  0
  145.0650  158.9700  133.5980 C   0  0  0  0  0  0  0  0  0  0  0  0
  146.3970  159.3920  133.3450 C   0  0  0  0  0  0  0  0  0  0  0  0
  147.4800  158.5210  133.5560 C   0  0  0  0  0  0  0  0  0  0  0  0
  147.2050  157.2360  134.0090 C   0  0  0  0  0  0  0  0  0  0  0  0
  148.0600  156.2020  134.3150 C   0  0  0  0  0  0  0  0  0  0  0  0
  147.2410  155.1530  134.7260 C   0  0  0  0  0  0  0  0  0  0  0  0
  147.7490  153.8080  135.0710 C   0  0  0  0  0  0  0  0  0  0  0  0
  147.5430  153.2890  136.3830 N   0  0  0  0  0  0  0  0  0  0  0  0
  148.3930  153.1270  134.2310 O   0  0  0  0  0  0  0  0  0  0  0  0
  145.9310  155.5260  134.6820 N   0  0  0  0  0  0  0  0  0  0  0  0
  144.7850  154.7630  135.0900 C   0  0  0  0  0  0  0  0  0  0  0  0
  144.8430  154.0610  136.1350 O   0  0  0  0  0  0  0  0  0  0  0  0
  143.6220  154.7920  134.3050 O   0  0  0  0  0  0  0  0  0  0  0  0
  142.2750  154.6470  134.7780 C   0  0  0  0  0  0  0  0  0  0  0  0
  142.0540  155.4870  136.0500 C   0  0  0  0  0  0  0  0  0  0  0  0
  142.0730  153.1630  135.1200 C   0  0  0  0  0  0  0  0  0  0  0  0
  141.2680  155.0450  133.6810 C   0  0  0  0  0  0  0  0  0  0  0  0
  145.9260  156.8030  134.2390 C   0  0  0  0  0  0  0  0  0  0  0  0
  144.8310  157.6530  134.0590 C   0  0  0  0  0  0  0  0  0  0  0  0
  144.2413  161.3532  134.9529 H   0  0  0  0  0  0  0  0  0  0  0  0
  145.2299  161.6431  133.4814 H   0  0  0  0  0  0  0  0  0  0  0  0
  143.4796  162.0467  133.4814 H   0  0  0  0  0  0  0  0  0  0  0  0
  143.7570  160.0238  132.2695 H   0  0  0  0  0  0  0  0  0  0  0  0
  143.2245  159.7498  135.9759 H   0  0  0  0  0  0  0  0  0  0  0  0
  141.0956  158.9175  136.9656 H   0  0  0  0  0  0  0  0  0  0  0  0
  141.7002  158.9023  132.0053 H   0  0  0  0  0  0  0  0  0  0  0  0
  146.5836  160.4126  132.9796 H   0  0  0  0  0  0  0  0  0  0  0  0
  148.5138  158.8465  133.3683 H   0  0  0  0  0  0  0  0  0  0  0  0
  149.1580  156.2036  134.2490 H   0  0  0  0  0  0  0  0  0  0  0  0
  146.5910  153.0060  136.7040 H   0  0  0  0  0  0  0  0  0  0  0  0
  142.2193  154.8587  136.9376 H   0  0  0  0  0  0  0  0  0  0  0  0
  142.7610  156.3296  136.0604 H   0  0  0  0  0  0  0  0  0  0  0  0
  141.0238  155.8726  136.0604 H   0  0  0  0  0  0  0  0  0  0  0  0
  142.0559  153.0376  136.2127 H   0  0  0  0  0  0  0  0  0  0  0  0
  141.1193  152.8155  134.6961 H   0  0  0  0  0  0  0  0  0  0  0  0
  142.8992  152.5733  134.6961 H   0  0  0  0  0  0  0  0  0  0  0  0
  140.3420  155.4110  134.1486 H   0  0  0  0  0  0  0  0  0  0  0  0
  141.7018  155.8393  133.0558 H   0  0  0  0  0  0  0  0  0  0  0  0
  141.0415  154.1688  133.0558 H   0  0  0  0  0  0  0  0  0  0  0  0
  143.8092  157.3054  134.2712 H   0  0  0  0  0  0  0  0  0  0  0  0
  1  2  1  0
  2  3  1  0
  3  4  2  0
  4  5  1  0
  5  6  2  0
  6  7  1  0
  6  8  1  0
  8  9  1  0
  8 10  2  0
  2 11  1  0
 11 12  2  0
 12 13  1  0
 13 14  2  0
 14 15  1  0
 15 16  2  0
 16 17  1  0
 17 18  1  0
 17 19  2  0
 16 20  1  0
 20 21  1  0
 21 22  2  0
 21 23  1  0
 23 24  1  0
 24 25  1  0
 24 26  1  0
 24 27  1  0
 20 28  1  0
 28 29  2  0
 10  3  1  0
 29 11  1  0
 28 14  1  0
  1 30  1  0
  1 31  1  0
  1 32  1  0
  2 33  1  6
  4 34  1  0
  5 35  1  0
 10 36  1  0
 12 37  1  0
 13 38  1  0
 15 39  1  0
 18 40  1  0
 25 41  1  0
 25 42  1  0
 25 43  1  0
 26 44  1  0
 26 45  1  0
 26 46  1  0
 27 47  1  0
 27 48  1  0
 27 49  1  0
 29 50  1  0
M  CHG  1  18  -1
M  END
>  <UniqueID>  (30) 
30

>  <SMILES>  (30) 
C[C@H](c1ccc(F)c(Cl)c1)c1ccc2cc(C([NH-])=O)n(C(=O)OC(C)(C)C)c2c1

>  <Energy>  (30) 
86.21884057297548

>  <Genealogy>  (30) 
CC(c1ccc(F)c(Cl)c1)c1ccc2cc(C([NH-])=O)n(C(=O)OC(C)(C)C)c2c1 (protonated)
C[C@H](c1ccc(F)c(Cl)c1)c1ccc2cc(C([NH-])=O)n(C(=O)OC(C)(C)C)c2c1 (chirality)
C[C@H](c1ccc(F)c(Cl)c1)c1ccc2cc(C([NH-])=O)n(C(=O)OC(C)(C)C)c2c1 (3D coordinates assigned)
C[C@H](c1ccc(F)c(Cl)c1)c1ccc2cc(C([NH-])=O)n(C(=O)OC(C)(C)C)c2c1 (optimized conformer: 86.21884057297548 kcal/mol)

>  <smiles>  (30) 
CC(c1ccc(F)c(Cl)c1)c1ccc2cc(C(N)=O)n(C(=O)OC(C)(C)C)c2c1

>  <score_type>  (30) 
oracle

>  <origin>  (30) 
adg

>  <m_score__min__energy>  (30) 
-8.7799999999999994

>  <m_primary>  (30) 
energy

$$$$
30:0
     RDKit          3D

 44 45  0  0  0  0  0  0  0  0999 V2000
  140.1540  159.3380  131.0460 C   0  0  0  0  0  0  0  0  0  0  0  0
  139.0950  159.2350  132.1520 C   0  0  0  0  0  0  0  0  0  0  0  0
  137.7030  158.9910  131.5420 C   0  0  0  0  0  0  0  0  0  0  0  0
  139.4860  158.1860  133.2260 C   0  0  1  0  0  0  0  0  0  0  0  0
  140.2050  157.0840  132.5890 N   0  0  0  0  0  0  0  0  0  0  0  0
  140.1800  155.7310  133.0580 C   0  0  0  0  0  0  0  0  0  0  0  0
  139.0820  155.1850  133.3500 O   0  0  0  0  0  0  0  0  0  0  0  0
  141.4100  155.0080  133.2200 N   0  0  0  0  0  0  0  0  0  0  0  0
  142.6560  155.5150  133.4510 C   0  0  0  0  0  0  0  0  0  0  0  0
  142.9810  156.9310  133.7140 C   0  0  0  0  0  0  0  0  0  0  0  0
  142.9110  157.8840  132.6550 N   0  0  0  0  0  0  0  0  0  0  0  0
  143.3540  157.3080  134.8570 O   0  0  0  0  0  0  0  0  0  0  0  0
  143.5990  154.4910  133.4950 C   0  0  0  0  0  0  0  0  0  0  0  0
  142.8900  153.3300  133.2910 C   0  0  0  0  0  0  0  0  0  0  0  0
  143.3260  152.0100  133.2440 C   0  0  0  0  0  0  0  0  0  0  0  0
  142.3710  151.0060  133.0100 C   0  0  0  0  0  0  0  0  0  0  0  0
  141.0090  151.3410  132.8070 C   0  0  0  0  0  0  0  0  0  0  0  0
  139.9870  150.2570  132.5960 C   0  0  0  0  0  0  0  0  0  0  0  0
  139.8290  149.9670  131.1340 C   0  0  0  0  0  0  0  0  0  0  0  0
  138.7640  149.5620  130.6950 O   0  0  0  0  0  0  0  0  0  0  0  0
  140.6020  152.6920  132.8640 C   0  0  0  0  0  0  0  0  0  0  0  0
  141.5710  153.6690  133.1240 C   0  0  0  0  0  0  0  0  0  0  0  0
  140.3260  158.7790  134.3460 C   0  0  0  0  0  0  0  0  0  0  0  0
  141.1860  159.6040  134.0770 O   0  0  0  0  0  0  0  0  0  0  0  0
  140.1520  158.3670  135.7850 C   0  0  0  0  0  0  0  0  0  0  0  0
  140.7220  159.3220  136.6060 F   0  0  0  0  0  0  0  0  0  0  0  0
  140.7880  157.1560  135.9930 F   0  0  0  0  0  0  0  0  0  0  0  0
  138.8160  158.2340  136.1210 F   0  0  0  0  0  0  0  0  0  0  0  0
  141.1509  159.4350  131.5008 H   0  0  0  0  0  0  0  0  0  0  0  0
  140.1220  158.4325  130.4223 H   0  0  0  0  0  0  0  0  0  0  0  0
  139.9481  160.2204  130.4223 H   0  0  0  0  0  0  0  0  0  0  0  0
  139.0477  160.1966  132.6840 H   0  0  0  0  0  0  0  0  0  0  0  0
  136.9666  158.8619  132.3489 H   0  0  0  0  0  0  0  0  0  0  0  0
  137.4187  159.8530  130.9206 H   0  0  0  0  0  0  0  0  0  0  0  0
  137.7289  158.0837  130.9206 H   0  0  0  0  0  0  0  0  0  0  0  0
  138.5562  157.8194  133.6853 H   0  0  0  0  0  0  0  0  0  0  0  0
  142.0180  158.3800  132.4370 H   0  0  0  0  0  0  0  0  0  0  0  0
  144.6823  154.5898  133.6584 H   0  0  0  0  0  0  0  0  0  0  0  0
  144.3876  151.7593  133.3859 H   0  0  0  0  0  0  0  0  0  0  0  0
  142.6831  149.9515  132.9842 H   0  0  0  0  0  0  0  0  0  0  0  0
  140.3151  149.3435  133.1136 H   0  0  0  0  0  0  0  0  0  0  0  0
  139.0208  150.5933  133.0001 H   0  0  0  0  0  0  0  0  0  0  0  0
  140.6783  150.1201  130.4519 H   0  0  0  0  0  0  0  0  0  0  0  0
  139.5493  152.9702  132.7079 H   0  0  0  0  0  0  0  0  0  0  0  0
  1  2  1  0
  2  3  1  0
  2  4  1  0
  4  5  1  0
  5  6  1  0
  6  7  2  0
  6  8  1  0
  8  9  1  0
  9 10  1  0
 10 11  1  0
 10 12  2  0
  9 13  2  0
 13 14  1  0
 14 15  2  0
 15 16  1  0
 16 17  2  0
 17 18  1  0
 18 19  1  0
 19 20  2  0
 17 21  1  0
 21 22  2  0
  4 23  1  0
 23 24  2  0
 23 25  1  0
 25 26  1  0
 25 27  1  0
 25 28  1  0
 22  8  1  0
 22 14  1  0
  1 29  1  0
  1 30  1  0
  1 31  1  0
  2 32  1  0
  3 33  1  0
  3 34  1  0
  3 35  1  0
  4 36  1  1
 11 37  1  0
 13 38  1  0
 15 39  1  0
 16 40  1  0
 18 41  1  0
 18 42  1  0
 19 43  1  0
 21 44  1  0
M  CHG  2   5  -1  11  -1
M  END
>  <UniqueID>  (31) 
31

>  <SMILES>  (31) 
CC(C)[C@@H]([N-]C(=O)n1c(C([NH-])=O)cc2ccc(CC=O)cc21)C(=O)C(F)(F)F

>  <Energy>  (31) 
72.62496499438076

>  <Genealogy>  (31) 
CC(C)C([N-]C(=O)n1c(C([NH-])=O)cc2ccc(CC=O)cc21)C(=O)C(F)(F)F (protonated)
CC(C)[C@@H]([N-]C(=O)n1c(C([NH-])=O)cc2ccc(CC=O)cc21)C(=O)C(F)(F)F (chirality)
CC(C)[C@@H]([N-]C(=O)n1c(C([NH-])=O)cc2ccc(CC=O)cc21)C(=O)C(F)(F)F (3D coordinates assigned)
CC(C)[C@@H]([N-]C(=O)n1c(C([NH-])=O)cc2ccc(CC=O)cc21)C(=O)C(F)(F)F (optimized conformer: 72.62496499438076 kcal/mol)

>  <smiles>  (31) 
CC(C)C(NC(=O)n1c(C(N)=O)cc2ccc(CC=O)cc21)C(=O)C(F)(F)F

>  <score_type>  (31) 
oracle

>  <origin>  (31) 
adg

>  <m_score__min__energy>  (31) 
-7.2300000000000004

>  <m_primary>  (31) 
energy

$$$$
31:0
     RDKit          3D

 60 62  0  0  0  0  0  0  0  0999 V2000
  146.6070  153.3590  137.6940 C   0  0  0  0  0  0  0  0  0  0  0  0
  146.4920  153.8040  136.3590 O   0  0  0  0  0  0  0  0  0  0  0  0
  147.6970  154.4110  135.9290 C   0  0  0  0  0  0  0  0  0  0  0  0
  148.4970  153.4890  135.2680 F   0  0  0  0  0  0  0  0  0  0  0  0
  148.3900  154.9290  137.0160 F   0  0  0  0  0  0  0  0  0  0  0  0
  147.3540  155.5530  134.9650 C   0  0  0  0  0  0  0  0  0  0  0  0
  146.0640  155.9890  135.2210 F   0  0  0  0  0  0  0  0  0  0  0  0
  148.2140  156.6110  135.1920 F   0  0  0  0  0  0  0  0  0  0  0  0
  147.4540  155.1050  133.5260 C   0  0  0  0  0  0  0  0  0  0  0  0
  148.0370  155.8400  132.6830 O   0  0  0  0  0  0  0  0  0  0  0  0
  146.7850  153.9170  133.0740 N   0  0  0  0  0  0  0  0  0  0  0  0
  147.3280  152.7070  132.7650 C   0  0  0  0  0  0  0  0  0  0  0  0
  148.7690  152.4130  132.6320 C   0  0  0  0  0  0  0  0  0  0  0  0
  149.7000  153.4180  132.2260 N   0  0  0  0  0  0  0  0  0  0  0  0
  149.1810  151.2420  132.8380 O   0  0  0  0  0  0  0  0  0  0  0  0
  146.3260  151.7670  132.5370 C   0  0  0  0  0  0  0  0  0  0  0  0
  145.1430  152.4510  132.6980 C   0  0  0  0  0  0  0  0  0  0  0  0
  143.8290  152.0070  132.5990 C   0  0  0  0  0  0  0  0  0  0  0  0
  142.8000  152.9340  132.8390 C   0  0  0  0  0  0  0  0  0  0  0  0
  143.0940  154.2820  133.1680 C   0  0  0  0  0  0  0  0  0  0  0  0
  142.0010  155.1970  133.3930 N   0  0  0  0  0  0  0  0  0  0  0  0
  141.1140  155.1600  134.5560 C   0  0  0  0  0  0  0  0  0  0  0  0
  141.4460  156.2970  135.5250 C   0  0  0  0  0  0  0  0  0  0  0  0
  140.3690  157.2950  135.5210 N   0  0  0  0  0  0  0  0  0  0  0  0
  140.1620  158.1550  136.6890 C   0  0  0  0  0  0  0  0  0  0  0  0
  139.5690  157.4920  134.3420 C   0  0  0  0  0  0  0  0  0  0  0  0
  138.3700  157.8740  134.4490 O   0  0  0  0  0  0  0  0  0  0  0  0
  140.1210  157.2630  133.0750 O   0  0  0  0  0  0  0  0  0  0  0  0
  140.8500  158.2490  132.3500 C   0  0  0  0  0  0  0  0  0  0  0  0
  142.1990  158.4500  132.9690 C   0  0  0  0  0  0  0  0  0  0  0  0
  143.2450  157.7020  132.7170 O   0  0  0  0  0  0  0  0  0  0  0  0
  144.2200  158.1880  133.4510 C   0  0  0  0  0  0  0  0  0  0  0  0
  145.3850  157.7150  133.4650 O   0  0  0  0  0  0  0  0  0  0  0  0
  143.8460  159.2210  134.1690 O   0  0  0  0  0  0  0  0  0  0  0  0
  142.5790  159.4110  133.8890 C   0  0  0  0  0  0  0  0  0  0  0  0
  141.7330  160.4860  134.4850 C   0  0  0  0  0  0  0  0  0  0  0  0
  144.4470  154.6930  133.2600 C   0  0  0  0  0  0  0  0  0  0  0  0
  145.4480  153.7470  133.0160 C   0  0  0  0  0  0  0  0  0  0  0  0
  146.3915  154.1928  138.3783 H   0  0  0  0  0  0  0  0  0  0  0  0
  145.8899  152.5440  137.8719 H   0  0  0  0  0  0  0  0  0  0  0  0
  147.6291  152.9934  137.8719 H   0  0  0  0  0  0  0  0  0  0  0  0
  149.3770  154.3430  131.8670 H   0  0  0  0  0  0  0  0  0  0  0  0
  150.7220  153.2070  132.2040 H   0  0  0  0  0  0  0  0  0  0  0  0
  146.4532  150.7044  132.2825 H   0  0  0  0  0  0  0  0  0  0  0  0
  143.6017  150.9622  132.3407 H   0  0  0  0  0  0  0  0  0  0  0  0
  141.7513  152.6092  132.7707 H   0  0  0  0  0  0  0  0  0  0  0  0
  141.8650  155.9830  132.7190 H   0  0  0  0  0  0  0  0  0  0  0  0
  140.0721  155.2651  134.2192 H   0  0  0  0  0  0  0  0  0  0  0  0
  141.2517  154.2004  135.0758 H   0  0  0  0  0  0  0  0  0  0  0  0
  141.5594  155.8884  136.5400 H   0  0  0  0  0  0  0  0  0  0  0  0
  142.3831  156.7778  135.2078 H   0  0  0  0  0  0  0  0  0  0  0  0
  140.3037  157.5664  137.6074 H   0  0  0  0  0  0  0  0  0  0  0  0
  140.8867  158.9823  136.6682 H   0  0  0  0  0  0  0  0  0  0  0  0
  139.1403  158.5619  136.6682 H   0  0  0  0  0  0  0  0  0  0  0  0
  140.9733  157.9176  131.3084 H   0  0  0  0  0  0  0  0  0  0  0  0
  140.2961  159.1989  132.3773 H   0  0  0  0  0  0  0  0  0  0  0  0
  141.7813  160.4246  135.5822 H   0  0  0  0  0  0  0  0  0  0  0  0
  142.1028  161.4684  134.1561 H   0  0  0  0  0  0  0  0  0  0  0  0
  140.6912  160.3575  134.1561 H   0  0  0  0  0  0  0  0  0  0  0  0
  144.7039  155.7312  133.5171 H   0  0  0  0  0  0  0  0  0  0  0  0
  1  2  1  0
  2  3  1  0
  3  4  1  0
  3  5  1  0
  3  6  1  0
  6  7  1  0
  6  8  1  0
  6  9  1  0
  9 10  2  0
  9 11  1  0
 11 12  1  0
 12 13  1  0
 13 14  1  0
 13 15  2  0
 12 16  2  0
 16 17  1  0
 17 18  2  0
 18 19  1  0
 19 20  2  0
 20 21  1  0
 21 22  1  0
 22 23  1  0
 23 24  1  0
 24 25  1  0
 24 26  1  0
 26 27  2  0
 26 28  1  0
 28 29  1  0
 29 30  1  0
 30 31  1  0
 31 32  1  0
 32 33  2  0
 32 34  1  0
 34 35  1  0
 35 36  1  0
 20 37  1  0
 37 38  2  0
 38 11  1  0
 38 17  1  0
 35 30  2  0
  1 39  1  0
  1 40  1  0
  1 41  1  0
 14 42  1  0
 14 43  1  0
 16 44  1  0
 18 45  1  0
 19 46  1  0
 21 47  1  0
 22 48  1  0
 22 49  1  0
 23 50  1  0
 23 51  1  0
 25 52  1  0
 25 53  1  0
 25 54  1  0
 29 55  1  0
 29 56  1  0
 36 57  1  0
 36 58  1  0
 36 59  1  0
 37 60  1  0
M  END
>  <UniqueID>  (32) 
32

>  <SMILES>  (32) 
COC(F)(F)C(F)(F)C(=O)n1c(C(N)=O)cc2ccc(NCCN(C)C(=O)OCc3oc(=O)oc3C)cc21

>  <Energy>  (32) 
127.13127218086146

>  <Genealogy>  (32) 
COC(F)(F)C(F)(F)C(=O)n1c(C(N)=O)cc2ccc(NCCN(C)C(=O)OCc3oc(=O)oc3C)cc21 (3D coordinates assigned)
COC(F)(F)C(F)(F)C(=O)n1c(C(N)=O)cc2ccc(NCCN(C)C(=O)OCc3oc(=O)oc3C)cc21 (optimized conformer: 127.13127218086146 kcal/mol)

>  <smiles>  (32) 
COC(F)(F)C(F)(F)C(=O)n1c(C(N)=O)cc2ccc(NCCN(C)C(=O)OCc3oc(=O)oc3C)cc21

>  <score_type>  (32) 
oracle

>  <origin>  (32) 
adg

>  <m_score__min__energy>  (32) 
-7.0999999999999996

>  <m_primary>  (32) 
energy

$$$$
32:0
     RDKit          3D

 47 49  0  0  0  0  0  0  0  0999 V2000
  144.5520  154.4970  131.7210 C   0  0  0  0  0  0  0  0  0  0  0  0
  144.2650  155.0250  132.9990 O   0  0  0  0  0  0  0  0  0  0  0  0
  145.4640  155.3840  133.6600 C   0  0  0  0  0  0  0  0  0  0  0  0
  146.2000  156.4630  132.9140 C   0  0  0  0  0  0  0  0  0  0  0  0
  147.0790  156.1330  132.0730 O   0  0  0  0  0  0  0  0  0  0  0  0
  145.9160  157.8560  133.1330 N   0  0  0  0  0  0  0  0  0  0  0  0
  146.7940  158.8930  133.0630 C   0  0  0  0  0  0  0  0  0  0  0  0
  148.2530  158.7780  132.8560 C   0  0  0  0  0  0  0  0  0  0  0  0
  148.7610  158.3960  131.5800 N   0  0  0  0  0  0  0  0  0  0  0  0
  149.0580  159.0380  133.7880 O   0  0  0  0  0  0  0  0  0  0  0  0
  146.1380  160.1030  133.2800 C   0  0  0  0  0  0  0  0  0  0  0  0
  144.8190  159.7730  133.4910 C   0  0  0  0  0  0  0  0  0  0  0  0
  143.7210  160.5860  133.7420 C   0  0  0  0  0  0  0  0  0  0  0  0
  142.4650  159.9730  133.8840 C   0  0  0  0  0  0  0  0  0  0  0  0
  142.3290  158.5690  133.7610 C   0  0  0  0  0  0  0  0  0  0  0  0
  140.9610  157.9420  133.8850 C   0  0  0  0  0  0  0  0  0  0  0  0
  140.5940  156.7370  132.9790 C   0  0  0  0  0  0  0  0  0  0  0  0
  141.3920  155.5230  133.2820 N   0  0  0  0  0  0  0  0  0  0  0  0
  140.6440  154.2870  132.9810 C   0  0  0  0  0  0  0  0  0  0  0  0
  141.7840  155.5220  134.7060 C   0  0  0  0  0  0  0  0  0  0  0  0
  140.2230  158.0750  135.2170 C   0  0  0  0  0  0  0  0  0  0  0  0
  139.8490  158.9800  134.0550 C   0  0  0  0  0  0  0  0  0  0  0  0
  143.4690  157.7760  133.4990 C   0  0  0  0  0  0  0  0  0  0  0  0
  144.7100  158.4100  133.3900 C   0  0  0  0  0  0  0  0  0  0  0  0
  145.0747  153.5353  131.8305 H   0  0  0  0  0  0  0  0  0  0  0  0
  143.6133  154.3433  131.1685 H   0  0  0  0  0  0  0  0  0  0  0  0
  145.1915  155.2011  131.1685 H   0  0  0  0  0  0  0  0  0  0  0  0
  145.2211  155.7484  134.6691 H   0  0  0  0  0  0  0  0  0  0  0  0
  146.1106  154.4956  133.7110 H   0  0  0  0  0  0  0  0  0  0  0  0
  148.4850  157.4900  131.1410 H   0  0  0  0  0  0  0  0  0  0  0  0
  146.5812  161.1098  133.2822 H   0  0  0  0  0  0  0  0  0  0  0  0
  143.8317  161.6771  133.8270 H   0  0  0  0  0  0  0  0  0  0  0  0
  141.5785  160.5898  134.0928 H   0  0  0  0  0  0  0  0  0  0  0  0
  139.5290  156.5018  133.1220 H   0  0  0  0  0  0  0  0  0  0  0  0
  140.8134  157.0257  131.9405 H   0  0  0  0  0  0  0  0  0  0  0  0
  142.2720  155.5260  132.7130 H   0  0  0  0  0  0  0  0  0  0  0  0
  140.3486  153.7989  133.9215 H   0  0  0  0  0  0  0  0  0  0  0  0
  139.7445  154.5354  132.3986 H   0  0  0  0  0  0  0  0  0  0  0  0
  141.2813  153.6054  132.3986 H   0  0  0  0  0  0  0  0  0  0  0  0
  140.8814  155.5243  135.3348 H   0  0  0  0  0  0  0  0  0  0  0  0
  142.3790  154.6223  134.9219 H   0  0  0  0  0  0  0  0  0  0  0  0
  142.3835  156.4186  134.9219 H   0  0  0  0  0  0  0  0  0  0  0  0
  139.5306  157.2847  135.5426 H   0  0  0  0  0  0  0  0  0  0  0  0
  140.5290  158.2385  136.2609 H   0  0  0  0  0  0  0  0  0  0  0  0
  138.8866  158.8438  133.5399 H   0  0  0  0  0  0  0  0  0  0  0  0
  139.7729  160.0678  133.9107 H   0  0  0  0  0  0  0  0  0  0  0  0
  143.3818  156.6856  133.3835 H   0  0  0  0  0  0  0  0  0  0  0  0
  1  2  1  0
  2  3  1  0
  3  4  1  0
  4  5  2  0
  4  6  1  0
  6  7  1  0
  7  8  1  0
  8  9  1  0
  8 10  2  0
  7 11  2  0
 11 12  1  0
 12 13  2  0
 13 14  1  0
 14 15  2  0
 15 16  1  0
 16 17  1  0
 17 18  1  0
 18 19  1  0
 18 20  1  0
 16 21  1  0
 21 22  1  0
 15 23  1  0
 23 24  2  0
 24  6  1  0
 24 12  1  0
 22 16  1  0
  1 25  1  0
  1 26  1  0
  1 27  1  0
  3 28  1  0
  3 29  1  0
  9 30  1  0
 11 31  1  0
 13 32  1  0
 14 33  1  0
 17 34  1  0
 17 35  1  0
 18 36  1  0
 19 37  1  0
 19 38  1  0
 19 39  1  0
 20 40  1  0
 20 41  1  0
 20 42  1  0
 21 43  1  0
 21 44  1  0
 22 45  1  0
 22 46  1  0
 23 47  1  0
M  CHG  2   9  -1  18   1
M  END
>  <UniqueID>  (33) 
33

>  <SMILES>  (33) 
COCC(=O)n1c(C([NH-])=O)cc2ccc(C3(C[NH+](C)C)CC3)cc21

>  <Energy>  (33) 
355.63318038271177

>  <Genealogy>  (33) 
COCC(=O)n1c(C([NH-])=O)cc2ccc(C3(C[NH+](C)C)CC3)cc21 (protonated)
COCC(=O)n1c(C([NH-])=O)cc2ccc(C3(C[NH+](C)C)CC3)cc21 (3D coordinates assigned)
COCC(=O)n1c(C([NH-])=O)cc2ccc(C3(C[NH+](C)C)CC3)cc21 (nonaromatic ring conformer: 355.63318038271177 kcal/mol)

>  <smiles>  (33) 
COCC(=O)n1c(C(N)=O)cc2ccc(C3(CN(C)C)CC3)cc21

>  <score_type>  (33) 
oracle

>  <origin>  (33) 
adg

>  <m_score__min__energy>  (33) 
-6.8099999999999996

>  <m_primary>  (33) 
energy

$$$$
33:0
     RDKit          3D

 47 48  0  0  0  0  0  0  0  0999 V2000
  142.4870  157.4770  133.7580 C   0  0  0  0  0  0  0  0  0  0  0  0
  141.9610  158.8110  134.0950 N   0  0  0  0  0  0  0  0  0  0  0  0
  142.0790  159.0290  135.5470 C   0  0  0  0  0  0  0  0  0  0  0  0
  142.6910  159.8450  133.3300 C   0  0  0  0  0  0  0  0  0  0  0  0
  143.7470  160.5580  134.1940 C   0  0  0  0  0  0  0  0  0  0  0  0
  144.9630  160.8660  133.4350 N   0  0  0  0  0  0  0  0  0  0  0  0
  146.0360  159.9240  133.2500 C   0  0  0  0  0  0  0  0  0  0  0  0
  147.3720  160.3530  133.0150 C   0  0  0  0  0  0  0  0  0  0  0  0
  148.4030  159.4170  132.8240 C   0  0  0  0  0  0  0  0  0  0  0  0
  148.0780  158.0670  132.8820 C   0  0  0  0  0  0  0  0  0  0  0  0
  148.8730  156.9570  132.7040 C   0  0  0  0  0  0  0  0  0  0  0  0
  148.0200  155.8650  132.8550 C   0  0  0  0  0  0  0  0  0  0  0  0
  148.4830  154.4620  132.8230 C   0  0  0  0  0  0  0  0  0  0  0  0
  147.6440  153.4030  133.2760 N   0  0  0  0  0  0  0  0  0  0  0  0
  149.6530  154.2000  132.4340 O   0  0  0  0  0  0  0  0  0  0  0  0
  146.7480  156.2830  133.1090 N   0  0  0  0  0  0  0  0  0  0  0  0
  145.5670  155.4760  133.2280 C   0  0  0  0  0  0  0  0  0  0  0  0
  144.9130  155.4750  134.3060 O   0  0  0  0  0  0  0  0  0  0  0  0
  145.1400  154.7070  132.1380 O   0  0  0  0  0  0  0  0  0  0  0  0
  144.1200  153.7130  132.2210 C   0  0  0  0  0  0  0  0  0  0  0  0
  144.6410  152.4580  132.9460 C   0  0  1  0  0  0  0  0  0  0  0  0
  145.8150  151.9010  132.2690 N   0  0  0  0  0  0  0  0  0  0  0  0
  144.9480  152.7370  134.2870 O   0  0  0  0  0  0  0  0  0  0  0  0
  146.8010  157.6340  133.1230 C   0  0  0  0  0  0  0  0  0  0  0  0
  145.7510  158.5410  133.2980 C   0  0  0  0  0  0  0  0  0  0  0  0
  142.7050  156.9242  134.6837 H   0  0  0  0  0  0  0  0  0  0  0  0
  141.7389  156.9259  133.1693 H   0  0  0  0  0  0  0  0  0  0  0  0
  143.4100  157.5848  133.1693 H   0  0  0  0  0  0  0  0  0  0  0  0
  141.6217  158.1842  136.0830 H   0  0  0  0  0  0  0  0  0  0  0  0
  143.1415  159.1053  135.8212 H   0  0  0  0  0  0  0  0  0  0  0  0
  141.5618  159.9603  135.8212 H   0  0  0  0  0  0  0  0  0  0  0  0
  143.1935  159.3674  132.4760 H   0  0  0  0  0  0  0  0  0  0  0  0
  141.9629  160.5967  132.9912 H   0  0  0  0  0  0  0  0  0  0  0  0
  143.3189  161.4971  134.5746 H   0  0  0  0  0  0  0  0  0  0  0  0
  144.0232  159.8831  135.0176 H   0  0  0  0  0  0  0  0  0  0  0  0
  145.0660  161.8130  133.0040 H   0  0  0  0  0  0  0  0  0  0  0  0
  147.6005  161.4285  132.9824 H   0  0  0  0  0  0  0  0  0  0  0  0
  149.4362  159.7432  132.6343 H   0  0  0  0  0  0  0  0  0  0  0  0
  149.9515  156.9364  132.4885 H   0  0  0  0  0  0  0  0  0  0  0  0
  146.6040  153.4990  133.2620 H   0  0  0  0  0  0  0  0  0  0  0  0
  143.2625  154.1210  132.7762 H   0  0  0  0  0  0  0  0  0  0  0  0
  143.8159  153.4322  131.2018 H   0  0  0  0  0  0  0  0  0  0  0  0
  143.8355  151.7094  132.9194 H   0  0  0  0  0  0  0  0  0  0  0  0
  146.2860  152.6660  131.7330 H   0  0  0  0  0  0  0  0  0  0  0  0
  146.4970  151.5580  132.9850 H   0  0  0  0  0  0  0  0  0  0  0  0
  145.6620  153.4280  134.2910 H   0  0  0  0  0  0  0  0  0  0  0  0
  144.7244  158.1850  133.4695 H   0  0  0  0  0  0  0  0  0  0  0  0
  1  2  1  0
  2  3  1  0
  2  4  1  0
  4  5  1  0
  5  6  1  0
  6  7  1  0
  7  8  2  0
  8  9  1  0
  9 10  2  0
 10 11  1  0
 11 12  2  0
 12 13  1  0
 13 14  1  0
 13 15  2  0
 12 16  1  0
 16 17  1  0
 17 18  2  0
 17 19  1  0
 19 20  1  0
 20 21  1  0
 21 22  1  0
 21 23  1  0
 16 24  1  0
 24 25  2  0
 25  7  1  0
 24 10  1  0
  1 26  1  0
  1 27  1  0
  1 28  1  0
  3 29  1  0
  3 30  1  0
  3 31  1  0
  4 32  1  0
  4 33  1  0
  5 34  1  0
  5 35  1  0
  6 36  1  0
  8 37  1  0
  9 38  1  0
 11 39  1  0
 14 40  1  0
 20 41  1  0
 20 42  1  0
 21 43  1  1
 22 44  1  0
 22 45  1  0
 23 46  1  0
 25 47  1  0
M  CHG  1  14  -1
M  END
>  <UniqueID>  (34) 
34

>  <SMILES>  (34) 
CN(C)CCNc1ccc2cc(C([NH-])=O)n(C(=O)OC[C@@H](N)O)c2c1

>  <Energy>  (34) 
83.33246152556126

>  <Genealogy>  (34) 
CN(C)CCNc1ccc2cc(C([NH-])=O)n(C(=O)OCC(N)O)c2c1 (protonated)
CN(C)CCNc1ccc2cc(C([NH-])=O)n(C(=O)OC[C@@H](N)O)c2c1 (chirality)
CN(C)CCNc1ccc2cc(C([NH-])=O)n(C(=O)OC[C@@H](N)O)c2c1 (3D coordinates assigned)
CN(C)CCNc1ccc2cc(C([NH-])=O)n(C(=O)OC[C@@H](N)O)c2c1 (optimized conformer: 83.33246152556126 kcal/mol)

>  <smiles>  (34) 
CN(C)CCNc1ccc2cc(C(N)=O)n(C(=O)OCC(N)O)c2c1

>  <score_type>  (34) 
oracle

>  <origin>  (34) 
adg

>  <m_score__min__energy>  (34) 
-5.8499999999999996

>  <m_primary>  (34) 
energy

$$$$
34:0
     RDKit          3D

 85 91  0  0  0  0  0  0  0  0999 V2000
  148.2830  152.8160  137.4610 C   0  0  0  0  0  0  0  0  0  0  0  0
  147.0000  153.2210  136.8550 N   0  0  0  0  0  0  0  0  0  0  0  0
  145.9140  153.0240  137.8310 C   0  0  0  0  0  0  0  0  0  0  0  0
  147.0380  154.6320  136.4070 C   0  0  0  0  0  0  0  0  0  0  0  0
  146.3000  154.7960  135.0670 C   0  0  0  0  0  0  0  0  0  0  0  0
  145.1300  155.7900  135.1800 C   0  0  0  0  0  0  0  0  0  0  0  0
  143.9790  155.4430  134.2050 C   0  0  1  0  0  0  0  0  0  0  0  0
  143.1810  154.2520  134.7080 C   0  0  0  0  0  0  0  0  0  0  0  0
  142.7040  153.2590  133.8090 C   0  0  0  0  0  0  0  0  0  0  0  0
  141.9450  152.1760  134.2810 C   0  0  0  0  0  0  0  0  0  0  0  0
  141.6830  152.1050  135.6490 C   0  0  0  0  0  0  0  0  0  0  0  0
  140.9810  151.1680  136.3730 C   0  0  0  0  0  0  0  0  0  0  0  0
  141.0410  151.5980  137.6980 C   0  0  0  0  0  0  0  0  0  0  0  0
  140.3140  150.9460  138.8080 C   0  0  0  0  0  0  0  0  0  0  0  0
  140.5870  151.2980  140.1660 N   0  0  0  0  0  0  0  0  0  0  0  0
  139.4740  150.0400  138.5680 O   0  0  0  0  0  0  0  0  0  0  0  0
  141.7610  152.7540  137.7920 N   0  0  0  0  0  0  0  0  0  0  0  0
  142.1470  153.4560  138.9860 C   0  0  0  0  0  0  0  0  0  0  0  0
  143.2030  153.1310  139.5950 O   0  0  0  0  0  0  0  0  0  0  0  0
  141.3370  154.5280  139.4810 N   0  0  0  0  0  0  0  0  0  0  0  0
  141.3260  155.8740  138.9760 C   0  0  0  0  0  0  0  0  0  0  0  0
  142.0520  156.8740  139.6700 C   0  0  0  0  0  0  0  0  0  0  0  0
  142.1000  158.1950  139.1810 C   0  0  0  0  0  0  0  0  0  0  0  0
  141.4310  158.4690  137.9900 C   0  0  0  0  0  0  0  0  0  0  0  0
  140.7460  157.5140  137.3130 C   0  0  0  0  0  0  0  0  0  0  0  0
  140.6660  156.2010  137.7670 C   0  0  0  0  0  0  0  0  0  0  0  0
  140.2020  158.0600  136.1610 O   0  0  0  0  0  0  0  0  0  0  0  0
  140.5700  159.4450  136.1140 C   0  0  0  0  0  0  0  0  0  0  0  0
  141.3500  159.6650  137.2990 O   0  0  0  0  0  0  0  0  0  0  0  0
  142.1380  153.0540  136.5290 C   0  0  0  0  0  0  0  0  0  0  0  0
  142.9080  154.1350  136.0900 C   0  0  0  0  0  0  0  0  0  0  0  0
  143.0150  156.5630  133.7780 C   0  0  0  0  0  0  0  0  0  0  0  0
  141.6510  156.2010  133.7480 C   0  0  0  0  0  0  0  0  0  0  0  0
  140.6520  157.1160  133.4250 C   0  0  0  0  0  0  0  0  0  0  0  0
  140.9790  158.4440  133.1230 C   0  0  0  0  0  0  0  0  0  0  0  0
  139.9230  159.4210  132.7770 C   0  0  0  0  0  0  0  0  0  0  0  0
  138.7550  159.0350  132.5020 O   0  0  0  0  0  0  0  0  0  0  0  0
  140.2070  160.7830  132.7450 O   0  0  0  0  0  0  0  0  0  0  0  0
  142.3260  158.8330  133.1440 C   0  0  0  0  0  0  0  0  0  0  0  0
  143.3480  157.9170  133.4570 C   0  0  0  0  0  0  0  0  0  0  0  0
  144.7240  158.4360  133.3540 C   0  0  0  0  0  0  0  0  0  0  0  0
  145.8090  157.5900  133.0430 C   0  0  0  0  0  0  0  0  0  0  0  0
  147.1050  158.0690  133.0430 N   0  0  0  0  0  0  0  0  0  0  0  0
  148.2120  157.1590  132.7210 C   0  0  0  0  0  0  0  0  0  0  0  0
  147.3740  159.3760  133.3860 C   0  0  0  0  0  0  0  0  0  0  0  0
  148.5570  159.8190  133.3990 O   0  0  0  0  0  0  0  0  0  0  0  0
  146.3110  160.2100  133.7280 C   0  0  0  0  0  0  0  0  0  0  0  0
  146.3570  161.5000  134.1110 N   0  0  0  0  0  0  0  0  0  0  0  0
  145.0740  161.8580  134.3540 C   0  0  0  0  0  0  0  0  0  0  0  0
  144.2120  160.7880  134.1260 C   0  0  0  0  0  0  0  0  0  0  0  0
  145.0270  159.7480  133.7210 C   0  0  0  0  0  0  0  0  0  0  0  0
  148.1957  152.8436  138.5572 H   0  0  0  0  0  0  0  0  0  0  0  0
  148.5345  151.7948  137.1388 H   0  0  0  0  0  0  0  0  0  0  0  0
  149.0753  153.5077  137.1388 H   0  0  0  0  0  0  0  0  0  0  0  0
  146.3197  153.0976  138.8508 H   0  0  0  0  0  0  0  0  0  0  0  0
  145.1454  153.7974  137.6854 H   0  0  0  0  0  0  0  0  0  0  0  0
  145.4660  152.0299  137.6854 H   0  0  0  0  0  0  0  0  0  0  0  0
  146.5545  155.2651  137.1656 H   0  0  0  0  0  0  0  0  0  0  0  0
  148.0875  154.9327  136.2724 H   0  0  0  0  0  0  0  0  0  0  0  0
  147.0097  155.1650  134.3119 H   0  0  0  0  0  0  0  0  0  0  0  0
  145.8914  153.8164  134.7781 H   0  0  0  0  0  0  0  0  0  0  0  0
  144.7427  155.7673  136.2093 H   0  0  0  0  0  0  0  0  0  0  0  0
  145.5069  156.7899  134.9190 H   0  0  0  0  0  0  0  0  0  0  0  0
  144.5310  155.2153  133.2812 H   0  0  0  0  0  0  0  0  0  0  0  0
  142.9312  153.3398  132.7358 H   0  0  0  0  0  0  0  0  0  0  0  0
  141.5680  151.4060  133.5918 H   0  0  0  0  0  0  0  0  0  0  0  0
  140.4783  150.2688  135.9872 H   0  0  0  0  0  0  0  0  0  0  0  0
  140.1150  150.7820  140.9420 H   0  0  0  0  0  0  0  0  0  0  0  0
  141.2320  152.0810  140.4100 H   0  0  0  0  0  0  0  0  0  0  0  0
  142.5827  156.6168  140.5985 H   0  0  0  0  0  0  0  0  0  0  0  0
  142.6466  158.9822  139.7209 H   0  0  0  0  0  0  0  0  0  0  0  0
  140.1066  155.4399  137.2033 H   0  0  0  0  0  0  0  0  0  0  0  0
  141.1667  159.6557  135.2142 H   0  0  0  0  0  0  0  0  0  0  0  0
  139.6903  160.1040  136.0713 H   0  0  0  0  0  0  0  0  0  0  0  0
  143.2929  154.8780  136.8040 H   0  0  0  0  0  0  0  0  0  0  0  0
  141.3686  155.1651  133.9869 H   0  0  0  0  0  0  0  0  0  0  0  0
  139.6003  156.7940  133.4070 H   0  0  0  0  0  0  0  0  0  0  0  0
  142.5895  159.8753  132.9111 H   0  0  0  0  0  0  0  0  0  0  0  0
  145.6208  156.5345  132.7971 H   0  0  0  0  0  0  0  0  0  0  0  0
  148.6640  156.7874  133.6525 H   0  0  0  0  0  0  0  0  0  0  0  0
  147.8302  156.3102  132.1347 H   0  0  0  0  0  0  0  0  0  0  0  0
  148.9709  157.6978  132.1347 H   0  0  0  0  0  0  0  0  0  0  0  0
  147.2030  162.1010  134.2200 H   0  0  0  0  0  0  0  0  0  0  0  0
  144.7559  162.8573  134.6861 H   0  0  0  0  0  0  0  0  0  0  0  0
  143.1183  160.7738  134.2431 H   0  0  0  0  0  0  0  0  0  0  0  0
  1  2  1  0
  2  3  1  0
  2  4  1  0
  4  5  1  0
  5  6  1  0
  6  7  1  0
  7  8  1  0
  8  9  2  0
  9 10  1  0
 10 11  2  0
 11 12  1  0
 12 13  2  0
 13 14  1  0
 14 15  1  0
 14 16  2  0
 13 17  1  0
 17 18  1  0
 18 19  2  0
 18 20  1  0
 20 21  1  0
 21 22  2  0
 22 23  1  0
 23 24  2  0
 24 25  1  0
 25 26  2  0
 25 27  1  0
 27 28  1  0
 28 29  1  0
 17 30  1  0
 30 31  2  0
  7 32  1  0
 32 33  2  0
 33 34  1  0
 34 35  2  0
 35 36  1  0
 36 37  2  0
 36 38  1  0
 35 39  1  0
 39 40  2  0
 40 41  1  0
 41 42  2  0
 42 43  1  0
 43 44  1  0
 43 45  1  0
 45 46  2  0
 45 47  1  0
 47 48  1  0
 48 49  1  0
 49 50  2  0
 50 51  1  0
 31  8  1  0
 40 32  1  0
 51 41  1  0
 30 11  1  0
 51 47  2  0
 26 21  1  0
 29 24  1  0
  1 52  1  0
  1 53  1  0
  1 54  1  0
  3 55  1  0
  3 56  1  0
  3 57  1  0
  4 58  1  0
  4 59  1  0
  5 60  1  0
  5 61  1  0
  6 62  1  0
  6 63  1  0
  7 64  1  6
  9 65  1  0
 10 66  1  0
 12 67  1  0
 15 68  1  0
 15 69  1  0
 22 70  1  0
 23 71  1  0
 26 72  1  0
 28 73  1  0
 28 74  1  0
 31 75  1  0
 33 76  1  0
 34 77  1  0
 39 78  1  0
 42 79  1  0
 44 80  1  0
 44 81  1  0
 44 82  1  0
 48 83  1  0
 49 84  1  0
 50 85  1  0
M  CHG  2  20  -1  38  -1
M  END
>  <UniqueID>  (35) 
35

>  <SMILES>  (35) 
CN(C)CCC[C@@H](c1ccc2cc(C(N)=O)n(C(=O)[N-]c3ccc4c(c3)OCO4)c2c1)c1ccc(C(=O)[O-])cc1-c1cn(C)c(=O)c2[nH]ccc12

>  <Energy>  (35) 
213.29282282333585

>  <Genealogy>  (35) 
CN(C)CCCC(c1ccc2cc(C(N)=O)n(C(=O)[N-]c3ccc4c(c3)OCO4)c2c1)c1ccc(C(=O)[O-])cc1-c1cn(C)c(=O)c2[nH]ccc12 (protonated)
CN(C)CCC[C@@H](c1ccc2cc(C(N)=O)n(C(=O)[N-]c3ccc4c(c3)OCO4)c2c1)c1ccc(C(=O)[O-])cc1-c1cn(C)c(=O)c2[nH]ccc12 (chirality)
CN(C)CCC[C@@H](c1ccc2cc(C(N)=O)n(C(=O)[N-]c3ccc4c(c3)OCO4)c2c1)c1ccc(C(=O)[O-])cc1-c1cn(C)c(=O)c2[nH]ccc12 (3D coordinates assigned)
CN(C)CCC[C@@H](c1ccc2cc(C(N)=O)n(C(=O)[N-]c3ccc4c(c3)OCO4)c2c1)c1ccc(C(=O)[O-])cc1-c1cn(C)c(=O)c2[nH]ccc12 (nonaromatic ring conformer: 213.29282282333585 kcal/mol)

>  <smiles>  (35) 
CN(C)CCCC(c1ccc2cc(C(N)=O)n(C(=O)Nc3ccc4c(c3)OCO4)c2c1)c1ccc(C(=O)O)cc1-c1cn(C)c(=O)c2[nH]ccc12

>  <score_type>  (35) 
oracle

>  <origin>  (35) 
adg

>  <m_score__min__energy>  (35) 
-13.15

>  <m_primary>  (35) 
energy

$$$$
35:0
     RDKit          3D

 38 40  0  0  0  0  0  0  0  0999 V2000
  142.7860  160.8060  133.4730 N   0  0  0  0  0  0  0  0  0  0  0  0
  144.1740  161.0350  133.7100 C   0  0  0  0  0  0  0  0  0  0  0  0
  144.5530  162.1670  134.1120 O   0  0  0  0  0  0  0  0  0  0  0  0
  145.1790  159.9910  133.4420 C   0  0  0  0  0  0  0  0  0  0  0  0
  146.5500  160.2290  133.4250 C   0  0  0  0  0  0  0  0  0  0  0  0
  147.1320  158.9950  133.2390 C   0  0  0  0  0  0  0  0  0  0  0  0
  148.4730  158.6380  133.1560 C   0  0  0  0  0  0  0  0  0  0  0  0
  148.7850  157.2780  132.9880 C   0  0  0  0  0  0  0  0  0  0  0  0
  147.7570  156.2990  132.9090 C   0  0  0  0  0  0  0  0  0  0  0  0
  148.0970  154.8650  132.7320 C   0  0  0  0  0  0  0  0  0  0  0  0
  147.1420  153.9060  132.8960 N   0  0  0  0  0  0  0  0  0  0  0  0
  147.4330  152.5890  132.7390 C   0  0  0  0  0  0  0  0  0  0  0  0
  148.7280  152.1980  132.4050 C   0  0  0  0  0  0  0  0  0  0  0  0
  149.6970  153.1870  132.2410 C   0  0  0  0  0  0  0  0  0  0  0  0
  149.3660  154.4930  132.4060 N   0  0  0  0  0  0  0  0  0  0  0  0
  146.4040  156.7070  133.0010 C   0  0  0  0  0  0  0  0  0  0  0  0
  146.1270  158.0680  133.1670 C   0  0  0  0  0  0  0  0  0  0  0  0
  144.9220  158.6630  133.2880 N   0  0  0  0  0  0  0  0  0  0  0  0
  143.6620  157.9900  133.4390 C   0  0  0  0  0  0  0  0  0  0  0  0
  142.8980  157.8520  132.4480 O   0  0  0  0  0  0  0  0  0  0  0  0
  143.2650  157.4130  134.7680 C   0  0  0  0  0  0  0  0  0  0  0  0
  141.7530  157.5130  135.0060 C   0  0  0  0  0  0  0  0  0  0  0  0
  141.3250  158.9140  135.3270 C   0  0  0  0  0  0  0  0  0  0  0  0
  141.4180  159.3530  136.5040 O   0  0  0  0  0  0  0  0  0  0  0  0
  140.8130  159.7300  134.3260 O   0  0  0  0  0  0  0  0  0  0  0  0
  142.4690  159.9950  132.8990 H   0  0  0  0  0  0  0  0  0  0  0  0
  142.0820  161.5250  133.7500 H   0  0  0  0  0  0  0  0  0  0  0  0
  147.0603  161.1971  133.5365 H   0  0  0  0  0  0  0  0  0  0  0  0
  149.2663  159.3974  133.2199 H   0  0  0  0  0  0  0  0  0  0  0  0
  149.8377  156.9671  132.9167 H   0  0  0  0  0  0  0  0  0  0  0  0
  146.6471  151.8315  132.8754 H   0  0  0  0  0  0  0  0  0  0  0  0
  148.9797  151.1352  132.2739 H   0  0  0  0  0  0  0  0  0  0  0  0
  150.7284  152.9092  131.9782 H   0  0  0  0  0  0  0  0  0  0  0  0
  145.5893  155.9702  132.9432 H   0  0  0  0  0  0  0  0  0  0  0  0
  143.5606  156.3539  134.7985 H   0  0  0  0  0  0  0  0  0  0  0  0
  143.7730  157.9892  135.5554 H   0  0  0  0  0  0  0  0  0  0  0  0
  141.2281  157.1807  134.0982 H   0  0  0  0  0  0  0  0  0  0  0  0
  141.5023  156.8760  135.8670 H   0  0  0  0  0  0  0  0  0  0  0  0
  1  2  1  0
  2  3  2  0
  2  4  1  0
  4  5  2  0
  5  6  1  0
  6  7  2  0
  7  8  1  0
  8  9  2  0
  9 10  1  0
 10 11  2  0
 11 12  1  0
 12 13  2  0
 13 14  1  0
 14 15  2  0
  9 16  1  0
 16 17  2  0
 17 18  1  0
 18 19  1  0
 19 20  2  0
 19 21  1  0
 21 22  1  0
 22 23  1  0
 23 24  2  0
 23 25  1  0
 18  4  1  0
 17  6  1  0
 15 10  1  0
  1 26  1  0
  1 27  1  0
  5 28  1  0
  7 29  1  0
  8 30  1  0
 12 31  1  0
 13 32  1  0
 14 33  1  0
 16 34  1  0
 21 35  1  0
 21 36  1  0
 22 37  1  0
 22 38  1  0
M  CHG  1  25  -1
M  END
>  <UniqueID>  (36) 
36

>  <SMILES>  (36) 
NC(=O)c1cc2ccc(-c3ncccn3)cc2n1C(=O)CCC(=O)[O-]

>  <Energy>  (36) 
82.41267131714696

>  <Genealogy>  (36) 
NC(=O)c1cc2ccc(-c3ncccn3)cc2n1C(=O)CCC(=O)[O-] (protonated)
NC(=O)c1cc2ccc(-c3ncccn3)cc2n1C(=O)CCC(=O)[O-] (3D coordinates assigned)
NC(=O)c1cc2ccc(-c3ncccn3)cc2n1C(=O)CCC(=O)[O-] (optimized conformer: 82.41267131714696 kcal/mol)

>  <smiles>  (36) 
NC(=O)c1cc2ccc(-c3ncccn3)cc2n1C(=O)CCC(=O)O

>  <score_type>  (36) 
oracle

>  <origin>  (36) 
adg

>  <m_score__min__energy>  (36) 
-7.6699999999999999

>  <m_primary>  (36) 
energy

$$$$
36:0
     RDKit          3D

 39 41  0  0  0  0  0  0  0  0999 V2000
  140.1120  158.4970  134.1840 C   0  0  0  0  0  0  0  0  0  0  0  0
  140.9910  158.1670  135.4030 C   0  0  0  0  0  0  0  0  0  0  0  0
  141.8830  156.9200  135.2190 C   0  0  0  0  0  0  0  0  0  0  0  0
  143.2140  157.2910  134.8650 O   0  0  0  0  0  0  0  0  0  0  0  0
  143.5660  157.8700  133.6410 C   0  0  0  0  0  0  0  0  0  0  0  0
  142.7750  157.8240  132.6600 O   0  0  0  0  0  0  0  0  0  0  0  0
  144.8200  158.5550  133.5150 N   0  0  0  0  0  0  0  0  0  0  0  0
  145.0510  159.8960  133.5950 C   0  0  0  0  0  0  0  0  0  0  0  0
  144.0200  160.9510  133.6760 C   0  0  0  0  0  0  0  0  0  0  0  0
  142.6610  160.6770  133.3450 N   0  0  0  0  0  0  0  0  0  0  0  0
  144.3520  162.1240  133.9960 O   0  0  0  0  0  0  0  0  0  0  0  0
  146.4160  160.1620  133.5000 C   0  0  0  0  0  0  0  0  0  0  0  0
  147.0170  158.9330  133.3450 C   0  0  0  0  0  0  0  0  0  0  0  0
  148.3640  158.6040  133.2210 C   0  0  0  0  0  0  0  0  0  0  0  0
  148.7020  157.2460  133.1080 C   0  0  0  0  0  0  0  0  0  0  0  0
  147.6960  156.2440  133.1090 C   0  0  0  0  0  0  0  0  0  0  0  0
  148.0780  154.7860  133.0490 C   0  0  0  0  0  0  0  0  0  0  0  0
  147.0220  154.0620  132.5270 F   0  0  0  0  0  0  0  0  0  0  0  0
  148.3740  154.3060  134.3120 F   0  0  0  0  0  0  0  0  0  0  0  0
  149.1900  154.6060  132.2450 F   0  0  0  0  0  0  0  0  0  0  0  0
  146.3410  156.6180  133.2630 C   0  0  0  0  0  0  0  0  0  0  0  0
  146.0320  157.9800  133.3570 C   0  0  0  0  0  0  0  0  0  0  0  0
  141.6800  159.3760  136.0120 C   0  0  0  0  0  0  0  0  0  0  0  0
  140.9100  159.3090  137.1890 O   0  0  0  0  0  0  0  0  0  0  0  0
  140.2250  158.1730  136.7150 C   0  0  0  0  0  0  0  0  0  0  0  0
  139.1333  158.8644  134.5264 H   0  0  0  0  0  0  0  0  0  0  0  0
  140.6028  159.2721  133.5771 H   0  0  0  0  0  0  0  0  0  0  0  0
  139.9715  157.5904  133.5771 H   0  0  0  0  0  0  0  0  0  0  0  0
  141.9063  156.3523  136.1609 H   0  0  0  0  0  0  0  0  0  0  0  0
  141.4634  156.3056  134.4088 H   0  0  0  0  0  0  0  0  0  0  0  0
  142.4170  159.9680  132.6190 H   0  0  0  0  0  0  0  0  0  0  0  0
  146.9083  161.1448  133.5403 H   0  0  0  0  0  0  0  0  0  0  0  0
  149.1396  159.3840  133.2118 H   0  0  0  0  0  0  0  0  0  0  0  0
  149.7589  156.9548  133.0176 H   0  0  0  0  0  0  0  0  0  0  0  0
  145.5484  155.8565  133.3079 H   0  0  0  0  0  0  0  0  0  0  0  0
  142.7562  159.2264  136.1836 H   0  0  0  0  0  0  0  0  0  0  0  0
  141.7012  160.3177  135.4438 H   0  0  0  0  0  0  0  0  0  0  0  0
  140.3940  157.2734  137.3250 H   0  0  0  0  0  0  0  0  0  0  0  0
  139.1254  158.1878  136.6886 H   0  0  0  0  0  0  0  0  0  0  0  0
  1  2  1  0
  2  3  1  0
  3  4  1  0
  4  5  1  0
  5  6  2  0
  5  7  1  0
  7  8  1  0
  8  9  1  0
  9 10  1  0
  9 11  2  0
  8 12  2  0
 12 13  1  0
 13 14  2  0
 14 15  1  0
 15 16  2  0
 16 17  1  0
 17 18  1  0
 17 19  1  0
 17 20  1  0
 16 21  1  0
 21 22  2  0
  2 23  1  0
 23 24  1  0
 24 25  1  0
 25  2  1  0
 22  7  1  0
 22 13  1  0
  1 26  1  0
  1 27  1  0
  1 28  1  0
  3 29  1  0
  3 30  1  0
 10 31  1  0
 12 32  1  0
 14 33  1  0
 15 34  1  0
 21 35  1  0
 23 36  1  0
 23 37  1  0
 25 38  1  0
 25 39  1  0
M  CHG  1  10  -1
M  END
>  <UniqueID>  (37) 
37

>  <SMILES>  (37) 
CC1(COC(=O)n2c(C([NH-])=O)cc3ccc(C(F)(F)F)cc32)COC1

>  <Energy>  (37) 
141.46059246215597

>  <Genealogy>  (37) 
CC1(COC(=O)n2c(C([NH-])=O)cc3ccc(C(F)(F)F)cc32)COC1 (protonated)
CC1(COC(=O)n2c(C([NH-])=O)cc3ccc(C(F)(F)F)cc32)COC1 (3D coordinates assigned)
CC1(COC(=O)n2c(C([NH-])=O)cc3ccc(C(F)(F)F)cc32)COC1 (nonaromatic ring conformer: 141.46059246215597 kcal/mol)

>  <smiles>  (37) 
CC1(COC(=O)n2c(C(N)=O)cc3ccc(C(F)(F)F)cc32)COC1

>  <score_type>  (37) 
oracle

>  <origin>  (37) 
adg

>  <m_score__min__energy>  (37) 
-6.8700000000000001

>  <m_primary>  (37) 
energy

$$$$
37:0
     RDKit          3D

 59 61  0  0  0  0  0  0  0  0999 V2000
  139.1120  146.9310  130.0030 C   0  0  0  0  0  0  0  0  0  0  0  0
  139.1340  148.2940  130.5650 N   0  0  0  0  0  0  0  0  0  0  0  0
  138.3740  149.1960  129.6830 C   0  0  0  0  0  0  0  0  0  0  0  0
  140.5210  148.7820  130.7200 C   0  0  0  0  0  0  0  0  0  0  0  0
  140.9870  148.6330  132.1730 C   0  0  0  0  0  0  0  0  0  0  0  0
  140.6010  149.7710  132.9420 O   0  0  0  0  0  0  0  0  0  0  0  0
  141.3000  150.9890  133.0020 C   0  0  0  0  0  0  0  0  0  0  0  0
  140.6540  152.2400  133.0010 C   0  0  0  0  0  0  0  0  0  0  0  0
  141.4020  153.4200  133.0640 C   0  0  0  0  0  0  0  0  0  0  0  0
  142.8050  153.3750  133.1270 C   0  0  0  0  0  0  0  0  0  0  0  0
  143.5980  154.6280  133.2000 C   0  0  0  0  0  0  0  0  0  0  0  0
  142.9490  155.8790  133.3770 C   0  0  0  0  0  0  0  0  0  0  0  0
  143.6910  157.0680  133.4650 C   0  0  0  0  0  0  0  0  0  0  0  0
  145.0760  156.9830  133.3630 C   0  0  0  0  0  0  0  0  0  0  0  0
  146.0290  157.9700  133.4560 C   0  0  0  0  0  0  0  0  0  0  0  0
  147.2480  157.3180  133.3030 C   0  0  0  0  0  0  0  0  0  0  0  0
  148.5480  158.0200  133.2890 C   0  0  0  0  0  0  0  0  0  0  0  0
  149.5330  157.7310  132.2960 N   0  0  0  0  0  0  0  0  0  0  0  0
  148.7700  158.9280  134.1340 O   0  0  0  0  0  0  0  0  0  0  0  0
  147.0630  155.9790  133.1350 N   0  0  0  0  0  0  0  0  0  0  0  0
  148.0790  154.9630  133.0700 C   0  0  0  0  0  0  0  0  0  0  0  0
  149.1910  155.2120  132.5330 O   0  0  0  0  0  0  0  0  0  0  0  0
  147.8250  153.6980  133.6080 O   0  0  0  0  0  0  0  0  0  0  0  0
  148.8510  152.7380  133.8440 C   0  0  0  0  0  0  0  0  0  0  0  0
  149.0870  151.8940  132.5830 C   0  0  2  0  0  0  0  0  0  0  0  0
  149.2550  152.7440  131.4780 O   0  0  0  0  0  0  0  0  0  0  0  0
  147.9120  150.9490  132.3010 C   0  0  0  0  0  0  0  0  0  0  0  0
  146.7980  151.6740  131.8560 O   0  0  0  0  0  0  0  0  0  0  0  0
  145.7230  155.7890  133.1720 C   0  0  0  0  0  0  0  0  0  0  0  0
  145.0100  154.5860  133.1030 C   0  0  0  0  0  0  0  0  0  0  0  0
  143.4450  152.1240  133.1230 C   0  0  0  0  0  0  0  0  0  0  0  0
  142.6970  150.9450  133.0580 C   0  0  0  0  0  0  0  0  0  0  0  0
  139.1001  146.1968  130.8221 H   0  0  0  0  0  0  0  0  0  0  0  0
  138.2117  146.8042  129.3838 H   0  0  0  0  0  0  0  0  0  0  0  0
  140.0077  146.7752  129.3838 H   0  0  0  0  0  0  0  0  0  0  0  0
  137.7846  149.8955  130.2940 H   0  0  0  0  0  0  0  0  0  0  0  0
  139.0717  149.7618  129.0481 H   0  0  0  0  0  0  0  0  0  0  0  0
  137.6980  148.6044  129.0481 H   0  0  0  0  0  0  0  0  0  0  0  0
  141.1849  148.1977  130.0659 H   0  0  0  0  0  0  0  0  0  0  0  0
  140.5550  149.8464  130.4444 H   0  0  0  0  0  0  0  0  0  0  0  0
  140.5319  147.7310  132.6082 H   0  0  0  0  0  0  0  0  0  0  0  0
  142.0838  148.5499  132.1875 H   0  0  0  0  0  0  0  0  0  0  0  0
  139.5563  152.2895  132.9505 H   0  0  0  0  0  0  0  0  0  0  0  0
  140.8873  154.3922  133.0642 H   0  0  0  0  0  0  0  0  0  0  0  0
  141.8518  155.9169  133.4460 H   0  0  0  0  0  0  0  0  0  0  0  0
  143.1921  158.0376  133.6102 H   0  0  0  0  0  0  0  0  0  0  0  0
  145.8628  159.0454  133.6170 H   0  0  0  0  0  0  0  0  0  0  0  0
  150.4650  158.2010  132.3300 H   0  0  0  0  0  0  0  0  0  0  0  0
  149.3180  157.1060  131.4890 H   0  0  0  0  0  0  0  0  0  0  0  0
  149.7818  153.2593  134.1119 H   0  0  0  0  0  0  0  0  0  0  0  0
  148.5414  152.0763  134.6663 H   0  0  0  0  0  0  0  0  0  0  0  0
  149.9885  151.2867  132.7516 H   0  0  0  0  0  0  0  0  0  0  0  0
  148.5050  153.3940  131.4980 H   0  0  0  0  0  0  0  0  0  0  0  0
  148.2065  150.2255  131.5266 H   0  0  0  0  0  0  0  0  0  0  0  0
  147.6471  150.4219  133.2295 H   0  0  0  0  0  0  0  0  0  0  0  0
  147.0730  152.6270  131.8490 H   0  0  0  0  0  0  0  0  0  0  0  0
  145.5358  153.6282  132.9761 H   0  0  0  0  0  0  0  0  0  0  0  0
  144.5427  152.0722  133.1714 H   0  0  0  0  0  0  0  0  0  0  0  0
  143.2120  149.9730  133.0508 H   0  0  0  0  0  0  0  0  0  0  0  0
  1  2  1  0
  2  3  1  0
  2  4  1  0
  4  5  1  0
  5  6  1  0
  6  7  1  0
  7  8  2  0
  8  9  1  0
  9 10  2  0
 10 11  1  0
 11 12  2  0
 12 13  1  0
 13 14  2  0
 14 15  1  0
 15 16  2  0
 16 17  1  0
 17 18  1  0
 17 19  2  0
 16 20  1  0
 20 21  1  0
 21 22  2  0
 21 23  1  0
 23 24  1  0
 24 25  1  0
 25 26  1  0
 25 27  1  0
 27 28  1  0
 20 29  1  0
 29 30  2  0
 10 31  1  0
 31 32  2  0
 32  7  1  0
 30 11  1  0
 29 14  1  0
  1 33  1  0
  1 34  1  0
  1 35  1  0
  3 36  1  0
  3 37  1  0
  3 38  1  0
  4 39  1  0
  4 40  1  0
  5 41  1  0
  5 42  1  0
  8 43  1  0
  9 44  1  0
 12 45  1  0
 13 46  1  0
 15 47  1  0
 18 48  1  0
 18 49  1  0
 24 50  1  0
 24 51  1  0
 25 52  1  1
 26 53  1  0
 27 54  1  0
 27 55  1  0
 28 56  1  0
 30 57  1  0
 31 58  1  0
 32 59  1  0
M  END
>  <UniqueID>  (38) 
38

>  <SMILES>  (38) 
CN(C)CCOc1ccc(-c2ccc3cc(C(N)=O)n(C(=O)OC[C@H](O)CO)c3c2)cc1

>  <Energy>  (38) 
98.2797253972641

>  <Genealogy>  (38) 
CN(C)CCOc1ccc(-c2ccc3cc(C(N)=O)n(C(=O)OC[C@H](O)CO)c3c2)cc1 (chirality)
CN(C)CCOc1ccc(-c2ccc3cc(C(N)=O)n(C(=O)OC[C@H](O)CO)c3c2)cc1 (3D coordinates assigned)
CN(C)CCOc1ccc(-c2ccc3cc(C(N)=O)n(C(=O)OC[C@H](O)CO)c3c2)cc1 (optimized conformer: 98.2797253972641 kcal/mol)

>  <smiles>  (38) 
CN(C)CCOc1ccc(-c2ccc3cc(C(N)=O)n(C(=O)OCC(O)CO)c3c2)cc1

>  <score_type>  (38) 
oracle

>  <origin>  (38) 
adg

>  <m_score__min__energy>  (38) 
-8.6099999999999994

>  <m_primary>  (38) 
energy

$$$$
38:0
     RDKit          3D

 43 44  0  0  0  0  0  0  0  0999 V2000
  141.9550  155.8610  133.3790 C   0  0  0  0  0  0  0  0  0  0  0  0
  142.2830  154.4860  133.5410 O   0  0  0  0  0  0  0  0  0  0  0  0
  143.4000  153.9020  132.9350 C   0  0  0  0  0  0  0  0  0  0  0  0
  143.6300  152.6680  133.0600 O   0  0  0  0  0  0  0  0  0  0  0  0
  144.3380  154.7550  132.1410 C   0  0  0  0  0  0  0  0  0  0  0  0
  145.6590  154.9500  132.8900 C   0  0  0  0  0  0  0  0  0  0  0  0
  146.0060  156.4120  132.9760 C   0  0  0  0  0  0  0  0  0  0  0  0
  147.3300  156.8470  132.7210 C   0  0  0  0  0  0  0  0  0  0  0  0
  147.6700  158.2070  132.8240 C   0  0  0  0  0  0  0  0  0  0  0  0
  146.6720  159.1010  133.2000 C   0  0  0  0  0  0  0  0  0  0  0  0
  146.7180  160.4680  133.3600 C   0  0  0  0  0  0  0  0  0  0  0  0
  145.4310  160.8400  133.7440 C   0  0  0  0  0  0  0  0  0  0  0  0
  145.0560  162.2220  134.1060 C   0  0  0  0  0  0  0  0  0  0  0  0
  145.9210  163.0350  134.8970 N   0  0  0  0  0  0  0  0  0  0  0  0
  143.9750  162.7080  133.6790 O   0  0  0  0  0  0  0  0  0  0  0  0
  144.6200  159.7470  133.8130 N   0  0  0  0  0  0  0  0  0  0  0  0
  143.2120  159.7070  134.0850 C   0  0  0  0  0  0  0  0  0  0  0  0
  142.8030  159.7250  135.2790 O   0  0  0  0  0  0  0  0  0  0  0  0
  142.2790  159.6030  133.0050 N   0  0  0  0  0  0  0  0  0  0  0  0
  140.8330  159.5100  133.1810 C   0  0  0  0  0  0  0  0  0  0  0  0
  140.1200  159.3160  131.8370 C   0  0  0  0  0  0  0  0  0  0  0  0
  138.7060  158.8570  132.0270 C   0  0  0  0  0  0  0  0  0  0  0  0
  137.6950  159.2700  131.1100 N   0  0  0  0  0  0  0  0  0  0  0  0
  138.4000  158.1430  133.0200 O   0  0  0  0  0  0  0  0  0  0  0  0
  145.3940  158.6920  133.4770 C   0  0  0  0  0  0  0  0  0  0  0  0
  145.0210  157.3480  133.3630 C   0  0  0  0  0  0  0  0  0  0  0  0
  141.8431  156.3302  134.3676 H   0  0  0  0  0  0  0  0  0  0  0  0
  142.7578  156.3663  132.8221 H   0  0  0  0  0  0  0  0  0  0  0  0
  141.0105  155.9495  132.8221 H   0  0  0  0  0  0  0  0  0  0  0  0
  144.5391  154.2681  131.1754 H   0  0  0  0  0  0  0  0  0  0  0  0
  143.8728  155.7392  131.9831 H   0  0  0  0  0  0  0  0  0  0  0  0
  145.5626  154.5405  133.9064 H   0  0  0  0  0  0  0  0  0  0  0  0
  146.4578  154.4265  132.3442 H   0  0  0  0  0  0  0  0  0  0  0  0
  148.0996  156.1131  132.4396 H   0  0  0  0  0  0  0  0  0  0  0  0
  148.6926  158.5537  132.6141 H   0  0  0  0  0  0  0  0  0  0  0  0
  147.5868  161.1269  133.2153 H   0  0  0  0  0  0  0  0  0  0  0  0
  146.9570  162.9910  134.7730 H   0  0  0  0  0  0  0  0  0  0  0  0
  140.6057  158.6545  133.8341 H   0  0  0  0  0  0  0  0  0  0  0  0
  140.4767  160.4483  133.6311 H   0  0  0  0  0  0  0  0  0  0  0  0
  140.1155  160.2723  131.2934 H   0  0  0  0  0  0  0  0  0  0  0  0
  140.6598  158.5448  131.2679 H   0  0  0  0  0  0  0  0  0  0  0  0
  137.4200  158.6650  130.3040 H   0  0  0  0  0  0  0  0  0  0  0  0
  143.9887  157.0289  133.5692 H   0  0  0  0  0  0  0  0  0  0  0  0
  1  2  1  0
  2  3  1  0
  3  4  2  0
  3  5  1  0
  5  6  1  0
  6  7  1  0
  7  8  2  0
  8  9  1  0
  9 10  2  0
 10 11  1  0
 11 12  2  0
 12 13  1  0
 13 14  1  0
 13 15  2  0
 12 16  1  0
 16 17  1  0
 17 18  2  0
 17 19  1  0
 19 20  1  0
 20 21  1  0
 21 22  1  0
 22 23  1  0
 22 24  2  0
 16 25  1  0
 25 26  2  0
 26  7  1  0
 25 10  1  0
  1 27  1  0
  1 28  1  0
  1 29  1  0
  5 30  1  0
  5 31  1  0
  6 32  1  0
  6 33  1  0
  8 34  1  0
  9 35  1  0
 11 36  1  0
 14 37  1  0
 20 38  1  0
 20 39  1  0
 21 40  1  0
 21 41  1  0
 23 42  1  0
 26 43  1  0
M  CHG  3  14  -1  19  -1  23  -1
M  END
>  <UniqueID>  (39) 
39

>  <SMILES>  (39) 
COC(=O)CCc1ccc2cc(C([NH-])=O)n(C(=O)[N-]CCC([NH-])=O)c2c1

>  <Energy>  (39) 
70.60790289818434

>  <Genealogy>  (39) 
COC(=O)CCc1ccc2cc(C([NH-])=O)n(C(=O)[N-]CCC([NH-])=O)c2c1 (protonated)
COC(=O)CCc1ccc2cc(C([NH-])=O)n(C(=O)[N-]CCC([NH-])=O)c2c1 (3D coordinates assigned)
COC(=O)CCc1ccc2cc(C([NH-])=O)n(C(=O)[N-]CCC([NH-])=O)c2c1 (optimized conformer: 70.60790289818434 kcal/mol)

>  <smiles>  (39) 
COC(=O)CCc1ccc2cc(C(N)=O)n(C(=O)NCCC(N)=O)c2c1

>  <score_type>  (39) 
oracle

>  <origin>  (39) 
adg

>  <m_score__min__energy>  (39) 
-7.25

>  <m_primary>  (39) 
energy

$$$$
39:0
     RDKit          3D

 34 35  0  0  0  0  0  0  0  0999 V2000
  144.8160  154.4940  135.8340 C   0  0  0  0  0  0  0  0  0  0  0  0
  146.5720  154.2610  135.6970 S   0  0  0  0  0  0  0  0  0  0  0  0
  147.2580  155.5780  135.9320 O   0  0  0  0  0  0  0  0  0  0  0  0
  147.0130  153.2650  136.7330 O   0  0  0  0  0  0  0  0  0  0  0  0
  146.9160  153.6880  134.1400 O   0  0  0  0  0  0  0  0  0  0  0  0
  148.2960  153.8410  133.9020 C   0  0  0  0  0  0  0  0  0  0  0  0
  148.5080  154.5820  132.5810 C   0  0  0  0  0  0  0  0  0  0  0  0
  148.1600  156.0410  132.7150 C   0  0  0  0  0  0  0  0  0  0  0  0
  149.1710  157.0260  132.6020 C   0  0  0  0  0  0  0  0  0  0  0  0
  148.8640  158.3870  132.7510 C   0  0  0  0  0  0  0  0  0  0  0  0
  147.5440  158.7310  133.0300 C   0  0  0  0  0  0  0  0  0  0  0  0
  146.9710  159.9700  133.2040 C   0  0  0  0  0  0  0  0  0  0  0  0
  145.6230  159.7210  133.4590 C   0  0  0  0  0  0  0  0  0  0  0  0
  144.6530  160.7840  133.7930 C   0  0  0  0  0  0  0  0  0  0  0  0
  143.2900  160.6870  133.3880 N   0  0  0  0  0  0  0  0  0  0  0  0
  145.0200  161.7710  134.4850 O   0  0  0  0  0  0  0  0  0  0  0  0
  145.3710  158.3810  133.4340 N   0  0  0  0  0  0  0  0  0  0  0  0
  144.1030  157.7190  133.5680 C   0  0  0  0  0  0  0  0  0  0  0  0
  143.8540  157.0220  134.5860 O   0  0  0  0  0  0  0  0  0  0  0  0
  143.1310  157.8620  132.5860 O   0  0  0  0  0  0  0  0  0  0  0  0
  146.5580  157.7900  133.1740 C   0  0  0  0  0  0  0  0  0  0  0  0
  146.8330  156.4260  133.0080 C   0  0  0  0  0  0  0  0  0  0  0  0
  144.5329  154.5316  136.8963 H   0  0  0  0  0  0  0  0  0  0  0  0
  144.5321  155.4377  135.3453 H   0  0  0  0  0  0  0  0  0  0  0  0
  144.2958  153.6570  135.3453 H   0  0  0  0  0  0  0  0  0  0  0  0
  148.7475  154.4181  134.7224 H   0  0  0  0  0  0  0  0  0  0  0  0
  148.7698  152.8499  133.8458 H   0  0  0  0  0  0  0  0  0  0  0  0
  149.5629  154.4903  132.2831 H   0  0  0  0  0  0  0  0  0  0  0  0
  147.8508  154.1348  131.8206 H   0  0  0  0  0  0  0  0  0  0  0  0
  150.2075  156.7211  132.3953 H   0  0  0  0  0  0  0  0  0  0  0  0
  149.6419  159.1582  132.6505 H   0  0  0  0  0  0  0  0  0  0  0  0
  147.4703  160.9488  133.1528 H   0  0  0  0  0  0  0  0  0  0  0  0
  143.0020  160.0380  132.6220 H   0  0  0  0  0  0  0  0  0  0  0  0
  146.0357  155.6742  133.1034 H   0  0  0  0  0  0  0  0  0  0  0  0
  1  2  1  0
  2  3  2  0
  2  4  2  0
  2  5  1  0
  5  6  1  0
  6  7  1  0
  7  8  1  0
  8  9  2  0
  9 10  1  0
 10 11  2  0
 11 12  1  0
 12 13  2  0
 13 14  1  0
 14 15  1  0
 14 16  2  0
 13 17  1  0
 17 18  1  0
 18 19  2  0
 18 20  1  0
 17 21  1  0
 21 22  2  0
 22  8  1  0
 21 11  1  0
  1 23  1  0
  1 24  1  0
  1 25  1  0
  6 26  1  0
  6 27  1  0
  7 28  1  0
  7 29  1  0
  9 30  1  0
 10 31  1  0
 12 32  1  0
 15 33  1  0
 22 34  1  0
M  CHG  2  15  -1  20  -1
M  END
>  <UniqueID>  (40) 
40

>  <SMILES>  (40) 
CS(=O)(=O)OCCc1ccc2cc(C([NH-])=O)n(C(=O)[O-])c2c1

>  <Energy>  (40) 
68.28479200262791

>  <Genealogy>  (40) 
CS(=O)(=O)OCCc1ccc2cc(C([NH-])=O)n(C(=O)[O-])c2c1 (protonated)
CS(=O)(=O)OCCc1ccc2cc(C([NH-])=O)n(C(=O)[O-])c2c1 (3D coordinates assigned)
CS(=O)(=O)OCCc1ccc2cc(C([NH-])=O)n(C(=O)[O-])c2c1 (optimized conformer: 68.28479200262791 kcal/mol)

>  <smiles>  (40) 
CS(=O)(=O)OCCc1ccc2cc(C(N)=O)n(C(=O)O)c2c1

>  <score_type>  (40) 
oracle

>  <origin>  (40) 
adg

>  <m_score__min__energy>  (40) 
-7.5499999999999998

>  <m_primary>  (40) 
energy

$$$$
40:0
     RDKit          3D

 63 66  0  0  0  0  0  0  0  0999 V2000
  141.7560  151.0600  132.6420 C   0  0  0  0  0  0  0  0  0  0  0  0
  142.7240  151.6030  133.6150 N   0  0  2  0  0  0  0  0  0  0  0  0
  142.0390  152.3390  134.7020 C   0  0  0  0  0  0  0  0  0  0  0  0
  141.4130  153.6650  134.2270 C   0  0  0  0  0  0  0  0  0  0  0  0
  142.2980  154.4140  133.2000 C   0  0  1  0  0  0  0  0  0  0  0  0
  142.2330  155.9180  133.4040 C   0  0  0  0  0  0  0  0  0  0  0  0
  140.9950  156.5360  133.7180 C   0  0  0  0  0  0  0  0  0  0  0  0
  140.9150  157.9230  133.9220 C   0  0  0  0  0  0  0  0  0  0  0  0
  142.0840  158.6680  133.8150 C   0  0  0  0  0  0  0  0  0  0  0  0
  142.2840  160.0230  133.9460 C   0  0  0  0  0  0  0  0  0  0  0  0
  143.6460  160.2180  133.7300 C   0  0  0  0  0  0  0  0  0  0  0  0
  144.3100  161.5320  133.8670 C   0  0  0  0  0  0  0  0  0  0  0  0
  145.7160  161.5950  134.0960 N   0  0  0  0  0  0  0  0  0  0  0  0
  143.6560  162.6010  133.7380 O   0  0  0  0  0  0  0  0  0  0  0  0
  144.2640  159.0310  133.4660 N   0  0  0  0  0  0  0  0  0  0  0  0
  145.6360  158.8230  133.0890 C   0  0  0  0  0  0  0  0  0  0  0  0
  146.1290  159.4610  132.1190 O   0  0  0  0  0  0  0  0  0  0  0  0
  146.4250  157.9260  133.8160 O   0  0  0  0  0  0  0  0  0  0  0  0
  147.8480  157.9660  133.8040 C   0  0  0  0  0  0  0  0  0  0  0  0
  148.3580  157.4770  132.4480 C   0  0  0  0  0  0  0  0  0  0  0  0
  149.2440  158.4870  131.8300 N   0  0  0  0  0  0  0  0  0  0  0  0
  148.9630  158.6120  130.3800 C   0  0  0  0  0  0  0  0  0  0  0  0
  149.5710  159.8910  129.7970 C   0  0  0  0  0  0  0  0  0  0  0  0
  148.9460  161.1460  130.4400 C   0  0  0  0  0  0  0  0  0  0  0  0
  149.9090  162.1690  130.4780 O   0  0  0  0  0  0  0  0  0  0  0  0
  148.4110  160.8670  131.8610 C   0  0  0  0  0  0  0  0  0  0  0  0
  149.2330  159.7800  132.5680 C   0  0  0  0  0  0  0  0  0  0  0  0
  143.2940  158.0910  133.5270 C   0  0  0  0  0  0  0  0  0  0  0  0
  143.4000  156.7130  133.3020 C   0  0  0  0  0  0  0  0  0  0  0  0
  143.7470  153.9060  133.2290 C   0  0  0  0  0  0  0  0  0  0  0  0
  143.8000  152.3930  132.9420 C   0  0  0  0  0  0  0  0  0  0  0  0
  140.9193  150.5906  133.1801 H   0  0  0  0  0  0  0  0  0  0  0  0
  141.3743  151.8757  132.0104 H   0  0  0  0  0  0  0  0  0  0  0  0
  142.2531  150.3090  132.0104 H   0  0  0  0  0  0  0  0  0  0  0  0
  143.1800  150.7730  134.0630 H   0  0  0  0  0  0  0  0  0  0  0  0
  141.2414  151.7006  135.1097 H   0  0  0  0  0  0  0  0  0  0  0  0
  142.7955  152.5847  135.4619 H   0  0  0  0  0  0  0  0  0  0  0  0
  140.4410  153.4472  133.7603 H   0  0  0  0  0  0  0  0  0  0  0  0
  141.3068  154.3149  135.1081 H   0  0  0  0  0  0  0  0  0  0  0  0
  141.8944  154.1987  132.1996 H   0  0  0  0  0  0  0  0  0  0  0  0
  140.0868  155.9211  133.8027 H   0  0  0  0  0  0  0  0  0  0  0  0
  139.9556  158.4059  134.1595 H   0  0  0  0  0  0  0  0  0  0  0  0
  141.5285  160.7896  134.1731 H   0  0  0  0  0  0  0  0  0  0  0  0
  146.3940  161.2420  133.3840 H   0  0  0  0  0  0  0  0  0  0  0  0
  148.1876  158.9985  133.9733 H   0  0  0  0  0  0  0  0  0  0  0  0
  148.2407  157.3167  134.6004 H   0  0  0  0  0  0  0  0  0  0  0  0
  148.9193  156.5415  132.5888 H   0  0  0  0  0  0  0  0  0  0  0  0
  147.4966  157.3079  131.7852 H   0  0  0  0  0  0  0  0  0  0  0  0
  149.3897  157.7433  129.8573 H   0  0  0  0  0  0  0  0  0  0  0  0
  147.8724  158.6556  130.2430 H   0  0  0  0  0  0  0  0  0  0  0  0
  150.6546  159.8922  129.9860 H   0  0  0  0  0  0  0  0  0  0  0  0
  149.3671  159.9137  128.7163 H   0  0  0  0  0  0  0  0  0  0  0  0
  148.0863  161.4540  129.8267 H   0  0  0  0  0  0  0  0  0  0  0  0
  150.7150  161.7890  130.9180 H   0  0  0  0  0  0  0  0  0  0  0  0
  148.4622  161.7942  132.4507 H   0  0  0  0  0  0  0  0  0  0  0  0
  147.3726  160.5141  131.7759 H   0  0  0  0  0  0  0  0  0  0  0  0
  150.2693  160.1346  132.6695 H   0  0  0  0  0  0  0  0  0  0  0  0
  148.7642  159.5967  133.5461 H   0  0  0  0  0  0  0  0  0  0  0  0
  144.3695  156.2578  133.0513 H   0  0  0  0  0  0  0  0  0  0  0  0
  144.3318  154.4391  132.4649 H   0  0  0  0  0  0  0  0  0  0  0  0
  144.1665  154.0910  134.2289 H   0  0  0  0  0  0  0  0  0  0  0  0
  143.7087  152.2446  131.8559 H   0  0  0  0  0  0  0  0  0  0  0  0
  144.7572  152.0288  133.3433 H   0  0  0  0  0  0  0  0  0  0  0  0
  1  2  1  0
  2  3  1  0
  3  4  1  0
  4  5  1  0
  5  6  1  0
  6  7  2  0
  7  8  1  0
  8  9  2  0
  9 10  1  0
 10 11  2  0
 11 12  1  0
 12 13  1  0
 12 14  2  0
 11 15  1  0
 15 16  1  0
 16 17  2  0
 16 18  1  0
 18 19  1  0
 19 20  1  0
 20 21  1  0
 21 22  1  0
 22 23  1  0
 23 24  1  0
 24 25  1  0
 24 26  1  0
 26 27  1  0
 15 28  1  0
 28 29  2  0
  5 30  1  0
 30 31  1  0
 31  2  1  0
 29  6  1  0
 28  9  1  0
 27 21  1  0
  1 32  1  0
  1 33  1  0
  1 34  1  0
  2 35  1  1
  3 36  1  0
  3 37  1  0
  4 38  1  0
  4 39  1  0
  5 40  1  6
  7 41  1  0
  8 42  1  0
 10 43  1  0
 13 44  1  0
 19 45  1  0
 19 46  1  0
 20 47  1  0
 20 48  1  0
 22 49  1  0
 22 50  1  0
 23 51  1  0
 23 52  1  0
 24 53  1  0
 25 54  1  0
 26 55  1  0
 26 56  1  0
 27 57  1  0
 27 58  1  0
 29 59  1  0
 30 60  1  0
 30 61  1  0
 31 62  1  0
 31 63  1  0
M  CHG  2   2   1  13  -1
M  END
>  <UniqueID>  (41) 
41

>  <SMILES>  (41) 
C[NH+]1CCC(c2ccc3cc(C([NH-])=O)n(C(=O)OCCN4CCC(O)CC4)c3c2)CC1

>  <Energy>  (41) 
117.95316615165495

>  <Genealogy>  (41) 
C[NH+]1CCC(c2ccc3cc(C([NH-])=O)n(C(=O)OCCN4CCC(O)CC4)c3c2)CC1 (protonated)
C[NH+]1CCC(c2ccc3cc(C([NH-])=O)n(C(=O)OCCN4CCC(O)CC4)c3c2)CC1 (3D coordinates assigned)
C[NH+]1CCC(c2ccc3cc(C([NH-])=O)n(C(=O)OCCN4CCC(O)CC4)c3c2)CC1 (nonaromatic ring conformer: 117.95316615165495 kcal/mol)

>  <smiles>  (41) 
CN1CCC(c2ccc3cc(C(N)=O)n(C(=O)OCCN4CCC(O)CC4)c3c2)CC1

>  <score_type>  (41) 
oracle

>  <origin>  (41) 
adg

>  <m_score__min__energy>  (41) 
-8.9600000000000009

>  <m_primary>  (41) 
energy

$$$$
41:0
     RDKit          3D

 67 69  0  0  0  0  0  0  0  0999 V2000
  141.7130  153.9650  137.0210 C   0  0  0  0  0  0  0  0  0  0  0  0
  142.4930  154.7770  136.0790 N   0  0  0  0  0  0  0  0  0  0  0  0
  142.4230  156.2430  136.1250 C   0  0  0  0  0  0  0  0  0  0  0  0
  141.0140  156.7440  135.8020 C   0  0  0  0  0  0  0  0  0  0  0  0
  141.0670  158.1030  135.4390 O   0  0  0  0  0  0  0  0  0  0  0  0
  141.1650  158.2900  133.7100 Si  0  0  0  0  0  4  0  0  0  0  0  0
  142.6530  157.4320  132.9420 C   0  0  0  0  0  0  0  0  0  0  0  0
  141.3580  160.1180  133.3540 C   0  0  0  0  0  0  0  0  0  0  0  0
  139.5410  157.6390  132.9550 C   0  0  0  0  0  0  0  0  0  0  0  0
  139.6710  156.1320  132.6710 C   0  0  0  0  0  0  0  0  0  0  0  0
  139.2370  158.3780  131.6390 C   0  0  0  0  0  0  0  0  0  0  0  0
  138.3940  157.8690  133.9550 C   0  0  0  0  0  0  0  0  0  0  0  0
  143.3470  154.1190  135.1290 C   0  0  0  0  0  0  0  0  0  0  0  0
  142.7950  153.1990  134.2040 C   0  0  0  0  0  0  0  0  0  0  0  0
  143.6170  152.5270  133.2850 C   0  0  0  0  0  0  0  0  0  0  0  0
  144.9800  152.8000  133.3040 C   0  0  0  0  0  0  0  0  0  0  0  0
  145.9940  152.2710  132.5390 C   0  0  0  0  0  0  0  0  0  0  0  0
  147.1470  152.9170  132.9690 C   0  0  0  0  0  0  0  0  0  0  0  0
  148.4710  152.6950  132.3660 C   0  0  0  0  0  0  0  0  0  0  0  0
  149.3850  153.7760  132.1950 N   0  0  0  0  0  0  0  0  0  0  0  0
  148.8050  151.5330  132.0150 O   0  0  0  0  0  0  0  0  0  0  0  0
  146.8750  153.7920  133.9810 N   0  0  0  0  0  0  0  0  0  0  0  0
  147.8290  154.5920  134.7050 C   0  0  0  0  0  0  0  0  0  0  0  0
  148.1410  154.2890  135.8870 O   0  0  0  0  0  0  0  0  0  0  0  0
  148.4150  155.7080  134.0910 O   0  0  0  0  0  0  0  0  0  0  0  0
  147.9190  157.0360  134.2420 C   0  0  1  0  0  0  0  0  0  0  0  0
  148.4590  157.9520  133.1720 C   0  0  0  0  0  0  0  0  0  0  0  0
  147.2770  158.8630  132.8640 C   0  0  0  0  0  0  0  0  0  0  0  0
  146.1180  158.3820  133.5220 O   0  0  0  0  0  0  0  0  0  0  0  0
  146.4300  157.0870  133.9810 C   0  0  0  0  0  0  0  0  0  0  0  0
  145.5340  153.7080  134.1740 C   0  0  0  0  0  0  0  0  0  0  0  0
  144.7370  154.3700  135.1210 C   0  0  0  0  0  0  0  0  0  0  0  0
  141.9792  154.2421  138.0517 H   0  0  0  0  0  0  0  0  0  0  0  0
  140.6400  154.1444  136.8586 H   0  0  0  0  0  0  0  0  0  0  0  0
  141.9354  152.9000  136.8586 H   0  0  0  0  0  0  0  0  0  0  0  0
  142.7017  156.5833  137.1332 H   0  0  0  0  0  0  0  0  0  0  0  0
  143.1156  156.6469  135.3719 H   0  0  0  0  0  0  0  0  0  0  0  0
  140.5996  156.1584  134.9682 H   0  0  0  0  0  0  0  0  0  0  0  0
  140.3731  156.6277  136.6884 H   0  0  0  0  0  0  0  0  0  0  0  0
  143.3097  157.0534  133.7391 H   0  0  0  0  0  0  0  0  0  0  0  0
  142.3110  156.5925  132.3190 H   0  0  0  0  0  0  0  0  0  0  0  0
  143.2083  158.1486  132.3190 H   0  0  0  0  0  0  0  0  0  0  0  0
  141.4165  160.6721  134.3025 H   0  0  0  0  0  0  0  0  0  0  0  0
  142.2786  160.2836  132.7752 H   0  0  0  0  0  0  0  0  0  0  0  0
  140.4923  160.4722  132.7752 H   0  0  0  0  0  0  0  0  0  0  0  0
  139.7184  155.5823  133.6226 H   0  0  0  0  0  0  0  0  0  0  0  0
  138.7989  155.7911  132.0937 H   0  0  0  0  0  0  0  0  0  0  0  0
  140.5886  155.9455  132.0937 H   0  0  0  0  0  0  0  0  0  0  0  0
  138.8274  159.3738  131.8639 H   0  0  0  0  0  0  0  0  0  0  0  0
  140.1638  158.4858  131.0565 H   0  0  0  0  0  0  0  0  0  0  0  0
  138.5026  157.8024  131.0565 H   0  0  0  0  0  0  0  0  0  0  0  0
  138.7814  157.7913  134.9816 H   0  0  0  0  0  0  0  0  0  0  0  0
  137.9669  158.8707  133.7991 H   0  0  0  0  0  0  0  0  0  0  0  0
  137.6138  157.1094  133.7991 H   0  0  0  0  0  0  0  0  0  0  0  0
  141.7115  153.0091  134.2056 H   0  0  0  0  0  0  0  0  0  0  0  0
  143.1945  151.8052  132.5705 H   0  0  0  0  0  0  0  0  0  0  0  0
  145.9102  151.5027  131.7562 H   0  0  0  0  0  0  0  0  0  0  0  0
  150.3560  153.5970  131.8520 H   0  0  0  0  0  0  0  0  0  0  0  0
  149.1070  154.7510  132.4480 H   0  0  0  0  0  0  0  0  0  0  0  0
  148.2063  157.3357  135.2607 H   0  0  0  0  0  0  0  0  0  0  0  0
  149.3167  158.5312  133.5447 H   0  0  0  0  0  0  0  0  0  0  0  0
  148.8288  157.4117  132.2881 H   0  0  0  0  0  0  0  0  0  0  0  0
  147.4998  159.8817  133.2141 H   0  0  0  0  0  0  0  0  0  0  0  0
  147.1003  158.8754  131.7783 H   0  0  0  0  0  0  0  0  0  0  0  0
  145.8797  156.8764  134.9099 H   0  0  0  0  0  0  0  0  0  0  0  0
  146.1450  156.3343  133.2312 H   0  0  0  0  0  0  0  0  0  0  0  0
  145.1855  155.0695  135.8418 H   0  0  0  0  0  0  0  0  0  0  0  0
  1  2  1  0
  2  3  1  0
  3  4  1  0
  4  5  1  0
  5  6  1  0
  6  7  1  0
  6  8  1  0
  6  9  1  0
  9 10  1  0
  9 11  1  0
  9 12  1  0
  2 13  1  0
 13 14  2  0
 14 15  1  0
 15 16  2  0
 16 17  1  0
 17 18  2  0
 18 19  1  0
 19 20  1  0
 19 21  2  0
 18 22  1  0
 22 23  1  0
 23 24  2  0
 23 25  1  0
 25 26  1  0
 26 27  1  0
 27 28  1  0
 28 29  1  0
 29 30  1  0
 22 31  1  0
 31 32  2  0
 32 13  1  0
 31 16  1  0
 30 26  1  0
  1 33  1  0
  1 34  1  0
  1 35  1  0
  3 36  1  0
  3 37  1  0
  4 38  1  0
  4 39  1  0
  7 40  1  0
  7 41  1  0
  7 42  1  0
  8 43  1  0
  8 44  1  0
  8 45  1  0
 10 46  1  0
 10 47  1  0
 10 48  1  0
 11 49  1  0
 11 50  1  0
 11 51  1  0
 12 52  1  0
 12 53  1  0
 12 54  1  0
 14 55  1  0
 15 56  1  0
 17 57  1  0
 20 58  1  0
 20 59  1  0
 26 60  1  1
 27 61  1  0
 27 62  1  0
 28 63  1  0
 28 64  1  0
 30 65  1  0
 30 66  1  0
 32 67  1  0
M  END
>  <UniqueID>  (42) 
42

>  <SMILES>  (42) 
CN(CCO[Si](C)(C)C(C)(C)C)c1ccc2cc(C(N)=O)n(C(=O)O[C@H]3CCOC3)c2c1

>  <Energy>  (42) 
92.12867023352503

>  <Genealogy>  (42) 
CN(CCO[Si](C)(C)C(C)(C)C)c1ccc2cc(C(N)=O)n(C(=O)O[C@H]3CCOC3)c2c1 (chirality)
CN(CCO[Si](C)(C)C(C)(C)C)c1ccc2cc(C(N)=O)n(C(=O)O[C@H]3CCOC3)c2c1 (3D coordinates assigned)
CN(CCO[Si](C)(C)C(C)(C)C)c1ccc2cc(C(N)=O)n(C(=O)O[C@H]3CCOC3)c2c1 (nonaromatic ring conformer: 92.12867023352503 kcal/mol)

>  <smiles>  (42) 
CN(CCO[Si](C)(C)C(C)(C)C)c1ccc2cc(C(N)=O)n(C(=O)OC3CCOC3)c2c1

>  <score_type>  (42) 
oracle

>  <origin>  (42) 
adg

>  <m_score__min__energy>  (42) 
-9.0500000000000007

>  <m_primary>  (42) 
energy

$$$$
42:0
     RDKit          3D

 47 49  0  0  0  0  0  0  0  0999 V2000
  149.5250  160.8650  130.0360 C   0  0  0  0  0  0  0  0  0  0  0  0
  148.4870  161.1710  131.1100 C   0  0  0  0  0  0  0  0  0  0  0  0
  148.1520  159.9320  131.8970 C   0  0  0  0  0  0  0  0  0  0  0  0
  149.1610  158.9830  132.1980 C   0  0  0  0  0  0  0  0  0  0  0  0
  148.8500  157.8140  132.9110 C   0  0  0  0  0  0  0  0  0  0  0  0
  147.5250  157.6110  133.2880 C   0  0  0  0  0  0  0  0  0  0  0  0
  146.9530  156.5750  133.9910 C   0  0  0  0  0  0  0  0  0  0  0  0
  145.5960  156.8890  134.0750 C   0  0  0  0  0  0  0  0  0  0  0  0
  144.5750  156.0120  134.6920 C   0  0  0  0  0  0  0  0  0  0  0  0
  143.2490  156.4890  134.9330 N   0  0  0  0  0  0  0  0  0  0  0  0
  144.8720  154.8370  135.0310 O   0  0  0  0  0  0  0  0  0  0  0  0
  145.3420  158.0710  133.4440 N   0  0  0  0  0  0  0  0  0  0  0  0
  144.0760  158.7430  133.3360 C   0  0  0  0  0  0  0  0  0  0  0  0
  143.1670  158.2480  132.6160 O   0  0  0  0  0  0  0  0  0  0  0  0
  143.8530  160.0730  134.0010 C   0  0  0  0  0  0  0  0  0  0  0  0
  142.4470  160.6230  133.7070 C   0  0  0  0  0  0  0  0  0  0  0  0
  141.4450  160.0780  134.6490 N   0  0  0  0  0  0  0  0  0  0  0  0
  140.4270  159.2620  133.9430 C   0  0  0  0  0  0  0  0  0  0  0  0
  140.7480  157.7570  134.0220 C   0  0  0  0  0  0  0  0  0  0  0  0
  140.8190  157.2510  135.3480 O   0  0  0  0  0  0  0  0  0  0  0  0
  141.1660  158.2330  136.3150 C   0  0  0  0  0  0  0  0  0  0  0  0
  142.0870  159.3330  135.7630 C   0  0  0  0  0  0  0  0  0  0  0  0
  146.5340  158.5030  132.9740 C   0  0  0  0  0  0  0  0  0  0  0  0
  146.8200  159.6890  132.2900 C   0  0  0  0  0  0  0  0  0  0  0  0
  150.4754  160.5848  130.5138 H   0  0  0  0  0  0  0  0  0  0  0  0
  149.1703  160.0332  129.4097 H   0  0  0  0  0  0  0  0  0  0  0  0
  149.6782  161.7562  129.4097 H   0  0  0  0  0  0  0  0  0  0  0  0
  148.8884  161.9345  131.7926 H   0  0  0  0  0  0  0  0  0  0  0  0
  147.5718  161.5374  130.6221 H   0  0  0  0  0  0  0  0  0  0  0  0
  150.1955  159.1637  131.8705 H   0  0  0  0  0  0  0  0  0  0  0  0
  149.6297  157.0805  133.1642 H   0  0  0  0  0  0  0  0  0  0  0  0
  147.4585  155.6877  134.3999 H   0  0  0  0  0  0  0  0  0  0  0  0
  142.9400  157.4310  134.6080 H   0  0  0  0  0  0  0  0  0  0  0  0
  142.5500  155.8720  135.4030 H   0  0  0  0  0  0  0  0  0  0  0  0
  143.9694  159.9527  135.0882 H   0  0  0  0  0  0  0  0  0  0  0  0
  144.5915  160.7850  133.6039 H   0  0  0  0  0  0  0  0  0  0  0  0
  142.4653  161.7190  133.7989 H   0  0  0  0  0  0  0  0  0  0  0  0
  142.1637  160.3207  132.6880 H   0  0  0  0  0  0  0  0  0  0  0  0
  139.4443  159.4415  134.4035 H   0  0  0  0  0  0  0  0  0  0  0  0
  140.4257  159.5571  132.8833 H   0  0  0  0  0  0  0  0  0  0  0  0
  139.9625  157.2068  133.4832 H   0  0  0  0  0  0  0  0  0  0  0  0
  141.7435  157.6195  133.5747 H   0  0  0  0  0  0  0  0  0  0  0  0
  140.2418  158.7034  136.6818 H   0  0  0  0  0  0  0  0  0  0  0  0
  141.7170  157.7195  137.1167 H   0  0  0  0  0  0  0  0  0  0  0  0
  142.3256  160.0381  136.5729 H   0  0  0  0  0  0  0  0  0  0  0  0
  142.9990  158.8550  135.3759 H   0  0  0  0  0  0  0  0  0  0  0  0
  146.0248  160.4147  132.0641 H   0  0  0  0  0  0  0  0  0  0  0  0
  1  2  1  0
  2  3  1  0
  3  4  2  0
  4  5  1  0
  5  6  2  0
  6  7  1  0
  7  8  2  0
  8  9  1  0
  9 10  1  0
  9 11  2  0
  8 12  1  0
 12 13  1  0
 13 14  2  0
 13 15  1  0
 15 16  1  0
 16 17  1  0
 17 18  1  0
 18 19  1  0
 19 20  1  0
 20 21  1  0
 21 22  1  0
 12 23  1  0
 23 24  2  0
 24  3  1  0
 23  6  1  0
 22 17  1  0
  1 25  1  0
  1 26  1  0
  1 27  1  0
  2 28  1  0
  2 29  1  0
  4 30  1  0
  5 31  1  0
  7 32  1  0
 10 33  1  0
 10 34  1  0
 15 35  1  0
 15 36  1  0
 16 37  1  0
 16 38  1  0
 18 39  1  0
 18 40  1  0
 19 41  1  0
 19 42  1  0
 21 43  1  0
 21 44  1  0
 22 45  1  0
 22 46  1  0
 24 47  1  0
M  END
>  <UniqueID>  (43) 
43

>  <SMILES>  (43) 
CCc1ccc2cc(C(N)=O)n(C(=O)CCN3CCOCC3)c2c1

>  <Energy>  (43) 
95.85709083246671

>  <Genealogy>  (43) 
CCc1ccc2cc(C(N)=O)n(C(=O)CCN3CCOCC3)c2c1 (3D coordinates assigned)
CCc1ccc2cc(C(N)=O)n(C(=O)CCN3CCOCC3)c2c1 (nonaromatic ring conformer: 95.85709083246671 kcal/mol)

>  <smiles>  (43) 
CCc1ccc2cc(C(N)=O)n(C(=O)CCN3CCOCC3)c2c1

>  <score_type>  (43) 
oracle

>  <origin>  (43) 
adg

>  <m_score__min__energy>  (43) 
-7.9699999999999998

>  <m_primary>  (43) 
energy

$$$$
43:0
     RDKit          3D

 33 34  0  0  0  0  0  0  0  0999 V2000
  141.2500  157.9260  137.0300 C   0  0  0  0  0  0  0  0  0  0  0  0
  141.2050  158.9430  135.9280 C   0  0  0  0  0  0  0  0  0  0  0  0
  140.9010  160.0960  136.1940 O   0  0  0  0  0  0  0  0  0  0  0  0
  141.5130  158.5680  134.5040 C   0  0  0  0  0  0  0  0  0  0  0  0
  142.8790  159.0650  134.1230 C   0  0  0  0  0  0  0  0  0  0  0  0
  143.1470  160.4570  134.1010 C   0  0  0  0  0  0  0  0  0  0  0  0
  144.4310  160.9350  133.7870 C   0  0  0  0  0  0  0  0  0  0  0  0
  145.4230  160.0010  133.5060 C   0  0  0  0  0  0  0  0  0  0  0  0
  146.7550  160.1830  133.2030 C   0  0  0  0  0  0  0  0  0  0  0  0
  147.2720  158.9000  133.0350 C   0  0  0  0  0  0  0  0  0  0  0  0
  148.6670  158.6290  132.6370 C   0  0  0  0  0  0  0  0  0  0  0  0
  149.0050  157.4770  131.8630 N   0  0  0  0  0  0  0  0  0  0  0  0
  149.5690  159.4530  132.9440 O   0  0  0  0  0  0  0  0  0  0  0  0
  146.3060  157.9630  133.2450 N   0  0  0  0  0  0  0  0  0  0  0  0
  146.4480  156.5340  133.2860 C   0  0  0  0  0  0  0  0  0  0  0  0
  146.5120  155.8850  132.2070 O   0  0  0  0  0  0  0  0  0  0  0  0
  146.4710  155.7880  134.5880 C   0  0  0  0  0  0  0  0  0  0  0  0
  145.2580  155.9010  135.2430 F   0  0  0  0  0  0  0  0  0  0  0  0
  146.7170  154.4490  134.3430 F   0  0  0  0  0  0  0  0  0  0  0  0
  147.4740  156.2880  135.3960 F   0  0  0  0  0  0  0  0  0  0  0  0
  145.1800  158.6520  133.5240 C   0  0  0  0  0  0  0  0  0  0  0  0
  143.9160  158.1460  133.8450 C   0  0  0  0  0  0  0  0  0  0  0  0
  141.2273  158.4385  138.0031 H   0  0  0  0  0  0  0  0  0  0  0  0
  140.3806  157.2572  136.9475 H   0  0  0  0  0  0  0  0  0  0  0  0
  142.1751  157.3366  136.9475 H   0  0  0  0  0  0  0  0  0  0  0  0
  141.4825  157.4732  134.4013 H   0  0  0  0  0  0  0  0  0  0  0  0
  140.7650  159.0271  133.8409 H   0  0  0  0  0  0  0  0  0  0  0  0
  142.3420  161.1702  134.3320 H   0  0  0  0  0  0  0  0  0  0  0  0
  144.6448  162.0138  133.7642 H   0  0  0  0  0  0  0  0  0  0  0  0
  147.2948  161.1372  133.1130 H   0  0  0  0  0  0  0  0  0  0  0  0
  148.2650  156.8720  131.4450 H   0  0  0  0  0  0  0  0  0  0  0  0
  150.0030  157.2760  131.6320 H   0  0  0  0  0  0  0  0  0  0  0  0
  143.7341  157.0617  133.8801 H   0  0  0  0  0  0  0  0  0  0  0  0
  1  2  1  0
  2  3  2  0
  2  4  1  0
  4  5  1  0
  5  6  2  0
  6  7  1  0
  7  8  2  0
  8  9  1  0
  9 10  2  0
 10 11  1  0
 11 12  1  0
 11 13  2  0
 10 14  1  0
 14 15  1  0
 15 16  2  0
 15 17  1  0
 17 18  1  0
 17 19  1  0
 17 20  1  0
 14 21  1  0
 21 22  2  0
 22  5  1  0
 21  8  1  0
  1 23  1  0
  1 24  1  0
  1 25  1  0
  4 26  1  0
  4 27  1  0
  6 28  1  0
  7 29  1  0
  9 30  1  0
 12 31  1  0
 12 32  1  0
 22 33  1  0
M  END
>  <UniqueID>  (44) 
44

>  <SMILES>  (44) 
CC(=O)Cc1ccc2cc(C(N)=O)n(C(=O)C(F)(F)F)c2c1

>  <Energy>  (44) 
69.46222385794334

>  <Genealogy>  (44) 
CC(=O)Cc1ccc2cc(C(N)=O)n(C(=O)C(F)(F)F)c2c1 (3D coordinates assigned)
CC(=O)Cc1ccc2cc(C(N)=O)n(C(=O)C(F)(F)F)c2c1 (optimized conformer: 69.46222385794334 kcal/mol)

>  <smiles>  (44) 
CC(=O)Cc1ccc2cc(C(N)=O)n(C(=O)C(F)(F)F)c2c1

>  <score_type>  (44) 
oracle

>  <origin>  (44) 
adg

>  <m_score__min__energy>  (44) 
-6.2699999999999996

>  <m_primary>  (44) 
energy

$$$$
44:0
     RDKit          3D

 52 54  0  0  0  0  0  0  0  0999 V2000
  148.5170  159.3670  133.8900 C   0  0  0  0  0  0  0  0  0  0  0  0
  148.6590  158.1920  133.0230 N   0  0  0  0  0  0  0  0  0  0  0  0
  149.5830  158.2250  131.8830 C   0  0  0  0  0  0  0  0  0  0  0  0
  147.8970  156.9910  133.2760 C   0  0  0  0  0  0  0  0  0  0  0  0
  148.0400  155.9950  132.5140 O   0  0  0  0  0  0  0  0  0  0  0  0
  146.9320  156.9120  134.4350 C   0  0  0  0  0  0  0  0  0  0  0  0
  145.5680  157.4550  134.0910 C   0  0  0  0  0  0  0  0  0  0  0  0
  145.4280  158.7890  133.6330 C   0  0  0  0  0  0  0  0  0  0  0  0
  144.1680  159.2920  133.2650 C   0  0  0  0  0  0  0  0  0  0  0  0
  143.0730  158.4390  133.3630 C   0  0  0  0  0  0  0  0  0  0  0  0
  141.7510  158.6530  133.0420 C   0  0  0  0  0  0  0  0  0  0  0  0
  141.1060  157.4500  133.3220 C   0  0  0  0  0  0  0  0  0  0  0  0
  139.6510  157.2550  133.1870 C   0  0  0  0  0  0  0  0  0  0  0  0
  139.0450  155.9930  133.4680 N   0  0  0  0  0  0  0  0  0  0  0  0
  138.9210  158.2340  132.8760 O   0  0  0  0  0  0  0  0  0  0  0  0
  141.9950  156.5260  133.7820 N   0  0  0  0  0  0  0  0  0  0  0  0
  141.7680  155.1320  134.0440 C   0  0  0  0  0  0  0  0  0  0  0  0
  141.3280  154.7750  135.1700 O   0  0  0  0  0  0  0  0  0  0  0  0
  142.1590  154.0890  133.0340 C   0  0  0  0  0  0  0  0  0  0  0  0
  141.0440  153.1050  132.7890 C   0  0  0  0  0  0  0  0  0  0  0  0
  139.8520  153.5160  132.8180 O   0  0  0  0  0  0  0  0  0  0  0  0
  141.3020  151.7070  132.5540 N   0  0  0  0  0  0  0  0  0  0  0  0
  142.5930  151.0620  132.7240 C   0  0  0  0  0  0  0  0  0  0  0  0
  142.3320  149.5720  132.5560 C   0  0  0  0  0  0  0  0  0  0  0  0
  140.9720  149.4610  131.8760 C   0  0  0  0  0  0  0  0  0  0  0  0
  140.2610  150.7780  132.1550 C   0  0  0  0  0  0  0  0  0  0  0  0
  143.1920  157.1480  133.8070 C   0  0  0  0  0  0  0  0  0  0  0  0
  144.4340  156.6160  134.1660 C   0  0  0  0  0  0  0  0  0  0  0  0
  148.5550  159.0522  134.9433 H   0  0  0  0  0  0  0  0  0  0  0  0
  149.3364  160.0726  133.6884 H   0  0  0  0  0  0  0  0  0  0  0  0
  147.5531  159.8571  133.6884 H   0  0  0  0  0  0  0  0  0  0  0  0
  150.6188  158.2620  132.2515 H   0  0  0  0  0  0  0  0  0  0  0  0
  149.4434  157.3213  131.2716 H   0  0  0  0  0  0  0  0  0  0  0  0
  149.3793  159.1164  131.2716 H   0  0  0  0  0  0  0  0  0  0  0  0
  146.8268  155.8589  134.7348 H   0  0  0  0  0  0  0  0  0  0  0  0
  147.3397  157.5269  135.2509 H   0  0  0  0  0  0  0  0  0  0  0  0
  146.3141  159.4371  133.5648 H   0  0  0  0  0  0  0  0  0  0  0  0
  144.0514  160.3269  132.9109 H   0  0  0  0  0  0  0  0  0  0  0  0
  141.3005  159.5762  132.6487 H   0  0  0  0  0  0  0  0  0  0  0  0
  139.5970  155.2090  133.8790 H   0  0  0  0  0  0  0  0  0  0  0  0
  138.0180  155.8630  133.3280 H   0  0  0  0  0  0  0  0  0  0  0  0
  142.4096  154.5872  132.0858 H   0  0  0  0  0  0  0  0  0  0  0  0
  143.0238  153.5360  133.4292 H   0  0  0  0  0  0  0  0  0  0  0  0
  143.3023  151.4159  131.9613 H   0  0  0  0  0  0  0  0  0  0  0  0
  143.0353  151.2894  133.7051 H   0  0  0  0  0  0  0  0  0  0  0  0
  143.1119  149.1151  131.9291 H   0  0  0  0  0  0  0  0  0  0  0  0
  142.3444  149.0479  133.5230 H   0  0  0  0  0  0  0  0  0  0  0  0
  141.0960  149.3144  130.7929 H   0  0  0  0  0  0  0  0  0  0  0  0
  140.3982  148.6025  132.2552 H   0  0  0  0  0  0  0  0  0  0  0  0
  139.7513  151.1385  131.2493 H   0  0  0  0  0  0  0  0  0  0  0  0
  139.4928  150.6684  132.9346 H   0  0  0  0  0  0  0  0  0  0  0  0
  144.5258  155.5714  134.4982 H   0  0  0  0  0  0  0  0  0  0  0  0
  1  2  1  0
  2  3  1  0
  2  4  1  0
  4  5  2  0
  4  6  1  0
  6  7  1  0
  7  8  2  0
  8  9  1  0
  9 10  2  0
 10 11  1  0
 11 12  2  0
 12 13  1  0
 13 14  1  0
 13 15  2  0
 12 16  1  0
 16 17  1  0
 17 18  2  0
 17 19  1  0
 19 20  1  0
 20 21  2  0
 20 22  1  0
 22 23  1  0
 23 24  1  0
 24 25  1  0
 25 26  1  0
 16 27  1  0
 27 28  2  0
 28  7  1  0
 27 10  1  0
 26 22  1  0
  1 29  1  0
  1 30  1  0
  1 31  1  0
  3 32  1  0
  3 33  1  0
  3 34  1  0
  6 35  1  0
  6 36  1  0
  8 37  1  0
  9 38  1  0
 11 39  1  0
 14 40  1  0
 14 41  1  0
 19 42  1  0
 19 43  1  0
 23 44  1  0
 23 45  1  0
 24 46  1  0
 24 47  1  0
 25 48  1  0
 25 49  1  0
 26 50  1  0
 26 51  1  0
 28 52  1  0
M  END
>  <UniqueID>  (45) 
45

>  <SMILES>  (45) 
CN(C)C(=O)Cc1ccc2cc(C(N)=O)n(C(=O)CC(=O)N3CCCC3)c2c1

>  <Energy>  (45) 
88.04164286730963

>  <Genealogy>  (45) 
CN(C)C(=O)Cc1ccc2cc(C(N)=O)n(C(=O)CC(=O)N3CCCC3)c2c1 (3D coordinates assigned)
CN(C)C(=O)Cc1ccc2cc(C(N)=O)n(C(=O)CC(=O)N3CCCC3)c2c1 (nonaromatic ring conformer: 88.04164286730963 kcal/mol)

>  <smiles>  (45) 
CN(C)C(=O)Cc1ccc2cc(C(N)=O)n(C(=O)CC(=O)N3CCCC3)c2c1

>  <score_type>  (45) 
oracle

>  <origin>  (45) 
adg

>  <m_score__min__energy>  (45) 
-8.9700000000000006

>  <m_primary>  (45) 
energy

$$$$
45:0
     RDKit          3D

 56 57  0  0  0  0  0  0  0  0999 V2000
  139.6740  159.4740  131.8560 C   0  0  0  0  0  0  0  0  0  0  0  0
  140.4810  158.4860  132.4560 O   0  0  0  0  0  0  0  0  0  0  0  0
  140.2260  158.4530  133.8450 C   0  0  0  0  0  0  0  0  0  0  0  0
  140.8320  157.1850  134.4520 C   0  0  0  0  0  0  0  0  0  0  0  0
  142.1050  157.4710  135.2530 C   0  0  0  0  0  0  0  0  0  0  0  0
  143.2460  157.0220  134.5310 O   0  0  0  0  0  0  0  0  0  0  0  0
  143.6700  157.6130  133.3380 C   0  0  0  0  0  0  0  0  0  0  0  0
  142.9880  157.4800  132.2850 O   0  0  0  0  0  0  0  0  0  0  0  0
  144.8730  158.3990  133.3220 N   0  0  0  0  0  0  0  0  0  0  0  0
  145.0010  159.7450  133.5080 C   0  0  0  0  0  0  0  0  0  0  0  0
  143.8930  160.7140  133.6340 C   0  0  0  0  0  0  0  0  0  0  0  0
  142.5650  160.3200  133.2970 N   0  0  0  0  0  0  0  0  0  0  0  0
  144.0980  161.8750  134.0750 O   0  0  0  0  0  0  0  0  0  0  0  0
  146.3440  160.1160  133.4790 C   0  0  0  0  0  0  0  0  0  0  0  0
  147.0410  158.9520  133.2560 C   0  0  0  0  0  0  0  0  0  0  0  0
  148.4110  158.7360  133.1460 C   0  0  0  0  0  0  0  0  0  0  0  0
  148.8570  157.4200  132.9410 C   0  0  0  0  0  0  0  0  0  0  0  0
  147.9320  156.3510  132.8490 C   0  0  0  0  0  0  0  0  0  0  0  0
  148.4250  154.9390  132.6780 C   0  0  0  0  0  0  0  0  0  0  0  0
  147.5920  153.9740  133.5310 C   0  0  0  0  0  0  0  0  0  0  0  0
  146.2780  153.5630  132.8480 C   0  0  0  0  0  0  0  0  0  0  0  0
  145.0300  154.0030  133.6450 C   0  0  0  0  0  0  0  0  0  0  0  0
  143.9540  154.5240  132.7690 N   0  0  0  0  0  0  0  0  0  0  0  0
  142.7340  153.7170  132.9420 C   0  0  0  0  0  0  0  0  0  0  0  0
  144.3540  154.5140  131.3490 C   0  0  0  0  0  0  0  0  0  0  0  0
  146.5490  156.6050  132.9800 C   0  0  0  0  0  0  0  0  0  0  0  0
  146.1310  157.9300  133.1640 C   0  0  0  0  0  0  0  0  0  0  0  0
  139.1849  160.0728  132.6384 H   0  0  0  0  0  0  0  0  0  0  0  0
  140.2993  160.1282  131.2307 H   0  0  0  0  0  0  0  0  0  0  0  0
  138.9081  158.9919  131.2307 H   0  0  0  0  0  0  0  0  0  0  0  0
  140.6763  159.3369  134.3203 H   0  0  0  0  0  0  0  0  0  0  0  0
  139.1393  158.4545  134.0155 H   0  0  0  0  0  0  0  0  0  0  0  0
  140.0901  156.7243  135.1208 H   0  0  0  0  0  0  0  0  0  0  0  0
  141.1012  156.5129  133.6239 H   0  0  0  0  0  0  0  0  0  0  0  0
  142.1886  158.5535  135.4297 H   0  0  0  0  0  0  0  0  0  0  0  0
  142.0537  156.9387  136.2143 H   0  0  0  0  0  0  0  0  0  0  0  0
  142.3910  159.5550  132.6090 H   0  0  0  0  0  0  0  0  0  0  0  0
  146.7588  161.1267  133.6074 H   0  0  0  0  0  0  0  0  0  0  0  0
  149.1236  159.5709  133.2174 H   0  0  0  0  0  0  0  0  0  0  0  0
  149.9345  157.2176  132.8510 H   0  0  0  0  0  0  0  0  0  0  0  0
  148.3411  154.6516  131.6195 H   0  0  0  0  0  0  0  0  0  0  0  0
  149.4748  154.8862  133.0023 H   0  0  0  0  0  0  0  0  0  0  0  0
  148.1876  153.0691  133.7219 H   0  0  0  0  0  0  0  0  0  0  0  0
  147.3328  154.4945  134.4648 H   0  0  0  0  0  0  0  0  0  0  0  0
  146.2399  154.0255  131.8507 H   0  0  0  0  0  0  0  0  0  0  0  0
  146.2639  152.4648  132.7874 H   0  0  0  0  0  0  0  0  0  0  0  0
  144.6434  153.1369  134.2022 H   0  0  0  0  0  0  0  0  0  0  0  0
  145.3338  154.8152  134.3218 H   0  0  0  0  0  0  0  0  0  0  0  0
  143.7260  155.5080  133.0460 H   0  0  0  0  0  0  0  0  0  0  0  0
  142.5319  153.5833  134.0150 H   0  0  0  0  0  0  0  0  0  0  0  0
  141.8840  154.2316  132.4701 H   0  0  0  0  0  0  0  0  0  0  0  0
  142.8750  152.7334  132.4701 H   0  0  0  0  0  0  0  0  0  0  0  0
  145.4513  154.4866  131.2774 H   0  0  0  0  0  0  0  0  0  0  0  0
  143.9320  153.6261  130.8554 H   0  0  0  0  0  0  0  0  0  0  0  0
  143.9769  155.4219  130.8554 H   0  0  0  0  0  0  0  0  0  0  0  0
  145.8184  155.7837  132.9387 H   0  0  0  0  0  0  0  0  0  0  0  0
  1  2  1  0
  2  3  1  0
  3  4  1  0
  4  5  1  0
  5  6  1  0
  6  7  1  0
  7  8  2  0
  7  9  1  0
  9 10  1  0
 10 11  1  0
 11 12  1  0
 11 13  2  0
 10 14  2  0
 14 15  1  0
 15 16  2  0
 16 17  1  0
 17 18  2  0
 18 19  1  0
 19 20  1  0
 20 21  1  0
 21 22  1  0
 22 23  1  0
 23 24  1  0
 23 25  1  0
 18 26  1  0
 26 27  2  0
 27  9  1  0
 27 15  1  0
  1 28  1  0
  1 29  1  0
  1 30  1  0
  3 31  1  0
  3 32  1  0
  4 33  1  0
  4 34  1  0
  5 35  1  0
  5 36  1  0
 12 37  1  0
 14 38  1  0
 16 39  1  0
 17 40  1  0
 19 41  1  0
 19 42  1  0
 20 43  1  0
 20 44  1  0
 21 45  1  0
 21 46  1  0
 22 47  1  0
 22 48  1  0
 23 49  1  0
 24 50  1  0
 24 51  1  0
 24 52  1  0
 25 53  1  0
 25 54  1  0
 25 55  1  0
 26 56  1  0
M  CHG  2  12  -1  23   1
M  END
>  <UniqueID>  (46) 
46

>  <SMILES>  (46) 
COCCCOC(=O)n1c(C([NH-])=O)cc2ccc(CCCC[NH+](C)C)cc21

>  <Energy>  (46) 
83.4494723966121

>  <Genealogy>  (46) 
COCCCOC(=O)n1c(C([NH-])=O)cc2ccc(CCCC[NH+](C)C)cc21 (protonated)
COCCCOC(=O)n1c(C([NH-])=O)cc2ccc(CCCC[NH+](C)C)cc21 (3D coordinates assigned)
COCCCOC(=O)n1c(C([NH-])=O)cc2ccc(CCCC[NH+](C)C)cc21 (optimized conformer: 83.4494723966121 kcal/mol)

>  <smiles>  (46) 
COCCCOC(=O)n1c(C(N)=O)cc2ccc(CCCCN(C)C)cc21

>  <score_type>  (46) 
oracle

>  <origin>  (46) 
adg

>  <m_score__min__energy>  (46) 
-6.1799999999999997

>  <m_primary>  (46) 
energy

$$$$
46:0
     RDKit          3D

 41 42  0  0  0  0  0  0  0  0999 V2000
  144.0020  160.4900  134.0340 C   0  0  0  0  0  0  0  0  0  0  0  0
  143.8740  159.1990  133.7330 C   0  0  0  0  0  0  0  0  0  0  0  0
  142.5720  158.5080  133.7240 C   0  0  0  0  0  0  0  0  0  0  0  0
  141.6560  158.9400  132.9730 O   0  0  0  0  0  0  0  0  0  0  0  0
  142.3270  157.3520  134.5400 N   0  0  0  0  0  0  0  0  0  0  0  0
  141.5140  157.2580  135.6300 C   0  0  0  0  0  0  0  0  0  0  0  0
  140.8140  158.3840  136.2850 C   0  0  0  0  0  0  0  0  0  0  0  0
  139.4690  158.2490  136.7350 N   0  0  0  0  0  0  0  0  0  0  0  0
  141.4050  159.4880  136.4290 O   0  0  0  0  0  0  0  0  0  0  0  0
  141.4540  155.9400  136.0790 C   0  0  0  0  0  0  0  0  0  0  0  0
  142.2550  155.2230  135.2190 C   0  0  0  0  0  0  0  0  0  0  0  0
  142.5320  153.8600  135.1740 C   0  0  0  0  0  0  0  0  0  0  0  0
  143.3560  153.3890  134.1390 C   0  0  0  0  0  0  0  0  0  0  0  0
  143.8880  154.2820  133.1760 C   0  0  0  0  0  0  0  0  0  0  0  0
  144.7080  153.7560  132.0330 C   0  0  0  0  0  0  0  0  0  0  0  0
  145.5280  152.5750  132.4810 C   0  0  0  0  0  0  0  0  0  0  0  0
  145.1240  151.4460  132.2350 O   0  0  0  0  0  0  0  0  0  0  0  0
  146.7820  152.7680  133.1880 N   0  0  1  0  0  0  0  0  0  0  0  0
  147.8830  152.2190  132.3810 C   0  0  0  0  0  0  0  0  0  0  0  0
  147.0260  154.1970  133.4850 C   0  0  0  0  0  0  0  0  0  0  0  0
  146.8680  154.4970  134.9480 C   0  0  0  0  0  0  0  0  0  0  0  0
  146.7180  155.6840  135.3400 O   0  0  0  0  0  0  0  0  0  0  0  0
  146.8540  153.4600  135.8720 O   0  0  0  0  0  0  0  0  0  0  0  0
  143.5830  155.6600  133.2520 C   0  0  0  0  0  0  0  0  0  0  0  0
  142.7670  156.0990  134.2980 C   0  0  0  0  0  0  0  0  0  0  0  0
  144.9963  160.9605  134.0268 H   0  0  0  0  0  0  0  0  0  0  0  0
  143.1134  161.0859  134.2898 H   0  0  0  0  0  0  0  0  0  0  0  0
  144.7774  158.6245  133.4806 H   0  0  0  0  0  0  0  0  0  0  0  0
  138.7340  158.9330  136.4450 H   0  0  0  0  0  0  0  0  0  0  0  0
  140.8866  155.5542  136.9388 H   0  0  0  0  0  0  0  0  0  0  0  0
  142.1181  153.1724  135.9263 H   0  0  0  0  0  0  0  0  0  0  0  0
  143.5908  152.3163  134.0752 H   0  0  0  0  0  0  0  0  0  0  0  0
  144.0378  153.4448  131.2181 H   0  0  0  0  0  0  0  0  0  0  0  0
  145.3839  154.5494  131.6814 H   0  0  0  0  0  0  0  0  0  0  0  0
  146.7620  152.2380  134.0920 H   0  0  0  0  0  0  0  0  0  0  0  0
  148.6664  151.8283  133.0471 H   0  0  0  0  0  0  0  0  0  0  0  0
  147.5021  151.4053  131.7463 H   0  0  0  0  0  0  0  0  0  0  0  0
  148.3036  153.0129  131.7463 H   0  0  0  0  0  0  0  0  0  0  0  0
  148.0501  154.4549  133.1771 H   0  0  0  0  0  0  0  0  0  0  0  0
  146.2851  154.7928  132.9317 H   0  0  0  0  0  0  0  0  0  0  0  0
  143.9773  156.3677  132.5079 H   0  0  0  0  0  0  0  0  0  0  0  0
  1  2  2  0
  2  3  1  0
  3  4  2  0
  3  5  1  0
  5  6  1  0
  6  7  1  0
  7  8  1  0
  7  9  2  0
  6 10  2  0
 10 11  1  0
 11 12  2  0
 12 13  1  0
 13 14  2  0
 14 15  1  0
 15 16  1  0
 16 17  2  0
 16 18  1  0
 18 19  1  0
 18 20  1  0
 20 21  1  0
 21 22  2  0
 21 23  1  0
 14 24  1  0
 24 25  2  0
 25  5  1  0
 25 11  1  0
  1 26  1  0
  1 27  1  0
  2 28  1  0
  8 29  1  0
 10 30  1  0
 12 31  1  0
 13 32  1  0
 15 33  1  0
 15 34  1  0
 18 35  1  1
 19 36  1  0
 19 37  1  0
 19 38  1  0
 20 39  1  0
 20 40  1  0
 24 41  1  0
M  CHG  3   8  -1  18   1  23  -1
M  END
>  <UniqueID>  (47) 
47

>  <SMILES>  (47) 
C=CC(=O)n1c(C([NH-])=O)cc2ccc(CC(=O)[N@@H+](C)CC(=O)[O-])cc21

>  <Energy>  (47) 
76.05522814906914

>  <Genealogy>  (47) 
C=CC(=O)n1c(C([NH-])=O)cc2ccc(CC(=O)[NH+](C)CC(=O)[O-])cc21 (protonated)
C=CC(=O)n1c(C([NH-])=O)cc2ccc(CC(=O)[N@@H+](C)CC(=O)[O-])cc21 (chirality)
C=CC(=O)n1c(C([NH-])=O)cc2ccc(CC(=O)[N@@H+](C)CC(=O)[O-])cc21 (3D coordinates assigned)
C=CC(=O)n1c(C([NH-])=O)cc2ccc(CC(=O)[N@@H+](C)CC(=O)[O-])cc21 (optimized conformer: 76.05522814906914 kcal/mol)

>  <smiles>  (47) 
C=CC(=O)n1c(C(N)=O)cc2ccc(CC(=O)N(C)CC(=O)O)cc21

>  <score_type>  (47) 
oracle

>  <origin>  (47) 
adg

>  <m_score__min__energy>  (47) 
-6.4000000000000004

>  <m_primary>  (47) 
energy

$$$$
47:0
     RDKit          3D

 48 50  0  0  0  0  0  0  0  0999 V2000
  139.6030  156.3200  133.0560 C   0  0  0  0  0  0  0  0  0  0  0  0
  139.8180  157.7950  132.9880 C   0  0  0  0  0  0  0  0  0  0  0  0
  139.2200  158.5990  132.1400 O   0  0  0  0  0  0  0  0  0  0  0  0
  139.6830  159.8010  132.3950 C   0  0  0  0  0  0  0  0  0  0  0  0
  139.3310  160.8340  131.7690 O   0  0  0  0  0  0  0  0  0  0  0  0
  140.5580  159.8070  133.3760 O   0  0  0  0  0  0  0  0  0  0  0  0
  140.6690  158.5600  133.7680 C   0  0  0  0  0  0  0  0  0  0  0  0
  141.5740  158.0940  134.8700 C   0  0  0  0  0  0  0  0  0  0  0  0
  142.8660  158.6760  134.7160 O   0  0  0  0  0  0  0  0  0  0  0  0
  143.6730  158.4500  133.5940 C   0  0  0  0  0  0  0  0  0  0  0  0
  143.2260  157.8120  132.6020 O   0  0  0  0  0  0  0  0  0  0  0  0
  144.9960  159.0010  133.5480 N   0  0  0  0  0  0  0  0  0  0  0  0
  145.3580  160.3140  133.5660 C   0  0  0  0  0  0  0  0  0  0  0  0
  144.4540  161.4580  133.8130 C   0  0  0  0  0  0  0  0  0  0  0  0
  143.0410  161.3130  133.7080 N   0  0  0  0  0  0  0  0  0  0  0  0
  144.9350  162.5720  134.1530 O   0  0  0  0  0  0  0  0  0  0  0  0
  146.7310  160.4430  133.3630 C   0  0  0  0  0  0  0  0  0  0  0  0
  147.2010  159.1570  133.2160 C   0  0  0  0  0  0  0  0  0  0  0  0
  148.4860  158.6960  132.9420 C   0  0  0  0  0  0  0  0  0  0  0  0
  148.6670  157.3140  132.7700 C   0  0  0  0  0  0  0  0  0  0  0  0
  147.5690  156.4220  132.8730 C   0  0  0  0  0  0  0  0  0  0  0  0
  147.7540  154.9510  132.6180 C   0  0  0  0  0  0  0  0  0  0  0  0
  147.3730  154.1580  133.8410 C   0  0  0  0  0  0  0  0  0  0  0  0
  148.1110  154.1770  134.8160 O   0  0  0  0  0  0  0  0  0  0  0  0
  146.1390  153.3980  133.8710 N   0  0  0  0  0  0  0  0  0  0  0  0
  145.4580  153.4820  132.5690 C   0  0  0  0  0  0  0  0  0  0  0  0
  145.2650  153.8820  134.9510 C   0  0  0  0  0  0  0  0  0  0  0  0
  146.2810  156.9270  133.1560 C   0  0  0  0  0  0  0  0  0  0  0  0
  146.1330  158.3070  133.3330 C   0  0  0  0  0  0  0  0  0  0  0  0
  139.5570  156.0043  134.1087 H   0  0  0  0  0  0  0  0  0  0  0  0
  138.6580  156.0637  132.5547 H   0  0  0  0  0  0  0  0  0  0  0  0
  140.4355  155.8046  132.5547 H   0  0  0  0  0  0  0  0  0  0  0  0
  141.1519  158.3947  135.8402 H   0  0  0  0  0  0  0  0  0  0  0  0
  141.6630  156.9985  134.8264 H   0  0  0  0  0  0  0  0  0  0  0  0
  142.6150  160.4010  133.4320 H   0  0  0  0  0  0  0  0  0  0  0  0
  147.3151  161.3744  133.3277 H   0  0  0  0  0  0  0  0  0  0  0  0
  149.3334  159.3929  132.8627 H   0  0  0  0  0  0  0  0  0  0  0  0
  149.6706  156.9192  132.5532 H   0  0  0  0  0  0  0  0  0  0  0  0
  147.1174  154.6458  131.7744 H   0  0  0  0  0  0  0  0  0  0  0  0
  148.8107  154.7584  132.3807 H   0  0  0  0  0  0  0  0  0  0  0  0
  146.3530  152.3900  134.0590 H   0  0  0  0  0  0  0  0  0  0  0  0
  144.3778  153.6152  132.7282 H   0  0  0  0  0  0  0  0  0  0  0  0
  145.8536  154.3382  132.0029 H   0  0  0  0  0  0  0  0  0  0  0  0
  145.6337  152.5554  132.0029 H   0  0  0  0  0  0  0  0  0  0  0  0
  145.7132  153.6338  135.9244 H   0  0  0  0  0  0  0  0  0  0  0  0
  145.1493  154.9728  134.8680 H   0  0  0  0  0  0  0  0  0  0  0  0
  144.2791  153.4013  134.8680 H   0  0  0  0  0  0  0  0  0  0  0  0
  145.4158  156.2524  133.2353 H   0  0  0  0  0  0  0  0  0  0  0  0
  1  2  1  0
  2  3  1  0
  3  4  1  0
  4  5  2  0
  4  6  1  0
  6  7  1  0
  7  8  1  0
  8  9  1  0
  9 10  1  0
 10 11  2  0
 10 12  1  0
 12 13  1  0
 13 14  1  0
 14 15  1  0
 14 16  2  0
 13 17  2  0
 17 18  1  0
 18 19  2  0
 19 20  1  0
 20 21  2  0
 21 22  1  0
 22 23  1  0
 23 24  2  0
 23 25  1  0
 25 26  1  0
 25 27  1  0
 21 28  1  0
 28 29  2  0
  7  2  2  0
 29 12  1  0
 29 18  1  0
  1 30  1  0
  1 31  1  0
  1 32  1  0
  8 33  1  0
  8 34  1  0
 15 35  1  0
 17 36  1  0
 19 37  1  0
 20 38  1  0
 22 39  1  0
 22 40  1  0
 25 41  1  0
 26 42  1  0
 26 43  1  0
 26 44  1  0
 27 45  1  0
 27 46  1  0
 27 47  1  0
 28 48  1  0
M  CHG  2  15  -1  25   1
M  END
>  <UniqueID>  (48) 
48

>  <SMILES>  (48) 
Cc1oc(=O)oc1COC(=O)n1c(C([NH-])=O)cc2ccc(CC(=O)[NH+](C)C)cc21

>  <Energy>  (48) 
115.26502518624258

>  <Genealogy>  (48) 
Cc1oc(=O)oc1COC(=O)n1c(C([NH-])=O)cc2ccc(CC(=O)[NH+](C)C)cc21 (protonated)
Cc1oc(=O)oc1COC(=O)n1c(C([NH-])=O)cc2ccc(CC(=O)[NH+](C)C)cc21 (3D coordinates assigned)
Cc1oc(=O)oc1COC(=O)n1c(C([NH-])=O)cc2ccc(CC(=O)[NH+](C)C)cc21 (optimized conformer: 115.26502518624258 kcal/mol)

>  <smiles>  (48) 
Cc1oc(=O)oc1COC(=O)n1c(C(N)=O)cc2ccc(CC(=O)N(C)C)cc21

>  <score_type>  (48) 
oracle

>  <origin>  (48) 
adg

>  <m_score__min__energy>  (48) 
-7.3700000000000001

>  <m_primary>  (48) 
energy

$$$$
48:0
     RDKit          3D

 37 38  0  0  0  0  0  0  0  0999 V2000
  142.2950  159.4750  132.6010 H   0  0  0  0  0  0  0  0  0  0  0  0
  141.3410  159.7470  132.6060 O   0  0  0  0  0  0  0  0  0  0  0  0
  140.5880  158.5790  132.4180 C   0  0  0  0  0  0  0  0  0  0  0  0
  140.9871  158.0274  131.5540 H   0  0  0  0  0  0  0  0  0  0  0  0
  139.5392  158.8595  132.2409 H   0  0  0  0  0  0  0  0  0  0  0  0
  140.6540  157.6990  133.6400 C   0  0  0  0  0  0  0  0  0  0  0  0
  139.8408  157.7775  134.3765 H   0  0  0  0  0  0  0  0  0  0  0  0
  141.6450  156.8240  133.8860 C   0  0  0  0  0  0  0  0  0  0  0  0
  141.5912  156.2302  134.8104 H   0  0  0  0  0  0  0  0  0  0  0  0
  142.8220  156.6070  132.9760 C   0  0  0  0  0  0  0  0  0  0  0  0
  142.4819  156.1287  132.0456 H   0  0  0  0  0  0  0  0  0  0  0  0
  143.5559  155.9586  133.4770 H   0  0  0  0  0  0  0  0  0  0  0  0
  143.4280  157.8580  132.6710 O   0  0  0  0  0  0  0  0  0  0  0  0
  143.9360  158.7150  133.6500 C   0  0  0  0  0  0  0  0  0  0  0  0
  143.2040  159.0870  134.6070 O   0  0  0  0  0  0  0  0  0  0  0  0
  145.3000  159.1580  133.5720 N   0  0  0  0  0  0  0  0  0  0  0  0
  145.7590  160.4390  133.6530 C   0  0  0  0  0  0  0  0  0  0  0  0
  144.9460  161.6220  134.0140 C   0  0  0  0  0  0  0  0  0  0  0  0
  145.4890  162.6230  134.5520 O   0  0  0  0  0  0  0  0  0  0  0  0
  143.5470  161.6600  133.7250 N   0  0  0  0  0  0  0  0  0  0  0  0
  142.9890  162.5130  133.9500 H   0  0  0  0  0  0  0  0  0  0  0  0
  143.0540  160.8310  133.3270 H   0  0  0  0  0  0  0  0  0  0  0  0
  147.1350  160.4820  133.4360 C   0  0  0  0  0  0  0  0  0  0  0  0
  147.7832  161.3707  133.4386 H   0  0  0  0  0  0  0  0  0  0  0  0
  147.5100  159.1770  133.2180 C   0  0  0  0  0  0  0  0  0  0  0  0
  148.7640  158.6440  132.9360 C   0  0  0  0  0  0  0  0  0  0  0  0
  149.6544  159.2876  132.8815 H   0  0  0  0  0  0  0  0  0  0  0  0
  148.8580  157.2580  132.7230 C   0  0  0  0  0  0  0  0  0  0  0  0
  149.8364  156.8057  132.5037 H   0  0  0  0  0  0  0  0  0  0  0  0
  147.7050  156.4380  132.7880 C   0  0  0  0  0  0  0  0  0  0  0  0
  147.8250  154.9620  132.5370 C   0  0  0  0  0  0  0  0  0  0  0  0
  147.3023  154.7110  131.6023 H   0  0  0  0  0  0  0  0  0  0  0  0
  147.2550  154.2630  133.5860 F   0  0  0  0  0  0  0  0  0  0  0  0
  149.1590  154.6160  132.4270 F   0  0  0  0  0  0  0  0  0  0  0  0
  146.4460  157.0160  133.0740 C   0  0  0  0  0  0  0  0  0  0  0  0
  145.5377  156.3969  133.1155 H   0  0  0  0  0  0  0  0  0  0  0  0
  146.3850  158.3960  133.3030 C   0  0  0  0  0  0  0  0  0  0  0  0
  1  2  1  0
  2  3  1  0
  3  4  1  0
  3  5  1  0
  3  6  1  0
  6  7  1  0
  6  8  2  0
  8  9  1  0
  8 10  1  0
 10 11  1  0
 10 12  1  0
 10 13  1  0
 13 14  1  0
 14 15  2  0
 14 16  1  0
 16 17  1  0
 17 18  1  0
 18 19  2  0
 18 20  1  0
 20 21  1  0
 20 22  1  0
 17 23  2  0
 23 24  1  0
 23 25  1  0
 25 26  2  0
 26 27  1  0
 26 28  1  0
 28 29  1  0
 28 30  2  0
 30 31  1  0
 31 32  1  0
 31 33  1  0
 31 34  1  0
 30 35  1  0
 35 36  1  0
 35 37  2  0
 37 16  1  0
 37 25  1  0
M  END
>  <UniqueID>  (49) 
49

>  <SMILES>  (49) 
NC(=O)c1cc2ccc(C(F)F)cc2n1C(=O)OC/C=C\CO

>  <Energy>  (49) 
69.59712016390597

>  <Genealogy>  (49) 
NC(=O)c1cc2ccc(C(F)F)cc2n1C(=O)OC/C=C\CO (cis-trans isomerization)
NC(=O)c1cc2ccc(C(F)F)cc2n1C(=O)OC/C=C\CO (3D coordinates assigned)
NC(=O)c1cc2ccc(C(F)F)cc2n1C(=O)OC/C=C\CO (optimized conformer: 69.59712016390597 kcal/mol)

>  <smiles>  (49) 
NC(=O)c1cc2ccc(C(F)F)cc2n1C(=O)OC/C=C\CO

>  <score_type>  (49) 
oracle

>  <origin>  (49) 
adg

>  <m_score__min__energy>  (49) 
-6.3600000000000003

>  <m_primary>  (49) 
energy

$$$$
49:0
     RDKit          3D

 42 43  0  0  0  0  0  0  0  0999 V2000
  138.2830  160.1500  130.3510 C   0  0  0  0  0  0  0  0  0  0  0  0
  139.2570  160.0600  131.8880 S   0  0  0  0  0  0  0  0  0  0  0  0
  138.5560  158.4690  132.4740 C   0  0  0  0  0  0  0  0  0  0  0  0
  139.6150  157.5880  133.1530 C   0  0  2  0  0  0  0  0  0  0  0  0
  139.2410  156.1030  133.0890 C   0  0  0  0  0  0  0  0  0  0  0  0
  139.7790  158.0060  134.5090 O   0  0  0  0  0  0  0  0  0  0  0  0
  140.9180  158.6630  134.9900 C   0  0  0  0  0  0  0  0  0  0  0  0
  140.8160  159.5310  135.8990 O   0  0  0  0  0  0  0  0  0  0  0  0
  142.2110  158.3220  134.4650 N   0  0  0  0  0  0  0  0  0  0  0  0
  143.1100  159.1530  133.8640 C   0  0  0  0  0  0  0  0  0  0  0  0
  143.0030  160.6240  133.7740 C   0  0  0  0  0  0  0  0  0  0  0  0
  141.7170  161.2380  133.7020 N   0  0  0  0  0  0  0  0  0  0  0  0
  144.0340  161.3430  133.7180 O   0  0  0  0  0  0  0  0  0  0  0  0
  144.2100  158.4340  133.4050 C   0  0  0  0  0  0  0  0  0  0  0  0
  143.9610  157.1250  133.7510 C   0  0  0  0  0  0  0  0  0  0  0  0
  144.7240  155.9820  133.5320 C   0  0  0  0  0  0  0  0  0  0  0  0
  144.2100  154.7530  133.9780 C   0  0  0  0  0  0  0  0  0  0  0  0
  142.9450  154.6870  134.6120 C   0  0  0  0  0  0  0  0  0  0  0  0
  142.4170  153.3690  135.1040 C   0  0  0  0  0  0  0  0  0  0  0  0
  141.7140  152.4190  133.7210 P   0  0  1  0  0  0  0  0  0  0  0  0
  141.0990  151.1400  134.2430 O   0  0  0  0  0  0  0  0  0  0  0  0
  140.5190  153.3420  132.9590 O   0  0  0  0  0  0  0  0  0  0  0  0
  142.9290  152.0420  132.6070 O   0  0  0  0  0  0  0  0  0  0  0  0
  142.2030  155.8700  134.8230 C   0  0  0  0  0  0  0  0  0  0  0  0
  142.7480  157.0830  134.3880 C   0  0  0  0  0  0  0  0  0  0  0  0
  137.2158  160.2486  130.5985 H   0  0  0  0  0  0  0  0  0  0  0  0
  138.6052  161.0222  129.7633 H   0  0  0  0  0  0  0  0  0  0  0  0
  138.4400  159.2335  129.7633 H   0  0  0  0  0  0  0  0  0  0  0  0
  137.7532  158.6793  133.1960 H   0  0  0  0  0  0  0  0  0  0  0  0
  138.1720  157.9245  131.5988 H   0  0  0  0  0  0  0  0  0  0  0  0
  140.5657  157.7071  132.6126 H   0  0  0  0  0  0  0  0  0  0  0  0
  139.1409  155.7058  134.1099 H   0  0  0  0  0  0  0  0  0  0  0  0
  138.2859  155.9881  132.5556 H   0  0  0  0  0  0  0  0  0  0  0  0
  140.0278  155.5494  132.5556 H   0  0  0  0  0  0  0  0  0  0  0  0
  140.8820  160.7860  134.1370 H   0  0  0  0  0  0  0  0  0  0  0  0
  145.0913  158.8281  132.8777 H   0  0  0  0  0  0  0  0  0  0  0  0
  145.6988  156.0390  133.0256 H   0  0  0  0  0  0  0  0  0  0  0  0
  144.7955  153.8331  133.8335 H   0  0  0  0  0  0  0  0  0  0  0  0
  143.2381  152.7954  135.5587 H   0  0  0  0  0  0  0  0  0  0  0  0
  141.6299  153.5533  135.8500 H   0  0  0  0  0  0  0  0  0  0  0  0
  142.5400  152.2660  131.7240 H   0  0  0  0  0  0  0  0  0  0  0  0
  141.2208  155.8385  135.3172 H   0  0  0  0  0  0  0  0  0  0  0  0
  1  2  1  0
  2  3  1  0
  3  4  1  0
  4  5  1  0
  4  6  1  0
  6  7  1  0
  7  8  2  0
  7  9  1  0
  9 10  1  0
 10 11  1  0
 11 12  1  0
 11 13  2  0
 10 14  2  0
 14 15  1  0
 15 16  2  0
 16 17  1  0
 17 18  2  0
 18 19  1  0
 19 20  1  0
 20 21  2  0
 20 22  1  6
 20 23  1  0
 18 24  1  0
 24 25  2  0
 25  9  1  0
 25 15  1  0
  1 26  1  0
  1 27  1  0
  1 28  1  0
  3 29  1  0
  3 30  1  0
  4 31  1  6
  5 32  1  0
  5 33  1  0
  5 34  1  0
 12 35  1  0
 14 36  1  0
 16 37  1  0
 17 38  1  0
 19 39  1  0
 19 40  1  0
 23 41  1  0
 24 42  1  0
M  CHG  2  12  -1  22  -1
M  END
>  <UniqueID>  (50) 
50

>  <SMILES>  (50) 
CSC[C@H](C)OC(=O)n1c(C([NH-])=O)cc2ccc(C[P@@](=O)([O-])O)cc21

>  <Energy>  (50) 
66.99049519467492

>  <Genealogy>  (50) 
CSCC(C)OC(=O)n1c(C([NH-])=O)cc2ccc(CP(=O)([O-])O)cc21 (protonated)
CSC[C@H](C)OC(=O)n1c(C([NH-])=O)cc2ccc(C[P@@](=O)([O-])O)cc21 (chirality)
CSC[C@H](C)OC(=O)n1c(C([NH-])=O)cc2ccc(C[P@@](=O)([O-])O)cc21 (3D coordinates assigned)
CSC[C@H](C)OC(=O)n1c(C([NH-])=O)cc2ccc(C[P@@](=O)([O-])O)cc21 (optimized conformer: 66.99049519467492 kcal/mol)

>  <smiles>  (50) 
CSCC(C)OC(=O)n1c(C(N)=O)cc2ccc(CP(=O)(O)O)cc21

>  <score_type>  (50) 
oracle

>  <origin>  (50) 
adg

>  <m_score__min__energy>  (50) 
-6.8799999999999999

>  <m_primary>  (50) 
energy

$$$$
50:0
     RDKit          3D

 36 37  0  0  0  0  0  0  0  0999 V2000
  149.6680  151.0540  134.2280 C   0  0  0  0  0  0  0  0  0  0  0  0
  149.9750  151.5040  133.0100 C   0  0  0  0  0  0  0  0  0  0  0  0
  148.9280  152.0740  132.1020 C   0  0  0  0  0  0  0  0  0  0  0  0
  148.2970  153.1810  132.7370 O   0  0  0  0  0  0  0  0  0  0  0  0
  148.8690  154.4560  132.7770 C   0  0  0  0  0  0  0  0  0  0  0  0
  150.0130  154.6560  132.2860 O   0  0  0  0  0  0  0  0  0  0  0  0
  148.1560  155.5360  133.4000 N   0  0  0  0  0  0  0  0  0  0  0  0
  147.2900  155.4650  134.4500 C   0  0  0  0  0  0  0  0  0  0  0  0
  146.7620  154.2260  135.0580 C   0  0  0  0  0  0  0  0  0  0  0  0
  145.9630  153.3210  134.3010 N   0  0  0  0  0  0  0  0  0  0  0  0
  146.9770  153.9880  136.2770 O   0  0  0  0  0  0  0  0  0  0  0  0
  146.8890  156.7400  134.8420 C   0  0  0  0  0  0  0  0  0  0  0  0
  147.5360  157.6040  133.9870 C   0  0  0  0  0  0  0  0  0  0  0  0
  147.5150  158.9950  133.9380 C   0  0  0  0  0  0  0  0  0  0  0  0
  148.3120  159.6310  132.9710 C   0  0  0  0  0  0  0  0  0  0  0  0
  149.1070  158.8700  132.0770 C   0  0  0  0  0  0  0  0  0  0  0  0
  149.9940  159.5640  131.0780 C   0  0  0  0  0  0  0  0  0  0  0  0
  149.1570  160.3390  130.0590 C   0  0  0  0  0  0  0  0  0  0  0  0
  149.1790  161.7090  130.3540 O   0  0  0  0  0  0  0  0  0  0  0  0
  149.1120  157.4600  132.1660 C   0  0  0  0  0  0  0  0  0  0  0  0
  148.2940  156.8530  133.1270 C   0  0  0  0  0  0  0  0  0  0  0  0
  150.4547  150.6400  134.8758 H   0  0  0  0  0  0  0  0  0  0  0  0
  148.6282  151.0970  134.5843 H   0  0  0  0  0  0  0  0  0  0  0  0
  151.0184  151.4556  132.6652 H   0  0  0  0  0  0  0  0  0  0  0  0
  149.3982  152.4083  131.1654 H   0  0  0  0  0  0  0  0  0  0  0  0
  148.1761  151.3020  131.8812 H   0  0  0  0  0  0  0  0  0  0  0  0
  146.4020  152.5820  133.7080 H   0  0  0  0  0  0  0  0  0  0  0  0
  146.2018  157.0011  135.6603 H   0  0  0  0  0  0  0  0  0  0  0  0
  146.8942  159.5779  134.6342 H   0  0  0  0  0  0  0  0  0  0  0  0
  148.3192  160.7291  132.9070 H   0  0  0  0  0  0  0  0  0  0  0  0
  150.6565  160.2639  131.6083 H   0  0  0  0  0  0  0  0  0  0  0  0
  150.5874  158.8063  130.5453 H   0  0  0  0  0  0  0  0  0  0  0  0
  149.5699  160.1777  129.0523 H   0  0  0  0  0  0  0  0  0  0  0  0
  148.1181  159.9800  130.1017 H   0  0  0  0  0  0  0  0  0  0  0  0
  148.3860  162.1080  129.9110 H   0  0  0  0  0  0  0  0  0  0  0  0
  149.7421  156.8547  131.4978 H   0  0  0  0  0  0  0  0  0  0  0  0
  1  2  2  0
  2  3  1  0
  3  4  1  0
  4  5  1  0
  5  6  2  0
  5  7  1  0
  7  8  1  0
  8  9  1  0
  9 10  1  0
  9 11  2  0
  8 12  2  0
 12 13  1  0
 13 14  2  0
 14 15  1  0
 15 16  2  0
 16 17  1  0
 17 18  1  0
 18 19  1  0
 16 20  1  0
 20 21  2  0
 21  7  1  0
 21 13  1  0
  1 22  1  0
  1 23  1  0
  2 24  1  0
  3 25  1  0
  3 26  1  0
 10 27  1  0
 12 28  1  0
 14 29  1  0
 15 30  1  0
 17 31  1  0
 17 32  1  0
 18 33  1  0
 18 34  1  0
 19 35  1  0
 20 36  1  0
M  CHG  1  10  -1
M  END
>  <UniqueID>  (51) 
51

>  <SMILES>  (51) 
C=CCOC(=O)n1c(C([NH-])=O)cc2ccc(CCO)cc21

>  <Energy>  (51) 
67.04838536151483

>  <Genealogy>  (51) 
C=CCOC(=O)n1c(C([NH-])=O)cc2ccc(CCO)cc21 (protonated)
C=CCOC(=O)n1c(C([NH-])=O)cc2ccc(CCO)cc21 (3D coordinates assigned)
C=CCOC(=O)n1c(C([NH-])=O)cc2ccc(CCO)cc21 (optimized conformer: 67.04838536151483 kcal/mol)

>  <smiles>  (51) 
C=CCOC(=O)n1c(C(N)=O)cc2ccc(CCO)cc21

>  <score_type>  (51) 
oracle

>  <origin>  (51) 
adg

>  <m_score__min__energy>  (51) 
-6.5499999999999998

>  <m_primary>  (51) 
energy

$$$$
51:0
     RDKit          3D

 54 56  0  0  0  0  0  0  0  0999 V2000
  139.2210  146.9030  129.8560 C   0  0  0  0  0  0  0  0  0  0  0  0
  139.1980  148.6590  130.1620 S   0  0  0  0  0  0  0  0  0  0  0  0
  140.1620  149.3260  129.2230 O   0  0  0  0  0  0  0  0  0  0  0  0
  137.8150  149.1810  129.8840 O   0  0  0  0  0  0  0  0  0  0  0  0
  139.6440  149.0370  131.8080 N   0  0  0  0  0  0  0  0  0  0  0  0
  141.1010  148.8800  132.0150 C   0  0  0  0  0  0  0  0  0  0  0  0
  141.6160  149.7670  133.1460 C   0  0  0  0  0  0  0  0  0  0  0  0
  141.3430  151.1630  132.7980 N   0  0  0  0  0  0  0  0  0  0  0  0
  142.3710  152.1660  132.9000 C   0  0  0  0  0  0  0  0  0  0  0  0
  143.7360  151.8070  132.7660 C   0  0  0  0  0  0  0  0  0  0  0  0
  144.7460  152.7810  132.8350 C   0  0  0  0  0  0  0  0  0  0  0  0
  144.3630  154.1020  133.0380 C   0  0  0  0  0  0  0  0  0  0  0  0
  145.1280  155.2450  133.0950 C   0  0  0  0  0  0  0  0  0  0  0  0
  144.2210  156.2850  133.2790 C   0  0  0  0  0  0  0  0  0  0  0  0
  144.6240  157.6960  133.4480 C   0  0  0  0  0  0  0  0  0  0  0  0
  143.7980  158.7650  132.9820 N   0  0  0  0  0  0  0  0  0  0  0  0
  145.6890  157.9650  134.0650 O   0  0  0  0  0  0  0  0  0  0  0  0
  142.9450  155.8090  133.3230 N   0  0  0  0  0  0  0  0  0  0  0  0
  141.7280  156.5710  133.3540 C   0  0  0  0  0  0  0  0  0  0  0  0
  141.2650  157.0570  132.2870 O   0  0  0  0  0  0  0  0  0  0  0  0
  141.0600  156.7710  134.5670 O   0  0  0  0  0  0  0  0  0  0  0  0
  141.6210  157.5180  135.6410 C   0  0  0  0  0  0  0  0  0  0  0  0
  141.2660  158.8930  135.5170 O   0  0  0  0  0  0  0  0  0  0  0  0
  142.0150  159.8040  134.7670 C   0  0  0  0  0  0  0  0  0  0  0  0
  143.1850  160.1190  135.1180 O   0  0  0  0  0  0  0  0  0  0  0  0
  141.4120  160.4260  133.5460 C   0  0  0  0  0  0  0  0  0  0  0  0
  140.7630  159.4200  132.7080 N   0  0  0  0  0  0  0  0  0  0  0  0
  143.0490  154.4700  133.1780 C   0  0  0  0  0  0  0  0  0  0  0  0
  142.0230  153.5210  133.1000 C   0  0  0  0  0  0  0  0  0  0  0  0
  140.0460  151.5090  132.2040 C   0  0  0  0  0  0  0  0  0  0  0  0
  139.0620  150.3260  132.2590 C   0  0  0  0  0  0  0  0  0  0  0  0
  139.2281  146.3638  130.8148 H   0  0  0  0  0  0  0  0  0  0  0  0
  138.3265  146.6190  129.2822 H   0  0  0  0  0  0  0  0  0  0  0  0
  140.1226  146.6426  129.2822 H   0  0  0  0  0  0  0  0  0  0  0  0
  141.3135  147.8295  132.2625 H   0  0  0  0  0  0  0  0  0  0  0  0
  141.6107  149.1809  131.0878 H   0  0  0  0  0  0  0  0  0  0  0  0
  141.1013  149.5102  134.0836 H   0  0  0  0  0  0  0  0  0  0  0  0
  142.6968  149.6157  133.2834 H   0  0  0  0  0  0  0  0  0  0  0  0
  144.0075  150.7531  132.6061 H   0  0  0  0  0  0  0  0  0  0  0  0
  145.8063  152.5071  132.7317 H   0  0  0  0  0  0  0  0  0  0  0  0
  146.2223  155.3205  133.0127 H   0  0  0  0  0  0  0  0  0  0  0  0
  142.8370  158.5840  132.6190 H   0  0  0  0  0  0  0  0  0  0  0  0
  144.1090  159.7540  133.0960 H   0  0  0  0  0  0  0  0  0  0  0  0
  141.2378  157.1276  136.5953 H   0  0  0  0  0  0  0  0  0  0  0  0
  142.7166  157.4242  135.6122 H   0  0  0  0  0  0  0  0  0  0  0  0
  140.6652  161.1723  133.8547 H   0  0  0  0  0  0  0  0  0  0  0  0
  142.2152  160.9004  132.9631 H   0  0  0  0  0  0  0  0  0  0  0  0
  140.6240  158.5510  133.2720 H   0  0  0  0  0  0  0  0  0  0  0  0
  141.3950  159.1860  131.9080 H   0  0  0  0  0  0  0  0  0  0  0  0
  140.9694  153.8232  133.1923 H   0  0  0  0  0  0  0  0  0  0  0  0
  139.6155  152.3571  132.7566 H   0  0  0  0  0  0  0  0  0  0  0  0
  140.2105  151.7700  131.1482 H   0  0  0  0  0  0  0  0  0  0  0  0
  138.7212  150.2072  133.2981 H   0  0  0  0  0  0  0  0  0  0  0  0
  138.2391  150.5633  131.5687 H   0  0  0  0  0  0  0  0  0  0  0  0
  1  2  1  0
  2  3  2  0
  2  4  2  0
  2  5  1  0
  5  6  1  0
  6  7  1  0
  7  8  1  0
  8  9  1  0
  9 10  2  0
 10 11  1  0
 11 12  2  0
 12 13  1  0
 13 14  2  0
 14 15  1  0
 15 16  1  0
 15 17  2  0
 14 18  1  0
 18 19  1  0
 19 20  2  0
 19 21  1  0
 21 22  1  0
 22 23  1  0
 23 24  1  0
 24 25  2  0
 24 26  1  0
 26 27  1  0
 18 28  1  0
 28 29  2  0
  8 30  1  0
 30 31  1  0
 31  5  1  0
 29  9  1  0
 28 12  1  0
  1 32  1  0
  1 33  1  0
  1 34  1  0
  6 35  1  0
  6 36  1  0
  7 37  1  0
  7 38  1  0
 10 39  1  0
 11 40  1  0
 13 41  1  0
 16 42  1  0
 16 43  1  0
 22 44  1  0
 22 45  1  0
 26 46  1  0
 26 47  1  0
 27 48  1  0
 27 49  1  0
 29 50  1  0
 30 51  1  0
 30 52  1  0
 31 53  1  0
 31 54  1  0
M  END
>  <UniqueID>  (52) 
52

>  <SMILES>  (52) 
CS(=O)(=O)N1CCN(c2ccc3cc(C(N)=O)n(C(=O)OCOC(=O)CN)c3c2)CC1

>  <Energy>  (52) 
93.73748328547549

>  <Genealogy>  (52) 
CS(=O)(=O)N1CCN(c2ccc3cc(C(N)=O)n(C(=O)OCOC(=O)CN)c3c2)CC1 (3D coordinates assigned)
CS(=O)(=O)N1CCN(c2ccc3cc(C(N)=O)n(C(=O)OCOC(=O)CN)c3c2)CC1 (nonaromatic ring conformer: 93.73748328547549 kcal/mol)

>  <smiles>  (52) 
CS(=O)(=O)N1CCN(c2ccc3cc(C(N)=O)n(C(=O)OCOC(=O)CN)c3c2)CC1

>  <score_type>  (52) 
oracle

>  <origin>  (52) 
adg

>  <m_score__min__energy>  (52) 
-8.2899999999999991

>  <m_primary>  (52) 
energy

$$$$
52:0
     RDKit          3D

 41 42  0  0  0  0  0  0  0  0999 V2000
  148.8160  160.3700  130.3890 C   0  0  0  0  0  0  0  0  0  0  0  0
  149.9690  159.7030  131.1310 C   0  0  0  0  0  0  0  0  0  0  0  0
  149.5280  158.5140  131.7820 O   0  0  0  0  0  0  0  0  0  0  0  0
  148.7970  158.5120  132.9760 C   0  0  0  0  0  0  0  0  0  0  0  0
  149.2350  159.1180  133.9900 O   0  0  0  0  0  0  0  0  0  0  0  0
  147.5440  157.8120  133.0410 N   0  0  0  0  0  0  0  0  0  0  0  0
  146.3150  158.3410  133.2990 C   0  0  0  0  0  0  0  0  0  0  0  0
  145.9960  159.7800  133.3960 C   0  0  0  0  0  0  0  0  0  0  0  0
  147.0100  160.7740  133.2410 N   0  0  0  0  0  0  0  0  0  0  0  0
  144.8000  160.1380  133.5630 O   0  0  0  0  0  0  0  0  0  0  0  0
  145.3590  157.3360  133.4180 C   0  0  0  0  0  0  0  0  0  0  0  0
  146.0420  156.1600  133.2080 C   0  0  0  0  0  0  0  0  0  0  0  0
  145.5840  154.8450  133.2280 C   0  0  0  0  0  0  0  0  0  0  0  0
  146.5200  153.8190  133.0190 C   0  0  0  0  0  0  0  0  0  0  0  0
  147.8840  154.1260  132.8080 C   0  0  0  0  0  0  0  0  0  0  0  0
  148.8370  153.0660  132.6130 C   0  0  0  0  0  0  0  0  0  0  0  0
  149.6410  152.1840  132.4480 C   0  0  0  0  0  0  0  0  0  0  0  0
  150.6190  151.1090  132.2380 C   0  0  0  0  0  0  0  0  0  0  0  0
  150.1540  150.1360  131.1480 C   0  0  0  0  0  0  0  0  0  0  0  0
  151.1650  150.0170  130.0050 C   0  0  0  0  0  0  0  0  0  0  0  0
  150.9850  148.7910  129.3500 O   0  0  0  0  0  0  0  0  0  0  0  0
  148.3170  155.4680  132.7970 C   0  0  0  0  0  0  0  0  0  0  0  0
  147.3600  156.4720  132.9860 C   0  0  0  0  0  0  0  0  0  0  0  0
  148.1019  160.7831  131.1166 H   0  0  0  0  0  0  0  0  0  0  0  0
  149.2069  161.1815  129.7576 H   0  0  0  0  0  0  0  0  0  0  0  0
  148.3074  159.6266  129.7576 H   0  0  0  0  0  0  0  0  0  0  0  0
  150.7619  159.4484  130.4123 H   0  0  0  0  0  0  0  0  0  0  0  0
  150.3520  160.4008  131.8902 H   0  0  0  0  0  0  0  0  0  0  0  0
  146.7740  161.7850  133.3520 H   0  0  0  0  0  0  0  0  0  0  0  0
  147.9760  160.5180  132.9380 H   0  0  0  0  0  0  0  0  0  0  0  0
  144.2871  157.4562  133.6337 H   0  0  0  0  0  0  0  0  0  0  0  0
  144.5221  154.6170  133.4021 H   0  0  0  0  0  0  0  0  0  0  0  0
  146.1898  152.7697  133.0195 H   0  0  0  0  0  0  0  0  0  0  0  0
  151.5793  151.5525  131.9361 H   0  0  0  0  0  0  0  0  0  0  0  0
  150.7266  150.5496  133.1790 H   0  0  0  0  0  0  0  0  0  0  0  0
  150.0108  149.1427  131.5983 H   0  0  0  0  0  0  0  0  0  0  0  0
  149.2153  150.5259  130.7274 H   0  0  0  0  0  0  0  0  0  0  0  0
  151.0111  150.8402  129.2918 H   0  0  0  0  0  0  0  0  0  0  0  0
  152.1861  150.0704  130.4106 H   0  0  0  0  0  0  0  0  0  0  0  0
  151.1080  148.0900  130.0420 H   0  0  0  0  0  0  0  0  0  0  0  0
  149.3771  155.7189  132.6442 H   0  0  0  0  0  0  0  0  0  0  0  0
  1  2  1  0
  2  3  1  0
  3  4  1  0
  4  5  2  0
  4  6  1  0
  6  7  1  0
  7  8  1  0
  8  9  1  0
  8 10  2  0
  7 11  2  0
 11 12  1  0
 12 13  2  0
 13 14  1  0
 14 15  2  0
 15 16  1  0
 16 17  3  0
 17 18  1  0
 18 19  1  0
 19 20  1  0
 20 21  1  0
 15 22  1  0
 22 23  2  0
 23  6  1  0
 23 12  1  0
  1 24  1  0
  1 25  1  0
  1 26  1  0
  2 27  1  0
  2 28  1  0
  9 29  1  0
  9 30  1  0
 11 31  1  0
 13 32  1  0
 14 33  1  0
 18 34  1  0
 18 35  1  0
 19 36  1  0
 19 37  1  0
 20 38  1  0
 20 39  1  0
 21 40  1  0
 22 41  1  0
M  END
>  <UniqueID>  (53) 
53

>  <SMILES>  (53) 
CCOC(=O)n1c(C(N)=O)cc2ccc(C#CCCCO)cc21

>  <Energy>  (53) 
67.06577168150562

>  <Genealogy>  (53) 
CCOC(=O)n1c(C(N)=O)cc2ccc(C#CCCCO)cc21 (3D coordinates assigned)
CCOC(=O)n1c(C(N)=O)cc2ccc(C#CCCCO)cc21 (optimized conformer: 67.06577168150562 kcal/mol)

>  <smiles>  (53) 
CCOC(=O)n1c(C(N)=O)cc2ccc(C#CCCCO)cc21

>  <score_type>  (53) 
oracle

>  <origin>  (53) 
adg

>  <m_score__min__energy>  (53) 
-7.7599999999999998

>  <m_primary>  (53) 
energy

$$$$
53:0
     RDKit          3D

 55 57  0  0  0  0  0  0  0  0999 V2000
  139.1070  157.8900  132.5840 C   0  0  0  0  0  0  0  0  0  0  0  0
  139.4710  157.1310  133.6210 C   0  0  0  0  0  0  0  0  0  0  0  0
  140.8110  157.2880  134.2860 C   0  0  0  0  0  0  0  0  0  0  0  0
  140.8140  158.4810  135.2540 C   0  0  0  0  0  0  0  0  0  0  0  0
  142.2230  159.0500  135.4650 C   0  0  0  0  0  0  0  0  0  0  0  0
  142.7540  159.7010  134.2180 C   0  0  0  0  0  0  0  0  0  0  0  0
  141.9490  160.2250  133.4030 O   0  0  0  0  0  0  0  0  0  0  0  0
  144.1560  159.6610  133.9060 N   0  0  0  0  0  0  0  0  0  0  0  0
  145.0520  160.6860  133.9220 C   0  0  0  0  0  0  0  0  0  0  0  0
  144.7300  162.1160  134.1030 C   0  0  0  0  0  0  0  0  0  0  0  0
  143.6530  162.7190  133.3890 N   0  0  0  0  0  0  0  0  0  0  0  0
  145.4380  162.8260  134.8660 O   0  0  0  0  0  0  0  0  0  0  0  0
  146.3350  160.2150  133.6440 C   0  0  0  0  0  0  0  0  0  0  0  0
  146.1900  158.8610  133.4420 C   0  0  0  0  0  0  0  0  0  0  0  0
  147.1430  157.8920  133.1420 C   0  0  0  0  0  0  0  0  0  0  0  0
  146.7100  156.5620  133.0100 C   0  0  0  0  0  0  0  0  0  0  0  0
  145.3420  156.2220  133.1820 C   0  0  0  0  0  0  0  0  0  0  0  0
  144.8970  154.8110  133.0530 C   0  0  0  0  0  0  0  0  0  0  0  0
  145.7920  153.8230  132.6130 C   0  0  0  0  0  0  0  0  0  0  0  0
  145.3800  152.4960  132.5080 C   0  0  0  0  0  0  0  0  0  0  0  0
  144.0720  152.1380  132.8320 C   0  0  0  0  0  0  0  0  0  0  0  0
  143.1380  153.1060  133.2580 C   0  0  0  0  0  0  0  0  0  0  0  0
  141.7140  152.6590  133.6400 C   0  0  0  0  0  0  0  0  0  0  0  0
  140.7490  153.8320  133.3630 C   0  0  0  0  0  0  0  0  0  0  0  0
  141.2220  151.4290  132.8450 C   0  0  0  0  0  0  0  0  0  0  0  0
  141.6810  152.2780  135.1110 C   0  0  0  0  0  0  0  0  0  0  0  0
  142.3280  152.9560  135.9520 O   0  0  0  0  0  0  0  0  0  0  0  0
  140.9830  151.1550  135.5440 O   0  0  0  0  0  0  0  0  0  0  0  0
  143.5770  154.4450  133.3780 C   0  0  0  0  0  0  0  0  0  0  0  0
  144.4060  157.2390  133.4830 C   0  0  0  0  0  0  0  0  0  0  0  0
  144.8650  158.5540  133.6000 C   0  0  0  0  0  0  0  0  0  0  0  0
  138.1196  157.7501  132.1198 H   0  0  0  0  0  0  0  0  0  0  0  0
  139.7946  158.6550  132.1941 H   0  0  0  0  0  0  0  0  0  0  0  0
  138.7719  156.3705  133.9990 H   0  0  0  0  0  0  0  0  0  0  0  0
  141.0432  156.3704  134.8465 H   0  0  0  0  0  0  0  0  0  0  0  0
  141.5672  157.4687  133.5078 H   0  0  0  0  0  0  0  0  0  0  0  0
  140.1698  159.2724  134.8434 H   0  0  0  0  0  0  0  0  0  0  0  0
  140.4421  158.1282  136.2273 H   0  0  0  0  0  0  0  0  0  0  0  0
  142.1880  159.7985  136.2703 H   0  0  0  0  0  0  0  0  0  0  0  0
  142.8923  158.2177  135.7282 H   0  0  0  0  0  0  0  0  0  0  0  0
  142.8430  162.1480  133.0560 H   0  0  0  0  0  0  0  0  0  0  0  0
  147.2649  160.8008  133.5963 H   0  0  0  0  0  0  0  0  0  0  0  0
  148.2022  158.1592  133.0123 H   0  0  0  0  0  0  0  0  0  0  0  0
  147.4396  155.7744  132.7705 H   0  0  0  0  0  0  0  0  0  0  0  0
  146.8241  154.0978  132.3497 H   0  0  0  0  0  0  0  0  0  0  0  0
  146.0898  151.7275  132.1680 H   0  0  0  0  0  0  0  0  0  0  0  0
  143.7636  151.0850  132.7543 H   0  0  0  0  0  0  0  0  0  0  0  0
  140.4016  154.2542  134.3175 H   0  0  0  0  0  0  0  0  0  0  0  0
  141.2725  154.6093  132.7871 H   0  0  0  0  0  0  0  0  0  0  0  0
  139.8853  153.4681  132.7871 H   0  0  0  0  0  0  0  0  0  0  0  0
  140.9070  150.6416  133.5456 H   0  0  0  0  0  0  0  0  0  0  0  0
  140.3704  151.7184  132.2117 H   0  0  0  0  0  0  0  0  0  0  0  0
  142.0382  151.0513  132.2117 H   0  0  0  0  0  0  0  0  0  0  0  0
  142.8746  155.2142  133.7316 H   0  0  0  0  0  0  0  0  0  0  0  0
  143.3412  157.0004  133.6218 H   0  0  0  0  0  0  0  0  0  0  0  0
  1  2  2  0
  2  3  1  0
  3  4  1  0
  4  5  1  0
  5  6  1  0
  6  7  2  0
  6  8  1  0
  8  9  1  0
  9 10  1  0
 10 11  1  0
 10 12  2  0
  9 13  2  0
 13 14  1  0
 14 15  2  0
 15 16  1  0
 16 17  2  0
 17 18  1  0
 18 19  2  0
 19 20  1  0
 20 21  2  0
 21 22  1  0
 22 23  1  0
 23 24  1  0
 23 25  1  0
 23 26  1  0
 26 27  2  0
 26 28  1  0
 22 29  2  0
 17 30  1  0
 30 31  2  0
 31  8  1  0
 31 14  1  0
 29 18  1  0
  1 32  1  0
  1 33  1  0
  2 34  1  0
  3 35  1  0
  3 36  1  0
  4 37  1  0
  4 38  1  0
  5 39  1  0
  5 40  1  0
 11 41  1  0
 13 42  1  0
 15 43  1  0
 16 44  1  0
 19 45  1  0
 20 46  1  0
 21 47  1  0
 24 48  1  0
 24 49  1  0
 24 50  1  0
 25 51  1  0
 25 52  1  0
 25 53  1  0
 29 54  1  0
 30 55  1  0
M  CHG  2  11  -1  28  -1
M  END
>  <UniqueID>  (54) 
54

>  <SMILES>  (54) 
C=CCCCC(=O)n1c(C([NH-])=O)cc2ccc(-c3cccc(C(C)(C)C(=O)[O-])c3)cc21

>  <Energy>  (54) 
96.84300961954503

>  <Genealogy>  (54) 
C=CCCCC(=O)n1c(C([NH-])=O)cc2ccc(-c3cccc(C(C)(C)C(=O)[O-])c3)cc21 (protonated)
C=CCCCC(=O)n1c(C([NH-])=O)cc2ccc(-c3cccc(C(C)(C)C(=O)[O-])c3)cc21 (3D coordinates assigned)
C=CCCCC(=O)n1c(C([NH-])=O)cc2ccc(-c3cccc(C(C)(C)C(=O)[O-])c3)cc21 (optimized conformer: 96.84300961954503 kcal/mol)

>  <smiles>  (54) 
C=CCCCC(=O)n1c(C(N)=O)cc2ccc(-c3cccc(C(C)(C)C(=O)O)c3)cc21

>  <score_type>  (54) 
oracle

>  <origin>  (54) 
adg

>  <m_score__min__energy>  (54) 
-10.390000000000001

>  <m_primary>  (54) 
energy

$$$$
54:0
     RDKit          3D

 42 44  0  0  0  0  0  0  0  0999 V2000
  148.3840  158.6760  132.9720 C   0  0  0  0  0  0  0  0  0  0  0  0
  147.5250  157.4760  133.3520 C   0  0  0  0  0  0  0  0  0  0  0  0
  146.2940  157.9010  133.9320 O   0  0  0  0  0  0  0  0  0  0  0  0
  145.0430  157.6460  133.3590 C   0  0  0  0  0  0  0  0  0  0  0  0
  144.3400  158.5860  132.8970 O   0  0  0  0  0  0  0  0  0  0  0  0
  144.5490  156.2700  133.2860 C   0  0  0  0  0  0  0  0  0  0  0  0
  143.2840  155.9420  132.9600 N   0  0  0  0  0  0  0  0  0  0  0  0
  143.3380  154.5950  133.0310 C   0  0  0  0  0  0  0  0  0  0  0  0
  142.1540  153.7080  132.8240 C   0  0  0  0  0  0  0  0  0  0  0  0
  141.0820  154.0830  133.7390 N   0  0  0  0  0  0  0  0  0  0  0  0
  140.2330  155.2180  133.5380 C   0  0  0  0  0  0  0  0  0  0  0  0
  139.1190  155.0820  132.9620 O   0  0  0  0  0  0  0  0  0  0  0  0
  140.6470  156.5120  134.0010 N   0  0  0  0  0  0  0  0  0  0  0  0
  141.4350  156.7990  135.0770 C   0  0  0  0  0  0  0  0  0  0  0  0
  141.9250  155.8260  136.0760 C   0  0  0  0  0  0  0  0  0  0  0  0
  143.2420  155.2910  135.9580 N   0  0  0  0  0  0  0  0  0  0  0  0
  141.2060  155.4850  137.0520 O   0  0  0  0  0  0  0  0  0  0  0  0
  141.6560  158.1720  135.1650 C   0  0  0  0  0  0  0  0  0  0  0  0
  140.9730  158.7210  134.1050 C   0  0  0  0  0  0  0  0  0  0  0  0
  140.8470  160.0500  133.7130 C   0  0  0  0  0  0  0  0  0  0  0  0
  140.0890  160.3290  132.5640 C   0  0  0  0  0  0  0  0  0  0  0  0
  139.4950  159.2820  131.8140 C   0  0  0  0  0  0  0  0  0  0  0  0
  138.6520  159.5950  130.6040 C   0  0  0  0  0  0  0  0  0  0  0  0
  139.0400  160.7940  130.0320 F   0  0  0  0  0  0  0  0  0  0  0  0
  137.3260  159.6870  130.9830 F   0  0  0  0  0  0  0  0  0  0  0  0
  138.7800  158.6000  129.6500 F   0  0  0  0  0  0  0  0  0  0  0  0
  139.6270  157.9450  132.2590 C   0  0  0  0  0  0  0  0  0  0  0  0
  140.3720  157.7000  133.4180 C   0  0  0  0  0  0  0  0  0  0  0  0
  144.5530  154.1410  133.3940 N   0  0  0  0  0  0  0  0  0  0  0  0
  145.2770  155.2100  133.5350 O   0  0  0  0  0  0  0  0  0  0  0  0
  148.7412  159.1750  133.8849 H   0  0  0  0  0  0  0  0  0  0  0  0
  149.2457  158.3368  132.3784 H   0  0  0  0  0  0  0  0  0  0  0  0
  147.7851  159.3824  132.3784 H   0  0  0  0  0  0  0  0  0  0  0  0
  147.3135  156.8832  132.4499 H   0  0  0  0  0  0  0  0  0  0  0  0
  148.0718  156.8686  134.0883 H   0  0  0  0  0  0  0  0  0  0  0  0
  141.8000  153.8094  131.7875 H   0  0  0  0  0  0  0  0  0  0  0  0
  142.4461  152.6656  133.0189 H   0  0  0  0  0  0  0  0  0  0  0  0
  143.7320  155.2720  135.0360 H   0  0  0  0  0  0  0  0  0  0  0  0
  142.2508  158.7041  135.9220 H   0  0  0  0  0  0  0  0  0  0  0  0
  141.3265  160.8577  134.2856 H   0  0  0  0  0  0  0  0  0  0  0  0
  139.9544  161.3721  132.2419 H   0  0  0  0  0  0  0  0  0  0  0  0
  139.1554  157.1185  131.7072 H   0  0  0  0  0  0  0  0  0  0  0  0
  1  2  1  0
  2  3  1  0
  3  4  1  0
  4  5  2  0
  4  6  1  0
  6  7  2  0
  7  8  1  0
  8  9  1  0
  9 10  1  0
 10 11  1  0
 11 12  2  0
 11 13  1  0
 13 14  1  0
 14 15  1  0
 15 16  1  0
 15 17  2  0
 14 18  2  0
 18 19  1  0
 19 20  2  0
 20 21  1  0
 21 22  2  0
 22 23  1  0
 23 24  1  0
 23 25  1  0
 23 26  1  0
 22 27  1  0
 27 28  2  0
  8 29  2  0
 29 30  1  0
 30  6  1  0
 28 13  1  0
 28 19  1  0
  1 31  1  0
  1 32  1  0
  1 33  1  0
  2 34  1  0
  2 35  1  0
  9 36  1  0
  9 37  1  0
 16 38  1  0
 18 39  1  0
 20 40  1  0
 21 41  1  0
 27 42  1  0
M  CHG  2  10  -1  16  -1
M  END
>  <UniqueID>  (55) 
55

>  <SMILES>  (55) 
CCOC(=O)c1nc(C[N-]C(=O)n2c(C([NH-])=O)cc3ccc(C(F)(F)F)cc32)no1

>  <Energy>  (55) 
108.11012058341306

>  <Genealogy>  (55) 
CCOC(=O)c1nc(C[N-]C(=O)n2c(C([NH-])=O)cc3ccc(C(F)(F)F)cc32)no1 (protonated)
CCOC(=O)c1nc(C[N-]C(=O)n2c(C([NH-])=O)cc3ccc(C(F)(F)F)cc32)no1 (3D coordinates assigned)
CCOC(=O)c1nc(C[N-]C(=O)n2c(C([NH-])=O)cc3ccc(C(F)(F)F)cc32)no1 (optimized conformer: 108.11012058341306 kcal/mol)

>  <smiles>  (55) 
CCOC(=O)c1nc(CNC(=O)n2c(C(N)=O)cc3ccc(C(F)(F)F)cc32)no1

>  <score_type>  (55) 
oracle

>  <origin>  (55) 
adg

>  <m_score__min__energy>  (55) 
-7.4900000000000002

>  <m_primary>  (55) 
energy

$$$$
55:0
     RDKit          3D

 39 41  0  0  0  0  0  0  0  0999 V2000
  140.0250  155.5460  133.0590 C   0  0  0  0  0  0  0  0  0  0  0  0
  139.1030  156.6110  133.2480 O   0  0  0  0  0  0  0  0  0  0  0  0
  139.2500  157.8600  132.6370 C   0  0  0  0  0  0  0  0  0  0  0  0
  140.0530  158.7980  133.1080 C   0  0  0  0  0  0  0  0  0  0  0  0
  140.8950  158.6530  134.3450 C   0  0  0  0  0  0  0  0  0  0  0  0
  142.2920  159.1560  134.0970 C   0  0  0  0  0  0  0  0  0  0  0  0
  142.5500  160.5480  134.0220 C   0  0  0  0  0  0  0  0  0  0  0  0
  143.8480  161.0220  133.7710 C   0  0  0  0  0  0  0  0  0  0  0  0
  144.8620  160.0860  133.5870 C   0  0  0  0  0  0  0  0  0  0  0  0
  146.2040  160.2700  133.3520 C   0  0  0  0  0  0  0  0  0  0  0  0
  146.7420  158.9890  133.2560 C   0  0  0  0  0  0  0  0  0  0  0  0
  148.1560  158.7260  132.9160 C   0  0  0  0  0  0  0  0  0  0  0  0
  148.5060  158.0570  131.7080 N   0  0  0  0  0  0  0  0  0  0  0  0
  149.0680  159.1430  133.6780 O   0  0  0  0  0  0  0  0  0  0  0  0
  145.7720  158.0470  133.4350 N   0  0  0  0  0  0  0  0  0  0  0  0
  145.9330  156.6220  133.5030 C   0  0  0  0  0  0  0  0  0  0  0  0
  146.6120  156.0150  132.6330 O   0  0  0  0  0  0  0  0  0  0  0  0
  145.3170  155.8930  134.5140 O   0  0  0  0  0  0  0  0  0  0  0  0
  144.6260  158.7360  133.6340 C   0  0  0  0  0  0  0  0  0  0  0  0
  143.3460  158.2350  133.9020 C   0  0  0  0  0  0  0  0  0  0  0  0
  140.0350  160.0260  132.2720 C   0  0  0  0  0  0  0  0  0  0  0  0
  139.0310  159.7150  131.1550 C   0  0  0  0  0  0  0  0  0  0  0  0
  138.5370  158.2860  131.4030 C   0  0  0  0  0  0  0  0  0  0  0  0
  140.3531  155.1670  134.0381 H   0  0  0  0  0  0  0  0  0  0  0  0
  139.5387  154.7355  132.4963 H   0  0  0  0  0  0  0  0  0  0  0  0
  140.8968  155.9112  132.4963 H   0  0  0  0  0  0  0  0  0  0  0  0
  140.4412  159.2340  135.1614 H   0  0  0  0  0  0  0  0  0  0  0  0
  140.9446  157.5884  134.6175 H   0  0  0  0  0  0  0  0  0  0  0  0
  141.7261  161.2633  134.1617 H   0  0  0  0  0  0  0  0  0  0  0  0
  144.0572  162.1008  133.7213 H   0  0  0  0  0  0  0  0  0  0  0  0
  146.7394  161.2264  133.2594 H   0  0  0  0  0  0  0  0  0  0  0  0
  148.1270  157.1080  131.4910 H   0  0  0  0  0  0  0  0  0  0  0  0
  143.1654  157.1514  133.9593 H   0  0  0  0  0  0  0  0  0  0  0  0
  139.7039  160.8933  132.8621 H   0  0  0  0  0  0  0  0  0  0  0  0
  141.0310  160.2803  131.8805 H   0  0  0  0  0  0  0  0  0  0  0  0
  138.1883  160.4209  131.1935 H   0  0  0  0  0  0  0  0  0  0  0  0
  139.4964  159.8095  130.1628 H   0  0  0  0  0  0  0  0  0  0  0  0
  137.4480  158.2714  131.5574 H   0  0  0  0  0  0  0  0  0  0  0  0
  138.7354  157.6188  130.5512 H   0  0  0  0  0  0  0  0  0  0  0  0
  1  2  1  0
  2  3  1  0
  3  4  2  0
  4  5  1  0
  5  6  1  0
  6  7  2  0
  7  8  1  0
  8  9  2  0
  9 10  1  0
 10 11  2  0
 11 12  1  0
 12 13  1  0
 12 14  2  0
 11 15  1  0
 15 16  1  0
 16 17  2  0
 16 18  1  0
 15 19  1  0
 19 20  2  0
  4 21  1  0
 21 22  1  0
 22 23  1  0
 23  3  1  0
 20  6  1  0
 19  9  1  0
  1 24  1  0
  1 25  1  0
  1 26  1  0
  5 27  1  0
  5 28  1  0
  7 29  1  0
  8 30  1  0
 10 31  1  0
 13 32  1  0
 20 33  1  0
 21 34  1  0
 21 35  1  0
 22 36  1  0
 22 37  1  0
 23 38  1  0
 23 39  1  0
M  CHG  2  13  -1  18  -1
M  END
>  <UniqueID>  (56) 
56

>  <SMILES>  (56) 
COC1=C(Cc2ccc3cc(C([NH-])=O)n(C(=O)[O-])c3c2)CCC1

>  <Energy>  (56) 
78.67721003304541

>  <Genealogy>  (56) 
COC1=C(Cc2ccc3cc(C([NH-])=O)n(C(=O)[O-])c3c2)CCC1 (protonated)
COC1=C(Cc2ccc3cc(C([NH-])=O)n(C(=O)[O-])c3c2)CCC1 (3D coordinates assigned)
COC1=C(Cc2ccc3cc(C([NH-])=O)n(C(=O)[O-])c3c2)CCC1 (nonaromatic ring conformer: 78.67721003304541 kcal/mol)

>  <smiles>  (56) 
COC1=C(Cc2ccc3cc(C(N)=O)n(C(=O)O)c3c2)CCC1

>  <score_type>  (56) 
oracle

>  <origin>  (56) 
adg

>  <m_score__min__energy>  (56) 
-7.6299999999999999

>  <m_primary>  (56) 
energy

$$$$
56:0
     RDKit          3D

 36 38  0  0  0  0  0  0  0  0999 V2000
  139.3630  158.6250  131.8410 C   0  0  0  0  0  0  0  0  0  0  0  0
  140.5890  158.9490  132.2610 C   0  0  0  0  0  0  0  0  0  0  0  0
  141.3330  158.0900  133.2390 C   0  0  0  0  0  0  0  0  0  0  0  0
  142.7090  158.0360  132.8800 O   0  0  0  0  0  0  0  0  0  0  0  0
  143.7340  157.9600  133.8280 C   0  0  0  0  0  0  0  0  0  0  0  0
  143.5420  157.3700  134.9260 O   0  0  0  0  0  0  0  0  0  0  0  0
  145.0010  158.5780  133.5580 N   0  0  0  0  0  0  0  0  0  0  0  0
  145.2990  159.9080  133.5870 C   0  0  0  0  0  0  0  0  0  0  0  0
  144.3260  161.0120  133.7230 C   0  0  0  0  0  0  0  0  0  0  0  0
  142.9560  160.8250  133.3780 N   0  0  0  0  0  0  0  0  0  0  0  0
  144.7190  162.1470  134.1000 O   0  0  0  0  0  0  0  0  0  0  0  0
  146.6620  160.1090  133.3820 C   0  0  0  0  0  0  0  0  0  0  0  0
  147.1950  158.8510  133.2170 C   0  0  0  0  0  0  0  0  0  0  0  0
  148.5100  158.4590  132.9950 C   0  0  0  0  0  0  0  0  0  0  0  0
  148.7800  157.0840  132.8950 C   0  0  0  0  0  0  0  0  0  0  0  0
  147.7420  156.1270  133.0250 C   0  0  0  0  0  0  0  0  0  0  0  0
  148.0650  154.6870  132.9260 C   0  0  0  0  0  0  0  0  0  0  0  0
  147.3530  153.6200  133.4460 C   0  0  0  0  0  0  0  0  0  0  0  0
  148.0070  152.4920  133.1170 N   0  0  0  0  0  0  0  0  0  0  0  0
  149.0830  152.8990  132.4180 C   0  0  0  0  0  0  0  0  0  0  0  0
  149.1180  154.2070  132.3030 O   0  0  0  0  0  0  0  0  0  0  0  0
  146.4150  156.5680  133.2520 C   0  0  0  0  0  0  0  0  0  0  0  0
  146.1730  157.9450  133.3290 C   0  0  0  0  0  0  0  0  0  0  0  0
  138.8386  159.2725  131.1229 H   0  0  0  0  0  0  0  0  0  0  0  0
  138.8778  157.7107  132.2133 H   0  0  0  0  0  0  0  0  0  0  0  0
  141.0630  159.8660  131.8810 H   0  0  0  0  0  0  0  0  0  0  0  0
  141.2349  158.5160  134.2484 H   0  0  0  0  0  0  0  0  0  0  0  0
  140.9126  157.0736  133.2246 H   0  0  0  0  0  0  0  0  0  0  0  0
  142.6790  160.1770  132.6080 H   0  0  0  0  0  0  0  0  0  0  0  0
  147.1983  161.0691  133.3573 H   0  0  0  0  0  0  0  0  0  0  0  0
  149.3148  159.2029  132.9005 H   0  0  0  0  0  0  0  0  0  0  0  0
  149.8107  156.7453  132.7134 H   0  0  0  0  0  0  0  0  0  0  0  0
  146.4196  153.6834  134.0246 H   0  0  0  0  0  0  0  0  0  0  0  0
  147.7380  151.5110  133.3540 H   0  0  0  0  0  0  0  0  0  0  0  0
  149.8389  152.2206  131.9956 H   0  0  0  0  0  0  0  0  0  0  0  0
  145.5935  155.8452  133.3652 H   0  0  0  0  0  0  0  0  0  0  0  0
  1  2  2  0
  2  3  1  0
  3  4  1  0
  4  5  1  0
  5  6  2  0
  5  7  1  0
  7  8  1  0
  8  9  1  0
  9 10  1  0
  9 11  2  0
  8 12  2  0
 12 13  1  0
 13 14  2  0
 14 15  1  0
 15 16  2  0
 16 17  1  0
 17 18  2  0
 18 19  1  0
 19 20  2  0
 20 21  1  0
 16 22  1  0
 22 23  2  0
 23  7  1  0
 23 13  1  0
 21 17  1  0
  1 24  1  0
  1 25  1  0
  2 26  1  0
  3 27  1  0
  3 28  1  0
 10 29  1  0
 12 30  1  0
 14 31  1  0
 15 32  1  0
 18 33  1  0
 19 34  1  0
 20 35  1  0
 22 36  1  0
M  CHG  2  10  -1  19   1
M  END
>  <UniqueID>  (57) 
57

>  <SMILES>  (57) 
C=CCOC(=O)n1c(C([NH-])=O)cc2ccc(-c3c[nH+]co3)cc21

>  <Energy>  (57) 
103.95522078041891

>  <Genealogy>  (57) 
C=CCOC(=O)n1c(C([NH-])=O)cc2ccc(-c3c[nH+]co3)cc21 (protonated)
C=CCOC(=O)n1c(C([NH-])=O)cc2ccc(-c3c[nH+]co3)cc21 (3D coordinates assigned)
C=CCOC(=O)n1c(C([NH-])=O)cc2ccc(-c3c[nH+]co3)cc21 (optimized conformer: 103.95522078041891 kcal/mol)

>  <smiles>  (57) 
C=CCOC(=O)n1c(C(N)=O)cc2ccc(-c3cnco3)cc21

>  <score_type>  (57) 
oracle

>  <origin>  (57) 
adg

>  <m_score__min__energy>  (57) 
-6.5099999999999998

>  <m_primary>  (57) 
energy

$$$$
57:0
     RDKit          3D

 42 43  0  0  0  0  0  0  0  0999 V2000
  148.8000  157.3130  131.8630 N   0  0  0  0  0  0  0  0  0  0  0  0
  148.5740  158.5110  132.6100 C   0  0  0  0  0  0  0  0  0  0  0  0
  149.5470  159.2650  132.8750 O   0  0  0  0  0  0  0  0  0  0  0  0
  147.2130  158.9100  133.0210 C   0  0  0  0  0  0  0  0  0  0  0  0
  146.8110  160.2350  133.1590 C   0  0  0  0  0  0  0  0  0  0  0  0
  145.4740  160.1770  133.4780 C   0  0  0  0  0  0  0  0  0  0  0  0
  144.5720  161.2030  133.7360 C   0  0  0  0  0  0  0  0  0  0  0  0
  143.2550  160.8540  134.0730 C   0  0  0  0  0  0  0  0  0  0  0  0
  142.8590  159.4920  134.1570 C   0  0  0  0  0  0  0  0  0  0  0  0
  141.4270  159.1510  134.5390 C   0  0  0  0  0  0  0  0  0  0  0  0
  140.7750  158.1840  133.5360 C   0  0  0  0  0  0  0  0  0  0  0  0
  140.8830  158.6380  132.2340 F   0  0  0  0  0  0  0  0  0  0  0  0
  141.3170  158.6550  135.9900 C   0  0  0  0  0  0  0  0  0  0  0  0
  140.9990  159.6800  136.8630 F   0  0  0  0  0  0  0  0  0  0  0  0
  143.8120  158.4780  133.8910 C   0  0  0  0  0  0  0  0  0  0  0  0
  145.1120  158.8560  133.5350 C   0  0  0  0  0  0  0  0  0  0  0  0
  146.1720  158.0640  133.2610 N   0  0  0  0  0  0  0  0  0  0  0  0
  146.2080  156.6290  133.3160 C   0  0  0  0  0  0  0  0  0  0  0  0
  146.1530  155.9580  132.2480 O   0  0  0  0  0  0  0  0  0  0  0  0
  146.3040  155.9820  134.5530 O   0  0  0  0  0  0  0  0  0  0  0  0
  147.3950  155.1400  134.9180 C   0  0  0  0  0  0  0  0  0  0  0  0
  147.3800  153.8300  134.1170 C   0  0  0  0  0  0  0  0  0  0  0  0
  148.5490  153.7270  133.1300 C   0  0  0  0  0  0  0  0  0  0  0  0
  148.5270  154.7930  132.2180 O   0  0  0  0  0  0  0  0  0  0  0  0
  148.0040  156.7590  131.4770 H   0  0  0  0  0  0  0  0  0  0  0  0
  149.7730  157.0260  131.6170 H   0  0  0  0  0  0  0  0  0  0  0  0
  147.4300  161.1363  133.0387 H   0  0  0  0  0  0  0  0  0  0  0  0
  144.8813  162.2570  133.6777 H   0  0  0  0  0  0  0  0  0  0  0  0
  142.5190  161.6461  134.2750 H   0  0  0  0  0  0  0  0  0  0  0  0
  140.8523  160.0875  134.4867 H   0  0  0  0  0  0  0  0  0  0  0  0
  141.2705  157.2050  133.6130 H   0  0  0  0  0  0  0  0  0  0  0  0
  139.7055  158.1090  133.7822 H   0  0  0  0  0  0  0  0  0  0  0  0
  140.5328  157.8855  136.0443 H   0  0  0  0  0  0  0  0  0  0  0  0
  142.2946  158.2465  136.2856 H   0  0  0  0  0  0  0  0  0  0  0  0
  143.5361  157.4156  133.9627 H   0  0  0  0  0  0  0  0  0  0  0  0
  148.3385  155.6700  134.7207 H   0  0  0  0  0  0  0  0  0  0  0  0
  147.3027  154.8951  135.9864 H   0  0  0  0  0  0  0  0  0  0  0  0
  147.4381  152.9865  134.8207 H   0  0  0  0  0  0  0  0  0  0  0  0
  146.4484  153.8084  133.5324 H   0  0  0  0  0  0  0  0  0  0  0  0
  149.4960  153.7503  133.6891 H   0  0  0  0  0  0  0  0  0  0  0  0
  148.4568  152.7837  132.5718 H   0  0  0  0  0  0  0  0  0  0  0  0
  147.7520  154.6420  131.6190 H   0  0  0  0  0  0  0  0  0  0  0  0
  1  2  1  0
  2  3  2  0
  2  4  1  0
  4  5  2  0
  5  6  1  0
  6  7  2  0
  7  8  1  0
  8  9  2  0
  9 10  1  0
 10 11  1  0
 11 12  1  0
 10 13  1  0
 13 14  1  0
  9 15  1  0
 15 16  2  0
 16 17  1  0
 17 18  1  0
 18 19  2  0
 18 20  1  0
 20 21  1  0
 21 22  1  0
 22 23  1  0
 23 24  1  0
 17  4  1  0
 16  6  1  0
  1 25  1  0
  1 26  1  0
  5 27  1  0
  7 28  1  0
  8 29  1  0
 10 30  1  0
 11 31  1  0
 11 32  1  0
 13 33  1  0
 13 34  1  0
 15 35  1  0
 21 36  1  0
 21 37  1  0
 22 38  1  0
 22 39  1  0
 23 40  1  0
 23 41  1  0
 24 42  1  0
M  END
>  <UniqueID>  (58) 
58

>  <SMILES>  (58) 
NC(=O)c1cc2ccc(C(CF)CF)cc2n1C(=O)OCCCO

>  <Energy>  (58) 
74.39586257464313

>  <Genealogy>  (58) 
NC(=O)c1cc2ccc(C(CF)CF)cc2n1C(=O)OCCCO (3D coordinates assigned)
NC(=O)c1cc2ccc(C(CF)CF)cc2n1C(=O)OCCCO (optimized conformer: 74.39586257464313 kcal/mol)

>  <smiles>  (58) 
NC(=O)c1cc2ccc(C(CF)CF)cc2n1C(=O)OCCCO

>  <score_type>  (58) 
oracle

>  <origin>  (58) 
adg

>  <m_score__min__energy>  (58) 
-5.6600000000000001

>  <m_primary>  (58) 
energy

$$$$
58:0
     RDKit          3D

 35 36  0  0  0  0  0  0  0  0999 V2000
  148.2250  157.2530  134.0490 N   0  0  0  0  0  0  0  0  0  0  0  0
  147.2010  156.2590  133.9780 C   0  0  0  0  0  0  0  0  0  0  0  0
  147.5270  155.0430  133.9500 O   0  0  0  0  0  0  0  0  0  0  0  0
  145.7730  156.6470  133.9790 C   0  0  0  0  0  0  0  0  0  0  0  0
  144.7330  155.7730  134.2900 C   0  0  0  0  0  0  0  0  0  0  0  0
  143.5780  156.4890  134.0800 C   0  0  0  0  0  0  0  0  0  0  0  0
  142.2490  156.1100  134.2460 C   0  0  0  0  0  0  0  0  0  0  0  0
  141.2540  157.0650  133.9800 C   0  0  0  0  0  0  0  0  0  0  0  0
  141.6020  158.3730  133.5630 C   0  0  0  0  0  0  0  0  0  0  0  0
  140.5220  159.3840  133.3020 C   0  0  0  0  0  0  0  0  0  0  0  0
  139.2940  158.8540  133.6520 F   0  0  0  0  0  0  0  0  0  0  0  0
  140.5090  159.7170  131.9590 F   0  0  0  0  0  0  0  0  0  0  0  0
  142.9620  158.7220  133.4060 C   0  0  0  0  0  0  0  0  0  0  0  0
  143.9330  157.7450  133.6600 C   0  0  0  0  0  0  0  0  0  0  0  0
  145.2790  157.8590  133.5920 N   0  0  0  0  0  0  0  0  0  0  0  0
  146.0210  159.0450  133.2610 C   0  0  0  0  0  0  0  0  0  0  0  0
  145.8110  160.1150  133.8920 O   0  0  0  0  0  0  0  0  0  0  0  0
  147.0120  159.0030  132.2300 N   0  0  0  0  0  0  0  0  0  0  0  0
  148.6450  159.5440  132.4430 S   0  0  0  0  0  0  0  0  0  0  0  0
  148.8230  160.1200  133.8190 O   0  0  0  0  0  0  0  0  0  0  0  0
  149.5590  158.3600  132.3030 O   0  0  0  0  0  0  0  0  0  0  0  0
  149.0830  160.7540  131.1970 C   0  0  0  0  0  0  0  0  0  0  0  0
  149.3950  160.1240  129.8410 C   0  0  0  0  0  0  0  0  0  0  0  0
  148.8750  158.8450  129.7620 F   0  0  0  0  0  0  0  0  0  0  0  0
  150.7600  160.0850  129.6250 F   0  0  0  0  0  0  0  0  0  0  0  0
  147.9960  158.2710  134.0210 H   0  0  0  0  0  0  0  0  0  0  0  0
  149.2290  156.9680  134.0860 H   0  0  0  0  0  0  0  0  0  0  0  0
  144.8181  154.7307  134.6313 H   0  0  0  0  0  0  0  0  0  0  0  0
  141.9861  155.0939  134.5753 H   0  0  0  0  0  0  0  0  0  0  0  0
  140.1942  156.7944  134.0967 H   0  0  0  0  0  0  0  0  0  0  0  0
  140.7193  160.2845  133.9022 H   0  0  0  0  0  0  0  0  0  0  0  0
  143.2511  159.7358  133.0921 H   0  0  0  0  0  0  0  0  0  0  0  0
  148.2418  161.4521  131.0745 H   0  0  0  0  0  0  0  0  0  0  0  0
  149.9936  161.2668  131.5403 H   0  0  0  0  0  0  0  0  0  0  0  0
  148.9264  160.7464  129.0645 H   0  0  0  0  0  0  0  0  0  0  0  0
  1  2  1  0
  2  3  2  0
  2  4  1  0
  4  5  2  0
  5  6  1  0
  6  7  2  0
  7  8  1  0
  8  9  2  0
  9 10  1  0
 10 11  1  0
 10 12  1  0
  9 13  1  0
 13 14  2  0
 14 15  1  0
 15 16  1  0
 16 17  2  0
 16 18  1  0
 18 19  1  0
 19 20  2  0
 19 21  2  0
 19 22  1  0
 22 23  1  0
 23 24  1  0
 23 25  1  0
 15  4  1  0
 14  6  1  0
  1 26  1  0
  1 27  1  0
  5 28  1  0
  7 29  1  0
  8 30  1  0
 10 31  1  0
 13 32  1  0
 22 33  1  0
 22 34  1  0
 23 35  1  0
M  CHG  1  18  -1
M  END
>  <UniqueID>  (59) 
59

>  <SMILES>  (59) 
NC(=O)c1cc2ccc(C(F)F)cc2n1C(=O)[N-]S(=O)(=O)CC(F)F

>  <Energy>  (59) 
69.811673634888

>  <Genealogy>  (59) 
NC(=O)c1cc2ccc(C(F)F)cc2n1C(=O)[N-]S(=O)(=O)CC(F)F (protonated)
NC(=O)c1cc2ccc(C(F)F)cc2n1C(=O)[N-]S(=O)(=O)CC(F)F (3D coordinates assigned)
NC(=O)c1cc2ccc(C(F)F)cc2n1C(=O)[N-]S(=O)(=O)CC(F)F (optimized conformer: 69.811673634888 kcal/mol)

>  <smiles>  (59) 
NC(=O)c1cc2ccc(C(F)F)cc2n1C(=O)NS(=O)(=O)CC(F)F

>  <score_type>  (59) 
oracle

>  <origin>  (59) 
adg

>  <m_score__min__energy>  (59) 
-6.3600000000000003

>  <m_primary>  (59) 
energy

$$$$
59:0
     RDKit          3D

 37 38  0  0  0  0  0  0  0  0999 V2000
  141.2770  158.0170  133.4490 C   0  0  0  0  0  0  0  0  0  0  0  0
  142.2440  158.2050  134.6250 C   0  0  2  0  0  0  0  0  0  0  0  0
  141.6360  159.0370  135.7220 C   0  0  0  0  0  0  0  0  0  0  0  0
  141.0180  160.1030  135.4590 O   0  0  0  0  0  0  0  0  0  0  0  0
  141.8010  158.6540  137.0470 O   0  0  0  0  0  0  0  0  0  0  0  0
  143.5590  158.8040  134.1670 C   0  0  0  0  0  0  0  0  0  0  0  0
  143.7200  160.2140  134.1340 C   0  0  0  0  0  0  0  0  0  0  0  0
  144.9260  160.7900  133.7020 C   0  0  0  0  0  0  0  0  0  0  0  0
  145.9570  159.9380  133.3190 C   0  0  0  0  0  0  0  0  0  0  0  0
  147.2120  160.2300  132.8370 C   0  0  0  0  0  0  0  0  0  0  0  0
  147.8150  158.9960  132.6060 C   0  0  0  0  0  0  0  0  0  0  0  0
  149.2160  158.8500  132.1570 C   0  0  0  0  0  0  0  0  0  0  0  0
  149.7640  157.5690  131.8640 N   0  0  0  0  0  0  0  0  0  0  0  0
  149.9530  159.8690  132.0790 O   0  0  0  0  0  0  0  0  0  0  0  0
  146.9620  157.9790  132.9230 N   0  0  0  0  0  0  0  0  0  0  0  0
  147.1680  156.5680  132.7550 C   0  0  0  0  0  0  0  0  0  0  0  0
  146.9810  156.0350  131.6270 O   0  0  0  0  0  0  0  0  0  0  0  0
  147.5380  155.7850  133.8550 O   0  0  0  0  0  0  0  0  0  0  0  0
  147.5240  154.3580  133.8540 C   0  0  0  0  0  0  0  0  0  0  0  0
  148.5330  153.8020  132.8490 C   0  0  0  0  0  0  0  0  0  0  0  0
  149.4980  154.7670  132.5280 O   0  0  0  0  0  0  0  0  0  0  0  0
  145.8300  158.5740  133.3600 C   0  0  0  0  0  0  0  0  0  0  0  0
  144.6330  157.9720  133.7660 C   0  0  0  0  0  0  0  0  0  0  0  0
  140.2655  157.8203  133.8339 H   0  0  0  0  0  0  0  0  0  0  0  0
  141.2647  158.9296  132.8349 H   0  0  0  0  0  0  0  0  0  0  0  0
  141.6075  157.1663  132.8349 H   0  0  0  0  0  0  0  0  0  0  0  0
  142.4461  157.2052  135.0367 H   0  0  0  0  0  0  0  0  0  0  0  0
  142.8904  160.8633  134.4505 H   0  0  0  0  0  0  0  0  0  0  0  0
  145.0516  161.8823  133.6675 H   0  0  0  0  0  0  0  0  0  0  0  0
  147.6469  161.2264  132.6696 H   0  0  0  0  0  0  0  0  0  0  0  0
  149.1460  156.7420  131.7060 H   0  0  0  0  0  0  0  0  0  0  0  0
  147.7807  153.9948  134.8601 H   0  0  0  0  0  0  0  0  0  0  0  0
  146.5184  154.0171  133.5668 H   0  0  0  0  0  0  0  0  0  0  0  0
  149.0318  152.9245  133.2863 H   0  0  0  0  0  0  0  0  0  0  0  0
  147.9974  153.5193  131.9307 H   0  0  0  0  0  0  0  0  0  0  0  0
  149.0070  155.5840  132.2520 H   0  0  0  0  0  0  0  0  0  0  0  0
  144.5288  156.8770  133.7734 H   0  0  0  0  0  0  0  0  0  0  0  0
  1  2  1  0
  2  3  1  0
  3  4  2  0
  3  5  1  0
  2  6  1  0
  6  7  2  0
  7  8  1  0
  8  9  2  0
  9 10  1  0
 10 11  2  0
 11 12  1  0
 12 13  1  0
 12 14  2  0
 11 15  1  0
 15 16  1  0
 16 17  2  0
 16 18  1  0
 18 19  1  0
 19 20  1  0
 20 21  1  0
 15 22  1  0
 22 23  2  0
 23  6  1  0
 22  9  1  0
  1 24  1  0
  1 25  1  0
  1 26  1  0
  2 27  1  1
  7 28  1  0
  8 29  1  0
 10 30  1  0
 13 31  1  0
 19 32  1  0
 19 33  1  0
 20 34  1  0
 20 35  1  0
 21 36  1  0
 23 37  1  0
M  CHG  2   5  -1  13  -1
M  END
>  <UniqueID>  (60) 
60

>  <SMILES>  (60) 
C[C@H](C(=O)[O-])c1ccc2cc(C([NH-])=O)n(C(=O)OCCO)c2c1

>  <Energy>  (60) 
72.03675682506977

>  <Genealogy>  (60) 
CC(C(=O)[O-])c1ccc2cc(C([NH-])=O)n(C(=O)OCCO)c2c1 (protonated)
C[C@H](C(=O)[O-])c1ccc2cc(C([NH-])=O)n(C(=O)OCCO)c2c1 (chirality)
C[C@H](C(=O)[O-])c1ccc2cc(C([NH-])=O)n(C(=O)OCCO)c2c1 (3D coordinates assigned)
C[C@H](C(=O)[O-])c1ccc2cc(C([NH-])=O)n(C(=O)OCCO)c2c1 (optimized conformer: 72.03675682506977 kcal/mol)

>  <smiles>  (60) 
CC(C(=O)O)c1ccc2cc(C(N)=O)n(C(=O)OCCO)c2c1

>  <score_type>  (60) 
oracle

>  <origin>  (60) 
adg

>  <m_score__min__energy>  (60) 
-5.9000000000000004

>  <m_primary>  (60) 
energy

$$$$
60:0
     RDKit          3D

 62 64  0  0  0  0  0  0  0  0999 V2000
  148.9230  150.8050  132.6470 C   0  0  0  0  0  0  0  0  0  0  0  0
  149.3800  152.1450  133.0480 N   0  0  0  0  0  0  0  0  0  0  0  0
  148.5590  152.6870  134.1630 C   0  0  0  0  0  0  0  0  0  0  0  0
  147.6090  153.8130  133.7330 C   0  0  0  0  0  0  0  0  0  0  0  0
  148.3630  154.8720  133.0510 N   0  0  0  0  0  0  0  0  0  0  0  0
  147.9200  156.2460  133.1080 C   0  0  0  0  0  0  0  0  0  0  0  0
  148.8620  157.3070  133.0490 C   0  0  0  0  0  0  0  0  0  0  0  0
  148.4420  158.6470  133.1080 C   0  0  0  0  0  0  0  0  0  0  0  0
  147.0790  158.8980  133.2280 C   0  0  0  0  0  0  0  0  0  0  0  0
  146.4010  160.0940  133.2820 C   0  0  0  0  0  0  0  0  0  0  0  0
  145.0540  159.7510  133.3880 C   0  0  0  0  0  0  0  0  0  0  0  0
  143.9740  160.7440  133.5650 C   0  0  0  0  0  0  0  0  0  0  0  0
  142.6390  160.4530  133.1640 N   0  0  0  0  0  0  0  0  0  0  0  0
  144.2250  161.8440  134.1250 O   0  0  0  0  0  0  0  0  0  0  0  0
  144.9050  158.3960  133.3890 N   0  0  0  0  0  0  0  0  0  0  0  0
  143.6820  157.6440  133.3770 C   0  0  0  0  0  0  0  0  0  0  0  0
  143.0390  157.5090  132.3010 O   0  0  0  0  0  0  0  0  0  0  0  0
  143.1760  157.0860  134.5950 N   0  0  0  0  0  0  0  0  0  0  0  0
  141.7920  156.6750  134.8030 C   0  0  0  0  0  0  0  0  0  0  0  0
  140.8660  157.6390  134.1140 C   0  0  0  0  0  0  0  0  0  0  0  0
  141.0380  158.8710  134.3200 O   0  0  0  0  0  0  0  0  0  0  0  0
  139.7870  157.1970  133.2570 N   0  0  0  0  0  0  0  0  0  0  0  0
  139.5780  155.7680  132.9960 C   0  0  0  0  0  0  0  0  0  0  0  0
  138.8450  158.1750  132.6820 C   0  0  0  0  0  0  0  0  0  0  0  0
  139.5460  159.1370  131.6850 C   0  0  0  0  0  0  0  0  0  0  0  0
  138.7500  159.1820  130.3650 C   0  0  0  0  0  0  0  0  0  0  0  0
  139.6200  160.5600  132.2630 C   0  0  0  0  0  0  0  0  0  0  0  0
  140.8600  158.7040  131.4240 O   0  0  0  0  0  0  0  0  0  0  0  0
  146.1550  157.8880  133.2970 C   0  0  0  0  0  0  0  0  0  0  0  0
  146.5430  156.5460  133.2280 C   0  0  0  0  0  0  0  0  0  0  0  0
  149.5420  154.5080  132.2560 C   0  0  0  0  0  0  0  0  0  0  0  0
  149.4800  153.0280  131.8630 C   0  0  0  0  0  0  0  0  0  0  0  0
  148.7179  150.2036  133.5449 H   0  0  0  0  0  0  0  0  0  0  0  0
  148.0047  150.8947  132.0482 H   0  0  0  0  0  0  0  0  0  0  0  0
  149.7048  150.3149  132.0482 H   0  0  0  0  0  0  0  0  0  0  0  0
  147.9588  151.8669  134.5839 H   0  0  0  0  0  0  0  0  0  0  0  0
  149.2555  153.1149  134.8991 H   0  0  0  0  0  0  0  0  0  0  0  0
  146.8496  153.4075  133.0482 H   0  0  0  0  0  0  0  0  0  0  0  0
  147.1205  154.2338  134.6242 H   0  0  0  0  0  0  0  0  0  0  0  0
  149.9337  157.0773  132.9560 H   0  0  0  0  0  0  0  0  0  0  0  0
  149.1685  159.4716  133.0608 H   0  0  0  0  0  0  0  0  0  0  0  0
  146.8307  161.1061  133.2486 H   0  0  0  0  0  0  0  0  0  0  0  0
  142.3980  159.5440  132.7120 H   0  0  0  0  0  0  0  0  0  0  0  0
  141.6441  155.6669  134.3885 H   0  0  0  0  0  0  0  0  0  0  0  0
  141.5730  156.6681  135.8809 H   0  0  0  0  0  0  0  0  0  0  0  0
  139.4991  155.2285  133.9514 H   0  0  0  0  0  0  0  0  0  0  0  0
  138.6504  155.6322  132.4205 H   0  0  0  0  0  0  0  0  0  0  0  0
  140.4278  155.3723  132.4205 H   0  0  0  0  0  0  0  0  0  0  0  0
  138.0483  157.6323  132.1521 H   0  0  0  0  0  0  0  0  0  0  0  0
  138.4343  158.7776  133.5055 H   0  0  0  0  0  0  0  0  0  0  0  0
  137.6744  159.2428  130.5873 H   0  0  0  0  0  0  0  0  0  0  0  0
  139.0546  160.0644  129.7831 H   0  0  0  0  0  0  0  0  0  0  0  0
  138.9532  158.2709  129.7831 H   0  0  0  0  0  0  0  0  0  0  0  0
  139.6174  160.5100  133.3619 H   0  0  0  0  0  0  0  0  0  0  0  0
  140.5447  161.0473  131.9203 H   0  0  0  0  0  0  0  0  0  0  0  0
  138.7508  161.1406  131.9203 H   0  0  0  0  0  0  0  0  0  0  0  0
  141.4300  158.9850  132.1870 H   0  0  0  0  0  0  0  0  0  0  0  0
  145.7937  155.7416  133.2662 H   0  0  0  0  0  0  0  0  0  0  0  0
  149.5707  155.1247  131.3455 H   0  0  0  0  0  0  0  0  0  0  0  0
  150.4471  154.6819  132.8565 H   0  0  0  0  0  0  0  0  0  0  0  0
  148.5994  152.8665  131.2240 H   0  0  0  0  0  0  0  0  0  0  0  0
  150.4088  152.7780  131.3293 H   0  0  0  0  0  0  0  0  0  0  0  0
  1  2  1  0
  2  3  1  0
  3  4  1  0
  4  5  1  0
  5  6  1  0
  6  7  2  0
  7  8  1  0
  8  9  2  0
  9 10  1  0
 10 11  2  0
 11 12  1  0
 12 13  1  0
 12 14  2  0
 11 15  1  0
 15 16  1  0
 16 17  2  0
 16 18  1  0
 18 19  1  0
 19 20  1  0
 20 21  2  0
 20 22  1  0
 22 23  1  0
 22 24  1  0
 24 25  1  0
 25 26  1  0
 25 27  1  0
 25 28  1  0
 15 29  1  0
 29 30  2  0
  5 31  1  0
 31 32  1  0
 32  2  1  0
 30  6  1  0
 29  9  1  0
  1 33  1  0
  1 34  1  0
  1 35  1  0
  3 36  1  0
  3 37  1  0
  4 38  1  0
  4 39  1  0
  7 40  1  0
  8 41  1  0
 10 42  1  0
 13 43  1  0
 19 44  1  0
 19 45  1  0
 23 46  1  0
 23 47  1  0
 23 48  1  0
 24 49  1  0
 24 50  1  0
 26 51  1  0
 26 52  1  0
 26 53  1  0
 27 54  1  0
 27 55  1  0
 27 56  1  0
 28 57  1  0
 30 58  1  0
 31 59  1  0
 31 60  1  0
 32 61  1  0
 32 62  1  0
M  CHG  2  13  -1  18  -1
M  END
>  <UniqueID>  (61) 
61

>  <SMILES>  (61) 
CN1CCN(c2ccc3cc(C([NH-])=O)n(C(=O)[N-]CC(=O)N(C)CC(C)(C)O)c3c2)CC1

>  <Energy>  (61) 
105.84685661171729

>  <Genealogy>  (61) 
CN1CCN(c2ccc3cc(C([NH-])=O)n(C(=O)[N-]CC(=O)N(C)CC(C)(C)O)c3c2)CC1 (protonated)
CN1CCN(c2ccc3cc(C([NH-])=O)n(C(=O)[N-]CC(=O)N(C)CC(C)(C)O)c3c2)CC1 (3D coordinates assigned)
CN1CCN(c2ccc3cc(C([NH-])=O)n(C(=O)[N-]CC(=O)N(C)CC(C)(C)O)c3c2)CC1 (nonaromatic ring conformer: 105.84685661171729 kcal/mol)

>  <smiles>  (61) 
CN1CCN(c2ccc3cc(C(N)=O)n(C(=O)NCC(=O)N(C)CC(C)(C)O)c3c2)CC1

>  <score_type>  (61) 
oracle

>  <origin>  (61) 
adg

>  <m_score__min__energy>  (61) 
-8.9000000000000004

>  <m_primary>  (61) 
energy

$$$$
61:0
     RDKit          3D

 48 49  0  0  0  0  0  0  0  0999 V2000
  139.5010  160.4300  132.1570 C   0  0  0  0  0  0  0  0  0  0  0  0
  139.9290  159.1310  132.6790 N   0  0  0  0  0  0  0  0  0  0  0  0
  138.8120  158.4640  133.3590 C   0  0  0  0  0  0  0  0  0  0  0  0
  139.1240  156.9790  133.5770 C   0  0  0  0  0  0  0  0  0  0  0  0
  140.4870  156.5900  133.0040 C   0  0  0  0  0  0  0  0  0  0  0  0
  141.5080  157.3080  133.6870 O   0  0  0  0  0  0  0  0  0  0  0  0
  142.8420  156.8910  133.7060 C   0  0  0  0  0  0  0  0  0  0  0  0
  143.1250  155.6720  133.8630 O   0  0  0  0  0  0  0  0  0  0  0  0
  143.8930  157.8600  133.5660 N   0  0  0  0  0  0  0  0  0  0  0  0
  143.8180  159.2020  133.7880 C   0  0  0  0  0  0  0  0  0  0  0  0
  142.5850  159.9720  134.0570 C   0  0  0  0  0  0  0  0  0  0  0  0
  141.6410  159.5280  135.0280 N   0  0  0  0  0  0  0  0  0  0  0  0
  142.3380  161.0090  133.3840 O   0  0  0  0  0  0  0  0  0  0  0  0
  145.0730  159.7910  133.6500 C   0  0  0  0  0  0  0  0  0  0  0  0
  145.9250  158.7600  133.3260 C   0  0  0  0  0  0  0  0  0  0  0  0
  147.2940  158.7740  133.0850 C   0  0  0  0  0  0  0  0  0  0  0  0
  147.9260  157.5530  132.8030 C   0  0  0  0  0  0  0  0  0  0  0  0
  147.1920  156.3390  132.7760 C   0  0  0  0  0  0  0  0  0  0  0  0
  147.8910  155.1100  132.4900 N   0  0  0  0  0  0  0  0  0  0  0  0
  148.4640  154.2180  133.5090 C   0  0  1  0  0  0  0  0  0  0  0  0
  147.3760  153.7700  134.4950 C   0  0  0  0  0  0  0  0  0  0  0  0
  149.1310  153.0020  132.8460 C   0  0  0  0  0  0  0  0  0  0  0  0
  149.5760  153.3310  131.5580 O   0  0  0  0  0  0  0  0  0  0  0  0
  145.7950  156.3700  133.0210 C   0  0  0  0  0  0  0  0  0  0  0  0
  145.1890  157.6050  133.2820 C   0  0  0  0  0  0  0  0  0  0  0  0
  139.2781  161.1066  132.9952 H   0  0  0  0  0  0  0  0  0  0  0  0
  140.3047  160.8608  131.5418 H   0  0  0  0  0  0  0  0  0  0  0  0
  138.5986  160.2987  131.5418 H   0  0  0  0  0  0  0  0  0  0  0  0
  140.6810  159.3100  133.3850 H   0  0  0  0  0  0  0  0  0  0  0  0
  138.6428  158.9450  134.3337 H   0  0  0  0  0  0  0  0  0  0  0  0
  137.9124  158.5496  132.7318 H   0  0  0  0  0  0  0  0  0  0  0  0
  139.1200  156.7701  134.6570 H   0  0  0  0  0  0  0  0  0  0  0  0
  138.3554  156.3901  133.0550 H   0  0  0  0  0  0  0  0  0  0  0  0
  140.6463  155.5097  133.1366 H   0  0  0  0  0  0  0  0  0  0  0  0
  140.5190  156.8351  131.9321 H   0  0  0  0  0  0  0  0  0  0  0  0
  140.7590  159.0500  134.7400 H   0  0  0  0  0  0  0  0  0  0  0  0
  145.3284  160.8538  133.7737 H   0  0  0  0  0  0  0  0  0  0  0  0
  147.8648  159.7138  133.1145 H   0  0  0  0  0  0  0  0  0  0  0  0
  149.0069  157.5369  132.5998 H   0  0  0  0  0  0  0  0  0  0  0  0
  148.0140  154.8500  131.4850 H   0  0  0  0  0  0  0  0  0  0  0  0
  149.2342  154.7700  134.0676 H   0  0  0  0  0  0  0  0  0  0  0  0
  147.7321  153.9166  135.5254 H   0  0  0  0  0  0  0  0  0  0  0  0
  146.4662  154.3667  134.3331 H   0  0  0  0  0  0  0  0  0  0  0  0
  147.1501  152.7057  134.3331 H   0  0  0  0  0  0  0  0  0  0  0  0
  149.9891  152.6822  133.4553 H   0  0  0  0  0  0  0  0  0  0  0  0
  148.3954  152.1874  132.7723 H   0  0  0  0  0  0  0  0  0  0  0  0
  150.5670  153.3120  131.5950 H   0  0  0  0  0  0  0  0  0  0  0  0
  145.2010  155.4443  133.0062 H   0  0  0  0  0  0  0  0  0  0  0  0
  1  2  1  0
  2  3  1  0
  3  4  1  0
  4  5  1  0
  5  6  1  0
  6  7  1  0
  7  8  2  0
  7  9  1  0
  9 10  1  0
 10 11  1  0
 11 12  1  0
 11 13  2  0
 10 14  2  0
 14 15  1  0
 15 16  2  0
 16 17  1  0
 17 18  2  0
 18 19  1  0
 19 20  1  0
 20 21  1  0
 20 22  1  0
 22 23  1  0
 18 24  1  0
 24 25  2  0
 25  9  1  0
 25 15  1  0
  1 26  1  0
  1 27  1  0
  1 28  1  0
  2 29  1  0
  3 30  1  0
  3 31  1  0
  4 32  1  0
  4 33  1  0
  5 34  1  0
  5 35  1  0
 12 36  1  0
 14 37  1  0
 16 38  1  0
 17 39  1  0
 19 40  1  0
 20 41  1  1
 21 42  1  0
 21 43  1  0
 21 44  1  0
 22 45  1  0
 22 46  1  0
 23 47  1  0
 24 48  1  0
M  CHG  1  12  -1
M  END
>  <UniqueID>  (62) 
62

>  <SMILES>  (62) 
CNCCCOC(=O)n1c(C([NH-])=O)cc2ccc(N[C@@H](C)CO)cc21

>  <Energy>  (62) 
74.93159760272114

>  <Genealogy>  (62) 
CNCCCOC(=O)n1c(C([NH-])=O)cc2ccc(NC(C)CO)cc21 (protonated)
CNCCCOC(=O)n1c(C([NH-])=O)cc2ccc(N[C@@H](C)CO)cc21 (chirality)
CNCCCOC(=O)n1c(C([NH-])=O)cc2ccc(N[C@@H](C)CO)cc21 (3D coordinates assigned)
CNCCCOC(=O)n1c(C([NH-])=O)cc2ccc(N[C@@H](C)CO)cc21 (optimized conformer: 74.93159760272114 kcal/mol)

>  <smiles>  (62) 
CNCCCOC(=O)n1c(C(N)=O)cc2ccc(NC(C)CO)cc21

>  <score_type>  (62) 
oracle

>  <origin>  (62) 
adg

>  <m_score__min__energy>  (62) 
-6.29

>  <m_primary>  (62) 
energy

$$$$
62:0
     RDKit          3D

 61 63  0  0  0  0  0  0  0  0999 V2000
  145.1010  161.0920  134.0190 C   0  0  0  0  0  0  0  0  0  0  0  0
  145.7140  159.8290  133.8790 O   0  0  0  0  0  0  0  0  0  0  0  0
  146.2970  159.7310  132.5970 C   0  0  0  0  0  0  0  0  0  0  0  0
  147.8170  159.9500  132.7070 C   0  0  2  0  0  0  0  0  0  0  0  0
  148.3450  160.8280  131.5610 C   0  0  0  0  0  0  0  0  0  0  0  0
  149.6480  160.1650  131.1050 C   0  0  2  0  0  0  0  0  0  0  0  0
  149.9080  160.3360  129.6080 C   0  0  0  0  0  0  0  0  0  0  0  0
  149.5200  158.7000  131.5170 C   0  0  0  0  0  0  0  0  0  0  0  0
  148.5430  158.6860  132.5930 N   0  0  0  0  0  0  0  0  0  0  0  0
  148.4030  157.5530  133.4730 C   0  0  0  0  0  0  0  0  0  0  0  0
  148.1880  157.7490  134.7020 O   0  0  0  0  0  0  0  0  0  0  0  0
  148.4750  156.1350  132.9710 C   0  0  0  0  0  0  0  0  0  0  0  0
  147.1310  155.4660  133.0800 C   0  0  0  0  0  0  0  0  0  0  0  0
  147.0360  154.0550  133.0000 C   0  0  0  0  0  0  0  0  0  0  0  0
  145.7860  153.4160  133.0650 C   0  0  0  0  0  0  0  0  0  0  0  0
  144.6560  154.2130  133.2200 C   0  0  0  0  0  0  0  0  0  0  0  0
  143.3270  153.8600  133.2850 C   0  0  0  0  0  0  0  0  0  0  0  0
  142.6330  155.0600  133.4340 C   0  0  0  0  0  0  0  0  0  0  0  0
  141.1690  155.1350  133.6290 C   0  0  0  0  0  0  0  0  0  0  0  0
  140.6170  155.7250  134.8020 N   0  0  0  0  0  0  0  0  0  0  0  0
  140.3980  154.6270  132.7720 O   0  0  0  0  0  0  0  0  0  0  0  0
  143.4990  156.1130  133.4530 N   0  0  0  0  0  0  0  0  0  0  0  0
  143.1790  157.5120  133.5080 C   0  0  0  0  0  0  0  0  0  0  0  0
  143.5990  158.2830  132.6040 O   0  0  0  0  0  0  0  0  0  0  0  0
  142.3840  157.9970  134.5590 O   0  0  0  0  0  0  0  0  0  0  0  0
  141.2990  158.9300  134.4440 C   0  0  0  0  0  0  0  0  0  0  0  0
  141.8270  160.3370  134.1020 C   0  0  0  0  0  0  0  0  0  0  0  0
  140.5990  158.9820  135.8100 C   0  0  0  0  0  0  0  0  0  0  0  0
  140.2880  158.4550  133.3820 C   0  0  0  0  0  0  0  0  0  0  0  0
  144.7320  155.5780  133.3200 C   0  0  0  0  0  0  0  0  0  0  0  0
  145.9610  156.2420  133.2330 C   0  0  0  0  0  0  0  0  0  0  0  0
  144.9866  161.3276  135.0874 H   0  0  0  0  0  0  0  0  0  0  0  0
  145.7272  161.8587  133.5394 H   0  0  0  0  0  0  0  0  0  0  0  0
  144.1112  161.0744  133.5394 H   0  0  0  0  0  0  0  0  0  0  0  0
  146.0995  158.7326  132.1796 H   0  0  0  0  0  0  0  0  0  0  0  0
  145.8628  160.4964  131.9370 H   0  0  0  0  0  0  0  0  0  0  0  0
  147.9780  160.4262  133.6854 H   0  0  0  0  0  0  0  0  0  0  0  0
  147.6196  160.8588  130.7347 H   0  0  0  0  0  0  0  0  0  0  0  0
  148.5069  161.8670  131.8840 H   0  0  0  0  0  0  0  0  0  0  0  0
  150.5221  160.6389  131.5755 H   0  0  0  0  0  0  0  0  0  0  0  0
  150.8187  160.9350  129.4601 H   0  0  0  0  0  0  0  0  0  0  0  0
  150.0397  159.3476  129.1435 H   0  0  0  0  0  0  0  0  0  0  0  0
  149.0527  160.8484  129.1435 H   0  0  0  0  0  0  0  0  0  0  0  0
  149.1692  158.0913  130.6706 H   0  0  0  0  0  0  0  0  0  0  0  0
  150.4850  158.2785  131.8349 H   0  0  0  0  0  0  0  0  0  0  0  0
  148.7921  156.1400  131.9177 H   0  0  0  0  0  0  0  0  0  0  0  0
  149.1993  155.5781  133.5835 H   0  0  0  0  0  0  0  0  0  0  0  0
  147.9498  153.4533  132.8858 H   0  0  0  0  0  0  0  0  0  0  0  0
  145.7036  152.3213  132.9956 H   0  0  0  0  0  0  0  0  0  0  0  0
  142.9028  152.8465  133.2309 H   0  0  0  0  0  0  0  0  0  0  0  0
  141.1570  156.4200  135.3610 H   0  0  0  0  0  0  0  0  0  0  0  0
  142.0335  160.8872  135.0319 H   0  0  0  0  0  0  0  0  0  0  0  0
  142.7531  160.2485  133.5150 H   0  0  0  0  0  0  0  0  0  0  0  0
  141.0713  160.8796  133.5150 H   0  0  0  0  0  0  0  0  0  0  0  0
  141.3518  158.9261  136.6101 H   0  0  0  0  0  0  0  0  0  0  0  0
  140.0385  159.9243  135.8991 H   0  0  0  0  0  0  0  0  0  0  0  0
  139.9054  158.1329  135.8991 H   0  0  0  0  0  0  0  0  0  0  0  0
  139.4007  158.0381  133.8810 H   0  0  0  0  0  0  0  0  0  0  0  0
  139.9889  159.3068  132.7536 H   0  0  0  0  0  0  0  0  0  0  0  0
  140.7528  157.6810  132.7536 H   0  0  0  0  0  0  0  0  0  0  0  0
  146.0142  157.3396  133.2825 H   0  0  0  0  0  0  0  0  0  0  0  0
  1  2  1  0
  2  3  1  0
  3  4  1  0
  4  5  1  0
  5  6  1  0
  6  7  1  0
  6  8  1  0
  8  9  1  0
  9 10  1  0
 10 11  2  0
 10 12  1  0
 12 13  1  0
 13 14  2  0
 14 15  1  0
 15 16  2  0
 16 17  1  0
 17 18  2  0
 18 19  1  0
 19 20  1  0
 19 21  2  0
 18 22  1  0
 22 23  1  0
 23 24  2  0
 23 25  1  0
 25 26  1  0
 26 27  1  0
 26 28  1  0
 26 29  1  0
 22 30  1  0
 30 31  2  0
  9  4  1  0
 31 13  1  0
 30 16  1  0
  1 32  1  0
  1 33  1  0
  1 34  1  0
  3 35  1  0
  3 36  1  0
  4 37  1  1
  5 38  1  0
  5 39  1  0
  6 40  1  1
  7 41  1  0
  7 42  1  0
  7 43  1  0
  8 44  1  0
  8 45  1  0
 12 46  1  0
 12 47  1  0
 14 48  1  0
 15 49  1  0
 17 50  1  0
 20 51  1  0
 27 52  1  0
 27 53  1  0
 27 54  1  0
 28 55  1  0
 28 56  1  0
 28 57  1  0
 29 58  1  0
 29 59  1  0
 29 60  1  0
 31 61  1  0
M  CHG  1  20  -1
M  END
>  <UniqueID>  (63) 
63

>  <SMILES>  (63) 
COC[C@@H]1C[C@H](C)CN1C(=O)Cc1ccc2cc(C([NH-])=O)n(C(=O)OC(C)(C)C)c2c1

>  <Energy>  (63) 
94.05322081078162

>  <Genealogy>  (63) 
COC[C@@H]1C[C@H](C)CN1C(=O)Cc1ccc2cc(C([NH-])=O)n(C(=O)OC(C)(C)C)c2c1 (protonated)
COC[C@@H]1C[C@H](C)CN1C(=O)Cc1ccc2cc(C([NH-])=O)n(C(=O)OC(C)(C)C)c2c1 (3D coordinates assigned)
COC[C@@H]1C[C@H](C)CN1C(=O)Cc1ccc2cc(C([NH-])=O)n(C(=O)OC(C)(C)C)c2c1 (nonaromatic ring conformer: 94.05322081078162 kcal/mol)

>  <smiles>  (63) 
COC[C@@H]1C[C@H](C)CN1C(=O)Cc1ccc2cc(C(N)=O)n(C(=O)OC(C)(C)C)c2c1

>  <score_type>  (63) 
oracle

>  <origin>  (63) 
adg

>  <m_score__min__energy>  (63) 
-9.0199999999999996

>  <m_primary>  (63) 
energy

$$$$
63:0
     RDKit          3D

 53 55  0  0  0  0  0  0  0  0999 V2000
  141.2380  152.5270  132.9340 C   0  0  0  0  0  0  0  0  0  0  0  0
  142.6090  152.6930  133.2790 O   0  0  0  0  0  0  0  0  0  0  0  0
  143.0830  153.8120  133.9700 C   0  0  0  0  0  0  0  0  0  0  0  0
  143.7450  153.6700  135.0360 O   0  0  0  0  0  0  0  0  0  0  0  0
  142.8070  155.1210  133.4530 N   0  0  0  0  0  0  0  0  0  0  0  0
  143.2240  156.3610  134.1150 C   0  0  2  0  0  0  0  0  0  0  0  0
  142.4190  156.5270  135.4190 C   0  0  0  0  0  0  0  0  0  0  0  0
  141.0690  157.2370  135.2380 C   0  0  0  0  0  0  0  0  0  0  0  0
  140.0020  156.3770  134.0240 S   0  0  0  0  0  0  0  0  0  0  0  0
  138.9260  157.8060  133.6700 C   0  0  0  0  0  0  0  0  0  0  0  0
  143.0300  157.5350  133.1810 C   0  0  0  0  0  0  0  0  0  0  0  0
  142.2300  157.4360  132.2130 O   0  0  0  0  0  0  0  0  0  0  0  0
  143.7690  158.7520  133.3580 N   0  0  0  0  0  0  0  0  0  0  0  0
  143.2740  160.0150  133.4960 C   0  0  0  0  0  0  0  0  0  0  0  0
  141.8440  160.3910  133.4560 C   0  0  0  0  0  0  0  0  0  0  0  0
  140.9850  159.9030  132.4300 N   0  0  0  0  0  0  0  0  0  0  0  0
  141.3770  161.1630  134.3360 O   0  0  0  0  0  0  0  0  0  0  0  0
  144.3150  160.9260  133.6680 C   0  0  0  0  0  0  0  0  0  0  0  0
  145.4690  160.1770  133.6160 C   0  0  0  0  0  0  0  0  0  0  0  0
  146.8020  160.5680  133.7110 C   0  0  0  0  0  0  0  0  0  0  0  0
  147.7900  159.5730  133.6130 C   0  0  0  0  0  0  0  0  0  0  0  0
  147.4350  158.2160  133.4260 C   0  0  0  0  0  0  0  0  0  0  0  0
  148.4690  157.2240  133.3130 N   0  0  0  0  0  0  0  0  0  0  0  0
  148.2440  155.8140  133.4720 C   0  0  0  0  0  0  0  0  0  0  0  0
  148.8550  154.9140  132.5920 C   0  0  0  0  0  0  0  0  0  0  0  0
  148.6450  153.5420  132.7500 C   0  0  0  0  0  0  0  0  0  0  0  0
  147.8710  153.0850  133.7710 N   0  0  0  0  0  0  0  0  0  0  0  0
  147.2850  153.9340  134.6570 C   0  0  0  0  0  0  0  0  0  0  0  0
  146.5340  153.4350  135.6680 F   0  0  0  0  0  0  0  0  0  0  0  0
  147.4610  155.3140  134.5290 C   0  0  0  0  0  0  0  0  0  0  0  0
  146.9070  156.1500  135.4440 F   0  0  0  0  0  0  0  0  0  0  0  0
  146.0710  157.8600  133.3080 C   0  0  0  0  0  0  0  0  0  0  0  0
  145.1100  158.8680  133.4240 C   0  0  0  0  0  0  0  0  0  0  0  0
  140.6353  152.4540  133.8513 H   0  0  0  0  0  0  0  0  0  0  0  0
  140.9017  153.3910  132.3421 H   0  0  0  0  0  0  0  0  0  0  0  0
  141.1176  151.6077  132.3421 H   0  0  0  0  0  0  0  0  0  0  0  0
  142.2270  155.1860  132.5840 H   0  0  0  0  0  0  0  0  0  0  0  0
  144.2931  156.3175  134.3700 H   0  0  0  0  0  0  0  0  0  0  0  0
  142.2300  155.5275  135.8376 H   0  0  0  0  0  0  0  0  0  0  0  0
  143.0230  157.1602  136.0855 H   0  0  0  0  0  0  0  0  0  0  0  0
  140.5507  157.2679  136.2078 H   0  0  0  0  0  0  0  0  0  0  0  0
  141.2655  158.2514  134.8605 H   0  0  0  0  0  0  0  0  0  0  0  0
  138.5885  158.2542  134.6162 H   0  0  0  0  0  0  0  0  0  0  0  0
  139.4877  158.5532  133.0901 H   0  0  0  0  0  0  0  0  0  0  0  0
  138.0527  157.4727  133.0901 H   0  0  0  0  0  0  0  0  0  0  0  0
  141.3580  159.3190  131.6480 H   0  0  0  0  0  0  0  0  0  0  0  0
  144.2320  162.0131  133.8143 H   0  0  0  0  0  0  0  0  0  0  0  0
  147.0737  161.6237  133.8583 H   0  0  0  0  0  0  0  0  0  0  0  0
  148.8516  159.8525  133.6825 H   0  0  0  0  0  0  0  0  0  0  0  0
  149.4300  157.5390  133.0410 H   0  0  0  0  0  0  0  0  0  0  0  0
  149.4975  155.2849  131.7798 H   0  0  0  0  0  0  0  0  0  0  0  0
  149.1057  152.8309  132.0485 H   0  0  0  0  0  0  0  0  0  0  0  0
  145.7742  156.8160  133.1294 H   0  0  0  0  0  0  0  0  0  0  0  0
  1  2  1  0
  2  3  1  0
  3  4  2  0
  3  5  1  0
  5  6  1  0
  6  7  1  0
  7  8  1  0
  8  9  1  0
  9 10  1  0
  6 11  1  0
 11 12  2  0
 11 13  1  0
 13 14  1  0
 14 15  1  0
 15 16  1  0
 15 17  2  0
 14 18  2  0
 18 19  1  0
 19 20  2  0
 20 21  1  0
 21 22  2  0
 22 23  1  0
 23 24  1  0
 24 25  2  0
 25 26  1  0
 26 27  2  0
 27 28  1  0
 28 29  1  0
 28 30  2  0
 30 31  1  0
 22 32  1  0
 32 33  2  0
 33 13  1  0
 33 19  1  0
 30 24  1  0
  1 34  1  0
  1 35  1  0
  1 36  1  0
  5 37  1  0
  6 38  1  1
  7 39  1  0
  7 40  1  0
  8 41  1  0
  8 42  1  0
 10 43  1  0
 10 44  1  0
 10 45  1  0
 16 46  1  0
 18 47  1  0
 20 48  1  0
 21 49  1  0
 23 50  1  0
 25 51  1  0
 26 52  1  0
 32 53  1  0
M  CHG  1  16  -1
M  END
>  <UniqueID>  (64) 
64

>  <SMILES>  (64) 
COC(=O)N[C@H](CCSC)C(=O)n1c(C([NH-])=O)cc2ccc(Nc3ccnc(F)c3F)cc21

>  <Energy>  (64) 
90.70980847724601

>  <Genealogy>  (64) 
COC(=O)NC(CCSC)C(=O)n1c(C([NH-])=O)cc2ccc(Nc3ccnc(F)c3F)cc21 (protonated)
COC(=O)N[C@H](CCSC)C(=O)n1c(C([NH-])=O)cc2ccc(Nc3ccnc(F)c3F)cc21 (chirality)
COC(=O)N[C@H](CCSC)C(=O)n1c(C([NH-])=O)cc2ccc(Nc3ccnc(F)c3F)cc21 (3D coordinates assigned)
COC(=O)N[C@H](CCSC)C(=O)n1c(C([NH-])=O)cc2ccc(Nc3ccnc(F)c3F)cc21 (optimized conformer: 90.70980847724601 kcal/mol)

>  <smiles>  (64) 
COC(=O)NC(CCSC)C(=O)n1c(C(N)=O)cc2ccc(Nc3ccnc(F)c3F)cc21

>  <score_type>  (64) 
oracle

>  <origin>  (64) 
adg

>  <m_score__min__energy>  (64) 
-8.7599999999999998

>  <m_primary>  (64) 
energy

$$$$
64:0
     RDKit          3D

 48 51  0  0  0  0  0  0  0  0999 V2000
  145.1700  158.3510  133.7300 C   0  0  0  0  0  0  0  0  0  0  0  0
  146.4540  157.6110  133.4730 C   0  0  0  0  0  0  0  0  0  0  0  0
  147.6020  158.3180  133.0820 C   0  0  0  0  0  0  0  0  0  0  0  0
  148.8000  157.6440  132.8390 C   0  0  0  0  0  0  0  0  0  0  0  0
  148.8620  156.2550  132.9750 C   0  0  0  0  0  0  0  0  0  0  0  0
  147.7260  155.5340  133.3520 C   0  0  0  0  0  0  0  0  0  0  0  0
  147.8330  153.7820  133.4790 Cl  0  0  0  0  0  0  0  0  0  0  0  0
  146.5150  156.2060  133.6020 C   0  0  0  0  0  0  0  0  0  0  0  0
  145.3480  155.4640  133.9840 N   0  0  0  0  0  0  0  0  0  0  0  0
  145.0010  155.2330  135.2390 N   0  0  0  0  0  0  0  0  0  0  0  0
  143.8680  154.5050  135.2470 C   0  0  0  0  0  0  0  0  0  0  0  0
  143.1800  154.0510  136.4950 C   0  0  0  0  0  0  0  0  0  0  0  0
  143.4870  154.2480  133.9330 C   0  0  0  0  0  0  0  0  0  0  0  0
  142.3190  153.4740  133.4660 C   0  0  0  0  0  0  0  0  0  0  0  0
  141.0460  154.0890  133.3710 C   0  0  0  0  0  0  0  0  0  0  0  0
  139.9230  153.3550  132.9540 C   0  0  0  0  0  0  0  0  0  0  0  0
  140.1050  152.0130  132.6320 C   0  0  0  0  0  0  0  0  0  0  0  0
  139.1880  151.0690  132.2320 C   0  0  0  0  0  0  0  0  0  0  0  0
  139.9180  149.8940  132.0640 C   0  0  0  0  0  0  0  0  0  0  0  0
  139.3300  148.6360  131.5590 C   0  0  0  0  0  0  0  0  0  0  0  0
  140.1830  147.5850  131.1090 N   0  0  0  0  0  0  0  0  0  0  0  0
  138.0820  148.4630  131.5500 O   0  0  0  0  0  0  0  0  0  0  0  0
  141.2340  150.1030  132.3550 N   0  0  0  0  0  0  0  0  0  0  0  0
  142.2980  149.1380  132.3720 C   0  0  0  0  0  0  0  0  0  0  0  0
  143.3970  149.3910  131.8130 O   0  0  0  0  0  0  0  0  0  0  0  0
  142.1140  147.9020  132.9800 O   0  0  0  0  0  0  0  0  0  0  0  0
  141.3310  151.4060  132.6990 C   0  0  0  0  0  0  0  0  0  0  0  0
  142.4640  152.1100  133.1270 C   0  0  0  0  0  0  0  0  0  0  0  0
  144.4580  154.8710  133.1570 C   0  0  0  0  0  0  0  0  0  0  0  0
  144.5420  154.8830  131.6590 C   0  0  0  0  0  0  0  0  0  0  0  0
  145.0105  158.4429  134.8145 H   0  0  0  0  0  0  0  0  0  0  0  0
  145.2287  159.3538  133.2817 H   0  0  0  0  0  0  0  0  0  0  0  0
  144.3317  157.7975  133.2817 H   0  0  0  0  0  0  0  0  0  0  0  0
  147.5572  159.4110  132.9663 H   0  0  0  0  0  0  0  0  0  0  0  0
  149.6963  158.2072  132.5401 H   0  0  0  0  0  0  0  0  0  0  0  0
  149.8082  155.7272  132.7847 H   0  0  0  0  0  0  0  0  0  0  0  0
  145.5270  155.5710  136.0760 H   0  0  0  0  0  0  0  0  0  0  0  0
  143.7336  154.4163  137.3725 H   0  0  0  0  0  0  0  0  0  0  0  0
  142.1555  154.4510  136.5152 H   0  0  0  0  0  0  0  0  0  0  0  0
  143.1449  152.9517  136.5152 H   0  0  0  0  0  0  0  0  0  0  0  0
  140.9358  155.1532  133.6266 H   0  0  0  0  0  0  0  0  0  0  0  0
  138.9313  153.8258  132.8841 H   0  0  0  0  0  0  0  0  0  0  0  0
  138.1082  151.2113  132.0776 H   0  0  0  0  0  0  0  0  0  0  0  0
  141.2160  147.7270  131.0360 H   0  0  0  0  0  0  0  0  0  0  0  0
  143.4428  151.6130  133.1974 H   0  0  0  0  0  0  0  0  0  0  0  0
  145.5876  155.0323  131.3516 H   0  0  0  0  0  0  0  0  0  0  0  0
  144.1769  153.9236  131.2636 H   0  0  0  0  0  0  0  0  0  0  0  0
  143.9231  155.7019  131.2636 H   0  0  0  0  0  0  0  0  0  0  0  0
  1  2  1  0
  2  3  2  0
  3  4  1  0
  4  5  2  0
  5  6  1  0
  6  7  1  0
  6  8  2  0
  8  9  1  0
  9 10  1  0
 10 11  2  0
 11 12  1  0
 11 13  1  0
 13 14  1  0
 14 15  2  0
 15 16  1  0
 16 17  2  0
 17 18  1  0
 18 19  2  0
 19 20  1  0
 20 21  1  0
 20 22  2  0
 19 23  1  0
 23 24  1  0
 24 25  2  0
 24 26  1  0
 23 27  1  0
 27 28  2  0
 13 29  2  0
 29 30  1  0
  8  2  1  0
 29  9  1  0
 28 14  1  0
 27 17  1  0
  1 31  1  0
  1 32  1  0
  1 33  1  0
  3 34  1  0
  4 35  1  0
  5 36  1  0
 10 37  1  0
 12 38  1  0
 12 39  1  0
 12 40  1  0
 15 41  1  0
 16 42  1  0
 18 43  1  0
 21 44  1  0
 28 45  1  0
 30 46  1  0
 30 47  1  0
 30 48  1  0
M  CHG  3  10   1  21  -1  26  -1
M  END
>  <UniqueID>  (65) 
65

>  <SMILES>  (65) 
Cc1cccc(Cl)c1-n1[nH+]c(C)c(-c2ccc3cc(C([NH-])=O)n(C(=O)[O-])c3c2)c1C

>  <Energy>  (65) 
132.468196017944

>  <Genealogy>  (65) 
Cc1cccc(Cl)c1-n1[nH+]c(C)c(-c2ccc3cc(C([NH-])=O)n(C(=O)[O-])c3c2)c1C (protonated)
Cc1cccc(Cl)c1-n1[nH+]c(C)c(-c2ccc3cc(C([NH-])=O)n(C(=O)[O-])c3c2)c1C (3D coordinates assigned)
Cc1cccc(Cl)c1-n1[nH+]c(C)c(-c2ccc3cc(C([NH-])=O)n(C(=O)[O-])c3c2)c1C (optimized conformer: 132.468196017944 kcal/mol)

>  <smiles>  (65) 
Cc1cccc(Cl)c1-n1nc(C)c(-c2ccc3cc(C(N)=O)n(C(=O)O)c3c2)c1C

>  <score_type>  (65) 
oracle

>  <origin>  (65) 
adg

>  <m_score__min__energy>  (65) 
-8.5600000000000005

>  <m_primary>  (65) 
energy

$$$$
65:0
     RDKit          3D

 31 32  0  0  0  0  0  0  0  0999 V2000
  138.9020  156.6450  133.4200 N   0  0  0  0  0  0  0  0  0  0  0  0
  140.1100  155.9620  133.0770 C   0  0  0  0  0  0  0  0  0  0  0  0
  140.0460  154.7790  132.6520 O   0  0  0  0  0  0  0  0  0  0  0  0
  141.4250  156.6190  133.2530 C   0  0  0  0  0  0  0  0  0  0  0  0
  142.6330  155.9290  133.3390 C   0  0  0  0  0  0  0  0  0  0  0  0
  143.6050  156.9000  133.3940 C   0  0  0  0  0  0  0  0  0  0  0  0
  144.9880  156.7780  133.4880 C   0  0  0  0  0  0  0  0  0  0  0  0
  145.7520  157.9550  133.5470 C   0  0  0  0  0  0  0  0  0  0  0  0
  145.1230  159.2240  133.5330 C   0  0  0  0  0  0  0  0  0  0  0  0
  145.9510  160.4740  133.5740 C   0  0  0  0  0  0  0  0  0  0  0  0
  145.2210  161.4920  134.1590 F   0  0  0  0  0  0  0  0  0  0  0  0
  143.7180  159.3110  133.4220 C   0  0  0  0  0  0  0  0  0  0  0  0
  142.9820  158.1220  133.3440 C   0  0  0  0  0  0  0  0  0  0  0  0
  141.6430  157.9660  133.2570 N   0  0  0  0  0  0  0  0  0  0  0  0
  140.6610  159.0150  133.2370 C   0  0  0  0  0  0  0  0  0  0  0  0
  140.3940  159.6030  132.1530 O   0  0  0  0  0  0  0  0  0  0  0  0
  139.9990  159.3640  134.4220 O   0  0  0  0  0  0  0  0  0  0  0  0
  140.0260  158.6190  135.6100 C   0  0  0  0  0  0  0  0  0  0  0  0
  139.1140  157.7910  135.8810 O   0  0  0  0  0  0  0  0  0  0  0  0
  141.1870  158.7650  136.5380 C   0  0  0  0  0  0  0  0  0  0  0  0
  142.1910  159.4750  135.9060 F   0  0  0  0  0  0  0  0  0  0  0  0
  140.7990  159.4450  137.6780 F   0  0  0  0  0  0  0  0  0  0  0  0
  141.6660  157.5190  136.8970 F   0  0  0  0  0  0  0  0  0  0  0  0
  138.9100  157.6420  133.7230 H   0  0  0  0  0  0  0  0  0  0  0  0
  137.9830  156.1580  133.3290 H   0  0  0  0  0  0  0  0  0  0  0  0
  142.7780  154.8388  133.3587 H   0  0  0  0  0  0  0  0  0  0  0  0
  145.4687  155.7889  133.5153 H   0  0  0  0  0  0  0  0  0  0  0  0
  146.8486  157.8908  133.6046 H   0  0  0  0  0  0  0  0  0  0  0  0
  146.8620  160.2911  134.1628 H   0  0  0  0  0  0  0  0  0  0  0  0
  146.2281  160.7637  132.5497 H   0  0  0  0  0  0  0  0  0  0  0  0
  143.2140  160.2885  133.3974 H   0  0  0  0  0  0  0  0  0  0  0  0
  1  2  1  0
  2  3  2  0
  2  4  1  0
  4  5  2  0
  5  6  1  0
  6  7  2  0
  7  8  1  0
  8  9  2  0
  9 10  1  0
 10 11  1  0
  9 12  1  0
 12 13  2  0
 13 14  1  0
 14 15  1  0
 15 16  2  0
 15 17  1  0
 17 18  1  0
 18 19  2  0
 18 20  1  0
 20 21  1  0
 20 22  1  0
 20 23  1  0
 14  4  1  0
 13  6  1  0
  1 24  1  0
  1 25  1  0
  5 26  1  0
  7 27  1  0
  8 28  1  0
 10 29  1  0
 10 30  1  0
 12 31  1  0
M  END
>  <UniqueID>  (66) 
66

>  <SMILES>  (66) 
NC(=O)c1cc2ccc(CF)cc2n1C(=O)OC(=O)C(F)(F)F

>  <Energy>  (66) 
68.89166643720618

>  <Genealogy>  (66) 
NC(=O)c1cc2ccc(CF)cc2n1C(=O)OC(=O)C(F)(F)F (3D coordinates assigned)
NC(=O)c1cc2ccc(CF)cc2n1C(=O)OC(=O)C(F)(F)F (optimized conformer: 68.89166643720618 kcal/mol)

>  <smiles>  (66) 
NC(=O)c1cc2ccc(CF)cc2n1C(=O)OC(=O)C(F)(F)F

>  <score_type>  (66) 
oracle

>  <origin>  (66) 
adg

>  <m_score__min__energy>  (66) 
-6.0300000000000002

>  <m_primary>  (66) 
energy

$$$$
66:0
     RDKit          3D

 37 38  0  0  0  0  0  0  0  0999 V2000
  137.0990  160.0780  130.7160 C   0  0  0  0  0  0  0  0  0  0  0  0
  138.1050  159.8310  131.7540 N   0  0  0  0  0  0  0  0  0  0  0  0
  139.1110  160.8960  131.8360 C   0  0  0  0  0  0  0  0  0  0  0  0
  138.8420  158.2040  131.6430 S   0  0  0  0  0  0  0  0  0  0  0  0
  138.6580  157.6580  133.3900 C   0  0  0  0  0  0  0  0  0  0  0  0
  139.5750  158.4530  134.3260 C   0  0  0  0  0  0  0  0  0  0  0  0
  141.0310  158.1840  134.0480 C   0  0  0  0  0  0  0  0  0  0  0  0
  141.4700  156.8680  133.7570 C   0  0  0  0  0  0  0  0  0  0  0  0
  142.8270  156.6050  133.5090 C   0  0  0  0  0  0  0  0  0  0  0  0
  143.7200  157.6710  133.5710 C   0  0  0  0  0  0  0  0  0  0  0  0
  145.0790  157.6990  133.3550 C   0  0  0  0  0  0  0  0  0  0  0  0
  145.4560  159.0270  133.5460 C   0  0  0  0  0  0  0  0  0  0  0  0
  146.8580  159.4990  133.5020 C   0  0  0  0  0  0  0  0  0  0  0  0
  147.1590  160.8640  133.2030 N   0  0  0  0  0  0  0  0  0  0  0  0
  147.8050  158.6910  133.6960 O   0  0  0  0  0  0  0  0  0  0  0  0
  144.3720  159.7910  133.8660 N   0  0  0  0  0  0  0  0  0  0  0  0
  144.3320  161.2120  134.0820 C   0  0  0  0  0  0  0  0  0  0  0  0
  145.1660  161.7640  134.8460 O   0  0  0  0  0  0  0  0  0  0  0  0
  143.3800  161.9930  133.4400 O   0  0  0  0  0  0  0  0  0  0  0  0
  143.3170  158.9450  133.8770 C   0  0  0  0  0  0  0  0  0  0  0  0
  141.9680  159.2390  134.1090 C   0  0  0  0  0  0  0  0  0  0  0  0
  136.1346  160.3148  131.1891 H   0  0  0  0  0  0  0  0  0  0  0  0
  137.4181  160.9245  130.0902 H   0  0  0  0  0  0  0  0  0  0  0  0
  136.9897  159.1800  130.0902 H   0  0  0  0  0  0  0  0  0  0  0  0
  139.3226  161.1200  132.8920 H   0  0  0  0  0  0  0  0  0  0  0  0
  140.0352  160.5665  131.3388 H   0  0  0  0  0  0  0  0  0  0  0  0
  138.7294  161.7999  131.3388 H   0  0  0  0  0  0  0  0  0  0  0  0
  137.6137  157.8054  133.7025 H   0  0  0  0  0  0  0  0  0  0  0  0
  138.9388  156.5962  133.4513 H   0  0  0  0  0  0  0  0  0  0  0  0
  139.3791  159.5266  134.1883 H   0  0  0  0  0  0  0  0  0  0  0  0
  139.3617  158.1402  135.3588 H   0  0  0  0  0  0  0  0  0  0  0  0
  140.7409  156.0450  133.7251 H   0  0  0  0  0  0  0  0  0  0  0  0
  143.1735  155.5880  133.2730 H   0  0  0  0  0  0  0  0  0  0  0  0
  145.7294  156.8529  133.0883 H   0  0  0  0  0  0  0  0  0  0  0  0
  148.1520  161.1780  133.1340 H   0  0  0  0  0  0  0  0  0  0  0  0
  146.4030  161.5750  133.0900 H   0  0  0  0  0  0  0  0  0  0  0  0
  141.6458  160.2665  134.3333 H   0  0  0  0  0  0  0  0  0  0  0  0
  1  2  1  0
  2  3  1  0
  2  4  1  0
  4  5  1  0
  5  6  1  0
  6  7  1  0
  7  8  2  0
  8  9  1  0
  9 10  2  0
 10 11  1  0
 11 12  2  0
 12 13  1  0
 13 14  1  0
 13 15  2  0
 12 16  1  0
 16 17  1  0
 17 18  2  0
 17 19  1  0
 16 20  1  0
 20 21  2  0
 21  7  1  0
 20 10  1  0
  1 22  1  0
  1 23  1  0
  1 24  1  0
  3 25  1  0
  3 26  1  0
  3 27  1  0
  5 28  1  0
  5 29  1  0
  6 30  1  0
  6 31  1  0
  8 32  1  0
  9 33  1  0
 11 34  1  0
 14 35  1  0
 14 36  1  0
 21 37  1  0
M  CHG  1  19  -1
M  END
>  <UniqueID>  (67) 
67

>  <SMILES>  (67) 
CN(C)SCCc1ccc2cc(C(N)=O)n(C(=O)[O-])c2c1

>  <Energy>  (67) 
76.77797641865017

>  <Genealogy>  (67) 
CN(C)SCCc1ccc2cc(C(N)=O)n(C(=O)[O-])c2c1 (protonated)
CN(C)SCCc1ccc2cc(C(N)=O)n(C(=O)[O-])c2c1 (3D coordinates assigned)
CN(C)SCCc1ccc2cc(C(N)=O)n(C(=O)[O-])c2c1 (optimized conformer: 76.77797641865017 kcal/mol)

>  <smiles>  (67) 
CN(C)SCCc1ccc2cc(C(N)=O)n(C(=O)O)c2c1

>  <score_type>  (67) 
oracle

>  <origin>  (67) 
adg

>  <m_score__min__energy>  (67) 
-6.5999999999999996

>  <m_primary>  (67) 
energy

$$$$
67:0
     RDKit          3D

 54 55  0  0  0  0  0  0  0  0999 V2000
  142.3650  154.6550  133.3590 C   0  0  0  0  0  0  0  0  0  0  0  0
  143.4900  153.6620  133.4280 C   0  0  0  0  0  0  0  0  0  0  0  0
  143.7210  153.1160  134.4970 O   0  0  0  0  0  0  0  0  0  0  0  0
  144.2760  153.3430  132.2490 N   0  0  1  0  0  0  0  0  0  0  0  0
  144.3640  154.4900  131.3250 C   0  0  0  0  0  0  0  0  0  0  0  0
  145.6030  152.7760  132.5910 C   0  0  0  0  0  0  0  0  0  0  0  0
  146.4470  153.6220  133.5790 C   0  0  0  0  0  0  0  0  0  0  0  0
  147.5520  154.4160  132.8670 C   0  0  0  0  0  0  0  0  0  0  0  0
  147.3390  155.8950  133.0440 C   0  0  0  0  0  0  0  0  0  0  0  0
  148.4410  156.7870  133.0240 C   0  0  0  0  0  0  0  0  0  0  0  0
  148.2450  158.1690  133.1790 C   0  0  0  0  0  0  0  0  0  0  0  0
  146.9400  158.6310  133.3320 C   0  0  0  0  0  0  0  0  0  0  0  0
  146.4650  159.9090  133.5230 C   0  0  0  0  0  0  0  0  0  0  0  0
  145.0800  159.7800  133.6170 C   0  0  0  0  0  0  0  0  0  0  0  0
  144.1600  160.9300  133.7480 C   0  0  0  0  0  0  0  0  0  0  0  0
  142.7880  160.8200  133.3810 N   0  0  0  0  0  0  0  0  0  0  0  0
  144.6020  162.0390  134.1520 O   0  0  0  0  0  0  0  0  0  0  0  0
  144.7160  158.4720  133.4950 N   0  0  0  0  0  0  0  0  0  0  0  0
  143.4040  157.9030  133.5970 C   0  0  0  0  0  0  0  0  0  0  0  0
  142.6290  157.9410  132.6040 O   0  0  0  0  0  0  0  0  0  0  0  0
  142.9910  157.3480  134.8180 O   0  0  0  0  0  0  0  0  0  0  0  0
  141.7710  157.6370  135.5140 C   0  0  0  0  0  0  0  0  0  0  0  0
  140.5600  157.3910  134.5960 C   0  0  0  0  0  0  0  0  0  0  0  0
  141.8100  159.1230  135.9010 C   0  0  0  0  0  0  0  0  0  0  0  0
  141.6600  156.7930  136.7990 C   0  0  0  0  0  0  0  0  0  0  0  0
  145.8630  157.7830  133.3210 C   0  0  0  0  0  0  0  0  0  0  0  0
  146.0290  156.4010  133.1890 C   0  0  0  0  0  0  0  0  0  0  0  0
  142.0547  154.9289  134.3781 H   0  0  0  0  0  0  0  0  0  0  0  0
  142.7026  155.5550  132.8242 H   0  0  0  0  0  0  0  0  0  0  0  0
  141.5139  154.2083  132.8242 H   0  0  0  0  0  0  0  0  0  0  0  0
  143.7680  152.5970  131.7190 H   0  0  0  0  0  0  0  0  0  0  0  0
  144.4355  155.4226  131.9039 H   0  0  0  0  0  0  0  0  0  0  0  0
  145.2565  154.3826  130.6911 H   0  0  0  0  0  0  0  0  0  0  0  0
  143.4655  154.5200  130.6911 H   0  0  0  0  0  0  0  0  0  0  0  0
  145.4440  151.7850  133.0412 H   0  0  0  0  0  0  0  0  0  0  0  0
  146.1734  152.7448  131.6510 H   0  0  0  0  0  0  0  0  0  0  0  0
  145.7821  154.3280  134.0981 H   0  0  0  0  0  0  0  0  0  0  0  0
  146.9300  152.9320  134.2866 H   0  0  0  0  0  0  0  0  0  0  0  0
  148.5279  154.1379  133.2916 H   0  0  0  0  0  0  0  0  0  0  0  0
  147.5230  154.1795  131.7931 H   0  0  0  0  0  0  0  0  0  0  0  0
  149.4587  156.3930  132.8858 H   0  0  0  0  0  0  0  0  0  0  0  0
  149.0964  158.8655  133.1795 H   0  0  0  0  0  0  0  0  0  0  0  0
  147.0538  160.8359  133.5877 H   0  0  0  0  0  0  0  0  0  0  0  0
  142.4730  160.1110  132.6830 H   0  0  0  0  0  0  0  0  0  0  0  0
  139.6655  157.2093  135.2098 H   0  0  0  0  0  0  0  0  0  0  0  0
  140.3958  158.2741  133.9611 H   0  0  0  0  0  0  0  0  0  0  0  0
  140.7534  156.5138  133.9611 H   0  0  0  0  0  0  0  0  0  0  0  0
  141.8125  159.2165  136.9970 H   0  0  0  0  0  0  0  0  0  0  0  0
  142.7206  159.5848  135.4916 H   0  0  0  0  0  0  0  0  0  0  0  0
  140.9249  159.6319  135.4916 H   0  0  0  0  0  0  0  0  0  0  0  0
  141.7463  157.4494  137.6774 H   0  0  0  0  0  0  0  0  0  0  0  0
  140.6868  156.2807  136.8183 H   0  0  0  0  0  0  0  0  0  0  0  0
  142.4677  156.0465  136.8183 H   0  0  0  0  0  0  0  0  0  0  0  0
  145.1611  155.7252  133.1979 H   0  0  0  0  0  0  0  0  0  0  0  0
  1  2  1  0
  2  3  2  0
  2  4  1  0
  4  5  1  0
  4  6  1  0
  6  7  1  0
  7  8  1  0
  8  9  1  0
  9 10  2  0
 10 11  1  0
 11 12  2  0
 12 13  1  0
 13 14  2  0
 14 15  1  0
 15 16  1  0
 15 17  2  0
 14 18  1  0
 18 19  1  0
 19 20  2  0
 19 21  1  0
 21 22  1  0
 22 23  1  0
 22 24  1  0
 22 25  1  0
 18 26  1  0
 26 27  2  0
 27  9  1  0
 26 12  1  0
  1 28  1  0
  1 29  1  0
  1 30  1  0
  4 31  1  6
  5 32  1  0
  5 33  1  0
  5 34  1  0
  6 35  1  0
  6 36  1  0
  7 37  1  0
  7 38  1  0
  8 39  1  0
  8 40  1  0
 10 41  1  0
 11 42  1  0
 13 43  1  0
 16 44  1  0
 23 45  1  0
 23 46  1  0
 23 47  1  0
 24 48  1  0
 24 49  1  0
 24 50  1  0
 25 51  1  0
 25 52  1  0
 25 53  1  0
 27 54  1  0
M  CHG  2   4   1  16  -1
M  END
>  <UniqueID>  (68) 
68

>  <SMILES>  (68) 
CC(=O)[N@@H+](C)CCCc1ccc2cc(C([NH-])=O)n(C(=O)OC(C)(C)C)c2c1

>  <Energy>  (68) 
87.57841633869477

>  <Genealogy>  (68) 
CC(=O)[NH+](C)CCCc1ccc2cc(C([NH-])=O)n(C(=O)OC(C)(C)C)c2c1 (protonated)
CC(=O)[N@@H+](C)CCCc1ccc2cc(C([NH-])=O)n(C(=O)OC(C)(C)C)c2c1 (chirality)
CC(=O)[N@@H+](C)CCCc1ccc2cc(C([NH-])=O)n(C(=O)OC(C)(C)C)c2c1 (3D coordinates assigned)
CC(=O)[N@@H+](C)CCCc1ccc2cc(C([NH-])=O)n(C(=O)OC(C)(C)C)c2c1 (optimized conformer: 87.57841633869477 kcal/mol)

>  <smiles>  (68) 
CC(=O)N(C)CCCc1ccc2cc(C(N)=O)n(C(=O)OC(C)(C)C)c2c1

>  <score_type>  (68) 
oracle

>  <origin>  (68) 
adg

>  <m_score__min__energy>  (68) 
-7.5999999999999996

>  <m_primary>  (68) 
energy

$$$$
68:0
     RDKit          3D

 39 41  0  0  0  0  0  0  0  0999 V2000
  149.8020  160.1260  130.3750 C   0  0  0  0  0  0  0  0  0  0  0  0
  149.8630  159.4060  131.6000 O   0  0  0  0  0  0  0  0  0  0  0  0
  148.7870  159.3440  132.4900 C   0  0  0  0  0  0  0  0  0  0  0  0
  148.9730  159.0660  133.7070 O   0  0  0  0  0  0  0  0  0  0  0  0
  147.4060  159.6540  132.0000 C   0  0  0  0  0  0  0  0  0  0  0  0
  146.5000  160.1340  133.1410 C   0  0  0  0  0  0  0  0  0  0  0  0
  145.4400  159.1170  133.4760 C   0  0  0  0  0  0  0  0  0  0  0  0
  145.8080  157.8110  133.8870 C   0  0  0  0  0  0  0  0  0  0  0  0
  144.8260  156.8420  134.1560 C   0  0  0  0  0  0  0  0  0  0  0  0
  143.4910  157.2070  134.0100 C   0  0  0  0  0  0  0  0  0  0  0  0
  142.3450  156.4630  134.1710 C   0  0  0  0  0  0  0  0  0  0  0  0
  141.2950  157.3290  133.8670 C   0  0  0  0  0  0  0  0  0  0  0  0
  139.8680  156.9500  133.9590 C   0  0  0  0  0  0  0  0  0  0  0  0
  139.2250  156.2490  132.8990 N   0  0  0  0  0  0  0  0  0  0  0  0
  139.2000  157.2780  134.9760 O   0  0  0  0  0  0  0  0  0  0  0  0
  141.7760  158.5600  133.5340 N   0  0  0  0  0  0  0  0  0  0  0  0
  141.0280  159.7020  133.0880 C   0  0  0  0  0  0  0  0  0  0  0  0
  141.3520  160.8540  133.4830 O   0  0  0  0  0  0  0  0  0  0  0  0
  139.8900  159.5360  132.1740 C   0  0  0  0  0  0  0  0  0  0  0  0
  138.9230  160.4750  131.8840 C   0  0  0  0  0  0  0  0  0  0  0  0
  138.1020  159.8320  130.9830 C   0  0  0  0  0  0  0  0  0  0  0  0
  138.5690  158.5880  130.7610 N   0  0  0  0  0  0  0  0  0  0  0  0
  139.6390  158.4460  131.4880 O   0  0  0  0  0  0  0  0  0  0  0  0
  143.1190  158.4680  133.6210 C   0  0  0  0  0  0  0  0  0  0  0  0
  144.0740  159.4470  133.3270 C   0  0  0  0  0  0  0  0  0  0  0  0
  149.7109  161.2017  130.5861 H   0  0  0  0  0  0  0  0  0  0  0  0
  150.7189  159.9424  129.7957 H   0  0  0  0  0  0  0  0  0  0  0  0
  148.9290  159.7908  129.7957 H   0  0  0  0  0  0  0  0  0  0  0  0
  147.4665  160.4426  131.2355 H   0  0  0  0  0  0  0  0  0  0  0  0
  146.9740  158.7339  131.5796 H   0  0  0  0  0  0  0  0  0  0  0  0
  147.1164  160.3139  134.0341 H   0  0  0  0  0  0  0  0  0  0  0  0
  145.9987  161.0575  132.8156 H   0  0  0  0  0  0  0  0  0  0  0  0
  146.8719  157.5537  133.9964 H   0  0  0  0  0  0  0  0  0  0  0  0
  145.1043  155.8259  134.4724 H   0  0  0  0  0  0  0  0  0  0  0  0
  142.2723  155.4084  134.4751 H   0  0  0  0  0  0  0  0  0  0  0  0
  138.7330  156.7640  132.1340 H   0  0  0  0  0  0  0  0  0  0  0  0
  138.8289  161.4973  132.2790 H   0  0  0  0  0  0  0  0  0  0  0  0
  137.2051  160.2668  130.5176 H   0  0  0  0  0  0  0  0  0  0  0  0
  143.7694  160.4483  132.9884 H   0  0  0  0  0  0  0  0  0  0  0  0
  1  2  1  0
  2  3  1  0
  3  4  2  0
  3  5  1  0
  5  6  1  0
  6  7  1  0
  7  8  2  0
  8  9  1  0
  9 10  2  0
 10 11  1  0
 11 12  2  0
 12 13  1  0
 13 14  1  0
 13 15  2  0
 12 16  1  0
 16 17  1  0
 17 18  2  0
 17 19  1  0
 19 20  2  0
 20 21  1  0
 21 22  2  0
 22 23  1  0
 16 24  1  0
 24 25  2  0
 25  7  1  0
 24 10  1  0
 23 19  1  0
  1 26  1  0
  1 27  1  0
  1 28  1  0
  5 29  1  0
  5 30  1  0
  6 31  1  0
  6 32  1  0
  8 33  1  0
  9 34  1  0
 11 35  1  0
 14 36  1  0
 20 37  1  0
 21 38  1  0
 25 39  1  0
M  CHG  1  14  -1
M  END
>  <UniqueID>  (69) 
69

>  <SMILES>  (69) 
COC(=O)CCc1ccc2cc(C([NH-])=O)n(C(=O)c3ccno3)c2c1

>  <Energy>  (69) 
104.13582955656662

>  <Genealogy>  (69) 
COC(=O)CCc1ccc2cc(C([NH-])=O)n(C(=O)c3ccno3)c2c1 (protonated)
COC(=O)CCc1ccc2cc(C([NH-])=O)n(C(=O)c3ccno3)c2c1 (3D coordinates assigned)
COC(=O)CCc1ccc2cc(C([NH-])=O)n(C(=O)c3ccno3)c2c1 (optimized conformer: 104.13582955656662 kcal/mol)

>  <smiles>  (69) 
COC(=O)CCc1ccc2cc(C(N)=O)n(C(=O)c3ccno3)c2c1

>  <score_type>  (69) 
oracle

>  <origin>  (69) 
adg

>  <m_score__min__energy>  (69) 
-7.6699999999999999

>  <m_primary>  (69) 
energy

$$$$
69:0
     RDKit          3D

 40 41  0  0  0  0  0  0  0  0999 V2000
  149.2280  156.0770  140.5090 C   0  0  0  0  0  0  0  0  0  0  0  0
  148.5590  154.7530  140.8410 C   0  0  0  0  0  0  0  0  0  0  0  0
  147.5440  154.4750  139.8810 O   0  0  0  0  0  0  0  0  0  0  0  0
  147.8180  153.8560  138.6570 C   0  0  0  0  0  0  0  0  0  0  0  0
  148.8050  154.2150  137.9590 O   0  0  0  0  0  0  0  0  0  0  0  0
  146.9040  152.7930  138.1510 C   0  0  0  0  0  0  0  0  0  0  0  0
  146.6040  153.0480  136.7500 N   0  0  0  0  0  0  0  0  0  0  0  0
  145.3980  153.6500  136.2640 C   0  0  0  0  0  0  0  0  0  0  0  0
  144.5540  154.0680  137.1010 O   0  0  0  0  0  0  0  0  0  0  0  0
  145.1400  153.8550  134.7920 C   0  0  0  0  0  0  0  0  0  0  0  0
  146.2040  154.7260  134.1760 C   0  0  0  0  0  0  0  0  0  0  0  0
  147.4590  154.1700  133.8290 C   0  0  0  0  0  0  0  0  0  0  0  0
  148.4580  154.9670  133.2480 C   0  0  0  0  0  0  0  0  0  0  0  0
  148.1640  156.3050  133.0010 C   0  0  0  0  0  0  0  0  0  0  0  0
  148.9530  157.3000  132.4720 C   0  0  0  0  0  0  0  0  0  0  0  0
  148.1480  158.4350  132.4530 C   0  0  0  0  0  0  0  0  0  0  0  0
  148.5890  159.7340  131.9100 C   0  0  0  0  0  0  0  0  0  0  0  0
  147.7420  160.8820  131.9640 N   0  0  0  0  0  0  0  0  0  0  0  0
  149.7120  159.8210  131.3430 O   0  0  0  0  0  0  0  0  0  0  0  0
  146.9130  158.1620  132.9630 N   0  0  0  0  0  0  0  0  0  0  0  0
  145.8370  159.0870  133.1930 C   0  0  0  0  0  0  0  0  0  0  0  0
  144.7250  158.9230  132.6240 O   0  0  0  0  0  0  0  0  0  0  0  0
  146.0090  160.1640  134.0500 O   0  0  0  0  0  0  0  0  0  0  0  0
  146.9390  156.8510  133.2940 C   0  0  0  0  0  0  0  0  0  0  0  0
  145.9360  156.0860  133.9020 C   0  0  0  0  0  0  0  0  0  0  0  0
  149.4915  156.5985  141.4410 H   0  0  0  0  0  0  0  0  0  0  0  0
  150.1399  155.8902  139.9229 H   0  0  0  0  0  0  0  0  0  0  0  0
  148.5367  156.7003  139.9229 H   0  0  0  0  0  0  0  0  0  0  0  0
  149.3097  153.9492  140.8229 H   0  0  0  0  0  0  0  0  0  0  0  0
  148.1073  154.8135  141.8422 H   0  0  0  0  0  0  0  0  0  0  0  0
  147.3904  151.8114  138.2505 H   0  0  0  0  0  0  0  0  0  0  0  0
  145.9722  152.7973  138.7356 H   0  0  0  0  0  0  0  0  0  0  0  0
  145.1378  152.8777  134.2872 H   0  0  0  0  0  0  0  0  0  0  0  0
  144.1659  154.3517  134.6717 H   0  0  0  0  0  0  0  0  0  0  0  0
  147.6531  153.1036  134.0164 H   0  0  0  0  0  0  0  0  0  0  0  0
  149.4429  154.5471  132.9957 H   0  0  0  0  0  0  0  0  0  0  0  0
  149.9970  157.2164  132.1359 H   0  0  0  0  0  0  0  0  0  0  0  0
  146.7450  160.8020  132.2590 H   0  0  0  0  0  0  0  0  0  0  0  0
  148.0930  161.8090  131.6340 H   0  0  0  0  0  0  0  0  0  0  0  0
  144.9643  156.5324  134.1597 H   0  0  0  0  0  0  0  0  0  0  0  0
  1  2  1  0
  2  3  1  0
  3  4  1  0
  4  5  2  0
  4  6  1  0
  6  7  1  0
  7  8  1  0
  8  9  2  0
  8 10  1  0
 10 11  1  0
 11 12  2  0
 12 13  1  0
 13 14  2  0
 14 15  1  0
 15 16  2  0
 16 17  1  0
 17 18  1  0
 17 19  2  0
 16 20  1  0
 20 21  1  0
 21 22  2  0
 21 23  1  0
 20 24  1  0
 24 25  2  0
 25 11  1  0
 24 14  1  0
  1 26  1  0
  1 27  1  0
  1 28  1  0
  2 29  1  0
  2 30  1  0
  6 31  1  0
  6 32  1  0
 10 33  1  0
 10 34  1  0
 12 35  1  0
 13 36  1  0
 15 37  1  0
 18 38  1  0
 18 39  1  0
 25 40  1  0
M  CHG  2   7  -1  23  -1
M  END
>  <UniqueID>  (70) 
70

>  <SMILES>  (70) 
CCOC(=O)C[N-]C(=O)Cc1ccc2cc(C(N)=O)n(C(=O)[O-])c2c1

>  <Energy>  (70) 
71.61917037463618

>  <Genealogy>  (70) 
CCOC(=O)C[N-]C(=O)Cc1ccc2cc(C(N)=O)n(C(=O)[O-])c2c1 (protonated)
CCOC(=O)C[N-]C(=O)Cc1ccc2cc(C(N)=O)n(C(=O)[O-])c2c1 (3D coordinates assigned)
CCOC(=O)C[N-]C(=O)Cc1ccc2cc(C(N)=O)n(C(=O)[O-])c2c1 (optimized conformer: 71.61917037463618 kcal/mol)

>  <smiles>  (70) 
CCOC(=O)CNC(=O)Cc1ccc2cc(C(N)=O)n(C(=O)O)c2c1

>  <score_type>  (70) 
oracle

>  <origin>  (70) 
adg

>  <m_score__min__energy>  (70) 
-6.7800000000000002

>  <m_primary>  (70) 
energy

$$$$
70:0
     RDKit          3D

 29 30  0  0  0  0  0  0  0  0999 V2000
  144.9770  155.2970  135.1740 C   0  0  0  0  0  0  0  0  0  0  0  0
  146.3040  154.6030  134.8450 C   0  0  2  0  0  0  0  0  0  0  0  0
  147.0260  154.1540  136.0870 C   0  0  0  0  0  0  0  0  0  0  0  0
  148.0220  154.7900  136.5220 O   0  0  0  0  0  0  0  0  0  0  0  0
  146.6220  152.9940  136.7340 O   0  0  0  0  0  0  0  0  0  0  0  0
  147.1950  155.4920  134.0010 C   0  0  0  0  0  0  0  0  0  0  0  0
  148.3730  154.9590  133.4150 C   0  0  0  0  0  0  0  0  0  0  0  0
  149.2040  155.7600  132.6140 C   0  0  0  0  0  0  0  0  0  0  0  0
  148.8410  157.0890  132.4210 C   0  0  0  0  0  0  0  0  0  0  0  0
  149.4480  158.0710  131.6730 C   0  0  0  0  0  0  0  0  0  0  0  0
  148.6480  159.2010  131.8290 C   0  0  0  0  0  0  0  0  0  0  0  0
  148.9870  160.5200  131.2550 C   0  0  0  0  0  0  0  0  0  0  0  0
  149.8350  160.6280  130.1150 N   0  0  0  0  0  0  0  0  0  0  0  0
  148.4810  161.5640  131.7480 O   0  0  0  0  0  0  0  0  0  0  0  0
  147.5820  158.9250  132.6330 N   0  0  0  0  0  0  0  0  0  0  0  0
  146.4850  159.7900  132.9710 C   0  0  0  0  0  0  0  0  0  0  0  0
  145.3150  159.5080  132.5990 O   0  0  0  0  0  0  0  0  0  0  0  0
  146.6990  160.9300  133.7350 O   0  0  0  0  0  0  0  0  0  0  0  0
  147.7170  157.6280  132.9900 C   0  0  0  0  0  0  0  0  0  0  0  0
  146.8590  156.8500  133.7750 C   0  0  0  0  0  0  0  0  0  0  0  0
  144.8569  155.3598  136.2656 H   0  0  0  0  0  0  0  0  0  0  0  0
  144.9773  156.3104  134.7462 H   0  0  0  0  0  0  0  0  0  0  0  0
  144.1448  154.7187  134.7462 H   0  0  0  0  0  0  0  0  0  0  0  0
  146.0589  153.7046  134.2596 H   0  0  0  0  0  0  0  0  0  0  0  0
  148.6384  153.9060  133.5902 H   0  0  0  0  0  0  0  0  0  0  0  0
  150.1143  155.3487  132.1533 H   0  0  0  0  0  0  0  0  0  0  0  0
  150.3691  157.9829  131.0782 H   0  0  0  0  0  0  0  0  0  0  0  0
  150.8090  160.9950  130.2030 H   0  0  0  0  0  0  0  0  0  0  0  0
  145.9445  157.2826  134.2069 H   0  0  0  0  0  0  0  0  0  0  0  0
  1  2  1  0
  2  3  1  0
  3  4  2  0
  3  5  1  0
  2  6  1  0
  6  7  2  0
  7  8  1  0
  8  9  2  0
  9 10  1  0
 10 11  2  0
 11 12  1  0
 12 13  1  0
 12 14  2  0
 11 15  1  0
 15 16  1  0
 16 17  2  0
 16 18  1  0
 15 19  1  0
 19 20  2  0
 20  6  1  0
 19  9  1  0
  1 21  1  0
  1 22  1  0
  1 23  1  0
  2 24  1  6
  7 25  1  0
  8 26  1  0
 10 27  1  0
 13 28  1  0
 20 29  1  0
M  CHG  3   5  -1  13  -1  18  -1
M  END
>  <UniqueID>  (71) 
71

>  <SMILES>  (71) 
C[C@H](C(=O)[O-])c1ccc2cc(C([NH-])=O)n(C(=O)[O-])c2c1

>  <Energy>  (71) 
68.07061733475075

>  <Genealogy>  (71) 
CC(C(=O)[O-])c1ccc2cc(C([NH-])=O)n(C(=O)[O-])c2c1 (protonated)
C[C@H](C(=O)[O-])c1ccc2cc(C([NH-])=O)n(C(=O)[O-])c2c1 (chirality)
C[C@H](C(=O)[O-])c1ccc2cc(C([NH-])=O)n(C(=O)[O-])c2c1 (3D coordinates assigned)
C[C@H](C(=O)[O-])c1ccc2cc(C([NH-])=O)n(C(=O)[O-])c2c1 (optimized conformer: 68.07061733475075 kcal/mol)

>  <smiles>  (71) 
CC(C(=O)O)c1ccc2cc(C(N)=O)n(C(=O)O)c2c1

>  <score_type>  (71) 
oracle

>  <origin>  (71) 
adg

>  <m_score__min__energy>  (71) 
-6.29

>  <m_primary>  (71) 
energy

$$$$
71:0
     RDKit          3D

 42 43  0  0  0  0  0  0  0  0999 V2000
  138.6970  149.0340  131.5300 C   0  0  0  0  0  0  0  0  0  0  0  0
  139.9970  149.6680  131.9280 C   0  0  0  0  0  0  0  0  0  0  0  0
  141.1930  148.9110  131.9010 C   0  0  0  0  0  0  0  0  0  0  0  0
  142.4200  149.5010  132.2480 C   0  0  0  0  0  0  0  0  0  0  0  0
  142.4220  150.8490  132.5930 C   0  0  0  0  0  0  0  0  0  0  0  0
  143.4620  151.6580  132.9850 C   0  0  0  0  0  0  0  0  0  0  0  0
  142.8930  152.9100  133.1990 C   0  0  0  0  0  0  0  0  0  0  0  0
  143.6810  154.1050  133.5620 C   0  0  0  0  0  0  0  0  0  0  0  0
  143.2720  155.4110  133.1500 N   0  0  0  0  0  0  0  0  0  0  0  0
  144.7610  153.9670  134.1950 O   0  0  0  0  0  0  0  0  0  0  0  0
  141.5500  152.8760  132.9680 N   0  0  0  0  0  0  0  0  0  0  0  0
  140.6010  153.9380  133.1670 C   0  0  0  0  0  0  0  0  0  0  0  0
  139.4650  153.8800  132.6200 O   0  0  0  0  0  0  0  0  0  0  0  0
  140.9400  155.0310  133.9660 O   0  0  0  0  0  0  0  0  0  0  0  0
  140.0850  156.1550  134.1450 C   0  0  0  0  0  0  0  0  0  0  0  0
  140.0280  156.9780  132.8600 C   0  0  0  0  0  0  0  0  0  0  0  0
  141.2800  158.2590  132.8110 S   0  0  0  0  0  0  0  0  0  0  0  0
  140.8160  159.3310  131.8660 O   0  0  0  0  0  0  0  0  0  0  0  0
  142.5680  157.6840  132.2900 O   0  0  0  0  0  0  0  0  0  0  0  0
  141.5230  158.9970  134.4290 C   0  0  0  0  0  0  0  0  0  0  0  0
  142.8580  159.7330  134.5430 C   0  0  0  0  0  0  0  0  0  0  0  0
  143.1520  160.3870  133.3390 O   0  0  0  0  0  0  0  0  0  0  0  0
  141.2770  151.6060  132.5910 C   0  0  0  0  0  0  0  0  0  0  0  0
  140.0370  151.0370  132.2700 C   0  0  0  0  0  0  0  0  0  0  0  0
  138.1320  148.7584  132.4326 H   0  0  0  0  0  0  0  0  0  0  0  0
  138.1092  149.7466  130.9328 H   0  0  0  0  0  0  0  0  0  0  0  0
  138.8966  148.1321  130.9328 H   0  0  0  0  0  0  0  0  0  0  0  0
  141.1614  147.8518  131.6058 H   0  0  0  0  0  0  0  0  0  0  0  0
  143.3509  148.9150  132.2470 H   0  0  0  0  0  0  0  0  0  0  0  0
  144.5185  151.3760  133.1041 H   0  0  0  0  0  0  0  0  0  0  0  0
  143.8200  156.2490  133.4460 H   0  0  0  0  0  0  0  0  0  0  0  0
  142.4780  155.5420  132.4860 H   0  0  0  0  0  0  0  0  0  0  0  0
  139.0733  155.8062  134.3993 H   0  0  0  0  0  0  0  0  0  0  0  0
  140.4789  156.7823  134.9583 H   0  0  0  0  0  0  0  0  0  0  0  0
  140.1779  156.3050  132.0029 H   0  0  0  0  0  0  0  0  0  0  0  0
  139.0446  157.4694  132.8206 H   0  0  0  0  0  0  0  0  0  0  0  0
  140.7087  159.7125  134.6161 H   0  0  0  0  0  0  0  0  0  0  0  0
  141.5256  158.1839  135.1699 H   0  0  0  0  0  0  0  0  0  0  0  0
  142.7969  160.4738  135.3539 H   0  0  0  0  0  0  0  0  0  0  0  0
  143.6531  159.0046  134.7604 H   0  0  0  0  0  0  0  0  0  0  0  0
  142.8060  159.8010  132.6160 H   0  0  0  0  0  0  0  0  0  0  0  0
  139.1183  151.6418  132.2842 H   0  0  0  0  0  0  0  0  0  0  0  0
  1  2  1  0
  2  3  2  0
  3  4  1  0
  4  5  2  0
  5  6  1  0
  6  7  2  0
  7  8  1  0
  8  9  1  0
  8 10  2  0
  7 11  1  0
 11 12  1  0
 12 13  2  0
 12 14  1  0
 14 15  1  0
 15 16  1  0
 16 17  1  0
 17 18  2  0
 17 19  2  0
 17 20  1  0
 20 21  1  0
 21 22  1  0
 11 23  1  0
 23 24  2  0
 24  2  1  0
 23  5  1  0
  1 25  1  0
  1 26  1  0
  1 27  1  0
  3 28  1  0
  4 29  1  0
  6 30  1  0
  9 31  1  0
  9 32  1  0
 15 33  1  0
 15 34  1  0
 16 35  1  0
 16 36  1  0
 20 37  1  0
 20 38  1  0
 21 39  1  0
 21 40  1  0
 22 41  1  0
 24 42  1  0
M  END
>  <UniqueID>  (72) 
72

>  <SMILES>  (72) 
Cc1ccc2cc(C(N)=O)n(C(=O)OCCS(=O)(=O)CCO)c2c1

>  <Energy>  (72) 
66.79917651328651

>  <Genealogy>  (72) 
Cc1ccc2cc(C(N)=O)n(C(=O)OCCS(=O)(=O)CCO)c2c1 (3D coordinates assigned)
Cc1ccc2cc(C(N)=O)n(C(=O)OCCS(=O)(=O)CCO)c2c1 (optimized conformer: 66.79917651328651 kcal/mol)

>  <smiles>  (72) 
Cc1ccc2cc(C(N)=O)n(C(=O)OCCS(=O)(=O)CCO)c2c1

>  <score_type>  (72) 
oracle

>  <origin>  (72) 
adg

>  <m_score__min__energy>  (72) 
-6.7599999999999998

>  <m_primary>  (72) 
energy

$$$$
72:0
     RDKit          3D

 49 52  0  0  0  0  0  0  0  0999 V2000
  145.5460  162.0570  134.1270 N   0  0  0  0  0  0  0  0  0  0  0  0
  144.1750  162.0760  133.7390 C   0  0  0  0  0  0  0  0  0  0  0  0
  143.6350  163.1750  133.4400 O   0  0  0  0  0  0  0  0  0  0  0  0
  143.3660  160.8400  133.7400 C   0  0  0  0  0  0  0  0  0  0  0  0
  141.9810  160.8330  133.8970 C   0  0  0  0  0  0  0  0  0  0  0  0
  141.6240  159.5050  133.9260 C   0  0  0  0  0  0  0  0  0  0  0  0
  140.3680  158.9220  134.0440 C   0  0  0  0  0  0  0  0  0  0  0  0
  140.2860  157.5200  134.0050 C   0  0  0  0  0  0  0  0  0  0  0  0
  141.4520  156.7250  133.8480 C   0  0  0  0  0  0  0  0  0  0  0  0
  141.3300  155.2470  133.7930 C   0  0  0  0  0  0  0  0  0  0  0  0
  140.3300  154.6150  133.0340 C   0  0  0  0  0  0  0  0  0  0  0  0
  140.2630  153.2210  133.0050 C   0  0  0  0  0  0  0  0  0  0  0  0
  141.1980  152.4540  133.7140 C   0  0  0  0  0  0  0  0  0  0  0  0
  141.1270  150.9770  133.6950 C   0  0  0  0  0  0  0  0  0  0  0  0
  140.9160  150.3560  134.7730 O   0  0  0  0  0  0  0  0  0  0  0  0
  141.2740  150.2360  132.4700 N   0  0  0  0  0  0  0  0  0  0  0  0
  141.9680  148.9430  132.4740 C   0  0  0  0  0  0  0  0  0  0  0  0
  140.9880  147.8330  132.0860 C   0  0  0  0  0  0  0  0  0  0  0  0
  140.2060  148.1490  130.7790 C   0  0  0  0  0  0  0  0  0  0  0  0
  138.7220  147.9560  130.9630 C   0  0  0  0  0  0  0  0  0  0  0  0
  138.1850  146.8410  130.7300 O   0  0  0  0  0  0  0  0  0  0  0  0
  137.9400  149.0080  131.4280 O   0  0  0  0  0  0  0  0  0  0  0  0
  140.5060  149.5520  130.2010 C   0  0  0  0  0  0  0  0  0  0  0  0
  140.5050  150.6430  131.2820 C   0  0  0  0  0  0  0  0  0  0  0  0
  142.1750  153.1210  134.4670 C   0  0  0  0  0  0  0  0  0  0  0  0
  142.2210  154.4790  134.4820 N   0  0  0  0  0  0  0  0  0  0  0  0
  142.7120  157.3620  133.7210 C   0  0  0  0  0  0  0  0  0  0  0  0
  142.7640  158.7590  133.7830 C   0  0  0  0  0  0  0  0  0  0  0  0
  143.8440  159.5640  133.6630 N   0  0  0  0  0  0  0  0  0  0  0  0
  145.1960  159.1420  133.4210 C   0  0  0  0  0  0  0  0  0  0  0  0
  145.9160  159.7560  132.5890 O   0  0  0  0  0  0  0  0  0  0  0  0
  145.7130  158.0330  134.0780 O   0  0  0  0  0  0  0  0  0  0  0  0
  146.2830  161.7050  133.4770 H   0  0  0  0  0  0  0  0  0  0  0  0
  141.3150  161.7045  133.9801 H   0  0  0  0  0  0  0  0  0  0  0  0
  139.4656  159.5394  134.1643 H   0  0  0  0  0  0  0  0  0  0  0  0
  139.3048  157.0314  134.0974 H   0  0  0  0  0  0  0  0  0  0  0  0
  139.6042  155.2155  132.4660 H   0  0  0  0  0  0  0  0  0  0  0  0
  139.4735  152.7224  132.4236 H   0  0  0  0  0  0  0  0  0  0  0  0
  142.7960  148.9697  131.7504 H   0  0  0  0  0  0  0  0  0  0  0  0
  142.3649  148.7445  133.4805 H   0  0  0  0  0  0  0  0  0  0  0  0
  141.5529  146.9004  131.9408 H   0  0  0  0  0  0  0  0  0  0  0  0
  140.2521  147.7420  132.8985 H   0  0  0  0  0  0  0  0  0  0  0  0
  140.5686  147.4227  130.0367 H   0  0  0  0  0  0  0  0  0  0  0  0
  141.4952  149.5319  129.7203 H   0  0  0  0  0  0  0  0  0  0  0  0
  139.7120  149.7942  129.4793 H   0  0  0  0  0  0  0  0  0  0  0  0
  140.9514  151.5578  130.8651 H   0  0  0  0  0  0  0  0  0  0  0  0
  139.4639  150.8169  131.5915 H   0  0  0  0  0  0  0  0  0  0  0  0
  142.9077  152.5421  135.0484 H   0  0  0  0  0  0  0  0  0  0  0  0
  143.6286  156.7712  133.5769 H   0  0  0  0  0  0  0  0  0  0  0  0
  1  2  1  0
  2  3  2  0
  2  4  1  0
  4  5  2  0
  5  6  1  0
  6  7  2  0
  7  8  1  0
  8  9  2  0
  9 10  1  0
 10 11  2  0
 11 12  1  0
 12 13  2  0
 13 14  1  0
 14 15  2  0
 14 16  1  0
 16 17  1  0
 17 18  1  0
 18 19  1  0
 19 20  1  0
 20 21  2  0
 20 22  1  0
 19 23  1  0
 23 24  1  0
 13 25  1  0
 25 26  2  0
  9 27  1  0
 27 28  2  0
 28 29  1  0
 29 30  1  0
 30 31  2  0
 30 32  1  0
 29  4  1  0
 28  6  1  0
 26 10  1  0
 24 16  1  0
  1 33  1  0
  5 34  1  0
  7 35  1  0
  8 36  1  0
 11 37  1  0
 12 38  1  0
 17 39  1  0
 17 40  1  0
 18 41  1  0
 18 42  1  0
 19 43  1  0
 23 44  1  0
 23 45  1  0
 24 46  1  0
 24 47  1  0
 25 48  1  0
 27 49  1  0
M  CHG  3   1  -1  22  -1  32  -1
M  END
>  <UniqueID>  (73) 
73

>  <SMILES>  (73) 
[NH-]C(=O)c1cc2ccc(-c3ccc(C(=O)N4CCC(C(=O)[O-])CC4)cn3)cc2n1C(=O)[O-]

>  <Energy>  (73) 
105.94859163998058

>  <Genealogy>  (73) 
[NH-]C(=O)c1cc2ccc(-c3ccc(C(=O)N4CCC(C(=O)[O-])CC4)cn3)cc2n1C(=O)[O-] (protonated)
[NH-]C(=O)c1cc2ccc(-c3ccc(C(=O)N4CCC(C(=O)[O-])CC4)cn3)cc2n1C(=O)[O-] (3D coordinates assigned)
[NH-]C(=O)c1cc2ccc(-c3ccc(C(=O)N4CCC(C(=O)[O-])CC4)cn3)cc2n1C(=O)[O-] (nonaromatic ring conformer: 105.94859163998058 kcal/mol)

>  <smiles>  (73) 
NC(=O)c1cc2ccc(-c3ccc(C(=O)N4CCC(C(=O)O)CC4)cn3)cc2n1C(=O)O

>  <score_type>  (73) 
oracle

>  <origin>  (73) 
adg

>  <m_score__min__energy>  (73) 
-8.7200000000000006

>  <m_primary>  (73) 
energy

$$$$
73:0
     RDKit          3D

 45 46  0  0  0  0  0  0  0  0999 V2000
  139.3640  150.7290  131.8500 C   0  0  0  0  0  0  0  0  0  0  0  0
  140.5400  149.7500  132.0120 C   0  0  0  0  0  0  0  0  0  0  0  0
  140.6720  148.8540  130.7650 C   0  0  0  0  0  0  0  0  0  0  0  0
  140.2820  148.8610  133.2370 C   0  0  0  0  0  0  0  0  0  0  0  0
  141.7600  150.4650  132.2560 O   0  0  0  0  0  0  0  0  0  0  0  0
  142.0230  151.3050  133.3480 C   0  0  0  0  0  0  0  0  0  0  0  0
  141.3780  151.2030  134.4250 O   0  0  0  0  0  0  0  0  0  0  0  0
  143.0690  152.3680  133.2150 C   0  0  0  0  0  0  0  0  0  0  0  0
  142.5060  153.5590  132.6660 O   0  0  0  0  0  0  0  0  0  0  0  0
  141.2690  154.0760  133.0680 C   0  0  0  0  0  0  0  0  0  0  0  0
  140.1960  153.5540  132.6600 O   0  0  0  0  0  0  0  0  0  0  0  0
  141.2230  155.1820  133.9800 N   0  0  0  0  0  0  0  0  0  0  0  0
  141.6860  155.2300  135.2600 C   0  0  0  0  0  0  0  0  0  0  0  0
  142.4780  154.1820  135.9380 C   0  0  0  0  0  0  0  0  0  0  0  0
  141.8430  153.1440  136.6800 N   0  0  0  0  0  0  0  0  0  0  0  0
  143.7320  154.1830  135.8320 O   0  0  0  0  0  0  0  0  0  0  0  0
  141.3670  156.4530  135.8480 C   0  0  0  0  0  0  0  0  0  0  0  0
  140.6880  157.1570  134.8790 C   0  0  0  0  0  0  0  0  0  0  0  0
  140.1060  158.4200  134.9310 C   0  0  0  0  0  0  0  0  0  0  0  0
  139.4170  158.8750  133.7960 C   0  0  0  0  0  0  0  0  0  0  0  0
  139.3220  158.0690  132.6310 C   0  0  0  0  0  0  0  0  0  0  0  0
  138.5240  158.5530  131.4420 C   0  0  0  0  0  0  0  0  0  0  0  0
  138.4310  157.5430  130.5000 F   0  0  0  0  0  0  0  0  0  0  0  0
  137.2360  158.9010  131.8170 F   0  0  0  0  0  0  0  0  0  0  0  0
  139.1930  159.7420  130.8220 C   0  0  0  0  0  0  0  0  0  0  0  0
  139.0440  160.8560  131.3000 O   0  0  0  0  0  0  0  0  0  0  0  0
  139.9170  156.7850  132.6250 C   0  0  0  0  0  0  0  0  0  0  0  0
  140.6130  156.3670  133.7630 C   0  0  0  0  0  0  0  0  0  0  0  0
  138.9999  151.0321  132.8427 H   0  0  0  0  0  0  0  0  0  0  0  0
  139.7004  151.6176  131.2957 H   0  0  0  0  0  0  0  0  0  0  0  0
  138.5511  150.2371  131.2957 H   0  0  0  0  0  0  0  0  0  0  0  0
  140.8257  147.8107  131.0778 H   0  0  0  0  0  0  0  0  0  0  0  0
  139.7537  148.9250  130.1636 H   0  0  0  0  0  0  0  0  0  0  0  0
  141.5308  149.1868  130.1636 H   0  0  0  0  0  0  0  0  0  0  0  0
  140.4510  149.4433  134.1548 H   0  0  0  0  0  0  0  0  0  0  0  0
  139.2425  148.5017  133.2169 H   0  0  0  0  0  0  0  0  0  0  0  0
  140.9676  148.0011  133.2169 H   0  0  0  0  0  0  0  0  0  0  0  0
  143.4875  152.5899  134.2078 H   0  0  0  0  0  0  0  0  0  0  0  0
  143.8599  152.0058  132.5417 H   0  0  0  0  0  0  0  0  0  0  0  0
  141.2940  152.3980  136.2010 H   0  0  0  0  0  0  0  0  0  0  0  0
  141.6068  156.7850  136.8689 H   0  0  0  0  0  0  0  0  0  0  0  0
  140.1836  159.0429  135.8343 H   0  0  0  0  0  0  0  0  0  0  0  0
  138.9448  159.8684  133.8092 H   0  0  0  0  0  0  0  0  0  0  0  0
  139.8229  159.6105  129.9298 H   0  0  0  0  0  0  0  0  0  0  0  0
  139.8337  156.1306  131.7447 H   0  0  0  0  0  0  0  0  0  0  0  0
  1  2  1  0
  2  3  1  0
  2  4  1  0
  2  5  1  0
  5  6  1  0
  6  7  2  0
  6  8  1  0
  8  9  1  0
  9 10  1  0
 10 11  2  0
 10 12  1  0
 12 13  1  0
 13 14  1  0
 14 15  1  0
 14 16  2  0
 13 17  2  0
 17 18  1  0
 18 19  2  0
 19 20  1  0
 20 21  2  0
 21 22  1  0
 22 23  1  0
 22 24  1  0
 22 25  1  0
 25 26  2  0
 21 27  1  0
 27 28  2  0
 28 12  1  0
 28 18  1  0
  1 29  1  0
  1 30  1  0
  1 31  1  0
  3 32  1  0
  3 33  1  0
  3 34  1  0
  4 35  1  0
  4 36  1  0
  4 37  1  0
  8 38  1  0
  8 39  1  0
 15 40  1  0
 17 41  1  0
 19 42  1  0
 20 43  1  0
 25 44  1  0
 27 45  1  0
M  CHG  1  15  -1
M  END
>  <UniqueID>  (74) 
74

>  <SMILES>  (74) 
CC(C)(C)OC(=O)COC(=O)n1c(C([NH-])=O)cc2ccc(C(F)(F)C=O)cc21

>  <Energy>  (74) 
74.82355652343773

>  <Genealogy>  (74) 
CC(C)(C)OC(=O)COC(=O)n1c(C([NH-])=O)cc2ccc(C(F)(F)C=O)cc21 (protonated)
CC(C)(C)OC(=O)COC(=O)n1c(C([NH-])=O)cc2ccc(C(F)(F)C=O)cc21 (3D coordinates assigned)
CC(C)(C)OC(=O)COC(=O)n1c(C([NH-])=O)cc2ccc(C(F)(F)C=O)cc21 (optimized conformer: 74.82355652343773 kcal/mol)

>  <smiles>  (74) 
CC(C)(C)OC(=O)COC(=O)n1c(C(N)=O)cc2ccc(C(F)(F)C=O)cc21

>  <score_type>  (74) 
oracle

>  <origin>  (74) 
adg

>  <m_score__min__energy>  (74) 
-6.5

>  <m_primary>  (74) 
energy

$$$$
74:0
     RDKit          3D

 52 54  0  0  0  0  0  0  0  0999 V2000
  149.1950  154.1330  132.5970 C   0  0  0  0  0  0  0  0  0  0  0  0
  147.6770  154.2160  132.6720 C   0  0  0  0  0  0  0  0  0  0  0  0
  147.2360  155.5620  132.5090 O   0  0  0  0  0  0  0  0  0  0  0  0
  146.8470  156.3820  133.5740 C   0  0  0  0  0  0  0  0  0  0  0  0
  146.7700  155.9160  134.7430 O   0  0  0  0  0  0  0  0  0  0  0  0
  146.5190  157.7590  133.3300 N   0  0  0  0  0  0  0  0  0  0  0  0
  147.3680  158.7700  132.9930 C   0  0  0  0  0  0  0  0  0  0  0  0
  148.7970  158.6230  132.6470 C   0  0  0  0  0  0  0  0  0  0  0  0
  149.2690  157.5020  131.8970 N   0  0  0  0  0  0  0  0  0  0  0  0
  149.6070  159.5330  132.9700 O   0  0  0  0  0  0  0  0  0  0  0  0
  146.6940  159.9880  132.9660 C   0  0  0  0  0  0  0  0  0  0  0  0
  145.3890  159.6870  133.2880 C   0  0  0  0  0  0  0  0  0  0  0  0
  144.2860  160.5240  133.4320 C   0  0  0  0  0  0  0  0  0  0  0  0
  143.0660  159.9460  133.8220 C   0  0  0  0  0  0  0  0  0  0  0  0
  142.9720  158.5520  134.0660 C   0  0  0  0  0  0  0  0  0  0  0  0
  141.7250  157.9700  134.4860 N   0  0  0  0  0  0  0  0  0  0  0  0
  141.3930  156.5890  134.1210 C   0  0  0  0  0  0  0  0  0  0  0  0
  139.9010  156.4500  133.7370 C   0  0  0  0  0  0  0  0  0  0  0  0
  139.0240  157.5000  134.3150 N   0  0  0  0  0  0  0  0  0  0  0  0
  138.7590  158.6060  133.3640 C   0  0  0  0  0  0  0  0  0  0  0  0
  139.1050  158.1890  131.9250 C   0  0  0  0  0  0  0  0  0  0  0  0
  138.9550  159.3360  130.9200 C   0  0  0  0  0  0  0  0  0  0  0  0
  138.3940  160.4470  131.5260 F   0  0  0  0  0  0  0  0  0  0  0  0
  140.1850  159.6720  130.3840 F   0  0  0  0  0  0  0  0  0  0  0  0
  139.5270  157.9850  135.6170 C   0  0  0  0  0  0  0  0  0  0  0  0
  140.8890  158.6800  135.4610 C   0  0  0  0  0  0  0  0  0  0  0  0
  144.1150  157.7370  133.9120 C   0  0  0  0  0  0  0  0  0  0  0  0
  145.3110  158.3360  133.5040 C   0  0  0  0  0  0  0  0  0  0  0  0
  149.6117  154.1102  133.6148 H   0  0  0  0  0  0  0  0  0  0  0  0
  149.4861  153.2176  132.0610 H   0  0  0  0  0  0  0  0  0  0  0  0
  149.5842  155.0112  132.0610 H   0  0  0  0  0  0  0  0  0  0  0  0
  147.2418  153.5947  131.8753 H   0  0  0  0  0  0  0  0  0  0  0  0
  147.3520  153.8550  133.6589 H   0  0  0  0  0  0  0  0  0  0  0  0
  148.6080  156.7980  131.5010 H   0  0  0  0  0  0  0  0  0  0  0  0
  150.2870  157.4130  131.6770 H   0  0  0  0  0  0  0  0  0  0  0  0
  147.1138  160.9786  132.7367 H   0  0  0  0  0  0  0  0  0  0  0  0
  144.3670  161.6052  133.2461 H   0  0  0  0  0  0  0  0  0  0  0  0
  142.1753  160.5808  133.9392 H   0  0  0  0  0  0  0  0  0  0  0  0
  142.0128  156.2864  133.2641 H   0  0  0  0  0  0  0  0  0  0  0  0
  141.5882  155.9445  134.9908 H   0  0  0  0  0  0  0  0  0  0  0  0
  139.8208  156.4982  132.6410 H   0  0  0  0  0  0  0  0  0  0  0  0
  139.5569  155.4891  134.1473 H   0  0  0  0  0  0  0  0  0  0  0  0
  137.6939  158.8763  133.4141 H   0  0  0  0  0  0  0  0  0  0  0  0
  139.3876  159.4651  133.6411 H   0  0  0  0  0  0  0  0  0  0  0  0
  140.1467  157.8364  131.9025 H   0  0  0  0  0  0  0  0  0  0  0  0
  138.3991  157.3981  131.6315 H   0  0  0  0  0  0  0  0  0  0  0  0
  138.2896  158.9964  130.1126 H   0  0  0  0  0  0  0  0  0  0  0  0
  138.8048  158.7005  136.0370 H   0  0  0  0  0  0  0  0  0  0  0  0
  139.6506  157.1214  136.2870 H   0  0  0  0  0  0  0  0  0  0  0  0
  140.7302  159.7125  135.1164 H   0  0  0  0  0  0  0  0  0  0  0  0
  141.4011  158.6770  136.4345 H   0  0  0  0  0  0  0  0  0  0  0  0
  144.0657  156.6558  134.1085 H   0  0  0  0  0  0  0  0  0  0  0  0
  1  2  1  0
  2  3  1  0
  3  4  1  0
  4  5  2  0
  4  6  1  0
  6  7  1  0
  7  8  1  0
  8  9  1  0
  8 10  2  0
  7 11  2  0
 11 12  1  0
 12 13  2  0
 13 14  1  0
 14 15  2  0
 15 16  1  0
 16 17  1  0
 17 18  1  0
 18 19  1  0
 19 20  1  0
 20 21  1  0
 21 22  1  0
 22 23  1  0
 22 24  1  0
 19 25  1  0
 25 26  1  0
 15 27  1  0
 27 28  2  0
 28  6  1  0
 28 12  1  0
 26 16  1  0
  1 29  1  0
  1 30  1  0
  1 31  1  0
  2 32  1  0
  2 33  1  0
  9 34  1  0
  9 35  1  0
 11 36  1  0
 13 37  1  0
 14 38  1  0
 17 39  1  0
 17 40  1  0
 18 41  1  0
 18 42  1  0
 20 43  1  0
 20 44  1  0
 21 45  1  0
 21 46  1  0
 22 47  1  0
 25 48  1  0
 25 49  1  0
 26 50  1  0
 26 51  1  0
 27 52  1  0
M  END
>  <UniqueID>  (75) 
75

>  <SMILES>  (75) 
CCOC(=O)n1c(C(N)=O)cc2ccc(N3CCN(CCC(F)F)CC3)cc21

>  <Energy>  (75) 
97.05764499845135

>  <Genealogy>  (75) 
CCOC(=O)n1c(C(N)=O)cc2ccc(N3CCN(CCC(F)F)CC3)cc21 (3D coordinates assigned)
CCOC(=O)n1c(C(N)=O)cc2ccc(N3CCN(CCC(F)F)CC3)cc21 (nonaromatic ring conformer: 97.05764499845135 kcal/mol)

>  <smiles>  (75) 
CCOC(=O)n1c(C(N)=O)cc2ccc(N3CCN(CCC(F)F)CC3)cc21

>  <score_type>  (75) 
oracle

>  <origin>  (75) 
adg

>  <m_score__min__energy>  (75) 
-7.8099999999999996

>  <m_primary>  (75) 
energy

$$$$
75:0
     RDKit          3D

 41 43  0  0  0  0  0  0  0  0999 V2000
  139.6960  158.6240  132.2320 C   0  0  0  0  0  0  0  0  0  0  0  0
  140.5340  158.1580  133.2820 O   0  0  0  0  0  0  0  0  0  0  0  0
  140.0290  157.6890  134.4990 C   0  0  0  0  0  0  0  0  0  0  0  0
  138.8500  157.9670  134.8490 O   0  0  0  0  0  0  0  0  0  0  0  0
  140.8520  156.8670  135.3410 N   0  0  0  0  0  0  0  0  0  0  0  0
  141.3130  157.1410  136.5940 C   0  0  0  0  0  0  0  0  0  0  0  0
  141.1720  158.4260  137.3120 C   0  0  0  0  0  0  0  0  0  0  0  0
  140.4390  159.5080  136.7430 N   0  0  0  0  0  0  0  0  0  0  0  0
  141.7470  158.5870  138.4210 O   0  0  0  0  0  0  0  0  0  0  0  0
  142.0310  156.0590  137.0990 C   0  0  0  0  0  0  0  0  0  0  0  0
  142.0070  155.1080  136.1040 C   0  0  0  0  0  0  0  0  0  0  0  0
  142.5720  153.8370  136.0630 C   0  0  0  0  0  0  0  0  0  0  0  0
  142.3770  153.0650  134.9060 C   0  0  0  0  0  0  0  0  0  0  0  0
  141.6070  153.5660  133.8260 C   0  0  0  0  0  0  0  0  0  0  0  0
  141.4200  152.7460  132.5800 C   0  0  0  0  0  0  0  0  0  0  0  0
  141.8420  151.3340  132.8310 C   0  0  0  0  0  0  0  0  0  0  0  0
  143.0530  151.0120  132.6910 O   0  0  0  0  0  0  0  0  0  0  0  0
  140.8620  150.3710  133.1070 O   0  0  0  0  0  0  0  0  0  0  0  0
  140.1690  149.6140  132.1520 C   0  0  0  0  0  0  0  0  0  0  0  0
  140.8020  148.4870  131.6120 C   0  0  0  0  0  0  0  0  0  0  0  0
  140.1560  147.7050  130.6490 C   0  0  0  0  0  0  0  0  0  0  0  0
  138.8750  148.0520  130.2100 C   0  0  0  0  0  0  0  0  0  0  0  0
  138.2440  149.1860  130.7270 C   0  0  0  0  0  0  0  0  0  0  0  0
  138.8870  149.9690  131.6920 C   0  0  0  0  0  0  0  0  0  0  0  0
  141.0500  154.8620  133.9030 C   0  0  0  0  0  0  0  0  0  0  0  0
  141.2850  155.6200  135.0550 C   0  0  0  0  0  0  0  0  0  0  0  0
  138.8106  159.1163  132.6606 H   0  0  0  0  0  0  0  0  0  0  0  0
  140.2510  159.3430  131.6116 H   0  0  0  0  0  0  0  0  0  0  0  0
  139.3781  157.7731  131.6116 H   0  0  0  0  0  0  0  0  0  0  0  0
  139.4760  159.3650  136.3660 H   0  0  0  0  0  0  0  0  0  0  0  0
  142.5145  155.9812  138.0840 H   0  0  0  0  0  0  0  0  0  0  0  0
  143.1541  153.4484  136.9116 H   0  0  0  0  0  0  0  0  0  0  0  0
  142.8256  152.0630  134.8371 H   0  0  0  0  0  0  0  0  0  0  0  0
  140.3596  152.7632  132.2880 H   0  0  0  0  0  0  0  0  0  0  0  0
  142.0354  153.1694  131.7725 H   0  0  0  0  0  0  0  0  0  0  0  0
  141.8137  148.2153  131.9475 H   0  0  0  0  0  0  0  0  0  0  0  0
  140.6563  146.8163  130.2368 H   0  0  0  0  0  0  0  0  0  0  0  0
  138.3643  147.4326  129.4580 H   0  0  0  0  0  0  0  0  0  0  0  0
  137.2397  149.4639  130.3748 H   0  0  0  0  0  0  0  0  0  0  0  0
  138.3892  150.8645  132.0923 H   0  0  0  0  0  0  0  0  0  0  0  0
  140.4460  155.2654  133.0769 H   0  0  0  0  0  0  0  0  0  0  0  0
  1  2  1  0
  2  3  1  0
  3  4  2  0
  3  5  1  0
  5  6  1  0
  6  7  1  0
  7  8  1  0
  7  9  2  0
  6 10  2  0
 10 11  1  0
 11 12  2  0
 12 13  1  0
 13 14  2  0
 14 15  1  0
 15 16  1  0
 16 17  2  0
 16 18  1  0
 18 19  1  0
 19 20  2  0
 20 21  1  0
 21 22  2  0
 22 23  1  0
 23 24  2  0
 14 25  1  0
 25 26  2  0
 26  5  1  0
 26 11  1  0
 24 19  1  0
  1 27  1  0
  1 28  1  0
  1 29  1  0
  8 30  1  0
 10 31  1  0
 12 32  1  0
 13 33  1  0
 15 34  1  0
 15 35  1  0
 20 36  1  0
 21 37  1  0
 22 38  1  0
 23 39  1  0
 24 40  1  0
 25 41  1  0
M  CHG  1   8  -1
M  END
>  <UniqueID>  (76) 
76

>  <SMILES>  (76) 
COC(=O)n1c(C([NH-])=O)cc2ccc(CC(=O)Oc3ccccc3)cc21

>  <Energy>  (76) 
82.81963192755205

>  <Genealogy>  (76) 
COC(=O)n1c(C([NH-])=O)cc2ccc(CC(=O)Oc3ccccc3)cc21 (protonated)
COC(=O)n1c(C([NH-])=O)cc2ccc(CC(=O)Oc3ccccc3)cc21 (3D coordinates assigned)
COC(=O)n1c(C([NH-])=O)cc2ccc(CC(=O)Oc3ccccc3)cc21 (optimized conformer: 82.81963192755205 kcal/mol)

>  <smiles>  (76) 
COC(=O)n1c(C(N)=O)cc2ccc(CC(=O)Oc3ccccc3)cc21

>  <score_type>  (76) 
oracle

>  <origin>  (76) 
adg

>  <m_score__min__energy>  (76) 
-7.5099999999999998

>  <m_primary>  (76) 
energy

$$$$
76:0
     RDKit          3D

 50 52  0  0  0  0  0  0  0  0999 V2000
  143.4940  154.7420  134.6110 C   0  0  0  0  0  0  0  0  0  0  0  0
  144.6750  154.7550  133.6190 C   0  0  0  0  0  0  0  0  0  0  0  0
  144.1580  155.2450  132.2480 C   0  0  0  0  0  0  0  0  0  0  0  0
  145.2250  153.3230  133.4530 C   0  0  0  0  0  0  0  0  0  0  0  0
  145.7930  155.7270  134.0940 C   0  0  0  0  0  0  0  0  0  0  0  0
  146.3650  156.6060  133.0070 C   0  0  0  0  0  0  0  0  0  0  0  0
  146.9730  156.0830  132.0320 O   0  0  0  0  0  0  0  0  0  0  0  0
  146.2060  158.0360  133.0630 N   0  0  0  0  0  0  0  0  0  0  0  0
  147.1700  158.9920  132.9480 C   0  0  0  0  0  0  0  0  0  0  0  0
  148.5780  158.7610  132.5680 C   0  0  0  0  0  0  0  0  0  0  0  0
  148.9230  157.8610  131.5130 N   0  0  0  0  0  0  0  0  0  0  0  0
  149.4930  159.3890  133.1670 O   0  0  0  0  0  0  0  0  0  0  0  0
  146.6420  160.2540  133.2060 C   0  0  0  0  0  0  0  0  0  0  0  0
  145.3070  160.0420  133.4620 C   0  0  0  0  0  0  0  0  0  0  0  0
  144.3030  160.9460  133.7860 C   0  0  0  0  0  0  0  0  0  0  0  0
  143.0160  160.4450  134.0360 C   0  0  0  0  0  0  0  0  0  0  0  0
  142.7480  159.0520  133.9670 C   0  0  0  0  0  0  0  0  0  0  0  0
  141.4250  158.5420  134.2590 N   0  0  0  0  0  0  0  0  0  0  0  0
  141.0060  158.0880  135.5800 C   0  0  0  0  0  0  0  0  0  0  0  0
  139.5030  157.8590  135.4850 C   0  0  0  0  0  0  0  0  0  0  0  0
  139.1950  157.7510  133.9900 C   0  0  2  0  0  0  0  0  0  0  0  0
  139.0980  156.4060  133.5900 O   0  0  0  0  0  0  0  0  0  0  0  0
  140.3530  158.4560  133.2790 C   0  0  0  0  0  0  0  0  0  0  0  0
  143.7990  158.1660  133.6190 C   0  0  0  0  0  0  0  0  0  0  0  0
  145.0690  158.6980  133.3690 C   0  0  0  0  0  0  0  0  0  0  0  0
  143.8802  154.7463  135.6410 H   0  0  0  0  0  0  0  0  0  0  0  0
  142.8699  155.6333  134.4497 H   0  0  0  0  0  0  0  0  0  0  0  0
  142.8897  153.8372  134.4497 H   0  0  0  0  0  0  0  0  0  0  0  0
  143.3674  155.9943  132.4008 H   0  0  0  0  0  0  0  0  0  0  0  0
  144.9871  155.6966  131.6836 H   0  0  0  0  0  0  0  0  0  0  0  0
  143.7515  154.3929  131.6836 H   0  0  0  0  0  0  0  0  0  0  0  0
  145.3957  152.8785  134.4446 H   0  0  0  0  0  0  0  0  0  0  0  0
  144.4973  152.7128  132.8980 H   0  0  0  0  0  0  0  0  0  0  0  0
  146.1741  153.3568  132.8980 H   0  0  0  0  0  0  0  0  0  0  0  0
  145.3732  156.3772  134.8757 H   0  0  0  0  0  0  0  0  0  0  0  0
  146.6205  155.0983  134.4545 H   0  0  0  0  0  0  0  0  0  0  0  0
  148.1930  157.4570  130.8870 H   0  0  0  0  0  0  0  0  0  0  0  0
  149.9280  157.6660  131.3030 H   0  0  0  0  0  0  0  0  0  0  0  0
  147.1775  161.2149  133.2053 H   0  0  0  0  0  0  0  0  0  0  0  0
  144.5110  162.0245  133.8449 H   0  0  0  0  0  0  0  0  0  0  0  0
  142.2030  161.1414  134.2891 H   0  0  0  0  0  0  0  0  0  0  0  0
  141.5198  157.1518  135.8437 H   0  0  0  0  0  0  0  0  0  0  0  0
  141.2540  158.8250  136.3580 H   0  0  0  0  0  0  0  0  0  0  0  0
  139.2231  156.9296  136.0025 H   0  0  0  0  0  0  0  0  0  0  0  0
  138.9370  158.6747  135.9585 H   0  0  0  0  0  0  0  0  0  0  0  0
  138.2283  158.2134  133.7418 H   0  0  0  0  0  0  0  0  0  0  0  0
  138.3490  156.3330  132.9420 H   0  0  0  0  0  0  0  0  0  0  0  0
  140.6784  157.8724  132.4052 H   0  0  0  0  0  0  0  0  0  0  0  0
  140.0583  159.4503  132.9123 H   0  0  0  0  0  0  0  0  0  0  0  0
  143.6198  157.0831  133.5471 H   0  0  0  0  0  0  0  0  0  0  0  0
  1  2  1  0
  2  3  1  0
  2  4  1  0
  2  5  1  0
  5  6  1  0
  6  7  2  0
  6  8  1  0
  8  9  1  0
  9 10  1  0
 10 11  1  0
 10 12  2  0
  9 13  2  0
 13 14  1  0
 14 15  2  0
 15 16  1  0
 16 17  2  0
 17 18  1  0
 18 19  1  0
 19 20  1  0
 20 21  1  0
 21 22  1  0
 21 23  1  0
 17 24  1  0
 24 25  2  0
 25  8  1  0
 25 14  1  0
 23 18  1  0
  1 26  1  0
  1 27  1  0
  1 28  1  0
  3 29  1  0
  3 30  1  0
  3 31  1  0
  4 32  1  0
  4 33  1  0
  4 34  1  0
  5 35  1  0
  5 36  1  0
 11 37  1  0
 11 38  1  0
 13 39  1  0
 15 40  1  0
 16 41  1  0
 19 42  1  0
 19 43  1  0
 20 44  1  0
 20 45  1  0
 21 46  1  1
 22 47  1  0
 23 48  1  0
 23 49  1  0
 24 50  1  0
M  END
>  <UniqueID>  (77) 
77

>  <SMILES>  (77) 
CC(C)(C)CC(=O)n1c(C(N)=O)cc2ccc(N3CC[C@H](O)C3)cc21

>  <Energy>  (77) 
88.33776860236458

>  <Genealogy>  (77) 
CC(C)(C)CC(=O)n1c(C(N)=O)cc2ccc(N3CC[C@H](O)C3)cc21 (3D coordinates assigned)
CC(C)(C)CC(=O)n1c(C(N)=O)cc2ccc(N3CC[C@H](O)C3)cc21 (nonaromatic ring conformer: 88.33776860236458 kcal/mol)

>  <smiles>  (77) 
CC(C)(C)CC(=O)n1c(C(N)=O)cc2ccc(N3CC[C@H](O)C3)cc21

>  <score_type>  (77) 
oracle

>  <origin>  (77) 
adg

>  <m_score__min__energy>  (77) 
-8.0500000000000007

>  <m_primary>  (77) 
energy

$$$$
77:0
     RDKit          3D

 41 43  0  0  0  0  0  0  0  0999 V2000
  149.0850  159.1920  133.7600 N   0  0  0  0  0  0  0  0  0  0  0  0
  148.0240  159.5410  132.8750 C   0  0  0  0  0  0  0  0  0  0  0  0
  148.2980  159.9370  131.7110 O   0  0  0  0  0  0  0  0  0  0  0  0
  146.6120  159.3900  133.2830 C   0  0  0  0  0  0  0  0  0  0  0  0
  145.7080  160.4490  133.3180 C   0  0  0  0  0  0  0  0  0  0  0  0
  144.4980  159.8870  133.6540 C   0  0  0  0  0  0  0  0  0  0  0  0
  143.2570  160.4860  133.8440 C   0  0  0  0  0  0  0  0  0  0  0  0
  142.1820  159.6660  134.2230 C   0  0  0  0  0  0  0  0  0  0  0  0
  142.3660  158.2730  134.4090 C   0  0  0  0  0  0  0  0  0  0  0  0
  141.2170  157.4090  134.8580 C   0  0  0  0  0  0  0  0  0  0  0  0
  139.8970  158.1940  134.9330 C   0  0  0  0  0  0  0  0  0  0  0  0
  138.7560  157.5530  134.1270 C   0  0  0  0  0  0  0  0  0  0  0  0
  139.1240  157.3840  132.7250 N   0  0  0  0  0  0  0  0  0  0  0  0
  139.4890  158.4660  131.8640 C   0  0  0  0  0  0  0  0  0  0  0  0
  140.6980  158.6860  131.5840 O   0  0  0  0  0  0  0  0  0  0  0  0
  138.4250  159.3680  131.3220 C   0  0  0  0  0  0  0  0  0  0  0  0
  137.0870  159.0110  131.5240 O   0  0  0  0  0  0  0  0  0  0  0  0
  138.7060  160.8590  131.2410 C   0  0  0  0  0  0  0  0  0  0  0  0
  138.6990  160.0110  129.9740 C   0  0  0  0  0  0  0  0  0  0  0  0
  143.6430  157.7020  134.2130 C   0  0  0  0  0  0  0  0  0  0  0  0
  144.6920  158.5400  133.8160 C   0  0  0  0  0  0  0  0  0  0  0  0
  145.9860  158.2180  133.5950 N   0  0  0  0  0  0  0  0  0  0  0  0
  146.5770  156.9180  133.7560 C   0  0  0  0  0  0  0  0  0  0  0  0
  146.1040  155.9230  133.1440 O   0  0  0  0  0  0  0  0  0  0  0  0
  147.6900  156.7480  134.5700 O   0  0  0  0  0  0  0  0  0  0  0  0
  149.2190  158.2070  134.0770 H   0  0  0  0  0  0  0  0  0  0  0  0
  145.9172  161.5104  133.1190 H   0  0  0  0  0  0  0  0  0  0  0  0
  143.1220  161.5684  133.7017 H   0  0  0  0  0  0  0  0  0  0  0  0
  141.1871  160.1092  134.3771 H   0  0  0  0  0  0  0  0  0  0  0  0
  141.0967  156.5803  134.1447 H   0  0  0  0  0  0  0  0  0  0  0  0
  141.4474  157.0371  135.8673 H   0  0  0  0  0  0  0  0  0  0  0  0
  139.5875  158.2549  135.9868 H   0  0  0  0  0  0  0  0  0  0  0  0
  140.0849  159.1856  134.4955 H   0  0  0  0  0  0  0  0  0  0  0  0
  138.5235  156.5677  134.5573 H   0  0  0  0  0  0  0  0  0  0  0  0
  137.8808  158.2174  134.1775 H   0  0  0  0  0  0  0  0  0  0  0  0
  137.1120  158.1910  132.0810 H   0  0  0  0  0  0  0  0  0  0  0  0
  137.8976  161.5822  131.4238 H   0  0  0  0  0  0  0  0  0  0  0  0
  139.4245  161.5430  131.7163 H   0  0  0  0  0  0  0  0  0  0  0  0
  137.8856  160.1222  129.2419 H   0  0  0  0  0  0  0  0  0  0  0  0
  139.4106  159.8292  129.1551 H   0  0  0  0  0  0  0  0  0  0  0  0
  143.8092  156.6258  134.3684 H   0  0  0  0  0  0  0  0  0  0  0  0
  1  2  1  0
  2  3  2  0
  2  4  1  0
  4  5  2  0
  5  6  1  0
  6  7  2  0
  7  8  1  0
  8  9  2  0
  9 10  1  0
 10 11  1  0
 11 12  1  0
 12 13  1  0
 13 14  1  0
 14 15  2  0
 14 16  1  0
 16 17  1  0
 16 18  1  0
 18 19  1  0
  9 20  1  0
 20 21  2  0
 21 22  1  0
 22 23  1  0
 23 24  2  0
 23 25  1  0
 22  4  1  0
 21  6  1  0
 19 16  1  0
  1 26  1  0
  5 27  1  0
  7 28  1  0
  8 29  1  0
 10 30  1  0
 10 31  1  0
 11 32  1  0
 11 33  1  0
 12 34  1  0
 12 35  1  0
 17 36  1  0
 18 37  1  0
 18 38  1  0
 19 39  1  0
 19 40  1  0
 20 41  1  0
M  CHG  3   1  -1  13  -1  25  -1
M  END
>  <UniqueID>  (78) 
78

>  <SMILES>  (78) 
[NH-]C(=O)c1cc2ccc(CCC[N-]C(=O)C3(O)CC3)cc2n1C(=O)[O-]

>  <Energy>  (78) 
342.7571416927507

>  <Genealogy>  (78) 
[NH-]C(=O)c1cc2ccc(CCC[N-]C(=O)C3(O)CC3)cc2n1C(=O)[O-] (protonated)
[NH-]C(=O)c1cc2ccc(CCC[N-]C(=O)C3(O)CC3)cc2n1C(=O)[O-] (3D coordinates assigned)
[NH-]C(=O)c1cc2ccc(CCC[N-]C(=O)C3(O)CC3)cc2n1C(=O)[O-] (nonaromatic ring conformer: 342.7571416927507 kcal/mol)

>  <smiles>  (78) 
NC(=O)c1cc2ccc(CCCNC(=O)C3(O)CC3)cc2n1C(=O)O

>  <score_type>  (78) 
oracle

>  <origin>  (78) 
adg

>  <m_score__min__energy>  (78) 
-7.3499999999999996

>  <m_primary>  (78) 
energy

$$$$
78:0
     RDKit          3D

 42 44  0  0  0  0  0  0  0  0999 V2000
  138.7900  147.7930  129.2220 C   0  0  0  0  0  0  0  0  0  0  0  0
  139.7080  147.6340  130.3980 C   0  0  0  0  0  0  0  0  0  0  0  0
  140.0900  146.4740  130.7110 O   0  0  0  0  0  0  0  0  0  0  0  0
  140.1330  148.7720  131.1800 N   0  0  0  0  0  0  0  0  0  0  0  0
  139.4640  150.0740  131.0140 C   0  0  0  0  0  0  0  0  0  0  0  0
  139.8650  151.0620  132.1160 C   0  0  0  0  0  0  0  0  0  0  0  0
  141.3990  151.1860  132.2220 C   0  0  0  0  0  0  0  0  0  0  0  0
  141.7780  151.9910  133.4510 C   0  0  0  0  0  0  0  0  0  0  0  0
  142.5640  153.1670  133.3300 C   0  0  0  0  0  0  0  0  0  0  0  0
  142.9160  153.9160  134.4640 C   0  0  0  0  0  0  0  0  0  0  0  0
  142.4830  153.4640  135.7060 C   0  0  0  0  0  0  0  0  0  0  0  0
  142.6540  154.0150  136.9540 C   0  0  0  0  0  0  0  0  0  0  0  0
  142.0020  153.1510  137.8290 C   0  0  0  0  0  0  0  0  0  0  0  0
  141.9880  153.3370  139.2930 C   0  0  0  0  0  0  0  0  0  0  0  0
  140.7610  153.3720  140.0240 N   0  0  0  0  0  0  0  0  0  0  0  0
  143.0800  153.4110  139.9170 O   0  0  0  0  0  0  0  0  0  0  0  0
  141.4370  152.1120  137.1500 N   0  0  0  0  0  0  0  0  0  0  0  0
  140.5880  151.0800  137.6810 C   0  0  0  0  0  0  0  0  0  0  0  0
  140.1950  151.1330  138.8760 O   0  0  0  0  0  0  0  0  0  0  0  0
  140.1900  150.0150  136.8820 O   0  0  0  0  0  0  0  0  0  0  0  0
  141.7440  152.3170  135.8490 C   0  0  0  0  0  0  0  0  0  0  0  0
  141.3590  151.5630  134.7330 C   0  0  0  0  0  0  0  0  0  0  0  0
  142.1300  149.8130  132.1830 C   0  0  0  0  0  0  0  0  0  0  0  0
  141.1720  148.6160  132.2110 C   0  0  0  0  0  0  0  0  0  0  0  0
  137.7647  147.9706  129.5786 H   0  0  0  0  0  0  0  0  0  0  0  0
  139.1194  148.6475  128.6126 H   0  0  0  0  0  0  0  0  0  0  0  0
  138.8129  146.8775  128.6126 H   0  0  0  0  0  0  0  0  0  0  0  0
  139.7433  150.4964  130.0375 H   0  0  0  0  0  0  0  0  0  0  0  0
  138.3778  149.9121  131.0772 H   0  0  0  0  0  0  0  0  0  0  0  0
  139.4402  152.0499  131.8843 H   0  0  0  0  0  0  0  0  0  0  0  0
  139.4783  150.6893  133.0759 H   0  0  0  0  0  0  0  0  0  0  0  0
  141.7423  151.7260  131.3273 H   0  0  0  0  0  0  0  0  0  0  0  0
  142.9012  153.4953  132.3358 H   0  0  0  0  0  0  0  0  0  0  0  0
  143.5165  154.8331  134.3729 H   0  0  0  0  0  0  0  0  0  0  0  0
  143.1913  154.9409  137.2069 H   0  0  0  0  0  0  0  0  0  0  0  0
  139.8530  153.1440  139.5620 H   0  0  0  0  0  0  0  0  0  0  0  0
  140.7700  153.5430  141.0540 H   0  0  0  0  0  0  0  0  0  0  0  0
  140.7445  150.6582  134.8506 H   0  0  0  0  0  0  0  0  0  0  0  0
  142.7270  149.7612  131.2605 H   0  0  0  0  0  0  0  0  0  0  0  0
  142.7561  149.7510  133.0853 H   0  0  0  0  0  0  0  0  0  0  0  0
  141.7384  147.6928  132.0192 H   0  0  0  0  0  0  0  0  0  0  0  0
  140.6919  148.5637  133.1993 H   0  0  0  0  0  0  0  0  0  0  0  0
  1  2  1  0
  2  3  2  0
  2  4  1  0
  4  5  1  0
  5  6  1  0
  6  7  1  0
  7  8  1  0
  8  9  2  0
  9 10  1  0
 10 11  2  0
 11 12  1  0
 12 13  2  0
 13 14  1  0
 14 15  1  0
 14 16  2  0
 13 17  1  0
 17 18  1  0
 18 19  2  0
 18 20  1  0
 17 21  1  0
 21 22  2  0
  7 23  1  0
 23 24  1  0
 24  4  1  0
 22  8  1  0
 21 11  1  0
  1 25  1  0
  1 26  1  0
  1 27  1  0
  5 28  1  0
  5 29  1  0
  6 30  1  0
  6 31  1  0
  7 32  1  0
  9 33  1  0
 10 34  1  0
 12 35  1  0
 15 36  1  0
 15 37  1  0
 22 38  1  0
 23 39  1  0
 23 40  1  0
 24 41  1  0
 24 42  1  0
M  CHG  1  20  -1
M  END
>  <UniqueID>  (79) 
79

>  <SMILES>  (79) 
CC(=O)N1CCC(c2ccc3cc(C(N)=O)n(C(=O)[O-])c3c2)CC1

>  <Energy>  (79) 
85.32448476107798

>  <Genealogy>  (79) 
CC(=O)N1CCC(c2ccc3cc(C(N)=O)n(C(=O)[O-])c3c2)CC1 (protonated)
CC(=O)N1CCC(c2ccc3cc(C(N)=O)n(C(=O)[O-])c3c2)CC1 (3D coordinates assigned)
CC(=O)N1CCC(c2ccc3cc(C(N)=O)n(C(=O)[O-])c3c2)CC1 (nonaromatic ring conformer: 85.32448476107798 kcal/mol)

>  <smiles>  (79) 
CC(=O)N1CCC(c2ccc3cc(C(N)=O)n(C(=O)O)c3c2)CC1

>  <score_type>  (79) 
oracle

>  <origin>  (79) 
adg

>  <m_score__min__energy>  (79) 
-8.1400000000000006

>  <m_primary>  (79) 
energy

$$$$
79:0
     RDKit          3D

 38 40  0  0  0  0  0  0  0  0999 V2000
  149.7840  151.4290  133.0330 C   0  0  0  0  0  0  0  0  0  0  0  0
  148.5310  152.1630  133.1540 N   0  0  0  0  0  0  0  0  0  0  0  0
  148.3980  153.5120  132.6860 C   0  0  0  0  0  0  0  0  0  0  0  0
  149.4000  154.1250  132.2290 O   0  0  0  0  0  0  0  0  0  0  0  0
  147.1320  154.1840  132.7730 N   0  0  0  0  0  0  0  0  0  0  0  0
  145.8860  153.6360  132.7030 C   0  0  0  0  0  0  0  0  0  0  0  0
  145.5780  152.2290  132.3750 C   0  0  0  0  0  0  0  0  0  0  0  0
  144.2700  151.7140  132.6130 N   0  0  0  0  0  0  0  0  0  0  0  0
  146.4490  151.4820  131.8570 O   0  0  0  0  0  0  0  0  0  0  0  0
  144.9120  154.6130  132.9030 C   0  0  0  0  0  0  0  0  0  0  0  0
  145.6060  155.7880  133.0890 C   0  0  0  0  0  0  0  0  0  0  0  0
  145.1410  157.0750  133.3430 C   0  0  0  0  0  0  0  0  0  0  0  0
  146.0900  158.0950  133.5200 C   0  0  0  0  0  0  0  0  0  0  0  0
  147.4770  157.8140  133.4360 C   0  0  0  0  0  0  0  0  0  0  0  0
  148.4820  158.9050  133.6790 C   0  0  0  0  0  0  0  0  0  0  0  0
  148.8190  159.5930  132.3900 C   0  0  0  0  0  0  0  0  0  0  0  0
  149.7770  159.0540  131.5190 C   0  0  0  0  0  0  0  0  0  0  0  0
  150.0970  159.7390  130.3450 C   0  0  0  0  0  0  0  0  0  0  0  0
  149.4690  160.9510  130.0540 C   0  0  0  0  0  0  0  0  0  0  0  0
  148.5280  161.4640  130.9500 C   0  0  0  0  0  0  0  0  0  0  0  0
  148.2290  160.7830  132.0890 N   0  0  0  0  0  0  0  0  0  0  0  0
  147.9120  156.4940  133.1870 C   0  0  0  0  0  0  0  0  0  0  0  0
  146.9440  155.5010  133.0030 C   0  0  0  0  0  0  0  0  0  0  0  0
  150.1736  151.2008  134.0361 H   0  0  0  0  0  0  0  0  0  0  0  0
  149.6082  150.4911  132.4858 H   0  0  0  0  0  0  0  0  0  0  0  0
  150.5161  152.0410  132.4858 H   0  0  0  0  0  0  0  0  0  0  0  0
  147.7150  151.6970  133.6090 H   0  0  0  0  0  0  0  0  0  0  0  0
  143.4990  151.8680  131.9250 H   0  0  0  0  0  0  0  0  0  0  0  0
  143.8207  154.4748  132.9106 H   0  0  0  0  0  0  0  0  0  0  0  0
  144.0633  157.2867  133.4033 H   0  0  0  0  0  0  0  0  0  0  0  0
  145.7538  159.1220  133.7258 H   0  0  0  0  0  0  0  0  0  0  0  0
  148.0603  159.6377  134.3828 H   0  0  0  0  0  0  0  0  0  0  0  0
  149.3970  158.4636  134.1009 H   0  0  0  0  0  0  0  0  0  0  0  0
  150.2714  158.1010  131.7583 H   0  0  0  0  0  0  0  0  0  0  0  0
  150.8427  159.3242  129.6508 H   0  0  0  0  0  0  0  0  0  0  0  0
  149.7122  161.4959  129.1299 H   0  0  0  0  0  0  0  0  0  0  0  0
  148.0282  162.4198  130.7342 H   0  0  0  0  0  0  0  0  0  0  0  0
  148.9841  156.2528  133.1389 H   0  0  0  0  0  0  0  0  0  0  0  0
  1  2  1  0
  2  3  1  0
  3  4  2  0
  3  5  1  0
  5  6  1  0
  6  7  1  0
  7  8  1  0
  7  9  2  0
  6 10  2  0
 10 11  1  0
 11 12  2  0
 12 13  1  0
 13 14  2  0
 14 15  1  0
 15 16  1  0
 16 17  2  0
 17 18  1  0
 18 19  2  0
 19 20  1  0
 20 21  2  0
 14 22  1  0
 22 23  2  0
 23  5  1  0
 23 11  1  0
 21 16  1  0
  1 24  1  0
  1 25  1  0
  1 26  1  0
  2 27  1  0
  8 28  1  0
 10 29  1  0
 12 30  1  0
 13 31  1  0
 15 32  1  0
 15 33  1  0
 17 34  1  0
 18 35  1  0
 19 36  1  0
 20 37  1  0
 22 38  1  0
M  CHG  1   8  -1
M  END
>  <UniqueID>  (80) 
80

>  <SMILES>  (80) 
CNC(=O)n1c(C([NH-])=O)cc2ccc(Cc3ccccn3)cc21

>  <Energy>  (80) 
75.50838355834898

>  <Genealogy>  (80) 
CNC(=O)n1c(C([NH-])=O)cc2ccc(Cc3ccccn3)cc21 (protonated)
CNC(=O)n1c(C([NH-])=O)cc2ccc(Cc3ccccn3)cc21 (3D coordinates assigned)
CNC(=O)n1c(C([NH-])=O)cc2ccc(Cc3ccccn3)cc21 (optimized conformer: 75.50838355834898 kcal/mol)

>  <smiles>  (80) 
CNC(=O)n1c(C(N)=O)cc2ccc(Cc3ccccn3)cc21

>  <score_type>  (80) 
oracle

>  <origin>  (80) 
adg

>  <m_score__min__energy>  (80) 
-7.8200000000000003

>  <m_primary>  (80) 
energy

$$$$
80:0
     RDKit          3D

 40 42  0  0  0  0  0  0  0  0999 V2000
  145.0310  160.8700  133.5540 C   0  0  0  0  0  0  0  0  0  0  0  0
  146.0140  159.7480  133.4030 C   0  0  0  0  0  0  0  0  0  0  0  0
  147.3020  159.9940  132.8650 C   0  0  0  0  0  0  0  0  0  0  0  0
  148.2160  158.9400  132.6850 C   0  0  0  0  0  0  0  0  0  0  0  0
  147.8080  157.6560  133.0370 C   0  0  0  0  0  0  0  0  0  0  0  0
  148.4880  156.4590  132.9800 C   0  0  0  0  0  0  0  0  0  0  0  0
  147.5950  155.5030  133.4630 C   0  0  0  0  0  0  0  0  0  0  0  0
  147.8880  154.0560  133.5210 C   0  0  0  0  0  0  0  0  0  0  0  0
  148.6320  153.4380  132.4720 N   0  0  0  0  0  0  0  0  0  0  0  0
  147.4650  153.3500  134.4750 O   0  0  0  0  0  0  0  0  0  0  0  0
  146.4130  156.0870  133.8030 N   0  0  0  0  0  0  0  0  0  0  0  0
  145.2540  155.4590  134.3700 C   0  0  0  0  0  0  0  0  0  0  0  0
  145.0800  155.5050  135.6180 O   0  0  0  0  0  0  0  0  0  0  0  0
  144.2920  154.7900  133.5280 N   0  0  0  0  0  0  0  0  0  0  0  0
  144.7000  154.1860  132.2560 C   0  0  0  0  0  0  0  0  0  0  0  0
  144.8120  152.6680  132.4330 C   0  0  0  0  0  0  0  0  0  0  0  0
  143.6120  152.1340  133.1040 N   0  0  0  0  0  0  0  0  0  0  0  0
  143.1550  150.8000  132.8210 C   0  0  0  0  0  0  0  0  0  0  0  0
  143.6940  150.1080  131.9150 O   0  0  0  0  0  0  0  0  0  0  0  0
  143.1010  152.8100  134.3060 C   0  0  0  0  0  0  0  0  0  0  0  0
  143.0160  154.3190  134.0720 C   0  0  0  0  0  0  0  0  0  0  0  0
  146.5590  157.4030  133.5400 C   0  0  0  0  0  0  0  0  0  0  0  0
  145.6310  158.4300  133.7380 C   0  0  0  0  0  0  0  0  0  0  0  0
  144.8594  161.0658  134.6227 H   0  0  0  0  0  0  0  0  0  0  0  0
  145.4317  161.7755  133.0750 H   0  0  0  0  0  0  0  0  0  0  0  0
  144.0806  160.5918  133.0750 H   0  0  0  0  0  0  0  0  0  0  0  0
  147.5895  161.0184  132.5857 H   0  0  0  0  0  0  0  0  0  0  0  0
  149.2215  159.1243  132.2789 H   0  0  0  0  0  0  0  0  0  0  0  0
  149.5169  156.2928  132.6282 H   0  0  0  0  0  0  0  0  0  0  0  0
  148.4740  153.7020  131.4740 H   0  0  0  0  0  0  0  0  0  0  0  0
  143.9499  154.4122  131.4838 H   0  0  0  0  0  0  0  0  0  0  0  0
  145.6733  154.5953  131.9475 H   0  0  0  0  0  0  0  0  0  0  0  0
  144.9143  152.1953  131.4450 H   0  0  0  0  0  0  0  0  0  0  0  0
  145.6932  152.4472  133.0533 H   0  0  0  0  0  0  0  0  0  0  0  0
  142.3231  150.3772  133.4034 H   0  0  0  0  0  0  0  0  0  0  0  0
  142.0988  152.4225  134.5416 H   0  0  0  0  0  0  0  0  0  0  0  0
  143.7870  152.6164  135.1438 H   0  0  0  0  0  0  0  0  0  0  0  0
  142.2080  154.5365  133.3581 H   0  0  0  0  0  0  0  0  0  0  0  0
  142.8056  154.8311  135.0225 H   0  0  0  0  0  0  0  0  0  0  0  0
  144.6307  158.2177  134.1433 H   0  0  0  0  0  0  0  0  0  0  0  0
  1  2  1  0
  2  3  2  0
  3  4  1  0
  4  5  2  0
  5  6  1  0
  6  7  2  0
  7  8  1  0
  8  9  1  0
  8 10  2  0
  7 11  1  0
 11 12  1  0
 12 13  2  0
 12 14  1  0
 14 15  1  0
 15 16  1  0
 16 17  1  0
 17 18  1  0
 18 19  2  0
 17 20  1  0
 20 21  1  0
 11 22  1  0
 22 23  2  0
 23  2  1  0
 22  5  1  0
 21 14  1  0
  1 24  1  0
  1 25  1  0
  1 26  1  0
  3 27  1  0
  4 28  1  0
  6 29  1  0
  9 30  1  0
 15 31  1  0
 15 32  1  0
 16 33  1  0
 16 34  1  0
 18 35  1  0
 20 36  1  0
 20 37  1  0
 21 38  1  0
 21 39  1  0
 23 40  1  0
M  CHG  1   9  -1
M  END
>  <UniqueID>  (81) 
81

>  <SMILES>  (81) 
Cc1ccc2cc(C([NH-])=O)n(C(=O)N3CCN(C=O)CC3)c2c1

>  <Energy>  (81) 
78.76536631227233

>  <Genealogy>  (81) 
Cc1ccc2cc(C([NH-])=O)n(C(=O)N3CCN(C=O)CC3)c2c1 (protonated)
Cc1ccc2cc(C([NH-])=O)n(C(=O)N3CCN(C=O)CC3)c2c1 (3D coordinates assigned)
Cc1ccc2cc(C([NH-])=O)n(C(=O)N3CCN(C=O)CC3)c2c1 (nonaromatic ring conformer: 78.76536631227233 kcal/mol)

>  <smiles>  (81) 
Cc1ccc2cc(C(N)=O)n(C(=O)N3CCN(C=O)CC3)c2c1

>  <score_type>  (81) 
oracle

>  <origin>  (81) 
adg

>  <m_score__min__energy>  (81) 
-7.2800000000000002

>  <m_primary>  (81) 
energy

$$$$
81:0
     RDKit          3D

 37 40  0  0  0  0  0  0  0  0999 V2000
  138.3440  157.8060  133.5370 N   0  0  0  0  0  0  0  0  0  0  0  0
  139.2600  158.0840  134.5930 C   0  0  0  0  0  0  0  0  0  0  0  0
  138.8230  158.2320  135.7660 O   0  0  0  0  0  0  0  0  0  0  0  0
  140.7020  158.2560  134.3210 C   0  0  0  0  0  0  0  0  0  0  0  0
  141.3740  159.4650  134.4910 C   0  0  0  0  0  0  0  0  0  0  0  0
  142.6560  159.2340  134.0510 C   0  0  0  0  0  0  0  0  0  0  0  0
  143.7500  160.0890  134.0040 C   0  0  0  0  0  0  0  0  0  0  0  0
  144.9670  159.5750  133.5290 C   0  0  0  0  0  0  0  0  0  0  0  0
  145.0850  158.2210  133.1100 C   0  0  0  0  0  0  0  0  0  0  0  0
  146.3930  157.7530  132.6630 N   0  0  1  0  0  0  0  0  0  0  0  0
  147.2670  158.8740  132.2470 C   0  0  0  0  0  0  0  0  0  0  0  0
  148.5800  158.6150  133.0110 C   0  0  1  0  0  0  0  0  0  0  0  0
  148.0340  158.1530  134.3300 C   0  0  0  0  0  0  0  0  0  0  0  0
  147.2280  157.0550  133.6750 C   0  0  2  0  0  0  0  0  0  0  0  0
  148.3640  156.3260  132.9340 C   0  0  0  0  0  0  0  0  0  0  0  0
  149.2370  157.4140  132.4670 N   0  0  0  0  0  0  0  0  0  0  0  0
  143.9360  157.3830  133.1820 C   0  0  0  0  0  0  0  0  0  0  0  0
  142.7320  157.9290  133.6420 C   0  0  0  0  0  0  0  0  0  0  0  0
  141.5390  157.3130  133.8040 N   0  0  0  0  0  0  0  0  0  0  0  0
  141.2570  155.9240  133.5730 C   0  0  0  0  0  0  0  0  0  0  0  0
  142.0750  155.0390  133.9380 O   0  0  0  0  0  0  0  0  0  0  0  0
  140.0670  155.5410  132.9660 O   0  0  0  0  0  0  0  0  0  0  0  0
  138.3490  156.8820  133.0530 H   0  0  0  0  0  0  0  0  0  0  0  0
  140.9656  160.4044  134.8920 H   0  0  0  0  0  0  0  0  0  0  0  0
  143.6653  161.1365  134.3290 H   0  0  0  0  0  0  0  0  0  0  0  0
  145.8472  160.2329  133.4799 H   0  0  0  0  0  0  0  0  0  0  0  0
  146.2300  157.1150  131.8460 H   0  0  0  0  0  0  0  0  0  0  0  0
  147.4356  158.8577  131.1601 H   0  0  0  0  0  0  0  0  0  0  0  0
  146.8316  159.8595  132.4687 H   0  0  0  0  0  0  0  0  0  0  0  0
  149.2703  159.4714  132.9985 H   0  0  0  0  0  0  0  0  0  0  0  0
  148.8054  157.7815  135.0206 H   0  0  0  0  0  0  0  0  0  0  0  0
  147.5255  158.8761  134.9846 H   0  0  0  0  0  0  0  0  0  0  0  0
  146.6027  156.4177  134.3176 H   0  0  0  0  0  0  0  0  0  0  0  0
  148.9068  155.6534  133.6145 H   0  0  0  0  0  0  0  0  0  0  0  0
  147.9972  155.6939  132.1119 H   0  0  0  0  0  0  0  0  0  0  0  0
  149.2400  157.4450  131.4200 H   0  0  0  0  0  0  0  0  0  0  0  0
  143.9935  156.3263  132.8818 H   0  0  0  0  0  0  0  0  0  0  0  0
  1  2  1  0
  2  3  2  0
  2  4  1  0
  4  5  2  0
  5  6  1  0
  6  7  2  0
  7  8  1  0
  8  9  2  0
  9 10  1  0
 10 11  1  0
 11 12  1  0
 12 13  1  0
 13 14  1  0
 14 15  1  0
 15 16  1  0
  9 17  1  0
 17 18  2  0
 18 19  1  0
 19 20  1  0
 20 21  2  0
 20 22  1  0
 19  4  1  0
 18  6  1  0
 14 10  1  0
 16 12  1  0
  1 23  1  0
  5 24  1  0
  7 25  1  0
  8 26  1  0
 10 27  1  6
 11 28  1  0
 11 29  1  0
 12 30  1  1
 13 31  1  0
 13 32  1  0
 14 33  1  1
 15 34  1  0
 15 35  1  0
 16 36  1  0
 17 37  1  0
M  CHG  3   1  -1  10   1  22  -1
M  END
>  <UniqueID>  (82) 
82

>  <SMILES>  (82) 
[NH-]C(=O)c1cc2ccc([N@H+]3C[C@H]4CC3CN4)cc2n1C(=O)[O-]

>  <Energy>  (82) 
117.46573244171194

>  <Genealogy>  (82) 
[NH-]C(=O)c1cc2ccc([NH+]3CC4CC3CN4)cc2n1C(=O)[O-] (protonated)
[NH-]C(=O)c1cc2ccc([N@H+]3C[C@H]4CC3CN4)cc2n1C(=O)[O-] (chirality)
[NH-]C(=O)c1cc2ccc([N@H+]3C[C@H]4CC3CN4)cc2n1C(=O)[O-] (3D coordinates assigned)
[NH-]C(=O)c1cc2ccc([N@H+]3C[C@H]4CC3CN4)cc2n1C(=O)[O-] (nonaromatic ring conformer: 117.46573244171194 kcal/mol)

>  <smiles>  (82) 
NC(=O)c1cc2ccc(N3CC4CC3CN4)cc2n1C(=O)O

>  <score_type>  (82) 
oracle

>  <origin>  (82) 
adg

>  <m_score__min__energy>  (82) 
-7.1900000000000004

>  <m_primary>  (82) 
energy

$$$$
82:0
     RDKit          3D

 49 51  0  0  0  0  0  0  0  0999 V2000
  151.8700  149.2440  129.2330 C   0  0  0  0  0  0  0  0  0  0  0  0
  150.5020  149.5840  129.2460 O   0  0  0  0  0  0  0  0  0  0  0  0
  150.3230  150.7950  129.9490 C   0  0  0  0  0  0  0  0  0  0  0  0
  150.2870  150.5060  131.4490 C   0  0  0  0  0  0  0  0  0  0  0  0
  149.0980  151.1290  132.0730 N   0  0  0  0  0  0  0  0  0  0  0  0
  148.1650  150.0940  132.5490 C   0  0  0  0  0  0  0  0  0  0  0  0
  149.4520  152.0740  133.1620 C   0  0  0  0  0  0  0  0  0  0  0  0
  149.6030  153.4940  132.6050 C   0  0  0  0  0  0  0  0  0  0  0  0
  148.3690  154.3190  132.8560 C   0  0  0  0  0  0  0  0  0  0  0  0
  147.0940  153.7000  132.9050 C   0  0  0  0  0  0  0  0  0  0  0  0
  145.9320  154.4700  133.0850 C   0  0  0  0  0  0  0  0  0  0  0  0
  146.0740  155.8490  133.1990 C   0  0  0  0  0  0  0  0  0  0  0  0
  145.1240  156.8330  133.3690 C   0  0  0  0  0  0  0  0  0  0  0  0
  145.8340  158.0320  133.3990 C   0  0  0  0  0  0  0  0  0  0  0  0
  145.1990  159.3640  133.4840 C   0  0  0  0  0  0  0  0  0  0  0  0
  145.9980  160.5180  133.7340 N   0  0  0  0  0  0  0  0  0  0  0  0
  143.9520  159.4910  133.3590 O   0  0  0  0  0  0  0  0  0  0  0  0
  147.1690  157.7970  133.2640 N   0  0  0  0  0  0  0  0  0  0  0  0
  148.2440  158.7480  133.2640 C   0  0  0  0  0  0  0  0  0  0  0  0
  148.8760  158.9700  134.3320 O   0  0  0  0  0  0  0  0  0  0  0  0
  148.5790  159.5080  132.0480 C   0  0  0  0  0  0  0  0  0  0  0  0
  147.7950  160.4430  131.4050 C   0  0  0  0  0  0  0  0  0  0  0  0
  148.4670  160.8710  130.3230 N   0  0  0  0  0  0  0  0  0  0  0  0
  149.6070  160.2470  130.2720 O   0  0  0  0  0  0  0  0  0  0  0  0
  149.7260  159.4140  131.2810 C   0  0  0  0  0  0  0  0  0  0  0  0
  147.2980  156.4610  133.1370 C   0  0  0  0  0  0  0  0  0  0  0  0
  148.4720  155.7230  132.9730 C   0  0  0  0  0  0  0  0  0  0  0  0
  152.2351  149.1533  130.2667 H   0  0  0  0  0  0  0  0  0  0  0  0
  152.0046  148.2851  128.7111 H   0  0  0  0  0  0  0  0  0  0  0  0
  152.4378  150.0283  128.7111 H   0  0  0  0  0  0  0  0  0  0  0  0
  151.1571  151.4765  129.7258 H   0  0  0  0  0  0  0  0  0  0  0  0
  149.3771  151.2643  129.6408 H   0  0  0  0  0  0  0  0  0  0  0  0
  150.2492  149.4180  131.6064 H   0  0  0  0  0  0  0  0  0  0  0  0
  151.1914  150.9272  131.9123 H   0  0  0  0  0  0  0  0  0  0  0  0
  148.1571  150.0853  133.6489 H   0  0  0  0  0  0  0  0  0  0  0  0
  147.1533  150.3131  132.1768 H   0  0  0  0  0  0  0  0  0  0  0  0
  148.4875  149.1104  132.1768 H   0  0  0  0  0  0  0  0  0  0  0  0
  148.6576  152.0651  133.9228 H   0  0  0  0  0  0  0  0  0  0  0  0
  150.4066  151.7620  133.6107 H   0  0  0  0  0  0  0  0  0  0  0  0
  150.4623  153.9791  133.0910 H   0  0  0  0  0  0  0  0  0  0  0  0
  149.7562  153.4240  131.5180 H   0  0  0  0  0  0  0  0  0  0  0  0
  147.0137  152.6078  132.8012 H   0  0  0  0  0  0  0  0  0  0  0  0
  144.9404  153.9964  133.1342 H   0  0  0  0  0  0  0  0  0  0  0  0
  144.0360  156.7002  133.4614 H   0  0  0  0  0  0  0  0  0  0  0  0
  146.1360  161.2470  132.9990 H   0  0  0  0  0  0  0  0  0  0  0  0
  146.7966  160.7788  131.7218 H   0  0  0  0  0  0  0  0  0  0  0  0
  148.1420  161.5790  129.6290 H   0  0  0  0  0  0  0  0  0  0  0  0
  150.5860  158.7578  131.4805 H   0  0  0  0  0  0  0  0  0  0  0  0
  149.4516  156.2220  132.9359 H   0  0  0  0  0  0  0  0  0  0  0  0
  1  2  1  0
  2  3  1  0
  3  4  1  0
  4  5  1  0
  5  6  1  0
  5  7  1  0
  7  8  1  0
  8  9  1  0
  9 10  2  0
 10 11  1  0
 11 12  2  0
 12 13  1  0
 13 14  2  0
 14 15  1  0
 15 16  1  0
 15 17  2  0
 14 18  1  0
 18 19  1  0
 19 20  2  0
 19 21  1  0
 21 22  1  0
 22 23  2  0
 23 24  1  0
 24 25  1  0
 18 26  1  0
 26 27  2  0
 27  9  1  0
 26 12  1  0
 25 21  2  0
  1 28  1  0
  1 29  1  0
  1 30  1  0
  3 31  1  0
  3 32  1  0
  4 33  1  0
  4 34  1  0
  6 35  1  0
  6 36  1  0
  6 37  1  0
  7 38  1  0
  7 39  1  0
  8 40  1  0
  8 41  1  0
 10 42  1  0
 11 43  1  0
 13 44  1  0
 16 45  1  0
 22 46  1  0
 23 47  1  0
 25 48  1  0
 27 49  1  0
M  CHG  2  16  -1  23   1
M  END
>  <UniqueID>  (83) 
83

>  <SMILES>  (83) 
COCCN(C)CCc1ccc2cc(C([NH-])=O)n(C(=O)c3c[nH+]oc3)c2c1

>  <Energy>  (83) 
118.23239682043486

>  <Genealogy>  (83) 
COCCN(C)CCc1ccc2cc(C([NH-])=O)n(C(=O)c3c[nH+]oc3)c2c1 (protonated)
COCCN(C)CCc1ccc2cc(C([NH-])=O)n(C(=O)c3c[nH+]oc3)c2c1 (3D coordinates assigned)
COCCN(C)CCc1ccc2cc(C([NH-])=O)n(C(=O)c3c[nH+]oc3)c2c1 (optimized conformer: 118.23239682043486 kcal/mol)

>  <smiles>  (83) 
COCCN(C)CCc1ccc2cc(C(N)=O)n(C(=O)c3cnoc3)c2c1

>  <score_type>  (83) 
oracle

>  <origin>  (83) 
adg

>  <m_score__min__energy>  (83) 
-8.1199999999999992

>  <m_primary>  (83) 
energy

$$$$
83:0
     RDKit          3D

 39 41  0  0  0  0  0  0  0  0999 V2000
  147.9230  154.5760  132.9960 C   0  0  0  0  0  0  0  0  0  0  0  0
  147.5830  155.8800  133.4500 O   0  0  0  0  0  0  0  0  0  0  0  0
  146.4040  156.5270  133.0710 C   0  0  0  0  0  0  0  0  0  0  0  0
  145.4390  155.8630  132.6020 O   0  0  0  0  0  0  0  0  0  0  0  0
  146.2880  157.9510  133.2180 N   0  0  0  0  0  0  0  0  0  0  0  0
  147.2420  158.8920  132.9630 C   0  0  0  0  0  0  0  0  0  0  0  0
  148.6550  158.6240  132.6290 C   0  0  0  0  0  0  0  0  0  0  0  0
  149.0280  157.4830  131.8540 N   0  0  0  0  0  0  0  0  0  0  0  0
  149.5520  159.3830  133.0800 O   0  0  0  0  0  0  0  0  0  0  0  0
  146.7190  160.1740  133.1070 C   0  0  0  0  0  0  0  0  0  0  0  0
  145.4070  159.9910  133.4750 C   0  0  0  0  0  0  0  0  0  0  0  0
  144.4150  160.9290  133.7350 C   0  0  0  0  0  0  0  0  0  0  0  0
  143.1310  160.4600  134.0570 C   0  0  0  0  0  0  0  0  0  0  0  0
  142.8500  159.0660  134.1040 C   0  0  0  0  0  0  0  0  0  0  0  0
  141.5200  158.5940  134.4230 N   0  0  0  0  0  0  0  0  0  0  0  0
  140.9270  158.6710  135.7530 C   0  0  0  0  0  0  0  0  0  0  0  0
  139.4800  158.2200  135.5980 C   0  0  0  0  0  0  0  0  0  0  0  0
  139.4300  157.4700  134.2640 C   0  0  1  0  0  0  0  0  0  0  0  0
  138.2080  157.6540  133.5930 O   0  0  0  0  0  0  0  0  0  0  0  0
  140.6220  157.9810  133.4550 C   0  0  0  0  0  0  0  0  0  0  0  0
  143.8930  158.1460  133.8280 C   0  0  0  0  0  0  0  0  0  0  0  0
  145.1700  158.6430  133.5340 C   0  0  0  0  0  0  0  0  0  0  0  0
  148.0942  153.9194  133.8618 H   0  0  0  0  0  0  0  0  0  0  0  0
  147.0998  154.1734  132.3875 H   0  0  0  0  0  0  0  0  0  0  0  0
  148.8380  154.6266  132.3875 H   0  0  0  0  0  0  0  0  0  0  0  0
  150.0280  157.3310  131.5940 H   0  0  0  0  0  0  0  0  0  0  0  0
  148.3320  156.7430  131.6130 H   0  0  0  0  0  0  0  0  0  0  0  0
  147.2434  161.1294  132.9581 H   0  0  0  0  0  0  0  0  0  0  0  0
  144.6292  162.0070  133.6899 H   0  0  0  0  0  0  0  0  0  0  0  0
  142.3302  161.1815  134.2763 H   0  0  0  0  0  0  0  0  0  0  0  0
  141.4614  158.0068  136.4482 H   0  0  0  0  0  0  0  0  0  0  0  0
  140.9883  159.6905  136.1616 H   0  0  0  0  0  0  0  0  0  0  0  0
  139.1935  157.5539  136.4252 H   0  0  0  0  0  0  0  0  0  0  0  0
  138.7818  159.0698  135.6166 H   0  0  0  0  0  0  0  0  0  0  0  0
  139.4944  156.3827  134.4180 H   0  0  0  0  0  0  0  0  0  0  0  0
  137.9400  156.7810  133.2020 H   0  0  0  0  0  0  0  0  0  0  0  0
  141.1229  157.1472  132.9413 H   0  0  0  0  0  0  0  0  0  0  0  0
  140.3103  158.6965  132.6798 H   0  0  0  0  0  0  0  0  0  0  0  0
  143.7034  157.0626  133.8443 H   0  0  0  0  0  0  0  0  0  0  0  0
  1  2  1  0
  2  3  1  0
  3  4  2  0
  3  5  1  0
  5  6  1  0
  6  7  1  0
  7  8  1  0
  7  9  2  0
  6 10  2  0
 10 11  1  0
 11 12  2  0
 12 13  1  0
 13 14  2  0
 14 15  1  0
 15 16  1  0
 16 17  1  0
 17 18  1  0
 18 19  1  0
 18 20  1  0
 14 21  1  0
 21 22  2  0
 22  5  1  0
 22 11  1  0
 20 15  1  0
  1 23  1  0
  1 24  1  0
  1 25  1  0
  8 26  1  0
  8 27  1  0
 10 28  1  0
 12 29  1  0
 13 30  1  0
 16 31  1  0
 16 32  1  0
 17 33  1  0
 17 34  1  0
 18 35  1  1
 19 36  1  0
 20 37  1  0
 20 38  1  0
 21 39  1  0
M  END
>  <UniqueID>  (84) 
84

>  <SMILES>  (84) 
COC(=O)n1c(C(N)=O)cc2ccc(N3CC[C@@H](O)C3)cc21

>  <Energy>  (84) 
80.86576577849803

>  <Genealogy>  (84) 
COC(=O)n1c(C(N)=O)cc2ccc(N3CC[C@@H](O)C3)cc21 (3D coordinates assigned)
COC(=O)n1c(C(N)=O)cc2ccc(N3CC[C@@H](O)C3)cc21 (nonaromatic ring conformer: 80.86576577849803 kcal/mol)

>  <smiles>  (84) 
COC(=O)n1c(C(N)=O)cc2ccc(N3CC[C@@H](O)C3)cc21

>  <score_type>  (84) 
oracle

>  <origin>  (84) 
adg

>  <m_score__min__energy>  (84) 
-6.9199999999999999

>  <m_primary>  (84) 
energy

$$$$
84:0
     RDKit          3D

 47 49  0  0  0  0  0  0  0  0999 V2000
  139.1100  157.8480  134.9940 C   0  0  0  0  0  0  0  0  0  0  0  0
  139.4550  157.8130  133.5580 N   0  0  0  0  0  0  0  0  0  0  0  0
  139.5250  156.4360  133.0210 C   0  0  0  0  0  0  0  0  0  0  0  0
  140.8380  155.7040  133.3570 C   0  0  0  0  0  0  0  0  0  0  0  0
  141.9800  156.5870  133.1290 N   0  0  0  0  0  0  0  0  0  0  0  0
  142.5550  157.3890  134.1710 C   0  0  0  0  0  0  0  0  0  0  0  0
  142.1370  157.2850  135.3560 O   0  0  0  0  0  0  0  0  0  0  0  0
  143.6390  158.2850  133.8760 N   0  0  0  0  0  0  0  0  0  0  0  0
  143.5850  159.6360  133.7060 C   0  0  0  0  0  0  0  0  0  0  0  0
  142.4010  160.4900  133.9360 C   0  0  0  0  0  0  0  0  0  0  0  0
  141.3100  160.0000  134.7110 N   0  0  0  0  0  0  0  0  0  0  0  0
  142.3300  161.6400  133.4260 O   0  0  0  0  0  0  0  0  0  0  0  0
  144.8400  160.1340  133.3630 C   0  0  0  0  0  0  0  0  0  0  0  0
  145.6730  159.0380  133.3360 C   0  0  0  0  0  0  0  0  0  0  0  0
  147.0280  158.9480  133.0340 C   0  0  0  0  0  0  0  0  0  0  0  0
  147.6260  157.6770  133.0570 C   0  0  0  0  0  0  0  0  0  0  0  0
  146.8680  156.5230  133.3920 C   0  0  0  0  0  0  0  0  0  0  0  0
  147.5080  155.1590  133.3540 C   0  0  0  0  0  0  0  0  0  0  0  0
  147.6480  154.6500  134.6340 F   0  0  0  0  0  0  0  0  0  0  0  0
  148.7550  155.2580  132.7690 F   0  0  0  0  0  0  0  0  0  0  0  0
  146.7330  154.2770  132.6190 F   0  0  0  0  0  0  0  0  0  0  0  0
  145.4880  156.6550  133.6690 C   0  0  0  0  0  0  0  0  0  0  0  0
  144.9230  157.9350  133.6520 C   0  0  0  0  0  0  0  0  0  0  0  0
  138.7480  158.7630  132.6570 C   0  0  0  0  0  0  0  0  0  0  0  0
  138.6870  158.2820  131.2090 C   0  0  0  0  0  0  0  0  0  0  0  0
  139.4830  159.5080  130.7730 C   0  0  0  0  0  0  0  0  0  0  0  0
  139.5300  160.0040  132.2130 C   0  0  0  0  0  0  0  0  0  0  0  0
  140.0273  157.7549  135.5939 H   0  0  0  0  0  0  0  0  0  0  0  0
  138.6135  158.8011  135.2287 H   0  0  0  0  0  0  0  0  0  0  0  0
  138.4322  157.0140  135.2287 H   0  0  0  0  0  0  0  0  0  0  0  0
  138.6884  155.8575  133.4397 H   0  0  0  0  0  0  0  0  0  0  0  0
  139.4743  156.5164  131.9251 H   0  0  0  0  0  0  0  0  0  0  0  0
  140.8222  155.3954  134.4127 H   0  0  0  0  0  0  0  0  0  0  0  0
  140.9324  154.8201  132.7091 H   0  0  0  0  0  0  0  0  0  0  0  0
  142.4360  156.5810  132.1900 H   0  0  0  0  0  0  0  0  0  0  0  0
  140.9870  159.0120  134.6180 H   0  0  0  0  0  0  0  0  0  0  0  0
  145.1085  161.1807  133.1574 H   0  0  0  0  0  0  0  0  0  0  0  0
  147.6136  159.8452  132.7847 H   0  0  0  0  0  0  0  0  0  0  0  0
  148.6936  157.5741  132.8128 H   0  0  0  0  0  0  0  0  0  0  0  0
  144.8723  155.7714  133.8929 H   0  0  0  0  0  0  0  0  0  0  0  0
  137.8409  158.9008  133.2638 H   0  0  0  0  0  0  0  0  0  0  0  0
  139.2005  157.3257  131.0308 H   0  0  0  0  0  0  0  0  0  0  0  0
  137.7205  158.0477  130.7388 H   0  0  0  0  0  0  0  0  0  0  0  0
  140.4701  159.2727  130.3484 H   0  0  0  0  0  0  0  0  0  0  0  0
  139.0994  160.1613  129.9755 H   0  0  0  0  0  0  0  0  0  0  0  0
  140.5443  160.0713  132.6332 H   0  0  0  0  0  0  0  0  0  0  0  0
  139.1724  161.0121  132.4695 H   0  0  0  0  0  0  0  0  0  0  0  0
  1  2  1  0
  2  3  1  0
  3  4  1  0
  4  5  1  0
  5  6  1  0
  6  7  2  0
  6  8  1  0
  8  9  1  0
  9 10  1  0
 10 11  1  0
 10 12  2  0
  9 13  2  0
 13 14  1  0
 14 15  2  0
 15 16  1  0
 16 17  2  0
 17 18  1  0
 18 19  1  0
 18 20  1  0
 18 21  1  0
 17 22  1  0
 22 23  2  0
  2 24  1  0
 24 25  1  0
 25 26  1  0
 26 27  1  0
 23  8  1  0
 27 24  1  0
 23 14  1  0
  1 28  1  0
  1 29  1  0
  1 30  1  0
  3 31  1  0
  3 32  1  0
  4 33  1  0
  4 34  1  0
  5 35  1  0
 11 36  1  0
 13 37  1  0
 15 38  1  0
 16 39  1  0
 22 40  1  0
 24 41  1  0
 25 42  1  0
 25 43  1  0
 26 44  1  0
 26 45  1  0
 27 46  1  0
 27 47  1  0
M  CHG  1  11  -1
M  END
>  <UniqueID>  (85) 
85

>  <SMILES>  (85) 
CN(CCNC(=O)n1c(C([NH-])=O)cc2ccc(C(F)(F)F)cc21)C1CCC1

>  <Energy>  (85) 
153.27042637279402

>  <Genealogy>  (85) 
CN(CCNC(=O)n1c(C([NH-])=O)cc2ccc(C(F)(F)F)cc21)C1CCC1 (protonated)
CN(CCNC(=O)n1c(C([NH-])=O)cc2ccc(C(F)(F)F)cc21)C1CCC1 (3D coordinates assigned)
CN(CCNC(=O)n1c(C([NH-])=O)cc2ccc(C(F)(F)F)cc21)C1CCC1 (nonaromatic ring conformer: 153.27042637279402 kcal/mol)

>  <smiles>  (85) 
CN(CCNC(=O)n1c(C(N)=O)cc2ccc(C(F)(F)F)cc21)C1CCC1

>  <score_type>  (85) 
oracle

>  <origin>  (85) 
adg

>  <m_score__min__energy>  (85) 
-8.2200000000000006

>  <m_primary>  (85) 
energy

$$$$
85:0
     RDKit          3D

 46 48  0  0  0  0  0  0  0  0999 V2000
  143.1640  156.4700  135.0430 N   0  0  0  0  0  0  0  0  0  0  0  0
  144.4450  155.8610  134.8640 C   0  0  0  0  0  0  0  0  0  0  0  0
  144.6420  154.7050  135.3240 O   0  0  0  0  0  0  0  0  0  0  0  0
  145.5140  156.5550  134.1110 C   0  0  0  0  0  0  0  0  0  0  0  0
  146.8370  156.1190  134.0580 C   0  0  0  0  0  0  0  0  0  0  0  0
  147.5120  157.0820  133.3440 C   0  0  0  0  0  0  0  0  0  0  0  0
  148.8570  157.1580  132.9930 C   0  0  0  0  0  0  0  0  0  0  0  0
  149.2800  158.2620  132.2340 C   0  0  0  0  0  0  0  0  0  0  0  0
  148.3520  159.2530  131.8170 C   0  0  0  0  0  0  0  0  0  0  0  0
  148.8090  160.4540  131.0270 C   0  0  0  0  0  0  0  0  0  0  0  0
  148.2050  160.4680  129.7830 F   0  0  0  0  0  0  0  0  0  0  0  0
  148.4620  161.6040  131.7100 F   0  0  0  0  0  0  0  0  0  0  0  0
  150.1820  160.4370  130.8440 F   0  0  0  0  0  0  0  0  0  0  0  0
  146.9990  159.1520  132.2160 C   0  0  0  0  0  0  0  0  0  0  0  0
  146.6100  158.0510  132.9890 C   0  0  0  0  0  0  0  0  0  0  0  0
  145.3770  157.7440  133.4560 N   0  0  0  0  0  0  0  0  0  0  0  0
  144.1680  158.4870  133.2340 C   0  0  0  0  0  0  0  0  0  0  0  0
  143.2110  157.9590  132.6010 O   0  0  0  0  0  0  0  0  0  0  0  0
  144.0450  159.7880  133.7360 O   0  0  0  0  0  0  0  0  0  0  0  0
  142.9290  160.2060  134.5150 C   0  0  0  0  0  0  0  0  0  0  0  0
  142.8250  159.3910  135.6790 O   0  0  0  0  0  0  0  0  0  0  0  0
  141.6010  158.9490  136.1900 C   0  0  0  0  0  0  0  0  0  0  0  0
  140.9580  159.6620  137.0070 O   0  0  0  0  0  0  0  0  0  0  0  0
  141.0580  157.6830  135.7960 N   0  0  0  0  0  0  0  0  0  0  0  0
  139.9950  157.4630  134.8120 C   0  0  0  0  0  0  0  0  0  0  0  0
  139.8110  158.6340  133.8520 C   0  0  0  0  0  0  0  0  0  0  0  0
  139.3750  158.0250  132.5200 C   0  0  0  0  0  0  0  0  0  0  0  0
  139.5270  156.5070  132.6380 C   0  0  0  0  0  0  0  0  0  0  0  0
  140.2490  156.2340  133.9490 C   0  0  0  0  0  0  0  0  0  0  0  0
  142.9810  157.4490  134.7310 H   0  0  0  0  0  0  0  0  0  0  0  0
  142.4060  155.9540  135.5420 H   0  0  0  0  0  0  0  0  0  0  0  0
  147.2533  155.1993  134.4948 H   0  0  0  0  0  0  0  0  0  0  0  0
  149.5676  156.3768  133.3008 H   0  0  0  0  0  0  0  0  0  0  0  0
  150.3408  158.3598  131.9599 H   0  0  0  0  0  0  0  0  0  0  0  0
  146.2683  159.9213  131.9256 H   0  0  0  0  0  0  0  0  0  0  0  0
  143.0644  161.2558  134.8143 H   0  0  0  0  0  0  0  0  0  0  0  0
  142.0103  160.1082  133.9180 H   0  0  0  0  0  0  0  0  0  0  0  0
  139.0915  157.3331  135.4259 H   0  0  0  0  0  0  0  0  0  0  0  0
  139.0381  159.3195  134.2296 H   0  0  0  0  0  0  0  0  0  0  0  0
  140.7388  159.2149  133.7439 H   0  0  0  0  0  0  0  0  0  0  0  0
  138.3255  158.2827  132.3146 H   0  0  0  0  0  0  0  0  0  0  0  0
  139.9910  158.4136  131.6957 H   0  0  0  0  0  0  0  0  0  0  0  0
  138.5371  156.0274  132.6447 H   0  0  0  0  0  0  0  0  0  0  0  0
  140.0923  156.1012  131.7861 H   0  0  0  0  0  0  0  0  0  0  0  0
  139.8425  155.3333  134.4323 H   0  0  0  0  0  0  0  0  0  0  0  0
  141.3236  156.0559  133.7957 H   0  0  0  0  0  0  0  0  0  0  0  0
  1  2  1  0
  2  3  2  0
  2  4  1  0
  4  5  2  0
  5  6  1  0
  6  7  2  0
  7  8  1  0
  8  9  2  0
  9 10  1  0
 10 11  1  0
 10 12  1  0
 10 13  1  0
  9 14  1  0
 14 15  2  0
 15 16  1  0
 16 17  1  0
 17 18  2  0
 17 19  1  0
 19 20  1  0
 20 21  1  0
 21 22  1  0
 22 23  2  0
 22 24  1  0
 24 25  1  0
 25 26  1  0
 26 27  1  0
 27 28  1  0
 28 29  1  0
 16  4  1  0
 29 25  1  0
 15  6  1  0
  1 30  1  0
  1 31  1  0
  5 32  1  0
  7 33  1  0
  8 34  1  0
 14 35  1  0
 20 36  1  0
 20 37  1  0
 25 38  1  0
 26 39  1  0
 26 40  1  0
 27 41  1  0
 27 42  1  0
 28 43  1  0
 28 44  1  0
 29 45  1  0
 29 46  1  0
M  CHG  1  24  -1
M  END
>  <UniqueID>  (86) 
86

>  <SMILES>  (86) 
NC(=O)c1cc2ccc(C(F)(F)F)cc2n1C(=O)OCOC(=O)[N-]C1CCCC1

>  <Energy>  (86) 
81.4063187130736

>  <Genealogy>  (86) 
NC(=O)c1cc2ccc(C(F)(F)F)cc2n1C(=O)OCOC(=O)[N-]C1CCCC1 (protonated)
NC(=O)c1cc2ccc(C(F)(F)F)cc2n1C(=O)OCOC(=O)[N-]C1CCCC1 (3D coordinates assigned)
NC(=O)c1cc2ccc(C(F)(F)F)cc2n1C(=O)OCOC(=O)[N-]C1CCCC1 (nonaromatic ring conformer: 81.4063187130736 kcal/mol)

>  <smiles>  (86) 
NC(=O)c1cc2ccc(C(F)(F)F)cc2n1C(=O)OCOC(=O)NC1CCCC1

>  <score_type>  (86) 
oracle

>  <origin>  (86) 
adg

>  <m_score__min__energy>  (86) 
-7.21

>  <m_primary>  (86) 
energy

$$$$
86:0
     RDKit          3D

 42 43  0  0  0  0  0  0  0  0999 V2000
  147.2820  153.3450  136.1820 N   0  0  0  0  0  0  0  0  0  0  0  0
  146.3780  153.9580  135.2700 C   0  0  0  0  0  0  0  0  0  0  0  0
  145.2330  153.4590  135.1040 O   0  0  0  0  0  0  0  0  0  0  0  0
  146.7410  155.2040  134.5640 C   0  0  0  0  0  0  0  0  0  0  0  0
  146.0190  156.3890  134.6890 C   0  0  0  0  0  0  0  0  0  0  0  0
  146.7210  157.3210  133.9580 C   0  0  0  0  0  0  0  0  0  0  0  0
  146.4500  158.6670  133.7310 C   0  0  0  0  0  0  0  0  0  0  0  0
  147.3320  159.3870  132.9100 C   0  0  0  0  0  0  0  0  0  0  0  0
  148.4550  158.7500  132.3240 C   0  0  0  0  0  0  0  0  0  0  0  0
  149.4040  159.5340  131.4540 C   0  0  0  0  0  0  0  0  0  0  0  0
  148.6880  160.6610  130.6910 C   0  0  0  0  0  0  0  0  0  0  0  0
  149.6360  161.5050  129.8340 C   0  0  0  0  0  0  0  0  0  0  0  0
  149.3770  162.8680  130.0240 O   0  0  0  0  0  0  0  0  0  0  0  0
  148.6990  157.3830  132.5800 C   0  0  0  0  0  0  0  0  0  0  0  0
  147.8150  156.6940  133.4190 C   0  0  0  0  0  0  0  0  0  0  0  0
  147.8410  155.3910  133.7820 N   0  0  0  0  0  0  0  0  0  0  0  0
  148.7770  154.3990  133.3300 C   0  0  0  0  0  0  0  0  0  0  0  0
  149.7180  154.7290  132.5560 O   0  0  0  0  0  0  0  0  0  0  0  0
  148.6170  153.0640  133.7210 O   0  0  0  0  0  0  0  0  0  0  0  0
  148.7740  151.9510  132.8390 C   0  0  0  0  0  0  0  0  0  0  0  0
  149.9030  151.0240  133.3060 C   0  0  0  0  0  0  0  0  0  0  0  0
  149.6360  150.3790  134.6680 C   0  0  0  0  0  0  0  0  0  0  0  0
  149.5520  151.3640  135.6610 O   0  0  0  0  0  0  0  0  0  0  0  0
  148.2240  153.0200  135.8700 H   0  0  0  0  0  0  0  0  0  0  0  0
  145.0870  156.5464  135.2516 H   0  0  0  0  0  0  0  0  0  0  0  0
  145.5713  159.1520  134.1813 H   0  0  0  0  0  0  0  0  0  0  0  0
  147.1503  160.4550  132.7195 H   0  0  0  0  0  0  0  0  0  0  0  0
  150.1855  159.9760  132.0894 H   0  0  0  0  0  0  0  0  0  0  0  0
  149.8360  158.8438  130.7143 H   0  0  0  0  0  0  0  0  0  0  0  0
  147.9292  160.2113  130.0338 H   0  0  0  0  0  0  0  0  0  0  0  0
  148.2405  161.3306  131.4403 H   0  0  0  0  0  0  0  0  0  0  0  0
  150.6754  161.2892  130.1222 H   0  0  0  0  0  0  0  0  0  0  0  0
  149.4800  161.2548  128.7743 H   0  0  0  0  0  0  0  0  0  0  0  0
  148.5340  163.0590  129.5380 H   0  0  0  0  0  0  0  0  0  0  0  0
  149.5631  156.8715  132.1309 H   0  0  0  0  0  0  0  0  0  0  0  0
  147.8329  151.3823  132.8089 H   0  0  0  0  0  0  0  0  0  0  0  0
  149.0301  152.3335  131.8399 H   0  0  0  0  0  0  0  0  0  0  0  0
  150.0289  150.2250  132.5605 H   0  0  0  0  0  0  0  0  0  0  0  0
  150.8074  151.6413  133.4108 H   0  0  0  0  0  0  0  0  0  0  0  0
  148.6881  149.8224  134.6270 H   0  0  0  0  0  0  0  0  0  0  0  0
  150.4627  149.6948  134.9097 H   0  0  0  0  0  0  0  0  0  0  0  0
  148.7040  151.8500  135.4960 H   0  0  0  0  0  0  0  0  0  0  0  0
  1  2  1  0
  2  3  2  0
  2  4  1  0
  4  5  2  0
  5  6  1  0
  6  7  2  0
  7  8  1  0
  8  9  2  0
  9 10  1  0
 10 11  1  0
 11 12  1  0
 12 13  1  0
  9 14  1  0
 14 15  2  0
 15 16  1  0
 16 17  1  0
 17 18  2  0
 17 19  1  0
 19 20  1  0
 20 21  1  0
 21 22  1  0
 22 23  1  0
 16  4  1  0
 15  6  1  0
  1 24  1  0
  5 25  1  0
  7 26  1  0
  8 27  1  0
 10 28  1  0
 10 29  1  0
 11 30  1  0
 11 31  1  0
 12 32  1  0
 12 33  1  0
 13 34  1  0
 14 35  1  0
 20 36  1  0
 20 37  1  0
 21 38  1  0
 21 39  1  0
 22 40  1  0
 22 41  1  0
 23 42  1  0
M  CHG  1   1  -1
M  END
>  <UniqueID>  (87) 
87

>  <SMILES>  (87) 
[NH-]C(=O)c1cc2ccc(CCCO)cc2n1C(=O)OCCCO

>  <Energy>  (87) 
71.53264055973854

>  <Genealogy>  (87) 
[NH-]C(=O)c1cc2ccc(CCCO)cc2n1C(=O)OCCCO (protonated)
[NH-]C(=O)c1cc2ccc(CCCO)cc2n1C(=O)OCCCO (3D coordinates assigned)
[NH-]C(=O)c1cc2ccc(CCCO)cc2n1C(=O)OCCCO (optimized conformer: 71.53264055973854 kcal/mol)

>  <smiles>  (87) 
NC(=O)c1cc2ccc(CCCO)cc2n1C(=O)OCCCO

>  <score_type>  (87) 
oracle

>  <origin>  (87) 
adg

>  <m_score__min__energy>  (87) 
-6.2699999999999996

>  <m_primary>  (87) 
energy

$$$$
87:0
     RDKit          3D

 36 38  0  0  0  0  0  0  0  0999 V2000
  148.4510  155.6090  132.4220 H   0  0  0  0  0  0  0  0  0  0  0  0
  148.8540  156.3940  132.9810 N   0  0  0  0  0  0  0  0  0  0  0  0
  148.5550  157.7500  132.6600 C   0  0  0  0  0  0  0  0  0  0  0  0
  149.4040  158.4350  132.0300 O   0  0  0  0  0  0  0  0  0  0  0  0
  147.2520  158.3480  133.0190 C   0  0  0  0  0  0  0  0  0  0  0  0
  147.0600  159.7150  133.2150 C   0  0  0  0  0  0  0  0  0  0  0  0
  147.8219  160.5074  133.1758 H   0  0  0  0  0  0  0  0  0  0  0  0
  145.7150  159.8630  133.4680 C   0  0  0  0  0  0  0  0  0  0  0  0
  144.9780  161.0080  133.7600 C   0  0  0  0  0  0  0  0  0  0  0  0
  145.4544  161.9993  133.7816 H   0  0  0  0  0  0  0  0  0  0  0  0
  143.6070  160.8570  134.0260 C   0  0  0  0  0  0  0  0  0  0  0  0
  142.9971  161.7421  134.2600 H   0  0  0  0  0  0  0  0  0  0  0  0
  143.0010  159.5750  133.9960 C   0  0  0  0  0  0  0  0  0  0  0  0
  141.5470  159.4190  134.3410 C   0  0  0  0  0  0  0  0  0  0  0  0
  141.0362  160.3849  134.2140 H   0  0  0  0  0  0  0  0  0  0  0  0
  141.0949  158.6693  133.6751 H   0  0  0  0  0  0  0  0  0  0  0  0
  141.4070  158.9670  135.7580 C   0  0  0  0  0  0  0  0  0  0  0  0
  140.9400  159.7380  136.7560 N   0  0  0  0  0  0  0  0  0  0  0  0
  141.0540  158.9860  137.8380 N   0  0  0  0  0  0  0  0  0  0  0  0
  141.5770  157.8130  137.5160 N   0  0  0  0  0  0  0  0  0  0  0  0
  141.8170  157.7720  136.2160 N   0  0  0  0  0  0  0  0  0  0  0  0
  143.7840  158.4370  133.7080 C   0  0  0  0  0  0  0  0  0  0  0  0
  143.3374  157.4317  133.7044 H   0  0  0  0  0  0  0  0  0  0  0  0
  145.1430  158.6190  133.4270 C   0  0  0  0  0  0  0  0  0  0  0  0
  146.0730  157.6790  133.1510 N   0  0  0  0  0  0  0  0  0  0  0  0
  145.8550  156.2600  133.1020 C   0  0  0  0  0  0  0  0  0  0  0  0
  146.3200  155.5990  132.1370 O   0  0  0  0  0  0  0  0  0  0  0  0
  145.0560  155.6100  134.1670 C   0  0  0  0  0  0  0  0  0  0  0  0
  143.9758  155.8177  134.1708 H   0  0  0  0  0  0  0  0  0  0  0  0
  145.5160  154.7940  135.1270 C   0  0  0  0  0  0  0  0  0  0  0  0
  144.6270  154.3020  136.0250 F   0  0  0  0  0  0  0  0  0  0  0  0
  147.2490  154.3660  135.3580 P   0  0  1  0  0  5  0  0  0  0  0  0
  147.9680  155.5370  135.9900 O   0  0  0  0  0  0  0  0  0  0  0  0
  147.3790  153.0260  136.3810 O   0  0  0  0  0  0  0  0  0  0  0  0
  147.9630  154.0150  133.8650 O   0  0  0  0  0  0  0  0  0  0  0  0
  147.9460  154.8710  133.3660 H   0  0  0  0  0  0  0  0  0  0  0  0
  1  2  1  0
  2  3  1  0
  3  4  2  0
  3  5  1  0
  5  6  2  0
  6  7  1  0
  6  8  1  0
  8  9  2  0
  9 10  1  0
  9 11  1  0
 11 12  1  0
 11 13  2  0
 13 14  1  0
 14 15  1  0
 14 16  1  0
 14 17  1  0
 17 18  1  0
 18 19  2  0
 19 20  1  0
 20 21  1  0
 13 22  1  0
 22 23  1  0
 22 24  2  0
 24 25  1  0
 25 26  1  0
 26 27  2  0
 26 28  1  0
 28 29  1  0
 28 30  2  0
 30 31  1  0
 30 32  1  0
 32 33  2  0
 32 34  1  1
 32 35  1  0
 35 36  1  0
 25  5  1  0
 24  8  1  0
 21 17  2  0
M  CHG  3   2  -1  20  -1  34  -1
M  END
>  <UniqueID>  (88) 
88

>  <SMILES>  (88) 
[NH-]C(=O)c1cc2ccc(Cc3nn[n-]n3)cc2n1C(=O)/C=C(/F)[P@@](=O)([O-])O

>  <Energy>  (88) 
113.60054784150506

>  <Genealogy>  (88) 
[NH-]C(=O)c1cc2ccc(Cc3nn[n-]n3)cc2n1C(=O)C=C(F)P(=O)([O-])O (protonated)
[NH-]C(=O)c1cc2ccc(Cc3nn[n-]n3)cc2n1C(=O)C=C(F)[P@@](=O)([O-])O (chirality)
[NH-]C(=O)c1cc2ccc(Cc3nn[n-]n3)cc2n1C(=O)/C=C(/F)[P@@](=O)([O-])O (cis-trans isomerization)
[NH-]C(=O)c1cc2ccc(Cc3nn[n-]n3)cc2n1C(=O)/C=C(/F)[P@@](=O)([O-])O (3D coordinates assigned)
[NH-]C(=O)c1cc2ccc(Cc3nn[n-]n3)cc2n1C(=O)/C=C(/F)[P@@](=O)([O-])O (optimized conformer: 113.60054784150506 kcal/mol)

>  <smiles>  (88) 
NC(=O)c1cc2ccc(Cc3nn[nH]n3)cc2n1C(=O)C=C(F)P(=O)(O)O

>  <score_type>  (88) 
oracle

>  <origin>  (88) 
adg

>  <m_score__min__energy>  (88) 
-7.8799999999999999

>  <m_primary>  (88) 
energy

$$$$
88:0
     RDKit          3D

 41 43  0  0  0  0  0  0  0  0999 V2000
  138.7980  157.1270  133.3710 C   0  0  0  0  0  0  0  0  0  0  0  0
  138.9520  158.2070  132.3510 C   0  0  0  0  0  0  0  0  0  0  0  0
  137.9530  158.6410  131.5580 N   0  0  0  0  0  0  0  0  0  0  0  0
  138.4350  159.6320  130.8210 N   0  0  0  0  0  0  0  0  0  0  0  0
  137.6300  160.4170  129.8950 C   0  0  0  0  0  0  0  0  0  0  0  0
  139.7210  159.8740  131.1410 C   0  0  0  0  0  0  0  0  0  0  0  0
  140.0860  158.9630  132.1130 C   0  0  0  0  0  0  0  0  0  0  0  0
  141.3320  158.8770  132.8250 N   0  0  0  0  0  0  0  0  0  0  0  0
  141.8500  159.9200  133.6680 C   0  0  0  0  0  0  0  0  0  0  0  0
  141.3250  161.0650  133.6650 O   0  0  0  0  0  0  0  0  0  0  0  0
  143.0180  159.6670  134.5330 C   0  0  0  0  0  0  0  0  0  0  0  0
  142.8500  159.3960  135.7520 O   0  0  0  0  0  0  0  0  0  0  0  0
  144.3490  159.7330  134.0010 N   0  0  0  0  0  0  0  0  0  0  0  0
  145.1330  160.8390  133.8540 C   0  0  0  0  0  0  0  0  0  0  0  0
  144.7180  162.2350  134.1070 C   0  0  0  0  0  0  0  0  0  0  0  0
  143.6320  162.8210  133.3920 N   0  0  0  0  0  0  0  0  0  0  0  0
  145.3480  162.9320  134.9470 O   0  0  0  0  0  0  0  0  0  0  0  0
  146.3920  160.4810  133.3740 C   0  0  0  0  0  0  0  0  0  0  0  0
  146.3540  159.1120  133.2340 C   0  0  0  0  0  0  0  0  0  0  0  0
  147.3350  158.2280  132.7980 C   0  0  0  0  0  0  0  0  0  0  0  0
  147.0250  156.8580  132.7770 C   0  0  0  0  0  0  0  0  0  0  0  0
  145.7570  156.3930  133.2150 C   0  0  0  0  0  0  0  0  0  0  0  0
  145.4230  154.9250  133.1500 C   0  0  0  0  0  0  0  0  0  0  0  0
  146.5250  154.1890  133.5430 F   0  0  0  0  0  0  0  0  0  0  0  0
  145.0720  154.5590  131.8610 F   0  0  0  0  0  0  0  0  0  0  0  0
  144.3620  154.6280  133.9870 F   0  0  0  0  0  0  0  0  0  0  0  0
  144.7800  157.3270  133.6310 C   0  0  0  0  0  0  0  0  0  0  0  0
  145.1130  158.6860  133.6230 C   0  0  0  0  0  0  0  0  0  0  0  0
  138.8602  157.5631  134.3790 H   0  0  0  0  0  0  0  0  0  0  0  0
  137.8211  156.6380  133.2427 H   0  0  0  0  0  0  0  0  0  0  0  0
  139.5994  156.3845  133.2427 H   0  0  0  0  0  0  0  0  0  0  0  0
  136.9554  161.0749  130.4625 H   0  0  0  0  0  0  0  0  0  0  0  0
  138.2904  161.0275  129.2616 H   0  0  0  0  0  0  0  0  0  0  0  0
  137.0363  159.7414  129.2616 H   0  0  0  0  0  0  0  0  0  0  0  0
  140.3632  160.6547  130.7073 H   0  0  0  0  0  0  0  0  0  0  0  0
  141.9100  158.0190  132.6870 H   0  0  0  0  0  0  0  0  0  0  0  0
  142.6620  162.4480  133.4870 H   0  0  0  0  0  0  0  0  0  0  0  0
  147.2366  161.1504  133.1538 H   0  0  0  0  0  0  0  0  0  0  0  0
  148.3235  158.5904  132.4793 H   0  0  0  0  0  0  0  0  0  0  0  0
  147.7736  156.1369  132.4169 H   0  0  0  0  0  0  0  0  0  0  0  0
  143.7825  156.9932  133.9530 H   0  0  0  0  0  0  0  0  0  0  0  0
  1  2  1  0
  2  3  2  0
  3  4  1  0
  4  5  1  0
  4  6  1  0
  6  7  2  0
  7  8  1  0
  8  9  1  0
  9 10  2  0
  9 11  1  0
 11 12  2  0
 11 13  1  0
 13 14  1  0
 14 15  1  0
 15 16  1  0
 15 17  2  0
 14 18  2  0
 18 19  1  0
 19 20  2  0
 20 21  1  0
 21 22  2  0
 22 23  1  0
 23 24  1  0
 23 25  1  0
 23 26  1  0
 22 27  1  0
 27 28  2  0
  7  2  1  0
 28 13  1  0
 28 19  1  0
  1 29  1  0
  1 30  1  0
  1 31  1  0
  5 32  1  0
  5 33  1  0
  5 34  1  0
  6 35  1  0
  8 36  1  0
 16 37  1  0
 18 38  1  0
 20 39  1  0
 21 40  1  0
 27 41  1  0
M  CHG  1  16  -1
M  END
>  <UniqueID>  (89) 
89

>  <SMILES>  (89) 
Cc1nn(C)cc1NC(=O)C(=O)n1c(C([NH-])=O)cc2ccc(C(F)(F)F)cc21

>  <Energy>  (89) 
113.63935767161988

>  <Genealogy>  (89) 
Cc1nn(C)cc1NC(=O)C(=O)n1c(C([NH-])=O)cc2ccc(C(F)(F)F)cc21 (protonated)
Cc1nn(C)cc1NC(=O)C(=O)n1c(C([NH-])=O)cc2ccc(C(F)(F)F)cc21 (3D coordinates assigned)
Cc1nn(C)cc1NC(=O)C(=O)n1c(C([NH-])=O)cc2ccc(C(F)(F)F)cc21 (optimized conformer: 113.63935767161988 kcal/mol)

>  <smiles>  (89) 
Cc1nn(C)cc1NC(=O)C(=O)n1c(C(N)=O)cc2ccc(C(F)(F)F)cc21

>  <score_type>  (89) 
oracle

>  <origin>  (89) 
adg

>  <m_score__min__energy>  (89) 
-7.6600000000000001

>  <m_primary>  (89) 
energy

$$$$
89:0
     RDKit          3D

 43 46  0  0  0  0  0  0  0  0999 V2000
  149.5170  157.7560  132.0020 N   0  0  0  0  0  0  0  0  0  0  0  0
  149.0210  159.0480  132.3410 C   0  0  0  0  0  0  0  0  0  0  0  0
  149.7560  160.0560  132.1640 O   0  0  0  0  0  0  0  0  0  0  0  0
  147.6410  159.2260  132.8400 C   0  0  0  0  0  0  0  0  0  0  0  0
  147.0450  160.4720  133.0150 C   0  0  0  0  0  0  0  0  0  0  0  0
  145.7510  160.2050  133.4000 C   0  0  0  0  0  0  0  0  0  0  0  0
  144.7200  161.0750  133.7220 C   0  0  0  0  0  0  0  0  0  0  0  0
  143.4900  160.5260  134.1210 C   0  0  0  0  0  0  0  0  0  0  0  0
  143.2980  159.1120  134.2010 C   0  0  0  0  0  0  0  0  0  0  0  0
  142.0170  158.5490  134.6250 N   0  0  0  0  0  0  0  0  0  0  0  0
  141.1020  157.9860  133.6100 C   0  0  0  0  0  0  0  0  0  0  0  0
  139.8370  157.3600  134.2040 C   0  0  0  0  0  0  0  0  0  0  0  0
  139.3650  158.1140  135.2950 O   0  0  0  0  0  0  0  0  0  0  0  0
  140.2780  157.9790  136.3560 C   0  0  0  0  0  0  0  0  0  0  0  0
  141.5990  158.6860  136.0360 C   0  0  0  0  0  0  0  0  0  0  0  0
  144.3950  158.2690  133.8660 C   0  0  0  0  0  0  0  0  0  0  0  0
  145.6000  158.8480  133.4530 C   0  0  0  0  0  0  0  0  0  0  0  0
  146.7530  158.2290  133.1150 N   0  0  0  0  0  0  0  0  0  0  0  0
  147.0030  156.8150  133.1450 C   0  0  0  0  0  0  0  0  0  0  0  0
  147.0310  156.1580  132.0690 O   0  0  0  0  0  0  0  0  0  0  0  0
  147.1920  156.1510  134.3960 N   0  0  0  0  0  0  0  0  0  0  0  0
  146.1980  155.2590  134.9750 C   0  0  0  0  0  0  0  0  0  0  0  0
  146.8560  154.3750  135.9800 C   0  0  0  0  0  0  0  0  0  0  0  0
  146.2220  153.3680  136.6170 N   0  0  0  0  0  0  0  0  0  0  0  0
  147.1040  152.8870  137.4380 O   0  0  0  0  0  0  0  0  0  0  0  0
  148.2150  153.5670  137.3210 C   0  0  0  0  0  0  0  0  0  0  0  0
  149.2530  153.3340  137.9940 O   0  0  0  0  0  0  0  0  0  0  0  0
  148.1270  154.5470  136.4050 N   0  0  0  0  0  0  0  0  0  0  0  0
  148.9220  157.0680  131.4900 H   0  0  0  0  0  0  0  0  0  0  0  0
  147.5094  161.4593  132.8753 H   0  0  0  0  0  0  0  0  0  0  0  0
  144.8615  162.1645  133.6665 H   0  0  0  0  0  0  0  0  0  0  0  0
  142.6577  161.1981  134.3771 H   0  0  0  0  0  0  0  0  0  0  0  0
  140.8020  158.7937  132.9262 H   0  0  0  0  0  0  0  0  0  0  0  0
  141.6479  157.1821  133.0945 H   0  0  0  0  0  0  0  0  0  0  0  0
  139.0570  157.3213  133.4293 H   0  0  0  0  0  0  0  0  0  0  0  0
  140.0802  156.3471  134.5573 H   0  0  0  0  0  0  0  0  0  0  0  0
  139.8430  158.4228  137.2637 H   0  0  0  0  0  0  0  0  0  0  0  0
  140.4812  156.9089  136.5099 H   0  0  0  0  0  0  0  0  0  0  0  0
  141.4842  159.7563  136.2623 H   0  0  0  0  0  0  0  0  0  0  0  0
  142.3770  158.2094  136.6505 H   0  0  0  0  0  0  0  0  0  0  0  0
  144.2966  157.1753  133.9310 H   0  0  0  0  0  0  0  0  0  0  0  0
  145.4128  155.8527  135.4658 H   0  0  0  0  0  0  0  0  0  0  0  0
  145.7475  154.6442  134.1818 H   0  0  0  0  0  0  0  0  0  0  0  0
  1  2  1  0
  2  3  2  0
  2  4  1  0
  4  5  2  0
  5  6  1  0
  6  7  2  0
  7  8  1  0
  8  9  2  0
  9 10  1  0
 10 11  1  0
 11 12  1  0
 12 13  1  0
 13 14  1  0
 14 15  1  0
  9 16  1  0
 16 17  2  0
 17 18  1  0
 18 19  1  0
 19 20  2  0
 19 21  1  0
 21 22  1  0
 22 23  1  0
 23 24  2  0
 24 25  1  0
 25 26  1  0
 26 27  2  0
 26 28  1  0
 18  4  1  0
 28 23  1  0
 17  6  1  0
 15 10  1  0
  1 29  1  0
  5 30  1  0
  7 31  1  0
  8 32  1  0
 11 33  1  0
 11 34  1  0
 12 35  1  0
 12 36  1  0
 14 37  1  0
 14 38  1  0
 15 39  1  0
 15 40  1  0
 16 41  1  0
 22 42  1  0
 22 43  1  0
M  CHG  3   1  -1  21  -1  28  -1
M  END
>  <UniqueID>  (90) 
90

>  <SMILES>  (90) 
[NH-]C(=O)c1cc2ccc(N3CCOCC3)cc2n1C(=O)[N-]Cc1noc(=O)[n-]1

>  <Energy>  (90) 
124.20833603803862

>  <Genealogy>  (90) 
[NH-]C(=O)c1cc2ccc(N3CCOCC3)cc2n1C(=O)[N-]Cc1noc(=O)[n-]1 (protonated)
[NH-]C(=O)c1cc2ccc(N3CCOCC3)cc2n1C(=O)[N-]Cc1noc(=O)[n-]1 (3D coordinates assigned)
[NH-]C(=O)c1cc2ccc(N3CCOCC3)cc2n1C(=O)[N-]Cc1noc(=O)[n-]1 (nonaromatic ring conformer: 124.20833603803862 kcal/mol)

>  <smiles>  (90) 
NC(=O)c1cc2ccc(N3CCOCC3)cc2n1C(=O)NCc1noc(=O)[nH]1

>  <score_type>  (90) 
oracle

>  <origin>  (90) 
adg

>  <m_score__min__energy>  (90) 
-8.6099999999999994

>  <m_primary>  (90) 
energy

$$$$
90:0
     RDKit          3D

 36 38  0  0  0  0  0  0  0  0999 V2000
  142.4760  156.2390  139.3080 N   0  0  0  0  0  0  0  0  0  0  0  0
  141.6720  156.6080  138.1900 C   0  0  0  0  0  0  0  0  0  0  0  0
  141.0050  157.6760  138.2350 O   0  0  0  0  0  0  0  0  0  0  0  0
  141.6130  155.7300  137.0020 C   0  0  0  0  0  0  0  0  0  0  0  0
  141.2140  156.1610  135.7380 C   0  0  0  0  0  0  0  0  0  0  0  0
  141.3540  155.0630  134.9190 C   0  0  0  0  0  0  0  0  0  0  0  0
  141.1050  154.9240  133.5560 C   0  0  0  0  0  0  0  0  0  0  0  0
  141.3320  153.6680  132.9700 C   0  0  0  0  0  0  0  0  0  0  0  0
  141.7760  152.5710  133.7530 C   0  0  0  0  0  0  0  0  0  0  0  0
  142.0580  151.2400  133.1040 C   0  0  0  0  0  0  0  0  0  0  0  0
  143.4200  151.1070  132.9110 F   0  0  0  0  0  0  0  0  0  0  0  0
  141.6130  150.2010  133.9030 F   0  0  0  0  0  0  0  0  0  0  0  0
  141.4170  151.1490  131.8800 F   0  0  0  0  0  0  0  0  0  0  0  0
  142.0380  152.7600  135.1300 C   0  0  0  0  0  0  0  0  0  0  0  0
  141.8190  154.0250  135.6830 C   0  0  0  0  0  0  0  0  0  0  0  0
  141.9860  154.4200  136.9630 N   0  0  0  0  0  0  0  0  0  0  0  0
  142.4420  153.6150  138.0610 C   0  0  0  0  0  0  0  0  0  0  0  0
  143.6730  153.5920  138.3360 O   0  0  0  0  0  0  0  0  0  0  0  0
  141.4640  152.7750  138.8560 C   0  0  0  0  0  0  0  0  0  0  0  0
  141.4760  151.2450  138.6020 C   0  0  0  0  0  0  0  0  0  0  0  0
  140.4120  150.7410  137.6720 C   0  0  0  0  0  0  0  0  0  0  0  0
  140.6130  150.7180  136.4300 O   0  0  0  0  0  0  0  0  0  0  0  0
  139.1880  150.3240  138.1790 O   0  0  0  0  0  0  0  0  0  0  0  0
  140.0800  153.4040  138.9910 C   0  0  0  0  0  0  0  0  0  0  0  0
  140.9950  153.3340  140.2060 C   0  0  0  0  0  0  0  0  0  0  0  0
  143.2340  155.5270  139.2120 H   0  0  0  0  0  0  0  0  0  0  0  0
  140.8623  157.1641  135.4551 H   0  0  0  0  0  0  0  0  0  0  0  0
  140.7417  155.7718  132.9567 H   0  0  0  0  0  0  0  0  0  0  0  0
  141.1636  153.5330  131.8914 H   0  0  0  0  0  0  0  0  0  0  0  0
  142.4057  151.9303  135.7517 H   0  0  0  0  0  0  0  0  0  0  0  0
  142.4543  150.9791  138.1751 H   0  0  0  0  0  0  0  0  0  0  0  0
  141.2771  150.7735  139.5757 H   0  0  0  0  0  0  0  0  0  0  0  0
  139.8697  154.3744  138.5176 H   0  0  0  0  0  0  0  0  0  0  0  0
  139.0537  153.0734  138.7734 H   0  0  0  0  0  0  0  0  0  0  0  0
  141.4470  154.2527  140.6081 H   0  0  0  0  0  0  0  0  0  0  0  0
  140.9051  152.9322  141.2260 H   0  0  0  0  0  0  0  0  0  0  0  0
  1  2  1  0
  2  3  2  0
  2  4  1  0
  4  5  2  0
  5  6  1  0
  6  7  2  0
  7  8  1  0
  8  9  2  0
  9 10  1  0
 10 11  1  0
 10 12  1  0
 10 13  1  0
  9 14  1  0
 14 15  2  0
 15 16  1  0
 16 17  1  0
 17 18  2  0
 17 19  1  0
 19 20  1  0
 20 21  1  0
 21 22  2  0
 21 23  1  0
 19 24  1  0
 24 25  1  0
 16  4  1  0
 25 19  1  0
 15  6  1  0
  1 26  1  0
  5 27  1  0
  7 28  1  0
  8 29  1  0
 14 30  1  0
 20 31  1  0
 20 32  1  0
 24 33  1  0
 24 34  1  0
 25 35  1  0
 25 36  1  0
M  CHG  2   1  -1  23  -1
M  END
>  <UniqueID>  (91) 
91

>  <SMILES>  (91) 
[NH-]C(=O)c1cc2ccc(C(F)(F)F)cc2n1C(=O)C1(CC(=O)[O-])CC1

>  <Energy>  (91) 
346.46979718416173

>  <Genealogy>  (91) 
[NH-]C(=O)c1cc2ccc(C(F)(F)F)cc2n1C(=O)C1(CC(=O)[O-])CC1 (protonated)
[NH-]C(=O)c1cc2ccc(C(F)(F)F)cc2n1C(=O)C1(CC(=O)[O-])CC1 (3D coordinates assigned)
[NH-]C(=O)c1cc2ccc(C(F)(F)F)cc2n1C(=O)C1(CC(=O)[O-])CC1 (nonaromatic ring conformer: 346.46979718416173 kcal/mol)

>  <smiles>  (91) 
NC(=O)c1cc2ccc(C(F)(F)F)cc2n1C(=O)C1(CC(=O)O)CC1

>  <score_type>  (91) 
oracle

>  <origin>  (91) 
adg

>  <m_score__min__energy>  (91) 
-6.6299999999999999

>  <m_primary>  (91) 
energy

$$$$
91:0
     RDKit          3D

 52 55  0  0  0  0  0  0  0  0999 V2000
  140.7150  150.0250  132.9820 C   0  0  0  0  0  0  0  0  0  0  0  0
  141.4630  151.0370  133.4120 C   0  0  0  0  0  0  0  0  0  0  0  0
  142.8110  151.3050  132.8850 C   0  0  0  0  0  0  0  0  0  0  0  0
  143.5480  150.3620  132.4910 O   0  0  0  0  0  0  0  0  0  0  0  0
  143.2860  152.6460  132.8010 N   0  0  0  0  0  0  0  0  0  0  0  0
  144.4600  153.3450  132.2460 C   0  0  0  0  0  0  0  0  0  0  0  0
  144.0010  154.7260  132.6020 C   0  0  0  0  0  0  0  0  0  0  0  0
  144.8780  155.5060  133.6080 C   0  0  0  0  0  0  0  0  0  0  0  0
  145.8780  156.4710  133.0120 C   0  0  0  0  0  0  0  0  0  0  0  0
  146.8810  156.0290  132.3900 O   0  0  0  0  0  0  0  0  0  0  0  0
  145.7090  157.8910  133.1550 N   0  0  0  0  0  0  0  0  0  0  0  0
  146.6690  158.8590  133.1260 C   0  0  0  0  0  0  0  0  0  0  0  0
  148.1280  158.6330  133.0660 C   0  0  0  0  0  0  0  0  0  0  0  0
  148.7210  158.1420  131.8660 N   0  0  0  0  0  0  0  0  0  0  0  0
  148.8640  158.9070  134.0510 O   0  0  0  0  0  0  0  0  0  0  0  0
  146.0980  160.1180  133.3030 C   0  0  0  0  0  0  0  0  0  0  0  0
  144.7530  159.8880  133.4720 C   0  0  0  0  0  0  0  0  0  0  0  0
  143.7200  160.7790  133.7430 C   0  0  0  0  0  0  0  0  0  0  0  0
  142.4280  160.2560  133.9160 C   0  0  0  0  0  0  0  0  0  0  0  0
  142.1900  158.8650  133.7920 C   0  0  0  0  0  0  0  0  0  0  0  0
  140.8150  158.3030  134.0300 C   0  0  0  0  0  0  0  0  0  0  0  0
  140.2100  158.4660  135.3890 C   0  0  0  0  0  0  0  0  0  0  0  0
  139.1090  157.9110  135.6540 O   0  0  0  0  0  0  0  0  0  0  0  0
  140.9060  159.2110  136.3890 N   0  0  0  0  0  0  0  0  0  0  0  0
  141.3640  158.6160  137.6340 C   0  0  0  0  0  0  0  0  0  0  0  0
  139.8410  158.2940  132.8550 C   0  0  0  0  0  0  0  0  0  0  0  0
  140.4980  156.9990  133.3090 C   0  0  0  0  0  0  0  0  0  0  0  0
  143.2650  157.9880  133.5270 C   0  0  0  0  0  0  0  0  0  0  0  0
  144.5440  158.5360  133.3800 C   0  0  0  0  0  0  0  0  0  0  0  0
  142.8110  153.9990  133.1550 C   0  0  0  0  0  0  0  0  0  0  0  0
  139.7127  149.8632  133.4053 H   0  0  0  0  0  0  0  0  0  0  0  0
  141.0986  149.3497  132.2030 H   0  0  0  0  0  0  0  0  0  0  0  0
  141.0587  151.6994  134.1916 H   0  0  0  0  0  0  0  0  0  0  0  0
  145.3979  153.0659  132.7485 H   0  0  0  0  0  0  0  0  0  0  0  0
  144.7062  153.1538  131.1911 H   0  0  0  0  0  0  0  0  0  0  0  0
  143.9270  155.5553  131.8831 H   0  0  0  0  0  0  0  0  0  0  0  0
  144.2070  156.0801  134.2638 H   0  0  0  0  0  0  0  0  0  0  0  0
  145.4772  154.7448  134.1291 H   0  0  0  0  0  0  0  0  0  0  0  0
  148.4610  157.2070  131.4830 H   0  0  0  0  0  0  0  0  0  0  0  0
  146.6139  161.0895  133.3067 H   0  0  0  0  0  0  0  0  0  0  0  0
  143.9090  161.8599  133.8195 H   0  0  0  0  0  0  0  0  0  0  0  0
  141.5931  160.9329  134.1500 H   0  0  0  0  0  0  0  0  0  0  0  0
  140.9378  159.1697  138.4836 H   0  0  0  0  0  0  0  0  0  0  0  0
  141.0386  157.5662  137.6802 H   0  0  0  0  0  0  0  0  0  0  0  0
  142.4621  158.6619  137.6802 H   0  0  0  0  0  0  0  0  0  0  0  0
  138.7672  158.4566  133.0294 H   0  0  0  0  0  0  0  0  0  0  0  0
  139.7681  158.8365  131.9008 H   0  0  0  0  0  0  0  0  0  0  0  0
  139.8986  156.2252  133.8109 H   0  0  0  0  0  0  0  0  0  0  0  0
  141.0964  156.2176  132.8177 H   0  0  0  0  0  0  0  0  0  0  0  0
  143.1012  156.9039  133.4386 H   0  0  0  0  0  0  0  0  0  0  0  0
  142.6928  154.1387  134.2397 H   0  0  0  0  0  0  0  0  0  0  0  0
  141.8200  154.2985  132.7834 H   0  0  0  0  0  0  0  0  0  0  0  0
  1  2  2  0
  2  3  1  0
  3  4  2  0
  3  5  1  0
  5  6  1  0
  6  7  1  0
  7  8  1  0
  8  9  1  0
  9 10  2  0
  9 11  1  0
 11 12  1  0
 12 13  1  0
 13 14  1  0
 13 15  2  0
 12 16  2  0
 16 17  1  0
 17 18  2  0
 18 19  1  0
 19 20  2  0
 20 21  1  0
 21 22  1  0
 22 23  2  0
 22 24  1  0
 24 25  1  0
 21 26  1  0
 26 27  1  0
 20 28  1  0
 28 29  2  0
  7 30  1  0
 30  5  1  0
 29 11  1  0
 29 17  1  0
 27 21  1  0
  1 31  1  0
  1 32  1  0
  2 33  1  0
  6 34  1  0
  6 35  1  0
  7 36  1  0
  8 37  1  0
  8 38  1  0
 14 39  1  0
 16 40  1  0
 18 41  1  0
 19 42  1  0
 25 43  1  0
 25 44  1  0
 25 45  1  0
 26 46  1  0
 26 47  1  0
 27 48  1  0
 27 49  1  0
 28 50  1  0
 30 51  1  0
 30 52  1  0
M  CHG  2  14  -1  24  -1
M  END
>  <UniqueID>  (92) 
92

>  <SMILES>  (92) 
C=CC(=O)N1CC(CC(=O)n2c(C([NH-])=O)cc3ccc(C4(C(=O)[N-]C)CC4)cc32)C1

>  <Energy>  (92) 
397.6304060669027

>  <Genealogy>  (92) 
C=CC(=O)N1CC(CC(=O)n2c(C([NH-])=O)cc3ccc(C4(C(=O)[N-]C)CC4)cc32)C1 (protonated)
C=CC(=O)N1CC(CC(=O)n2c(C([NH-])=O)cc3ccc(C4(C(=O)[N-]C)CC4)cc32)C1 (3D coordinates assigned)
C=CC(=O)N1CC(CC(=O)n2c(C([NH-])=O)cc3ccc(C4(C(=O)[N-]C)CC4)cc32)C1 (nonaromatic ring conformer: 397.6304060669027 kcal/mol)

>  <smiles>  (92) 
C=CC(=O)N1CC(CC(=O)n2c(C(N)=O)cc3ccc(C4(C(=O)NC)CC4)cc32)C1

>  <score_type>  (92) 
oracle

>  <origin>  (92) 
adg

>  <m_score__min__energy>  (92) 
-9.3399999999999999

>  <m_primary>  (92) 
energy

$$$$
92:0
     RDKit          3D

 32 33  0  0  0  0  0  0  0  0999 V2000
  149.9370  150.8360  131.1840 C   0  0  0  0  0  0  0  0  0  0  0  0
  149.4280  152.0940  131.7110 N   0  0  0  0  0  0  0  0  0  0  0  0
  149.1950  152.3500  133.1010 C   0  0  0  0  0  0  0  0  0  0  0  0
  149.6240  151.5290  133.9530 O   0  0  0  0  0  0  0  0  0  0  0  0
  148.4900  153.5940  133.5680 C   0  0  0  0  0  0  0  0  0  0  0  0
  148.3190  154.5400  132.4630 N   0  0  0  0  0  0  0  0  0  0  0  0
  148.0640  155.9430  132.6580 C   0  0  0  0  0  0  0  0  0  0  0  0
  149.1030  156.9090  132.5610 C   0  0  0  0  0  0  0  0  0  0  0  0
  148.8310  158.2750  132.7430 C   0  0  0  0  0  0  0  0  0  0  0  0
  147.5220  158.6490  133.0280 C   0  0  0  0  0  0  0  0  0  0  0  0
  146.9830  159.8990  133.2210 C   0  0  0  0  0  0  0  0  0  0  0  0
  145.6260  159.6840  133.4590 C   0  0  0  0  0  0  0  0  0  0  0  0
  144.6810  160.7660  133.8030 C   0  0  0  0  0  0  0  0  0  0  0  0
  143.3220  160.7170  133.3760 N   0  0  0  0  0  0  0  0  0  0  0  0
  145.0660  161.7230  134.5260 O   0  0  0  0  0  0  0  0  0  0  0  0
  145.3370  158.3520  133.4040 N   0  0  0  0  0  0  0  0  0  0  0  0
  144.0500  157.7230  133.5070 C   0  0  0  0  0  0  0  0  0  0  0  0
  143.1900  157.8800  132.6000 O   0  0  0  0  0  0  0  0  0  0  0  0
  143.7480  156.9150  134.5970 O   0  0  0  0  0  0  0  0  0  0  0  0
  146.5110  157.7320  133.1410 C   0  0  0  0  0  0  0  0  0  0  0  0
  146.7480  156.3670  132.9460 C   0  0  0  0  0  0  0  0  0  0  0  0
  150.2060  150.1711  132.0180 H   0  0  0  0  0  0  0  0  0  0  0  0
  149.1622  150.3563  130.5679 H   0  0  0  0  0  0  0  0  0  0  0  0
  150.8274  151.0300  130.5679 H   0  0  0  0  0  0  0  0  0  0  0  0
  147.5013  153.3208  133.9653 H   0  0  0  0  0  0  0  0  0  0  0  0
  149.0980  154.0715  134.3505 H   0  0  0  0  0  0  0  0  0  0  0  0
  148.3770  154.1820  131.4810 H   0  0  0  0  0  0  0  0  0  0  0  0
  150.1304  156.5832  132.3412 H   0  0  0  0  0  0  0  0  0  0  0  0
  149.6298  159.0269  132.6625 H   0  0  0  0  0  0  0  0  0  0  0  0
  147.5104  160.8640  133.1935 H   0  0  0  0  0  0  0  0  0  0  0  0
  143.0170  160.0550  132.6290 H   0  0  0  0  0  0  0  0  0  0  0  0
  145.9263  155.6390  133.0156 H   0  0  0  0  0  0  0  0  0  0  0  0
  1  2  1  0
  2  3  1  0
  3  4  2  0
  3  5  1  0
  5  6  1  0
  6  7  1  0
  7  8  2  0
  8  9  1  0
  9 10  2  0
 10 11  1  0
 11 12  2  0
 12 13  1  0
 13 14  1  0
 13 15  2  0
 12 16  1  0
 16 17  1  0
 17 18  2  0
 17 19  1  0
 16 20  1  0
 20 21  2  0
 21  7  1  0
 20 10  1  0
  1 22  1  0
  1 23  1  0
  1 24  1  0
  5 25  1  0
  5 26  1  0
  6 27  1  0
  8 28  1  0
  9 29  1  0
 11 30  1  0
 14 31  1  0
 21 32  1  0
M  CHG  3   2  -1  14  -1  19  -1
M  END
>  <UniqueID>  (93) 
93

>  <SMILES>  (93) 
C[N-]C(=O)CNc1ccc2cc(C([NH-])=O)n(C(=O)[O-])c2c1

>  <Energy>  (93) 
68.73715240865499

>  <Genealogy>  (93) 
C[N-]C(=O)CNc1ccc2cc(C([NH-])=O)n(C(=O)[O-])c2c1 (protonated)
C[N-]C(=O)CNc1ccc2cc(C([NH-])=O)n(C(=O)[O-])c2c1 (3D coordinates assigned)
C[N-]C(=O)CNc1ccc2cc(C([NH-])=O)n(C(=O)[O-])c2c1 (optimized conformer: 68.73715240865499 kcal/mol)

>  <smiles>  (93) 
CNC(=O)CNc1ccc2cc(C(N)=O)n(C(=O)O)c2c1

>  <score_type>  (93) 
oracle

>  <origin>  (93) 
adg

>  <m_score__min__energy>  (93) 
-6.2400000000000002

>  <m_primary>  (93) 
energy

$$$$
93:0
     RDKit          3D

 48 50  0  0  0  0  0  0  0  0999 V2000
  141.8710  155.1200  133.7240 C   0  0  0  0  0  0  0  0  0  0  0  0
  143.2770  154.7430  133.5070 N   0  0  0  0  0  0  0  0  0  0  0  0
  143.8450  154.1430  134.7310 C   0  0  0  0  0  0  0  0  0  0  0  0
  145.3450  153.8180  134.5490 C   0  0  0  0  0  0  0  0  0  0  0  0
  145.7470  153.8490  133.1260 N   0  0  0  0  0  0  0  0  0  0  0  0
  147.1120  153.3020  132.9560 C   0  0  0  0  0  0  0  0  0  0  0  0
  148.1420  154.2340  133.6120 C   0  0  0  0  0  0  0  0  0  0  0  0
  148.7880  155.1960  132.6030 C   0  0  0  0  0  0  0  0  0  0  0  0
  148.2610  156.6000  132.7430 C   0  0  0  0  0  0  0  0  0  0  0  0
  149.1480  157.7050  132.6790 C   0  0  0  0  0  0  0  0  0  0  0  0
  148.6730  159.0160  132.8490 C   0  0  0  0  0  0  0  0  0  0  0  0
  147.3110  159.1910  133.0770 C   0  0  0  0  0  0  0  0  0  0  0  0
  146.5940  160.3420  133.3070 C   0  0  0  0  0  0  0  0  0  0  0  0
  145.2760  159.9280  133.4880 C   0  0  0  0  0  0  0  0  0  0  0  0
  144.1510  160.8660  133.6800 C   0  0  0  0  0  0  0  0  0  0  0  0
  142.8130  160.4800  133.3760 N   0  0  0  0  0  0  0  0  0  0  0  0
  144.3780  162.0420  134.0690 O   0  0  0  0  0  0  0  0  0  0  0  0
  145.1830  158.5710  133.3840 N   0  0  0  0  0  0  0  0  0  0  0  0
  144.0240  157.7480  133.5920 C   0  0  0  0  0  0  0  0  0  0  0  0
  143.1680  157.6130  132.6780 O   0  0  0  0  0  0  0  0  0  0  0  0
  143.8220  157.1150  134.8110 O   0  0  0  0  0  0  0  0  0  0  0  0
  146.4370  158.1360  133.1290 C   0  0  0  0  0  0  0  0  0  0  0  0
  146.8860  156.8180  132.9810 C   0  0  0  0  0  0  0  0  0  0  0  0
  144.7650  153.1100  132.3100 C   0  0  0  0  0  0  0  0  0  0  0  0
  143.3910  153.8110  132.3600 C   0  0  0  0  0  0  0  0  0  0  0  0
  141.6684  155.1743  134.8038 H   0  0  0  0  0  0  0  0  0  0  0  0
  141.6795  156.1012  133.2652 H   0  0  0  0  0  0  0  0  0  0  0  0
  141.2143  154.3662  133.2652 H   0  0  0  0  0  0  0  0  0  0  0  0
  143.8070  155.6200  133.2840 H   0  0  0  0  0  0  0  0  0  0  0  0
  143.7298  154.8513  135.5647 H   0  0  0  0  0  0  0  0  0  0  0  0
  143.3083  153.2062  134.9415 H   0  0  0  0  0  0  0  0  0  0  0  0
  145.9394  154.5597  135.1028 H   0  0  0  0  0  0  0  0  0  0  0  0
  145.5227  152.8021  134.9315 H   0  0  0  0  0  0  0  0  0  0  0  0
  147.1673  152.3098  133.4277 H   0  0  0  0  0  0  0  0  0  0  0  0
  147.3348  153.2199  131.8819 H   0  0  0  0  0  0  0  0  0  0  0  0
  147.6379  154.8251  134.3908 H   0  0  0  0  0  0  0  0  0  0  0  0
  148.9402  153.6066  134.0354 H   0  0  0  0  0  0  0  0  0  0  0  0
  149.8753  155.2069  132.7691 H   0  0  0  0  0  0  0  0  0  0  0  0
  148.5429  154.8410  131.5911 H   0  0  0  0  0  0  0  0  0  0  0  0
  150.2188  157.5336  132.4944 H   0  0  0  0  0  0  0  0  0  0  0  0
  149.3558  159.8772  132.8034 H   0  0  0  0  0  0  0  0  0  0  0  0
  146.9796  161.3716  133.3409 H   0  0  0  0  0  0  0  0  0  0  0  0
  142.6160  159.7380  132.6680 H   0  0  0  0  0  0  0  0  0  0  0  0
  146.1850  155.9730  133.0485 H   0  0  0  0  0  0  0  0  0  0  0  0
  145.1149  153.0714  131.2679 H   0  0  0  0  0  0  0  0  0  0  0  0
  144.6615  152.0909  132.7108 H   0  0  0  0  0  0  0  0  0  0  0  0
  143.2488  154.3778  131.4280 H   0  0  0  0  0  0  0  0  0  0  0  0
  142.6210  153.0346  132.4791 H   0  0  0  0  0  0  0  0  0  0  0  0
  1  2  1  0
  2  3  1  0
  3  4  1  0
  4  5  1  0
  5  6  1  0
  6  7  1  0
  7  8  1  0
  8  9  1  0
  9 10  2  0
 10 11  1  0
 11 12  2  0
 12 13  1  0
 13 14  2  0
 14 15  1  0
 15 16  1  0
 15 17  2  0
 14 18  1  0
 18 19  1  0
 19 20  2  0
 19 21  1  0
 18 22  1  0
 22 23  2  0
  5 24  1  0
 24 25  1  0
 25  2  1  0
 23  9  1  0
 22 12  1  0
  1 26  1  0
  1 27  1  0
  1 28  1  0
  2 29  1  0
  3 30  1  0
  3 31  1  0
  4 32  1  0
  4 33  1  0
  6 34  1  0
  6 35  1  0
  7 36  1  0
  7 37  1  0
  8 38  1  0
  8 39  1  0
 10 40  1  0
 11 41  1  0
 13 42  1  0
 16 43  1  0
 23 44  1  0
 24 45  1  0
 24 46  1  0
 25 47  1  0
 25 48  1  0
M  CHG  3   2   1  16  -1  21  -1
M  END
>  <UniqueID>  (94) 
94

>  <SMILES>  (94) 
C[NH+]1CCN(CCCc2ccc3cc(C([NH-])=O)n(C(=O)[O-])c3c2)CC1

>  <Energy>  (94) 
93.68192743458293

>  <Genealogy>  (94) 
C[NH+]1CCN(CCCc2ccc3cc(C([NH-])=O)n(C(=O)[O-])c3c2)CC1 (protonated)
C[NH+]1CCN(CCCc2ccc3cc(C([NH-])=O)n(C(=O)[O-])c3c2)CC1 (3D coordinates assigned)
C[NH+]1CCN(CCCc2ccc3cc(C([NH-])=O)n(C(=O)[O-])c3c2)CC1 (nonaromatic ring conformer: 93.68192743458293 kcal/mol)

>  <smiles>  (94) 
CN1CCN(CCCc2ccc3cc(C(N)=O)n(C(=O)O)c3c2)CC1

>  <score_type>  (94) 
oracle

>  <origin>  (94) 
adg

>  <m_score__min__energy>  (94) 
-5.96

>  <m_primary>  (94) 
energy

$$$$
94:0
     RDKit          3D

 45 47  0  0  0  0  0  0  0  0999 V2000
  141.0870  159.7260  132.7250 N   0  0  0  0  0  0  0  0  0  0  0  0
  141.9690  160.0290  133.8030 C   0  0  0  0  0  0  0  0  0  0  0  0
  141.4950  160.4930  134.8750 O   0  0  0  0  0  0  0  0  0  0  0  0
  143.4300  159.8440  133.6690 C   0  0  0  0  0  0  0  0  0  0  0  0
  144.3580  160.8560  133.9090 C   0  0  0  0  0  0  0  0  0  0  0  0
  145.5850  160.3040  133.6200 C   0  0  0  0  0  0  0  0  0  0  0  0
  146.8590  160.8590  133.6960 C   0  0  0  0  0  0  0  0  0  0  0  0
  147.9540  160.0430  133.3670 C   0  0  0  0  0  0  0  0  0  0  0  0
  147.7600  158.6900  132.9920 C   0  0  0  0  0  0  0  0  0  0  0  0
  148.9340  157.8350  132.6190 C   0  0  0  0  0  0  0  0  0  0  0  0
  149.8460  158.5880  131.9070 F   0  0  0  0  0  0  0  0  0  0  0  0
  146.4510  158.1640  132.9150 C   0  0  0  0  0  0  0  0  0  0  0  0
  145.3770  159.0070  133.2260 C   0  0  0  0  0  0  0  0  0  0  0  0
  144.0580  158.7100  133.2470 N   0  0  0  0  0  0  0  0  0  0  0  0
  143.4690  157.4280  132.9790 C   0  0  0  0  0  0  0  0  0  0  0  0
  142.6120  157.3160  132.0610 O   0  0  0  0  0  0  0  0  0  0  0  0
  143.8700  156.2510  133.7740 C   0  0  0  0  0  0  0  0  0  0  0  0
  144.3000  155.1180  133.2110 C   0  0  0  0  0  0  0  0  0  0  0  0
  144.6700  153.9280  134.0590 C   0  0  0  0  0  0  0  0  0  0  0  0
  146.1160  153.6160  133.9790 N   0  0  0  0  0  0  0  0  0  0  0  0
  146.6390  154.0040  132.6480 C   0  0  0  0  0  0  0  0  0  0  0  0
  148.1740  154.1250  132.6760 C   0  0  0  0  0  0  0  0  0  0  0  0
  148.6770  155.0680  133.6160 O   0  0  0  0  0  0  0  0  0  0  0  0
  147.7380  155.4340  134.6150 C   0  0  0  0  0  0  0  0  0  0  0  0
  146.8830  154.2470  135.0920 C   0  0  0  0  0  0  0  0  0  0  0  0
  141.4110  159.1620  131.9070 H   0  0  0  0  0  0  0  0  0  0  0  0
  144.1529  161.8795  134.2560 H   0  0  0  0  0  0  0  0  0  0  0  0
  147.0040  161.9049  134.0043 H   0  0  0  0  0  0  0  0  0  0  0  0
  148.9721  160.4581  133.4007 H   0  0  0  0  0  0  0  0  0  0  0  0
  149.4109  157.4491  133.5320 H   0  0  0  0  0  0  0  0  0  0  0  0
  148.5914  156.9932  131.9993 H   0  0  0  0  0  0  0  0  0  0  0  0
  146.2799  157.1187  132.6182 H   0  0  0  0  0  0  0  0  0  0  0  0
  143.8128  156.3086  134.8710 H   0  0  0  0  0  0  0  0  0  0  0  0
  144.3849  155.0530  132.1162 H   0  0  0  0  0  0  0  0  0  0  0  0
  144.4109  154.1440  135.1060 H   0  0  0  0  0  0  0  0  0  0  0  0
  144.1137  153.0570  133.6823 H   0  0  0  0  0  0  0  0  0  0  0  0
  146.2290  152.5760  134.0570 H   0  0  0  0  0  0  0  0  0  0  0  0
  146.3511  153.2399  131.9109 H   0  0  0  0  0  0  0  0  0  0  0  0
  146.2139  154.9808  132.3739 H   0  0  0  0  0  0  0  0  0  0  0  0
  148.5915  153.1378  132.9234 H   0  0  0  0  0  0  0  0  0  0  0  0
  148.4765  154.4845  131.6814 H   0  0  0  0  0  0  0  0  0  0  0  0
  148.2841  155.8432  135.4778 H   0  0  0  0  0  0  0  0  0  0  0  0
  147.0572  156.1769  134.1739 H   0  0  0  0  0  0  0  0  0  0  0  0
  147.5458  153.4906  135.5377 H   0  0  0  0  0  0  0  0  0  0  0  0
  146.1575  154.6291  135.8253 H   0  0  0  0  0  0  0  0  0  0  0  0
  1  2  1  0
  2  3  2  0
  2  4  1  0
  4  5  2  0
  5  6  1  0
  6  7  2  0
  7  8  1  0
  8  9  2  0
  9 10  1  0
 10 11  1  0
  9 12  1  0
 12 13  2  0
 13 14  1  0
 14 15  1  0
 15 16  2  0
 15 17  1  0
 17 18  2  3
 18 19  1  0
 19 20  1  0
 20 21  1  0
 21 22  1  0
 22 23  1  0
 23 24  1  0
 24 25  1  0
 14  4  1  0
 25 20  1  0
 13  6  1  0
  1 26  1  0
  5 27  1  0
  7 28  1  0
  8 29  1  0
 10 30  1  0
 10 31  1  0
 12 32  1  0
 17 33  1  0
 18 34  1  0
 19 35  1  0
 19 36  1  0
 20 37  1  0
 21 38  1  0
 21 39  1  0
 22 40  1  0
 22 41  1  0
 24 42  1  0
 24 43  1  0
 25 44  1  0
 25 45  1  0
M  CHG  2   1  -1  20   1
M  END
>  <UniqueID>  (95) 
95

>  <SMILES>  (95) 
[NH-]C(=O)c1cc2ccc(CF)cc2n1C(=O)C=CC[NH+]1CCOCC1

>  <Energy>  (95) 
97.84282371450853

>  <Genealogy>  (95) 
[NH-]C(=O)c1cc2ccc(CF)cc2n1C(=O)C=CC[NH+]1CCOCC1 (protonated)
[NH-]C(=O)c1cc2ccc(CF)cc2n1C(=O)C=CC[NH+]1CCOCC1 (3D coordinates assigned)
[NH-]C(=O)c1cc2ccc(CF)cc2n1C(=O)C=CC[NH+]1CCOCC1 (nonaromatic ring conformer: 97.84282371450853 kcal/mol)

>  <smiles>  (95) 
NC(=O)c1cc2ccc(CF)cc2n1C(=O)C=CCN1CCOCC1

>  <score_type>  (95) 
oracle

>  <origin>  (95) 
adg

>  <m_score__min__energy>  (95) 
-6.9900000000000002

>  <m_primary>  (95) 
energy

$$$$
95:0
     RDKit          3D

 40 41  0  0  0  0  0  0  0  0999 V2000
  139.2900  158.5900  131.9530 C   0  0  0  0  0  0  0  0  0  0  0  0
  138.7450  158.1970  133.3200 C   0  0  0  0  0  0  0  0  0  0  0  0
  139.4570  157.0750  133.8340 O   0  0  0  0  0  0  0  0  0  0  0  0
  140.4430  157.1760  134.8230 C   0  0  0  0  0  0  0  0  0  0  0  0
  140.2150  157.7890  135.9020 O   0  0  0  0  0  0  0  0  0  0  0  0
  141.7660  156.5150  134.6090 C   0  0  0  0  0  0  0  0  0  0  0  0
  142.7900  157.5300  134.1790 C   0  0  0  0  0  0  0  0  0  0  0  0
  142.3970  158.8560  133.8700 C   0  0  0  0  0  0  0  0  0  0  0  0
  143.3480  159.8060  133.4610 C   0  0  0  0  0  0  0  0  0  0  0  0
  144.6790  159.4090  133.3950 C   0  0  0  0  0  0  0  0  0  0  0  0
  145.7910  160.1100  132.9870 C   0  0  0  0  0  0  0  0  0  0  0  0
  146.8530  159.2150  133.1000 C   0  0  0  0  0  0  0  0  0  0  0  0
  148.2460  159.5570  132.7360 C   0  0  0  0  0  0  0  0  0  0  0  0
  149.3600  158.8610  133.2960 N   0  0  0  0  0  0  0  0  0  0  0  0
  148.4570  160.5110  131.9420 O   0  0  0  0  0  0  0  0  0  0  0  0
  146.4170  158.0100  133.5620 N   0  0  0  0  0  0  0  0  0  0  0  0
  147.1930  156.8080  133.7130 C   0  0  0  0  0  0  0  0  0  0  0  0
  147.9010  156.6560  134.7440 O   0  0  0  0  0  0  0  0  0  0  0  0
  147.1840  155.7210  132.6690 C   0  0  0  0  0  0  0  0  0  0  0  0
  148.4540  154.8730  132.6910 C   0  0  0  0  0  0  0  0  0  0  0  0
  145.0810  158.1400  133.7230 C   0  0  0  0  0  0  0  0  0  0  0  0
  144.1510  157.1630  134.0970 C   0  0  0  0  0  0  0  0  0  0  0  0
  140.1761  159.2290  132.0814 H   0  0  0  0  0  0  0  0  0  0  0  0
  139.5690  157.6839  131.3952 H   0  0  0  0  0  0  0  0  0  0  0  0
  138.5184  159.1409  131.3952 H   0  0  0  0  0  0  0  0  0  0  0  0
  138.8560  159.0448  134.0120 H   0  0  0  0  0  0  0  0  0  0  0  0
  137.6829  157.9296  133.2176 H   0  0  0  0  0  0  0  0  0  0  0  0
  142.0930  156.0440  135.5477 H   0  0  0  0  0  0  0  0  0  0  0  0
  141.6636  155.7528  133.8225 H   0  0  0  0  0  0  0  0  0  0  0  0
  141.3385  159.1440  133.9510 H   0  0  0  0  0  0  0  0  0  0  0  0
  143.0489  160.8321  133.2010 H   0  0  0  0  0  0  0  0  0  0  0  0
  145.8325  161.1545  132.6446 H   0  0  0  0  0  0  0  0  0  0  0  0
  149.2460  158.2060  134.1000 H   0  0  0  0  0  0  0  0  0  0  0  0
  150.3280  159.0810  132.9740 H   0  0  0  0  0  0  0  0  0  0  0  0
  146.3197  155.0653  132.8509 H   0  0  0  0  0  0  0  0  0  0  0  0
  147.1255  156.2067  131.6838 H   0  0  0  0  0  0  0  0  0  0  0  0
  148.7465  154.6777  133.7333 H   0  0  0  0  0  0  0  0  0  0  0  0
  148.2664  153.9183  132.1778 H   0  0  0  0  0  0  0  0  0  0  0  0
  149.2639  155.4122  132.1778 H   0  0  0  0  0  0  0  0  0  0  0  0
  144.4723  156.1352  134.3214 H   0  0  0  0  0  0  0  0  0  0  0  0
  1  2  1  0
  2  3  1  0
  3  4  1  0
  4  5  2  0
  4  6  1  0
  6  7  1  0
  7  8  2  0
  8  9  1  0
  9 10  2  0
 10 11  1  0
 11 12  2  0
 12 13  1  0
 13 14  1  0
 13 15  2  0
 12 16  1  0
 16 17  1  0
 17 18  2  0
 17 19  1  0
 19 20  1  0
 16 21  1  0
 21 22  2  0
 22  7  1  0
 21 10  1  0
  1 23  1  0
  1 24  1  0
  1 25  1  0
  2 26  1  0
  2 27  1  0
  6 28  1  0
  6 29  1  0
  8 30  1  0
  9 31  1  0
 11 32  1  0
 14 33  1  0
 14 34  1  0
 19 35  1  0
 19 36  1  0
 20 37  1  0
 20 38  1  0
 20 39  1  0
 22 40  1  0
M  END
>  <UniqueID>  (96) 
96

>  <SMILES>  (96) 
CCOC(=O)Cc1ccc2cc(C(N)=O)n(C(=O)CC)c2c1

>  <Energy>  (96) 
70.55991373746555

>  <Genealogy>  (96) 
CCOC(=O)Cc1ccc2cc(C(N)=O)n(C(=O)CC)c2c1 (3D coordinates assigned)
CCOC(=O)Cc1ccc2cc(C(N)=O)n(C(=O)CC)c2c1 (optimized conformer: 70.55991373746555 kcal/mol)

>  <smiles>  (96) 
CCOC(=O)Cc1ccc2cc(C(N)=O)n(C(=O)CC)c2c1

>  <score_type>  (96) 
oracle

>  <origin>  (96) 
adg

>  <m_score__min__energy>  (96) 
-6.9199999999999999

>  <m_primary>  (96) 
energy

$$$$
96:0
     RDKit          3D

 42 44  0  0  0  0  0  0  0  0999 V2000
  149.0240  158.4210  131.4880 N   0  0  0  0  0  0  0  0  0  0  0  0
  148.6490  158.8880  132.7810 C   0  0  0  0  0  0  0  0  0  0  0  0
  149.5410  159.0790  133.6500 O   0  0  0  0  0  0  0  0  0  0  0  0
  147.2400  159.2050  133.0980 C   0  0  0  0  0  0  0  0  0  0  0  0
  146.7770  160.5010  133.3140 C   0  0  0  0  0  0  0  0  0  0  0  0
  145.4170  160.3790  133.4830 C   0  0  0  0  0  0  0  0  0  0  0  0
  144.4560  161.3540  133.7320 C   0  0  0  0  0  0  0  0  0  0  0  0
  143.1230  160.9390  133.8870 C   0  0  0  0  0  0  0  0  0  0  0  0
  142.7750  159.5650  133.8050 C   0  0  0  0  0  0  0  0  0  0  0  0
  141.4040  159.1510  133.9630 N   0  0  0  0  0  0  0  0  0  0  0  0
  140.5820  158.8080  132.7950 C   0  0  0  0  0  0  0  0  0  0  0  0
  140.0140  157.3870  132.9340 C   0  0  0  0  0  0  0  0  0  0  0  0
  139.6270  157.0170  134.3850 C   0  0  0  0  0  0  0  0  0  0  0  0
  139.5020  158.2510  135.2960 C   0  0  1  0  0  0  0  0  0  0  0  0
  139.1220  157.8820  136.5980 O   0  0  0  0  0  0  0  0  0  0  0  0
  140.8260  159.0420  135.3130 C   0  0  0  0  0  0  0  0  0  0  0  0
  143.7820  158.6080  133.5440 C   0  0  0  0  0  0  0  0  0  0  0  0
  145.0980  159.0510  133.3730 C   0  0  0  0  0  0  0  0  0  0  0  0
  146.2070  158.3150  133.1410 N   0  0  0  0  0  0  0  0  0  0  0  0
  146.2690  156.8830  133.0430 C   0  0  0  0  0  0  0  0  0  0  0  0
  145.3780  156.1760  133.5890 O   0  0  0  0  0  0  0  0  0  0  0  0
  147.3020  156.2820  132.3200 O   0  0  0  0  0  0  0  0  0  0  0  0
  148.3370  155.5250  132.9400 C   0  0  0  0  0  0  0  0  0  0  0  0
  149.5820  156.0720  132.6070 O   0  0  0  0  0  0  0  0  0  0  0  0
  148.7620  157.4630  131.1660 H   0  0  0  0  0  0  0  0  0  0  0  0
  147.3723  161.4256  133.3432 H   0  0  0  0  0  0  0  0  0  0  0  0
  144.7315  162.4164  133.8052 H   0  0  0  0  0  0  0  0  0  0  0  0
  142.3392  161.6877  134.0742 H   0  0  0  0  0  0  0  0  0  0  0  0
  139.7506  159.5238  132.7149 H   0  0  0  0  0  0  0  0  0  0  0  0
  141.2100  158.8530  131.8930 H   0  0  0  0  0  0  0  0  0  0  0  0
  139.1164  157.3075  132.3031 H   0  0  0  0  0  0  0  0  0  0  0  0
  140.8058  156.6899  132.6224 H   0  0  0  0  0  0  0  0  0  0  0  0
  138.6609  156.4913  134.3690 H   0  0  0  0  0  0  0  0  0  0  0  0
  140.4273  156.3815  134.7920 H   0  0  0  0  0  0  0  0  0  0  0  0
  138.7133  158.9009  134.8891 H   0  0  0  0  0  0  0  0  0  0  0  0
  139.0170  158.7140  137.1300 H   0  0  0  0  0  0  0  0  0  0  0  0
  140.6342  160.0526  135.7029 H   0  0  0  0  0  0  0  0  0  0  0  0
  141.5415  158.5058  135.9537 H   0  0  0  0  0  0  0  0  0  0  0  0
  143.5362  157.5379  133.4768 H   0  0  0  0  0  0  0  0  0  0  0  0
  148.2059  155.5509  134.0318 H   0  0  0  0  0  0  0  0  0  0  0  0
  148.2893  154.4838  132.5883 H   0  0  0  0  0  0  0  0  0  0  0  0
  149.6030  156.9800  133.0090 H   0  0  0  0  0  0  0  0  0  0  0  0
  1  2  1  0
  2  3  2  0
  2  4  1  0
  4  5  2  0
  5  6  1  0
  6  7  2  0
  7  8  1  0
  8  9  2  0
  9 10  1  0
 10 11  1  0
 11 12  1  0
 12 13  1  0
 13 14  1  0
 14 15  1  0
 14 16  1  0
  9 17  1  0
 17 18  2  0
 18 19  1  0
 19 20  1  0
 20 21  2  0
 20 22  1  0
 22 23  1  0
 23 24  1  0
 19  4  1  0
 18  6  1  0
 16 10  1  0
  1 25  1  0
  5 26  1  0
  7 27  1  0
  8 28  1  0
 11 29  1  0
 11 30  1  0
 12 31  1  0
 12 32  1  0
 13 33  1  0
 13 34  1  0
 14 35  1  6
 15 36  1  0
 16 37  1  0
 16 38  1  0
 17 39  1  0
 23 40  1  0
 23 41  1  0
 24 42  1  0
M  CHG  1   1  -1
M  END
>  <UniqueID>  (97) 
97

>  <SMILES>  (97) 
[NH-]C(=O)c1cc2ccc(N3CCC[C@@H](O)C3)cc2n1C(=O)OCO

>  <Energy>  (97) 
86.56468873502033

>  <Genealogy>  (97) 
[NH-]C(=O)c1cc2ccc(N3CCC[C@@H](O)C3)cc2n1C(=O)OCO (protonated)
[NH-]C(=O)c1cc2ccc(N3CCC[C@@H](O)C3)cc2n1C(=O)OCO (3D coordinates assigned)
[NH-]C(=O)c1cc2ccc(N3CCC[C@@H](O)C3)cc2n1C(=O)OCO (nonaromatic ring conformer: 86.56468873502033 kcal/mol)

>  <smiles>  (97) 
NC(=O)c1cc2ccc(N3CCC[C@@H](O)C3)cc2n1C(=O)OCO

>  <score_type>  (97) 
oracle

>  <origin>  (97) 
adg

>  <m_score__min__energy>  (97) 
-6.9199999999999999

>  <m_primary>  (97) 
energy

$$$$
97:0
     RDKit          3D

 66 70  0  0  0  0  0  0  0  0999 V2000
  139.5460  156.2740  133.3490 C   0  0  0  0  0  0  0  0  0  0  0  0
  139.8730  157.6620  132.9040 C   0  0  0  0  0  0  0  0  0  0  0  0
  138.9910  158.6260  132.7700 O   0  0  0  0  0  0  0  0  0  0  0  0
  139.6720  159.6890  132.4030 C   0  0  0  0  0  0  0  0  0  0  0  0
  139.1480  160.8130  132.1820 O   0  0  0  0  0  0  0  0  0  0  0  0
  140.9600  159.4530  132.2980 O   0  0  0  0  0  0  0  0  0  0  0  0
  141.1200  158.1850  132.6040 C   0  0  0  0  0  0  0  0  0  0  0  0
  142.4470  157.4890  132.6400 C   0  0  0  0  0  0  0  0  0  0  0  0
  143.0450  157.6370  133.9260 O   0  0  0  0  0  0  0  0  0  0  0  0
  142.9620  158.8170  134.6770 C   0  0  0  0  0  0  0  0  0  0  0  0
  143.7990  159.7440  134.5030 O   0  0  0  0  0  0  0  0  0  0  0  0
  141.8200  158.9880  135.6350 C   0  0  0  0  0  0  0  0  0  0  0  0
  141.6440  157.7810  136.5220 C   0  0  0  0  0  0  0  0  0  0  0  0
  141.1620  157.9320  137.8460 C   0  0  0  0  0  0  0  0  0  0  0  0
  140.9340  156.8070  138.6580 C   0  0  0  0  0  0  0  0  0  0  0  0
  141.1810  155.5480  138.1150 C   0  0  0  0  0  0  0  0  0  0  0  0
  141.0500  154.2980  138.6780 C   0  0  0  0  0  0  0  0  0  0  0  0
  141.4310  153.4020  137.6820 C   0  0  0  0  0  0  0  0  0  0  0  0
  141.3530  151.9360  137.8390 C   0  0  0  0  0  0  0  0  0  0  0  0
  140.9830  151.1200  136.7290 N   0  0  0  0  0  0  0  0  0  0  0  0
  141.6360  151.3880  138.9380 O   0  0  0  0  0  0  0  0  0  0  0  0
  141.7910  154.0710  136.5480 N   0  0  0  0  0  0  0  0  0  0  0  0
  142.3420  153.5180  135.3430 C   0  0  0  0  0  0  0  0  0  0  0  0
  143.5880  153.3210  135.2500 O   0  0  0  0  0  0  0  0  0  0  0  0
  141.4930  153.1560  134.2930 O   0  0  0  0  0  0  0  0  0  0  0  0
  141.7230  153.5130  132.9310 C   0  0  0  0  0  0  0  0  0  0  0  0
  143.0410  154.2810  132.7820 C   0  0  0  0  0  0  0  0  0  0  0  0
  144.1410  153.4070  132.1650 C   0  0  0  0  0  0  0  0  0  0  0  0
  145.4670  153.9540  132.4850 N   0  0  0  0  0  0  0  0  0  0  0  0
  145.6120  155.3120  132.5980 C   0  0  0  0  0  0  0  0  0  0  0  0
  146.8610  155.8820  132.8980 C   0  0  0  0  0  0  0  0  0  0  0  0
  147.0250  157.3490  133.0100 C   0  0  0  0  0  0  0  0  0  0  0  0
  145.9880  158.2200  133.0330 N   0  0  0  0  0  0  0  0  0  0  0  0
  146.4000  159.5130  133.1260 C   0  0  0  0  0  0  0  0  0  0  0  0
  147.7790  159.6940  133.1760 C   0  0  0  0  0  0  0  0  0  0  0  0
  148.4960  158.1740  133.0990 S   0  0  0  0  0  0  0  0  0  0  0  0
  147.9550  155.0290  133.0960 C   0  0  0  0  0  0  0  0  0  0  0  0
  147.7920  153.6480  133.0050 C   0  0  0  0  0  0  0  0  0  0  0  0
  146.5320  153.1170  132.7020 C   0  0  0  0  0  0  0  0  0  0  0  0
  146.3710  151.7320  132.6250 O   0  0  0  0  0  0  0  0  0  0  0  0
  141.6300  155.3840  136.8300 C   0  0  0  0  0  0  0  0  0  0  0  0
  141.8860  156.4880  136.0070 C   0  0  0  0  0  0  0  0  0  0  0  0
  139.5366  156.2340  134.4482 H   0  0  0  0  0  0  0  0  0  0  0  0
  138.5561  155.9889  132.9632 H   0  0  0  0  0  0  0  0  0  0  0  0
  140.3045  155.5770  132.9632 H   0  0  0  0  0  0  0  0  0  0  0  0
  142.3024  156.4195  132.4272 H   0  0  0  0  0  0  0  0  0  0  0  0
  143.1079  157.9361  131.8828 H   0  0  0  0  0  0  0  0  0  0  0  0
  142.0141  159.8678  136.2661 H   0  0  0  0  0  0  0  0  0  0  0  0
  140.8989  159.1165  135.0476 H   0  0  0  0  0  0  0  0  0  0  0  0
  140.9643  158.9389  138.2423 H   0  0  0  0  0  0  0  0  0  0  0  0
  140.5716  156.9176  139.6907 H   0  0  0  0  0  0  0  0  0  0  0  0
  140.7154  154.0581  139.6980 H   0  0  0  0  0  0  0  0  0  0  0  0
  141.0620  151.4740  135.7500 H   0  0  0  0  0  0  0  0  0  0  0  0
  141.7683  152.5983  132.3217 H   0  0  0  0  0  0  0  0  0  0  0  0
  140.8995  154.1593  132.5932 H   0  0  0  0  0  0  0  0  0  0  0  0
  142.8736  155.1537  132.1337 H   0  0  0  0  0  0  0  0  0  0  0  0
  143.3718  154.5917  133.7840 H   0  0  0  0  0  0  0  0  0  0  0  0
  144.0625  152.3866  132.5682 H   0  0  0  0  0  0  0  0  0  0  0  0
  144.0147  153.3914  131.0724 H   0  0  0  0  0  0  0  0  0  0  0  0
  144.7388  155.9648  132.4519 H   0  0  0  0  0  0  0  0  0  0  0  0
  145.6936  160.3555  133.1593 H   0  0  0  0  0  0  0  0  0  0  0  0
  148.3052  160.6570  133.2521 H   0  0  0  0  0  0  0  0  0  0  0  0
  148.9451  155.4506  133.3239 H   0  0  0  0  0  0  0  0  0  0  0  0
  148.6488  152.9783  133.1704 H   0  0  0  0  0  0  0  0  0  0  0  0
  146.7690  151.1100  133.3170 H   0  0  0  0  0  0  0  0  0  0  0  0
  142.2664  156.3515  134.9840 H   0  0  0  0  0  0  0  0  0  0  0  0
  1  2  1  0
  2  3  1  0
  3  4  1  0
  4  5  2  0
  4  6  1  0
  6  7  1  0
  7  8  1  0
  8  9  1  0
  9 10  1  0
 10 11  2  0
 10 12  1  0
 12 13  1  0
 13 14  2  0
 14 15  1  0
 15 16  2  0
 16 17  1  0
 17 18  2  0
 18 19  1  0
 19 20  1  0
 19 21  2  0
 18 22  1  0
 22 23  1  0
 23 24  2  0
 23 25  1  0
 25 26  1  0
 26 27  1  0
 27 28  1  0
 28 29  1  0
 29 30  2  0
 30 31  1  0
 31 32  1  0
 32 33  2  0
 33 34  1  0
 34 35  2  0
 35 36  1  0
 31 37  2  0
 37 38  1  0
 38 39  2  0
 39 40  1  0
 22 41  1  0
 41 42  2  0
  7  2  2  0
 42 13  1  0
 41 16  1  0
 39 29  1  0
 36 32  1  0
  1 43  1  0
  1 44  1  0
  1 45  1  0
  8 46  1  0
  8 47  1  0
 12 48  1  0
 12 49  1  0
 14 50  1  0
 15 51  1  0
 17 52  1  0
 20 53  1  0
 26 54  1  0
 26 55  1  0
 27 56  1  0
 27 57  1  0
 28 58  1  0
 28 59  1  0
 30 60  1  0
 34 61  1  0
 35 62  1  0
 37 63  1  0
 38 64  1  0
 40 65  1  0
 42 66  1  0
M  CHG  2  20  -1  29   1
M  END
>  <UniqueID>  (98) 
98

>  <SMILES>  (98) 
Cc1oc(=O)oc1COC(=O)Cc1ccc2cc(C([NH-])=O)n(C(=O)OCCC[n+]3cc(-c4nccs4)ccc3O)c2c1

>  <Energy>  (98) 
165.54741585863263

>  <Genealogy>  (98) 
Cc1oc(=O)oc1COC(=O)Cc1ccc2cc(C([NH-])=O)n(C(=O)OCCC[n+]3cc(-c4nccs4)ccc3O)c2c1 (protonated)
Cc1oc(=O)oc1COC(=O)Cc1ccc2cc(C([NH-])=O)n(C(=O)OCCC[n+]3cc(-c4nccs4)ccc3O)c2c1 (3D coordinates assigned)
Cc1oc(=O)oc1COC(=O)Cc1ccc2cc(C([NH-])=O)n(C(=O)OCCC[n+]3cc(-c4nccs4)ccc3O)c2c1 (optimized conformer: 165.54741585863263 kcal/mol)

>  <smiles>  (98) 
Cc1oc(=O)oc1COC(=O)Cc1ccc2cc(C(N)=O)n(C(=O)OCCC[n+]3cc(-c4nccs4)ccc3O)c2c1

>  <score_type>  (98) 
oracle

>  <origin>  (98) 
adg

>  <m_score__min__energy>  (98) 
-9.2799999999999994

>  <m_primary>  (98) 
energy

$$$$
98:0
     RDKit          3D

 41 43  0  0  0  0  0  0  0  0999 V2000
  149.9260  158.4760  132.5710 N   0  0  0  0  0  0  0  0  0  0  0  0
  148.8610  159.4030  132.3490 C   0  0  0  0  0  0  0  0  0  0  0  0
  149.1050  160.4880  131.7600 O   0  0  0  0  0  0  0  0  0  0  0  0
  147.4950  159.1150  132.8390 C   0  0  0  0  0  0  0  0  0  0  0  0
  146.4390  160.0220  132.7680 C   0  0  0  0  0  0  0  0  0  0  0  0
  145.3380  159.3360  133.2280 C   0  0  0  0  0  0  0  0  0  0  0  0
  144.0200  159.7590  133.3770 C   0  0  0  0  0  0  0  0  0  0  0  0
  143.0890  158.8440  133.8960 C   0  0  0  0  0  0  0  0  0  0  0  0
  143.4910  157.5330  134.2570 C   0  0  0  0  0  0  0  0  0  0  0  0
  142.4870  156.5590  134.8120 C   0  0  0  0  0  0  0  0  0  0  0  0
  141.5640  157.1760  135.8850 C   0  0  0  0  0  0  0  0  0  0  0  0
  140.1600  157.6440  135.3900 C   0  0  2  0  0  0  0  0  0  0  0  0
  139.2190  157.6810  136.4360 O   0  0  0  0  0  0  0  0  0  0  0  0
  139.6500  156.7390  134.2440 C   0  0  0  0  0  0  0  0  0  0  0  0
  138.9340  157.6480  133.2440 C   0  0  0  0  0  0  0  0  0  0  0  0
  139.5800  159.0190  133.3790 C   0  0  0  0  0  0  0  0  0  0  0  0
  140.1970  158.9880  134.7280 C   0  0  0  0  0  0  0  0  0  0  0  0
  140.6490  159.9920  135.2530 O   0  0  0  0  0  0  0  0  0  0  0  0
  144.8390  157.1420  134.0970 C   0  0  0  0  0  0  0  0  0  0  0  0
  145.7410  158.0690  133.5590 C   0  0  0  0  0  0  0  0  0  0  0  0
  147.0640  157.9160  133.3260 N   0  0  0  0  0  0  0  0  0  0  0  0
  147.8580  156.7510  133.6070 C   0  0  0  0  0  0  0  0  0  0  0  0
  148.1360  156.4410  134.7950 O   0  0  0  0  0  0  0  0  0  0  0  0
  148.3420  155.9650  132.5690 O   0  0  0  0  0  0  0  0  0  0  0  0
  150.8950  158.7070  132.2560 H   0  0  0  0  0  0  0  0  0  0  0  0
  149.7530  157.5440  133.0070 H   0  0  0  0  0  0  0  0  0  0  0  0
  146.4774  161.0643  132.4187 H   0  0  0  0  0  0  0  0  0  0  0  0
  143.7169  160.7786  133.0969 H   0  0  0  0  0  0  0  0  0  0  0  0
  142.0393  159.1471  134.0234 H   0  0  0  0  0  0  0  0  0  0  0  0
  141.8627  156.1918  133.9841 H   0  0  0  0  0  0  0  0  0  0  0  0
  143.0527  155.7494  135.2963 H   0  0  0  0  0  0  0  0  0  0  0  0
  141.4100  156.4219  136.6709 H   0  0  0  0  0  0  0  0  0  0  0  0
  142.0762  158.0862  136.2301 H   0  0  0  0  0  0  0  0  0  0  0  0
  139.1030  158.6310  136.6990 H   0  0  0  0  0  0  0  0  0  0  0  0
  140.4964  156.2332  133.7564 H   0  0  0  0  0  0  0  0  0  0  0  0
  138.9703  155.9639  134.6277 H   0  0  0  0  0  0  0  0  0  0  0  0
  139.0623  157.2650  132.2208 H   0  0  0  0  0  0  0  0  0  0  0  0
  137.8534  157.6924  133.4448 H   0  0  0  0  0  0  0  0  0  0  0  0
  140.3438  159.1705  132.6021 H   0  0  0  0  0  0  0  0  0  0  0  0
  138.8602  159.8421  133.2591 H   0  0  0  0  0  0  0  0  0  0  0  0
  145.1721  156.1347  134.3876 H   0  0  0  0  0  0  0  0  0  0  0  0
  1  2  1  0
  2  3  2  0
  2  4  1  0
  4  5  2  0
  5  6  1  0
  6  7  2  0
  7  8  1  0
  8  9  2  0
  9 10  1  0
 10 11  1  0
 11 12  1  0
 12 13  1  1
 12 14  1  0
 14 15  1  0
 15 16  1  0
 16 17  1  0
 17 18  2  0
  9 19  1  0
 19 20  2  0
 20 21  1  0
 21 22  1  0
 22 23  2  0
 22 24  1  0
 21  4  1  0
 20  6  1  0
 17 12  1  0
  1 25  1  0
  1 26  1  0
  5 27  1  0
  7 28  1  0
  8 29  1  0
 10 30  1  0
 10 31  1  0
 11 32  1  0
 11 33  1  0
 13 34  1  0
 14 35  1  0
 14 36  1  0
 15 37  1  0
 15 38  1  0
 16 39  1  0
 16 40  1  0
 19 41  1  0
M  CHG  1  24  -1
M  END
>  <UniqueID>  (99) 
99

>  <SMILES>  (99) 
NC(=O)c1cc2ccc(CC[C@]3(O)CCCC3=O)cc2n1C(=O)[O-]

>  <Energy>  (99) 
83.25806540574416

>  <Genealogy>  (99) 
NC(=O)c1cc2ccc(CCC3(O)CCCC3=O)cc2n1C(=O)[O-] (protonated)
NC(=O)c1cc2ccc(CC[C@]3(O)CCCC3=O)cc2n1C(=O)[O-] (chirality)
NC(=O)c1cc2ccc(CC[C@]3(O)CCCC3=O)cc2n1C(=O)[O-] (3D coordinates assigned)
NC(=O)c1cc2ccc(CC[C@]3(O)CCCC3=O)cc2n1C(=O)[O-] (nonaromatic ring conformer: 83.25806540574416 kcal/mol)

>  <smiles>  (99) 
NC(=O)c1cc2ccc(CCC3(O)CCCC3=O)cc2n1C(=O)O

>  <score_type>  (99) 
oracle

>  <origin>  (99) 
adg

>  <m_score__min__energy>  (99) 
-8.0999999999999996

>  <m_primary>  (99) 
energy

$$$$
99:0
     RDKit          3D

 46 48  0  0  0  0  0  0  0  0999 V2000
  139.8970  156.3140  133.3620 C   0  0  0  0  0  0  0  0  0  0  0  0
  139.1190  157.5360  133.8340 C   0  0  0  0  0  0  0  0  0  0  0  0
  139.9940  158.4900  134.4310 O   0  0  0  0  0  0  0  0  0  0  0  0
  140.2330  158.5590  135.8080 C   0  0  0  0  0  0  0  0  0  0  0  0
  140.8720  159.5260  136.3050 O   0  0  0  0  0  0  0  0  0  0  0  0
  139.6740  157.5010  136.7050 C   0  0  0  0  0  0  0  0  0  0  0  0
  140.7030  157.0920  137.7540 C   0  0  0  0  0  0  0  0  0  0  0  0
  140.6750  155.6460  137.9270 N   0  0  0  0  0  0  0  0  0  0  0  0
  141.8300  154.8200  137.7550 C   0  0  0  0  0  0  0  0  0  0  0  0
  142.6150  154.6240  138.7210 O   0  0  0  0  0  0  0  0  0  0  0  0
  142.1130  154.2410  136.4720 N   0  0  0  0  0  0  0  0  0  0  0  0
  141.8430  152.9720  136.0500 C   0  0  0  0  0  0  0  0  0  0  0  0
  141.3570  151.8620  136.8950 C   0  0  0  0  0  0  0  0  0  0  0  0
  141.6790  151.8000  138.2820 N   0  0  0  0  0  0  0  0  0  0  0  0
  140.6900  150.9270  136.3750 O   0  0  0  0  0  0  0  0  0  0  0  0
  142.1710  152.8240  134.7050 C   0  0  0  0  0  0  0  0  0  0  0  0
  142.6630  154.0490  134.3130 C   0  0  0  0  0  0  0  0  0  0  0  0
  143.1270  154.4710  133.0720 C   0  0  0  0  0  0  0  0  0  0  0  0
  143.5500  155.8040  132.9440 C   0  0  0  0  0  0  0  0  0  0  0  0
  143.4950  156.6930  134.0500 C   0  0  0  0  0  0  0  0  0  0  0  0
  143.9330  158.1050  133.9020 C   0  0  0  0  0  0  0  0  0  0  0  0
  145.2450  158.4140  133.5050 C   0  0  0  0  0  0  0  0  0  0  0  0
  145.6420  159.7460  133.3680 C   0  0  0  0  0  0  0  0  0  0  0  0
  144.7240  160.7640  133.6300 C   0  0  0  0  0  0  0  0  0  0  0  0
  143.4580  160.4550  134.0140 N   0  0  0  0  0  0  0  0  0  0  0  0
  143.0450  159.1670  134.1540 C   0  0  0  0  0  0  0  0  0  0  0  0
  143.0140  156.2230  135.2960 C   0  0  0  0  0  0  0  0  0  0  0  0
  142.6180  154.8860  135.3980 C   0  0  0  0  0  0  0  0  0  0  0  0
  140.2568  155.7489  134.2345 H   0  0  0  0  0  0  0  0  0  0  0  0
  139.2403  155.6731  132.7554 H   0  0  0  0  0  0  0  0  0  0  0  0
  140.7556  156.6378  132.7554 H   0  0  0  0  0  0  0  0  0  0  0  0
  138.6146  157.9980  132.9725 H   0  0  0  0  0  0  0  0  0  0  0  0
  138.3792  157.2170  134.5830 H   0  0  0  0  0  0  0  0  0  0  0  0
  138.7777  157.8908  137.2097 H   0  0  0  0  0  0  0  0  0  0  0  0
  139.4149  156.6207  136.0985 H   0  0  0  0  0  0  0  0  0  0  0  0
  141.7055  157.4020  137.4240 H   0  0  0  0  0  0  0  0  0  0  0  0
  140.4636  157.5794  138.7106 H   0  0  0  0  0  0  0  0  0  0  0  0
  142.3420  152.4830  138.7120 H   0  0  0  0  0  0  0  0  0  0  0  0
  142.0606  151.9207  134.0870 H   0  0  0  0  0  0  0  0  0  0  0  0
  143.1617  153.7812  132.2159 H   0  0  0  0  0  0  0  0  0  0  0  0
  143.9283  156.1637  131.9758 H   0  0  0  0  0  0  0  0  0  0  0  0
  145.9615  157.6045  133.3016 H   0  0  0  0  0  0  0  0  0  0  0  0
  146.6683  159.9903  133.0566 H   0  0  0  0  0  0  0  0  0  0  0  0
  145.0255  161.8167  133.5256 H   0  0  0  0  0  0  0  0  0  0  0  0
  142.0118  158.9543  134.4658 H   0  0  0  0  0  0  0  0  0  0  0  0
  142.9532  156.8950  136.1647 H   0  0  0  0  0  0  0  0  0  0  0  0
  1  2  1  0
  2  3  1  0
  3  4  1  0
  4  5  2  0
  4  6  1  0
  6  7  1  0
  7  8  1  0
  8  9  1  0
  9 10  2  0
  9 11  1  0
 11 12  1  0
 12 13  1  0
 13 14  1  0
 13 15  2  0
 12 16  2  0
 16 17  1  0
 17 18  2  0
 18 19  1  0
 19 20  2  0
 20 21  1  0
 21 22  2  0
 22 23  1  0
 23 24  2  0
 24 25  1  0
 25 26  2  0
 20 27  1  0
 27 28  2  0
 28 11  1  0
 28 17  1  0
 26 21  1  0
  1 29  1  0
  1 30  1  0
  1 31  1  0
  2 32  1  0
  2 33  1  0
  6 34  1  0
  6 35  1  0
  7 36  1  0
  7 37  1  0
 14 38  1  0
 16 39  1  0
 18 40  1  0
 19 41  1  0
 22 42  1  0
 23 43  1  0
 24 44  1  0
 26 45  1  0
 27 46  1  0
M  CHG  2   8  -1  14  -1
M  END
>  <UniqueID>  (100) 
100

>  <SMILES>  (100) 
CCOC(=O)CC[N-]C(=O)n1c(C([NH-])=O)cc2ccc(-c3cccnc3)cc21

>  <Energy>  (100) 
83.89469165128033

>  <Genealogy>  (100) 
CCOC(=O)CC[N-]C(=O)n1c(C([NH-])=O)cc2ccc(-c3cccnc3)cc21 (protonated)
CCOC(=O)CC[N-]C(=O)n1c(C([NH-])=O)cc2ccc(-c3cccnc3)cc21 (3D coordinates assigned)
CCOC(=O)CC[N-]C(=O)n1c(C([NH-])=O)cc2ccc(-c3cccnc3)cc21 (optimized conformer: 83.89469165128033 kcal/mol)

>  <smiles>  (100) 
CCOC(=O)CCNC(=O)n1c(C(N)=O)cc2ccc(-c3cccnc3)cc21

>  <score_type>  (100) 
oracle

>  <origin>  (100) 
adg

>  <m_score__min__energy>  (100) 
-7.8600000000000003

>  <m_primary>  (100) 
energy

$$$$
